
 OpenBabel03272510173D

 26 28  0  0  0  0  0  0  0  0999 V2000
   37.2290   29.5350   51.2190 Br  0  0  0  0  0  0  0  0  0  0  0  0
   36.0130   29.3200   49.7660 C   0  0  0  0  0  0  0  0  0  0  0  0
   36.0990   30.1320   48.6370 C   0  0  0  0  0  0  0  0  0  0  0  0
   35.1890   29.9220   47.6290 C   0  0  0  0  0  0  0  0  0  0  0  0
   34.2050   28.9530   47.6850 C   0  0  0  0  0  0  0  0  0  0  0  0
   34.1450   28.1700   48.8080 C   0  0  0  0  0  0  0  0  0  0  0  0
   35.0460   28.3610   49.8320 C   0  0  0  0  0  0  0  0  0  0  0  0
   35.2690   30.5600   46.7600 H   0  0  0  0  0  0  0  0  0  0  0  0
   33.4170   27.3840   48.9570 H   0  0  0  0  0  0  0  0  0  0  0  0
   35.0030   27.7420   50.7230 H   0  0  0  0  0  0  0  0  0  0  0  0
   37.9710   33.1690   49.4000 C   0  0  0  0  0  0  0  0  0  0  0  0
   39.0140   33.1630   48.4230 C   0  0  0  0  0  0  0  0  0  0  0  0
   39.0480   32.1120   47.5220 C   0  0  0  0  0  0  0  0  0  0  0  0
   38.0920   31.1370   47.6080 N   0  0  0  0  0  0  0  0  0  0  0  0
   37.1180   31.1670   48.5410 C   0  0  0  0  0  0  0  0  0  0  0  0
   37.0630   32.1900   49.4380 N   0  0  0  0  0  0  0  0  0  0  0  0
   37.8740   33.9480   50.1350 H   0  0  0  0  0  0  0  0  0  0  0  0
   39.7220   33.9700   48.4290 H   0  0  0  0  0  0  0  0  0  0  0  0
   39.8270   32.0860   46.7730 H   0  0  0  0  0  0  0  0  0  0  0  0
   33.2410   28.7290   46.6200 C   0  0  0  0  0  0  0  0  0  0  0  0
   33.5610   28.5920   45.2860 C   0  0  0  0  0  3  0  0  0  0  0  0
   32.6050   28.3790   44.3050 C   0  0  0  0  0  0  0  0  0  0  0  0
   32.9500   28.2830   43.2860 H   0  0  0  0  0  0  0  0  0  0  0  0
   31.3140   28.3000   44.6470 N   0  0  0  0  0  0  0  0  0  0  0  0
   30.9880   28.4320   45.9480 C   0  0  0  0  0  3  0  0  0  0  0  0
   31.9240   28.6380   46.8810 N   0  0  0  0  0  0  0  0  0  0  0  0
  2  7  1  0  0  0  0
  2  1  1  0  0  0  0
  3  2  2  0  0  0  0
  4  5  2  0  0  0  0
  4  3  1  0  0  0  0
  5  6  1  0  0  0  0
  6  9  1  0  0  0  0
  6  7  2  0  0  0  0
  7 10  1  0  0  0  0
  8  4  1  0  0  0  0
 11 16  1  0  0  0  0
 11 17  1  0  0  0  0
 12 18  1  0  0  0  0
 12 11  2  0  0  0  0
 13 14  2  0  0  0  0
 13 12  1  0  0  0  0
 14 15  1  0  0  0  0
 15  3  1  0  0  0  0
 15 16  2  0  0  0  0
 19 13  1  0  0  0  0
 20 26  1  0  0  0  0
 20  5  1  0  0  0  0
 21 20  2  0  0  0  0
 22 24  2  0  0  0  0
 22 21  1  0  0  0  0
 23 22  1  0  0  0  0
 24 25  1  0  0  0  0
 25 26  2  0  0  0  0
M  END
>  <minimizedAffinity>
-5.85974216

>  <minimizedRMSD>
0.38503328

$$$$
