
 OpenBabel03272506313D

 32 34  0  0  1  0  0  0  0  0999 V2000
   38.2720   24.9730   33.7840 C   0  0  1  0  0  0  0  0  0  0  0  0
   39.5540   25.6350   33.4910 C   0  0  0  0  0  0  0  0  0  0  0  0
   39.7590   27.0070   34.0660 C   0  0  0  0  0  0  0  0  0  0  0  0
   39.1840   27.2210   35.4180 C   0  0  0  0  0  0  0  0  0  0  0  0
   37.8820   26.5740   35.7140 C   0  0  0  0  0  0  0  0  0  0  0  0
   37.8090   25.1720   35.1840 C   0  0  2  0  0  0  0  0  0  0  0  0
   38.4480   23.8480   33.7100 H   0  0  0  0  0  0  0  0  0  0  0  0
   39.9070   25.6350   32.4740 H   0  0  0  0  0  0  0  0  0  0  0  0
   40.3350   25.0160   34.0420 H   0  0  0  0  0  0  0  0  0  0  0  0
   39.3010   27.7360   33.3650 H   0  0  0  0  0  0  0  0  0  0  0  0
   40.8410   27.2150   34.0980 H   0  0  0  0  0  0  0  0  0  0  0  0
   39.9570   26.9040   36.1660 H   0  0  0  0  0  0  0  0  0  0  0  0
   39.0720   28.3180   35.5800 H   0  0  0  0  0  0  0  0  0  0  0  0
   36.9980   27.1550   35.3750 H   0  0  0  0  0  0  0  0  0  0  0  0
   37.7940   26.5050   36.8190 H   0  0  0  0  0  0  0  0  0  0  0  0
   36.7720   24.8520   35.3600 H   0  0  0  0  0  0  0  0  0  0  0  0
   36.7070   26.4620   32.4140 C   0  0  0  0  0  0  0  0  0  0  0  0
   37.2110   25.1860   32.7750 C   0  0  0  0  0  0  0  0  0  0  0  0
   36.6650   24.1020   32.1170 C   0  0  0  0  0  0  0  0  0  0  0  0
   35.6990   24.2850   31.1800 N   0  0  0  0  0  0  0  0  0  0  0  0
   35.2490   25.5280   30.8690 C   0  0  0  0  0  0  0  0  0  0  0  0
   35.7620   26.6210   31.4940 N   0  0  0  0  0  0  0  0  0  0  0  0
   37.0920   27.3470   32.8900 H   0  0  0  0  0  0  0  0  0  0  0  0
   36.8930   23.0590   32.2210 H   0  0  0  0  0  0  0  0  0  0  0  0
   34.4810   25.7110   30.1280 H   0  0  0  0  0  0  0  0  0  0  0  0
   38.6120   24.2510   36.0750 C   0  0  0  0  0  0  0  0  0  0  0  0
   38.2570   24.1450   37.4240 C   0  0  0  0  0  3  0  0  0  0  0  0
   38.9480   23.3180   38.3200 C   0  0  0  0  0  0  0  0  0  0  0  0
   38.6360   23.2690   39.3540 H   0  0  0  0  0  0  0  0  0  0  0  0
   39.9870   22.6090   37.8430 N   0  0  0  0  0  0  0  0  0  0  0  0
   40.3360   22.7070   36.5370 C   0  0  0  0  0  3  0  0  0  0  0  0
   39.6650   23.4960   35.7160 N   0  0  0  0  0  0  0  0  0  0  0  0
  1  7  1  6  0  0  0
  1  6  1  0  0  0  0
  2  1  1  0  0  0  0
  2  9  1  0  0  0  0
  2  3  1  0  0  0  0
  3 11  1  0  0  0  0
  3  4  1  0  0  0  0
  4 13  1  0  0  0  0
  4  5  1  0  0  0  0
  4 12  1  0  0  0  0
  5 15  1  0  0  0  0
  6 16  1  1  0  0  0
  6  5  1  0  0  0  0
  6 26  1  0  0  0  0
  8  2  1  0  0  0  0
 10  3  1  0  0  0  0
 14  5  1  0  0  0  0
 17 18  1  0  0  0  0
 17 23  1  0  0  0  0
 18  1  1  0  0  0  0
 19 24  1  0  0  0  0
 19 18  2  0  0  0  0
 20 19  1  0  0  0  0
 21 20  2  0  0  0  0
 21 22  1  0  0  0  0
 22 17  2  0  0  0  0
 25 21  1  0  0  0  0
 26 27  1  0  0  0  0
 27 28  2  0  0  0  0
 28 29  1  0  0  0  0
 30 28  1  0  0  0  0
 31 30  2  0  0  0  0
 32 26  2  0  0  0  0
 32 31  1  0  0  0  0
M  END
>  <minimizedAffinity>
-5.36621428

$$$$

 OpenBabel03272506313D

 32 34  0  0  1  0  0  0  0  0999 V2000
   37.6220   26.7010   33.6020 C   0  0  1  0  0  0  0  0  0  0  0  0
   38.8460   26.5210   32.8030 C   0  0  0  0  0  0  0  0  0  0  0  0
   40.1220   27.0630   33.3800 C   0  0  0  0  0  0  0  0  0  0  0  0
   40.2560   26.9380   34.8530 C   0  0  0  0  0  0  0  0  0  0  0  0
   39.0310   27.1370   35.6680 C   0  0  0  0  0  0  0  0  0  0  0  0
   37.8280   26.4780   35.0590 C   0  0  2  0  0  0  0  0  0  0  0  0
   36.8950   25.8750   33.2980 H   0  0  0  0  0  0  0  0  0  0  0  0
   38.8120   26.7710   31.7570 H   0  0  0  0  0  0  0  0  0  0  0  0
   39.0310   25.3980   32.8020 H   0  0  0  0  0  0  0  0  0  0  0  0
   40.1840   28.1370   33.1070 H   0  0  0  0  0  0  0  0  0  0  0  0
   40.9700   26.5510   32.8970 H   0  0  0  0  0  0  0  0  0  0  0  0
   40.7060   25.9320   35.0660 H   0  0  0  0  0  0  0  0  0  0  0  0
   41.0250   27.6670   35.1970 H   0  0  0  0  0  0  0  0  0  0  0  0
   38.8060   28.2010   35.8960 H   0  0  0  0  0  0  0  0  0  0  0  0
   39.2060   26.6460   36.6480 H   0  0  0  0  0  0  0  0  0  0  0  0
   36.9810   26.7950   35.6830 H   0  0  0  0  0  0  0  0  0  0  0  0
   36.0450   28.6110   34.2430 C   0  0  0  0  0  0  0  0  0  0  0  0
   36.8470   27.9240   33.2960 C   0  0  0  0  0  0  0  0  0  0  0  0
   36.8940   28.4620   32.0260 C   0  0  0  0  0  0  0  0  0  0  0  0
   36.1970   29.5910   31.7350 N   0  0  0  0  0  0  0  0  0  0  0  0
   35.4420   30.2130   32.6770 C   0  0  0  0  0  0  0  0  0  0  0  0
   35.3700   29.7130   33.9390 N   0  0  0  0  0  0  0  0  0  0  0  0
   35.9670   28.2410   35.2510 H   0  0  0  0  0  0  0  0  0  0  0  0
   37.4320   28.1220   31.1630 H   0  0  0  0  0  0  0  0  0  0  0  0
   34.8740   31.1130   32.4800 H   0  0  0  0  0  0  0  0  0  0  0  0
   37.8940   24.9860   35.2960 C   0  0  0  0  0  0  0  0  0  0  0  0
   37.8500   24.5130   36.6130 C   0  0  0  0  0  3  0  0  0  0  0  0
   37.9070   23.1480   36.9230 C   0  0  0  0  0  0  0  0  0  0  0  0
   37.8690   22.8300   37.9560 H   0  0  0  0  0  0  0  0  0  0  0  0
   38.0090   22.2780   35.9020 N   0  0  0  0  0  0  0  0  0  0  0  0
   38.0530   22.7290   34.6250 C   0  0  0  0  0  3  0  0  0  0  0  0
   37.9970   24.0240   34.3630 N   0  0  0  0  0  0  0  0  0  0  0  0
  1  7  1  6  0  0  0
  1  6  1  0  0  0  0
  2  3  1  0  0  0  0
  2  1  1  0  0  0  0
  3  4  1  0  0  0  0
  4 12  1  0  0  0  0
  4 13  1  0  0  0  0
  4  5  1  0  0  0  0
  5 14  1  0  0  0  0
  5 15  1  0  0  0  0
  6 26  1  0  0  0  0
  6  5  1  0  0  0  0
  6 16  1  1  0  0  0
  8  2  1  0  0  0  0
  9  2  1  0  0  0  0
 10  3  1  0  0  0  0
 11  3  1  0  0  0  0
 17 23  1  0  0  0  0
 18  1  1  0  0  0  0
 18 17  2  0  0  0  0
 19 18  1  0  0  0  0
 20 19  2  0  0  0  0
 20 21  1  0  0  0  0
 21 22  2  0  0  0  0
 22 17  1  0  0  0  0
 24 19  1  0  0  0  0
 25 21  1  0  0  0  0
 26 27  1  0  0  0  0
 27 28  2  0  0  0  0
 28 29  1  0  0  0  0
 30 28  1  0  0  0  0
 31 30  2  0  0  0  0
 32 31  1  0  0  0  0
 32 26  2  0  0  0  0
M  END
>  <minimizedAffinity>
-5.10700893

$$$$

 OpenBabel03272506313D

 32 34  0  0  1  0  0  0  0  0999 V2000
   37.8450   26.6100   33.3670 C   0  0  1  0  0  0  0  0  0  0  0  0
   39.1330   26.4080   32.6810 C   0  0  0  0  0  0  0  0  0  0  0  0
   40.3540   26.9750   33.3460 C   0  0  0  0  0  0  0  0  0  0  0  0
   40.3620   26.9010   34.8290 C   0  0  0  0  0  0  0  0  0  0  0  0
   39.0720   27.1230   35.5290 C   0  0  0  0  0  0  0  0  0  0  0  0
   37.9270   26.4390   34.8430 C   0  0  2  0  0  0  0  0  0  0  0  0
   37.1480   25.7720   33.0300 H   0  0  0  0  0  0  0  0  0  0  0  0
   39.1880   26.6220   31.6280 H   0  0  0  0  0  0  0  0  0  0  0  0
   39.3190   25.2860   32.7350 H   0  0  0  0  0  0  0  0  0  0  0  0
   40.4380   28.0390   33.0420 H   0  0  0  0  0  0  0  0  0  0  0  0
   41.2410   26.4500   32.9550 H   0  0  0  0  0  0  0  0  0  0  0  0
   40.7940   25.9050   35.1140 H   0  0  0  0  0  0  0  0  0  0  0  0
   41.0980   27.6440   35.2120 H   0  0  0  0  0  0  0  0  0  0  0  0
   38.8280   28.1930   35.7000 H   0  0  0  0  0  0  0  0  0  0  0  0
   39.1640   26.6660   36.5360 H   0  0  0  0  0  0  0  0  0  0  0  0
   37.0290   26.7730   35.3810 H   0  0  0  0  0  0  0  0  0  0  0  0
   37.2310   28.4360   31.6840 C   0  0  0  0  0  0  0  0  0  0  0  0
   37.0970   27.8180   32.9540 C   0  0  0  0  0  0  0  0  0  0  0  0
   36.1980   28.3970   33.8270 C   0  0  0  0  0  0  0  0  0  0  0  0
   35.4960   29.4980   33.4560 N   0  0  0  0  0  0  0  0  0  0  0  0
   35.6590   30.0550   32.2280 C   0  0  0  0  0  0  0  0  0  0  0  0
   36.5350   29.5140   31.3390 N   0  0  0  0  0  0  0  0  0  0  0  0
   37.9160   28.0330   30.9590 H   0  0  0  0  0  0  0  0  0  0  0  0
   35.9310   28.1010   34.8220 H   0  0  0  0  0  0  0  0  0  0  0  0
   35.1170   30.9320   31.8990 H   0  0  0  0  0  0  0  0  0  0  0  0
   37.9740   24.9560   35.1360 C   0  0  0  0  0  0  0  0  0  0  0  0
   37.9800   24.5350   36.4710 C   0  0  0  0  0  3  0  0  0  0  0  0
   38.0250   23.1820   36.8320 C   0  0  0  0  0  0  0  0  0  0  0  0
   38.0270   22.9060   37.8780 H   0  0  0  0  0  0  0  0  0  0  0  0
   38.0630   22.2720   35.8430 N   0  0  0  0  0  0  0  0  0  0  0  0
   38.0580   22.6710   34.5490 C   0  0  0  0  0  3  0  0  0  0  0  0
   38.0150   23.9550   34.2390 N   0  0  0  0  0  0  0  0  0  0  0  0
  1  7  1  6  0  0  0
  1  6  1  0  0  0  0
  2  9  1  0  0  0  0
  2  3  1  0  0  0  0
  2  1  1  0  0  0  0
  3  4  1  0  0  0  0
  4 12  1  0  0  0  0
  4 13  1  0  0  0  0
  4  5  1  0  0  0  0
  5 14  1  0  0  0  0
  5 15  1  0  0  0  0
  6 26  1  0  0  0  0
  6 16  1  1  0  0  0
  6  5  1  0  0  0  0
  8  2  1  0  0  0  0
 10  3  1  0  0  0  0
 11  3  1  0  0  0  0
 17 18  1  0  0  0  0
 18  1  1  0  0  0  0
 18 19  2  0  0  0  0
 19 24  1  0  0  0  0
 20 19  1  0  0  0  0
 21 20  2  0  0  0  0
 22 17  2  0  0  0  0
 22 21  1  0  0  0  0
 23 17  1  0  0  0  0
 25 21  1  0  0  0  0
 26 27  1  0  0  0  0
 27 28  2  0  0  0  0
 28 29  1  0  0  0  0
 30 28  1  0  0  0  0
 31 30  2  0  0  0  0
 32 31  1  0  0  0  0
 32 26  2  0  0  0  0
M  END
>  <minimizedAffinity>
-4.95391607

$$$$

 OpenBabel03272506313D

 32 34  0  0  1  0  0  0  0  0999 V2000
   38.3390   24.3770   35.0950 C   0  0  1  0  0  0  0  0  0  0  0  0
   37.7730   25.4910   35.8750 C   0  0  0  0  0  0  0  0  0  0  0  0
   38.5130   26.7970   35.8300 C   0  0  0  0  0  0  0  0  0  0  0  0
   39.1280   27.1350   34.5220 C   0  0  0  0  0  0  0  0  0  0  0  0
   39.7190   26.0200   33.7400 C   0  0  0  0  0  0  0  0  0  0  0  0
   38.8610   24.7900   33.7650 C   0  0  2  0  0  0  0  0  0  0  0  0
   37.4800   23.6680   34.8470 H   0  0  0  0  0  0  0  0  0  0  0  0
   37.4750   25.3020   36.8910 H   0  0  0  0  0  0  0  0  0  0  0  0
   36.7930   25.7440   35.3530 H   0  0  0  0  0  0  0  0  0  0  0  0
   39.3120   26.7560   36.6000 H   0  0  0  0  0  0  0  0  0  0  0  0
   37.8180   27.6030   36.1200 H   0  0  0  0  0  0  0  0  0  0  0  0
   38.3530   27.6710   33.9140 H   0  0  0  0  0  0  0  0  0  0  0  0
   39.9220   27.8970   34.6960 H   0  0  0  0  0  0  0  0  0  0  0  0
   40.7600   25.7630   34.0310 H   0  0  0  0  0  0  0  0  0  0  0  0
   39.7720   26.3550   32.6830 H   0  0  0  0  0  0  0  0  0  0  0  0
   39.4550   24.0150   33.2590 H   0  0  0  0  0  0  0  0  0  0  0  0
   40.2610   22.6940   35.2320 C   0  0  0  0  0  0  0  0  0  0  0  0
   39.2620   23.4940   35.8430 C   0  0  0  0  0  0  0  0  0  0  0  0
   39.1810   23.4300   37.2200 C   0  0  0  0  0  0  0  0  0  0  0  0
   40.0290   22.6340   37.9190 N   0  0  0  0  0  0  0  0  0  0  0  0
   40.9710   21.8850   37.2890 C   0  0  0  0  0  0  0  0  0  0  0  0
   41.0830   21.9210   35.9340 N   0  0  0  0  0  0  0  0  0  0  0  0
   40.3750   22.7000   34.1620 H   0  0  0  0  0  0  0  0  0  0  0  0
   38.5170   23.9460   37.8860 H   0  0  0  0  0  0  0  0  0  0  0  0
   41.6630   21.2400   37.8140 H   0  0  0  0  0  0  0  0  0  0  0  0
   37.6790   24.9780   32.8400 C   0  0  0  0  0  0  0  0  0  0  0  0
   37.0020   23.8440   32.3760 C   0  0  0  0  0  3  0  0  0  0  0  0
   35.8990   23.9270   31.5160 C   0  0  0  0  0  0  0  0  0  0  0  0
   35.4080   23.0220   31.1840 H   0  0  0  0  0  0  0  0  0  0  0  0
   35.4940   25.1520   31.1350 N   0  0  0  0  0  0  0  0  0  0  0  0
   36.1440   26.2540   31.5800 C   0  0  0  0  0  3  0  0  0  0  0  0
   37.1820   26.1440   32.3920 N   0  0  0  0  0  0  0  0  0  0  0  0
  1  7  1  6  0  0  0
  1 18  1  0  0  0  0
  1  2  1  0  0  0  0
  2  8  1  0  0  0  0
  3  2  1  0  0  0  0
  3 11  1  0  0  0  0
  3 10  1  0  0  0  0
  4 13  1  0  0  0  0
  4  3  1  0  0  0  0
  5  6  1  0  0  0  0
  5 14  1  0  0  0  0
  5  4  1  0  0  0  0
  6 16  1  6  0  0  0
  6  1  1  0  0  0  0
  9  2  1  0  0  0  0
 12  4  1  0  0  0  0
 15  5  1  0  0  0  0
 17 18  2  0  0  0  0
 17 22  1  0  0  0  0
 18 19  1  0  0  0  0
 19 24  1  0  0  0  0
 19 20  2  0  0  0  0
 21 25  1  0  0  0  0
 21 20  1  0  0  0  0
 22 21  2  0  0  0  0
 23 17  1  0  0  0  0
 26  6  1  0  0  0  0
 27 26  2  0  0  0  0
 28 27  1  0  0  0  0
 29 28  1  0  0  0  0
 30 28  2  0  0  0  0
 30 31  1  0  0  0  0
 31 32  2  0  0  0  0
 32 26  1  0  0  0  0
M  END
>  <minimizedAffinity>
-4.93161058

$$$$

 OpenBabel03272506313D

 32 34  0  0  1  0  0  0  0  0999 V2000
   38.0290   26.2600   34.8440 C   0  0  1  0  0  0  0  0  0  0  0  0
   39.1950   27.0550   35.2680 C   0  0  0  0  0  0  0  0  0  0  0  0
   40.3610   27.1100   34.3240 C   0  0  0  0  0  0  0  0  0  0  0  0
   40.0090   27.1450   32.8820 C   0  0  0  0  0  0  0  0  0  0  0  0
   38.8480   26.3310   32.4440 C   0  0  0  0  0  0  0  0  0  0  0  0
   37.6980   26.4170   33.4030 C   0  0  2  0  0  0  0  0  0  0  0  0
   37.1170   26.6840   35.3840 H   0  0  0  0  0  0  0  0  0  0  0  0
   39.5700   26.9160   36.2670 H   0  0  0  0  0  0  0  0  0  0  0  0
   38.8270   28.1330   35.2710 H   0  0  0  0  0  0  0  0  0  0  0  0
   40.9890   26.2140   34.5150 H   0  0  0  0  0  0  0  0  0  0  0  0
   40.9680   27.9960   34.5690 H   0  0  0  0  0  0  0  0  0  0  0  0
   39.8610   28.2210   32.5990 H   0  0  0  0  0  0  0  0  0  0  0  0
   40.9010   26.8230   32.2970 H   0  0  0  0  0  0  0  0  0  0  0  0
   39.0930   25.2670   32.2370 H   0  0  0  0  0  0  0  0  0  0  0  0
   38.4970   26.7550   31.4800 H   0  0  0  0  0  0  0  0  0  0  0  0
   36.9610   25.6900   33.0330 H   0  0  0  0  0  0  0  0  0  0  0  0
   37.9190   24.4590   36.6580 C   0  0  0  0  0  0  0  0  0  0  0  0
   38.0310   24.8520   35.3000 C   0  0  0  0  0  0  0  0  0  0  0  0
   38.1350   23.8340   34.3720 C   0  0  0  0  0  0  0  0  0  0  0  0
   38.1260   22.5380   34.7760 N   0  0  0  0  0  0  0  0  0  0  0  0
   38.0160   22.2110   36.0890 C   0  0  0  0  0  0  0  0  0  0  0  0
   37.9120   23.1850   37.0330 N   0  0  0  0  0  0  0  0  0  0  0  0
   37.8340   25.2060   37.4290 H   0  0  0  0  0  0  0  0  0  0  0  0
   38.2220   23.8940   33.3050 H   0  0  0  0  0  0  0  0  0  0  0  0
   38.0060   21.1890   36.4460 H   0  0  0  0  0  0  0  0  0  0  0  0
   36.9930   27.7440   33.2300 C   0  0  0  0  0  0  0  0  0  0  0  0
   36.3210   28.2950   34.3270 C   0  0  0  0  0  3  0  0  0  0  0  0
   35.6400   29.5170   34.2540 C   0  0  0  0  0  0  0  0  0  0  0  0
   35.1350   29.9030   35.1300 H   0  0  0  0  0  0  0  0  0  0  0  0
   35.6450   30.1670   33.0770 N   0  0  0  0  0  0  0  0  0  0  0  0
   36.2930   29.6400   32.0100 C   0  0  0  0  0  3  0  0  0  0  0  0
   36.9270   28.4840   32.1090 N   0  0  0  0  0  0  0  0  0  0  0  0
  1  2  1  0  0  0  0
  1 18  1  0  0  0  0
  1  7  1  1  0  0  0
  2  9  1  0  0  0  0
  2  8  1  0  0  0  0
  3 10  1  0  0  0  0
  3 11  1  0  0  0  0
  3  2  1  0  0  0  0
  4  3  1  0  0  0  0
  5  4  1  0  0  0  0
  5  6  1  0  0  0  0
  6 16  1  6  0  0  0
  6  1  1  0  0  0  0
 12  4  1  0  0  0  0
 13  4  1  0  0  0  0
 14  5  1  0  0  0  0
 15  5  1  0  0  0  0
 17 22  1  0  0  0  0
 17 23  1  0  0  0  0
 18 17  2  0  0  0  0
 19 20  2  0  0  0  0
 19 18  1  0  0  0  0
 20 21  1  0  0  0  0
 21 25  1  0  0  0  0
 21 22  2  0  0  0  0
 24 19  1  0  0  0  0
 26  6  1  0  0  0  0
 26 27  1  0  0  0  0
 28 27  2  0  0  0  0
 28 29  1  0  0  0  0
 30 28  1  0  0  0  0
 31 32  1  0  0  0  0
 31 30  2  0  0  0  0
 32 26  2  0  0  0  0
M  END
>  <minimizedAffinity>
-4.90501595

$$$$

 OpenBabel03272506313D

 32 34  0  0  1  0  0  0  0  0999 V2000
   38.6640   25.2240   33.8850 C   0  0  1  0  0  0  0  0  0  0  0  0
   39.2860   26.5360   34.1320 C   0  0  0  0  0  0  0  0  0  0  0  0
   38.7490   27.3390   35.2810 C   0  0  0  0  0  0  0  0  0  0  0  0
   38.3440   26.5510   36.4720 C   0  0  0  0  0  0  0  0  0  0  0  0
   37.6980   25.2370   36.2320 C   0  0  0  0  0  0  0  0  0  0  0  0
   38.3650   24.4670   35.1310 C   0  0  2  0  0  0  0  0  0  0  0  0
   39.4370   24.5790   33.3490 H   0  0  0  0  0  0  0  0  0  0  0  0
   39.4330   27.1960   33.2940 H   0  0  0  0  0  0  0  0  0  0  0  0
   40.3460   26.2970   34.4710 H   0  0  0  0  0  0  0  0  0  0  0  0
   37.8670   27.9040   34.9120 H   0  0  0  0  0  0  0  0  0  0  0  0
   39.5110   28.0770   35.5790 H   0  0  0  0  0  0  0  0  0  0  0  0
   39.2540   26.4270   37.1180 H   0  0  0  0  0  0  0  0  0  0  0  0
   37.6510   27.1730   37.0840 H   0  0  0  0  0  0  0  0  0  0  0  0
   36.6050   25.2960   36.0460 H   0  0  0  0  0  0  0  0  0  0  0  0
   37.8170   24.6400   37.1600 H   0  0  0  0  0  0  0  0  0  0  0  0
   37.7310   23.5830   34.9740 H   0  0  0  0  0  0  0  0  0  0  0  0
   36.9250   26.4140   32.4340 C   0  0  0  0  0  0  0  0  0  0  0  0
   37.5440   25.2330   32.9170 C   0  0  0  0  0  0  0  0  0  0  0  0
   37.0570   24.0380   32.4250 C   0  0  0  0  0  0  0  0  0  0  0  0
   36.0390   24.0330   31.5270 N   0  0  0  0  0  0  0  0  0  0  0  0
   35.4780   25.1910   31.0940 C   0  0  0  0  0  0  0  0  0  0  0  0
   35.9300   26.3880   31.5550 N   0  0  0  0  0  0  0  0  0  0  0  0
   37.2600   27.3770   32.7790 H   0  0  0  0  0  0  0  0  0  0  0  0
   37.3720   23.0360   32.6400 H   0  0  0  0  0  0  0  0  0  0  0  0
   34.6650   25.2240   30.3790 H   0  0  0  0  0  0  0  0  0  0  0  0
   39.6620   23.8780   35.6380 C   0  0  0  0  0  0  0  0  0  0  0  0
   39.6400   23.1150   36.8110 C   0  0  0  0  0  3  0  0  0  0  0  0
   40.7940   22.5350   37.3530 C   0  0  0  0  0  0  0  0  0  0  0  0
   40.7260   21.9530   38.2620 H   0  0  0  0  0  0  0  0  0  0  0  0
   41.9560   22.7310   36.7040 N   0  0  0  0  0  0  0  0  0  0  0  0
   41.9860   23.4680   35.5680 C   0  0  0  0  0  3  0  0  0  0  0  0
   40.8790   24.0040   35.0810 N   0  0  0  0  0  0  0  0  0  0  0  0
  1  7  1  6  0  0  0
  1  2  1  0  0  0  0
  1  6  1  0  0  0  0
  2  9  1  0  0  0  0
  2  3  1  0  0  0  0
  3 11  1  0  0  0  0
  3  4  1  0  0  0  0
  4 13  1  0  0  0  0
  4 12  1  0  0  0  0
  5  4  1  0  0  0  0
  5 15  1  0  0  0  0
  6 16  1  6  0  0  0
  6 26  1  0  0  0  0
  6  5  1  0  0  0  0
  8  2  1  0  0  0  0
 10  3  1  0  0  0  0
 14  5  1  0  0  0  0
 17 23  1  0  0  0  0
 17 18  1  0  0  0  0
 18  1  1  0  0  0  0
 19 24  1  0  0  0  0
 19 18  2  0  0  0  0
 20 19  1  0  0  0  0
 21 20  2  0  0  0  0
 21 22  1  0  0  0  0
 22 17  2  0  0  0  0
 25 21  1  0  0  0  0
 26 27  1  0  0  0  0
 27 28  2  0  0  0  0
 28 29  1  0  0  0  0
 30 28  1  0  0  0  0
 31 30  2  0  0  0  0
 32 31  1  0  0  0  0
 32 26  2  0  0  0  0
M  END
>  <minimizedAffinity>
-4.87986994

$$$$

 OpenBabel03272506313D

 32 34  0  0  1  0  0  0  0  0999 V2000
   38.0650   26.2410   34.7990 C   0  0  1  0  0  0  0  0  0  0  0  0
   39.2290   27.0350   35.2280 C   0  0  0  0  0  0  0  0  0  0  0  0
   40.3880   27.1130   34.2760 C   0  0  0  0  0  0  0  0  0  0  0  0
   40.0250   27.1730   32.8380 C   0  0  0  0  0  0  0  0  0  0  0  0
   38.8650   26.3600   32.3940 C   0  0  0  0  0  0  0  0  0  0  0  0
   37.7220   26.4220   33.3630 C   0  0  2  0  0  0  0  0  0  0  0  0
   37.1550   26.6490   35.3540 H   0  0  0  0  0  0  0  0  0  0  0  0
   39.6130   26.8790   36.2210 H   0  0  0  0  0  0  0  0  0  0  0  0
   38.8560   28.1100   35.2530 H   0  0  0  0  0  0  0  0  0  0  0  0
   41.0220   26.2180   34.4470 H   0  0  0  0  0  0  0  0  0  0  0  0
   40.9920   27.9980   34.5320 H   0  0  0  0  0  0  0  0  0  0  0  0
   39.8680   28.2520   32.5750 H   0  0  0  0  0  0  0  0  0  0  0  0
   40.9140   26.8660   32.2400 H   0  0  0  0  0  0  0  0  0  0  0  0
   39.1140   25.3010   32.1660 H   0  0  0  0  0  0  0  0  0  0  0  0
   38.5040   26.7990   31.4400 H   0  0  0  0  0  0  0  0  0  0  0  0
   36.9860   25.6970   32.9860 H   0  0  0  0  0  0  0  0  0  0  0  0
   38.1480   23.7270   34.3340 C   0  0  0  0  0  0  0  0  0  0  0  0
   38.0790   24.8250   35.2290 C   0  0  0  0  0  0  0  0  0  0  0  0
   38.0350   24.5190   36.5750 C   0  0  0  0  0  0  0  0  0  0  0  0
   38.0600   23.2240   36.9830 N   0  0  0  0  0  0  0  0  0  0  0  0
   38.1270   22.2060   36.0870 C   0  0  0  0  0  0  0  0  0  0  0  0
   38.1710   22.4660   34.7530 N   0  0  0  0  0  0  0  0  0  0  0  0
   38.1850   23.8990   33.2730 H   0  0  0  0  0  0  0  0  0  0  0  0
   37.9890   25.1770   37.4200 H   0  0  0  0  0  0  0  0  0  0  0  0
   38.1480   21.1630   36.3770 H   0  0  0  0  0  0  0  0  0  0  0  0
   37.0070   27.7470   33.2190 C   0  0  0  0  0  0  0  0  0  0  0  0
   36.3540   28.2820   34.3350 C   0  0  0  0  0  3  0  0  0  0  0  0
   35.6660   29.5020   34.2910 C   0  0  0  0  0  0  0  0  0  0  0  0
   35.1770   29.8750   35.1800 H   0  0  0  0  0  0  0  0  0  0  0  0
   35.6470   30.1660   33.1210 N   0  0  0  0  0  0  0  0  0  0  0  0
   36.2770   29.6540   32.0360 C   0  0  0  0  0  3  0  0  0  0  0  0
   36.9180   28.5000   32.1100 N   0  0  0  0  0  0  0  0  0  0  0  0
  1  2  1  0  0  0  0
  1 18  1  0  0  0  0
  1  7  1  1  0  0  0
  2  9  1  0  0  0  0
  2  8  1  0  0  0  0
  3 10  1  0  0  0  0
  3 11  1  0  0  0  0
  3  2  1  0  0  0  0
  4  3  1  0  0  0  0
  5  4  1  0  0  0  0
  5  6  1  0  0  0  0
  6 16  1  6  0  0  0
  6  1  1  0  0  0  0
 12  4  1  0  0  0  0
 13  4  1  0  0  0  0
 14  5  1  0  0  0  0
 15  5  1  0  0  0  0
 17 22  2  0  0  0  0
 17 18  1  0  0  0  0
 18 19  2  0  0  0  0
 19 20  1  0  0  0  0
 19 24  1  0  0  0  0
 21 25  1  0  0  0  0
 21 20  2  0  0  0  0
 22 21  1  0  0  0  0
 23 17  1  0  0  0  0
 26  6  1  0  0  0  0
 26 27  1  0  0  0  0
 28 27  2  0  0  0  0
 28 29  1  0  0  0  0
 30 28  1  0  0  0  0
 31 32  1  0  0  0  0
 31 30  2  0  0  0  0
 32 26  2  0  0  0  0
M  END
>  <minimizedAffinity>
-4.87120867

$$$$

 OpenBabel03272506313D

 32 34  0  0  1  0  0  0  0  0999 V2000
   38.0170   26.1840   34.9080 C   0  0  1  0  0  0  0  0  0  0  0  0
   39.1860   26.9720   35.3340 C   0  0  0  0  0  0  0  0  0  0  0  0
   40.3210   27.0890   34.3570 C   0  0  0  0  0  0  0  0  0  0  0  0
   39.9230   27.1900   32.9300 C   0  0  0  0  0  0  0  0  0  0  0  0
   38.7580   26.3830   32.4890 C   0  0  0  0  0  0  0  0  0  0  0  0
   37.6380   26.4060   33.4870 C   0  0  2  0  0  0  0  0  0  0  0  0
   37.1190   26.5680   35.4970 H   0  0  0  0  0  0  0  0  0  0  0  0
   39.5960   26.7890   36.3110 H   0  0  0  0  0  0  0  0  0  0  0  0
   38.8070   28.0430   35.4010 H   0  0  0  0  0  0  0  0  0  0  0  0
   40.9650   26.1940   34.4840 H   0  0  0  0  0  0  0  0  0  0  0  0
   40.9250   27.9700   34.6260 H   0  0  0  0  0  0  0  0  0  0  0  0
   39.7530   28.2760   32.7050 H   0  0  0  0  0  0  0  0  0  0  0  0
   40.7990   26.9090   32.3020 H   0  0  0  0  0  0  0  0  0  0  0  0
   39.0080   25.3340   32.2230 H   0  0  0  0  0  0  0  0  0  0  0  0
   38.3710   26.8490   31.5590 H   0  0  0  0  0  0  0  0  0  0  0  0
   36.8990   25.6880   33.1050 H   0  0  0  0  0  0  0  0  0  0  0  0
   38.1550   23.6870   34.3650 C   0  0  0  0  0  0  0  0  0  0  0  0
   38.0510   24.7550   35.2930 C   0  0  0  0  0  0  0  0  0  0  0  0
   37.9920   24.4050   36.6280 C   0  0  0  0  0  0  0  0  0  0  0  0
   38.0350   23.0990   36.9950 N   0  0  0  0  0  0  0  0  0  0  0  0
   38.1350   22.1110   36.0690 C   0  0  0  0  0  0  0  0  0  0  0  0
   38.1950   22.4150   34.7450 N   0  0  0  0  0  0  0  0  0  0  0  0
   38.2050   23.8940   33.3110 H   0  0  0  0  0  0  0  0  0  0  0  0
   37.9210   25.0350   37.4930 H   0  0  0  0  0  0  0  0  0  0  0  0
   38.1710   21.0600   36.3260 H   0  0  0  0  0  0  0  0  0  0  0  0
   36.9120   27.7300   33.4020 C   0  0  0  0  0  0  0  0  0  0  0  0
   36.8470   28.3820   32.1650 C   0  0  0  0  0  3  0  0  0  0  0  0
   36.1970   29.6120   31.9970 C   0  0  0  0  0  0  0  0  0  0  0  0
   36.1730   30.0770   31.0210 H   0  0  0  0  0  0  0  0  0  0  0  0
   35.6210   30.1670   33.0780 N   0  0  0  0  0  0  0  0  0  0  0  0
   35.6790   29.5420   34.2790 C   0  0  0  0  0  3  0  0  0  0  0  0
   36.3000   28.3820   34.4060 N   0  0  0  0  0  0  0  0  0  0  0  0
  1 18  1  0  0  0  0
  1  2  1  0  0  0  0
  1  7  1  1  0  0  0
  2  9  1  0  0  0  0
  2  8  1  0  0  0  0
  3 10  1  0  0  0  0
  3 11  1  0  0  0  0
  3  2  1  0  0  0  0
  4  3  1  0  0  0  0
  5  4  1  0  0  0  0
  5  6  1  0  0  0  0
  6 16  1  6  0  0  0
  6  1  1  0  0  0  0
 12  4  1  0  0  0  0
 13  4  1  0  0  0  0
 14  5  1  0  0  0  0
 15  5  1  0  0  0  0
 17 22  2  0  0  0  0
 17 18  1  0  0  0  0
 18 19  2  0  0  0  0
 19 20  1  0  0  0  0
 19 24  1  0  0  0  0
 21 25  1  0  0  0  0
 21 20  2  0  0  0  0
 22 21  1  0  0  0  0
 23 17  1  0  0  0  0
 26  6  1  0  0  0  0
 26 32  1  0  0  0  0
 27 26  2  0  0  0  0
 28 27  1  0  0  0  0
 28 30  2  0  0  0  0
 29 28  1  0  0  0  0
 30 31  1  0  0  0  0
 31 32  2  0  0  0  0
M  END
>  <minimizedAffinity>
-4.86154652

$$$$

 OpenBabel03272506313D

 32 34  0  0  1  0  0  0  0  0999 V2000
   38.7210   24.4190   35.1150 C   0  0  1  0  0  0  0  0  0  0  0  0
   37.8110   25.1150   36.0400 C   0  0  0  0  0  0  0  0  0  0  0  0
   38.2570   26.4530   36.5550 C   0  0  0  0  0  0  0  0  0  0  0  0
   39.0000   27.2930   35.5820 C   0  0  0  0  0  0  0  0  0  0  0  0
   39.9350   26.6010   34.6600 C   0  0  0  0  0  0  0  0  0  0  0  0
   39.3620   25.3220   34.1220 C   0  0  2  0  0  0  0  0  0  0  0  0
   38.0850   23.7170   34.4790 H   0  0  0  0  0  0  0  0  0  0  0  0
   37.3920   24.5570   36.8590 H   0  0  0  0  0  0  0  0  0  0  0  0
   36.9030   25.3830   35.4090 H   0  0  0  0  0  0  0  0  0  0  0  0
   38.9050   26.2730   37.4380 H   0  0  0  0  0  0  0  0  0  0  0  0
   37.3710   27.0060   36.9050 H   0  0  0  0  0  0  0  0  0  0  0  0
   38.2440   27.8830   35.0010 H   0  0  0  0  0  0  0  0  0  0  0  0
   39.5760   28.0590   36.1500 H   0  0  0  0  0  0  0  0  0  0  0  0
   40.9420   26.4150   35.0900 H   0  0  0  0  0  0  0  0  0  0  0  0
   40.0940   27.2730   33.7910 H   0  0  0  0  0  0  0  0  0  0  0  0
   40.1820   24.8560   33.5580 H   0  0  0  0  0  0  0  0  0  0  0  0
   39.5950   23.0850   37.1160 C   0  0  0  0  0  0  0  0  0  0  0  0
   39.6690   23.4790   35.7560 C   0  0  0  0  0  0  0  0  0  0  0  0
   40.6910   22.9250   35.0110 C   0  0  0  0  0  0  0  0  0  0  0  0
   41.5600   22.0530   35.5830 N   0  0  0  0  0  0  0  0  0  0  0  0
   41.4480   21.7060   36.8910 C   0  0  0  0  0  0  0  0  0  0  0  0
   40.4550   22.2300   37.6580 N   0  0  0  0  0  0  0  0  0  0  0  0
   38.8210   23.4820   37.7500 H   0  0  0  0  0  0  0  0  0  0  0  0
   40.9330   23.0700   33.9760 H   0  0  0  0  0  0  0  0  0  0  0  0
   42.1220   21.0150   37.3800 H   0  0  0  0  0  0  0  0  0  0  0  0
   38.3400   25.6360   33.0520 C   0  0  0  0  0  0  0  0  0  0  0  0
   38.5410   26.7570   32.2390 C   0  0  0  0  0  3  0  0  0  0  0  0
   37.6450   27.1220   31.2270 C   0  0  0  0  0  0  0  0  0  0  0  0
   37.8440   27.9980   30.6230 H   0  0  0  0  0  0  0  0  0  0  0  0
   36.5570   26.3510   31.0470 N   0  0  0  0  0  0  0  0  0  0  0  0
   36.3550   25.2650   31.8300 C   0  0  0  0  0  3  0  0  0  0  0  0
   37.2200   24.9460   32.7780 N   0  0  0  0  0  0  0  0  0  0  0  0
  1  7  1  6  0  0  0
  1 18  1  0  0  0  0
  1  2  1  0  0  0  0
  2  3  1  0  0  0  0
  2  8  1  0  0  0  0
  3 11  1  0  0  0  0
  3 10  1  0  0  0  0
  4 13  1  0  0  0  0
  4  3  1  0  0  0  0
  5 14  1  0  0  0  0
  5  4  1  0  0  0  0
  6 16  1  6  0  0  0
  6  5  1  0  0  0  0
  6  1  1  0  0  0  0
  9  2  1  0  0  0  0
 12  4  1  0  0  0  0
 15  5  1  0  0  0  0
 17 22  1  0  0  0  0
 17 23  1  0  0  0  0
 18 17  2  0  0  0  0
 19 20  2  0  0  0  0
 19 18  1  0  0  0  0
 20 21  1  0  0  0  0
 21 25  1  0  0  0  0
 21 22  2  0  0  0  0
 24 19  1  0  0  0  0
 26  6  1  0  0  0  0
 27 26  2  0  0  0  0
 28 27  1  0  0  0  0
 29 28  1  0  0  0  0
 30 28  2  0  0  0  0
 30 31  1  0  0  0  0
 31 32  2  0  0  0  0
 32 26  1  0  0  0  0
M  END
>  <minimizedAffinity>
-4.85010815

$$$$
