
 OpenBabel03272506303D

 32 34  0  0  1  0  0  0  0  0999 V2000
   33.4920   29.0200   48.3640 C   0  0  1  0  0  0  0  0  0  0  0  0
   33.4490   29.4510   46.9560 C   0  0  0  0  0  0  0  0  0  0  0  0
   34.0430   28.5180   45.9410 C   0  0  0  0  0  0  0  0  0  0  0  0
   33.8390   27.0720   46.2090 C   0  0  0  0  0  0  0  0  0  0  0  0
   33.9010   26.6270   47.6240 C   0  0  0  0  0  0  0  0  0  0  0  0
   33.1970   27.5740   48.5500 C   0  0  2  0  0  0  0  0  0  0  0  0
   32.6380   29.5480   48.9050 H   0  0  0  0  0  0  0  0  0  0  0  0
   33.7590   30.4540   46.7210 H   0  0  0  0  0  0  0  0  0  0  0  0
   32.3440   29.4430   46.6830 H   0  0  0  0  0  0  0  0  0  0  0  0
   35.1340   28.7210   45.8970 H   0  0  0  0  0  0  0  0  0  0  0  0
   33.6230   28.7630   44.9520 H   0  0  0  0  0  0  0  0  0  0  0  0
   32.8570   26.7810   45.7510 H   0  0  0  0  0  0  0  0  0  0  0  0
   34.5980   26.4990   45.6300 H   0  0  0  0  0  0  0  0  0  0  0  0
   34.9300   26.4300   47.9920 H   0  0  0  0  0  0  0  0  0  0  0  0
   33.3650   25.6570   47.6850 H   0  0  0  0  0  0  0  0  0  0  0  0
   33.4150   27.2010   49.5610 H   0  0  0  0  0  0  0  0  0  0  0  0
   35.5950   30.4500   48.6460 C   0  0  0  0  0  0  0  0  0  0  0  0
   34.6740   29.4840   49.1260 C   0  0  0  0  0  0  0  0  0  0  0  0
   34.9160   28.9760   50.3860 C   0  0  0  0  0  0  0  0  0  0  0  0
   35.9890   29.4030   51.1010 N   0  0  0  0  0  0  0  0  0  0  0  0
   36.8440   30.3310   50.5980 C   0  0  0  0  0  0  0  0  0  0  0  0
   36.6390   30.8550   49.3600 N   0  0  0  0  0  0  0  0  0  0  0  0
   35.4600   30.8840   47.6710 H   0  0  0  0  0  0  0  0  0  0  0  0
   34.3580   28.2520   50.9460 H   0  0  0  0  0  0  0  0  0  0  0  0
   37.7090   30.6930   51.1390 H   0  0  0  0  0  0  0  0  0  0  0  0
   31.7020   27.3850   48.4260 C   0  0  0  0  0  0  0  0  0  0  0  0
   30.8720   27.9240   49.4170 C   0  0  0  0  0  3  0  0  0  0  0  0
   29.4780   27.7960   49.3820 C   0  0  0  0  0  0  0  0  0  0  0  0
   28.8790   28.2300   50.1710 H   0  0  0  0  0  0  0  0  0  0  0  0
   28.9380   27.1250   48.3490 N   0  0  0  0  0  0  0  0  0  0  0  0
   29.7340   26.6010   47.3850 C   0  0  0  0  0  3  0  0  0  0  0  0
   31.0470   26.7390   47.4460 N   0  0  0  0  0  0  0  0  0  0  0  0
  1  6  1  0  0  0  0
  1  7  1  1  0  0  0
  1 18  1  0  0  0  0
  2  1  1  0  0  0  0
  3  4  1  0  0  0  0
  3  2  1  0  0  0  0
  4  5  1  0  0  0  0
  5 15  1  0  0  0  0
  5 14  1  0  0  0  0
  5  6  1  0  0  0  0
  6 16  1  1  0  0  0
  8  2  1  0  0  0  0
  9  2  1  0  0  0  0
 10  3  1  0  0  0  0
 11  3  1  0  0  0  0
 12  4  1  0  0  0  0
 13  4  1  0  0  0  0
 17 18  2  0  0  0  0
 17 22  1  0  0  0  0
 18 19  1  0  0  0  0
 19 24  1  0  0  0  0
 19 20  2  0  0  0  0
 21 20  1  0  0  0  0
 21 25  1  0  0  0  0
 22 21  2  0  0  0  0
 23 17  1  0  0  0  0
 26  6  1  0  0  0  0
 26 27  1  0  0  0  0
 28 27  2  0  0  0  0
 28 29  1  0  0  0  0
 30 28  1  0  0  0  0
 31 32  1  0  0  0  0
 31 30  2  0  0  0  0
 32 26  2  0  0  0  0
M  END
>  <minimizedAffinity>
-4.67182684

>  <minimizedRMSD>
2.03190613

$$$$
