
 OpenBabel03262522323D

 25 27  0  0  0  0  0  0  0  0999 V2000
   37.9930   31.9250   49.1040 C   0  0  0  0  0  0  0  0  0  0  0  0
   38.5140   33.0680   49.6690 C   0  0  0  0  0  0  0  0  0  0  0  0
   39.3410   33.9640   49.0170 C   0  0  0  0  0  0  0  0  0  0  0  0
   39.6840   33.7190   47.7050 C   0  0  0  0  0  0  0  0  0  0  0  0
   39.1540   32.5640   47.1420 C   0  0  0  0  0  0  0  0  0  0  0  0
   38.3590   31.7370   47.8270 N   0  0  0  0  0  0  0  0  0  0  0  0
   38.2840   33.3220   50.6990 H   0  0  0  0  0  0  0  0  0  0  0  0
   39.7180   34.8580   49.5370 H   0  0  0  0  0  0  0  0  0  0  0  0
   40.3260   34.3880   47.1520 H   0  0  0  0  0  0  0  0  0  0  0  0
   37.4700   30.3750   51.0180 C   0  0  0  0  0  0  0  0  0  0  0  0
   37.1340   31.0160   49.8190 C   0  0  0  0  0  0  0  0  0  0  0  0
   35.8750   30.7600   49.2710 C   0  0  0  0  0  0  0  0  0  0  0  0
   35.0470   29.8930   49.9470 N   0  0  0  0  0  0  0  0  0  0  0  0
   35.4170   29.3040   51.0930 C   0  0  0  0  0  0  0  0  0  0  0  0
   36.6240   29.5360   51.6380 N   0  0  0  0  0  0  0  0  0  0  0  0
   38.4640   30.6290   51.3730 H   0  0  0  0  0  0  0  0  0  0  0  0
   35.5440   31.2190   48.3480 H   0  0  0  0  0  0  0  0  0  0  0  0
   34.6990   28.6420   51.5470 H   0  0  0  0  0  0  0  0  0  0  0  0
   39.5210   32.3090   45.7490 C   0  0  0  0  0  0  0  0  0  0  0  0
   40.3160   31.1880   45.4820 C   0  0  0  0  0  0  0  0  0  0  0  0
   40.6720   30.9300   44.1740 C   0  0  0  0  0  0  0  0  0  0  0  0
   41.2800   30.0880   43.8870 H   0  0  0  0  0  0  0  0  0  0  0  0
   40.2410   31.7640   43.2330 N   0  0  0  0  0  0  0  0  0  0  0  0
   39.4710   32.8480   43.5180 C   0  0  0  0  0  0  0  0  0  0  0  0
   39.1100   33.1190   44.7840 N   0  0  0  0  0  0  0  0  0  0  0  0
  1  2  1  0  0  0  0
  1 11  1  0  0  0  0
  2  7  1  0  0  0  0
  3  8  1  0  0  0  0
  3  2  2  0  0  0  0
  4  3  1  0  0  0  0
  5  4  2  0  0  0  0
  5  6  1  0  0  0  0
  6  1  2  0  0  0  0
  9  4  1  0  0  0  0
 10 16  1  0  0  0  0
 10 15  1  0  0  0  0
 11 10  2  0  0  0  0
 12 11  1  0  0  0  0
 12 13  2  0  0  0  0
 13 14  1  0  0  0  0
 14 18  1  0  0  0  0
 14 15  2  0  0  0  0
 17 12  1  0  0  0  0
 19  5  1  0  0  0  0
 20 19  1  0  0  0  0
 21 20  2  0  0  0  0
 22 21  1  0  0  0  0
 23 24  2  0  0  0  0
 23 21  1  0  0  0  0
 24 25  1  0  0  0  0
 25 19  2  0  0  0  0
M  END
>  <minimizedAffinity>
-6.26449776

>  <minimizedRMSD>
0.445813119

$$$$
