
 OpenBabel03272506183D

 32 34  0  0  0  0  0  0  0  0999 V2000
   35.5230   30.3060   49.8420 C   0  0  0  0  0  0  0  0  0  0  0  0
   36.4480   31.2370   49.0870 C   0  0  0  0  0  0  0  0  0  0  0  0
   37.8970   30.8680   49.2190 C   0  0  0  0  0  0  0  0  0  0  0  0
   38.3410   30.7450   50.6520 C   0  0  0  0  0  0  0  0  0  0  0  0
   37.3310   30.0820   51.5370 C   0  0  0  0  0  0  0  0  0  0  0  0
   36.2540   29.3700   50.7440 C   0  0  0  0  0  0  0  0  0  0  0  0
   34.7680   30.8690   50.4270 H   0  0  0  0  0  0  0  0  0  0  0  0
   36.3430   32.2640   49.5280 H   0  0  0  0  0  0  0  0  0  0  0  0
   36.1950   31.3340   48.0350 H   0  0  0  0  0  0  0  0  0  0  0  0
   38.0880   29.9070   48.6770 H   0  0  0  0  0  0  0  0  0  0  0  0
   38.4830   31.6820   48.7490 H   0  0  0  0  0  0  0  0  0  0  0  0
   38.7230   31.7110   51.0460 H   0  0  0  0  0  0  0  0  0  0  0  0
   39.2390   30.0700   50.6400 H   0  0  0  0  0  0  0  0  0  0  0  0
   36.8080   30.9120   52.0830 H   0  0  0  0  0  0  0  0  0  0  0  0
   37.7540   29.4250   52.3040 H   0  0  0  0  0  0  0  0  0  0  0  0
   36.7620   28.5400   50.1920 H   0  0  0  0  0  0  0  0  0  0  0  0
   35.5630   28.8870   51.4390 H   0  0  0  0  0  0  0  0  0  0  0  0
   34.7470   29.4730   48.8730 C   0  0  0  0  0  0  0  0  0  0  0  0
   34.1720   30.1580   47.7780 C   0  0  0  0  0  0  0  0  0  0  0  0
   33.4470   29.4040   46.8690 C   0  0  0  0  0  0  0  0  0  0  0  0
   33.3130   28.0420   47.0600 N   0  0  0  0  0  0  0  0  0  0  0  0
   33.8890   27.4270   48.1390 C   0  0  0  0  0  0  0  0  0  0  0  0
   34.5900   28.1360   49.0220 N   0  0  0  0  0  0  0  0  0  0  0  0
   34.2290   31.1910   47.5730 H   0  0  0  0  0  0  0  0  0  0  0  0
   33.7600   26.3580   48.2520 H   0  0  0  0  0  0  0  0  0  0  0  0
   32.7880   29.9390   45.6850 C   0  0  0  0  0  0  0  0  0  0  0  0
   32.7500   29.2680   44.4810 C   0  0  0  0  0  3  0  0  0  0  0  0
   32.1360   29.7410   43.3350 C   0  0  0  0  0  0  0  0  0  0  0  0
   32.1230   29.1940   42.4070 H   0  0  0  0  0  0  0  0  0  0  0  0
   31.5210   30.9570   43.3960 N   0  0  0  0  0  0  0  0  0  0  0  0
   31.5550   31.6230   44.5860 C   0  0  0  0  0  3  0  0  0  0  0  0
   32.1640   31.1290   45.6750 N   0  0  0  0  0  0  0  0  0  0  0  0
  1  7  1  0  0  0  0
  1  6  1  0  0  0  0
  2  3  1  0  0  0  0
  2  8  1  0  0  0  0
  2  1  1  0  0  0  0
  3  4  1  0  0  0  0
  4 12  1  0  0  0  0
  4  5  1  0  0  0  0
  5 14  1  0  0  0  0
  5 15  1  0  0  0  0
  6 17  1  0  0  0  0
  6  5  1  0  0  0  0
  9  2  1  0  0  0  0
 10  3  1  0  0  0  0
 11  3  1  0  0  0  0
 13  4  1  0  0  0  0
 16  6  1  0  0  0  0
 18 23  1  0  0  0  0
 18  1  1  0  0  0  0
 19 18  2  0  0  0  0
 20 21  2  0  0  0  0
 20 19  1  0  0  0  0
 21 22  1  0  0  0  0
 22 25  1  0  0  0  0
 22 23  2  0  0  0  0
 24 19  1  0  0  0  0
 26 20  1  0  0  0  0
 27 26  2  0  0  0  0
 28 30  2  0  0  0  0
 28 27  1  0  0  0  0
 29 28  1  0  0  0  0
 30 31  1  0  0  0  0
 31 32  2  0  0  0  0
 32 26  1  0  0  0  0
M  END
>  <minimizedAffinity>
-5.22847557

>  <minimizedRMSD>
0.303370774

$$$$
