
 OpenBabel03272505013D

 26 28  0  0  0  0  0  0  0  0999 V2000
   37.8470   23.0870   33.6600 Cl  0  0  0  0  0  0  0  0  0  0  0  0
   36.8440   24.0110   32.5580 C   0  0  0  0  0  0  0  0  0  0  0  0
   36.0490   23.3320   31.6840 C   0  0  0  0  0  0  0  0  0  0  0  0
   35.2710   24.1090   30.8300 C   0  0  0  0  0  0  0  0  0  0  0  0
   35.3310   25.4960   30.8960 C   0  0  0  0  0  0  0  0  0  0  0  0
   36.1440   26.1310   31.7880 C   0  0  0  0  0  0  0  0  0  0  0  0
   36.9140   25.3690   32.6350 C   0  0  0  0  0  0  0  0  0  0  0  0
   34.6200   23.5890   30.1150 H   0  0  0  0  0  0  0  0  0  0  0  0
   34.6960   26.0200   30.1970 H   0  0  0  0  0  0  0  0  0  0  0  0
   36.1490   27.2090   31.7940 H   0  0  0  0  0  0  0  0  0  0  0  0
   36.8550   21.1280   30.8220 C   0  0  0  0  0  0  0  0  0  0  0  0
   35.9680   21.8710   31.5960 C   0  0  0  0  0  0  0  0  0  0  0  0
   34.9830   21.1710   32.2960 C   0  0  0  0  0  0  0  0  0  0  0  0
   34.9370   19.8200   32.1930 N   0  0  0  0  0  0  0  0  0  0  0  0
   35.8110   19.1360   31.4350 C   0  0  0  0  0  0  0  0  0  0  0  0
   36.7850   19.7930   30.7390 N   0  0  0  0  0  0  0  0  0  0  0  0
   37.5970   21.7240   30.3010 H   0  0  0  0  0  0  0  0  0  0  0  0
   34.2880   21.7400   32.9010 H   0  0  0  0  0  0  0  0  0  0  0  0
   35.8010   18.0640   31.3310 H   0  0  0  0  0  0  0  0  0  0  0  0
   37.8000   25.9940   33.6080 C   0  0  0  0  0  0  0  0  0  0  0  0
   39.0990   26.3790   33.3700 C   0  0  0  0  0  3  0  0  0  0  0  0
   39.8900   26.9670   34.3340 C   0  0  0  0  0  0  0  0  0  0  0  0
   40.9150   27.2410   34.0510 H   0  0  0  0  0  0  0  0  0  0  0  0
   39.4210   27.1940   35.5730 N   0  0  0  0  0  0  0  0  0  0  0  0
   38.1500   26.8200   35.8150 C   0  0  0  0  0  3  0  0  0  0  0  0
   37.3800   26.2470   34.8730 N   0  0  0  0  0  0  0  0  0  0  0  0
  2  7  1  0  0  0  0
  2  1  1  0  0  0  0
  3  2  2  0  0  0  0
  4  5  2  0  0  0  0
  4  3  1  0  0  0  0
  5  6  1  0  0  0  0
  6 10  1  0  0  0  0
  6  7  2  0  0  0  0
  7 20  1  0  0  0  0
  8  4  1  0  0  0  0
  9  5  1  0  0  0  0
 11 12  1  0  0  0  0
 12  3  1  0  0  0  0
 12 13  2  0  0  0  0
 13 18  1  0  0  0  0
 14 13  1  0  0  0  0
 15 14  2  0  0  0  0
 16 11  2  0  0  0  0
 16 15  1  0  0  0  0
 17 11  1  0  0  0  0
 19 15  1  0  0  0  0
 20 26  1  0  0  0  0
 21 20  2  0  0  0  0
 21 22  1  0  0  0  0
 22 24  2  0  0  0  0
 23 22  1  0  0  0  0
 24 25  1  0  0  0  0
 26 25  2  0  0  0  0
M  END
>  <minimizedAffinity>
-4.93656969

$$$$

 OpenBabel03272505013D

 26 28  0  0  0  0  0  0  0  0999 V2000
   38.1880   22.8720   33.1440 Cl  0  0  0  0  0  0  0  0  0  0  0  0
   37.1050   24.0000   32.3520 C   0  0  0  0  0  0  0  0  0  0  0  0
   37.3610   25.3330   32.4710 C   0  0  0  0  0  0  0  0  0  0  0  0
   36.4740   26.1890   31.8240 C   0  0  0  0  0  0  0  0  0  0  0  0
   35.3980   25.6730   31.1100 C   0  0  0  0  0  0  0  0  0  0  0  0
   35.1830   24.3300   31.0200 C   0  0  0  0  0  0  0  0  0  0  0  0
   36.0560   23.4790   31.6550 C   0  0  0  0  0  0  0  0  0  0  0  0
   36.6550   27.2690   31.9020 H   0  0  0  0  0  0  0  0  0  0  0  0
   34.7600   26.4080   30.6410 H   0  0  0  0  0  0  0  0  0  0  0  0
   34.3330   23.9880   30.4520 H   0  0  0  0  0  0  0  0  0  0  0  0
   38.3890   26.2250   34.5680 C   0  0  0  0  0  0  0  0  0  0  0  0
   38.4870   25.9000   33.2170 C   0  0  0  0  0  0  0  0  0  0  0  0
   39.7120   26.1340   32.5870 C   0  0  0  0  0  0  0  0  0  0  0  0
   40.7320   26.6600   33.3080 N   0  0  0  0  0  0  0  0  0  0  0  0
   40.6000   26.9620   34.6110 C   0  0  0  0  0  0  0  0  0  0  0  0
   39.4150   26.7440   35.2540 N   0  0  0  0  0  0  0  0  0  0  0  0
   37.4160   26.0230   35.0030 H   0  0  0  0  0  0  0  0  0  0  0  0
   39.7990   25.8850   31.5370 H   0  0  0  0  0  0  0  0  0  0  0  0
   41.3900   27.3800   35.2110 H   0  0  0  0  0  0  0  0  0  0  0  0
   35.8750   22.0350   31.5940 C   0  0  0  0  0  0  0  0  0  0  0  0
   35.0200   21.3050   32.3870 C   0  0  0  0  0  3  0  0  0  0  0  0
   34.8910   19.9360   32.2810 C   0  0  0  0  0  0  0  0  0  0  0  0
   34.1830   19.4400   32.9580 H   0  0  0  0  0  0  0  0  0  0  0  0
   35.6080   19.2400   31.3830 N   0  0  0  0  0  0  0  0  0  0  0  0
   36.4480   19.9450   30.6020 C   0  0  0  0  0  3  0  0  0  0  0  0
   36.5710   21.2810   30.7060 N   0  0  0  0  0  0  0  0  0  0  0  0
  2  3  1  0  0  0  0
  2  1  1  0  0  0  0
  3 12  1  0  0  0  0
  4  8  1  0  0  0  0
  4  3  2  0  0  0  0
  5  4  1  0  0  0  0
  6  5  2  0  0  0  0
  6  7  1  0  0  0  0
  7  2  2  0  0  0  0
  9  5  1  0  0  0  0
 10  6  1  0  0  0  0
 11 17  1  0  0  0  0
 11 16  1  0  0  0  0
 12 11  2  0  0  0  0
 13 12  1  0  0  0  0
 13 14  2  0  0  0  0
 14 15  1  0  0  0  0
 15 19  1  0  0  0  0
 15 16  2  0  0  0  0
 18 13  1  0  0  0  0
 20  7  1  0  0  0  0
 20 21  1  0  0  0  0
 22 21  2  0  0  0  0
 22 23  1  0  0  0  0
 24 22  1  0  0  0  0
 25 26  1  0  0  0  0
 25 24  2  0  0  0  0
 26 20  2  0  0  0  0
M  END
>  <minimizedAffinity>
-4.75933552

$$$$

 OpenBabel03272505013D

 26 28  0  0  0  0  0  0  0  0999 V2000
   36.4840   27.9900   34.8010 Cl  0  0  0  0  0  0  0  0  0  0  0  0
   36.1670   28.8520   33.3080 C   0  0  0  0  0  0  0  0  0  0  0  0
   35.5140   30.0460   33.3780 C   0  0  0  0  0  0  0  0  0  0  0  0
   35.2860   30.6930   32.1670 C   0  0  0  0  0  0  0  0  0  0  0  0
   35.7140   30.1190   30.9750 C   0  0  0  0  0  0  0  0  0  0  0  0
   36.3640   28.9210   30.9560 C   0  0  0  0  0  0  0  0  0  0  0  0
   36.5930   28.2770   32.1490 C   0  0  0  0  0  0  0  0  0  0  0  0
   34.7610   31.6570   32.1920 H   0  0  0  0  0  0  0  0  0  0  0  0
   35.4950   30.6880   30.0830 H   0  0  0  0  0  0  0  0  0  0  0  0
   36.6730   28.5250   30.0020 H   0  0  0  0  0  0  0  0  0  0  0  0
   35.8780   31.4910   35.3850 C   0  0  0  0  0  0  0  0  0  0  0  0
   35.0530   30.6700   34.6210 C   0  0  0  0  0  0  0  0  0  0  0  0
   33.7520   30.4580   35.0820 C   0  0  0  0  0  0  0  0  0  0  0  0
   33.3580   31.0520   36.2350 N   0  0  0  0  0  0  0  0  0  0  0  0
   34.1840   31.8380   36.9480 C   0  0  0  0  0  0  0  0  0  0  0  0
   35.4610   32.0640   36.5220 N   0  0  0  0  0  0  0  0  0  0  0  0
   36.8760   31.6190   34.9790 H   0  0  0  0  0  0  0  0  0  0  0  0
   33.1020   29.8210   34.4950 H   0  0  0  0  0  0  0  0  0  0  0  0
   33.9010   32.3230   37.8670 H   0  0  0  0  0  0  0  0  0  0  0  0
   37.2830   26.9940   32.1890 C   0  0  0  0  0  0  0  0  0  0  0  0
   38.6480   26.8250   32.2080 C   0  0  0  0  0  3  0  0  0  0  0  0
   39.2430   25.5810   32.2460 C   0  0  0  0  0  0  0  0  0  0  0  0
   40.3400   25.5440   32.2590 H   0  0  0  0  0  0  0  0  0  0  0  0
   38.5040   24.4590   32.2650 N   0  0  0  0  0  0  0  0  0  0  0  0
   37.1670   24.6150   32.2460 C   0  0  0  0  0  3  0  0  0  0  0  0
   36.5880   25.8290   32.2090 N   0  0  0  0  0  0  0  0  0  0  0  0
  2  3  1  0  0  0  0
  2  1  1  0  0  0  0
  3 12  1  0  0  0  0
  4  8  1  0  0  0  0
  4  3  2  0  0  0  0
  5  4  1  0  0  0  0
  6  5  2  0  0  0  0
  6  7  1  0  0  0  0
  7 20  1  0  0  0  0
  7  2  2  0  0  0  0
  9  5  1  0  0  0  0
 10  6  1  0  0  0  0
 11 16  1  0  0  0  0
 12 13  1  0  0  0  0
 12 11  2  0  0  0  0
 13 14  2  0  0  0  0
 14 15  1  0  0  0  0
 15 19  1  0  0  0  0
 16 15  2  0  0  0  0
 17 11  1  0  0  0  0
 18 13  1  0  0  0  0
 20 21  2  0  0  0  0
 20 26  1  0  0  0  0
 21 22  1  0  0  0  0
 22 23  1  0  0  0  0
 22 24  2  0  0  0  0
 25 24  1  0  0  0  0
 26 25  2  0  0  0  0
M  END
>  <minimizedAffinity>
-4.73478651

$$$$

 OpenBabel03272505013D

 26 28  0  0  0  0  0  0  0  0999 V2000
   36.4670   27.9930   34.7920 Cl  0  0  0  0  0  0  0  0  0  0  0  0
   36.1560   28.8630   33.3030 C   0  0  0  0  0  0  0  0  0  0  0  0
   35.5090   30.0600   33.3780 C   0  0  0  0  0  0  0  0  0  0  0  0
   35.2850   30.7140   32.1700 C   0  0  0  0  0  0  0  0  0  0  0  0
   35.7100   30.1440   30.9750 C   0  0  0  0  0  0  0  0  0  0  0  0
   36.3530   28.9410   30.9510 C   0  0  0  0  0  0  0  0  0  0  0  0
   36.5790   28.2910   32.1410 C   0  0  0  0  0  0  0  0  0  0  0  0
   34.7660   31.6810   32.1980 H   0  0  0  0  0  0  0  0  0  0  0  0
   35.4950   30.7180   30.0860 H   0  0  0  0  0  0  0  0  0  0  0  0
   36.6600   28.5480   29.9950 H   0  0  0  0  0  0  0  0  0  0  0  0
   33.7630   30.4910   35.1140 C   0  0  0  0  0  0  0  0  0  0  0  0
   35.0520   30.6820   34.6230 C   0  0  0  0  0  0  0  0  0  0  0  0
   35.9080   31.4970   35.3670 C   0  0  0  0  0  0  0  0  0  0  0  0
   35.4530   32.0560   36.5150 N   0  0  0  0  0  0  0  0  0  0  0  0
   34.2000   31.8480   36.9570 C   0  0  0  0  0  0  0  0  0  0  0  0
   33.3400   31.0570   36.2520 N   0  0  0  0  0  0  0  0  0  0  0  0
   33.1430   29.8500   34.4960 H   0  0  0  0  0  0  0  0  0  0  0  0
   36.9130   31.6520   34.9940 H   0  0  0  0  0  0  0  0  0  0  0  0
   33.8080   32.2780   37.8640 H   0  0  0  0  0  0  0  0  0  0  0  0
   37.2610   27.0040   32.1750 C   0  0  0  0  0  0  0  0  0  0  0  0
   36.6450   25.7750   32.1200 C   0  0  0  0  0  3  0  0  0  0  0  0
   37.3470   24.5890   32.1560 C   0  0  0  0  0  0  0  0  0  0  0  0
   36.7690   23.6560   32.1070 H   0  0  0  0  0  0  0  0  0  0  0  0
   38.6870   24.5780   32.2490 N   0  0  0  0  0  0  0  0  0  0  0  0
   39.2990   25.7770   32.3030 C   0  0  0  0  0  3  0  0  0  0  0  0
   38.6120   26.9330   32.2670 N   0  0  0  0  0  0  0  0  0  0  0  0
  2  3  1  0  0  0  0
  2  1  1  0  0  0  0
  3 12  1  0  0  0  0
  4  8  1  0  0  0  0
  4  3  2  0  0  0  0
  5  4  1  0  0  0  0
  6  5  2  0  0  0  0
  6  7  1  0  0  0  0
  7 20  1  0  0  0  0
  7  2  2  0  0  0  0
  9  5  1  0  0  0  0
 10  6  1  0  0  0  0
 11 16  1  0  0  0  0
 12 11  2  0  0  0  0
 12 13  1  0  0  0  0
 13 14  2  0  0  0  0
 14 15  1  0  0  0  0
 15 19  1  0  0  0  0
 16 15  2  0  0  0  0
 17 11  1  0  0  0  0
 18 13  1  0  0  0  0
 20 26  1  0  0  0  0
 21 22  1  0  0  0  0
 21 20  2  0  0  0  0
 22 24  2  0  0  0  0
 23 22  1  0  0  0  0
 24 25  1  0  0  0  0
 26 25  2  0  0  0  0
M  END
>  <minimizedAffinity>
-4.65115309

$$$$

 OpenBabel03272505013D

 26 28  0  0  0  0  0  0  0  0999 V2000
   36.2690   28.2210   34.5120 Cl  0  0  0  0  0  0  0  0  0  0  0  0
   36.1180   29.1850   33.0560 C   0  0  0  0  0  0  0  0  0  0  0  0
   36.6080   28.6770   31.8910 C   0  0  0  0  0  0  0  0  0  0  0  0
   36.4640   29.4790   30.7620 C   0  0  0  0  0  0  0  0  0  0  0  0
   35.8510   30.7230   30.8600 C   0  0  0  0  0  0  0  0  0  0  0  0
   35.3760   31.1890   32.0500 C   0  0  0  0  0  0  0  0  0  0  0  0
   35.5140   30.4010   33.1680 C   0  0  0  0  0  0  0  0  0  0  0  0
   36.8500   29.0960   29.8080 H   0  0  0  0  0  0  0  0  0  0  0  0
   35.7820   31.2790   29.9360 H   0  0  0  0  0  0  0  0  0  0  0  0
   34.9090   32.1610   32.0660 H   0  0  0  0  0  0  0  0  0  0  0  0
   38.6290   27.2060   31.9410 C   0  0  0  0  0  0  0  0  0  0  0  0
   37.2580   27.3700   31.7610 C   0  0  0  0  0  0  0  0  0  0  0  0
   36.5100   26.2320   31.4510 C   0  0  0  0  0  0  0  0  0  0  0  0
   37.1430   25.0390   31.3390 N   0  0  0  0  0  0  0  0  0  0  0  0
   38.4700   24.9200   31.5190 C   0  0  0  0  0  0  0  0  0  0  0  0
   39.2280   26.0130   31.8240 N   0  0  0  0  0  0  0  0  0  0  0  0
   39.1580   28.1230   32.1790 H   0  0  0  0  0  0  0  0  0  0  0  0
   35.4430   26.3480   31.3090 H   0  0  0  0  0  0  0  0  0  0  0  0
   39.0030   23.9870   31.4380 H   0  0  0  0  0  0  0  0  0  0  0  0
   35.0260   30.8490   34.4660 C   0  0  0  0  0  0  0  0  0  0  0  0
   35.7610   31.5470   35.3960 C   0  0  0  0  0  3  0  0  0  0  0  0
   35.2420   31.9440   36.6100 C   0  0  0  0  0  0  0  0  0  0  0  0
   35.9040   32.4970   37.2880 H   0  0  0  0  0  0  0  0  0  0  0  0
   33.9710   31.6620   36.9460 N   0  0  0  0  0  0  0  0  0  0  0  0
   33.2440   30.9790   36.0430 C   0  0  0  0  0  3  0  0  0  0  0  0
   33.7520   30.5930   34.8580 N   0  0  0  0  0  0  0  0  0  0  0  0
  2  7  1  0  0  0  0
  2  1  1  0  0  0  0
  3  2  2  0  0  0  0
  4  5  2  0  0  0  0
  4  3  1  0  0  0  0
  5  6  1  0  0  0  0
  6 10  1  0  0  0  0
  6  7  2  0  0  0  0
  7 20  1  0  0  0  0
  8  4  1  0  0  0  0
  9  5  1  0  0  0  0
 11 17  1  0  0  0  0
 12  3  1  0  0  0  0
 12 11  2  0  0  0  0
 13 12  1  0  0  0  0
 14 13  2  0  0  0  0
 14 15  1  0  0  0  0
 15 16  2  0  0  0  0
 16 11  1  0  0  0  0
 18 13  1  0  0  0  0
 19 15  1  0  0  0  0
 20 26  2  0  0  0  0
 20 21  1  0  0  0  0
 21 22  2  0  0  0  0
 22 24  1  0  0  0  0
 22 23  1  0  0  0  0
 25 24  2  0  0  0  0
 26 25  1  0  0  0  0
M  END
>  <minimizedAffinity>
-4.64054441

$$$$

 OpenBabel03272505013D

 26 28  0  0  0  0  0  0  0  0999 V2000
   37.1850   25.6240   33.0190 Cl  0  0  0  0  0  0  0  0  0  0  0  0
   38.8210   26.1630   33.3420 C   0  0  0  0  0  0  0  0  0  0  0  0
   39.3830   27.0670   32.4920 C   0  0  0  0  0  0  0  0  0  0  0  0
   40.6830   27.4650   32.7910 C   0  0  0  0  0  0  0  0  0  0  0  0
   41.3380   26.9450   33.9020 C   0  0  0  0  0  0  0  0  0  0  0  0
   40.7330   26.0400   34.7240 C   0  0  0  0  0  0  0  0  0  0  0  0
   39.4490   25.6440   34.4350 C   0  0  0  0  0  0  0  0  0  0  0  0
   41.1630   28.1930   32.1230 H   0  0  0  0  0  0  0  0  0  0  0  0
   42.3430   27.3070   34.0590 H   0  0  0  0  0  0  0  0  0  0  0  0
   41.2890   25.6710   35.5710 H   0  0  0  0  0  0  0  0  0  0  0  0
   37.5720   28.4180   31.4220 C   0  0  0  0  0  0  0  0  0  0  0  0
   38.7150   27.6300   31.3160 C   0  0  0  0  0  0  0  0  0  0  0  0
   39.2140   27.3910   30.0330 C   0  0  0  0  0  0  0  0  0  0  0  0
   38.5710   27.9270   28.9670 N   0  0  0  0  0  0  0  0  0  0  0  0
   37.4690   28.6820   29.1090 C   0  0  0  0  0  0  0  0  0  0  0  0
   36.9580   28.9340   30.3490 N   0  0  0  0  0  0  0  0  0  0  0  0
   37.2310   28.5700   32.4400 H   0  0  0  0  0  0  0  0  0  0  0  0
   40.1030   26.7790   29.9390 H   0  0  0  0  0  0  0  0  0  0  0  0
   36.9360   29.1220   28.2830 H   0  0  0  0  0  0  0  0  0  0  0  0
   38.7530   24.6800   35.2780 C   0  0  0  0  0  0  0  0  0  0  0  0
   38.1320   24.9690   36.4710 C   0  0  0  0  0  3  0  0  0  0  0  0
   37.4890   24.0110   37.2260 C   0  0  0  0  0  0  0  0  0  0  0  0
   37.0220   24.3350   38.1650 H   0  0  0  0  0  0  0  0  0  0  0  0
   37.4390   22.7290   36.8240 N   0  0  0  0  0  0  0  0  0  0  0  0
   38.0440   22.4380   35.6580 C   0  0  0  0  0  3  0  0  0  0  0  0
   38.6710   23.3740   34.9220 N   0  0  0  0  0  0  0  0  0  0  0  0
  1  2  1  0  0  0  0
  2  7  1  0  0  0  0
  3  4  1  0  0  0  0
  3  2  2  0  0  0  0
  4  5  2  0  0  0  0
  5  9  1  0  0  0  0
  5  6  1  0  0  0  0
  6 10  1  0  0  0  0
  7  6  2  0  0  0  0
  7 20  1  0  0  0  0
  8  4  1  0  0  0  0
 11 17  1  0  0  0  0
 12 11  1  0  0  0  0
 12  3  1  0  0  0  0
 13 12  2  0  0  0  0
 14 15  2  0  0  0  0
 14 13  1  0  0  0  0
 15 16  1  0  0  0  0
 16 11  2  0  0  0  0
 18 13  1  0  0  0  0
 19 15  1  0  0  0  0
 20 21  1  0  0  0  0
 21 22  2  0  0  0  0
 22 23  1  0  0  0  0
 24 22  1  0  0  0  0
 25 24  2  0  0  0  0
 26 20  2  0  0  0  0
 26 25  1  0  0  0  0
M  END
>  <minimizedAffinity>
-4.62638187

$$$$

 OpenBabel03272505013D

 26 28  0  0  0  0  0  0  0  0999 V2000
   38.0910   27.1720   33.5710 Cl  0  0  0  0  0  0  0  0  0  0  0  0
   37.1570   26.0180   32.6380 C   0  0  0  0  0  0  0  0  0  0  0  0
   36.2290   26.4960   31.7620 C   0  0  0  0  0  0  0  0  0  0  0  0
   35.5130   25.5420   31.0450 C   0  0  0  0  0  0  0  0  0  0  0  0
   35.7590   24.1870   31.2410 C   0  0  0  0  0  0  0  0  0  0  0  0
   36.6990   23.7570   32.1310 C   0  0  0  0  0  0  0  0  0  0  0  0
   37.4100   24.6950   32.8420 C   0  0  0  0  0  0  0  0  0  0  0  0
   34.7580   25.8970   30.3310 H   0  0  0  0  0  0  0  0  0  0  0  0
   35.1580   23.5170   30.6450 H   0  0  0  0  0  0  0  0  0  0  0  0
   36.8460   22.6950   32.2410 H   0  0  0  0  0  0  0  0  0  0  0  0
   35.0690   28.6330   32.3410 C   0  0  0  0  0  0  0  0  0  0  0  0
   35.9520   27.9170   31.5380 C   0  0  0  0  0  0  0  0  0  0  0  0
   36.5750   28.6060   30.4950 C   0  0  0  0  0  0  0  0  0  0  0  0
   36.2960   29.9200   30.3150 N   0  0  0  0  0  0  0  0  0  0  0  0
   35.4360   30.5790   31.1120 C   0  0  0  0  0  0  0  0  0  0  0  0
   34.8120   29.9320   32.1400 N   0  0  0  0  0  0  0  0  0  0  0  0
   34.6150   28.0470   33.1330 H   0  0  0  0  0  0  0  0  0  0  0  0
   37.2640   28.0590   29.8630 H   0  0  0  0  0  0  0  0  0  0  0  0
   35.1930   31.6220   30.9960 H   0  0  0  0  0  0  0  0  0  0  0  0
   38.4260   24.2930   33.8060 C   0  0  0  0  0  0  0  0  0  0  0  0
   39.7480   24.0500   33.5140 C   0  0  0  0  0  3  0  0  0  0  0  0
   40.6650   23.6710   34.4720 C   0  0  0  0  0  0  0  0  0  0  0  0
   41.6980   23.4990   34.1460 H   0  0  0  0  0  0  0  0  0  0  0  0
   40.3010   23.5190   35.7570 N   0  0  0  0  0  0  0  0  0  0  0  0
   39.0090   23.7540   36.0520 C   0  0  0  0  0  3  0  0  0  0  0  0
   38.1170   24.1240   35.1160 N   0  0  0  0  0  0  0  0  0  0  0  0
  2  7  1  0  0  0  0
  2  1  1  0  0  0  0
  3  2  2  0  0  0  0
  4  5  2  0  0  0  0
  4  3  1  0  0  0  0
  5  6  1  0  0  0  0
  6 10  1  0  0  0  0
  6  7  2  0  0  0  0
  7 20  1  0  0  0  0
  8  4  1  0  0  0  0
  9  5  1  0  0  0  0
 11 17  1  0  0  0  0
 12  3  1  0  0  0  0
 12 11  2  0  0  0  0
 13 12  1  0  0  0  0
 14 13  2  0  0  0  0
 14 15  1  0  0  0  0
 15 16  2  0  0  0  0
 16 11  1  0  0  0  0
 18 13  1  0  0  0  0
 19 15  1  0  0  0  0
 20 26  1  0  0  0  0
 21 20  2  0  0  0  0
 21 22  1  0  0  0  0
 22 24  2  0  0  0  0
 23 22  1  0  0  0  0
 24 25  1  0  0  0  0
 26 25  2  0  0  0  0
M  END
>  <minimizedAffinity>
-4.60336208

$$$$

 OpenBabel03272505013D

 26 28  0  0  0  0  0  0  0  0999 V2000
   39.8610   25.0100   32.3170 Cl  0  0  0  0  0  0  0  0  0  0  0  0
   39.0980   25.9130   33.6120 C   0  0  0  0  0  0  0  0  0  0  0  0
   37.7410   26.0280   33.6060 C   0  0  0  0  0  0  0  0  0  0  0  0
   37.1810   26.7530   34.6540 C   0  0  0  0  0  0  0  0  0  0  0  0
   37.9960   27.3140   35.6320 C   0  0  0  0  0  0  0  0  0  0  0  0
   39.3520   27.1710   35.5940 C   0  0  0  0  0  0  0  0  0  0  0  0
   39.9100   26.4550   34.5620 C   0  0  0  0  0  0  0  0  0  0  0  0
   36.0890   26.8630   34.6760 H   0  0  0  0  0  0  0  0  0  0  0  0
   37.4800   27.8600   36.4070 H   0  0  0  0  0  0  0  0  0  0  0  0
   39.9330   27.6270   36.3790 H   0  0  0  0  0  0  0  0  0  0  0  0
   36.1210   26.2370   31.7130 C   0  0  0  0  0  0  0  0  0  0  0  0
   36.8610   25.4470   32.5880 C   0  0  0  0  0  0  0  0  0  0  0  0
   36.7370   24.0610   32.4630 C   0  0  0  0  0  0  0  0  0  0  0  0
   35.9150   23.5570   31.5110 N   0  0  0  0  0  0  0  0  0  0  0  0
   35.2150   24.3530   30.6840 C   0  0  0  0  0  0  0  0  0  0  0  0
   35.3150   25.7100   30.7820 N   0  0  0  0  0  0  0  0  0  0  0  0
   36.2560   27.3040   31.8570 H   0  0  0  0  0  0  0  0  0  0  0  0
   37.3090   23.4370   33.1390 H   0  0  0  0  0  0  0  0  0  0  0  0
   34.5540   23.9840   29.9180 H   0  0  0  0  0  0  0  0  0  0  0  0
   41.3530   26.2710   34.4710 C   0  0  0  0  0  0  0  0  0  0  0  0
   42.0510   25.1970   34.9720 C   0  0  0  0  0  3  0  0  0  0  0  0
   43.4200   25.0790   34.8550 C   0  0  0  0  0  0  0  0  0  0  0  0
   43.8910   24.1860   35.2860 H   0  0  0  0  0  0  0  0  0  0  0  0
   44.1470   26.0240   34.2360 N   0  0  0  0  0  0  0  0  0  0  0  0
   43.4720   27.0800   33.7420 C   0  0  0  0  0  3  0  0  0  0  0  0
   42.1370   27.1930   33.8570 N   0  0  0  0  0  0  0  0  0  0  0  0
  1  2  1  0  0  0  0
  2  7  1  0  0  0  0
  3  2  2  0  0  0  0
  3  4  1  0  0  0  0
  4  8  1  0  0  0  0
  4  5  2  0  0  0  0
  5  9  1  0  0  0  0
  6  5  1  0  0  0  0
  6 10  1  0  0  0  0
  7  6  2  0  0  0  0
 11 17  1  0  0  0  0
 11 12  1  0  0  0  0
 12  3  1  0  0  0  0
 13 12  2  0  0  0  0
 13 18  1  0  0  0  0
 14 13  1  0  0  0  0
 15 16  1  0  0  0  0
 15 14  2  0  0  0  0
 16 11  2  0  0  0  0
 19 15  1  0  0  0  0
 20  7  1  0  0  0  0
 20 21  1  0  0  0  0
 22 21  2  0  0  0  0
 22 23  1  0  0  0  0
 24 22  1  0  0  0  0
 25 26  1  0  0  0  0
 25 24  2  0  0  0  0
 26 20  2  0  0  0  0
M  END
>  <minimizedAffinity>
-4.59449482

$$$$

 OpenBabel03272505013D

 26 28  0  0  0  0  0  0  0  0999 V2000
   38.0280   27.1340   33.5990 Cl  0  0  0  0  0  0  0  0  0  0  0  0
   37.2000   25.8610   32.7220 C   0  0  0  0  0  0  0  0  0  0  0  0
   37.5100   24.5680   33.0170 C   0  0  0  0  0  0  0  0  0  0  0  0
   36.8270   23.5930   32.2950 C   0  0  0  0  0  0  0  0  0  0  0  0
   35.8890   23.9600   31.3360 C   0  0  0  0  0  0  0  0  0  0  0  0
   35.6130   25.2690   31.0770 C   0  0  0  0  0  0  0  0  0  0  0  0
   36.2840   26.2370   31.7860 C   0  0  0  0  0  0  0  0  0  0  0  0
   37.0560   22.5410   32.5100 H   0  0  0  0  0  0  0  0  0  0  0  0
   35.4070   23.1400   30.8240 H   0  0  0  0  0  0  0  0  0  0  0  0
   34.8760   25.4940   30.3220 H   0  0  0  0  0  0  0  0  0  0  0  0
   38.1490   23.9630   35.3570 C   0  0  0  0  0  0  0  0  0  0  0  0
   38.4930   24.1560   34.0220 C   0  0  0  0  0  0  0  0  0  0  0  0
   39.8270   23.9410   33.6650 C   0  0  0  0  0  0  0  0  0  0  0  0
   40.7100   23.5600   34.6200 N   0  0  0  0  0  0  0  0  0  0  0  0
   40.3400   23.3840   35.9000 C   0  0  0  0  0  0  0  0  0  0  0  0
   39.0440   23.5870   36.2790 N   0  0  0  0  0  0  0  0  0  0  0  0
   37.1020   24.1450   35.5750 H   0  0  0  0  0  0  0  0  0  0  0  0
   40.1060   24.0880   32.6290 H   0  0  0  0  0  0  0  0  0  0  0  0
   41.0170   23.0830   36.6820 H   0  0  0  0  0  0  0  0  0  0  0  0
   36.0290   27.6520   31.5510 C   0  0  0  0  0  0  0  0  0  0  0  0
   36.6490   28.4240   30.5950 C   0  0  0  0  0  3  0  0  0  0  0  0
   36.3640   29.7620   30.4200 C   0  0  0  0  0  0  0  0  0  0  0  0
   36.9100   30.2970   29.6320 H   0  0  0  0  0  0  0  0  0  0  0  0
   35.4530   30.3840   31.1880 N   0  0  0  0  0  0  0  0  0  0  0  0
   34.8420   29.6360   32.1260 C   0  0  0  0  0  3  0  0  0  0  0  0
   35.1200   28.3310   32.2950 N   0  0  0  0  0  0  0  0  0  0  0  0
  2  3  1  0  0  0  0
  2  1  1  0  0  0  0
  3 12  1  0  0  0  0
  4  8  1  0  0  0  0
  4  3  2  0  0  0  0
  5  4  1  0  0  0  0
  6  5  2  0  0  0  0
  6  7  1  0  0  0  0
  7  2  2  0  0  0  0
  9  5  1  0  0  0  0
 10  6  1  0  0  0  0
 11 17  1  0  0  0  0
 11 16  1  0  0  0  0
 12 11  2  0  0  0  0
 13 12  1  0  0  0  0
 13 14  2  0  0  0  0
 14 15  1  0  0  0  0
 15 16  2  0  0  0  0
 15 19  1  0  0  0  0
 18 13  1  0  0  0  0
 20  7  1  0  0  0  0
 20 26  1  0  0  0  0
 21 20  2  0  0  0  0
 22 21  1  0  0  0  0
 22 24  2  0  0  0  0
 23 22  1  0  0  0  0
 24 25  1  0  0  0  0
 25 26  2  0  0  0  0
M  END
>  <minimizedAffinity>
-4.59013224

$$$$
