
 OpenBabel03272510173D

 26 28  0  0  0  0  0  0  0  0999 V2000
   37.1890   29.5480   51.2010 Br  0  0  0  0  0  0  0  0  0  0  0  0
   36.0090   29.3230   49.7190 C   0  0  0  0  0  0  0  0  0  0  0  0
   36.1180   30.1350   48.5920 C   0  0  0  0  0  0  0  0  0  0  0  0
   35.2330   29.9170   47.5630 C   0  0  0  0  0  0  0  0  0  0  0  0
   34.2530   28.9430   47.5970 C   0  0  0  0  0  0  0  0  0  0  0  0
   34.1710   28.1620   48.7190 C   0  0  0  0  0  0  0  0  0  0  0  0
   35.0470   28.3600   49.7640 C   0  0  0  0  0  0  0  0  0  0  0  0
   35.3300   30.5550   46.6950 H   0  0  0  0  0  0  0  0  0  0  0  0
   33.4440   27.3720   48.8520 H   0  0  0  0  0  0  0  0  0  0  0  0
   34.9850   27.7420   50.6550 H   0  0  0  0  0  0  0  0  0  0  0  0
   37.9700   33.1690   49.4120 C   0  0  0  0  0  0  0  0  0  0  0  0
   39.0200   33.1810   48.4430 C   0  0  0  0  0  0  0  0  0  0  0  0
   39.0670   32.1420   47.5280 C   0  0  0  0  0  0  0  0  0  0  0  0
   38.1150   31.1620   47.5930 N   0  0  0  0  0  0  0  0  0  0  0  0
   37.1330   31.1750   48.5180 C   0  0  0  0  0  0  0  0  0  0  0  0
   37.0660   32.1850   49.4290 N   0  0  0  0  0  0  0  0  0  0  0  0
   37.8630   33.9360   50.1560 H   0  0  0  0  0  0  0  0  0  0  0  0
   39.7250   33.9910   48.4660 H   0  0  0  0  0  0  0  0  0  0  0  0
   39.8520   32.1300   46.7860 H   0  0  0  0  0  0  0  0  0  0  0  0
   33.3160   28.7120   46.5100 C   0  0  0  0  0  0  0  0  0  0  0  0
   33.5790   27.9430   45.3960 C   0  0  0  0  0  3  0  0  0  0  0  0
   32.6510   27.7500   44.3840 C   0  0  0  0  0  0  0  0  0  0  0  0
   32.9470   27.1310   43.5490 H   0  0  0  0  0  0  0  0  0  0  0  0
   31.4480   28.3270   44.4730 N   0  0  0  0  0  0  0  0  0  0  0  0
   31.1780   29.0810   45.5570 C   0  0  0  0  0  3  0  0  0  0  0  0
   32.0850   29.2550   46.5240 N   0  0  0  0  0  0  0  0  0  0  0  0
  2  7  1  0  0  0  0
  2  1  1  0  0  0  0
  3  2  2  0  0  0  0
  4  5  2  0  0  0  0
  4  3  1  0  0  0  0
  5  6  1  0  0  0  0
  6  9  1  0  0  0  0
  6  7  2  0  0  0  0
  7 10  1  0  0  0  0
  8  4  1  0  0  0  0
 11 16  1  0  0  0  0
 11 17  1  0  0  0  0
 12 18  1  0  0  0  0
 12 11  2  0  0  0  0
 13 14  2  0  0  0  0
 13 12  1  0  0  0  0
 14 15  1  0  0  0  0
 15  3  1  0  0  0  0
 15 16  2  0  0  0  0
 19 13  1  0  0  0  0
 20 26  1  0  0  0  0
 20  5  1  0  0  0  0
 21 20  2  0  0  0  0
 22 24  2  0  0  0  0
 22 21  1  0  0  0  0
 23 22  1  0  0  0  0
 24 25  1  0  0  0  0
 25 26  2  0  0  0  0
M  END
>  <minimizedAffinity>
-5.82148886

>  <minimizedRMSD>
0.444475979

$$$$
