
 OpenBabel03272506483D

 40 43  0  0  1  0  0  0  0  0999 V2000
   32.1450   28.4670   47.4690 C   0  0  2  0  0  0  0  0  0  0  0  0
   33.4030   28.2610   48.2600 C   0  0  1  0  0  0  0  0  0  0  0  0
   33.7700   26.9560   48.1320 O   0  0  0  0  0  0  0  0  0  0  0  0
   33.0280   26.3630   47.1160 C   0  0  0  0  0  0  0  0  0  0  0  0
   32.4280   27.4810   46.2960 C   0  0  1  0  0  0  0  0  0  0  0  0
   31.2270   28.1350   47.9480 H   0  0  0  0  0  0  0  0  0  0  0  0
   33.2600   28.5580   49.3230 H   0  0  0  0  0  0  0  0  0  0  0  0
   32.3280   25.6960   47.6000 H   0  0  0  0  0  0  0  0  0  0  0  0
   33.7350   25.7590   46.4630 H   0  0  0  0  0  0  0  0  0  0  0  0
   33.1660   27.9440   45.6470 H   0  0  0  0  0  0  0  0  0  0  0  0
   32.0870   29.7810   46.9630 O   0  0  0  0  0  0  0  0  0  0  0  0
   32.5090   30.4000   47.6090 H   0  0  0  0  0  0  0  0  0  0  0  0
   34.7170   29.2920   47.4900 S   0  0  0  0  0  0  0  0  0  0  0  0
   37.1070   29.2910   50.6490 C   0  0  0  0  0  0  0  0  0  0  0  0
   37.5750   30.6000   50.7530 C   0  0  0  0  0  0  0  0  0  0  0  0
   37.1310   31.5290   49.7970 C   0  0  0  0  0  0  0  0  0  0  0  0
   36.2720   31.1060   48.8290 N   0  0  0  0  0  0  0  0  0  0  0  0
   35.8450   29.8260   48.7710 C   0  0  0  0  0  0  0  0  0  0  0  0
   36.2550   28.9010   49.6770 N   0  0  0  0  0  0  0  0  0  0  0  0
   37.4820   28.6210   51.4100 H   0  0  0  0  0  0  0  0  0  0  0  0
   38.2580   30.8910   51.5390 H   0  0  0  0  0  0  0  0  0  0  0  0
   37.4640   32.5570   49.8320 H   0  0  0  0  0  0  0  0  0  0  0  0
   31.2620   27.0430   45.7220 O   0  0  0  0  0  0  0  0  0  0  0  0
   29.9910   29.3360   44.3850 Cl  0  0  0  0  0  0  0  0  0  0  0  0
   29.3390   28.3110   45.6440 C   0  0  0  0  0  0  0  0  0  0  0  0
   30.0330   27.2520   46.1840 C   0  0  0  0  0  0  0  0  0  0  0  0
   29.3980   26.4860   47.1640 C   0  0  0  0  0  0  0  0  0  0  0  0
   28.1150   26.7900   47.5720 C   0  0  0  0  0  0  0  0  0  0  0  0
   27.4120   27.8530   47.0330 C   0  0  0  0  0  0  0  0  0  0  0  0
   28.0390   28.6110   46.0630 C   0  0  0  0  0  0  0  0  0  0  0  0
   29.8520   25.6370   47.6440 H   0  0  0  0  0  0  0  0  0  0  0  0
   27.6260   26.1970   48.3300 H   0  0  0  0  0  0  0  0  0  0  0  0
   26.4150   28.0390   47.3920 H   0  0  0  0  0  0  0  0  0  0  0  0
   27.3500   29.7430   45.4580 C   0  0  0  0  0  0  0  0  0  0  0  0
   27.2600   30.9800   46.0440 C   0  0  0  0  0  3  0  0  0  0  0  0
   26.6080   32.0630   45.4770 C   0  0  0  0  0  0  0  0  0  0  0  0
   26.5560   33.0200   45.9620 H   0  0  0  0  0  0  0  0  0  0  0  0
   26.0180   31.9130   44.2730 N   0  0  0  0  0  0  0  0  0  0  0  0
   26.0950   30.7080   43.6800 C   0  0  0  0  0  3  0  0  0  0  0  0
   26.7350   29.6750   44.2570 N   0  0  0  0  0  0  0  0  0  0  0  0
  1  6  1  1  0  0  0
  1  2  1  0  0  0  0
  2  7  1  1  0  0  0
  3  2  1  0  0  0  0
  4  8  1  0  0  0  0
  4  3  1  0  0  0  0
  5 10  1  6  0  0  0
  5  4  1  0  0  0  0
  5  1  1  0  0  0  0
  9  4  1  0  0  0  0
 11  1  1  0  0  0  0
 11 12  1  0  0  0  0
 13  2  1  0  0  0  0
 13 18  1  0  0  0  0
 14 15  1  0  0  0  0
 14 20  1  0  0  0  0
 15 21  1  0  0  0  0
 16 22  1  0  0  0  0
 16 15  2  0  0  0  0
 17 16  1  0  0  0  0
 18 17  2  0  0  0  0
 18 19  1  0  0  0  0
 19 14  2  0  0  0  0
 23 26  1  0  0  0  0
 23  5  1  0  0  0  0
 24 25  1  0  0  0  0
 25 30  2  0  0  0  0
 25 26  1  0  0  0  0
 26 27  2  0  0  0  0
 27 28  1  0  0  0  0
 27 31  1  0  0  0  0
 28 32  1  0  0  0  0
 29 33  1  0  0  0  0
 29 28  2  0  0  0  0
 30 29  1  0  0  0  0
 34 35  1  0  0  0  0
 34 30  1  0  0  0  0
 36 37  1  0  0  0  0
 36 35  2  0  0  0  0
 38 36  1  0  0  0  0
 39 40  1  0  0  0  0
 39 38  2  0  0  0  0
 40 34  2  0  0  0  0
M  END
>  <minimizedAffinity>
-5.4201932

>  <minimizedRMSD>
0.325351954

$$$$
