
 OpenBabel03272509293D

 32 34  0  0  1  0  0  0  0  0999 V2000
   37.2600   31.1450   45.5860 C   0  0  2  0  0  0  0  0  0  0  0  0
   37.4080   31.1090   44.0820 C   0  0  0  0  0  0  0  0  0  0  0  0
   38.5490   30.2440   43.6330 C   0  0  0  0  0  0  0  0  0  0  0  0
   39.8530   30.6760   44.2600 C   0  0  0  0  0  0  0  0  0  0  0  0
   39.7520   30.8440   45.7350 C   0  0  0  0  0  0  0  0  0  0  0  0
   38.3980   30.5350   46.3200 C   0  0  1  0  0  0  0  0  0  0  0  0
   37.0690   32.1980   45.8710 H   0  0  0  0  0  0  0  0  0  0  0  0
   37.6190   32.1290   43.6980 H   0  0  0  0  0  0  0  0  0  0  0  0
   36.4770   30.7350   43.6560 H   0  0  0  0  0  0  0  0  0  0  0  0
   38.6430   30.3940   42.5350 H   0  0  0  0  0  0  0  0  0  0  0  0
   38.2820   29.1950   43.8650 H   0  0  0  0  0  0  0  0  0  0  0  0
   40.0670   31.6990   43.8430 H   0  0  0  0  0  0  0  0  0  0  0  0
   40.6570   30.0280   43.9210 H   0  0  0  0  0  0  0  0  0  0  0  0
   40.4370   30.0660   46.1840 H   0  0  0  0  0  0  0  0  0  0  0  0
   40.1740   31.7980   46.1020 H   0  0  0  0  0  0  0  0  0  0  0  0
   38.2460   29.4540   46.5030 H   0  0  0  0  0  0  0  0  0  0  0  0
   36.0200   30.4070   45.9880 C   0  0  0  0  0  0  0  0  0  0  0  0
   35.3740   29.6800   44.9680 C   0  0  0  0  0  0  0  0  0  0  0  0
   34.2180   28.9910   45.3100 C   0  0  0  0  0  0  0  0  0  0  0  0
   33.7600   29.0500   46.6110 N   0  0  0  0  0  0  0  0  0  0  0  0
   34.4170   29.7650   47.5660 C   0  0  0  0  0  0  0  0  0  0  0  0
   35.5310   30.4320   47.2500 N   0  0  0  0  0  0  0  0  0  0  0  0
   35.6530   29.5880   43.9540 H   0  0  0  0  0  0  0  0  0  0  0  0
   33.6440   28.4010   44.5990 H   0  0  0  0  0  0  0  0  0  0  0  0
   34.0140   29.7760   48.5670 H   0  0  0  0  0  0  0  0  0  0  0  0
   38.4260   31.2250   47.6610 C   0  0  0  0  0  0  0  0  0  0  0  0
   38.6440   32.5900   47.6480 C   0  0  0  0  0  3  0  0  0  0  0  0
   38.6710   33.2290   48.8710 C   0  0  0  0  0  0  0  0  0  0  0  0
   38.8410   34.3130   48.8940 H   0  0  0  0  0  0  0  0  0  0  0  0
   38.4910   32.5400   50.0350 N   0  0  0  0  0  0  0  0  0  0  0  0
   38.2810   31.1990   49.9870 C   0  0  0  0  0  3  0  0  0  0  0  0
   38.2510   30.5490   48.7860 N   0  0  0  0  0  0  0  0  0  0  0  0
  1  7  1  1  0  0  0
  1 17  1  0  0  0  0
  1  6  1  0  0  0  0
  2  1  1  0  0  0  0
  3 11  1  0  0  0  0
  3  2  1  0  0  0  0
  3  4  1  0  0  0  0
  4  5  1  0  0  0  0
  5 15  1  0  0  0  0
  5 14  1  0  0  0  0
  5  6  1  0  0  0  0
  6 16  1  1  0  0  0
  6 26  1  0  0  0  0
  8  2  1  0  0  0  0
  9  2  1  0  0  0  0
 10  3  1  0  0  0  0
 12  4  1  0  0  0  0
 13  4  1  0  0  0  0
 17 22  1  0  0  0  0
 18 19  1  0  0  0  0
 18 17  2  0  0  0  0
 19 20  2  0  0  0  0
 20 21  1  0  0  0  0
 21 25  1  0  0  0  0
 22 21  2  0  0  0  0
 23 18  1  0  0  0  0
 24 19  1  0  0  0  0
 26 32  1  0  0  0  0
 27 26  2  0  0  0  0
 27 28  1  0  0  0  0
 28 29  1  0  0  0  0
 28 30  2  0  0  0  0
 31 30  1  0  0  0  0
 32 31  2  0  0  0  0
M  END
>  <minimizedAffinity>
-4.80967379

>  <minimizedRMSD>
5.16756868

$$$$
