
 OpenBabel03272506303D

 32 34  0  0  1  0  0  0  0  0999 V2000
   33.6760   29.2190   48.6250 C   0  0  1  0  0  0  0  0  0  0  0  0
   33.5560   29.7180   47.2450 C   0  0  0  0  0  0  0  0  0  0  0  0
   34.0930   28.8380   46.1530 C   0  0  0  0  0  0  0  0  0  0  0  0
   33.9030   27.3810   46.3610 C   0  0  0  0  0  0  0  0  0  0  0  0
   34.0420   26.8660   47.7460 C   0  0  0  0  0  0  0  0  0  0  0  0
   33.3910   27.7650   48.7560 C   0  0  2  0  0  0  0  0  0  0  0  0
   32.8530   29.7180   49.2380 H   0  0  0  0  0  0  0  0  0  0  0  0
   33.8520   30.7320   47.0420 H   0  0  0  0  0  0  0  0  0  0  0  0
   32.4370   29.7220   47.0330 H   0  0  0  0  0  0  0  0  0  0  0  0
   35.1790   29.0460   46.0600 H   0  0  0  0  0  0  0  0  0  0  0  0
   33.6190   29.1310   45.2020 H   0  0  0  0  0  0  0  0  0  0  0  0
   32.8970   27.1100   45.9440 H   0  0  0  0  0  0  0  0  0  0  0  0
   34.6290   26.8380   45.7140 H   0  0  0  0  0  0  0  0  0  0  0  0
   35.0900   26.6530   48.0480 H   0  0  0  0  0  0  0  0  0  0  0  0
   33.5100   25.8930   47.7890 H   0  0  0  0  0  0  0  0  0  0  0  0
   33.6630   27.3430   49.7340 H   0  0  0  0  0  0  0  0  0  0  0  0
   35.8180   30.6010   48.8380 C   0  0  0  0  0  0  0  0  0  0  0  0
   34.8980   29.6470   49.3430 C   0  0  0  0  0  0  0  0  0  0  0  0
   35.1820   29.1160   50.5850 C   0  0  0  0  0  0  0  0  0  0  0  0
   36.2920   29.5100   51.2590 N   0  0  0  0  0  0  0  0  0  0  0  0
   37.1450   30.4280   50.7340 C   0  0  0  0  0  0  0  0  0  0  0  0
   36.9000   30.9740   49.5130 N   0  0  0  0  0  0  0  0  0  0  0  0
   35.6520   31.0520   47.8750 H   0  0  0  0  0  0  0  0  0  0  0  0
   34.6320   28.3960   51.1580 H   0  0  0  0  0  0  0  0  0  0  0  0
   38.0390   30.7640   51.2430 H   0  0  0  0  0  0  0  0  0  0  0  0
   31.8910   27.5790   48.7050 C   0  0  0  0  0  0  0  0  0  0  0  0
   31.3470   26.7830   47.6890 C   0  0  0  0  0  3  0  0  0  0  0  0
   29.9700   26.5610   47.5670 C   0  0  0  0  0  0  0  0  0  0  0  0
   29.5960   25.9370   46.7650 H   0  0  0  0  0  0  0  0  0  0  0  0
   29.1580   27.1430   48.4690 N   0  0  0  0  0  0  0  0  0  0  0  0
   29.6780   27.9150   49.4540 C   0  0  0  0  0  3  0  0  0  0  0  0
   30.9830   28.1060   49.5450 N   0  0  0  0  0  0  0  0  0  0  0  0
  1  6  1  0  0  0  0
  1  7  1  1  0  0  0
  1 18  1  0  0  0  0
  2  1  1  0  0  0  0
  3  4  1  0  0  0  0
  3  2  1  0  0  0  0
  4  5  1  0  0  0  0
  5 15  1  0  0  0  0
  5 14  1  0  0  0  0
  5  6  1  0  0  0  0
  6 16  1  1  0  0  0
  8  2  1  0  0  0  0
  9  2  1  0  0  0  0
 10  3  1  0  0  0  0
 11  3  1  0  0  0  0
 12  4  1  0  0  0  0
 13  4  1  0  0  0  0
 17 18  2  0  0  0  0
 17 22  1  0  0  0  0
 18 19  1  0  0  0  0
 19 24  1  0  0  0  0
 19 20  2  0  0  0  0
 21 25  1  0  0  0  0
 21 20  1  0  0  0  0
 22 21  2  0  0  0  0
 23 17  1  0  0  0  0
 26  6  1  0  0  0  0
 26 32  1  0  0  0  0
 27 26  2  0  0  0  0
 28 27  1  0  0  0  0
 28 30  2  0  0  0  0
 29 28  1  0  0  0  0
 30 31  1  0  0  0  0
 31 32  2  0  0  0  0
M  END
>  <minimizedAffinity>
-4.73915958

>  <minimizedRMSD>
1.67483556

$$$$
