
 OpenBabel03272509113D

 26 28  0  0  0  0  0  0  0  0999 V2000
   35.2270   30.0420   46.8470 C   0  0  0  0  0  0  0  0  0  0  0  0
   36.5400   30.5800   46.7860 C   0  0  0  0  0  0  0  0  0  0  0  0
   37.0800   30.8240   45.5120 C   0  0  0  0  0  0  0  0  0  0  0  0
   36.3370   30.5390   44.4000 N   0  0  0  0  0  0  0  0  0  0  0  0
   35.0770   30.0210   44.5150 C   0  0  0  0  0  0  0  0  0  0  0  0
   34.5370   29.7790   45.7220 N   0  0  0  0  0  0  0  0  0  0  0  0
   34.7660   29.8360   47.7990 H   0  0  0  0  0  0  0  0  0  0  0  0
   34.5680   29.8290   43.5810 H   0  0  0  0  0  0  0  0  0  0  0  0
   38.4100   31.3610   45.3380 C   0  0  0  0  0  0  0  0  0  0  0  0
   38.5270   32.6660   44.9460 C   0  0  0  0  0  0  0  0  0  0  0  0
   39.7550   33.2850   44.7660 C   0  0  0  0  0  0  0  0  0  0  0  0
   40.8760   32.5060   45.0060 C   0  0  0  0  0  0  0  0  0  0  0  0
   40.8330   31.1700   45.4080 C   0  0  0  0  0  0  0  0  0  0  0  0
   39.5540   30.6170   45.5670 C   0  0  0  0  0  0  0  0  0  0  0  0
   37.7580   33.3860   44.7070 H   0  0  0  0  0  0  0  0  0  0  0  0
   39.9530   34.2870   44.4660 H   0  0  0  0  0  0  0  0  0  0  0  0
   41.9010   32.8940   44.8960 H   0  0  0  0  0  0  0  0  0  0  0  0
   41.7400   30.6020   45.5830 H   0  0  0  0  0  0  0  0  0  0  0  0
   39.4680   29.5860   45.8760 H   0  0  0  0  0  0  0  0  0  0  0  0
   37.1850   30.8000   48.0610 C   0  0  0  0  0  0  0  0  0  0  0  0
   37.7740   32.0100   48.4560 C   0  0  0  0  0  0  0  0  0  0  0  0
   38.3740   32.1830   49.6810 C   0  0  0  0  0  0  0  0  0  0  0  0
   38.8210   33.1340   49.9570 H   0  0  0  0  0  0  0  0  0  0  0  0
   38.3680   31.1020   50.5050 N   0  0  0  0  0  0  0  0  0  0  0  0
   37.8090   29.9320   50.1440 C   0  0  0  0  0  0  0  0  0  0  0  0
   37.2200   29.7600   48.9430 N   0  0  0  0  0  0  0  0  0  0  0  0
  1  7  1  0  0  0  0
  2  1  1  0  0  0  0
  2 20  1  0  0  0  0
  3  2  2  0  0  0  0
  4  5  2  0  0  0  0
  4  3  1  0  0  0  0
  5  6  1  0  0  0  0
  6  1  2  0  0  0  0
  8  5  1  0  0  0  0
  9  3  1  0  0  0  0
  9 14  1  0  0  0  0
 10  9  2  0  0  0  0
 11 10  1  0  0  0  0
 11 12  2  0  0  0  0
 12 13  1  0  0  0  0
 13 14  2  0  0  0  0
 13 18  1  0  0  0  0
 14 19  1  0  0  0  0
 15 10  1  0  0  0  0
 16 11  1  0  0  0  0
 17 12  1  0  0  0  0
 20 21  2  0  0  0  0
 20 26  1  0  0  0  0
 21 22  1  0  0  0  0
 22 23  1  0  0  0  0
 22 24  2  0  0  0  0
 25 24  1  0  0  0  0
 26 25  2  0  0  0  0
M  END
>  <minimizedAffinity>
-5.69653749

>  <minimizedRMSD>
3.86019683

$$$$
