
 OpenBabel03272509123D

 26 28  0  0  0  0  0  0  0  0999 V2000
   35.2310   25.5290   30.7650 C   0  0  0  0  0  0  0  0  0  0  0  0
   36.0750   26.2340   31.6640 C   0  0  0  0  0  0  0  0  0  0  0  0
   36.8680   25.4730   32.5380 C   0  0  0  0  0  0  0  0  0  0  0  0
   36.7980   24.1080   32.4950 N   0  0  0  0  0  0  0  0  0  0  0  0
   35.9670   23.4780   31.6110 C   0  0  0  0  0  0  0  0  0  0  0  0
   35.1990   24.1840   30.7620 N   0  0  0  0  0  0  0  0  0  0  0  0
   34.6030   26.0650   30.0720 H   0  0  0  0  0  0  0  0  0  0  0  0
   35.9800   22.3990   31.6510 H   0  0  0  0  0  0  0  0  0  0  0  0
   37.7540   26.0910   33.4980 C   0  0  0  0  0  0  0  0  0  0  0  0
   37.2590   26.3660   34.7420 C   0  0  0  0  0  0  0  0  0  0  0  0
   38.0280   26.9420   35.7430 C   0  0  0  0  0  0  0  0  0  0  0  0
   39.3430   27.2310   35.4160 C   0  0  0  0  0  0  0  0  0  0  0  0
   39.9160   26.9790   34.1680 C   0  0  0  0  0  0  0  0  0  0  0  0
   39.0730   26.3960   33.2110 C   0  0  0  0  0  0  0  0  0  0  0  0
   36.2640   26.2170   35.1370 H   0  0  0  0  0  0  0  0  0  0  0  0
   37.7400   27.1930   36.7360 H   0  0  0  0  0  0  0  0  0  0  0  0
   40.0450   27.6880   36.1320 H   0  0  0  0  0  0  0  0  0  0  0  0
   40.9520   27.2250   33.9610 H   0  0  0  0  0  0  0  0  0  0  0  0
   39.4700   26.1820   32.2300 H   0  0  0  0  0  0  0  0  0  0  0  0
   36.0060   27.6760   31.5830 C   0  0  0  0  0  0  0  0  0  0  0  0
   36.8230   28.4670   30.7620 C   0  0  0  0  0  3  0  0  0  0  0  0
   36.7240   29.8370   30.7090 C   0  0  0  0  0  0  0  0  0  0  0  0
   37.3710   30.4220   30.0610 H   0  0  0  0  0  0  0  0  0  0  0  0
   35.7790   30.3980   31.5080 N   0  0  0  0  0  0  0  0  0  0  0  0
   34.9860   29.6570   32.3050 C   0  0  0  0  0  3  0  0  0  0  0  0
   35.0810   28.3120   32.3580 N   0  0  0  0  0  0  0  0  0  0  0  0
  1  2  1  0  0  0  0
  2  3  2  0  0  0  0
  3  9  1  0  0  0  0
  4  3  1  0  0  0  0
  5  8  1  0  0  0  0
  5  4  2  0  0  0  0
  6  1  2  0  0  0  0
  6  5  1  0  0  0  0
  7  1  1  0  0  0  0
  9 10  1  0  0  0  0
 10 15  1  0  0  0  0
 10 11  2  0  0  0  0
 11 16  1  0  0  0  0
 12 11  1  0  0  0  0
 12 17  1  0  0  0  0
 13 12  2  0  0  0  0
 14  9  2  0  0  0  0
 14 13  1  0  0  0  0
 18 13  1  0  0  0  0
 19 14  1  0  0  0  0
 20  2  1  0  0  0  0
 20 26  1  0  0  0  0
 21 20  2  0  0  0  0
 22 21  1  0  0  0  0
 22 24  2  0  0  0  0
 23 22  1  0  0  0  0
 24 25  1  0  0  0  0
 25 26  2  0  0  0  0
M  END
>  <minimizedAffinity>
-4.82789803

$$$$

 OpenBabel03272509123D

 26 28  0  0  0  0  0  0  0  0999 V2000
   41.7390   23.7890   35.5160 C   0  0  0  0  0  0  0  0  0  0  0  0
   40.4920   24.4400   35.3200 C   0  0  0  0  0  0  0  0  0  0  0  0
   40.5180   25.7460   34.8050 C   0  0  0  0  0  0  0  0  0  0  0  0
   41.7190   26.3320   34.5170 N   0  0  0  0  0  0  0  0  0  0  0  0
   42.8920   25.6620   34.7240 C   0  0  0  0  0  0  0  0  0  0  0  0
   42.8940   24.4110   35.2170 N   0  0  0  0  0  0  0  0  0  0  0  0
   41.7750   22.7860   35.9080 H   0  0  0  0  0  0  0  0  0  0  0  0
   43.7890   26.2070   34.4680 H   0  0  0  0  0  0  0  0  0  0  0  0
   39.3060   26.5000   34.5770 C   0  0  0  0  0  0  0  0  0  0  0  0
   38.7420   26.4440   33.3320 C   0  0  0  0  0  0  0  0  0  0  0  0
   37.5710   27.1150   33.0110 C   0  0  0  0  0  0  0  0  0  0  0  0
   36.9910   27.8560   34.0270 C   0  0  0  0  0  0  0  0  0  0  0  0
   37.5090   27.9600   35.3200 C   0  0  0  0  0  0  0  0  0  0  0  0
   38.6950   27.2520   35.5640 C   0  0  0  0  0  0  0  0  0  0  0  0
   39.0810   25.9300   32.4440 H   0  0  0  0  0  0  0  0  0  0  0  0
   37.0550   27.1350   32.0800 H   0  0  0  0  0  0  0  0  0  0  0  0
   36.0600   28.4280   33.8860 H   0  0  0  0  0  0  0  0  0  0  0  0
   37.0170   28.5550   36.0810 H   0  0  0  0  0  0  0  0  0  0  0  0
   39.1360   27.3010   36.5490 H   0  0  0  0  0  0  0  0  0  0  0  0
   39.3240   23.6760   35.6980 C   0  0  0  0  0  0  0  0  0  0  0  0
   38.6480   23.8070   36.9200 C   0  0  0  0  0  3  0  0  0  0  0  0
   37.5350   23.0660   37.2410 C   0  0  0  0  0  0  0  0  0  0  0  0
   37.0340   23.1920   38.1970 H   0  0  0  0  0  0  0  0  0  0  0  0
   37.1160   22.1820   36.2980 N   0  0  0  0  0  0  0  0  0  0  0  0
   37.7510   22.0400   35.1200 C   0  0  0  0  0  3  0  0  0  0  0  0
   38.8430   22.7670   34.8020 N   0  0  0  0  0  0  0  0  0  0  0  0
  1  7  1  0  0  0  0
  2  1  1  0  0  0  0
  2 20  1  0  0  0  0
  3  2  2  0  0  0  0
  4  5  2  0  0  0  0
  4  3  1  0  0  0  0
  5  6  1  0  0  0  0
  6  1  2  0  0  0  0
  8  5  1  0  0  0  0
  9  3  1  0  0  0  0
  9 14  1  0  0  0  0
 10  9  2  0  0  0  0
 11 10  1  0  0  0  0
 11 12  2  0  0  0  0
 12 13  1  0  0  0  0
 13 14  2  0  0  0  0
 13 18  1  0  0  0  0
 14 19  1  0  0  0  0
 15 10  1  0  0  0  0
 16 11  1  0  0  0  0
 17 12  1  0  0  0  0
 20 21  1  0  0  0  0
 21 22  2  0  0  0  0
 22 23  1  0  0  0  0
 24 22  1  0  0  0  0
 25 24  2  0  0  0  0
 26 25  1  0  0  0  0
 26 20  2  0  0  0  0
M  END
>  <minimizedAffinity>
-4.8256259

$$$$

 OpenBabel03272509123D

 26 28  0  0  0  0  0  0  0  0999 V2000
   37.2390   25.5800   32.7020 C   0  0  0  0  0  0  0  0  0  0  0  0
   37.2090   24.1620   32.6240 C   0  0  0  0  0  0  0  0  0  0  0  0
   36.2490   23.5810   31.7800 C   0  0  0  0  0  0  0  0  0  0  0  0
   35.3940   24.3850   31.0790 N   0  0  0  0  0  0  0  0  0  0  0  0
   35.4640   25.7460   31.1910 C   0  0  0  0  0  0  0  0  0  0  0  0
   36.3750   26.3270   31.9910 N   0  0  0  0  0  0  0  0  0  0  0  0
   37.9570   26.0760   33.3350 H   0  0  0  0  0  0  0  0  0  0  0  0
   34.7480   26.2970   30.5990 H   0  0  0  0  0  0  0  0  0  0  0  0
   36.1280   22.1480   31.6360 C   0  0  0  0  0  0  0  0  0  0  0  0
   35.1280   21.5180   32.3230 C   0  0  0  0  0  0  0  0  0  0  0  0
   34.9130   20.1500   32.2420 C   0  0  0  0  0  0  0  0  0  0  0  0
   35.7730   19.4410   31.4190 C   0  0  0  0  0  0  0  0  0  0  0  0
   36.8150   20.0160   30.6890 C   0  0  0  0  0  0  0  0  0  0  0  0
   36.9670   21.4040   30.8240 C   0  0  0  0  0  0  0  0  0  0  0  0
   34.3990   21.9250   33.0080 H   0  0  0  0  0  0  0  0  0  0  0  0
   34.1690   19.5680   32.7320 H   0  0  0  0  0  0  0  0  0  0  0  0
   35.6950   18.3510   31.2780 H   0  0  0  0  0  0  0  0  0  0  0  0
   37.4620   19.4170   30.0580 H   0  0  0  0  0  0  0  0  0  0  0  0
   37.7590   21.8960   30.2800 H   0  0  0  0  0  0  0  0  0  0  0  0
   38.1750   23.4720   33.4500 C   0  0  0  0  0  0  0  0  0  0  0  0
   37.8800   22.8620   34.6790 C   0  0  0  0  0  3  0  0  0  0  0  0
   38.8250   22.2090   35.4330 C   0  0  0  0  0  0  0  0  0  0  0  0
   38.5640   21.7460   36.3810 H   0  0  0  0  0  0  0  0  0  0  0  0
   40.0840   22.1840   34.9210 N   0  0  0  0  0  0  0  0  0  0  0  0
   40.3880   22.7630   33.7450 C   0  0  0  0  0  3  0  0  0  0  0  0
   39.4610   23.4050   33.0020 N   0  0  0  0  0  0  0  0  0  0  0  0
  1  7  1  0  0  0  0
  2  1  1  0  0  0  0
  2 20  1  0  0  0  0
  3  2  2  0  0  0  0
  4  5  2  0  0  0  0
  4  3  1  0  0  0  0
  5  6  1  0  0  0  0
  6  1  2  0  0  0  0
  8  5  1  0  0  0  0
  9  3  1  0  0  0  0
  9 10  1  0  0  0  0
 10 15  1  0  0  0  0
 11 10  2  0  0  0  0
 11 16  1  0  0  0  0
 12 11  1  0  0  0  0
 13 14  1  0  0  0  0
 13 12  2  0  0  0  0
 14  9  2  0  0  0  0
 17 12  1  0  0  0  0
 18 13  1  0  0  0  0
 19 14  1  0  0  0  0
 20 21  1  0  0  0  0
 21 22  2  0  0  0  0
 22 23  1  0  0  0  0
 24 22  1  0  0  0  0
 25 24  2  0  0  0  0
 26 20  2  0  0  0  0
 26 25  1  0  0  0  0
M  END
>  <minimizedAffinity>
-4.62752914

$$$$

 OpenBabel03272509123D

 26 28  0  0  0  0  0  0  0  0999 V2000
   37.5520   23.1540   32.4380 C   0  0  0  0  0  0  0  0  0  0  0  0
   38.0630   23.4980   33.7180 C   0  0  0  0  0  0  0  0  0  0  0  0
   37.7990   22.6160   34.7790 C   0  0  0  0  0  0  0  0  0  0  0  0
   37.0740   21.4810   34.5450 N   0  0  0  0  0  0  0  0  0  0  0  0
   36.6040   21.1960   33.2930 C   0  0  0  0  0  0  0  0  0  0  0  0
   36.8430   22.0240   32.2610 N   0  0  0  0  0  0  0  0  0  0  0  0
   37.7260   23.7960   31.5910 H   0  0  0  0  0  0  0  0  0  0  0  0
   36.0410   20.2770   33.2070 H   0  0  0  0  0  0  0  0  0  0  0  0
   38.2650   22.8760   36.1210 C   0  0  0  0  0  0  0  0  0  0  0  0
   39.5140   22.4350   36.4620 C   0  0  0  0  0  0  0  0  0  0  0  0
   40.0650   22.6470   37.7180 C   0  0  0  0  0  0  0  0  0  0  0  0
   39.2770   23.3380   38.6240 C   0  0  0  0  0  0  0  0  0  0  0  0
   37.9950   23.8180   38.3470 C   0  0  0  0  0  0  0  0  0  0  0  0
   37.5100   23.5630   37.0560 C   0  0  0  0  0  0  0  0  0  0  0  0
   40.2310   21.8740   35.8790 H   0  0  0  0  0  0  0  0  0  0  0  0
   41.0190   22.3470   38.0800 H   0  0  0  0  0  0  0  0  0  0  0  0
   39.6130   23.5640   39.6490 H   0  0  0  0  0  0  0  0  0  0  0  0
   37.4180   24.3530   39.0930 H   0  0  0  0  0  0  0  0  0  0  0  0
   36.5230   23.9130   36.7930 H   0  0  0  0  0  0  0  0  0  0  0  0
   38.7900   24.7460   33.7840 C   0  0  0  0  0  0  0  0  0  0  0  0
   40.1850   24.8600   33.6800 C   0  0  0  0  0  3  0  0  0  0  0  0
   40.8410   26.0660   33.7430 C   0  0  0  0  0  0  0  0  0  0  0  0
   41.9230   26.1210   33.6570 H   0  0  0  0  0  0  0  0  0  0  0  0
   40.0580   27.1630   33.9150 N   0  0  0  0  0  0  0  0  0  0  0  0
   38.7180   27.0750   34.0180 C   0  0  0  0  0  3  0  0  0  0  0  0
   38.0720   25.8920   33.9570 N   0  0  0  0  0  0  0  0  0  0  0  0
  1  2  1  0  0  0  0
  2 20  1  0  0  0  0
  2  3  2  0  0  0  0
  3  9  1  0  0  0  0
  4  3  1  0  0  0  0
  5  4  2  0  0  0  0
  6  1  2  0  0  0  0
  6  5  1  0  0  0  0
  7  1  1  0  0  0  0
  8  5  1  0  0  0  0
  9 10  2  0  0  0  0
  9 14  1  0  0  0  0
 10 11  1  0  0  0  0
 11 16  1  0  0  0  0
 11 12  2  0  0  0  0
 12 17  1  0  0  0  0
 13 12  1  0  0  0  0
 13 18  1  0  0  0  0
 14 13  2  0  0  0  0
 15 10  1  0  0  0  0
 19 14  1  0  0  0  0
 20 26  1  0  0  0  0
 21 22  1  0  0  0  0
 21 20  2  0  0  0  0
 22 24  2  0  0  0  0
 23 22  1  0  0  0  0
 24 25  1  0  0  0  0
 26 25  2  0  0  0  0
M  END
>  <minimizedAffinity>
-4.59632254

$$$$

 OpenBabel03272509123D

 26 28  0  0  0  0  0  0  0  0999 V2000
   36.8110   24.3300   32.4610 C   0  0  0  0  0  0  0  0  0  0  0  0
   36.9060   25.7420   32.5840 C   0  0  0  0  0  0  0  0  0  0  0  0
   36.0930   26.5210   31.7440 C   0  0  0  0  0  0  0  0  0  0  0  0
   35.2580   25.9040   30.8550 N   0  0  0  0  0  0  0  0  0  0  0  0
   35.2050   24.5400   30.7760 C   0  0  0  0  0  0  0  0  0  0  0  0
   35.9720   23.7720   31.5690 N   0  0  0  0  0  0  0  0  0  0  0  0
   37.4130   23.6870   33.0810 H   0  0  0  0  0  0  0  0  0  0  0  0
   34.5160   24.1440   30.0440 H   0  0  0  0  0  0  0  0  0  0  0  0
   36.1190   27.9650   31.7830 C   0  0  0  0  0  0  0  0  0  0  0  0
   36.7880   28.6200   30.7860 C   0  0  0  0  0  0  0  0  0  0  0  0
   36.8600   30.0040   30.7180 C   0  0  0  0  0  0  0  0  0  0  0  0
   36.2140   30.7020   31.7260 C   0  0  0  0  0  0  0  0  0  0  0  0
   35.5130   30.1010   32.7740 C   0  0  0  0  0  0  0  0  0  0  0  0
   35.4870   28.6990   32.7710 C   0  0  0  0  0  0  0  0  0  0  0  0
   37.3470   28.2210   29.9530 H   0  0  0  0  0  0  0  0  0  0  0  0
   37.3500   30.6050   29.9900 H   0  0  0  0  0  0  0  0  0  0  0  0
   36.2040   31.8020   31.7720 H   0  0  0  0  0  0  0  0  0  0  0  0
   35.0240   30.6930   33.5400 H   0  0  0  0  0  0  0  0  0  0  0  0
   34.9590   28.1880   33.5620 H   0  0  0  0  0  0  0  0  0  0  0  0
   37.8570   26.2200   33.5630 C   0  0  0  0  0  0  0  0  0  0  0  0
   39.1880   26.5620   33.2790 C   0  0  0  0  0  3  0  0  0  0  0  0
   40.0610   27.0180   34.2370 C   0  0  0  0  0  0  0  0  0  0  0  0
   41.0860   27.2760   33.9850 H   0  0  0  0  0  0  0  0  0  0  0  0
   39.5620   27.1230   35.4970 N   0  0  0  0  0  0  0  0  0  0  0  0
   38.2890   26.7990   35.7910 C   0  0  0  0  0  3  0  0  0  0  0  0
   37.4300   26.3510   34.8520 N   0  0  0  0  0  0  0  0  0  0  0  0
  1  2  1  0  0  0  0
  1  7  1  0  0  0  0
  2 20  1  0  0  0  0
  3  9  1  0  0  0  0
  3  2  2  0  0  0  0
  4  3  1  0  0  0  0
  5  4  2  0  0  0  0
  5  6  1  0  0  0  0
  6  1  2  0  0  0  0
  8  5  1  0  0  0  0
  9 14  1  0  0  0  0
 10  9  2  0  0  0  0
 11 10  1  0  0  0  0
 11 12  2  0  0  0  0
 12 17  1  0  0  0  0
 12 13  1  0  0  0  0
 13 18  1  0  0  0  0
 14 13  2  0  0  0  0
 14 19  1  0  0  0  0
 15 10  1  0  0  0  0
 16 11  1  0  0  0  0
 20 26  1  0  0  0  0
 21 20  2  0  0  0  0
 21 22  1  0  0  0  0
 22 24  2  0  0  0  0
 23 22  1  0  0  0  0
 24 25  1  0  0  0  0
 26 25  2  0  0  0  0
M  END
>  <minimizedAffinity>
-4.57321215

$$$$

 OpenBabel03272509123D

 26 28  0  0  0  0  0  0  0  0999 V2000
   37.3370   21.8180   34.4030 C   0  0  0  0  0  0  0  0  0  0  0  0
   38.1930   22.9110   34.7070 C   0  0  0  0  0  0  0  0  0  0  0  0
   38.7160   23.6420   33.6280 C   0  0  0  0  0  0  0  0  0  0  0  0
   38.3900   23.2820   32.3500 N   0  0  0  0  0  0  0  0  0  0  0  0
   37.5620   22.2210   32.1120 C   0  0  0  0  0  0  0  0  0  0  0  0
   37.0480   21.5050   33.1270 N   0  0  0  0  0  0  0  0  0  0  0  0
   36.9090   21.2250   35.1940 H   0  0  0  0  0  0  0  0  0  0  0  0
   37.3630   22.0130   31.0700 H   0  0  0  0  0  0  0  0  0  0  0  0
   39.6030   24.7660   33.8270 C   0  0  0  0  0  0  0  0  0  0  0  0
   40.9490   24.5310   33.7960 C   0  0  0  0  0  0  0  0  0  0  0  0
   41.8880   25.5400   33.9580 C   0  0  0  0  0  0  0  0  0  0  0  0
   41.3880   26.8170   34.1560 C   0  0  0  0  0  0  0  0  0  0  0  0
   40.0280   27.1310   34.1990 C   0  0  0  0  0  0  0  0  0  0  0  0
   39.1430   26.0560   34.0270 C   0  0  0  0  0  0  0  0  0  0  0  0
   41.4850   23.6010   33.6710 H   0  0  0  0  0  0  0  0  0  0  0  0
   42.9490   25.4630   33.9510 H   0  0  0  0  0  0  0  0  0  0  0  0
   42.0400   27.6940   34.2950 H   0  0  0  0  0  0  0  0  0  0  0  0
   39.6870   28.1480   34.3580 H   0  0  0  0  0  0  0  0  0  0  0  0
   38.0810   26.2470   34.0530 H   0  0  0  0  0  0  0  0  0  0  0  0
   38.4440   23.1350   36.1130 C   0  0  0  0  0  0  0  0  0  0  0  0
   37.6190   23.8940   36.9570 C   0  0  0  0  0  3  0  0  0  0  0  0
   37.8880   24.0800   38.2920 C   0  0  0  0  0  0  0  0  0  0  0  0
   37.2280   24.6730   38.9200 H   0  0  0  0  0  0  0  0  0  0  0  0
   39.0140   23.4830   38.7630 N   0  0  0  0  0  0  0  0  0  0  0  0
   39.8190   22.7520   37.9690 C   0  0  0  0  0  3  0  0  0  0  0  0
   39.5570   22.5670   36.6580 N   0  0  0  0  0  0  0  0  0  0  0  0
  1  2  1  0  0  0  0
  1  7  1  0  0  0  0
  2 20  1  0  0  0  0
  3  9  1  0  0  0  0
  3  2  2  0  0  0  0
  4  3  1  0  0  0  0
  5  4  2  0  0  0  0
  5  6  1  0  0  0  0
  6  1  2  0  0  0  0
  8  5  1  0  0  0  0
  9 14  1  0  0  0  0
 10  9  2  0  0  0  0
 10 11  1  0  0  0  0
 11 12  2  0  0  0  0
 12 13  1  0  0  0  0
 12 17  1  0  0  0  0
 13 18  1  0  0  0  0
 14 19  1  0  0  0  0
 14 13  2  0  0  0  0
 15 10  1  0  0  0  0
 16 11  1  0  0  0  0
 20 26  2  0  0  0  0
 20 21  1  0  0  0  0
 21 22  2  0  0  0  0
 22 24  1  0  0  0  0
 22 23  1  0  0  0  0
 25 24  2  0  0  0  0
 26 25  1  0  0  0  0
M  END
>  <minimizedAffinity>
-4.51213646

$$$$

 OpenBabel03272509123D

 26 28  0  0  0  0  0  0  0  0999 V2000
   37.1800   25.7410   32.7470 C   0  0  0  0  0  0  0  0  0  0  0  0
   37.7740   24.8260   33.6570 C   0  0  0  0  0  0  0  0  0  0  0  0
   38.0200   25.2800   34.9630 C   0  0  0  0  0  0  0  0  0  0  0  0
   37.6870   26.5610   35.3040 N   0  0  0  0  0  0  0  0  0  0  0  0
   37.1180   27.4030   34.3900 C   0  0  0  0  0  0  0  0  0  0  0  0
   36.8720   26.9920   33.1330 N   0  0  0  0  0  0  0  0  0  0  0  0
   36.9700   25.4430   31.7330 H   0  0  0  0  0  0  0  0  0  0  0  0
   36.8910   28.3950   34.7510 H   0  0  0  0  0  0  0  0  0  0  0  0
   38.6280   24.4320   35.9630 C   0  0  0  0  0  0  0  0  0  0  0  0
   37.9280   24.1960   37.1140 C   0  0  0  0  0  0  0  0  0  0  0  0
   38.4110   23.3840   38.1300 C   0  0  0  0  0  0  0  0  0  0  0  0
   39.6570   22.8150   37.9200 C   0  0  0  0  0  0  0  0  0  0  0  0
   40.4280   23.0110   36.7720 C   0  0  0  0  0  0  0  0  0  0  0  0
   39.8690   23.8450   35.7920 C   0  0  0  0  0  0  0  0  0  0  0  0
   36.9660   24.5770   37.4260 H   0  0  0  0  0  0  0  0  0  0  0  0
   37.9480   23.1390   39.0560 H   0  0  0  0  0  0  0  0  0  0  0  0
   40.1370   22.1530   38.6580 H   0  0  0  0  0  0  0  0  0  0  0  0
   41.3990   22.5430   36.6560 H   0  0  0  0  0  0  0  0  0  0  0  0
   40.4270   24.0280   34.8860 H   0  0  0  0  0  0  0  0  0  0  0  0
   38.0760   23.5180   33.1180 C   0  0  0  0  0  0  0  0  0  0  0  0
   37.3410   22.3550   33.3930 C   0  0  0  0  0  3  0  0  0  0  0  0
   37.6570   21.1290   32.8570 C   0  0  0  0  0  0  0  0  0  0  0  0
   37.0670   20.2470   33.0890 H   0  0  0  0  0  0  0  0  0  0  0  0
   38.7380   21.0990   32.0330 N   0  0  0  0  0  0  0  0  0  0  0  0
   39.4560   22.2040   31.7580 C   0  0  0  0  0  3  0  0  0  0  0  0
   39.1480   23.4080   32.2830 N   0  0  0  0  0  0  0  0  0  0  0  0
  1  6  2  0  0  0  0
  1  2  1  0  0  0  0
  2  3  2  0  0  0  0
  3  4  1  0  0  0  0
  3  9  1  0  0  0  0
  5  8  1  0  0  0  0
  5  4  2  0  0  0  0
  6  5  1  0  0  0  0
  7  1  1  0  0  0  0
  9 10  1  0  0  0  0
 10 15  1  0  0  0  0
 10 11  2  0  0  0  0
 11 16  1  0  0  0  0
 12 11  1  0  0  0  0
 12 17  1  0  0  0  0
 13 12  2  0  0  0  0
 14  9  2  0  0  0  0
 14 13  1  0  0  0  0
 18 13  1  0  0  0  0
 19 14  1  0  0  0  0
 20 21  1  0  0  0  0
 20  2  1  0  0  0  0
 22 23  1  0  0  0  0
 22 21  2  0  0  0  0
 24 22  1  0  0  0  0
 25 24  2  0  0  0  0
 25 26  1  0  0  0  0
 26 20  2  0  0  0  0
M  END
>  <minimizedAffinity>
-4.49965

$$$$

 OpenBabel03272509123D

 26 28  0  0  0  0  0  0  0  0999 V2000
   39.2780   25.7180   32.0750 C   0  0  0  0  0  0  0  0  0  0  0  0
   38.9310   24.9550   33.2230 C   0  0  0  0  0  0  0  0  0  0  0  0
   39.4710   25.3590   34.4550 C   0  0  0  0  0  0  0  0  0  0  0  0
   40.2960   26.4480   34.5040 N   0  0  0  0  0  0  0  0  0  0  0  0
   40.6000   27.1470   33.3690 C   0  0  0  0  0  0  0  0  0  0  0  0
   40.0950   26.7820   32.1770 N   0  0  0  0  0  0  0  0  0  0  0  0
   38.8900   25.4510   31.1060 H   0  0  0  0  0  0  0  0  0  0  0  0
   41.2590   27.9920   33.5060 H   0  0  0  0  0  0  0  0  0  0  0  0
   39.1890   24.6480   35.6810 C   0  0  0  0  0  0  0  0  0  0  0  0
   40.0320   23.6330   36.0400 C   0  0  0  0  0  0  0  0  0  0  0  0
   39.8630   22.8980   37.2050 C   0  0  0  0  0  0  0  0  0  0  0  0
   38.7820   23.2460   37.9980 C   0  0  0  0  0  0  0  0  0  0  0  0
   37.8800   24.2690   37.6950 C   0  0  0  0  0  0  0  0  0  0  0  0
   38.1200   24.9640   36.5000 C   0  0  0  0  0  0  0  0  0  0  0  0
   40.8960   23.2380   35.5250 H   0  0  0  0  0  0  0  0  0  0  0  0
   40.4580   22.0960   37.5720 H   0  0  0  0  0  0  0  0  0  0  0  0
   38.5510   22.7320   38.9450 H   0  0  0  0  0  0  0  0  0  0  0  0
   37.0480   24.5020   38.3490 H   0  0  0  0  0  0  0  0  0  0  0  0
   37.4510   25.7640   36.2220 H   0  0  0  0  0  0  0  0  0  0  0  0
   38.0630   23.8250   32.9820 C   0  0  0  0  0  0  0  0  0  0  0  0
   38.3130   22.5190   33.4300 C   0  0  0  0  0  3  0  0  0  0  0  0
   37.4600   21.4700   33.1850 C   0  0  0  0  0  0  0  0  0  0  0  0
   37.6820   20.4700   33.5470 H   0  0  0  0  0  0  0  0  0  0  0  0
   36.3410   21.7650   32.4720 N   0  0  0  0  0  0  0  0  0  0  0  0
   36.0830   23.0110   32.0320 C   0  0  0  0  0  3  0  0  0  0  0  0
   36.9190   24.0430   32.2720 N   0  0  0  0  0  0  0  0  0  0  0  0
  1  6  2  0  0  0  0
  1  2  1  0  0  0  0
  2  3  2  0  0  0  0
  3  4  1  0  0  0  0
  3  9  1  0  0  0  0
  5  8  1  0  0  0  0
  5  4  2  0  0  0  0
  6  5  1  0  0  0  0
  7  1  1  0  0  0  0
  9 10  2  0  0  0  0
  9 14  1  0  0  0  0
 10 11  1  0  0  0  0
 11 16  1  0  0  0  0
 11 12  2  0  0  0  0
 12 17  1  0  0  0  0
 13 12  1  0  0  0  0
 13 18  1  0  0  0  0
 14 13  2  0  0  0  0
 15 10  1  0  0  0  0
 19 14  1  0  0  0  0
 20  2  1  0  0  0  0
 20 21  1  0  0  0  0
 22 21  2  0  0  0  0
 22 23  1  0  0  0  0
 24 22  1  0  0  0  0
 25 26  1  0  0  0  0
 25 24  2  0  0  0  0
 26 20  2  0  0  0  0
M  END
>  <minimizedAffinity>
-4.49812698

$$$$

 OpenBabel03272509123D

 26 28  0  0  0  0  0  0  0  0999 V2000
   39.3400   25.3880   29.6190 C   0  0  0  0  0  0  0  0  0  0  0  0
   38.7920   25.5730   30.9170 C   0  0  0  0  0  0  0  0  0  0  0  0
   39.1780   26.7240   31.6230 C   0  0  0  0  0  0  0  0  0  0  0  0
   40.0510   27.6060   31.0490 N   0  0  0  0  0  0  0  0  0  0  0  0
   40.5500   27.3800   29.7960 C   0  0  0  0  0  0  0  0  0  0  0  0
   40.1960   26.2860   29.0990 N   0  0  0  0  0  0  0  0  0  0  0  0
   39.0760   24.5220   29.0350 H   0  0  0  0  0  0  0  0  0  0  0  0
   41.2320   28.1310   29.4260 H   0  0  0  0  0  0  0  0  0  0  0  0
   38.6860   27.0030   32.9530 C   0  0  0  0  0  0  0  0  0  0  0  0
   39.5430   26.8220   34.0030 C   0  0  0  0  0  0  0  0  0  0  0  0
   39.1790   27.0770   35.3180 C   0  0  0  0  0  0  0  0  0  0  0  0
   37.8860   27.5300   35.5190 C   0  0  0  0  0  0  0  0  0  0  0  0
   36.9570   27.7380   34.4970 C   0  0  0  0  0  0  0  0  0  0  0  0
   37.4020   27.4570   33.1970 C   0  0  0  0  0  0  0  0  0  0  0  0
   40.5620   26.4630   34.0080 H   0  0  0  0  0  0  0  0  0  0  0  0
   39.7670   26.9690   36.1980 H   0  0  0  0  0  0  0  0  0  0  0  0
   37.4890   27.7650   36.5200 H   0  0  0  0  0  0  0  0  0  0  0  0
   35.9550   28.0940   34.7070 H   0  0  0  0  0  0  0  0  0  0  0  0
   36.7210   27.6020   32.3720 H   0  0  0  0  0  0  0  0  0  0  0  0
   37.9010   24.5300   31.3730 C   0  0  0  0  0  0  0  0  0  0  0  0
   36.5390   24.4480   31.0460 C   0  0  0  0  0  3  0  0  0  0  0  0
   35.7240   23.4360   31.4950 C   0  0  0  0  0  0  0  0  0  0  0  0
   34.6730   23.4000   31.2230 H   0  0  0  0  0  0  0  0  0  0  0  0
   36.3140   22.5030   32.2880 N   0  0  0  0  0  0  0  0  0  0  0  0
   37.6180   22.5650   32.6150 C   0  0  0  0  0  3  0  0  0  0  0  0
   38.4210   23.5570   32.1750 N   0  0  0  0  0  0  0  0  0  0  0  0
  1  2  1  0  0  0  0
  2 20  1  0  0  0  0
  2  3  2  0  0  0  0
  3  9  1  0  0  0  0
  4  3  1  0  0  0  0
  5  4  2  0  0  0  0
  6  1  2  0  0  0  0
  6  5  1  0  0  0  0
  7  1  1  0  0  0  0
  8  5  1  0  0  0  0
  9 14  2  0  0  0  0
  9 10  1  0  0  0  0
 10 15  1  0  0  0  0
 10 11  2  0  0  0  0
 11 12  1  0  0  0  0
 11 16  1  0  0  0  0
 12 17  1  0  0  0  0
 13 18  1  0  0  0  0
 13 12  2  0  0  0  0
 14 13  1  0  0  0  0
 19 14  1  0  0  0  0
 20 26  1  0  0  0  0
 21 20  2  0  0  0  0
 21 22  1  0  0  0  0
 22 24  2  0  0  0  0
 23 22  1  0  0  0  0
 24 25  1  0  0  0  0
 26 25  2  0  0  0  0
M  END
>  <minimizedAffinity>
-4.45813274

$$$$
