
 OpenBabel03272506303D

 32 34  0  0  1  0  0  0  0  0999 V2000
   33.8960   29.0630   48.2100 C   0  0  1  0  0  0  0  0  0  0  0  0
   33.5670   29.6410   46.8960 C   0  0  0  0  0  0  0  0  0  0  0  0
   33.8780   28.8040   45.6880 C   0  0  0  0  0  0  0  0  0  0  0  0
   33.6650   27.3450   45.8550 C   0  0  0  0  0  0  0  0  0  0  0  0
   34.0120   26.7510   47.1700 C   0  0  0  0  0  0  0  0  0  0  0  0
   33.5760   27.6140   48.3170 C   0  0  2  0  0  0  0  0  0  0  0  0
   33.2080   29.5540   48.9760 H   0  0  0  0  0  0  0  0  0  0  0  0
   33.8680   30.6540   46.6950 H   0  0  0  0  0  0  0  0  0  0  0  0
   32.4300   29.6920   46.8760 H   0  0  0  0  0  0  0  0  0  0  0  0
   34.9410   28.9810   45.4230 H   0  0  0  0  0  0  0  0  0  0  0  0
   33.2640   29.1640   44.8460 H   0  0  0  0  0  0  0  0  0  0  0  0
   32.5930   27.1300   45.6010 H   0  0  0  0  0  0  0  0  0  0  0  0
   34.2490   26.8140   45.0680 H   0  0  0  0  0  0  0  0  0  0  0  0
   35.0860   26.4880   47.2790 H   0  0  0  0  0  0  0  0  0  0  0  0
   33.4540   25.7950   47.2550 H   0  0  0  0  0  0  0  0  0  0  0  0
   33.9910   27.1310   49.2130 H   0  0  0  0  0  0  0  0  0  0  0  0
   36.1060   30.3470   48.1150 C   0  0  0  0  0  0  0  0  0  0  0  0
   35.2370   29.4120   48.7310 C   0  0  0  0  0  0  0  0  0  0  0  0
   35.6950   28.8180   49.8910 C   0  0  0  0  0  0  0  0  0  0  0  0
   36.9180   29.1390   50.3860 N   0  0  0  0  0  0  0  0  0  0  0  0
   37.7150   30.0420   49.7590 C   0  0  0  0  0  0  0  0  0  0  0  0
   37.3000   30.6470   48.6140 N   0  0  0  0  0  0  0  0  0  0  0  0
   35.8070   30.8440   47.2080 H   0  0  0  0  0  0  0  0  0  0  0  0
   35.2130   28.0980   50.5210 H   0  0  0  0  0  0  0  0  0  0  0  0
   38.6950   30.3200   50.1250 H   0  0  0  0  0  0  0  0  0  0  0  0
   32.0820   27.4810   48.5110 C   0  0  0  0  0  0  0  0  0  0  0  0
   31.3580   26.6810   47.6190 C   0  0  0  0  0  3  0  0  0  0  0  0
   29.9730   26.5050   47.7250 C   0  0  0  0  0  0  0  0  0  0  0  0
   29.4560   25.8760   47.0120 H   0  0  0  0  0  0  0  0  0  0  0  0
   29.3350   27.1370   48.7270 N   0  0  0  0  0  0  0  0  0  0  0  0
   30.0290   27.9130   49.5950 C   0  0  0  0  0  3  0  0  0  0  0  0
   31.3380   28.0610   49.4690 N   0  0  0  0  0  0  0  0  0  0  0  0
  1  6  1  0  0  0  0
  1 18  1  0  0  0  0
  1  7  1  1  0  0  0
  2  1  1  0  0  0  0
  3  4  1  0  0  0  0
  3  2  1  0  0  0  0
  4  5  1  0  0  0  0
  5 15  1  0  0  0  0
  5 14  1  0  0  0  0
  5  6  1  0  0  0  0
  6 26  1  0  0  0  0
  6 16  1  1  0  0  0
  8  2  1  0  0  0  0
  9  2  1  0  0  0  0
 10  3  1  0  0  0  0
 11  3  1  0  0  0  0
 12  4  1  0  0  0  0
 13  4  1  0  0  0  0
 17 22  2  0  0  0  0
 17 18  1  0  0  0  0
 18 19  2  0  0  0  0
 19 20  1  0  0  0  0
 19 24  1  0  0  0  0
 21 25  1  0  0  0  0
 21 20  2  0  0  0  0
 22 21  1  0  0  0  0
 23 17  1  0  0  0  0
 26 32  1  0  0  0  0
 27 28  1  0  0  0  0
 27 26  2  0  0  0  0
 28 30  2  0  0  0  0
 29 28  1  0  0  0  0
 30 31  1  0  0  0  0
 32 31  2  0  0  0  0
M  END
>  <minimizedAffinity>
-4.71787024

>  <minimizedRMSD>
1.81639969

$$$$
