
 OpenBabel03272510173D

 26 28  0  0  0  0  0  0  0  0999 V2000
   37.2270   29.5360   51.2200 Br  0  0  0  0  0  0  0  0  0  0  0  0
   36.0120   29.3210   49.7660 C   0  0  0  0  0  0  0  0  0  0  0  0
   36.0980   30.1330   48.6380 C   0  0  0  0  0  0  0  0  0  0  0  0
   35.1880   29.9220   47.6300 C   0  0  0  0  0  0  0  0  0  0  0  0
   34.2040   28.9540   47.6860 C   0  0  0  0  0  0  0  0  0  0  0  0
   34.1440   28.1710   48.8080 C   0  0  0  0  0  0  0  0  0  0  0  0
   35.0450   28.3620   49.8320 C   0  0  0  0  0  0  0  0  0  0  0  0
   35.2680   30.5610   46.7610 H   0  0  0  0  0  0  0  0  0  0  0  0
   33.4160   27.3850   48.9570 H   0  0  0  0  0  0  0  0  0  0  0  0
   35.0010   27.7430   50.7230 H   0  0  0  0  0  0  0  0  0  0  0  0
   37.9710   33.1700   49.4010 C   0  0  0  0  0  0  0  0  0  0  0  0
   39.0130   33.1640   48.4230 C   0  0  0  0  0  0  0  0  0  0  0  0
   39.0480   32.1120   47.5220 C   0  0  0  0  0  0  0  0  0  0  0  0
   38.0920   31.1370   47.6080 N   0  0  0  0  0  0  0  0  0  0  0  0
   37.1180   31.1670   48.5420 C   0  0  0  0  0  0  0  0  0  0  0  0
   37.0630   32.1900   49.4380 N   0  0  0  0  0  0  0  0  0  0  0  0
   37.8740   33.9480   50.1360 H   0  0  0  0  0  0  0  0  0  0  0  0
   39.7210   33.9700   48.4290 H   0  0  0  0  0  0  0  0  0  0  0  0
   39.8270   32.0860   46.7740 H   0  0  0  0  0  0  0  0  0  0  0  0
   33.2400   28.7290   46.6210 C   0  0  0  0  0  0  0  0  0  0  0  0
   33.5600   28.5910   45.2870 C   0  0  0  0  0  3  0  0  0  0  0  0
   32.6050   28.3770   44.3060 C   0  0  0  0  0  0  0  0  0  0  0  0
   32.9510   28.2810   43.2860 H   0  0  0  0  0  0  0  0  0  0  0  0
   31.3140   28.3000   44.6480 N   0  0  0  0  0  0  0  0  0  0  0  0
   30.9870   28.4340   45.9480 C   0  0  0  0  0  3  0  0  0  0  0  0
   31.9230   28.6390   46.8800 N   0  0  0  0  0  0  0  0  0  0  0  0
  2  7  1  0  0  0  0
  2  1  1  0  0  0  0
  3  2  2  0  0  0  0
  4  5  2  0  0  0  0
  4  3  1  0  0  0  0
  5  6  1  0  0  0  0
  6  9  1  0  0  0  0
  6  7  2  0  0  0  0
  7 10  1  0  0  0  0
  8  4  1  0  0  0  0
 11 16  1  0  0  0  0
 11 17  1  0  0  0  0
 12 18  1  0  0  0  0
 12 11  2  0  0  0  0
 13 14  2  0  0  0  0
 13 12  1  0  0  0  0
 14 15  1  0  0  0  0
 15  3  1  0  0  0  0
 15 16  2  0  0  0  0
 19 13  1  0  0  0  0
 20 26  1  0  0  0  0
 20  5  1  0  0  0  0
 21 20  2  0  0  0  0
 22 24  2  0  0  0  0
 22 21  1  0  0  0  0
 23 22  1  0  0  0  0
 24 25  1  0  0  0  0
 25 26  2  0  0  0  0
M  END
>  <minimizedAffinity>
-5.86292219

>  <minimizedRMSD>
0.436392486

$$$$
