
 OpenBabel03262522083D

 38 41  0  0  1  0  0  0  0  0999 V2000
   38.7370   23.1980   36.0850 C   0  0  2  0  0  0  0  0  0  0  0  0
   38.1030   24.3590   36.7670 C   0  0  0  0  0  0  0  0  0  0  0  0
   37.9810   25.4640   35.8200 N   0  0  0  0  0  0  0  0  0  0  0  0
   37.5280   26.5420   34.9790 C   0  0  0  0  0  0  0  0  0  0  0  0
   36.4940   27.2220   34.8710 O   0  0  0  0  0  0  0  0  0  0  0  0
   38.7390   26.6210   34.2130 C   0  0  1  0  0  0  0  0  0  0  0  0
   39.2940   25.6960   35.2900 C   0  0  2  0  0  0  0  0  0  0  0  0
   39.7070   24.0230   34.7470 S   0  0  0  0  0  0  0  0  0  0  0  0
   37.0740   24.0660   37.0670 H   0  0  0  0  0  0  0  0  0  0  0  0
   38.6300   24.6700   37.6890 H   0  0  0  0  0  0  0  0  0  0  0  0
   39.3200   27.5660   34.3040 H   0  0  0  0  0  0  0  0  0  0  0  0
   40.0270   26.1380   35.9810 H   0  0  0  0  0  0  0  0  0  0  0  0
   37.8180   22.1400   35.5800 C   0  0  0  0  0  0  0  0  0  0  0  0
   37.6920   21.3180   36.2970 H   0  0  0  0  0  0  0  0  0  0  0  0
   36.8520   22.6270   35.2980 H   0  0  0  0  0  0  0  0  0  0  0  0
   38.2630   21.6640   34.6570 H   0  0  0  0  0  0  0  0  0  0  0  0
   39.8150   22.6180   37.0230 C   0  0  0  0  0  0  0  0  0  0  0  0
   40.7220   23.2560   37.0300 H   0  0  0  0  0  0  0  0  0  0  0  0
   40.0680   21.5910   36.7410 H   0  0  0  0  0  0  0  0  0  0  0  0
   39.3000   22.5850   38.3200 O   0  0  0  0  0  0  0  0  0  0  0  0
   38.5700   23.2210   38.4710 H   0  0  0  0  0  0  0  0  0  0  0  0
   38.7050   26.0680   32.8460 C   0  0  0  0  0  0  0  0  0  0  0  0
   39.8320   26.1270   32.2520 O   0  0  0  0  0  0  0  0  0  0  0  0
   37.5420   25.5120   32.2290 C   0  0  0  0  0  0  0  0  0  0  0  0
   36.6190   26.3670   31.6750 C   0  0  0  0  0  0  0  0  0  0  0  0
   35.4690   25.8050   31.0740 C   0  0  0  0  0  0  0  0  0  0  0  0
   35.3440   24.4440   31.0800 N   0  0  0  0  0  0  0  0  0  0  0  0
   36.2540   23.6400   31.6250 C   0  0  0  0  0  0  0  0  0  0  0  0
   37.3570   24.1700   32.2020 N   0  0  0  0  0  0  0  0  0  0  0  0
   36.7170   27.4390   31.6700 H   0  0  0  0  0  0  0  0  0  0  0  0
   34.7430   26.4740   30.6370 H   0  0  0  0  0  0  0  0  0  0  0  0
   36.0830   22.1910   31.6110 C   0  0  0  0  0  0  0  0  0  0  0  0
   35.0560   21.6000   32.3180 C   0  0  0  0  0  3  0  0  0  0  0  0
   34.9280   20.2240   32.2800 C   0  0  0  0  0  0  0  0  0  0  0  0
   34.1000   19.8270   32.8580 H   0  0  0  0  0  0  0  0  0  0  0  0
   35.7850   19.4660   31.5700 N   0  0  0  0  0  0  0  0  0  0  0  0
   36.7860   20.0750   30.8840 C   0  0  0  0  0  3  0  0  0  0  0  0
   36.9210   21.4160   30.9130 N   0  0  0  0  0  0  0  0  0  0  0  0
  1 13  1  6  0  0  0
  1  2  1  0  0  0  0
  1 17  1  0  0  0  0
  2  9  1  0  0  0  0
  2 10  1  0  0  0  0
  3  2  1  0  0  0  0
  4  3  1  0  0  0  0
  5  4  2  0  0  0  0
  6 11  1  1  0  0  0
  6  4  1  0  0  0  0
  6  7  1  0  0  0  0
  7  3  1  0  0  0  0
  7 12  1  1  0  0  0
  8  7  1  0  0  0  0
  8  1  1  0  0  0  0
 13 14  1  0  0  0  0
 15 13  1  0  0  0  0
 16 13  1  0  0  0  0
 17 18  1  0  0  0  0
 17 20  1  0  0  0  0
 19 17  1  0  0  0  0
 20 21  1  0  0  0  0
 22  6  1  0  0  0  0
 23 22  2  0  0  0  0
 24 22  1  0  0  0  0
 25 24  2  0  0  0  0
 26 27  2  0  0  0  0
 26 25  1  0  0  0  0
 27 28  1  0  0  0  0
 28 29  2  0  0  0  0
 29 24  1  0  0  0  0
 30 25  1  0  0  0  0
 31 26  1  0  0  0  0
 32 28  1  0  0  0  0
 32 33  1  0  0  0  0
 34 33  2  0  0  0  0
 34 35  1  0  0  0  0
 36 34  1  0  0  0  0
 37 38  1  0  0  0  0
 37 36  2  0  0  0  0
 38 32  2  0  0  0  0
M  END
>  <minimizedAffinity>
-6.17339754

$$$$

 OpenBabel03262522083D

 38 41  0  0  1  0  0  0  0  0999 V2000
   41.5530   25.7070   33.5590 C   0  0  2  0  0  0  0  0  0  0  0  0
   41.2770   25.1140   34.8950 C   0  0  0  0  0  0  0  0  0  0  0  0
   39.8760   25.3380   35.2400 N   0  0  0  0  0  0  0  0  0  0  0  0
   38.4920   25.2160   35.6230 C   0  0  0  0  0  0  0  0  0  0  0  0
   37.7690   24.3290   36.1050 O   0  0  0  0  0  0  0  0  0  0  0  0
   38.1400   26.5570   35.2490 C   0  0  1  0  0  0  0  0  0  0  0  0
   39.6470   26.7510   35.1290 C   0  0  2  0  0  0  0  0  0  0  0  0
   40.2690   27.0310   33.4560 S   0  0  0  0  0  0  0  0  0  0  0  0
   41.4280   24.0150   34.8260 H   0  0  0  0  0  0  0  0  0  0  0  0
   41.9550   25.4810   35.6890 H   0  0  0  0  0  0  0  0  0  0  0  0
   37.8190   27.2320   36.0730 H   0  0  0  0  0  0  0  0  0  0  0  0
   40.1200   27.3820   35.8960 H   0  0  0  0  0  0  0  0  0  0  0  0
   41.5310   24.7730   32.3990 C   0  0  0  0  0  0  0  0  0  0  0  0
   42.5290   24.3940   32.1480 H   0  0  0  0  0  0  0  0  0  0  0  0
   40.7970   23.9600   32.6240 H   0  0  0  0  0  0  0  0  0  0  0  0
   41.1820   25.3250   31.4770 H   0  0  0  0  0  0  0  0  0  0  0  0
   42.8820   26.4830   33.6410 C   0  0  0  0  0  0  0  0  0  0  0  0
   43.5620   26.1990   32.8120 H   0  0  0  0  0  0  0  0  0  0  0  0
   43.3680   26.3270   34.6090 H   0  0  0  0  0  0  0  0  0  0  0  0
   42.6060   27.8470   33.5230 O   0  0  0  0  0  0  0  0  0  0  0  0
   41.7580   28.0400   33.0700 H   0  0  0  0  0  0  0  0  0  0  0  0
   37.3690   26.7250   34.0020 C   0  0  0  0  0  0  0  0  0  0  0  0
   37.3420   25.6720   33.2840 O   0  0  0  0  0  0  0  0  0  0  0  0
   36.7080   27.9330   33.6190 C   0  0  0  0  0  0  0  0  0  0  0  0
   36.6940   28.2820   32.2890 C   0  0  0  0  0  0  0  0  0  0  0  0
   36.0420   29.4810   31.9230 C   0  0  0  0  0  0  0  0  0  0  0  0
   35.4650   30.2240   32.9150 N   0  0  0  0  0  0  0  0  0  0  0  0
   35.4950   29.8620   34.1950 C   0  0  0  0  0  0  0  0  0  0  0  0
   36.1170   28.7150   34.5540 N   0  0  0  0  0  0  0  0  0  0  0  0
   37.1480   27.6960   31.5080 H   0  0  0  0  0  0  0  0  0  0  0  0
   36.0290   29.7580   30.8800 H   0  0  0  0  0  0  0  0  0  0  0  0
   34.8660   30.6840   35.2250 C   0  0  0  0  0  0  0  0  0  0  0  0
   35.6120   31.5880   35.9510 C   0  0  0  0  0  3  0  0  0  0  0  0
   34.9800   32.3480   36.9180 C   0  0  0  0  0  0  0  0  0  0  0  0
   35.6260   33.0380   37.4500 H   0  0  0  0  0  0  0  0  0  0  0  0
   33.6620   32.2130   37.1550 N   0  0  0  0  0  0  0  0  0  0  0  0
   32.9530   31.3140   36.4250 C   0  0  0  0  0  3  0  0  0  0  0  0
   33.5580   30.5680   35.4790 N   0  0  0  0  0  0  0  0  0  0  0  0
  1 13  1  6  0  0  0
  1 17  1  0  0  0  0
  1  2  1  0  0  0  0
  2  3  1  0  0  0  0
  2 10  1  0  0  0  0
  3  4  1  0  0  0  0
  4  5  2  0  0  0  0
  6  4  1  0  0  0  0
  6 11  1  1  0  0  0
  7  3  1  0  0  0  0
  7  6  1  0  0  0  0
  7 12  1  1  0  0  0
  8  1  1  0  0  0  0
  8  7  1  0  0  0  0
  9  2  1  0  0  0  0
 13 15  1  0  0  0  0
 14 13  1  0  0  0  0
 16 13  1  0  0  0  0
 17 19  1  0  0  0  0
 18 17  1  0  0  0  0
 20 17  1  0  0  0  0
 21 20  1  0  0  0  0
 22  6  1  0  0  0  0
 23 22  2  0  0  0  0
 24 22  1  0  0  0  0
 24 29  1  0  0  0  0
 25 24  2  0  0  0  0
 26 25  1  0  0  0  0
 26 27  2  0  0  0  0
 27 28  1  0  0  0  0
 28 29  2  0  0  0  0
 28 32  1  0  0  0  0
 30 25  1  0  0  0  0
 31 26  1  0  0  0  0
 32 38  2  0  0  0  0
 32 33  1  0  0  0  0
 33 34  2  0  0  0  0
 34 36  1  0  0  0  0
 34 35  1  0  0  0  0
 37 36  2  0  0  0  0
 38 37  1  0  0  0  0
M  END
>  <minimizedAffinity>
-5.56582737

$$$$

 OpenBabel03262522083D

 38 41  0  0  1  0  0  0  0  0999 V2000
   35.9390   20.5880   32.8420 C   0  0  2  0  0  0  0  0  0  0  0  0
   37.2390   20.1520   32.2640 C   0  0  0  0  0  0  0  0  0  0  0  0
   37.9420   21.3160   31.7310 N   0  0  0  0  0  0  0  0  0  0  0  0
   38.8900   22.3530   31.4120 C   0  0  0  0  0  0  0  0  0  0  0  0
   40.0990   22.5550   31.6090 O   0  0  0  0  0  0  0  0  0  0  0  0
   37.9410   23.1840   30.7260 C   0  0  1  0  0  0  0  0  0  0  0  0
   37.0390   21.9580   30.8180 C   0  0  2  0  0  0  0  0  0  0  0  0
   35.5920   22.1300   31.8860 S   0  0  0  0  0  0  0  0  0  0  0  0
   37.8630   19.7370   33.0840 H   0  0  0  0  0  0  0  0  0  0  0  0
   37.1380   19.3550   31.5020 H   0  0  0  0  0  0  0  0  0  0  0  0
   38.1170   23.3410   29.6380 H   0  0  0  0  0  0  0  0  0  0  0  0
   36.8410   21.4260   29.8750 H   0  0  0  0  0  0  0  0  0  0  0  0
   35.9010   20.7880   34.3180 C   0  0  0  0  0  0  0  0  0  0  0  0
   35.5440   19.8990   34.8520 H   0  0  0  0  0  0  0  0  0  0  0  0
   36.9170   21.1200   34.6470 H   0  0  0  0  0  0  0  0  0  0  0  0
   35.1590   21.6030   34.5680 H   0  0  0  0  0  0  0  0  0  0  0  0
   34.8480   19.6050   32.3710 C   0  0  0  0  0  0  0  0  0  0  0  0
   33.9380   20.1470   32.0430 H   0  0  0  0  0  0  0  0  0  0  0  0
   34.6050   18.8830   33.1570 H   0  0  0  0  0  0  0  0  0  0  0  0
   35.3410   18.8890   31.2790 O   0  0  0  0  0  0  0  0  0  0  0  0
   36.0650   19.3450   30.8020 H   0  0  0  0  0  0  0  0  0  0  0  0
   37.4650   24.3860   31.4350 C   0  0  0  0  0  0  0  0  0  0  0  0
   36.3530   24.8240   30.9920 O   0  0  0  0  0  0  0  0  0  0  0  0
   38.1590   25.0110   32.5180 C   0  0  0  0  0  0  0  0  0  0  0  0
   38.8120   26.1970   32.2810 C   0  0  0  0  0  0  0  0  0  0  0  0
   39.5000   26.8040   33.3570 C   0  0  0  0  0  0  0  0  0  0  0  0
   39.4750   26.1720   34.5700 N   0  0  0  0  0  0  0  0  0  0  0  0
   38.8330   25.0230   34.7700 C   0  0  0  0  0  0  0  0  0  0  0  0
   38.1720   24.4370   33.7440 N   0  0  0  0  0  0  0  0  0  0  0  0
   38.8330   26.6950   31.3270 H   0  0  0  0  0  0  0  0  0  0  0  0
   40.0140   27.7350   33.1750 H   0  0  0  0  0  0  0  0  0  0  0  0
   38.8290   24.3810   36.0800 C   0  0  0  0  0  0  0  0  0  0  0  0
   37.8680   24.7020   37.0150 C   0  0  0  0  0  3  0  0  0  0  0  0
   37.8990   24.0720   38.2450 C   0  0  0  0  0  0  0  0  0  0  0  0
   37.1130   24.3720   38.9300 H   0  0  0  0  0  0  0  0  0  0  0  0
   38.8470   23.1610   38.5350 N   0  0  0  0  0  0  0  0  0  0  0  0
   39.7810   22.8650   37.5950 C   0  0  0  0  0  3  0  0  0  0  0  0
   39.7610   23.4730   36.3920 N   0  0  0  0  0  0  0  0  0  0  0  0
  1 17  1  6  0  0  0
  1 13  1  0  0  0  0
  2  1  1  0  0  0  0
  2  9  1  0  0  0  0
  3  2  1  0  0  0  0
  4  5  2  0  0  0  0
  4  3  1  0  0  0  0
  6 11  1  6  0  0  0
  6  7  1  0  0  0  0
  6  4  1  0  0  0  0
  6 22  1  0  0  0  0
  7 12  1  6  0  0  0
  7  3  1  0  0  0  0
  7  8  1  0  0  0  0
  8  1  1  0  0  0  0
 10  2  1  0  0  0  0
 13 16  1  0  0  0  0
 13 15  1  0  0  0  0
 13 14  1  0  0  0  0
 17 19  1  0  0  0  0
 18 17  1  0  0  0  0
 20 17  1  0  0  0  0
 21 20  1  0  0  0  0
 22 24  1  0  0  0  0
 23 22  2  0  0  0  0
 24 29  1  0  0  0  0
 25 24  2  0  0  0  0
 25 26  1  0  0  0  0
 26 27  2  0  0  0  0
 27 28  1  0  0  0  0
 28 32  1  0  0  0  0
 29 28  2  0  0  0  0
 30 25  1  0  0  0  0
 31 26  1  0  0  0  0
 32 38  2  0  0  0  0
 32 33  1  0  0  0  0
 33 34  2  0  0  0  0
 34 36  1  0  0  0  0
 34 35  1  0  0  0  0
 37 36  2  0  0  0  0
 38 37  1  0  0  0  0
M  END
>  <minimizedAffinity>
-5.45695448

$$$$

 OpenBabel03262522083D

 38 41  0  0  1  0  0  0  0  0999 V2000
   39.3250   26.1120   33.2440 C   0  0  2  0  0  0  0  0  0  0  0  0
   38.0800   26.6980   32.6790 C   0  0  0  0  0  0  0  0  0  0  0  0
   37.3510   25.6650   31.9480 N   0  0  0  0  0  0  0  0  0  0  0  0
   36.3730   24.7400   31.4350 C   0  0  0  0  0  0  0  0  0  0  0  0
   35.1470   24.5790   31.5450 O   0  0  0  0  0  0  0  0  0  0  0  0
   37.3160   23.9670   30.6770 C   0  0  1  0  0  0  0  0  0  0  0  0
   38.2700   25.1140   30.9920 C   0  0  2  0  0  0  0  0  0  0  0  0
   39.6480   24.7090   32.0870 S   0  0  0  0  0  0  0  0  0  0  0  0
   37.4340   27.0230   33.5220 H   0  0  0  0  0  0  0  0  0  0  0  0
   38.2600   27.5910   32.0490 H   0  0  0  0  0  0  0  0  0  0  0  0
   37.1910   23.9800   29.5720 H   0  0  0  0  0  0  0  0  0  0  0  0
   38.5430   25.7660   30.1480 H   0  0  0  0  0  0  0  0  0  0  0  0
   39.2750   25.6960   34.6740 C   0  0  0  0  0  0  0  0  0  0  0  0
   39.6450   26.4780   35.3500 H   0  0  0  0  0  0  0  0  0  0  0  0
   38.2280   25.3770   34.9050 H   0  0  0  0  0  0  0  0  0  0  0  0
   39.9620   24.8140   34.8350 H   0  0  0  0  0  0  0  0  0  0  0  0
   40.4850   27.0910   32.9750 C   0  0  0  0  0  0  0  0  0  0  0  0
   40.1050   28.1160   32.7870 H   0  0  0  0  0  0  0  0  0  0  0  0
   41.1020   26.7480   32.1390 H   0  0  0  0  0  0  0  0  0  0  0  0
   41.2980   27.1340   34.1090 O   0  0  0  0  0  0  0  0  0  0  0  0
   40.8400   26.8680   34.9340 H   0  0  0  0  0  0  0  0  0  0  0  0
   37.6960   22.6490   31.2220 C   0  0  0  0  0  0  0  0  0  0  0  0
   38.4920   22.0030   30.4650 O   0  0  0  0  0  0  0  0  0  0  0  0
   37.2350   22.1300   32.4720 C   0  0  0  0  0  0  0  0  0  0  0  0
   36.1700   21.2610   32.4700 C   0  0  0  0  0  0  0  0  0  0  0  0
   35.7190   20.7590   33.7130 C   0  0  0  0  0  0  0  0  0  0  0  0
   36.3700   21.1690   34.8430 N   0  0  0  0  0  0  0  0  0  0  0  0
   37.3990   22.0130   34.8140 C   0  0  0  0  0  0  0  0  0  0  0  0
   37.8360   22.4980   33.6290 N   0  0  0  0  0  0  0  0  0  0  0  0
   35.6580   20.9370   31.5800 H   0  0  0  0  0  0  0  0  0  0  0  0
   34.8830   20.0760   33.7140 H   0  0  0  0  0  0  0  0  0  0  0  0
   38.0670   22.4270   36.0440 C   0  0  0  0  0  0  0  0  0  0  0  0
   39.4240   22.2400   36.2000 C   0  0  0  0  0  3  0  0  0  0  0  0
   40.0200   22.6460   37.3810 C   0  0  0  0  0  0  0  0  0  0  0  0
   41.0890   22.4690   37.4350 H   0  0  0  0  0  0  0  0  0  0  0  0
   39.2970   23.2130   38.3640 N   0  0  0  0  0  0  0  0  0  0  0  0
   37.9630   23.3850   38.1820 C   0  0  0  0  0  3  0  0  0  0  0  0
   37.3700   22.9930   37.0360 N   0  0  0  0  0  0  0  0  0  0  0  0
  1 17  1  6  0  0  0
  1 13  1  0  0  0  0
  2  1  1  0  0  0  0
  2  9  1  0  0  0  0
  3  2  1  0  0  0  0
  4  5  2  0  0  0  0
  4  3  1  0  0  0  0
  6 11  1  6  0  0  0
  6  7  1  0  0  0  0
  6 22  1  0  0  0  0
  6  4  1  0  0  0  0
  7 12  1  6  0  0  0
  7  3  1  0  0  0  0
  7  8  1  0  0  0  0
  8  1  1  0  0  0  0
 10  2  1  0  0  0  0
 13 16  1  0  0  0  0
 13 15  1  0  0  0  0
 13 14  1  0  0  0  0
 17 20  1  0  0  0  0
 18 17  1  0  0  0  0
 19 17  1  0  0  0  0
 20 21  1  0  0  0  0
 22 24  1  0  0  0  0
 23 22  2  0  0  0  0
 24 29  1  0  0  0  0
 25 24  2  0  0  0  0
 25 26  1  0  0  0  0
 26 31  1  0  0  0  0
 26 27  2  0  0  0  0
 28 27  1  0  0  0  0
 28 32  1  0  0  0  0
 29 28  2  0  0  0  0
 30 25  1  0  0  0  0
 32 33  2  0  0  0  0
 32 38  1  0  0  0  0
 33 34  1  0  0  0  0
 34 35  1  0  0  0  0
 34 36  2  0  0  0  0
 37 36  1  0  0  0  0
 38 37  2  0  0  0  0
M  END
>  <minimizedAffinity>
-5.41209793

$$$$

 OpenBabel03262522083D

 38 41  0  0  1  0  0  0  0  0999 V2000
   36.9920   26.5860   31.4740 C   0  0  2  0  0  0  0  0  0  0  0  0
   38.4160   26.5920   31.0400 C   0  0  0  0  0  0  0  0  0  0  0  0
   39.2720   26.3530   32.1980 N   0  0  0  0  0  0  0  0  0  0  0  0
   40.2420   25.8610   33.1440 C   0  0  0  0  0  0  0  0  0  0  0  0
   41.2000   25.0720   33.1180 O   0  0  0  0  0  0  0  0  0  0  0  0
   39.7340   26.6210   34.2510 C   0  0  1  0  0  0  0  0  0  0  0  0
   38.9180   27.3380   33.1800 C   0  0  2  0  0  0  0  0  0  0  0  0
   37.1320   27.0730   33.2500 S   0  0  0  0  0  0  0  0  0  0  0  0
   38.5690   25.7460   30.3360 H   0  0  0  0  0  0  0  0  0  0  0  0
   38.7080   27.5140   30.5010 H   0  0  0  0  0  0  0  0  0  0  0  0
   40.4130   27.3950   34.6720 H   0  0  0  0  0  0  0  0  0  0  0  0
   39.2110   28.3750   32.9570 H   0  0  0  0  0  0  0  0  0  0  0  0
   36.2400   25.3170   31.2680 C   0  0  0  0  0  0  0  0  0  0  0  0
   35.6810   25.3100   30.3240 H   0  0  0  0  0  0  0  0  0  0  0  0
   36.9630   24.4680   31.3560 H   0  0  0  0  0  0  0  0  0  0  0  0
   35.4590   25.2070   32.0770 H   0  0  0  0  0  0  0  0  0  0  0  0
   36.2820   27.7840   30.8140 C   0  0  0  0  0  0  0  0  0  0  0  0
   36.6220   28.7420   31.2560 H   0  0  0  0  0  0  0  0  0  0  0  0
   35.1940   27.6870   30.8930 H   0  0  0  0  0  0  0  0  0  0  0  0
   36.6060   27.7960   29.4560 O   0  0  0  0  0  0  0  0  0  0  0  0
   37.4420   27.3300   29.2460 H   0  0  0  0  0  0  0  0  0  0  0  0
   38.9560   25.8880   35.2670 C   0  0  0  0  0  0  0  0  0  0  0  0
   38.4010   26.6530   36.1220 O   0  0  0  0  0  0  0  0  0  0  0  0
   38.8190   24.4660   35.3080 C   0  0  0  0  0  0  0  0  0  0  0  0
   39.5060   23.7660   36.2720 C   0  0  0  0  0  0  0  0  0  0  0  0
   39.3680   22.3600   36.2980 C   0  0  0  0  0  0  0  0  0  0  0  0
   38.5600   21.7790   35.3610 N   0  0  0  0  0  0  0  0  0  0  0  0
   37.9070   22.4810   34.4380 C   0  0  0  0  0  0  0  0  0  0  0  0
   38.0340   23.8280   34.4070 N   0  0  0  0  0  0  0  0  0  0  0  0
   40.1420   24.2240   37.0100 H   0  0  0  0  0  0  0  0  0  0  0  0
   39.9060   21.8080   37.0540 H   0  0  0  0  0  0  0  0  0  0  0  0
   37.0530   21.8230   33.4550 C   0  0  0  0  0  0  0  0  0  0  0  0
   36.0490   20.9690   33.8600 C   0  0  0  0  0  3  0  0  0  0  0  0
   35.2610   20.3630   32.8970 C   0  0  0  0  0  0  0  0  0  0  0  0
   34.4910   19.7060   33.2860 H   0  0  0  0  0  0  0  0  0  0  0  0
   35.4640   20.5970   31.5870 N   0  0  0  0  0  0  0  0  0  0  0  0
   36.4610   21.4420   31.2180 C   0  0  0  0  0  3  0  0  0  0  0  0
   37.2350   22.0380   32.1470 N   0  0  0  0  0  0  0  0  0  0  0  0
  1 17  1  6  0  0  0
  1  8  1  0  0  0  0
  2  1  1  0  0  0  0
  2  3  1  0  0  0  0
  3  4  1  0  0  0  0
  3  7  1  0  0  0  0
  4  6  1  0  0  0  0
  5  4  2  0  0  0  0
  6 11  1  1  0  0  0
  6 22  1  0  0  0  0
  7 12  1  6  0  0  0
  7  8  1  0  0  0  0
  7  6  1  0  0  0  0
  9  2  1  0  0  0  0
 10  2  1  0  0  0  0
 13 15  1  0  0  0  0
 13  1  1  0  0  0  0
 13 16  1  0  0  0  0
 14 13  1  0  0  0  0
 17 19  1  0  0  0  0
 17 18  1  0  0  0  0
 20 17  1  0  0  0  0
 21 20  1  0  0  0  0
 22 24  1  0  0  0  0
 22 23  2  0  0  0  0
 24 25  1  0  0  0  0
 25 26  2  0  0  0  0
 25 30  1  0  0  0  0
 26 31  1  0  0  0  0
 27 26  1  0  0  0  0
 28 27  2  0  0  0  0
 29 28  1  0  0  0  0
 29 24  2  0  0  0  0
 32 33  1  0  0  0  0
 32 28  1  0  0  0  0
 34 35  1  0  0  0  0
 34 33  2  0  0  0  0
 36 34  1  0  0  0  0
 37 36  2  0  0  0  0
 37 38  1  0  0  0  0
 38 32  2  0  0  0  0
M  END
>  <minimizedAffinity>
-5.37302446

$$$$

 OpenBabel03262522083D

 38 41  0  0  1  0  0  0  0  0999 V2000
   39.6020   26.5630   31.3390 C   0  0  2  0  0  0  0  0  0  0  0  0
   38.2510   27.1870   31.3120 C   0  0  0  0  0  0  0  0  0  0  0  0
   37.6720   27.1380   32.6520 N   0  0  0  0  0  0  0  0  0  0  0  0
   37.0670   27.4300   33.9260 C   0  0  0  0  0  0  0  0  0  0  0  0
   36.4900   28.4000   34.4450 O   0  0  0  0  0  0  0  0  0  0  0  0
   37.3470   26.1420   34.4970 C   0  0  1  0  0  0  0  0  0  0  0  0
   37.7130   25.7640   33.0660 C   0  0  2  0  0  0  0  0  0  0  0  0
   39.4600   25.4070   32.7730 S   0  0  0  0  0  0  0  0  0  0  0  0
   38.3690   28.2600   31.0440 H   0  0  0  0  0  0  0  0  0  0  0  0
   37.5730   26.7400   30.5600 H   0  0  0  0  0  0  0  0  0  0  0  0
   36.4670   25.5130   34.7540 H   0  0  0  0  0  0  0  0  0  0  0  0
   37.0220   25.0800   32.5510 H   0  0  0  0  0  0  0  0  0  0  0  0
   40.7620   27.4910   31.4430 C   0  0  0  0  0  0  0  0  0  0  0  0
   41.1840   27.7440   30.4630 H   0  0  0  0  0  0  0  0  0  0  0  0
   40.4360   28.3880   32.0250 H   0  0  0  0  0  0  0  0  0  0  0  0
   41.6000   26.9850   32.0060 H   0  0  0  0  0  0  0  0  0  0  0  0
   39.7250   25.6290   30.1190 C   0  0  0  0  0  0  0  0  0  0  0  0
   40.2290   24.6800   30.3940 H   0  0  0  0  0  0  0  0  0  0  0  0
   40.2550   26.1230   29.2990 H   0  0  0  0  0  0  0  0  0  0  0  0
   38.4410   25.3210   29.6670 O   0  0  0  0  0  0  0  0  0  0  0  0
   37.7470   25.4200   30.3520 H   0  0  0  0  0  0  0  0  0  0  0  0
   38.4440   26.0690   35.4810 C   0  0  0  0  0  0  0  0  0  0  0  0
   39.1350   27.1380   35.5430 O   0  0  0  0  0  0  0  0  0  0  0  0
   38.7210   24.9280   36.2960 C   0  0  0  0  0  0  0  0  0  0  0  0
   37.8130   24.5780   37.2670 C   0  0  0  0  0  0  0  0  0  0  0  0
   38.1000   23.4520   38.0720 C   0  0  0  0  0  0  0  0  0  0  0  0
   39.2660   22.7780   37.8360 N   0  0  0  0  0  0  0  0  0  0  0  0
   40.1280   23.1400   36.8880 C   0  0  0  0  0  0  0  0  0  0  0  0
   39.8600   24.2170   36.1140 N   0  0  0  0  0  0  0  0  0  0  0  0
   36.8950   25.1080   37.4530 H   0  0  0  0  0  0  0  0  0  0  0  0
   37.3890   23.1740   38.8340 H   0  0  0  0  0  0  0  0  0  0  0  0
   41.3620   22.3940   36.6680 C   0  0  0  0  0  0  0  0  0  0  0  0
   42.3400   22.8890   35.8310 C   0  0  0  0  0  3  0  0  0  0  0  0
   43.4960   22.1520   35.6480 C   0  0  0  0  0  0  0  0  0  0  0  0
   44.2210   22.6010   34.9770 H   0  0  0  0  0  0  0  0  0  0  0  0
   43.6720   20.9710   36.2700 N   0  0  0  0  0  0  0  0  0  0  0  0
   42.6920   20.5090   37.0890 C   0  0  0  0  0  3  0  0  0  0  0  0
   41.5610   21.2180   37.2760 N   0  0  0  0  0  0  0  0  0  0  0  0
  1 17  1  6  0  0  0
  1 13  1  0  0  0  0
  1  8  1  0  0  0  0
  2  1  1  0  0  0  0
  2  3  1  0  0  0  0
  3  7  1  0  0  0  0
  3  4  1  0  0  0  0
  4  5  2  0  0  0  0
  4  6  1  0  0  0  0
  6 11  1  1  0  0  0
  6 22  1  0  0  0  0
  7 12  1  6  0  0  0
  7  6  1  0  0  0  0
  8  7  1  0  0  0  0
  9  2  1  0  0  0  0
 10  2  1  0  0  0  0
 13 16  1  0  0  0  0
 13 15  1  0  0  0  0
 14 13  1  0  0  0  0
 17 18  1  0  0  0  0
 19 17  1  0  0  0  0
 20 17  1  0  0  0  0
 20 21  1  0  0  0  0
 22 23  2  0  0  0  0
 22 24  1  0  0  0  0
 24 25  1  0  0  0  0
 25 30  1  0  0  0  0
 25 26  2  0  0  0  0
 26 31  1  0  0  0  0
 27 26  1  0  0  0  0
 28 27  2  0  0  0  0
 29 24  2  0  0  0  0
 29 28  1  0  0  0  0
 32 28  1  0  0  0  0
 32 38  1  0  0  0  0
 33 32  2  0  0  0  0
 34 33  1  0  0  0  0
 34 36  2  0  0  0  0
 35 34  1  0  0  0  0
 36 37  1  0  0  0  0
 37 38  2  0  0  0  0
M  END
>  <minimizedAffinity>
-5.2223711

$$$$

 OpenBabel03262522083D

 38 41  0  0  1  0  0  0  0  0999 V2000
   41.3510   25.6700   33.5120 C   0  0  2  0  0  0  0  0  0  0  0  0
   41.1170   25.2440   34.9190 C   0  0  0  0  0  0  0  0  0  0  0  0
   39.7390   25.5520   35.2910 N   0  0  0  0  0  0  0  0  0  0  0  0
   38.3700   25.5200   35.7400 C   0  0  0  0  0  0  0  0  0  0  0  0
   37.6450   24.7180   36.3510 O   0  0  0  0  0  0  0  0  0  0  0  0
   38.0390   26.8190   35.2260 C   0  0  1  0  0  0  0  0  0  0  0  0
   39.5450   26.9490   35.0240 C   0  0  2  0  0  0  0  0  0  0  0  0
   40.1010   27.0140   33.3060 S   0  0  0  0  0  0  0  0  0  0  0  0
   41.2340   24.1400   34.9720 H   0  0  0  0  0  0  0  0  0  0  0  0
   41.8390   25.6780   35.6370 H   0  0  0  0  0  0  0  0  0  0  0  0
   37.7730   27.5950   35.9780 H   0  0  0  0  0  0  0  0  0  0  0  0
   40.0680   27.6490   35.6920 H   0  0  0  0  0  0  0  0  0  0  0  0
   41.2520   24.6090   32.4710 C   0  0  0  0  0  0  0  0  0  0  0  0
   42.2280   24.1700   32.2270 H   0  0  0  0  0  0  0  0  0  0  0  0
   40.5070   23.8520   32.8180 H   0  0  0  0  0  0  0  0  0  0  0  0
   40.8800   25.0620   31.5060 H   0  0  0  0  0  0  0  0  0  0  0  0
   42.7040   26.4060   33.4500 C   0  0  0  0  0  0  0  0  0  0  0  0
   42.5950   27.3980   32.9650 H   0  0  0  0  0  0  0  0  0  0  0  0
   43.4550   25.8030   32.9320 H   0  0  0  0  0  0  0  0  0  0  0  0
   43.1550   26.6120   34.7550 O   0  0  0  0  0  0  0  0  0  0  0  0
   42.4400   26.6040   35.4250 H   0  0  0  0  0  0  0  0  0  0  0  0
   37.2200   26.8670   34.0000 C   0  0  0  0  0  0  0  0  0  0  0  0
   37.0140   25.7180   33.4890 O   0  0  0  0  0  0  0  0  0  0  0  0
   36.6950   28.0670   33.4270 C   0  0  0  0  0  0  0  0  0  0  0  0
   35.8160   28.8190   34.1680 C   0  0  0  0  0  0  0  0  0  0  0  0
   35.2980   30.0000   33.5880 C   0  0  0  0  0  0  0  0  0  0  0  0
   35.7040   30.3230   32.3230 N   0  0  0  0  0  0  0  0  0  0  0  0
   36.5570   29.5750   31.6280 C   0  0  0  0  0  0  0  0  0  0  0  0
   37.0570   28.4420   32.1760 N   0  0  0  0  0  0  0  0  0  0  0  0
   35.4960   28.5660   35.1640 H   0  0  0  0  0  0  0  0  0  0  0  0
   34.6080   30.5940   34.1680 H   0  0  0  0  0  0  0  0  0  0  0  0
   36.9660   29.9540   30.2800 C   0  0  0  0  0  0  0  0  0  0  0  0
   36.7590   31.2370   29.8200 C   0  0  0  0  0  3  0  0  0  0  0  0
   37.1590   31.5570   28.5360 C   0  0  0  0  0  0  0  0  0  0  0  0
   36.9670   32.5830   28.2410 H   0  0  0  0  0  0  0  0  0  0  0  0
   37.7400   30.6390   27.7410 N   0  0  0  0  0  0  0  0  0  0  0  0
   37.9310   29.3830   28.2200 C   0  0  0  0  0  3  0  0  0  0  0  0
   37.5450   29.0590   29.4700 N   0  0  0  0  0  0  0  0  0  0  0  0
  1 13  1  6  0  0  0
  1  2  1  0  0  0  0
  2  9  1  0  0  0  0
  2  3  1  0  0  0  0
  2 10  1  0  0  0  0
  3  4  1  0  0  0  0
  4  5  2  0  0  0  0
  6  4  1  0  0  0  0
  6 11  1  1  0  0  0
  7  6  1  0  0  0  0
  7  3  1  0  0  0  0
  7 12  1  1  0  0  0
  8  1  1  0  0  0  0
  8  7  1  0  0  0  0
 13 15  1  0  0  0  0
 14 13  1  0  0  0  0
 16 13  1  0  0  0  0
 17  1  1  0  0  0  0
 17 20  1  0  0  0  0
 18 17  1  0  0  0  0
 19 17  1  0  0  0  0
 20 21  1  0  0  0  0
 22  6  1  0  0  0  0
 23 22  2  0  0  0  0
 24 22  1  0  0  0  0
 24 25  1  0  0  0  0
 25 30  1  0  0  0  0
 26 31  1  0  0  0  0
 26 25  2  0  0  0  0
 27 26  1  0  0  0  0
 28 29  1  0  0  0  0
 28 27  2  0  0  0  0
 29 24  2  0  0  0  0
 32 28  1  0  0  0  0
 33 32  1  0  0  0  0
 34 33  2  0  0  0  0
 35 34  1  0  0  0  0
 36 37  2  0  0  0  0
 36 34  1  0  0  0  0
 37 38  1  0  0  0  0
 38 32  2  0  0  0  0
M  END
>  <minimizedAffinity>
-5.07834911

$$$$

 OpenBabel03262522083D

 38 41  0  0  1  0  0  0  0  0999 V2000
   38.3740   23.2570   36.2980 C   0  0  2  0  0  0  0  0  0  0  0  0
   39.7980   22.8450   36.1670 C   0  0  0  0  0  0  0  0  0  0  0  0
   40.5130   23.8370   35.3690 N   0  0  0  0  0  0  0  0  0  0  0  0
   41.4290   24.8230   34.8540 C   0  0  0  0  0  0  0  0  0  0  0  0
   42.5470   25.2610   35.1720 O   0  0  0  0  0  0  0  0  0  0  0  0
   40.5960   25.2040   33.7490 C   0  0  1  0  0  0  0  0  0  0  0  0
   39.7890   23.9700   34.1360 C   0  0  2  0  0  0  0  0  0  0  0  0
   38.1340   24.2890   34.7850 S   0  0  0  0  0  0  0  0  0  0  0  0
   40.2550   22.8470   37.1810 H   0  0  0  0  0  0  0  0  0  0  0  0
   39.9270   21.8250   35.7590 H   0  0  0  0  0  0  0  0  0  0  0  0
   40.9950   24.9900   32.7320 H   0  0  0  0  0  0  0  0  0  0  0  0
   39.8440   23.1150   33.4450 H   0  0  0  0  0  0  0  0  0  0  0  0
   37.9970   23.9590   37.5560 C   0  0  0  0  0  0  0  0  0  0  0  0
   37.5980   23.2730   38.3140 H   0  0  0  0  0  0  0  0  0  0  0  0
   38.8870   24.5340   37.9110 H   0  0  0  0  0  0  0  0  0  0  0  0
   37.1600   24.6880   37.3450 H   0  0  0  0  0  0  0  0  0  0  0  0
   37.4900   22.0190   36.0480 C   0  0  0  0  0  0  0  0  0  0  0  0
   38.1030   21.0960   35.9920 H   0  0  0  0  0  0  0  0  0  0  0  0
   36.8920   22.1400   35.1400 H   0  0  0  0  0  0  0  0  0  0  0  0
   36.6060   21.8840   37.1200 O   0  0  0  0  0  0  0  0  0  0  0  0
   36.9150   22.3170   37.9430 H   0  0  0  0  0  0  0  0  0  0  0  0
   39.8870   26.4930   33.8550 C   0  0  0  0  0  0  0  0  0  0  0  0
   40.1690   27.1340   34.9200 O   0  0  0  0  0  0  0  0  0  0  0  0
   38.9770   26.9970   32.8740 C   0  0  0  0  0  0  0  0  0  0  0  0
   39.2410   26.7550   31.5470 C   0  0  0  0  0  0  0  0  0  0  0  0
   38.3370   27.2630   30.5860 C   0  0  0  0  0  0  0  0  0  0  0  0
   37.2540   27.9660   31.0350 N   0  0  0  0  0  0  0  0  0  0  0  0
   37.0240   28.1850   32.3270 C   0  0  0  0  0  0  0  0  0  0  0  0
   37.8840   27.7020   33.2540 N   0  0  0  0  0  0  0  0  0  0  0  0
   40.0930   26.2010   31.1930 H   0  0  0  0  0  0  0  0  0  0  0  0
   38.5410   27.0740   29.5430 H   0  0  0  0  0  0  0  0  0  0  0  0
   35.8550   28.9410   32.7670 C   0  0  0  0  0  0  0  0  0  0  0  0
   35.5280   29.0090   34.1040 C   0  0  0  0  0  3  0  0  0  0  0  0
   34.4120   29.7360   34.4800 C   0  0  0  0  0  0  0  0  0  0  0  0
   34.2150   29.7470   35.5470 H   0  0  0  0  0  0  0  0  0  0  0  0
   33.6540   30.3660   33.5650 N   0  0  0  0  0  0  0  0  0  0  0  0
   34.0000   30.2820   32.2550 C   0  0  0  0  0  3  0  0  0  0  0  0
   35.0860   29.5770   31.8760 N   0  0  0  0  0  0  0  0  0  0  0  0
  1 17  1  6  0  0  0
  1 13  1  0  0  0  0
  2  1  1  0  0  0  0
  2  9  1  0  0  0  0
  3  2  1  0  0  0  0
  4  5  2  0  0  0  0
  4  3  1  0  0  0  0
  6 11  1  6  0  0  0
  6 22  1  0  0  0  0
  6  7  1  0  0  0  0
  6  4  1  0  0  0  0
  7 12  1  6  0  0  0
  7  8  1  0  0  0  0
  7  3  1  0  0  0  0
  8  1  1  0  0  0  0
 10  2  1  0  0  0  0
 13 15  1  0  0  0  0
 13 14  1  0  0  0  0
 16 13  1  0  0  0  0
 17 20  1  0  0  0  0
 18 17  1  0  0  0  0
 19 17  1  0  0  0  0
 20 21  1  0  0  0  0
 22 23  2  0  0  0  0
 24 29  1  0  0  0  0
 24 22  1  0  0  0  0
 25 24  2  0  0  0  0
 26 27  2  0  0  0  0
 26 25  1  0  0  0  0
 27 28  1  0  0  0  0
 28 32  1  0  0  0  0
 28 29  2  0  0  0  0
 30 25  1  0  0  0  0
 31 26  1  0  0  0  0
 32 33  1  0  0  0  0
 33 34  2  0  0  0  0
 34 35  1  0  0  0  0
 36 34  1  0  0  0  0
 37 36  2  0  0  0  0
 38 37  1  0  0  0  0
 38 32  2  0  0  0  0
M  END
>  <minimizedAffinity>
-5.06534195

$$$$

 OpenBabel03262522083D

 38 41  0  0  1  0  0  0  0  0999 V2000
   38.5940   23.8600   36.8170 C   0  0  2  0  0  0  0  0  0  0  0  0
   40.0330   23.6490   36.5010 C   0  0  0  0  0  0  0  0  0  0  0  0
   40.1520   23.0780   35.1630 N   0  0  0  0  0  0  0  0  0  0  0  0
   40.4790   22.7850   33.7900 C   0  0  0  0  0  0  0  0  0  0  0  0
   41.3090   23.1900   32.9590 O   0  0  0  0  0  0  0  0  0  0  0  0
   39.4640   21.7820   33.6310 C   0  0  1  0  0  0  0  0  0  0  0  0
   39.3330   21.9000   35.1450 C   0  0  2  0  0  0  0  0  0  0  0  0
   37.7780   22.5980   35.7440 S   0  0  0  0  0  0  0  0  0  0  0  0
   40.5340   24.6410   36.4820 H   0  0  0  0  0  0  0  0  0  0  0  0
   40.5640   23.0360   37.2540 H   0  0  0  0  0  0  0  0  0  0  0  0
   39.8190   20.7450   33.4440 H   0  0  0  0  0  0  0  0  0  0  0  0
   39.6980   21.0450   35.7340 H   0  0  0  0  0  0  0  0  0  0  0  0
   38.0640   25.2380   36.6150 C   0  0  0  0  0  0  0  0  0  0  0  0
   38.0860   25.8340   37.5350 H   0  0  0  0  0  0  0  0  0  0  0  0
   38.6330   25.7070   35.7750 H   0  0  0  0  0  0  0  0  0  0  0  0
   36.9740   25.1820   36.3220 H   0  0  0  0  0  0  0  0  0  0  0  0
   38.3360   23.3540   38.2500 C   0  0  0  0  0  0  0  0  0  0  0  0
   37.4200   22.7310   38.2930 H   0  0  0  0  0  0  0  0  0  0  0  0
   38.2680   24.1890   38.9550 H   0  0  0  0  0  0  0  0  0  0  0  0
   39.4170   22.5610   38.6400 O   0  0  0  0  0  0  0  0  0  0  0  0
   39.9190   22.1820   37.8880 H   0  0  0  0  0  0  0  0  0  0  0  0
   38.2680   22.1560   32.8520 C   0  0  0  0  0  0  0  0  0  0  0  0
   37.3310   21.2950   32.9270 O   0  0  0  0  0  0  0  0  0  0  0  0
   38.1470   23.3580   32.0880 C   0  0  0  0  0  0  0  0  0  0  0  0
   38.6600   23.3810   30.8130 C   0  0  0  0  0  0  0  0  0  0  0  0
   38.5390   24.5770   30.0680 C   0  0  0  0  0  0  0  0  0  0  0  0
   37.9200   25.6400   30.6630 N   0  0  0  0  0  0  0  0  0  0  0  0
   37.4320   25.5900   31.9000 C   0  0  0  0  0  0  0  0  0  0  0  0
   37.5440   24.4480   32.6190 N   0  0  0  0  0  0  0  0  0  0  0  0
   39.1480   22.5430   30.3440 H   0  0  0  0  0  0  0  0  0  0  0  0
   38.9410   24.5970   29.0670 H   0  0  0  0  0  0  0  0  0  0  0  0
   36.7770   26.7480   32.5000 C   0  0  0  0  0  0  0  0  0  0  0  0
   37.0800   27.1350   33.7880 C   0  0  0  0  0  3  0  0  0  0  0  0
   36.4380   28.2380   34.3200 C   0  0  0  0  0  0  0  0  0  0  0  0
   36.7250   28.4860   35.3370 H   0  0  0  0  0  0  0  0  0  0  0  0
   35.5310   28.9260   33.6020 N   0  0  0  0  0  0  0  0  0  0  0  0
   35.2520   28.5220   32.3370 C   0  0  0  0  0  3  0  0  0  0  0  0
   35.8720   27.4480   31.8060 N   0  0  0  0  0  0  0  0  0  0  0  0
  1 13  1  6  0  0  0
  1 17  1  0  0  0  0
  2  1  1  0  0  0  0
  2 10  1  0  0  0  0
  3  2  1  0  0  0  0
  4  3  1  0  0  0  0
  5  4  2  0  0  0  0
  6 11  1  6  0  0  0
  6  4  1  0  0  0  0
  6  7  1  0  0  0  0
  7  3  1  0  0  0  0
  7 12  1  1  0  0  0
  7  8  1  0  0  0  0
  8  1  1  0  0  0  0
  9  2  1  0  0  0  0
 13 14  1  0  0  0  0
 15 13  1  0  0  0  0
 16 13  1  0  0  0  0
 17 18  1  0  0  0  0
 17 20  1  0  0  0  0
 17 19  1  0  0  0  0
 21 20  1  0  0  0  0
 22 23  2  0  0  0  0
 22  6  1  0  0  0  0
 24 29  1  0  0  0  0
 24 22  1  0  0  0  0
 25 24  2  0  0  0  0
 26 27  2  0  0  0  0
 26 25  1  0  0  0  0
 27 28  1  0  0  0  0
 28 32  1  0  0  0  0
 28 29  2  0  0  0  0
 30 25  1  0  0  0  0
 31 26  1  0  0  0  0
 32 33  1  0  0  0  0
 33 34  2  0  0  0  0
 34 35  1  0  0  0  0
 36 34  1  0  0  0  0
 37 36  2  0  0  0  0
 38 37  1  0  0  0  0
 38 32  2  0  0  0  0
M  END
>  <minimizedAffinity>
-5.06519699

$$$$
