
 OpenBabel03272504493D

 25 27  0  0  0  0  0  0  0  0999 V2000
   37.2580   26.0370   33.1720 C   0  0  0  0  0  0  0  0  0  0  0  0
   36.9520   27.3420   33.5510 C   0  0  0  0  0  0  0  0  0  0  0  0
   37.2360   27.6960   34.8630 C   0  0  0  0  0  0  0  0  0  0  0  0
   37.7910   26.7740   35.7010 N   0  0  0  0  0  0  0  0  0  0  0  0
   38.0710   25.5210   35.2900 C   0  0  0  0  0  0  0  0  0  0  0  0
   37.7990   25.1600   34.0180 N   0  0  0  0  0  0  0  0  0  0  0  0
   37.0390   25.7590   32.1600 H   0  0  0  0  0  0  0  0  0  0  0  0
   37.0210   28.6940   35.2140 H   0  0  0  0  0  0  0  0  0  0  0  0
   38.6590   24.5610   36.2030 C   0  0  0  0  0  0  0  0  0  0  0  0
   38.1080   24.3490   37.4430 C   0  0  0  0  0  0  0  0  0  0  0  0
   38.6410   23.4420   38.3410 C   0  0  0  0  0  0  0  0  0  0  0  0
   39.7630   22.7660   37.9090 C   0  0  0  0  0  0  0  0  0  0  0  0
   40.3480   22.9560   36.6640 C   0  0  0  0  0  0  0  0  0  0  0  0
   39.7610   23.8680   35.8380 N   0  0  0  0  0  0  0  0  0  0  0  0
   37.2140   24.9120   37.7410 H   0  0  0  0  0  0  0  0  0  0  0  0
   38.2410   23.2470   39.3170 H   0  0  0  0  0  0  0  0  0  0  0  0
   40.2200   22.0420   38.5790 H   0  0  0  0  0  0  0  0  0  0  0  0
   41.2130   22.4120   36.3730 H   0  0  0  0  0  0  0  0  0  0  0  0
   36.3600   28.3540   32.6850 C   0  0  0  0  0  0  0  0  0  0  0  0
   36.8930   28.6810   31.4590 C   0  0  0  0  0  3  0  0  0  0  0  0
   36.3500   29.6380   30.6200 C   0  0  0  0  0  0  0  0  0  0  0  0
   36.7550   29.9040   29.6570 H   0  0  0  0  0  0  0  0  0  0  0  0
   35.2460   30.2870   31.0180 N   0  0  0  0  0  0  0  0  0  0  0  0
   34.7190   29.9640   32.2290 C   0  0  0  0  0  3  0  0  0  0  0  0
   35.2640   29.0300   33.0270 N   0  0  0  0  0  0  0  0  0  0  0  0
  1  2  2  0  0  0  0
  1  6  1  0  0  0  0
  2  3  1  0  0  0  0
  3  8  1  0  0  0  0
  3  4  2  0  0  0  0
  5  4  1  0  0  0  0
  5  9  1  0  0  0  0
  6  5  2  0  0  0  0
  7  1  1  0  0  0  0
  9 10  1  0  0  0  0
 10 15  1  0  0  0  0
 10 11  2  0  0  0  0
 11 16  1  0  0  0  0
 12 11  1  0  0  0  0
 12 17  1  0  0  0  0
 13 12  2  0  0  0  0
 14  9  2  0  0  0  0
 14 13  1  0  0  0  0
 18 13  1  0  0  0  0
 19 25  1  0  0  0  0
 19  2  1  0  0  0  0
 20 19  2  0  0  0  0
 21 23  2  0  0  0  0
 21 20  1  0  0  0  0
 22 21  1  0  0  0  0
 23 24  1  0  0  0  0
 24 25  2  0  0  0  0
M  END
>  <minimizedAffinity>
-5.12800741

$$$$

 OpenBabel03272504493D

 25 27  0  0  0  0  0  0  0  0999 V2000
   37.3350   27.7620   35.0480 C   0  0  0  0  0  0  0  0  0  0  0  0
   36.9650   27.4960   33.7320 C   0  0  0  0  0  0  0  0  0  0  0  0
   37.1970   26.2100   33.2620 C   0  0  0  0  0  0  0  0  0  0  0  0
   37.7620   25.2860   34.0920 N   0  0  0  0  0  0  0  0  0  0  0  0
   38.1040   25.5880   35.3600 C   0  0  0  0  0  0  0  0  0  0  0  0
   37.8860   26.8330   35.8310 N   0  0  0  0  0  0  0  0  0  0  0  0
   37.1570   28.7540   35.4140 H   0  0  0  0  0  0  0  0  0  0  0  0
   36.9310   25.9460   32.2510 H   0  0  0  0  0  0  0  0  0  0  0  0
   38.7040   24.5860   36.2190 C   0  0  0  0  0  0  0  0  0  0  0  0
   38.1790   24.3250   37.4600 C   0  0  0  0  0  0  0  0  0  0  0  0
   38.7230   23.3760   38.3060 C   0  0  0  0  0  0  0  0  0  0  0  0
   39.8290   22.7100   37.8210 C   0  0  0  0  0  0  0  0  0  0  0  0
   40.3880   22.9480   36.5720 C   0  0  0  0  0  0  0  0  0  0  0  0
   39.7910   23.8990   35.7990 N   0  0  0  0  0  0  0  0  0  0  0  0
   37.2970   24.8830   37.8020 H   0  0  0  0  0  0  0  0  0  0  0  0
   38.3440   23.1430   39.2820 H   0  0  0  0  0  0  0  0  0  0  0  0
   40.2940   21.9540   38.4490 H   0  0  0  0  0  0  0  0  0  0  0  0
   41.2410   22.4100   36.2380 H   0  0  0  0  0  0  0  0  0  0  0  0
   36.3590   28.4560   32.8170 C   0  0  0  0  0  0  0  0  0  0  0  0
   36.8510   28.6830   31.5520 C   0  0  0  0  0  3  0  0  0  0  0  0
   36.2950   29.5880   30.6660 C   0  0  0  0  0  0  0  0  0  0  0  0
   36.6690   29.7760   29.6720 H   0  0  0  0  0  0  0  0  0  0  0  0
   35.2170   30.2860   31.0550 N   0  0  0  0  0  0  0  0  0  0  0  0
   34.7310   30.0610   32.3050 C   0  0  0  0  0  3  0  0  0  0  0  0
   35.2880   29.1760   33.1480 N   0  0  0  0  0  0  0  0  0  0  0  0
  1  7  1  0  0  0  0
  1  6  1  0  0  0  0
  2  1  2  0  0  0  0
  3  2  1  0  0  0  0
  3  4  2  0  0  0  0
  4  5  1  0  0  0  0
  5  6  2  0  0  0  0
  5  9  1  0  0  0  0
  8  3  1  0  0  0  0
  9 10  1  0  0  0  0
 10 15  1  0  0  0  0
 10 11  2  0  0  0  0
 11 16  1  0  0  0  0
 12 11  1  0  0  0  0
 12 17  1  0  0  0  0
 13 12  2  0  0  0  0
 14  9  2  0  0  0  0
 14 13  1  0  0  0  0
 18 13  1  0  0  0  0
 19 25  1  0  0  0  0
 19  2  1  0  0  0  0
 20 19  2  0  0  0  0
 21 23  2  0  0  0  0
 21 20  1  0  0  0  0
 22 21  1  0  0  0  0
 23 24  1  0  0  0  0
 24 25  2  0  0  0  0
M  END
>  <minimizedAffinity>
-5.09830236

$$$$

 OpenBabel03272504493D

 25 27  0  0  0  0  0  0  0  0999 V2000
   37.4230   27.6960   34.9350 C   0  0  0  0  0  0  0  0  0  0  0  0
   37.0880   27.4230   33.6120 C   0  0  0  0  0  0  0  0  0  0  0  0
   37.3360   26.1360   33.1550 C   0  0  0  0  0  0  0  0  0  0  0  0
   37.8820   25.2170   34.0030 N   0  0  0  0  0  0  0  0  0  0  0  0
   38.1900   25.5270   35.2790 C   0  0  0  0  0  0  0  0  0  0  0  0
   37.9560   26.7740   35.7370 N   0  0  0  0  0  0  0  0  0  0  0  0
   37.2330   28.6890   35.2910 H   0  0  0  0  0  0  0  0  0  0  0  0
   37.0970   25.8650   32.1380 H   0  0  0  0  0  0  0  0  0  0  0  0
   38.7710   24.5300   36.1570 C   0  0  0  0  0  0  0  0  0  0  0  0
   39.8740   23.8120   35.7660 C   0  0  0  0  0  0  0  0  0  0  0  0
   40.4550   22.8540   36.5760 C   0  0  0  0  0  0  0  0  0  0  0  0
   39.8530   22.6670   37.8040 C   0  0  0  0  0  0  0  0  0  0  0  0
   38.7370   23.3750   38.2320 C   0  0  0  0  0  0  0  0  0  0  0  0
   38.2250   24.3010   37.3730 N   0  0  0  0  0  0  0  0  0  0  0  0
   40.3160   23.9970   34.7780 H   0  0  0  0  0  0  0  0  0  0  0  0
   41.3150   22.2720   36.3090 H   0  0  0  0  0  0  0  0  0  0  0  0
   40.2730   21.9250   38.4780 H   0  0  0  0  0  0  0  0  0  0  0  0
   38.3060   23.1980   39.1870 H   0  0  0  0  0  0  0  0  0  0  0  0
   36.5030   28.3760   32.6760 C   0  0  0  0  0  0  0  0  0  0  0  0
   35.4100   29.1480   32.9940 C   0  0  0  0  0  3  0  0  0  0  0  0
   34.8370   30.0590   32.1240 C   0  0  0  0  0  0  0  0  0  0  0  0
   33.9810   30.6710   32.3600 H   0  0  0  0  0  0  0  0  0  0  0  0
   35.3710   30.2000   30.9020 N   0  0  0  0  0  0  0  0  0  0  0  0
   36.4520   29.4380   30.5870 C   0  0  0  0  0  3  0  0  0  0  0  0
   36.9920   28.5600   31.4500 N   0  0  0  0  0  0  0  0  0  0  0  0
  1  7  1  0  0  0  0
  1  6  1  0  0  0  0
  2  1  2  0  0  0  0
  3  2  1  0  0  0  0
  3  4  2  0  0  0  0
  4  5  1  0  0  0  0
  5  6  2  0  0  0  0
  5  9  1  0  0  0  0
  8  3  1  0  0  0  0
  9 14  1  0  0  0  0
 10  9  2  0  0  0  0
 10 11  1  0  0  0  0
 11 12  2  0  0  0  0
 12 13  1  0  0  0  0
 12 17  1  0  0  0  0
 13 18  1  0  0  0  0
 14 13  2  0  0  0  0
 15 10  1  0  0  0  0
 16 11  1  0  0  0  0
 19 20  1  0  0  0  0
 19  2  1  0  0  0  0
 21 22  1  0  0  0  0
 21 20  2  0  0  0  0
 23 21  1  0  0  0  0
 24 23  2  0  0  0  0
 24 25  1  0  0  0  0
 25 19  2  0  0  0  0
M  END
>  <minimizedAffinity>
-4.93897438

$$$$

 OpenBabel03272504493D

 25 27  0  0  0  0  0  0  0  0999 V2000
   37.8190   25.2810   33.8800 C   0  0  0  0  0  0  0  0  0  0  0  0
   38.1270   25.5220   35.2160 C   0  0  0  0  0  0  0  0  0  0  0  0
   37.8520   26.7930   35.7030 C   0  0  0  0  0  0  0  0  0  0  0  0
   37.3040   27.7250   34.8720 N   0  0  0  0  0  0  0  0  0  0  0  0
   37.0210   27.4460   33.5830 C   0  0  0  0  0  0  0  0  0  0  0  0
   37.2830   26.2160   33.0950 N   0  0  0  0  0  0  0  0  0  0  0  0
   38.0300   24.3010   33.5000 H   0  0  0  0  0  0  0  0  0  0  0  0
   38.0690   27.0390   36.7310 H   0  0  0  0  0  0  0  0  0  0  0  0
   36.4390   28.4570   32.7220 C   0  0  0  0  0  0  0  0  0  0  0  0
   36.9740   28.7100   31.4830 C   0  0  0  0  0  0  0  0  0  0  0  0
   36.4460   29.6670   30.6350 C   0  0  0  0  0  0  0  0  0  0  0  0
   35.3480   30.3490   31.1160 C   0  0  0  0  0  0  0  0  0  0  0  0
   34.7810   30.1200   32.3630 C   0  0  0  0  0  0  0  0  0  0  0  0
   35.3620   29.1600   33.1380 N   0  0  0  0  0  0  0  0  0  0  0  0
   37.8490   28.1410   31.1460 H   0  0  0  0  0  0  0  0  0  0  0  0
   36.8330   29.8950   29.6610 H   0  0  0  0  0  0  0  0  0  0  0  0
   34.8960   31.1110   30.4860 H   0  0  0  0  0  0  0  0  0  0  0  0
   33.9340   30.6690   32.6930 H   0  0  0  0  0  0  0  0  0  0  0  0
   38.7120   24.5540   36.1350 C   0  0  0  0  0  0  0  0  0  0  0  0
   38.1740   24.2900   37.3730 C   0  0  0  0  0  3  0  0  0  0  0  0
   38.7110   23.3760   38.2620 C   0  0  0  0  0  0  0  0  0  0  0  0
   38.2990   23.1590   39.2350 H   0  0  0  0  0  0  0  0  0  0  0  0
   39.8170   22.7080   37.9040 N   0  0  0  0  0  0  0  0  0  0  0  0
   40.3500   22.9680   36.6810 C   0  0  0  0  0  3  0  0  0  0  0  0
   39.8100   23.8610   35.8330 N   0  0  0  0  0  0  0  0  0  0  0  0
  1  2  1  0  0  0  0
  2  3  2  0  0  0  0
  2 19  1  0  0  0  0
  3  8  1  0  0  0  0
  4  3  1  0  0  0  0
  5  4  2  0  0  0  0
  6  5  1  0  0  0  0
  6  1  2  0  0  0  0
  7  1  1  0  0  0  0
  9 14  1  0  0  0  0
  9  5  1  0  0  0  0
 10  9  2  0  0  0  0
 11 12  2  0  0  0  0
 11 10  1  0  0  0  0
 12 13  1  0  0  0  0
 13 18  1  0  0  0  0
 13 14  2  0  0  0  0
 15 10  1  0  0  0  0
 16 11  1  0  0  0  0
 17 12  1  0  0  0  0
 19 20  1  0  0  0  0
 20 21  2  0  0  0  0
 21 22  1  0  0  0  0
 23 21  1  0  0  0  0
 24 23  2  0  0  0  0
 25 19  2  0  0  0  0
 25 24  1  0  0  0  0
M  END
>  <minimizedAffinity>
-4.91315174

$$$$

 OpenBabel03272504493D

 25 27  0  0  0  0  0  0  0  0999 V2000
   37.7300   25.2690   33.9530 C   0  0  0  0  0  0  0  0  0  0  0  0
   38.1070   25.5290   35.2680 C   0  0  0  0  0  0  0  0  0  0  0  0
   37.9090   26.8220   35.7330 C   0  0  0  0  0  0  0  0  0  0  0  0
   37.3650   27.7580   34.9020 N   0  0  0  0  0  0  0  0  0  0  0  0
   37.0140   27.4600   33.6350 C   0  0  0  0  0  0  0  0  0  0  0  0
   37.2010   26.2090   33.1680 N   0  0  0  0  0  0  0  0  0  0  0  0
   37.8820   24.2720   33.5900 H   0  0  0  0  0  0  0  0  0  0  0  0
   38.1820   27.0830   36.7440 H   0  0  0  0  0  0  0  0  0  0  0  0
   36.4380   28.4750   32.7740 C   0  0  0  0  0  0  0  0  0  0  0  0
   35.5590   29.4020   33.2790 C   0  0  0  0  0  0  0  0  0  0  0  0
   34.9900   30.3840   32.4880 C   0  0  0  0  0  0  0  0  0  0  0  0
   35.3640   30.3710   31.1610 C   0  0  0  0  0  0  0  0  0  0  0  0
   36.2500   29.4490   30.6160 C   0  0  0  0  0  0  0  0  0  0  0  0
   36.7650   28.5130   31.4630 N   0  0  0  0  0  0  0  0  0  0  0  0
   35.2920   29.3700   34.3430 H   0  0  0  0  0  0  0  0  0  0  0  0
   34.3010   31.1250   32.8430 H   0  0  0  0  0  0  0  0  0  0  0  0
   34.9440   31.1230   30.4980 H   0  0  0  0  0  0  0  0  0  0  0  0
   36.5100   29.4770   29.5870 H   0  0  0  0  0  0  0  0  0  0  0  0
   38.6900   24.5580   36.1850 C   0  0  0  0  0  0  0  0  0  0  0  0
   38.1620   24.3080   37.4310 C   0  0  0  0  0  3  0  0  0  0  0  0
   38.6970   23.3920   38.3190 C   0  0  0  0  0  0  0  0  0  0  0  0
   38.2940   23.1860   39.2980 H   0  0  0  0  0  0  0  0  0  0  0  0
   39.7910   22.7080   37.9520 N   0  0  0  0  0  0  0  0  0  0  0  0
   40.3130   22.9540   36.7210 C   0  0  0  0  0  3  0  0  0  0  0  0
   39.7750   23.8490   35.8750 N   0  0  0  0  0  0  0  0  0  0  0  0
  1  2  1  0  0  0  0
  2  3  2  0  0  0  0
  2 19  1  0  0  0  0
  3  8  1  0  0  0  0
  4  3  1  0  0  0  0
  5  4  2  0  0  0  0
  6  5  1  0  0  0  0
  6  1  2  0  0  0  0
  7  1  1  0  0  0  0
  9 10  1  0  0  0  0
  9  5  1  0  0  0  0
 10 15  1  0  0  0  0
 11 16  1  0  0  0  0
 11 10  2  0  0  0  0
 12 11  1  0  0  0  0
 13 12  2  0  0  0  0
 13 14  1  0  0  0  0
 14  9  2  0  0  0  0
 17 12  1  0  0  0  0
 18 13  1  0  0  0  0
 19 20  1  0  0  0  0
 20 21  2  0  0  0  0
 21 22  1  0  0  0  0
 23 21  1  0  0  0  0
 24 23  2  0  0  0  0
 25 19  2  0  0  0  0
 25 24  1  0  0  0  0
M  END
>  <minimizedAffinity>
-4.90688896

$$$$

 OpenBabel03272504493D

 25 27  0  0  0  0  0  0  0  0999 V2000
   38.6370   26.1470   32.8680 C   0  0  0  0  0  0  0  0  0  0  0  0
   37.7190   27.1910   32.9560 C   0  0  0  0  0  0  0  0  0  0  0  0
   37.0850   27.3670   34.1780 C   0  0  0  0  0  0  0  0  0  0  0  0
   37.3820   26.5300   35.2140 N   0  0  0  0  0  0  0  0  0  0  0  0
   38.2780   25.5320   35.0830 C   0  0  0  0  0  0  0  0  0  0  0  0
   38.9030   25.3470   33.9020 N   0  0  0  0  0  0  0  0  0  0  0  0
   39.1290   26.0080   31.9260 H   0  0  0  0  0  0  0  0  0  0  0  0
   36.3630   28.1590   34.3060 H   0  0  0  0  0  0  0  0  0  0  0  0
   38.5740   24.6580   36.2010 C   0  0  0  0  0  0  0  0  0  0  0  0
   37.8930   24.7860   37.3870 C   0  0  0  0  0  0  0  0  0  0  0  0
   38.1470   23.9710   38.4750 C   0  0  0  0  0  0  0  0  0  0  0  0
   39.1290   23.0210   38.2900 C   0  0  0  0  0  0  0  0  0  0  0  0
   39.8380   22.8620   37.1060 C   0  0  0  0  0  0  0  0  0  0  0  0
   39.5270   23.7060   36.0820 N   0  0  0  0  0  0  0  0  0  0  0  0
   37.1200   25.5590   37.4850 H   0  0  0  0  0  0  0  0  0  0  0  0
   37.6380   24.0390   39.4170 H   0  0  0  0  0  0  0  0  0  0  0  0
   39.3660   22.3550   39.1160 H   0  0  0  0  0  0  0  0  0  0  0  0
   40.5870   22.1150   37.0080 H   0  0  0  0  0  0  0  0  0  0  0  0
   37.3760   28.1050   31.8730 C   0  0  0  0  0  0  0  0  0  0  0  0
   36.3670   29.0340   31.9820 C   0  0  0  0  0  3  0  0  0  0  0  0
   36.0230   29.9110   30.9700 C   0  0  0  0  0  0  0  0  0  0  0  0
   35.2360   30.6450   31.0410 H   0  0  0  0  0  0  0  0  0  0  0  0
   36.7040   29.8570   29.8160 N   0  0  0  0  0  0  0  0  0  0  0  0
   37.7000   28.9380   29.7070 C   0  0  0  0  0  3  0  0  0  0  0  0
   38.0180   28.0970   30.7050 N   0  0  0  0  0  0  0  0  0  0  0  0
  1  2  2  0  0  0  0
  1  6  1  0  0  0  0
  2  3  1  0  0  0  0
  3  8  1  0  0  0  0
  3  4  2  0  0  0  0
  5  4  1  0  0  0  0
  5  9  1  0  0  0  0
  6  5  2  0  0  0  0
  7  1  1  0  0  0  0
  9 10  1  0  0  0  0
 10 15  1  0  0  0  0
 10 11  2  0  0  0  0
 11 16  1  0  0  0  0
 12 11  1  0  0  0  0
 12 17  1  0  0  0  0
 13 12  2  0  0  0  0
 14  9  2  0  0  0  0
 14 13  1  0  0  0  0
 18 13  1  0  0  0  0
 19 20  1  0  0  0  0
 19  2  1  0  0  0  0
 21 22  1  0  0  0  0
 21 20  2  0  0  0  0
 23 21  1  0  0  0  0
 24 23  2  0  0  0  0
 24 25  1  0  0  0  0
 25 19  2  0  0  0  0
M  END
>  <minimizedAffinity>
-4.8843503

$$$$

 OpenBabel03272504493D

 25 27  0  0  0  0  0  0  0  0999 V2000
   37.9570   26.9710   35.7730 C   0  0  0  0  0  0  0  0  0  0  0  0
   38.1430   25.6420   35.4030 C   0  0  0  0  0  0  0  0  0  0  0  0
   37.7290   25.2830   34.1260 C   0  0  0  0  0  0  0  0  0  0  0  0
   37.1730   26.2270   33.3120 N   0  0  0  0  0  0  0  0  0  0  0  0
   37.0140   27.5040   33.7140 C   0  0  0  0  0  0  0  0  0  0  0  0
   37.4100   27.8680   34.9510 N   0  0  0  0  0  0  0  0  0  0  0  0
   38.2750   27.2520   36.7580 H   0  0  0  0  0  0  0  0  0  0  0  0
   37.8470   24.2670   33.7830 H   0  0  0  0  0  0  0  0  0  0  0  0
   36.4200   28.4850   32.8280 C   0  0  0  0  0  0  0  0  0  0  0  0
   35.3690   29.2620   33.2500 C   0  0  0  0  0  0  0  0  0  0  0  0
   34.7770   30.2080   32.4330 C   0  0  0  0  0  0  0  0  0  0  0  0
   35.3110   30.3180   31.1660 C   0  0  0  0  0  0  0  0  0  0  0  0
   36.3720   29.5490   30.7050 C   0  0  0  0  0  0  0  0  0  0  0  0
   36.8990   28.6390   31.5730 N   0  0  0  0  0  0  0  0  0  0  0  0
   34.9790   29.1360   34.2680 H   0  0  0  0  0  0  0  0  0  0  0  0
   33.9570   30.8340   32.7240 H   0  0  0  0  0  0  0  0  0  0  0  0
   34.8800   31.0480   30.4850 H   0  0  0  0  0  0  0  0  0  0  0  0
   36.7520   29.6680   29.7200 H   0  0  0  0  0  0  0  0  0  0  0  0
   38.7320   24.6070   36.2430 C   0  0  0  0  0  0  0  0  0  0  0  0
   38.2260   24.2840   37.4820 C   0  0  0  0  0  3  0  0  0  0  0  0
   38.7670   23.3060   38.2970 C   0  0  0  0  0  0  0  0  0  0  0  0
   38.3820   23.0420   39.2690 H   0  0  0  0  0  0  0  0  0  0  0  0
   39.8440   22.6330   37.8630 N   0  0  0  0  0  0  0  0  0  0  0  0
   40.3430   22.9520   36.6400 C   0  0  0  0  0  3  0  0  0  0  0  0
   39.8000   23.9060   35.8640 N   0  0  0  0  0  0  0  0  0  0  0  0
  1  7  1  0  0  0  0
  2  1  1  0  0  0  0
  2 19  1  0  0  0  0
  3  2  2  0  0  0  0
  4  5  2  0  0  0  0
  4  3  1  0  0  0  0
  5  6  1  0  0  0  0
  6  1  2  0  0  0  0
  8  3  1  0  0  0  0
  9 10  1  0  0  0  0
  9  5  1  0  0  0  0
 10 15  1  0  0  0  0
 11 16  1  0  0  0  0
 11 10  2  0  0  0  0
 12 11  1  0  0  0  0
 13 12  2  0  0  0  0
 13 14  1  0  0  0  0
 14  9  2  0  0  0  0
 17 12  1  0  0  0  0
 18 13  1  0  0  0  0
 19 20  1  0  0  0  0
 20 21  2  0  0  0  0
 21 22  1  0  0  0  0
 23 21  1  0  0  0  0
 24 23  2  0  0  0  0
 25 19  2  0  0  0  0
 25 24  1  0  0  0  0
M  END
>  <minimizedAffinity>
-4.88414192

$$$$

 OpenBabel03272504493D

 25 27  0  0  0  0  0  0  0  0999 V2000
   37.0450   25.2010   32.3280 C   0  0  0  0  0  0  0  0  0  0  0  0
   36.1370   25.9420   31.5770 C   0  0  0  0  0  0  0  0  0  0  0  0
   35.1440   25.2310   30.9150 C   0  0  0  0  0  0  0  0  0  0  0  0
   35.1030   23.8730   31.0290 N   0  0  0  0  0  0  0  0  0  0  0  0
   36.0040   23.1970   31.7700 C   0  0  0  0  0  0  0  0  0  0  0  0
   36.9750   23.8720   32.4180 N   0  0  0  0  0  0  0  0  0  0  0  0
   37.8130   25.7460   32.8410 H   0  0  0  0  0  0  0  0  0  0  0  0
   34.4110   25.7510   30.3160 H   0  0  0  0  0  0  0  0  0  0  0  0
   35.9360   21.7520   31.8720 C   0  0  0  0  0  0  0  0  0  0  0  0
   35.5680   21.1530   33.0520 C   0  0  0  0  0  0  0  0  0  0  0  0
   35.4920   19.7790   33.1880 C   0  0  0  0  0  0  0  0  0  0  0  0
   35.8110   19.0500   32.0600 C   0  0  0  0  0  0  0  0  0  0  0  0
   36.1880   19.6220   30.8520 C   0  0  0  0  0  0  0  0  0  0  0  0
   36.2380   20.9840   30.8020 N   0  0  0  0  0  0  0  0  0  0  0  0
   35.3240   21.7760   33.9220 H   0  0  0  0  0  0  0  0  0  0  0  0
   35.2090   19.2720   34.0890 H   0  0  0  0  0  0  0  0  0  0  0  0
   35.7660   17.9660   32.1160 H   0  0  0  0  0  0  0  0  0  0  0  0
   36.4240   19.0220   30.0080 H   0  0  0  0  0  0  0  0  0  0  0  0
   36.1480   27.3920   31.4310 C   0  0  0  0  0  0  0  0  0  0  0  0
   36.7170   28.0220   30.3480 C   0  0  0  0  0  3  0  0  0  0  0  0
   36.7410   29.3950   30.1870 C   0  0  0  0  0  0  0  0  0  0  0  0
   37.1820   29.9020   29.3440 H   0  0  0  0  0  0  0  0  0  0  0  0
   36.1810   30.1610   31.1350 N   0  0  0  0  0  0  0  0  0  0  0  0
   35.6180   29.5400   32.2050 C   0  0  0  0  0  3  0  0  0  0  0  0
   35.6070   28.2030   32.3400 N   0  0  0  0  0  0  0  0  0  0  0  0
  1  6  1  0  0  0  0
  1  7  1  0  0  0  0
  2  1  2  0  0  0  0
  3  4  2  0  0  0  0
  3  2  1  0  0  0  0
  4  5  1  0  0  0  0
  5  9  1  0  0  0  0
  5  6  2  0  0  0  0
  8  3  1  0  0  0  0
  9 10  1  0  0  0  0
 10 11  2  0  0  0  0
 10 15  1  0  0  0  0
 11 16  1  0  0  0  0
 12 17  1  0  0  0  0
 12 11  1  0  0  0  0
 13 12  2  0  0  0  0
 14 13  1  0  0  0  0
 14  9  2  0  0  0  0
 18 13  1  0  0  0  0
 19  2  1  0  0  0  0
 19 25  1  0  0  0  0
 20 19  2  0  0  0  0
 21 20  1  0  0  0  0
 21 23  2  0  0  0  0
 22 21  1  0  0  0  0
 23 24  1  0  0  0  0
 24 25  2  0  0  0  0
M  END
>  <minimizedAffinity>
-4.80489063

$$$$

 OpenBabel03272504493D

 25 27  0  0  0  0  0  0  0  0999 V2000
   35.0480   24.4880   30.9330 C   0  0  0  0  0  0  0  0  0  0  0  0
   35.9960   23.7080   31.5900 C   0  0  0  0  0  0  0  0  0  0  0  0
   36.9930   24.3840   32.2820 C   0  0  0  0  0  0  0  0  0  0  0  0
   36.9980   25.7480   32.2890 N   0  0  0  0  0  0  0  0  0  0  0  0
   36.0580   26.4620   31.6370 C   0  0  0  0  0  0  0  0  0  0  0  0
   35.0830   25.8210   30.9600 N   0  0  0  0  0  0  0  0  0  0  0  0
   34.2780   23.9700   30.3970 H   0  0  0  0  0  0  0  0  0  0  0  0
   37.7550   23.8320   32.8110 H   0  0  0  0  0  0  0  0  0  0  0  0
   36.0880   27.9110   31.6610 C   0  0  0  0  0  0  0  0  0  0  0  0
   35.7840   28.5970   32.8120 C   0  0  0  0  0  0  0  0  0  0  0  0
   35.8030   29.9790   32.8720 C   0  0  0  0  0  0  0  0  0  0  0  0
   36.1460   30.6220   31.7010 C   0  0  0  0  0  0  0  0  0  0  0  0
   36.4590   29.9610   30.5200 C   0  0  0  0  0  0  0  0  0  0  0  0
   36.4170   28.5990   30.5440 N   0  0  0  0  0  0  0  0  0  0  0  0
   35.5160   28.0400   33.7180 H   0  0  0  0  0  0  0  0  0  0  0  0
   35.5720   30.5510   33.7490 H   0  0  0  0  0  0  0  0  0  0  0  0
   36.1760   31.7090   31.6980 H   0  0  0  0  0  0  0  0  0  0  0  0
   36.7190   30.4980   29.6410 H   0  0  0  0  0  0  0  0  0  0  0  0
   36.0240   22.2510   31.6060 C   0  0  0  0  0  0  0  0  0  0  0  0
   35.0860   21.5010   32.2780 C   0  0  0  0  0  3  0  0  0  0  0  0
   35.0920   20.1180   32.3080 C   0  0  0  0  0  0  0  0  0  0  0  0
   34.3630   19.5170   32.8290 H   0  0  0  0  0  0  0  0  0  0  0  0
   36.0620   19.4660   31.6510 N   0  0  0  0  0  0  0  0  0  0  0  0
   36.9900   20.2070   30.9880 C   0  0  0  0  0  3  0  0  0  0  0  0
   36.9640   21.5500   30.9710 N   0  0  0  0  0  0  0  0  0  0  0  0
  1  6  2  0  0  0  0
  1  2  1  0  0  0  0
  2 19  1  0  0  0  0
  2  3  2  0  0  0  0
  3  4  1  0  0  0  0
  3  8  1  0  0  0  0
  5  9  1  0  0  0  0
  5  4  2  0  0  0  0
  6  5  1  0  0  0  0
  7  1  1  0  0  0  0
  9 10  1  0  0  0  0
 10 11  2  0  0  0  0
 10 15  1  0  0  0  0
 11 16  1  0  0  0  0
 12 11  1  0  0  0  0
 13 14  1  0  0  0  0
 13 12  2  0  0  0  0
 14  9  2  0  0  0  0
 17 12  1  0  0  0  0
 18 13  1  0  0  0  0
 19 20  1  0  0  0  0
 20 21  2  0  0  0  0
 21 22  1  0  0  0  0
 23 21  1  0  0  0  0
 24 23  2  0  0  0  0
 25 24  1  0  0  0  0
 25 19  2  0  0  0  0
M  END
>  <minimizedAffinity>
-4.7154479

$$$$
