
 OpenBabel03272504033D

 39 42  0  0  0  0  0  0  0  0999 V2000
   34.5320   29.4140   50.3480 C   0  0  0  0  0  0  0  0  0  0  0  0
   34.2220   29.2230   51.3770 H   0  0  0  0  0  0  0  0  0  0  0  0
   33.8160   30.2090   49.9850 H   0  0  0  0  0  0  0  0  0  0  0  0
   35.8650   30.0510   50.2690 C   0  0  0  0  0  0  0  0  0  0  0  0
   36.8490   29.8330   51.2420 C   0  0  0  0  0  0  0  0  0  0  0  0
   37.9540   30.5480   50.8980 C   0  0  0  0  0  0  0  0  0  0  0  0
   37.6650   31.1820   49.7580 N   0  0  0  0  0  0  0  0  0  0  0  0
   36.4260   30.8680   49.4120 N   0  0  0  0  0  0  0  0  0  0  0  0
   36.8410   29.2190   52.1560 H   0  0  0  0  0  0  0  0  0  0  0  0
   38.9370   30.6800   51.3470 H   0  0  0  0  0  0  0  0  0  0  0  0
   38.4200   32.0650   48.9300 C   0  0  0  0  0  0  0  0  0  0  0  0
   38.7980   33.2590   49.5330 C   0  0  0  0  0  0  0  0  0  0  0  0
   39.5420   34.2310   48.8570 C   0  0  0  0  0  0  0  0  0  0  0  0
   39.8920   33.9530   47.5440 C   0  0  0  0  0  0  0  0  0  0  0  0
   39.5150   32.7700   46.9560 C   0  0  0  0  0  0  0  0  0  0  0  0
   38.7810   31.8150   47.6290 C   0  0  0  0  0  0  0  0  0  0  0  0
   38.5410   33.5100   50.5570 H   0  0  0  0  0  0  0  0  0  0  0  0
   39.8200   35.1500   49.3520 H   0  0  0  0  0  0  0  0  0  0  0  0
   40.4730   34.6780   46.9700 H   0  0  0  0  0  0  0  0  0  0  0  0
   39.7620   32.5050   45.9370 H   0  0  0  0  0  0  0  0  0  0  0  0
   38.4590   30.8720   47.2170 H   0  0  0  0  0  0  0  0  0  0  0  0
   34.3790   28.2630   49.4340 C   0  0  0  0  0  0  0  0  0  0  0  0
   35.3820   27.7490   49.4140 H   0  0  0  0  0  0  0  0  0  0  0  0
   33.7330   27.5200   49.9540 H   0  0  0  0  0  0  0  0  0  0  0  0
   33.8230   28.4810   48.1300 C   0  0  0  0  0  0  0  0  0  0  0  0
   32.5750   27.9990   47.8330 C   0  0  0  0  0  0  0  0  0  0  0  0
   32.0120   28.2040   46.5510 C   0  0  0  0  0  0  0  0  0  0  0  0
   32.7920   28.9050   45.6570 N   0  0  0  0  0  0  0  0  0  0  0  0
   34.0200   29.3580   46.0090 C   0  0  0  0  0  0  0  0  0  0  0  0
   34.5360   29.1520   47.2320 N   0  0  0  0  0  0  0  0  0  0  0  0
   31.9870   27.4520   48.5580 H   0  0  0  0  0  0  0  0  0  0  0  0
   31.0400   27.8300   46.3150 H   0  0  0  0  0  0  0  0  0  0  0  0
   34.8040   30.0950   45.0200 C   0  0  0  0  0  0  0  0  0  0  0  0
   36.1470   30.3330   45.2150 C   0  0  0  0  0  0  0  0  0  0  0  0
   36.9450   31.0200   44.3240 C   0  0  0  0  0  0  0  0  0  0  0  0
   37.9900   31.1820   44.5160 H   0  0  0  0  0  0  0  0  0  0  0  0
   36.3390   31.4670   43.2170 N   0  0  0  0  0  0  0  0  0  0  0  0
   35.0210   31.2610   42.9790 C   0  0  0  0  0  0  0  0  0  0  0  0
   34.2790   30.5790   43.8850 N   0  0  0  0  0  0  0  0  0  0  0  0
  1  2  1  0  0  0  0
  3  1  1  0  0  0  0
  4  1  1  0  0  0  0
  4  5  1  0  0  0  0
  5  9  1  0  0  0  0
  6  5  2  0  0  0  0
  6 10  1  0  0  0  0
  7  6  1  0  0  0  0
  8  7  1  0  0  0  0
  8  4  2  0  0  0  0
 11 12  1  0  0  0  0
 11  7  1  0  0  0  0
 12 17  1  0  0  0  0
 13 18  1  0  0  0  0
 13 12  2  0  0  0  0
 14 13  1  0  0  0  0
 15 14  2  0  0  0  0
 15 16  1  0  0  0  0
 16 11  2  0  0  0  0
 19 14  1  0  0  0  0
 20 15  1  0  0  0  0
 21 16  1  0  0  0  0
 22 24  1  0  0  0  0
 22  1  1  0  0  0  0
 23 22  1  0  0  0  0
 25 22  1  0  0  0  0
 26 25  1  0  0  0  0
 26 31  1  0  0  0  0
 27 26  2  0  0  0  0
 28 29  2  0  0  0  0
 28 27  1  0  0  0  0
 29 30  1  0  0  0  0
 30 25  2  0  0  0  0
 32 27  1  0  0  0  0
 33 34  1  0  0  0  0
 33 29  1  0  0  0  0
 35 36  1  0  0  0  0
 35 34  2  0  0  0  0
 37 35  1  0  0  0  0
 38 37  2  0  0  0  0
 38 39  1  0  0  0  0
 39 33  2  0  0  0  0
M  END
>  <minimizedAffinity>
-6.17351246

>  <minimizedRMSD>
1.77635038

$$$$
