
 OpenBabel03272506523D

 32 34  0  0  1  0  0  0  0  0999 V2000
   38.2770   26.7870   32.6000 C   0  0  1  0  0  0  0  0  0  0  0  0
   39.4820   27.0710   33.3700 C   0  0  0  0  0  0  0  0  0  0  0  0
   39.6780   26.3020   34.6480 C   0  0  0  0  0  0  0  0  0  0  0  0
   39.2540   24.8820   34.5880 C   0  0  2  0  0  0  0  0  0  0  0  0
   37.9980   24.5800   33.8440 C   0  0  0  0  0  0  0  0  0  0  0  0
   37.9710   25.3100   32.5390 C   0  0  0  0  0  0  0  0  0  0  0  0
   38.4830   27.0400   31.5090 H   0  0  0  0  0  0  0  0  0  0  0  0
   40.3570   26.7170   32.7290 H   0  0  0  0  0  0  0  0  0  0  0  0
   39.7350   28.1070   33.5730 H   0  0  0  0  0  0  0  0  0  0  0  0
   40.7490   26.3250   34.9360 H   0  0  0  0  0  0  0  0  0  0  0  0
   39.0880   26.8260   35.4300 H   0  0  0  0  0  0  0  0  0  0  0  0
   40.0650   24.2970   34.0880 H   0  0  0  0  0  0  0  0  0  0  0  0
   37.1370   24.8310   34.5020 H   0  0  0  0  0  0  0  0  0  0  0  0
   37.9920   23.5090   33.6190 H   0  0  0  0  0  0  0  0  0  0  0  0
   38.9020   24.9050   32.0220 H   0  0  0  0  0  0  0  0  0  0  0  0
   37.1850   25.0160   31.8530 H   0  0  0  0  0  0  0  0  0  0  0  0
   36.8030   28.0740   34.2000 C   0  0  0  0  0  0  0  0  0  0  0  0
   37.0850   27.6140   32.8950 C   0  0  0  0  0  0  0  0  0  0  0  0
   36.2100   27.9690   31.8870 C   0  0  0  0  0  0  0  0  0  0  0  0
   35.1170   28.7440   32.2010 N   0  0  0  0  0  0  0  0  0  0  0  0
   34.8850   29.1650   33.4700 C   0  0  0  0  0  0  0  0  0  0  0  0
   35.7340   28.8220   34.4550 N   0  0  0  0  0  0  0  0  0  0  0  0
   37.4360   27.8410   35.0410 H   0  0  0  0  0  0  0  0  0  0  0  0
   36.3200   27.6790   30.8530 H   0  0  0  0  0  0  0  0  0  0  0  0
   33.9940   29.7680   33.5910 H   0  0  0  0  0  0  0  0  0  0  0  0
   39.0790   24.3350   35.9580 C   0  0  0  0  0  0  0  0  0  0  0  0
   38.0940   24.8290   36.7930 C   0  0  0  0  0  3  0  0  0  0  0  0
   37.9660   24.2840   38.0730 C   0  0  0  0  0  0  0  0  0  0  0  0
   37.2050   24.6480   38.7510 H   0  0  0  0  0  0  0  0  0  0  0  0
   38.8080   23.2980   38.4400 N   0  0  0  0  0  0  0  0  0  0  0  0
   39.7560   22.8200   37.6430 C   0  0  0  0  0  3  0  0  0  0  0  0
   39.8830   23.3350   36.4230 N   0  0  0  0  0  0  0  0  0  0  0  0
  1  7  1  6  0  0  0
  1 18  1  0  0  0  0
  1  2  1  0  0  0  0
  2  9  1  0  0  0  0
  2  3  1  0  0  0  0
  3 10  1  0  0  0  0
  3 11  1  0  0  0  0
  4 12  1  6  0  0  0
  4  3  1  0  0  0  0
  4 26  1  0  0  0  0
  5 13  1  0  0  0  0
  5  4  1  0  0  0  0
  6  1  1  0  0  0  0
  6  5  1  0  0  0  0
  8  2  1  0  0  0  0
 14  5  1  0  0  0  0
 15  6  1  0  0  0  0
 16  6  1  0  0  0  0
 17 22  1  0  0  0  0
 17 23  1  0  0  0  0
 18 17  2  0  0  0  0
 19 20  2  0  0  0  0
 19 18  1  0  0  0  0
 20 21  1  0  0  0  0
 21 25  1  0  0  0  0
 21 22  2  0  0  0  0
 24 19  1  0  0  0  0
 26 32  2  0  0  0  0
 26 27  1  0  0  0  0
 27 28  2  0  0  0  0
 28 30  1  0  0  0  0
 28 29  1  0  0  0  0
 31 30  2  0  0  0  0
 32 31  1  0  0  0  0
M  END
>  <minimizedAffinity>
-4.95407009

$$$$

 OpenBabel03272506523D

 32 34  0  0  1  0  0  0  0  0999 V2000
   39.7360   24.5950   34.6130 C   0  0  1  0  0  0  0  0  0  0  0  0
   38.8520   24.2590   33.5040 C   0  0  0  0  0  0  0  0  0  0  0  0
   37.8000   25.2680   33.1330 C   0  0  0  0  0  0  0  0  0  0  0  0
   38.2410   26.6820   33.2190 C   0  0  2  0  0  0  0  0  0  0  0  0
   39.1080   27.0530   34.3740 C   0  0  0  0  0  0  0  0  0  0  0  0
   40.1860   26.0350   34.5710 C   0  0  0  0  0  0  0  0  0  0  0  0
   40.7140   24.0290   34.4740 H   0  0  0  0  0  0  0  0  0  0  0  0
   39.5100   24.2300   32.5730 H   0  0  0  0  0  0  0  0  0  0  0  0
   38.3790   23.2810   33.4960 H   0  0  0  0  0  0  0  0  0  0  0  0
   37.4550   25.0820   32.0960 H   0  0  0  0  0  0  0  0  0  0  0  0
   36.9460   25.1100   33.8260 H   0  0  0  0  0  0  0  0  0  0  0  0
   38.8250   26.9210   32.2960 H   0  0  0  0  0  0  0  0  0  0  0  0
   38.4580   27.1800   35.2680 H   0  0  0  0  0  0  0  0  0  0  0  0
   39.5960   28.0030   34.1330 H   0  0  0  0  0  0  0  0  0  0  0  0
   40.7340   26.0740   33.5730 H   0  0  0  0  0  0  0  0  0  0  0  0
   40.9670   26.3090   35.2700 H   0  0  0  0  0  0  0  0  0  0  0  0
   38.1460   24.6710   36.5770 C   0  0  0  0  0  0  0  0  0  0  0  0
   39.3100   24.1600   35.9630 C   0  0  0  0  0  0  0  0  0  0  0  0
   40.0450   23.2240   36.6640 C   0  0  0  0  0  0  0  0  0  0  0  0
   39.6140   22.8410   37.9120 N   0  0  0  0  0  0  0  0  0  0  0  0
   38.4870   23.3590   38.4640 C   0  0  0  0  0  0  0  0  0  0  0  0
   37.7670   24.2700   37.7860 N   0  0  0  0  0  0  0  0  0  0  0  0
   37.5170   25.4040   36.0970 H   0  0  0  0  0  0  0  0  0  0  0  0
   40.9510   22.7620   36.2990 H   0  0  0  0  0  0  0  0  0  0  0  0
   38.2500   22.9790   39.4510 H   0  0  0  0  0  0  0  0  0  0  0  0
   37.0660   27.5900   33.2600 C   0  0  0  0  0  0  0  0  0  0  0  0
   36.6760   28.1850   34.4460 C   0  0  0  0  0  3  0  0  0  0  0  0
   35.5650   29.0320   34.4370 C   0  0  0  0  0  0  0  0  0  0  0  0
   35.2340   29.5120   35.3490 H   0  0  0  0  0  0  0  0  0  0  0  0
   34.9200   29.2350   33.2710 N   0  0  0  0  0  0  0  0  0  0  0  0
   35.2900   28.6670   32.1290 C   0  0  0  0  0  3  0  0  0  0  0  0
   36.3470   27.8590   32.1320 N   0  0  0  0  0  0  0  0  0  0  0  0
  1  7  1  6  0  0  0
  1 18  1  0  0  0  0
  2  1  1  0  0  0  0
  3  4  1  0  0  0  0
  3  2  1  0  0  0  0
  3 11  1  0  0  0  0
  4 12  1  6  0  0  0
  4 26  1  0  0  0  0
  4  5  1  0  0  0  0
  5  6  1  0  0  0  0
  5 13  1  0  0  0  0
  6  1  1  0  0  0  0
  6 16  1  0  0  0  0
  8  2  1  0  0  0  0
  9  2  1  0  0  0  0
 10  3  1  0  0  0  0
 14  5  1  0  0  0  0
 15  6  1  0  0  0  0
 17 22  1  0  0  0  0
 18 17  2  0  0  0  0
 18 19  1  0  0  0  0
 19 20  2  0  0  0  0
 20 21  1  0  0  0  0
 21 25  1  0  0  0  0
 22 21  2  0  0  0  0
 23 17  1  0  0  0  0
 24 19  1  0  0  0  0
 26 27  1  0  0  0  0
 28 27  2  0  0  0  0
 28 29  1  0  0  0  0
 30 28  1  0  0  0  0
 31 32  1  0  0  0  0
 31 30  2  0  0  0  0
 32 26  2  0  0  0  0
M  END
>  <minimizedAffinity>
-4.87571096

$$$$

 OpenBabel03272506523D

 32 34  0  0  1  0  0  0  0  0999 V2000
   39.7060   24.6330   34.6150 C   0  0  1  0  0  0  0  0  0  0  0  0
   38.8400   24.2990   33.4910 C   0  0  0  0  0  0  0  0  0  0  0  0
   37.7910   25.3070   33.1080 C   0  0  0  0  0  0  0  0  0  0  0  0
   38.2260   26.7220   33.2090 C   0  0  2  0  0  0  0  0  0  0  0  0
   39.0740   27.0900   34.3780 C   0  0  0  0  0  0  0  0  0  0  0  0
   40.1520   26.0740   34.5870 C   0  0  0  0  0  0  0  0  0  0  0  0
   40.6880   24.0700   34.4870 H   0  0  0  0  0  0  0  0  0  0  0  0
   39.5120   24.2770   32.5700 H   0  0  0  0  0  0  0  0  0  0  0  0
   38.3710   23.3200   33.4710 H   0  0  0  0  0  0  0  0  0  0  0  0
   37.4620   25.1260   32.0660 H   0  0  0  0  0  0  0  0  0  0  0  0
   36.9270   25.1430   33.7880 H   0  0  0  0  0  0  0  0  0  0  0  0
   38.8230   26.9680   32.2960 H   0  0  0  0  0  0  0  0  0  0  0  0
   38.4110   27.2100   35.2630 H   0  0  0  0  0  0  0  0  0  0  0  0
   39.5630   28.0430   34.1500 H   0  0  0  0  0  0  0  0  0  0  0  0
   40.7150   26.1200   33.5970 H   0  0  0  0  0  0  0  0  0  0  0  0
   40.9220   26.3470   35.2990 H   0  0  0  0  0  0  0  0  0  0  0  0
   39.9940   23.2460   36.7090 C   0  0  0  0  0  0  0  0  0  0  0  0
   39.2610   24.1890   35.9560 C   0  0  0  0  0  0  0  0  0  0  0  0
   38.1070   24.6990   36.5170 C   0  0  0  0  0  0  0  0  0  0  0  0
   37.7300   24.2670   37.7670 N   0  0  0  0  0  0  0  0  0  0  0  0
   38.4660   23.3580   38.4560 C   0  0  0  0  0  0  0  0  0  0  0  0
   39.5910   22.8590   37.9150 N   0  0  0  0  0  0  0  0  0  0  0  0
   40.9060   22.8010   36.3430 H   0  0  0  0  0  0  0  0  0  0  0  0
   37.4650   25.4250   36.0380 H   0  0  0  0  0  0  0  0  0  0  0  0
   38.0670   23.0970   39.4290 H   0  0  0  0  0  0  0  0  0  0  0  0
   37.0480   27.6260   33.2360 C   0  0  0  0  0  0  0  0  0  0  0  0
   36.3270   27.8790   32.0830 C   0  0  0  0  0  3  0  0  0  0  0  0
   35.2270   28.7360   32.1560 C   0  0  0  0  0  0  0  0  0  0  0  0
   34.6420   28.9550   31.2720 H   0  0  0  0  0  0  0  0  0  0  0  0
   34.9130   29.2810   33.3480 N   0  0  0  0  0  0  0  0  0  0  0  0
   35.6010   29.0420   34.4580 C   0  0  0  0  0  3  0  0  0  0  0  0
   36.6500   28.2270   34.3950 N   0  0  0  0  0  0  0  0  0  0  0  0
  1  7  1  6  0  0  0
  1 18  1  0  0  0  0
  2  1  1  0  0  0  0
  3  4  1  0  0  0  0
  3  2  1  0  0  0  0
  3 11  1  0  0  0  0
  4 12  1  6  0  0  0
  4 26  1  0  0  0  0
  4  5  1  0  0  0  0
  5  6  1  0  0  0  0
  5 13  1  0  0  0  0
  6  1  1  0  0  0  0
  6 16  1  0  0  0  0
  8  2  1  0  0  0  0
  9  2  1  0  0  0  0
 10  3  1  0  0  0  0
 14  5  1  0  0  0  0
 15  6  1  0  0  0  0
 17 22  1  0  0  0  0
 18 19  1  0  0  0  0
 18 17  2  0  0  0  0
 19 20  2  0  0  0  0
 20 21  1  0  0  0  0
 21 25  1  0  0  0  0
 22 21  2  0  0  0  0
 23 17  1  0  0  0  0
 24 19  1  0  0  0  0
 26 32  1  0  0  0  0
 27 28  1  0  0  0  0
 27 26  2  0  0  0  0
 28 30  2  0  0  0  0
 29 28  1  0  0  0  0
 30 31  1  0  0  0  0
 32 31  2  0  0  0  0
M  END
>  <minimizedAffinity>
-4.83043385

$$$$

 OpenBabel03272506523D

 32 34  0  0  1  0  0  0  0  0999 V2000
   36.9880   25.5340   31.2850 C   0  0  1  0  0  0  0  0  0  0  0  0
   37.9940   24.5580   30.8850 C   0  0  0  0  0  0  0  0  0  0  0  0
   37.7050   23.1110   31.1790 C   0  0  0  0  0  0  0  0  0  0  0  0
   36.2880   22.7130   30.9920 C   0  0  2  0  0  0  0  0  0  0  0  0
   35.2460   23.6800   31.4400 C   0  0  0  0  0  0  0  0  0  0  0  0
   35.5840   25.0650   30.9880 C   0  0  0  0  0  0  0  0  0  0  0  0
   37.0890   26.4470   30.6130 H   0  0  0  0  0  0  0  0  0  0  0  0
   38.0190   24.5800   29.7450 H   0  0  0  0  0  0  0  0  0  0  0  0
   39.0300   24.7420   31.1530 H   0  0  0  0  0  0  0  0  0  0  0  0
   38.3290   22.4660   30.5290 H   0  0  0  0  0  0  0  0  0  0  0  0
   37.9950   22.9360   32.2370 H   0  0  0  0  0  0  0  0  0  0  0  0
   36.1150   22.5460   29.9000 H   0  0  0  0  0  0  0  0  0  0  0  0
   35.1450   23.5940   32.5440 H   0  0  0  0  0  0  0  0  0  0  0  0
   34.3030   23.4010   30.9590 H   0  0  0  0  0  0  0  0  0  0  0  0
   35.6200   24.9430   29.8550 H   0  0  0  0  0  0  0  0  0  0  0  0
   34.8010   25.8030   31.1110 H   0  0  0  0  0  0  0  0  0  0  0  0
   37.7280   25.4100   33.7000 C   0  0  0  0  0  0  0  0  0  0  0  0
   37.1280   26.1220   32.6380 C   0  0  0  0  0  0  0  0  0  0  0  0
   36.6760   27.4000   32.8980 C   0  0  0  0  0  0  0  0  0  0  0  0
   36.8300   27.9130   34.1640 N   0  0  0  0  0  0  0  0  0  0  0  0
   37.4140   27.1940   35.1560 C   0  0  0  0  0  0  0  0  0  0  0  0
   37.8560   25.9480   34.9080 N   0  0  0  0  0  0  0  0  0  0  0  0
   38.1070   24.4080   33.5790 H   0  0  0  0  0  0  0  0  0  0  0  0
   36.2020   28.0400   32.1680 H   0  0  0  0  0  0  0  0  0  0  0  0
   37.4780   27.7050   36.1090 H   0  0  0  0  0  0  0  0  0  0  0  0
   36.0120   21.4340   31.6950 C   0  0  0  0  0  0  0  0  0  0  0  0
   35.9820   20.2400   30.9980 C   0  0  0  0  0  3  0  0  0  0  0  0
   35.7180   19.0610   31.7010 C   0  0  0  0  0  0  0  0  0  0  0  0
   35.6870   18.1100   31.1850 H   0  0  0  0  0  0  0  0  0  0  0  0
   35.5040   19.1370   33.0290 N   0  0  0  0  0  0  0  0  0  0  0  0
   35.5310   20.2810   33.7030 C   0  0  0  0  0  3  0  0  0  0  0  0
   35.7820   21.4060   33.0400 N   0  0  0  0  0  0  0  0  0  0  0  0
  1  7  1  6  0  0  0
  1 18  1  0  0  0  0
  2  9  1  0  0  0  0
  2  3  1  0  0  0  0
  2  1  1  0  0  0  0
  3 11  1  0  0  0  0
  4 12  1  6  0  0  0
  4  3  1  0  0  0  0
  4  5  1  0  0  0  0
  4 26  1  0  0  0  0
  5 13  1  0  0  0  0
  6 16  1  0  0  0  0
  6  1  1  0  0  0  0
  6  5  1  0  0  0  0
  8  2  1  0  0  0  0
 10  3  1  0  0  0  0
 14  5  1  0  0  0  0
 15  6  1  0  0  0  0
 17 22  1  0  0  0  0
 18 19  1  0  0  0  0
 18 17  2  0  0  0  0
 19 20  2  0  0  0  0
 20 21  1  0  0  0  0
 21 25  1  0  0  0  0
 22 21  2  0  0  0  0
 23 17  1  0  0  0  0
 24 19  1  0  0  0  0
 26 32  1  0  0  0  0
 27 26  2  0  0  0  0
 27 28  1  0  0  0  0
 28 30  2  0  0  0  0
 29 28  1  0  0  0  0
 30 31  1  0  0  0  0
 32 31  2  0  0  0  0
M  END
>  <minimizedAffinity>
-4.77701092

$$$$

 OpenBabel03272506523D

 32 34  0  0  1  0  0  0  0  0999 V2000
   37.6590   22.6280   31.6540 C   0  0  1  0  0  0  0  0  0  0  0  0
   39.0840   22.7140   31.9460 C   0  0  0  0  0  0  0  0  0  0  0  0
   39.4860   22.7870   33.3940 C   0  0  0  0  0  0  0  0  0  0  0  0
   38.6760   21.9420   34.3040 C   0  0  2  0  0  0  0  0  0  0  0  0
   37.2090   21.8800   34.0480 C   0  0  0  0  0  0  0  0  0  0  0  0
   36.9370   21.6890   32.5890 C   0  0  0  0  0  0  0  0  0  0  0  0
   37.5320   22.1150   30.6450 H   0  0  0  0  0  0  0  0  0  0  0  0
   39.5350   21.7220   31.6120 H   0  0  0  0  0  0  0  0  0  0  0  0
   39.6800   23.4440   31.4070 H   0  0  0  0  0  0  0  0  0  0  0  0
   40.5470   22.4840   33.5020 H   0  0  0  0  0  0  0  0  0  0  0  0
   39.3870   23.8510   33.7000 H   0  0  0  0  0  0  0  0  0  0  0  0
   39.0530   20.8920   34.2320 H   0  0  0  0  0  0  0  0  0  0  0  0
   36.7460   22.8030   34.4610 H   0  0  0  0  0  0  0  0  0  0  0  0
   36.8150   21.0030   34.5710 H   0  0  0  0  0  0  0  0  0  0  0  0
   37.4680   20.7030   32.3770 H   0  0  0  0  0  0  0  0  0  0  0  0
   35.9120   21.4550   32.3300 H   0  0  0  0  0  0  0  0  0  0  0  0
   37.6180   25.1450   31.4230 C   0  0  0  0  0  0  0  0  0  0  0  0
   36.9400   23.9070   31.4480 C   0  0  0  0  0  0  0  0  0  0  0  0
   35.5710   23.9220   31.2670 C   0  0  0  0  0  0  0  0  0  0  0  0
   34.9410   25.1290   31.0730 N   0  0  0  0  0  0  0  0  0  0  0  0
   35.6330   26.2970   31.0550 C   0  0  0  0  0  0  0  0  0  0  0  0
   36.9660   26.2880   31.2300 N   0  0  0  0  0  0  0  0  0  0  0  0
   38.6860   25.2190   31.5550 H   0  0  0  0  0  0  0  0  0  0  0  0
   34.9470   23.0410   31.2660 H   0  0  0  0  0  0  0  0  0  0  0  0
   35.0270   27.1800   30.8940 H   0  0  0  0  0  0  0  0  0  0  0  0
   38.8440   22.3870   35.7120 C   0  0  0  0  0  0  0  0  0  0  0  0
   37.8040   23.0010   36.3850 C   0  0  0  0  0  3  0  0  0  0  0  0
   38.0060   23.4030   37.7070 C   0  0  0  0  0  0  0  0  0  0  0  0
   37.2120   23.8870   38.2610 H   0  0  0  0  0  0  0  0  0  0  0  0
   39.2080   23.1750   38.2730 N   0  0  0  0  0  0  0  0  0  0  0  0
   40.2110   22.5850   37.6320 C   0  0  0  0  0  3  0  0  0  0  0  0
   40.0230   22.2000   36.3720 N   0  0  0  0  0  0  0  0  0  0  0  0
  1  7  1  6  0  0  0
  1  2  1  0  0  0  0
  1  6  1  0  0  0  0
  2  3  1  0  0  0  0
  3 10  1  0  0  0  0
  3 11  1  0  0  0  0
  3  4  1  0  0  0  0
  4 12  1  6  0  0  0
  4 26  1  0  0  0  0
  5  4  1  0  0  0  0
  5 13  1  0  0  0  0
  5 14  1  0  0  0  0
  6  5  1  0  0  0  0
  8  2  1  0  0  0  0
  9  2  1  0  0  0  0
 15  6  1  0  0  0  0
 16  6  1  0  0  0  0
 17 18  1  0  0  0  0
 17 23  1  0  0  0  0
 18  1  1  0  0  0  0
 19 18  2  0  0  0  0
 20 19  1  0  0  0  0
 21 20  2  0  0  0  0
 21 22  1  0  0  0  0
 22 17  2  0  0  0  0
 24 19  1  0  0  0  0
 25 21  1  0  0  0  0
 26 32  2  0  0  0  0
 26 27  1  0  0  0  0
 27 28  2  0  0  0  0
 28 29  1  0  0  0  0
 28 30  1  0  0  0  0
 31 30  2  0  0  0  0
 32 31  1  0  0  0  0
M  END
>  <minimizedAffinity>
-4.67559385

$$$$

 OpenBabel03272506523D

 32 34  0  0  1  0  0  0  0  0999 V2000
   38.2230   26.8130   32.9500 C   0  0  1  0  0  0  0  0  0  0  0  0
   37.8190   25.4210   32.7920 C   0  0  0  0  0  0  0  0  0  0  0  0
   38.0670   24.4970   33.9520 C   0  0  0  0  0  0  0  0  0  0  0  0
   37.8370   25.1020   35.2860 C   0  0  2  0  0  0  0  0  0  0  0  0
   38.2880   26.5100   35.4800 C   0  0  0  0  0  0  0  0  0  0  0  0
   37.8820   27.3570   34.3160 C   0  0  0  0  0  0  0  0  0  0  0  0
   37.5790   27.4520   32.2630 H   0  0  0  0  0  0  0  0  0  0  0  0
   36.6810   25.4300   32.7180 H   0  0  0  0  0  0  0  0  0  0  0  0
   38.1150   24.8950   31.8890 H   0  0  0  0  0  0  0  0  0  0  0  0
   37.4130   23.6060   33.8650 H   0  0  0  0  0  0  0  0  0  0  0  0
   39.1260   24.1680   33.8790 H   0  0  0  0  0  0  0  0  0  0  0  0
   36.7370   25.0930   35.4880 H   0  0  0  0  0  0  0  0  0  0  0  0
   39.3870   26.5010   35.6510 H   0  0  0  0  0  0  0  0  0  0  0  0
   37.7780   26.9050   36.3650 H   0  0  0  0  0  0  0  0  0  0  0  0
   36.7470   27.2480   34.3280 H   0  0  0  0  0  0  0  0  0  0  0  0
   38.0080   28.4250   34.4470 H   0  0  0  0  0  0  0  0  0  0  0  0
   40.6650   27.2640   33.4280 C   0  0  0  0  0  0  0  0  0  0  0  0
   39.5940   27.1640   32.5130 C   0  0  0  0  0  0  0  0  0  0  0  0
   39.8670   27.3990   31.1790 C   0  0  0  0  0  0  0  0  0  0  0  0
   41.1540   27.7160   30.8120 N   0  0  0  0  0  0  0  0  0  0  0  0
   42.1530   27.8010   31.7260 C   0  0  0  0  0  0  0  0  0  0  0  0
   41.8930   27.5730   33.0250 N   0  0  0  0  0  0  0  0  0  0  0  0
   40.5350   27.0950   34.4850 H   0  0  0  0  0  0  0  0  0  0  0  0
   39.1320   27.3520   30.3890 H   0  0  0  0  0  0  0  0  0  0  0  0
   43.1220   28.0580   31.3150 H   0  0  0  0  0  0  0  0  0  0  0  0
   38.4980   24.2950   36.3440 C   0  0  0  0  0  0  0  0  0  0  0  0
   38.0120   24.2960   37.6380 C   0  0  0  0  0  3  0  0  0  0  0  0
   38.6660   23.5220   38.6000 C   0  0  0  0  0  0  0  0  0  0  0  0
   38.3110   23.5010   39.6220 H   0  0  0  0  0  0  0  0  0  0  0  0
   39.7440   22.8050   38.2250 N   0  0  0  0  0  0  0  0  0  0  0  0
   40.2150   22.7990   36.9830 C   0  0  0  0  0  3  0  0  0  0  0  0
   39.5970   23.5350   36.0640 N   0  0  0  0  0  0  0  0  0  0  0  0
  1  7  1  6  0  0  0
  1  6  1  0  0  0  0
  2  1  1  0  0  0  0
  2  3  1  0  0  0  0
  3  4  1  0  0  0  0
  4  5  1  0  0  0  0
  4 12  1  1  0  0  0
  4 26  1  0  0  0  0
  5 13  1  0  0  0  0
  5 14  1  0  0  0  0
  6 15  1  0  0  0  0
  6 16  1  0  0  0  0
  6  5  1  0  0  0  0
  8  2  1  0  0  0  0
  9  2  1  0  0  0  0
 10  3  1  0  0  0  0
 11  3  1  0  0  0  0
 17 23  1  0  0  0  0
 18  1  1  0  0  0  0
 18 17  2  0  0  0  0
 19 18  1  0  0  0  0
 20 19  2  0  0  0  0
 20 21  1  0  0  0  0
 21 22  2  0  0  0  0
 22 17  1  0  0  0  0
 24 19  1  0  0  0  0
 25 21  1  0  0  0  0
 26 27  1  0  0  0  0
 27 28  2  0  0  0  0
 28 29  1  0  0  0  0
 30 28  1  0  0  0  0
 31 30  2  0  0  0  0
 32 26  2  0  0  0  0
 32 31  1  0  0  0  0
M  END
>  <minimizedAffinity>
-4.67222261

$$$$

 OpenBabel03272506523D

 32 34  0  0  1  0  0  0  0  0999 V2000
   37.5950   27.3330   32.7820 C   0  0  1  0  0  0  0  0  0  0  0  0
   37.6210   27.4260   34.2360 C   0  0  0  0  0  0  0  0  0  0  0  0
   38.7320   26.7060   34.9510 C   0  0  0  0  0  0  0  0  0  0  0  0
   40.0450   26.7550   34.2630 C   0  0  2  0  0  0  0  0  0  0  0  0
   40.0400   26.6140   32.7790 C   0  0  0  0  0  0  0  0  0  0  0  0
   38.9690   27.4660   32.1740 C   0  0  0  0  0  0  0  0  0  0  0  0
   37.0570   28.2500   32.3750 H   0  0  0  0  0  0  0  0  0  0  0  0
   37.8360   28.5190   34.4780 H   0  0  0  0  0  0  0  0  0  0  0  0
   36.7040   27.2330   34.7840 H   0  0  0  0  0  0  0  0  0  0  0  0
   38.8620   27.1360   35.9650 H   0  0  0  0  0  0  0  0  0  0  0  0
   38.4130   25.6470   35.0530 H   0  0  0  0  0  0  0  0  0  0  0  0
   40.5170   27.7450   34.4850 H   0  0  0  0  0  0  0  0  0  0  0  0
   39.9300   25.5350   32.5350 H   0  0  0  0  0  0  0  0  0  0  0  0
   41.0010   26.9820   32.4050 H   0  0  0  0  0  0  0  0  0  0  0  0
   39.2720   28.5090   32.5200 H   0  0  0  0  0  0  0  0  0  0  0  0
   39.0050   27.5660   31.0950 H   0  0  0  0  0  0  0  0  0  0  0  0
   37.1050   24.8710   32.4790 C   0  0  0  0  0  0  0  0  0  0  0  0
   36.8080   26.2220   32.1970 C   0  0  0  0  0  0  0  0  0  0  0  0
   35.7430   26.4820   31.3570 C   0  0  0  0  0  0  0  0  0  0  0  0
   35.0330   25.4240   30.8400 N   0  0  0  0  0  0  0  0  0  0  0  0
   35.3540   24.1390   31.1380 C   0  0  0  0  0  0  0  0  0  0  0  0
   36.3890   23.8810   31.9560 N   0  0  0  0  0  0  0  0  0  0  0  0
   37.9190   24.5840   33.1250 H   0  0  0  0  0  0  0  0  0  0  0  0
   35.4210   27.4720   31.0700 H   0  0  0  0  0  0  0  0  0  0  0  0
   34.7220   23.3950   30.6700 H   0  0  0  0  0  0  0  0  0  0  0  0
   40.9450   25.6970   34.7880 C   0  0  0  0  0  0  0  0  0  0  0  0
   40.4320   24.4940   35.2360 C   0  0  0  0  0  3  0  0  0  0  0  0
   41.3170   23.5280   35.7220 C   0  0  0  0  0  0  0  0  0  0  0  0
   40.9460   22.5750   36.0800 H   0  0  0  0  0  0  0  0  0  0  0  0
   42.6350   23.8090   35.7330 N   0  0  0  0  0  0  0  0  0  0  0  0
   43.1340   24.9620   35.3040 C   0  0  0  0  0  3  0  0  0  0  0  0
   42.2960   25.8860   34.8410 N   0  0  0  0  0  0  0  0  0  0  0  0
  1  7  1  6  0  0  0
  1  2  1  0  0  0  0
  2  8  1  0  0  0  0
  2  9  1  0  0  0  0
  2  3  1  0  0  0  0
  3 11  1  0  0  0  0
  3 10  1  0  0  0  0
  4 12  1  1  0  0  0
  4 26  1  0  0  0  0
  4  3  1  0  0  0  0
  5  4  1  0  0  0  0
  6 15  1  0  0  0  0
  6  5  1  0  0  0  0
  6  1  1  0  0  0  0
 13  5  1  0  0  0  0
 14  5  1  0  0  0  0
 16  6  1  0  0  0  0
 17 23  1  0  0  0  0
 18 17  1  0  0  0  0
 18  1  1  0  0  0  0
 19 18  2  0  0  0  0
 20 21  2  0  0  0  0
 20 19  1  0  0  0  0
 21 22  1  0  0  0  0
 22 17  2  0  0  0  0
 24 19  1  0  0  0  0
 25 21  1  0  0  0  0
 26 32  2  0  0  0  0
 26 27  1  0  0  0  0
 27 28  2  0  0  0  0
 28 30  1  0  0  0  0
 28 29  1  0  0  0  0
 31 30  2  0  0  0  0
 32 31  1  0  0  0  0
M  END
>  <minimizedAffinity>
-4.62686872

$$$$

 OpenBabel03272506523D

 32 34  0  0  1  0  0  0  0  0999 V2000
   37.4080   27.4080   32.3960 C   0  0  1  0  0  0  0  0  0  0  0  0
   37.0060   28.6150   31.6840 C   0  0  0  0  0  0  0  0  0  0  0  0
   35.8800   29.4190   32.2740 C   0  0  0  0  0  0  0  0  0  0  0  0
   35.8850   29.4980   33.7550 C   0  0  2  0  0  0  0  0  0  0  0  0
   36.2490   28.2590   34.5000 C   0  0  0  0  0  0  0  0  0  0  0  0
   37.4520   27.6120   33.8910 C   0  0  0  0  0  0  0  0  0  0  0  0
   38.4970   27.1930   32.1450 H   0  0  0  0  0  0  0  0  0  0  0  0
   37.8890   29.3330   31.7560 H   0  0  0  0  0  0  0  0  0  0  0  0
   36.8330   28.5520   30.6140 H   0  0  0  0  0  0  0  0  0  0  0  0
   35.9120   30.4540   31.8770 H   0  0  0  0  0  0  0  0  0  0  0  0
   34.9350   28.9400   31.9380 H   0  0  0  0  0  0  0  0  0  0  0  0
   36.6270   30.2780   34.0580 H   0  0  0  0  0  0  0  0  0  0  0  0
   35.3580   27.5930   34.5190 H   0  0  0  0  0  0  0  0  0  0  0  0
   36.5160   28.5500   35.5210 H   0  0  0  0  0  0  0  0  0  0  0  0
   38.2360   28.4340   33.9850 H   0  0  0  0  0  0  0  0  0  0  0  0
   37.8950   26.8090   34.4670 H   0  0  0  0  0  0  0  0  0  0  0  0
   35.6160   26.1350   31.1470 C   0  0  0  0  0  0  0  0  0  0  0  0
   36.7390   26.1460   32.0030 C   0  0  0  0  0  0  0  0  0  0  0  0
   37.2060   24.9310   32.4630 C   0  0  0  0  0  0  0  0  0  0  0  0
   36.5620   23.7810   32.0710 N   0  0  0  0  0  0  0  0  0  0  0  0
   35.4850   23.8170   31.2450 C   0  0  0  0  0  0  0  0  0  0  0  0
   35.0260   24.9970   30.7940 N   0  0  0  0  0  0  0  0  0  0  0  0
   35.1900   27.0400   30.7440 H   0  0  0  0  0  0  0  0  0  0  0  0
   38.0550   24.8140   33.1210 H   0  0  0  0  0  0  0  0  0  0  0  0
   35.0650   22.8470   31.0080 H   0  0  0  0  0  0  0  0  0  0  0  0
   34.5530   29.9220   34.2570 C   0  0  0  0  0  0  0  0  0  0  0  0
   33.3960   29.4740   33.6470 C   0  0  0  0  0  3  0  0  0  0  0  0
   32.1650   29.8980   34.1530 C   0  0  0  0  0  0  0  0  0  0  0  0
   31.2400   29.5650   33.6980 H   0  0  0  0  0  0  0  0  0  0  0  0
   32.1560   30.7260   35.2160 N   0  0  0  0  0  0  0  0  0  0  0  0
   33.2640   31.1600   35.8060 C   0  0  0  0  0  3  0  0  0  0  0  0
   34.4390   30.7590   35.3280 N   0  0  0  0  0  0  0  0  0  0  0  0
  1  7  1  6  0  0  0
  1  6  1  0  0  0  0
  2  8  1  0  0  0  0
  2  3  1  0  0  0  0
  2  1  1  0  0  0  0
  3  4  1  0  0  0  0
  4 12  1  1  0  0  0
  4 26  1  0  0  0  0
  4  5  1  0  0  0  0
  5 13  1  0  0  0  0
  5 14  1  0  0  0  0
  6 15  1  0  0  0  0
  6 16  1  0  0  0  0
  6  5  1  0  0  0  0
  9  2  1  0  0  0  0
 10  3  1  0  0  0  0
 11  3  1  0  0  0  0
 17 18  1  0  0  0  0
 18  1  1  0  0  0  0
 18 19  2  0  0  0  0
 19 24  1  0  0  0  0
 20 19  1  0  0  0  0
 21 20  2  0  0  0  0
 22 17  2  0  0  0  0
 22 21  1  0  0  0  0
 23 17  1  0  0  0  0
 25 21  1  0  0  0  0
 26 32  1  0  0  0  0
 27 28  1  0  0  0  0
 27 26  2  0  0  0  0
 28 30  2  0  0  0  0
 29 28  1  0  0  0  0
 30 31  1  0  0  0  0
 32 31  2  0  0  0  0
M  END
>  <minimizedAffinity>
-4.62130499

$$$$

 OpenBabel03272506523D

 32 34  0  0  1  0  0  0  0  0999 V2000
   37.7450   26.7300   31.6910 C   0  0  1  0  0  0  0  0  0  0  0  0
   38.6490   25.8600   30.9470 C   0  0  0  0  0  0  0  0  0  0  0  0
   38.3150   24.3940   30.9090 C   0  0  0  0  0  0  0  0  0  0  0  0
   36.8670   24.0910   30.7970 C   0  0  2  0  0  0  0  0  0  0  0  0
   35.9330   24.9410   31.5880 C   0  0  0  0  0  0  0  0  0  0  0  0
   36.2950   26.3860   31.4550 C   0  0  0  0  0  0  0  0  0  0  0  0
   37.8230   27.7790   31.2570 H   0  0  0  0  0  0  0  0  0  0  0  0
   38.5520   26.1670   29.8540 H   0  0  0  0  0  0  0  0  0  0  0  0
   39.7150   25.9450   31.1290 H   0  0  0  0  0  0  0  0  0  0  0  0
   38.8300   23.9170   30.0510 H   0  0  0  0  0  0  0  0  0  0  0  0
   38.7080   23.9510   31.8490 H   0  0  0  0  0  0  0  0  0  0  0  0
   36.5700   24.2070   29.7260 H   0  0  0  0  0  0  0  0  0  0  0  0
   35.9460   24.5830   32.6410 H   0  0  0  0  0  0  0  0  0  0  0  0
   34.9300   24.8150   31.1680 H   0  0  0  0  0  0  0  0  0  0  0  0
   36.2020   26.5510   30.3310 H   0  0  0  0  0  0  0  0  0  0  0  0
   35.5690   27.0890   31.8470 H   0  0  0  0  0  0  0  0  0  0  0  0
   39.3350   26.6660   33.6560 C   0  0  0  0  0  0  0  0  0  0  0  0
   38.0610   26.9560   33.1210 C   0  0  0  0  0  0  0  0  0  0  0  0
   37.1080   27.4700   33.9770 C   0  0  0  0  0  0  0  0  0  0  0  0
   37.4420   27.6720   35.2960 N   0  0  0  0  0  0  0  0  0  0  0  0
   38.6800   27.3800   35.7680 C   0  0  0  0  0  0  0  0  0  0  0  0
   39.6120   26.8800   34.9380 N   0  0  0  0  0  0  0  0  0  0  0  0
   40.1340   26.2640   33.0540 H   0  0  0  0  0  0  0  0  0  0  0  0
   36.1010   27.7300   33.6850 H   0  0  0  0  0  0  0  0  0  0  0  0
   38.8220   27.5820   36.8230 H   0  0  0  0  0  0  0  0  0  0  0  0
   36.6000   22.6840   31.1910 C   0  0  0  0  0  0  0  0  0  0  0  0
   35.4930   22.3650   31.9550 C   0  0  0  0  0  3  0  0  0  0  0  0
   35.2810   21.0280   32.3020 C   0  0  0  0  0  0  0  0  0  0  0  0
   34.4240   20.7460   32.8990 H   0  0  0  0  0  0  0  0  0  0  0  0
   36.1650   20.1050   31.8760 N   0  0  0  0  0  0  0  0  0  0  0  0
   37.2300   20.4050   31.1420 C   0  0  0  0  0  3  0  0  0  0  0  0
   37.4370   21.6760   30.8090 N   0  0  0  0  0  0  0  0  0  0  0  0
  1  7  1  6  0  0  0
  1 18  1  0  0  0  0
  2  9  1  0  0  0  0
  2  1  1  0  0  0  0
  3  2  1  0  0  0  0
  3 11  1  0  0  0  0
  4 12  1  6  0  0  0
  4  3  1  0  0  0  0
  4 26  1  0  0  0  0
  4  5  1  0  0  0  0
  5 13  1  0  0  0  0
  6  5  1  0  0  0  0
  6  1  1  0  0  0  0
  6 16  1  0  0  0  0
  8  2  1  0  0  0  0
 10  3  1  0  0  0  0
 14  5  1  0  0  0  0
 15  6  1  0  0  0  0
 17 22  1  0  0  0  0
 18 17  2  0  0  0  0
 18 19  1  0  0  0  0
 19 20  2  0  0  0  0
 20 21  1  0  0  0  0
 21 25  1  0  0  0  0
 22 21  2  0  0  0  0
 23 17  1  0  0  0  0
 24 19  1  0  0  0  0
 26 27  1  0  0  0  0
 27 28  2  0  0  0  0
 28 29  1  0  0  0  0
 30 28  1  0  0  0  0
 31 30  2  0  0  0  0
 32 31  1  0  0  0  0
 32 26  2  0  0  0  0
M  END
>  <minimizedAffinity>
-4.57466507

$$$$
