
 OpenBabel03272510163D

 26 28  0  0  0  0  0  0  0  0999 V2000
   37.3080   29.3420   51.0520 Br  0  0  0  0  0  0  0  0  0  0  0  0
   35.9620   29.3250   49.7030 C   0  0  0  0  0  0  0  0  0  0  0  0
   35.9910   30.2420   48.6540 C   0  0  0  0  0  0  0  0  0  0  0  0
   34.9870   30.1720   47.7180 C   0  0  0  0  0  0  0  0  0  0  0  0
   33.9630   29.2450   47.7710 C   0  0  0  0  0  0  0  0  0  0  0  0
   33.9600   28.3580   48.8140 C   0  0  0  0  0  0  0  0  0  0  0  0
   34.9560   28.4070   49.7650 C   0  0  0  0  0  0  0  0  0  0  0  0
   35.0240   30.8900   46.9110 H   0  0  0  0  0  0  0  0  0  0  0  0
   33.2090   27.5920   48.9530 H   0  0  0  0  0  0  0  0  0  0  0  0
   34.9580   27.7040   50.5930 H   0  0  0  0  0  0  0  0  0  0  0  0
   37.9890   33.1900   49.4460 C   0  0  0  0  0  0  0  0  0  0  0  0
   39.0220   33.1580   48.4600 C   0  0  0  0  0  0  0  0  0  0  0  0
   39.0080   32.1190   47.5420 C   0  0  0  0  0  0  0  0  0  0  0  0
   38.0140   31.1820   47.6220 N   0  0  0  0  0  0  0  0  0  0  0  0
   37.0500   31.2360   48.5650 C   0  0  0  0  0  0  0  0  0  0  0  0
   37.0430   32.2470   49.4770 N   0  0  0  0  0  0  0  0  0  0  0  0
   37.9290   33.9600   50.1930 H   0  0  0  0  0  0  0  0  0  0  0  0
   39.7620   33.9350   48.4720 H   0  0  0  0  0  0  0  0  0  0  0  0
   39.7790   32.0740   46.7870 H   0  0  0  0  0  0  0  0  0  0  0  0
   32.9000   29.1700   46.7820 C   0  0  0  0  0  0  0  0  0  0  0  0
   32.8530   29.9120   45.6200 C   0  0  0  0  0  3  0  0  0  0  0  0
   31.8160   29.8050   44.7060 C   0  0  0  0  0  0  0  0  0  0  0  0
   31.8660   30.4270   43.8240 H   0  0  0  0  0  0  0  0  0  0  0  0
   30.8120   28.9540   44.9430 N   0  0  0  0  0  0  0  0  0  0  0  0
   30.8450   28.2240   46.0760 C   0  0  0  0  0  3  0  0  0  0  0  0
   31.8540   28.3400   46.9460 N   0  0  0  0  0  0  0  0  0  0  0  0
  2  7  1  0  0  0  0
  2  1  1  0  0  0  0
  3  2  2  0  0  0  0
  4  5  2  0  0  0  0
  4  3  1  0  0  0  0
  5  6  1  0  0  0  0
  6  9  1  0  0  0  0
  6  7  2  0  0  0  0
  7 10  1  0  0  0  0
  8  4  1  0  0  0  0
 11 16  1  0  0  0  0
 11 17  1  0  0  0  0
 12 18  1  0  0  0  0
 12 11  2  0  0  0  0
 13 14  2  0  0  0  0
 13 12  1  0  0  0  0
 14 15  1  0  0  0  0
 15  3  1  0  0  0  0
 15 16  2  0  0  0  0
 19 13  1  0  0  0  0
 20 26  1  0  0  0  0
 20  5  1  0  0  0  0
 21 20  2  0  0  0  0
 22 24  2  0  0  0  0
 22 21  1  0  0  0  0
 23 22  1  0  0  0  0
 24 25  1  0  0  0  0
 25 26  2  0  0  0  0
M  END
>  <minimizedAffinity>
-5.84728861

>  <minimizedRMSD>
0.133803219

$$$$
