
 OpenBabel03272510183D

 26 28  0  0  0  0  0  0  0  0999 V2000
   37.3090   28.6970   29.5190 Br  0  0  0  0  0  0  0  0  0  0  0  0
   36.5610   29.2900   31.1700 C   0  0  0  0  0  0  0  0  0  0  0  0
   36.1440   28.3750   32.1330 C   0  0  0  0  0  0  0  0  0  0  0  0
   35.6120   28.8750   33.2990 C   0  0  0  0  0  0  0  0  0  0  0  0
   35.4750   30.2260   33.5520 C   0  0  0  0  0  0  0  0  0  0  0  0
   35.8930   31.1020   32.5850 C   0  0  0  0  0  0  0  0  0  0  0  0
   36.4290   30.6260   31.4090 C   0  0  0  0  0  0  0  0  0  0  0  0
   35.2930   28.1520   34.0370 H   0  0  0  0  0  0  0  0  0  0  0  0
   35.8330   32.1770   32.6780 H   0  0  0  0  0  0  0  0  0  0  0  0
   36.7630   31.3160   30.6400 H   0  0  0  0  0  0  0  0  0  0  0  0
   35.3160   25.0130   30.9860 C   0  0  0  0  0  0  0  0  0  0  0  0
   36.4290   24.2340   31.4290 C   0  0  0  0  0  0  0  0  0  0  0  0
   37.4420   24.8860   32.1130 C   0  0  0  0  0  0  0  0  0  0  0  0
   37.3310   26.2320   32.3320 N   0  0  0  0  0  0  0  0  0  0  0  0
   36.2670   26.9440   31.9040 C   0  0  0  0  0  0  0  0  0  0  0  0
   35.2590   26.3250   31.2290 N   0  0  0  0  0  0  0  0  0  0  0  0
   34.4900   24.5840   30.4490 H   0  0  0  0  0  0  0  0  0  0  0  0
   36.4330   23.1830   31.2130 H   0  0  0  0  0  0  0  0  0  0  0  0
   38.2940   24.3180   32.4580 H   0  0  0  0  0  0  0  0  0  0  0  0
   34.9130   30.7570   34.7840 C   0  0  0  0  0  0  0  0  0  0  0  0
   35.5950   31.5530   35.6800 C   0  0  0  0  0  3  0  0  0  0  0  0
   35.0150   32.0350   36.8430 C   0  0  0  0  0  0  0  0  0  0  0  0
   35.6280   32.6530   37.4850 H   0  0  0  0  0  0  0  0  0  0  0  0
   33.7440   31.7280   37.1240 N   0  0  0  0  0  0  0  0  0  0  0  0
   33.0660   30.9520   36.2560 C   0  0  0  0  0  3  0  0  0  0  0  0
   33.6420   30.4940   35.1390 N   0  0  0  0  0  0  0  0  0  0  0  0
  1  2  1  0  0  0  0
  2  7  2  0  0  0  0
  2  3  1  0  0  0  0
  3  4  2  0  0  0  0
  4  5  1  0  0  0  0
  4  8  1  0  0  0  0
  5 20  1  0  0  0  0
  6  9  1  0  0  0  0
  6  5  2  0  0  0  0
  7  6  1  0  0  0  0
 10  7  1  0  0  0  0
 11 16  2  0  0  0  0
 11 12  1  0  0  0  0
 12 13  2  0  0  0  0
 13 14  1  0  0  0  0
 13 19  1  0  0  0  0
 15  3  1  0  0  0  0
 15 14  2  0  0  0  0
 16 15  1  0  0  0  0
 17 11  1  0  0  0  0
 18 12  1  0  0  0  0
 20 26  2  0  0  0  0
 20 21  1  0  0  0  0
 21 22  2  0  0  0  0
 22 24  1  0  0  0  0
 22 23  1  0  0  0  0
 25 24  2  0  0  0  0
 26 25  1  0  0  0  0
M  END
>  <minimizedAffinity>
-5.15632915

$$$$

 OpenBabel03272510183D

 26 28  0  0  0  0  0  0  0  0999 V2000
   35.0970   31.7510   32.2900 Br  0  0  0  0  0  0  0  0  0  0  0  0
   35.7800   30.0730   32.8830 C   0  0  0  0  0  0  0  0  0  0  0  0
   35.6450   29.6770   34.2120 C   0  0  0  0  0  0  0  0  0  0  0  0
   36.1630   28.4550   34.5690 C   0  0  0  0  0  0  0  0  0  0  0  0
   36.8030   27.6130   33.6800 C   0  0  0  0  0  0  0  0  0  0  0  0
   36.9210   28.0290   32.3800 C   0  0  0  0  0  0  0  0  0  0  0  0
   36.4100   29.2500   31.9980 C   0  0  0  0  0  0  0  0  0  0  0  0
   36.0500   28.1620   35.6040 H   0  0  0  0  0  0  0  0  0  0  0  0
   37.4020   27.4520   31.6030 H   0  0  0  0  0  0  0  0  0  0  0  0
   36.5000   29.5840   30.9680 H   0  0  0  0  0  0  0  0  0  0  0  0
   32.9570   31.2240   36.1340 C   0  0  0  0  0  0  0  0  0  0  0  0
   33.6520   32.1320   36.9930 C   0  0  0  0  0  0  0  0  0  0  0  0
   35.0320   32.1900   36.8900 C   0  0  0  0  0  0  0  0  0  0  0  0
   35.6610   31.3850   35.9800 N   0  0  0  0  0  0  0  0  0  0  0  0
   34.9810   30.5370   35.1810 C   0  0  0  0  0  0  0  0  0  0  0  0
   33.6240   30.4610   35.2640 N   0  0  0  0  0  0  0  0  0  0  0  0
   31.8880   31.1180   36.1520 H   0  0  0  0  0  0  0  0  0  0  0  0
   33.0770   32.7260   37.6770 H   0  0  0  0  0  0  0  0  0  0  0  0
   35.5790   32.8700   37.5280 H   0  0  0  0  0  0  0  0  0  0  0  0
   37.3520   26.3200   34.0550 C   0  0  0  0  0  0  0  0  0  0  0  0
   37.7230   25.9650   35.3350 C   0  0  0  0  0  3  0  0  0  0  0  0
   38.2420   24.7180   35.6450 C   0  0  0  0  0  0  0  0  0  0  0  0
   38.5050   24.5310   36.6760 H   0  0  0  0  0  0  0  0  0  0  0  0
   38.3950   23.8080   34.6770 N   0  0  0  0  0  0  0  0  0  0  0  0
   38.0350   24.1410   33.4220 C   0  0  0  0  0  3  0  0  0  0  0  0
   37.5370   25.3500   33.1410 N   0  0  0  0  0  0  0  0  0  0  0  0
  1  2  1  0  0  0  0
  2  3  1  0  0  0  0
  3  4  2  0  0  0  0
  3 15  1  0  0  0  0
  4  8  1  0  0  0  0
  5 20  1  0  0  0  0
  5  4  1  0  0  0  0
  6  5  2  0  0  0  0
  7  6  1  0  0  0  0
  7  2  2  0  0  0  0
  9  6  1  0  0  0  0
 10  7  1  0  0  0  0
 11 17  1  0  0  0  0
 11 12  1  0  0  0  0
 12 18  1  0  0  0  0
 13 12  2  0  0  0  0
 13 19  1  0  0  0  0
 14 13  1  0  0  0  0
 15 16  1  0  0  0  0
 15 14  2  0  0  0  0
 16 11  2  0  0  0  0
 20 21  1  0  0  0  0
 21 22  2  0  0  0  0
 22 23  1  0  0  0  0
 24 22  1  0  0  0  0
 25 24  2  0  0  0  0
 26 25  1  0  0  0  0
 26 20  2  0  0  0  0
M  END
>  <minimizedAffinity>
-5.08398104

$$$$

 OpenBabel03272510183D

 26 28  0  0  0  0  0  0  0  0999 V2000
   36.4190   28.0330   31.8760 Br  0  0  0  0  0  0  0  0  0  0  0  0
   36.3040   26.1310   31.8060 C   0  0  0  0  0  0  0  0  0  0  0  0
   37.2370   25.3350   32.4670 C   0  0  0  0  0  0  0  0  0  0  0  0
   37.0930   23.9710   32.3710 C   0  0  0  0  0  0  0  0  0  0  0  0
   36.0780   23.3630   31.6580 C   0  0  0  0  0  0  0  0  0  0  0  0
   35.1760   24.1710   31.0180 C   0  0  0  0  0  0  0  0  0  0  0  0
   35.2980   25.5410   31.0990 C   0  0  0  0  0  0  0  0  0  0  0  0
   37.8250   23.3680   32.8900 H   0  0  0  0  0  0  0  0  0  0  0  0
   34.3440   23.8030   30.4330 H   0  0  0  0  0  0  0  0  0  0  0  0
   34.5850   26.1860   30.5940 H   0  0  0  0  0  0  0  0  0  0  0  0
   39.0820   26.6940   35.3050 C   0  0  0  0  0  0  0  0  0  0  0  0
   40.3350   27.0700   34.7290 C   0  0  0  0  0  0  0  0  0  0  0  0
   40.5160   26.8450   33.3740 C   0  0  0  0  0  0  0  0  0  0  0  0
   39.4980   26.2810   32.6560 N   0  0  0  0  0  0  0  0  0  0  0  0
   38.3240   25.9360   33.2250 C   0  0  0  0  0  0  0  0  0  0  0  0
   38.1220   26.1460   34.5550 N   0  0  0  0  0  0  0  0  0  0  0  0
   38.8620   26.8340   36.3470 H   0  0  0  0  0  0  0  0  0  0  0  0
   41.0790   27.5070   35.3680 H   0  0  0  0  0  0  0  0  0  0  0  0
   41.4560   27.1210   32.9160 H   0  0  0  0  0  0  0  0  0  0  0  0
   35.9240   21.9210   31.5550 C   0  0  0  0  0  0  0  0  0  0  0  0
   34.9580   21.1850   32.2090 C   0  0  0  0  0  3  0  0  0  0  0  0
   34.8510   19.8090   32.0800 C   0  0  0  0  0  0  0  0  0  0  0  0
   34.0610   19.3180   32.6310 H   0  0  0  0  0  0  0  0  0  0  0  0
   35.7090   19.1510   31.2930 N   0  0  0  0  0  0  0  0  0  0  0  0
   36.6570   19.8580   30.6470 C   0  0  0  0  0  3  0  0  0  0  0  0
   36.7470   21.1860   30.7850 N   0  0  0  0  0  0  0  0  0  0  0  0
  2  1  1  0  0  0  0
  2  3  1  0  0  0  0
  3 15  1  0  0  0  0
  4  3  2  0  0  0  0
  4  8  1  0  0  0  0
  5  4  1  0  0  0  0
  6  7  1  0  0  0  0
  6  5  2  0  0  0  0
  7  2  2  0  0  0  0
  9  6  1  0  0  0  0
 10  7  1  0  0  0  0
 11 17  1  0  0  0  0
 12 11  1  0  0  0  0
 12 18  1  0  0  0  0
 13 12  2  0  0  0  0
 14 15  2  0  0  0  0
 14 13  1  0  0  0  0
 15 16  1  0  0  0  0
 16 11  2  0  0  0  0
 19 13  1  0  0  0  0
 20  5  1  0  0  0  0
 20 21  1  0  0  0  0
 22 21  2  0  0  0  0
 22 23  1  0  0  0  0
 24 22  1  0  0  0  0
 25 26  1  0  0  0  0
 25 24  2  0  0  0  0
 26 20  2  0  0  0  0
M  END
>  <minimizedAffinity>
-5.06474686

$$$$

 OpenBabel03272510183D

 26 28  0  0  0  0  0  0  0  0999 V2000
   35.3070   31.4020   32.0330 Br  0  0  0  0  0  0  0  0  0  0  0  0
   35.9770   29.7690   32.7540 C   0  0  0  0  0  0  0  0  0  0  0  0
   35.8020   29.4590   34.1010 C   0  0  0  0  0  0  0  0  0  0  0  0
   36.3130   28.2660   34.5520 C   0  0  0  0  0  0  0  0  0  0  0  0
   36.9840   27.3720   33.7390 C   0  0  0  0  0  0  0  0  0  0  0  0
   37.1410   27.7040   32.4200 C   0  0  0  0  0  0  0  0  0  0  0  0
   36.6380   28.8950   31.9440 C   0  0  0  0  0  0  0  0  0  0  0  0
   36.1690   28.0400   35.6000 H   0  0  0  0  0  0  0  0  0  0  0  0
   37.6480   27.0800   31.6970 H   0  0  0  0  0  0  0  0  0  0  0  0
   36.7590   29.1620   30.8980 H   0  0  0  0  0  0  0  0  0  0  0  0
   35.2770   32.1200   36.5410 C   0  0  0  0  0  0  0  0  0  0  0  0
   33.8570   32.1430   36.6980 C   0  0  0  0  0  0  0  0  0  0  0  0
   33.1110   31.2400   35.9580 C   0  0  0  0  0  0  0  0  0  0  0  0
   33.7610   30.3760   35.1200 N   0  0  0  0  0  0  0  0  0  0  0  0
   35.1050   30.3760   34.9910 C   0  0  0  0  0  0  0  0  0  0  0  0
   35.8590   31.2540   35.7070 N   0  0  0  0  0  0  0  0  0  0  0  0
   35.9270   32.7870   37.0770 H   0  0  0  0  0  0  0  0  0  0  0  0
   33.4310   32.8550   37.3780 H   0  0  0  0  0  0  0  0  0  0  0  0
   32.0350   31.2380   36.0600 H   0  0  0  0  0  0  0  0  0  0  0  0
   37.5250   26.1090   34.2140 C   0  0  0  0  0  0  0  0  0  0  0  0
   37.8350   25.8310   35.5290 C   0  0  0  0  0  3  0  0  0  0  0  0
   38.3500   24.6100   35.9350 C   0  0  0  0  0  0  0  0  0  0  0  0
   38.5620   24.4840   36.9870 H   0  0  0  0  0  0  0  0  0  0  0  0
   38.5600   23.6490   35.0290 N   0  0  0  0  0  0  0  0  0  0  0  0
   38.2610   23.9060   33.7400 C   0  0  0  0  0  3  0  0  0  0  0  0
   37.7660   25.0910   33.3670 N   0  0  0  0  0  0  0  0  0  0  0  0
  1  2  1  0  0  0  0
  2  3  1  0  0  0  0
  3  4  2  0  0  0  0
  3 15  1  0  0  0  0
  4  8  1  0  0  0  0
  5 20  1  0  0  0  0
  5  4  1  0  0  0  0
  6  5  2  0  0  0  0
  7  6  1  0  0  0  0
  7  2  2  0  0  0  0
  9  6  1  0  0  0  0
 10  7  1  0  0  0  0
 11 12  1  0  0  0  0
 11 17  1  0  0  0  0
 12 18  1  0  0  0  0
 13 19  1  0  0  0  0
 13 12  2  0  0  0  0
 14 13  1  0  0  0  0
 15 14  2  0  0  0  0
 15 16  1  0  0  0  0
 16 11  2  0  0  0  0
 20 21  1  0  0  0  0
 21 22  2  0  0  0  0
 22 23  1  0  0  0  0
 24 22  1  0  0  0  0
 25 24  2  0  0  0  0
 26 25  1  0  0  0  0
 26 20  2  0  0  0  0
M  END
>  <minimizedAffinity>
-5.04317427

$$$$

 OpenBabel03272510183D

 26 28  0  0  0  0  0  0  0  0999 V2000
   35.1150   31.7840   32.2420 Br  0  0  0  0  0  0  0  0  0  0  0  0
   35.7790   30.0960   32.8290 C   0  0  0  0  0  0  0  0  0  0  0  0
   35.6560   29.7050   34.1600 C   0  0  0  0  0  0  0  0  0  0  0  0
   36.1600   28.4760   34.5130 C   0  0  0  0  0  0  0  0  0  0  0  0
   36.7750   27.6220   33.6180 C   0  0  0  0  0  0  0  0  0  0  0  0
   36.8820   28.0340   32.3160 C   0  0  0  0  0  0  0  0  0  0  0  0
   36.3850   29.2620   31.9370 C   0  0  0  0  0  0  0  0  0  0  0  0
   36.0560   28.1870   35.5500 H   0  0  0  0  0  0  0  0  0  0  0  0
   37.3440   27.4480   31.5330 H   0  0  0  0  0  0  0  0  0  0  0  0
   36.4670   29.5920   30.9060 H   0  0  0  0  0  0  0  0  0  0  0  0
   33.0260   31.2430   36.1680 C   0  0  0  0  0  0  0  0  0  0  0  0
   33.7380   32.1920   36.9650 C   0  0  0  0  0  0  0  0  0  0  0  0
   35.1100   32.2810   36.7920 C   0  0  0  0  0  0  0  0  0  0  0  0
   35.7140   31.4640   35.8760 N   0  0  0  0  0  0  0  0  0  0  0  0
   35.0180   30.5770   35.1360 C   0  0  0  0  0  0  0  0  0  0  0  0
   33.6690   30.4700   35.2880 N   0  0  0  0  0  0  0  0  0  0  0  0
   31.9620   31.1110   36.2410 H   0  0  0  0  0  0  0  0  0  0  0  0
   33.1820   32.7930   37.6590 H   0  0  0  0  0  0  0  0  0  0  0  0
   35.6690   32.9920   37.3830 H   0  0  0  0  0  0  0  0  0  0  0  0
   37.3080   26.3220   33.9880 C   0  0  0  0  0  0  0  0  0  0  0  0
   37.5770   25.3000   33.1020 C   0  0  0  0  0  3  0  0  0  0  0  0
   38.0860   24.0750   33.5040 C   0  0  0  0  0  0  0  0  0  0  0  0
   38.2650   23.3350   32.7370 H   0  0  0  0  0  0  0  0  0  0  0  0
   38.3350   23.8570   34.8000 N   0  0  0  0  0  0  0  0  0  0  0  0
   38.0780   24.8470   35.6770 C   0  0  0  0  0  3  0  0  0  0  0  0
   37.5860   26.0230   35.2710 N   0  0  0  0  0  0  0  0  0  0  0  0
  1  2  1  0  0  0  0
  2  3  1  0  0  0  0
  3  4  2  0  0  0  0
  3 15  1  0  0  0  0
  4  8  1  0  0  0  0
  5 20  1  0  0  0  0
  5  4  1  0  0  0  0
  6  5  2  0  0  0  0
  7  6  1  0  0  0  0
  7  2  2  0  0  0  0
  9  6  1  0  0  0  0
 10  7  1  0  0  0  0
 11 17  1  0  0  0  0
 11 12  1  0  0  0  0
 12 18  1  0  0  0  0
 13 12  2  0  0  0  0
 13 19  1  0  0  0  0
 14 13  1  0  0  0  0
 15 16  1  0  0  0  0
 15 14  2  0  0  0  0
 16 11  2  0  0  0  0
 20 26  1  0  0  0  0
 21 22  1  0  0  0  0
 21 20  2  0  0  0  0
 22 24  2  0  0  0  0
 23 22  1  0  0  0  0
 24 25  1  0  0  0  0
 26 25  2  0  0  0  0
M  END
>  <minimizedAffinity>
-5.02636814

$$$$

 OpenBabel03272510183D

 26 28  0  0  0  0  0  0  0  0999 V2000
   39.1280   27.3940   30.6690 Br  0  0  0  0  0  0  0  0  0  0  0  0
   38.2480   25.7200   30.9090 C   0  0  0  0  0  0  0  0  0  0  0  0
   37.1330   25.6130   31.7370 C   0  0  0  0  0  0  0  0  0  0  0  0
   36.5500   24.3750   31.8640 C   0  0  0  0  0  0  0  0  0  0  0  0
   37.0160   23.2460   31.2160 C   0  0  0  0  0  0  0  0  0  0  0  0
   38.1140   23.3830   30.4090 C   0  0  0  0  0  0  0  0  0  0  0  0
   38.7160   24.6140   30.2650 C   0  0  0  0  0  0  0  0  0  0  0  0
   35.6850   24.3080   32.5100 H   0  0  0  0  0  0  0  0  0  0  0  0
   38.5620   22.5680   29.8560 H   0  0  0  0  0  0  0  0  0  0  0  0
   39.5860   24.7270   29.6260 H   0  0  0  0  0  0  0  0  0  0  0  0
   35.1910   28.6340   32.3820 C   0  0  0  0  0  0  0  0  0  0  0  0
   35.5830   28.9960   33.7080 C   0  0  0  0  0  0  0  0  0  0  0  0
   36.5090   28.1900   34.3500 C   0  0  0  0  0  0  0  0  0  0  0  0
   37.0010   27.0960   33.6930 N   0  0  0  0  0  0  0  0  0  0  0  0
   36.6130   26.7770   32.4400 C   0  0  0  0  0  0  0  0  0  0  0  0
   35.7050   27.5530   31.7880 N   0  0  0  0  0  0  0  0  0  0  0  0
   34.4790   29.2050   31.8150 H   0  0  0  0  0  0  0  0  0  0  0  0
   35.1460   29.8730   34.1460 H   0  0  0  0  0  0  0  0  0  0  0  0
   36.8210   28.4440   35.3530 H   0  0  0  0  0  0  0  0  0  0  0  0
   36.4010   21.9360   31.3490 C   0  0  0  0  0  0  0  0  0  0  0  0
   35.2760   21.6680   32.1010 C   0  0  0  0  0  3  0  0  0  0  0  0
   34.7260   20.3990   32.1980 C   0  0  0  0  0  0  0  0  0  0  0  0
   33.8430   20.2860   32.8110 H   0  0  0  0  0  0  0  0  0  0  0  0
   35.2930   19.3820   31.5410 N   0  0  0  0  0  0  0  0  0  0  0  0
   36.3930   19.6300   30.8020 C   0  0  0  0  0  3  0  0  0  0  0  0
   36.9110   20.8600   30.7210 N   0  0  0  0  0  0  0  0  0  0  0  0
  1  2  1  0  0  0  0
  2  3  1  0  0  0  0
  3  4  2  0  0  0  0
  3 15  1  0  0  0  0
  4  8  1  0  0  0  0
  5 20  1  0  0  0  0
  5  4  1  0  0  0  0
  6  5  2  0  0  0  0
  7  6  1  0  0  0  0
  7  2  2  0  0  0  0
  9  6  1  0  0  0  0
 10  7  1  0  0  0  0
 11 12  1  0  0  0  0
 12 18  1  0  0  0  0
 12 13  2  0  0  0  0
 13 19  1  0  0  0  0
 14 13  1  0  0  0  0
 15 14  2  0  0  0  0
 16 11  2  0  0  0  0
 16 15  1  0  0  0  0
 17 11  1  0  0  0  0
 20 21  1  0  0  0  0
 21 22  2  0  0  0  0
 22 23  1  0  0  0  0
 24 22  1  0  0  0  0
 25 24  2  0  0  0  0
 26 25  1  0  0  0  0
 26 20  2  0  0  0  0
M  END
>  <minimizedAffinity>
-4.82808447

$$$$

 OpenBabel03272510183D

 26 28  0  0  0  0  0  0  0  0999 V2000
   35.5820   32.9790   32.4660 Br  0  0  0  0  0  0  0  0  0  0  0  0
   35.7670   31.0830   32.3910 C   0  0  0  0  0  0  0  0  0  0  0  0
   35.3970   30.2870   33.4730 C   0  0  0  0  0  0  0  0  0  0  0  0
   35.5610   28.9280   33.3490 C   0  0  0  0  0  0  0  0  0  0  0  0
   36.0680   28.3240   32.2150 C   0  0  0  0  0  0  0  0  0  0  0  0
   36.4230   29.1330   31.1680 C   0  0  0  0  0  0  0  0  0  0  0  0
   36.2690   30.4980   31.2670 C   0  0  0  0  0  0  0  0  0  0  0  0
   35.2690   28.3240   34.1980 H   0  0  0  0  0  0  0  0  0  0  0  0
   36.8300   28.7680   30.2340 H   0  0  0  0  0  0  0  0  0  0  0  0
   36.5490   31.1430   30.4390 H   0  0  0  0  0  0  0  0  0  0  0  0
   32.9580   31.4370   35.9300 C   0  0  0  0  0  0  0  0  0  0  0  0
   33.7740   31.9960   36.9620 C   0  0  0  0  0  0  0  0  0  0  0  0
   35.1480   31.9640   36.7870 C   0  0  0  0  0  0  0  0  0  0  0  0
   35.6560   31.4050   35.6470 N   0  0  0  0  0  0  0  0  0  0  0  0
   34.8620   30.8840   34.6880 C   0  0  0  0  0  0  0  0  0  0  0  0
   33.5090   30.9030   34.8370 N   0  0  0  0  0  0  0  0  0  0  0  0
   31.8860   31.4210   35.9890 H   0  0  0  0  0  0  0  0  0  0  0  0
   33.2900   32.4150   37.8240 H   0  0  0  0  0  0  0  0  0  0  0  0
   35.7860   32.3810   37.5540 H   0  0  0  0  0  0  0  0  0  0  0  0
   36.2410   26.8870   32.0820 C   0  0  0  0  0  0  0  0  0  0  0  0
   37.1290   26.1310   32.8180 C   0  0  0  0  0  3  0  0  0  0  0  0
   37.2580   24.7600   32.6560 C   0  0  0  0  0  0  0  0  0  0  0  0
   37.9810   24.2510   33.2780 H   0  0  0  0  0  0  0  0  0  0  0  0
   36.4990   24.1280   31.7540 N   0  0  0  0  0  0  0  0  0  0  0  0
   35.6270   24.8550   31.0280 C   0  0  0  0  0  3  0  0  0  0  0  0
   35.5160   26.1770   31.1980 N   0  0  0  0  0  0  0  0  0  0  0  0
  2  1  1  0  0  0  0
  2  3  1  0  0  0  0
  3 15  1  0  0  0  0
  4  3  2  0  0  0  0
  4  8  1  0  0  0  0
  5  4  1  0  0  0  0
  6  7  1  0  0  0  0
  6  5  2  0  0  0  0
  7  2  2  0  0  0  0
  9  6  1  0  0  0  0
 10  7  1  0  0  0  0
 11 17  1  0  0  0  0
 11 12  1  0  0  0  0
 12 18  1  0  0  0  0
 13 12  2  0  0  0  0
 13 19  1  0  0  0  0
 14 13  1  0  0  0  0
 15 16  1  0  0  0  0
 15 14  2  0  0  0  0
 16 11  2  0  0  0  0
 20  5  1  0  0  0  0
 20 21  1  0  0  0  0
 22 21  2  0  0  0  0
 22 23  1  0  0  0  0
 24 22  1  0  0  0  0
 25 26  1  0  0  0  0
 25 24  2  0  0  0  0
 26 20  2  0  0  0  0
M  END
>  <minimizedAffinity>
-4.82723856

$$$$

 OpenBabel03272510183D

 26 28  0  0  0  0  0  0  0  0999 V2000
   37.3000   25.7800   31.3170 Br  0  0  0  0  0  0  0  0  0  0  0  0
   36.6610   27.1670   32.4590 C   0  0  0  0  0  0  0  0  0  0  0  0
   37.1850   27.3350   33.7390 C   0  0  0  0  0  0  0  0  0  0  0  0
   36.6750   28.3540   34.5080 C   0  0  0  0  0  0  0  0  0  0  0  0
   35.6800   29.2090   34.0730 C   0  0  0  0  0  0  0  0  0  0  0  0
   35.1850   29.0190   32.8100 C   0  0  0  0  0  0  0  0  0  0  0  0
   35.6790   28.0040   32.0200 C   0  0  0  0  0  0  0  0  0  0  0  0
   37.0920   28.4710   35.4990 H   0  0  0  0  0  0  0  0  0  0  0  0
   34.4080   29.6280   32.3690 H   0  0  0  0  0  0  0  0  0  0  0  0
   35.2900   27.8510   31.0180 H   0  0  0  0  0  0  0  0  0  0  0  0
   40.5230   26.1120   34.5580 C   0  0  0  0  0  0  0  0  0  0  0  0
   40.2660   24.8410   35.1580 C   0  0  0  0  0  0  0  0  0  0  0  0
   38.9470   24.4330   35.2670 C   0  0  0  0  0  0  0  0  0  0  0  0
   37.9600   25.2570   34.8000 N   0  0  0  0  0  0  0  0  0  0  0  0
   38.2310   26.4530   34.2370 C   0  0  0  0  0  0  0  0  0  0  0  0
   39.5190   26.8760   34.1190 N   0  0  0  0  0  0  0  0  0  0  0  0
   41.5170   26.5020   34.4370 H   0  0  0  0  0  0  0  0  0  0  0  0
   41.1030   24.2590   35.4960 H   0  0  0  0  0  0  0  0  0  0  0  0
   38.7280   23.4750   35.7160 H   0  0  0  0  0  0  0  0  0  0  0  0
   35.1400   30.2880   34.8840 C   0  0  0  0  0  0  0  0  0  0  0  0
   35.8930   31.1240   35.6810 C   0  0  0  0  0  3  0  0  0  0  0  0
   35.3320   32.1410   36.4370 C   0  0  0  0  0  0  0  0  0  0  0  0
   36.0020   32.7470   37.0320 H   0  0  0  0  0  0  0  0  0  0  0  0
   34.0090   32.3350   36.4050 N   0  0  0  0  0  0  0  0  0  0  0  0
   33.2620   31.5250   35.6300 C   0  0  0  0  0  3  0  0  0  0  0  0
   33.8200   30.5480   34.9070 N   0  0  0  0  0  0  0  0  0  0  0  0
  1  2  1  0  0  0  0
  2  3  1  0  0  0  0
  3 15  1  0  0  0  0
  3  4  2  0  0  0  0
  4  8  1  0  0  0  0
  5  4  1  0  0  0  0
  5 20  1  0  0  0  0
  6  5  2  0  0  0  0
  7  2  2  0  0  0  0
  7  6  1  0  0  0  0
  9  6  1  0  0  0  0
 10  7  1  0  0  0  0
 11 12  1  0  0  0  0
 12 13  2  0  0  0  0
 12 18  1  0  0  0  0
 13 19  1  0  0  0  0
 14 13  1  0  0  0  0
 15 14  2  0  0  0  0
 16 15  1  0  0  0  0
 16 11  2  0  0  0  0
 17 11  1  0  0  0  0
 20 26  2  0  0  0  0
 20 21  1  0  0  0  0
 21 22  2  0  0  0  0
 22 23  1  0  0  0  0
 24 22  1  0  0  0  0
 25 24  2  0  0  0  0
 26 25  1  0  0  0  0
M  END
>  <minimizedAffinity>
-4.82038116

$$$$

 OpenBabel03272510183D

 26 28  0  0  0  0  0  0  0  0999 V2000
   39.3230   26.4330   34.8730 Br  0  0  0  0  0  0  0  0  0  0  0  0
   38.6750   24.9000   33.9420 C   0  0  0  0  0  0  0  0  0  0  0  0
   38.3700   23.7260   34.6270 C   0  0  0  0  0  0  0  0  0  0  0  0
   37.9090   22.6600   33.8910 C   0  0  0  0  0  0  0  0  0  0  0  0
   37.7380   22.7010   32.5200 C   0  0  0  0  0  0  0  0  0  0  0  0
   38.0470   23.8690   31.8750 C   0  0  0  0  0  0  0  0  0  0  0  0
   38.5100   24.9510   32.5900 C   0  0  0  0  0  0  0  0  0  0  0  0
   37.6770   21.7560   34.4370 H   0  0  0  0  0  0  0  0  0  0  0  0
   37.9510   24.0120   30.8070 H   0  0  0  0  0  0  0  0  0  0  0  0
   38.7550   25.8790   32.0820 H   0  0  0  0  0  0  0  0  0  0  0  0
   39.8800   22.9240   37.8500 C   0  0  0  0  0  0  0  0  0  0  0  0
   38.9340   23.4400   38.7900 C   0  0  0  0  0  0  0  0  0  0  0  0
   37.7960   24.0530   38.2910 C   0  0  0  0  0  0  0  0  0  0  0  0
   37.6310   24.1360   36.9350 N   0  0  0  0  0  0  0  0  0  0  0  0
   38.5400   23.6400   36.0700 C   0  0  0  0  0  0  0  0  0  0  0  0
   39.6660   23.0330   36.5360 N   0  0  0  0  0  0  0  0  0  0  0  0
   40.7870   22.4360   38.1540 H   0  0  0  0  0  0  0  0  0  0  0  0
   39.1450   23.3300   39.8360 H   0  0  0  0  0  0  0  0  0  0  0  0
   37.0670   24.4500   38.9820 H   0  0  0  0  0  0  0  0  0  0  0  0
   37.2510   21.5750   31.7410 C   0  0  0  0  0  0  0  0  0  0  0  0
   36.0600   20.9170   31.9690 C   0  0  0  0  0  3  0  0  0  0  0  0
   35.6380   19.8470   31.1960 C   0  0  0  0  0  0  0  0  0  0  0  0
   34.6900   19.3940   31.4500 H   0  0  0  0  0  0  0  0  0  0  0  0
   36.4010   19.4210   30.1840 N   0  0  0  0  0  0  0  0  0  0  0  0
   37.5660   20.0550   29.9490 C   0  0  0  0  0  3  0  0  0  0  0  0
   37.9590   21.0860   30.7060 N   0  0  0  0  0  0  0  0  0  0  0  0
  2  3  1  0  0  0  0
  2  1  1  0  0  0  0
  3 15  1  0  0  0  0
  4  8  1  0  0  0  0
  4  3  2  0  0  0  0
  5  4  1  0  0  0  0
  6  5  2  0  0  0  0
  6  7  1  0  0  0  0
  7  2  2  0  0  0  0
  9  6  1  0  0  0  0
 10  7  1  0  0  0  0
 11 17  1  0  0  0  0
 11 12  1  0  0  0  0
 12 18  1  0  0  0  0
 13 12  2  0  0  0  0
 13 19  1  0  0  0  0
 14 13  1  0  0  0  0
 15 16  1  0  0  0  0
 15 14  2  0  0  0  0
 16 11  2  0  0  0  0
 20 21  1  0  0  0  0
 20  5  1  0  0  0  0
 22 23  1  0  0  0  0
 22 21  2  0  0  0  0
 24 22  1  0  0  0  0
 25 24  2  0  0  0  0
 25 26  1  0  0  0  0
 26 20  2  0  0  0  0
M  END
>  <minimizedAffinity>
-4.77940273

$$$$
