
 OpenBabel03272506183D

 32 34  0  0  0  0  0  0  0  0999 V2000
   35.5180   30.2650   49.8920 C   0  0  0  0  0  0  0  0  0  0  0  0
   36.4480   31.2370   49.1970 C   0  0  0  0  0  0  0  0  0  0  0  0
   37.8970   30.8740   49.3360 C   0  0  0  0  0  0  0  0  0  0  0  0
   38.3180   30.6880   50.7700 C   0  0  0  0  0  0  0  0  0  0  0  0
   37.2990   29.9780   51.6060 C   0  0  0  0  0  0  0  0  0  0  0  0
   36.2410   29.2950   50.7620 C   0  0  0  0  0  0  0  0  0  0  0  0
   34.7480   30.7960   50.4890 H   0  0  0  0  0  0  0  0  0  0  0  0
   36.3270   32.2430   49.6830 H   0  0  0  0  0  0  0  0  0  0  0  0
   36.2120   31.3820   48.1460 H   0  0  0  0  0  0  0  0  0  0  0  0
   38.1050   29.9400   48.7540 H   0  0  0  0  0  0  0  0  0  0  0  0
   38.4850   31.7130   48.9150 H   0  0  0  0  0  0  0  0  0  0  0  0
   38.6860   31.6380   51.2140 H   0  0  0  0  0  0  0  0  0  0  0  0
   39.2220   30.0210   50.7430 H   0  0  0  0  0  0  0  0  0  0  0  0
   36.7600   30.7780   52.1800 H   0  0  0  0  0  0  0  0  0  0  0  0
   37.7150   29.2890   52.3490 H   0  0  0  0  0  0  0  0  0  0  0  0
   36.7660   28.4950   50.1820 H   0  0  0  0  0  0  0  0  0  0  0  0
   35.5430   28.7750   51.4230 H   0  0  0  0  0  0  0  0  0  0  0  0
   34.7650   29.4730   48.8720 C   0  0  0  0  0  0  0  0  0  0  0  0
   34.2840   30.1890   47.7520 C   0  0  0  0  0  0  0  0  0  0  0  0
   33.5820   29.4720   46.7970 C   0  0  0  0  0  0  0  0  0  0  0  0
   33.3800   28.1160   46.9670 N   0  0  0  0  0  0  0  0  0  0  0  0
   33.8670   27.4690   48.0710 C   0  0  0  0  0  0  0  0  0  0  0  0
   34.5450   28.1420   49.0000 N   0  0  0  0  0  0  0  0  0  0  0  0
   34.3950   31.2190   47.5610 H   0  0  0  0  0  0  0  0  0  0  0  0
   33.6870   26.4060   48.1680 H   0  0  0  0  0  0  0  0  0  0  0  0
   33.0140   30.0410   45.5820 C   0  0  0  0  0  0  0  0  0  0  0  0
   32.0920   31.0640   45.5930 C   0  0  0  0  0  3  0  0  0  0  0  0
   31.5310   31.6320   44.4640 C   0  0  0  0  0  0  0  0  0  0  0  0
   30.8110   32.4330   44.5040 H   0  0  0  0  0  0  0  0  0  0  0  0
   31.9150   31.1480   43.2470 N   0  0  0  0  0  0  0  0  0  0  0  0
   32.8280   30.1340   43.2320 C   0  0  0  0  0  3  0  0  0  0  0  0
   33.3480   29.6120   44.3530 N   0  0  0  0  0  0  0  0  0  0  0  0
  1  7  1  0  0  0  0
  1  6  1  0  0  0  0
  2  3  1  0  0  0  0
  2  8  1  0  0  0  0
  2  1  1  0  0  0  0
  3  4  1  0  0  0  0
  4 12  1  0  0  0  0
  4  5  1  0  0  0  0
  5 14  1  0  0  0  0
  5 15  1  0  0  0  0
  6 17  1  0  0  0  0
  6  5  1  0  0  0  0
  9  2  1  0  0  0  0
 10  3  1  0  0  0  0
 11  3  1  0  0  0  0
 13  4  1  0  0  0  0
 16  6  1  0  0  0  0
 18 23  1  0  0  0  0
 18  1  1  0  0  0  0
 19 18  2  0  0  0  0
 20 21  2  0  0  0  0
 20 19  1  0  0  0  0
 21 22  1  0  0  0  0
 22 25  1  0  0  0  0
 22 23  2  0  0  0  0
 24 19  1  0  0  0  0
 26 27  1  0  0  0  0
 26 20  1  0  0  0  0
 28 29  1  0  0  0  0
 28 27  2  0  0  0  0
 30 28  1  0  0  0  0
 31 30  2  0  0  0  0
 31 32  1  0  0  0  0
 32 26  2  0  0  0  0
M  END
>  <minimizedAffinity>
-5.2498312

>  <minimizedRMSD>
0.295849681

$$$$
