
 OpenBabel03262522333D

 25 27  0  0  0  0  0  0  0  0999 V2000
   40.0260   22.8900   36.8050 C   0  0  0  0  0  0  0  0  0  0  0  0
   39.4420   22.9800   38.0490 C   0  0  0  0  0  0  0  0  0  0  0  0
   38.4020   23.8330   38.3720 C   0  0  0  0  0  0  0  0  0  0  0  0
   37.8950   24.6610   37.3970 C   0  0  0  0  0  0  0  0  0  0  0  0
   38.4890   24.5640   36.1440 C   0  0  0  0  0  0  0  0  0  0  0  0
   39.4930   23.7180   35.8950 N   0  0  0  0  0  0  0  0  0  0  0  0
   39.7930   22.3550   38.8640 H   0  0  0  0  0  0  0  0  0  0  0  0
   37.9880   23.8470   39.3920 H   0  0  0  0  0  0  0  0  0  0  0  0
   37.0830   25.3450   37.5980 H   0  0  0  0  0  0  0  0  0  0  0  0
   41.8000   21.2280   37.4630 C   0  0  0  0  0  0  0  0  0  0  0  0
   41.1100   21.9870   36.5090 C   0  0  0  0  0  0  0  0  0  0  0  0
   41.4940   21.8650   35.1730 C   0  0  0  0  0  0  0  0  0  0  0  0
   42.5280   21.0050   34.8800 N   0  0  0  0  0  0  0  0  0  0  0  0
   43.1580   20.3000   35.8310 C   0  0  0  0  0  0  0  0  0  0  0  0
   42.8040   20.4030   37.1240 N   0  0  0  0  0  0  0  0  0  0  0  0
   41.4380   21.3830   38.4740 H   0  0  0  0  0  0  0  0  0  0  0  0
   41.0070   22.4190   34.3800 H   0  0  0  0  0  0  0  0  0  0  0  0
   43.9550   19.6540   35.5030 H   0  0  0  0  0  0  0  0  0  0  0  0
   37.9460   25.4470   35.1120 C   0  0  0  0  0  0  0  0  0  0  0  0
   37.6170   26.7560   35.4840 C   0  0  0  0  0  3  0  0  0  0  0  0
   37.1030   27.6040   34.5250 C   0  0  0  0  0  0  0  0  0  0  0  0
   36.8250   28.6240   34.7320 H   0  0  0  0  0  0  0  0  0  0  0  0
   36.9470   27.1320   33.2920 N   0  0  0  0  0  0  0  0  0  0  0  0
   37.2740   25.8560   32.9540 C   0  0  0  0  0  3  0  0  0  0  0  0
   37.7760   25.0110   33.8720 N   0  0  0  0  0  0  0  0  0  0  0  0
  1  2  1  0  0  0  0
  2  3  2  0  0  0  0
  2  7  1  0  0  0  0
  3  8  1  0  0  0  0
  4  9  1  0  0  0  0
  4  3  1  0  0  0  0
  5  4  2  0  0  0  0
  6  5  1  0  0  0  0
  6  1  2  0  0  0  0
 10 16  1  0  0  0  0
 11  1  1  0  0  0  0
 11 10  2  0  0  0  0
 12 11  1  0  0  0  0
 13 12  2  0  0  0  0
 13 14  1  0  0  0  0
 14 15  2  0  0  0  0
 15 10  1  0  0  0  0
 17 12  1  0  0  0  0
 18 14  1  0  0  0  0
 19 20  1  0  0  0  0
 19  5  1  0  0  0  0
 21 22  1  0  0  0  0
 21 20  2  0  0  0  0
 23 21  1  0  0  0  0
 24 23  2  0  0  0  0
 24 25  1  0  0  0  0
 25 19  2  0  0  0  0
M  END
>  <minimizedAffinity>
-4.91350937

$$$$

 OpenBabel03262522333D

 25 27  0  0  0  0  0  0  0  0999 V2000
   38.3350   24.7910   35.9940 C   0  0  0  0  0  0  0  0  0  0  0  0
   37.8500   24.7380   37.2820 C   0  0  0  0  0  0  0  0  0  0  0  0
   38.3200   23.8880   38.2670 C   0  0  0  0  0  0  0  0  0  0  0  0
   39.3470   23.0220   37.9630 C   0  0  0  0  0  0  0  0  0  0  0  0
   39.8300   23.0820   36.6610 C   0  0  0  0  0  0  0  0  0  0  0  0
   39.3330   23.9270   35.7540 N   0  0  0  0  0  0  0  0  0  0  0  0
   37.0410   25.3930   37.5890 H   0  0  0  0  0  0  0  0  0  0  0  0
   37.8810   23.9050   39.2760 H   0  0  0  0  0  0  0  0  0  0  0  0
   39.7490   22.3390   38.6960 H   0  0  0  0  0  0  0  0  0  0  0  0
   37.4270   27.0160   35.2400 C   0  0  0  0  0  0  0  0  0  0  0  0
   37.8160   25.6930   34.9960 C   0  0  0  0  0  0  0  0  0  0  0  0
   37.6960   25.2040   33.6930 C   0  0  0  0  0  0  0  0  0  0  0  0
   37.2010   26.0580   32.7330 N   0  0  0  0  0  0  0  0  0  0  0  0
   36.8420   27.3180   33.0180 C   0  0  0  0  0  0  0  0  0  0  0  0
   36.9500   27.8080   34.2660 N   0  0  0  0  0  0  0  0  0  0  0  0
   37.5530   27.3130   36.2760 H   0  0  0  0  0  0  0  0  0  0  0  0
   37.9760   24.1930   33.4280 H   0  0  0  0  0  0  0  0  0  0  0  0
   36.4670   27.9080   32.2000 H   0  0  0  0  0  0  0  0  0  0  0  0
   40.9210   22.1600   36.3450 C   0  0  0  0  0  0  0  0  0  0  0  0
   41.5350   21.4910   37.4100 C   0  0  0  0  0  3  0  0  0  0  0  0
   42.5650   20.6160   37.1320 C   0  0  0  0  0  0  0  0  0  0  0  0
   43.0880   20.0640   37.8960 H   0  0  0  0  0  0  0  0  0  0  0  0
   42.9220   20.4550   35.8620 N   0  0  0  0  0  0  0  0  0  0  0  0
   42.3100   21.1160   34.8430 C   0  0  0  0  0  3  0  0  0  0  0  0
   41.3040   21.9730   35.0900 N   0  0  0  0  0  0  0  0  0  0  0  0
  1  2  1  0  0  0  0
  2  7  1  0  0  0  0
  2  3  2  0  0  0  0
  3  8  1  0  0  0  0
  4  3  1  0  0  0  0
  4  9  1  0  0  0  0
  5  4  2  0  0  0  0
  6  1  2  0  0  0  0
  6  5  1  0  0  0  0
 10 16  1  0  0  0  0
 11 10  1  0  0  0  0
 11  1  1  0  0  0  0
 12 11  2  0  0  0  0
 13 14  2  0  0  0  0
 13 12  1  0  0  0  0
 14 15  1  0  0  0  0
 15 10  2  0  0  0  0
 17 12  1  0  0  0  0
 18 14  1  0  0  0  0
 19  5  1  0  0  0  0
 19 20  1  0  0  0  0
 21 20  2  0  0  0  0
 21 22  1  0  0  0  0
 23 21  1  0  0  0  0
 24 25  1  0  0  0  0
 24 23  2  0  0  0  0
 25 19  2  0  0  0  0
M  END
>  <minimizedAffinity>
-4.90603352

$$$$

 OpenBabel03262522333D

 25 27  0  0  0  0  0  0  0  0999 V2000
   36.1430   23.0530   31.9050 C   0  0  0  0  0  0  0  0  0  0  0  0
   35.4230   23.8520   31.0460 C   0  0  0  0  0  0  0  0  0  0  0  0
   35.5150   25.2310   30.9870 C   0  0  0  0  0  0  0  0  0  0  0  0
   36.3840   25.8760   31.8380 C   0  0  0  0  0  0  0  0  0  0  0  0
   37.1080   25.0620   32.7020 C   0  0  0  0  0  0  0  0  0  0  0  0
   36.9730   23.7330   32.7100 N   0  0  0  0  0  0  0  0  0  0  0  0
   34.7190   23.4100   30.3480 H   0  0  0  0  0  0  0  0  0  0  0  0
   34.9040   25.8020   30.2720 H   0  0  0  0  0  0  0  0  0  0  0  0
   36.4930   26.9500   31.8320 H   0  0  0  0  0  0  0  0  0  0  0  0
   36.2400   20.7730   30.8400 C   0  0  0  0  0  0  0  0  0  0  0  0
   36.0170   21.6170   31.9340 C   0  0  0  0  0  0  0  0  0  0  0  0
   35.6450   21.0330   33.1470 C   0  0  0  0  0  0  0  0  0  0  0  0
   35.5220   19.6620   33.1850 N   0  0  0  0  0  0  0  0  0  0  0  0
   35.7470   18.8970   32.1070 C   0  0  0  0  0  0  0  0  0  0  0  0
   36.1060   19.4400   30.9300 N   0  0  0  0  0  0  0  0  0  0  0  0
   36.5240   21.3090   29.9390 H   0  0  0  0  0  0  0  0  0  0  0  0
   35.4570   21.6200   34.0370 H   0  0  0  0  0  0  0  0  0  0  0  0
   35.6250   17.8350   32.2370 H   0  0  0  0  0  0  0  0  0  0  0  0
   38.0300   25.7530   33.6040 C   0  0  0  0  0  0  0  0  0  0  0  0
   37.4840   26.3980   34.7200 C   0  0  0  0  0  3  0  0  0  0  0  0
   38.3370   27.0550   35.5840 C   0  0  0  0  0  0  0  0  0  0  0  0
   37.9950   27.5750   36.4630 H   0  0  0  0  0  0  0  0  0  0  0  0
   39.6370   27.0400   35.3080 N   0  0  0  0  0  0  0  0  0  0  0  0
   40.1440   26.4060   34.2170 C   0  0  0  0  0  3  0  0  0  0  0  0
   39.3320   25.7600   33.3620 N   0  0  0  0  0  0  0  0  0  0  0  0
  1 11  1  0  0  0  0
  1  6  1  0  0  0  0
  2  1  2  0  0  0  0
  3  2  1  0  0  0  0
  3  4  2  0  0  0  0
  4  5  1  0  0  0  0
  5  6  2  0  0  0  0
  5 19  1  0  0  0  0
  7  2  1  0  0  0  0
  8  3  1  0  0  0  0
  9  4  1  0  0  0  0
 10 15  2  0  0  0  0
 10 11  1  0  0  0  0
 11 12  2  0  0  0  0
 12 13  1  0  0  0  0
 12 17  1  0  0  0  0
 14 18  1  0  0  0  0
 14 13  2  0  0  0  0
 15 14  1  0  0  0  0
 16 10  1  0  0  0  0
 19 20  1  0  0  0  0
 20 21  2  0  0  0  0
 21 22  1  0  0  0  0
 23 21  1  0  0  0  0
 24 23  2  0  0  0  0
 25 19  2  0  0  0  0
 25 24  1  0  0  0  0
M  END
>  <minimizedAffinity>
-4.79172564

$$$$

 OpenBabel03262522333D

 25 27  0  0  0  0  0  0  0  0999 V2000
   35.7330   29.4830   34.0610 C   0  0  0  0  0  0  0  0  0  0  0  0
   35.8680   29.7510   32.7170 C   0  0  0  0  0  0  0  0  0  0  0  0
   36.4730   28.9080   31.8010 C   0  0  0  0  0  0  0  0  0  0  0  0
   36.9860   27.7080   32.2410 C   0  0  0  0  0  0  0  0  0  0  0  0
   36.8450   27.4460   33.5990 C   0  0  0  0  0  0  0  0  0  0  0  0
   36.2490   28.3020   34.4330 N   0  0  0  0  0  0  0  0  0  0  0  0
   35.4860   30.6790   32.3030 H   0  0  0  0  0  0  0  0  0  0  0  0
   36.5430   29.1930   30.7410 H   0  0  0  0  0  0  0  0  0  0  0  0
   37.4670   27.0160   31.5670 H   0  0  0  0  0  0  0  0  0  0  0  0
   33.7100   30.5100   35.1540 C   0  0  0  0  0  0  0  0  0  0  0  0
   35.0950   30.3890   34.9820 C   0  0  0  0  0  0  0  0  0  0  0  0
   35.9240   31.2040   35.7560 C   0  0  0  0  0  0  0  0  0  0  0  0
   35.3240   32.0730   36.6390 N   0  0  0  0  0  0  0  0  0  0  0  0
   33.9910   32.1500   36.7660 C   0  0  0  0  0  0  0  0  0  0  0  0
   33.1750   31.3750   36.0300 N   0  0  0  0  0  0  0  0  0  0  0  0
   33.1420   29.8420   34.5150 H   0  0  0  0  0  0  0  0  0  0  0  0
   37.0030   31.1680   35.6780 H   0  0  0  0  0  0  0  0  0  0  0  0
   33.6170   32.8610   37.4830 H   0  0  0  0  0  0  0  0  0  0  0  0
   37.3920   26.1690   34.0590 C   0  0  0  0  0  0  0  0  0  0  0  0
   37.6820   26.0420   35.4230 C   0  0  0  0  0  3  0  0  0  0  0  0
   38.1980   24.8450   35.8770 C   0  0  0  0  0  0  0  0  0  0  0  0
   38.4470   24.6680   36.9100 H   0  0  0  0  0  0  0  0  0  0  0  0
   38.3930   23.8720   34.9920 N   0  0  0  0  0  0  0  0  0  0  0  0
   38.1030   24.0200   33.6720 C   0  0  0  0  0  3  0  0  0  0  0  0
   37.5990   25.1770   33.2060 N   0  0  0  0  0  0  0  0  0  0  0  0
  1  6  1  0  0  0  0
  1 11  1  0  0  0  0
  2  1  2  0  0  0  0
  3  4  2  0  0  0  0
  3  2  1  0  0  0  0
  4  5  1  0  0  0  0
  5 19  1  0  0  0  0
  5  6  2  0  0  0  0
  7  2  1  0  0  0  0
  8  3  1  0  0  0  0
  9  4  1  0  0  0  0
 10 15  1  0  0  0  0
 11 10  2  0  0  0  0
 11 12  1  0  0  0  0
 12 13  2  0  0  0  0
 13 14  1  0  0  0  0
 14 18  1  0  0  0  0
 15 14  2  0  0  0  0
 16 10  1  0  0  0  0
 17 12  1  0  0  0  0
 19 20  1  0  0  0  0
 20 21  2  0  0  0  0
 21 22  1  0  0  0  0
 23 21  1  0  0  0  0
 24 23  2  0  0  0  0
 25 24  1  0  0  0  0
 25 19  2  0  0  0  0
M  END
>  <minimizedAffinity>
-4.77259064

$$$$

 OpenBabel03262522333D

 25 27  0  0  0  0  0  0  0  0999 V2000
   36.8110   27.4500   33.6030 C   0  0  0  0  0  0  0  0  0  0  0  0
   36.8880   27.8700   32.2930 C   0  0  0  0  0  0  0  0  0  0  0  0
   36.3930   29.0710   31.8200 C   0  0  0  0  0  0  0  0  0  0  0  0
   35.7740   29.9290   32.7020 C   0  0  0  0  0  0  0  0  0  0  0  0
   35.7010   29.4980   34.0210 C   0  0  0  0  0  0  0  0  0  0  0  0
   36.2000   28.3240   34.4170 N   0  0  0  0  0  0  0  0  0  0  0  0
   37.3630   27.2430   31.5460 H   0  0  0  0  0  0  0  0  0  0  0  0
   36.4920   29.3360   30.7560 H   0  0  0  0  0  0  0  0  0  0  0  0
   35.3700   30.8780   32.3820 H   0  0  0  0  0  0  0  0  0  0  0  0
   37.5710   25.0770   33.2360 C   0  0  0  0  0  0  0  0  0  0  0  0
   37.3410   26.1890   34.0560 C   0  0  0  0  0  0  0  0  0  0  0  0
   37.6450   26.0740   35.4140 C   0  0  0  0  0  0  0  0  0  0  0  0
   38.1520   24.8730   35.8570 N   0  0  0  0  0  0  0  0  0  0  0  0
   38.3530   23.8370   35.0290 C   0  0  0  0  0  0  0  0  0  0  0  0
   38.0670   23.9270   33.7190 N   0  0  0  0  0  0  0  0  0  0  0  0
   37.3070   25.2530   32.1980 H   0  0  0  0  0  0  0  0  0  0  0  0
   37.4960   26.8900   36.1100 H   0  0  0  0  0  0  0  0  0  0  0  0
   38.7530   22.9400   35.4710 H   0  0  0  0  0  0  0  0  0  0  0  0
   35.0420   30.4140   34.9530 C   0  0  0  0  0  0  0  0  0  0  0  0
   35.8550   31.2750   35.7000 C   0  0  0  0  0  3  0  0  0  0  0  0
   35.2520   32.1470   36.5840 C   0  0  0  0  0  0  0  0  0  0  0  0
   35.8070   32.8400   37.1940 H   0  0  0  0  0  0  0  0  0  0  0  0
   33.9270   32.1220   36.6810 N   0  0  0  0  0  0  0  0  0  0  0  0
   33.1580   31.2750   35.9440 C   0  0  0  0  0  3  0  0  0  0  0  0
   33.7230   30.4180   35.0770 N   0  0  0  0  0  0  0  0  0  0  0  0
  1 11  1  0  0  0  0
  1  6  1  0  0  0  0
  2  1  2  0  0  0  0
  3  2  1  0  0  0  0
  3  4  2  0  0  0  0
  4  5  1  0  0  0  0
  5  6  2  0  0  0  0
  5 19  1  0  0  0  0
  7  2  1  0  0  0  0
  8  3  1  0  0  0  0
  9  4  1  0  0  0  0
 10 15  2  0  0  0  0
 10 11  1  0  0  0  0
 11 12  2  0  0  0  0
 12 13  1  0  0  0  0
 12 17  1  0  0  0  0
 14 18  1  0  0  0  0
 14 13  2  0  0  0  0
 15 14  1  0  0  0  0
 16 10  1  0  0  0  0
 19 25  2  0  0  0  0
 19 20  1  0  0  0  0
 20 21  2  0  0  0  0
 21 23  1  0  0  0  0
 21 22  1  0  0  0  0
 24 23  2  0  0  0  0
 25 24  1  0  0  0  0
M  END
>  <minimizedAffinity>
-4.75807667

$$$$

 OpenBabel03262522333D

 25 27  0  0  0  0  0  0  0  0999 V2000
   37.2770   26.4480   33.4440 C   0  0  0  0  0  0  0  0  0  0  0  0
   37.4930   25.6270   32.3590 C   0  0  0  0  0  0  0  0  0  0  0  0
   38.0260   24.3530   32.4290 C   0  0  0  0  0  0  0  0  0  0  0  0
   38.3730   23.8440   33.6610 C   0  0  0  0  0  0  0  0  0  0  0  0
   38.1520   24.6800   34.7500 C   0  0  0  0  0  0  0  0  0  0  0  0
   37.6330   25.9030   34.6160 N   0  0  0  0  0  0  0  0  0  0  0  0
   37.2420   25.9650   31.3590 H   0  0  0  0  0  0  0  0  0  0  0  0
   38.1690   23.7560   31.5160 H   0  0  0  0  0  0  0  0  0  0  0  0
   38.7930   22.8550   33.7700 H   0  0  0  0  0  0  0  0  0  0  0  0
   36.1710   28.5040   34.3880 C   0  0  0  0  0  0  0  0  0  0  0  0
   36.7190   27.7720   33.3270 C   0  0  0  0  0  0  0  0  0  0  0  0
   36.7280   28.3620   32.0610 C   0  0  0  0  0  0  0  0  0  0  0  0
   36.1960   29.6260   31.9400 N   0  0  0  0  0  0  0  0  0  0  0  0
   35.6830   30.2850   32.9890 C   0  0  0  0  0  0  0  0  0  0  0  0
   35.6650   29.7360   34.2160 N   0  0  0  0  0  0  0  0  0  0  0  0
   36.2040   27.9730   35.3340 H   0  0  0  0  0  0  0  0  0  0  0  0
   37.1340   27.8570   31.1930 H   0  0  0  0  0  0  0  0  0  0  0  0
   35.2910   31.2690   32.7930 H   0  0  0  0  0  0  0  0  0  0  0  0
   38.5230   24.1340   36.0560 C   0  0  0  0  0  0  0  0  0  0  0  0
   37.7640   24.5290   37.1640 C   0  0  0  0  0  3  0  0  0  0  0  0
   38.0980   24.0250   38.4040 C   0  0  0  0  0  0  0  0  0  0  0  0
   37.5640   24.2800   39.3050 H   0  0  0  0  0  0  0  0  0  0  0  0
   39.1270   23.1870   38.4820 N   0  0  0  0  0  0  0  0  0  0  0  0
   39.8500   22.8170   37.3900 C   0  0  0  0  0  3  0  0  0  0  0  0
   39.5430   23.2960   36.1720 N   0  0  0  0  0  0  0  0  0  0  0  0
  1  6  1  0  0  0  0
  2  3  1  0  0  0  0
  2  1  2  0  0  0  0
  3  4  2  0  0  0  0
  4  9  1  0  0  0  0
  4  5  1  0  0  0  0
  5 19  1  0  0  0  0
  6  5  2  0  0  0  0
  7  2  1  0  0  0  0
  8  3  1  0  0  0  0
 10 16  1  0  0  0  0
 11  1  1  0  0  0  0
 11 10  2  0  0  0  0
 12 11  1  0  0  0  0
 13 12  2  0  0  0  0
 13 14  1  0  0  0  0
 14 15  2  0  0  0  0
 15 10  1  0  0  0  0
 17 12  1  0  0  0  0
 18 14  1  0  0  0  0
 19 25  2  0  0  0  0
 19 20  1  0  0  0  0
 20 21  2  0  0  0  0
 21 23  1  0  0  0  0
 21 22  1  0  0  0  0
 24 23  2  0  0  0  0
 25 24  1  0  0  0  0
M  END
>  <minimizedAffinity>
-4.74383926

$$$$

 OpenBabel03262522333D

 25 27  0  0  0  0  0  0  0  0999 V2000
   36.1300   28.2850   32.3460 C   0  0  0  0  0  0  0  0  0  0  0  0
   36.5020   29.2000   31.3870 C   0  0  0  0  0  0  0  0  0  0  0  0
   36.3470   30.5700   31.5010 C   0  0  0  0  0  0  0  0  0  0  0  0
   35.7840   31.0810   32.6490 C   0  0  0  0  0  0  0  0  0  0  0  0
   35.4120   30.1500   33.6130 C   0  0  0  0  0  0  0  0  0  0  0  0
   35.5880   28.8370   33.4410 N   0  0  0  0  0  0  0  0  0  0  0  0
   36.9520   28.8660   30.4570 H   0  0  0  0  0  0  0  0  0  0  0  0
   36.6700   31.2390   30.6890 H   0  0  0  0  0  0  0  0  0  0  0  0
   35.6410   32.1420   32.7880 H   0  0  0  0  0  0  0  0  0  0  0  0
   37.1200   26.0640   33.0020 C   0  0  0  0  0  0  0  0  0  0  0  0
   36.3090   26.8630   32.1870 C   0  0  0  0  0  0  0  0  0  0  0  0
   35.6200   26.2450   31.1410 C   0  0  0  0  0  0  0  0  0  0  0  0
   35.7850   24.8880   30.9810 N   0  0  0  0  0  0  0  0  0  0  0  0
   36.5740   24.1660   31.7900 C   0  0  0  0  0  0  0  0  0  0  0  0
   37.2460   24.7420   32.8020 N   0  0  0  0  0  0  0  0  0  0  0  0
   37.6180   26.6230   33.7880 H   0  0  0  0  0  0  0  0  0  0  0  0
   34.9740   26.7970   30.4700 H   0  0  0  0  0  0  0  0  0  0  0  0
   36.6380   23.1110   31.5840 H   0  0  0  0  0  0  0  0  0  0  0  0
   34.8140   30.7000   34.8300 C   0  0  0  0  0  0  0  0  0  0  0  0
   35.6300   31.4770   35.6600 C   0  0  0  0  0  3  0  0  0  0  0  0
   35.0850   32.0040   36.8130 C   0  0  0  0  0  0  0  0  0  0  0  0
   35.6460   32.6110   37.5030 H   0  0  0  0  0  0  0  0  0  0  0  0
   33.8070   31.7460   37.0740 N   0  0  0  0  0  0  0  0  0  0  0  0
   33.0340   30.9880   36.2520 C   0  0  0  0  0  3  0  0  0  0  0  0
   33.5430   30.4630   35.1240 N   0  0  0  0  0  0  0  0  0  0  0  0
  1  6  1  0  0  0  0
  2  3  1  0  0  0  0
  2  1  2  0  0  0  0
  3  4  2  0  0  0  0
  4  9  1  0  0  0  0
  4  5  1  0  0  0  0
  5 19  1  0  0  0  0
  6  5  2  0  0  0  0
  7  2  1  0  0  0  0
  8  3  1  0  0  0  0
 10 16  1  0  0  0  0
 11  1  1  0  0  0  0
 11 10  2  0  0  0  0
 12 11  1  0  0  0  0
 13 12  2  0  0  0  0
 13 14  1  0  0  0  0
 14 15  2  0  0  0  0
 15 10  1  0  0  0  0
 17 12  1  0  0  0  0
 18 14  1  0  0  0  0
 19 25  2  0  0  0  0
 19 20  1  0  0  0  0
 20 21  2  0  0  0  0
 21 23  1  0  0  0  0
 21 22  1  0  0  0  0
 24 23  2  0  0  0  0
 25 24  1  0  0  0  0
M  END
>  <minimizedAffinity>
-4.70992899

$$$$

 OpenBabel03262522333D

 25 27  0  0  0  0  0  0  0  0999 V2000
   38.4000   25.6680   33.2140 C   0  0  0  0  0  0  0  0  0  0  0  0
   39.1380   26.8300   33.1810 C   0  0  0  0  0  0  0  0  0  0  0  0
   40.2790   27.0610   33.9290 C   0  0  0  0  0  0  0  0  0  0  0  0
   40.7300   26.0720   34.7750 C   0  0  0  0  0  0  0  0  0  0  0  0
   39.9790   24.9030   34.8020 C   0  0  0  0  0  0  0  0  0  0  0  0
   38.8840   24.7410   34.0530 N   0  0  0  0  0  0  0  0  0  0  0  0
   38.8400   27.6500   32.5360 H   0  0  0  0  0  0  0  0  0  0  0  0
   40.8160   28.0180   33.8490 H   0  0  0  0  0  0  0  0  0  0  0  0
   41.6140   26.2030   35.3800 H   0  0  0  0  0  0  0  0  0  0  0  0
   36.7030   24.2180   32.0480 C   0  0  0  0  0  0  0  0  0  0  0  0
   37.2150   25.4680   32.4170 C   0  0  0  0  0  0  0  0  0  0  0  0
   36.5340   26.6080   31.9850 C   0  0  0  0  0  0  0  0  0  0  0  0
   35.4020   26.4270   31.2230 N   0  0  0  0  0  0  0  0  0  0  0  0
   34.9520   25.2070   30.8960 C   0  0  0  0  0  0  0  0  0  0  0  0
   35.5930   24.0960   31.3020 N   0  0  0  0  0  0  0  0  0  0  0  0
   37.2920   23.3880   32.4250 H   0  0  0  0  0  0  0  0  0  0  0  0
   36.8700   27.6080   32.2310 H   0  0  0  0  0  0  0  0  0  0  0  0
   34.0580   25.1680   30.2970 H   0  0  0  0  0  0  0  0  0  0  0  0
   40.4630   23.8560   35.7030 C   0  0  0  0  0  0  0  0  0  0  0  0
   41.7750   23.4030   35.5240 C   0  0  0  0  0  3  0  0  0  0  0  0
   42.2510   22.4170   36.3640 C   0  0  0  0  0  0  0  0  0  0  0  0
   43.2480   22.0150   36.2910 H   0  0  0  0  0  0  0  0  0  0  0  0
   41.4340   21.9470   37.3020 N   0  0  0  0  0  0  0  0  0  0  0  0
   40.1620   22.4040   37.4560 C   0  0  0  0  0  3  0  0  0  0  0  0
   39.6780   23.3640   36.6500 N   0  0  0  0  0  0  0  0  0  0  0  0
  1  6  1  0  0  0  0
  2  1  2  0  0  0  0
  2  3  1  0  0  0  0
  3  4  2  0  0  0  0
  4  5  1  0  0  0  0
  4  9  1  0  0  0  0
  5 19  1  0  0  0  0
  6  5  2  0  0  0  0
  7  2  1  0  0  0  0
  8  3  1  0  0  0  0
 10 11  1  0  0  0  0
 10 16  1  0  0  0  0
 11  1  1  0  0  0  0
 12 17  1  0  0  0  0
 12 11  2  0  0  0  0
 13 12  1  0  0  0  0
 14 13  2  0  0  0  0
 14 15  1  0  0  0  0
 15 10  2  0  0  0  0
 18 14  1  0  0  0  0
 19 25  1  0  0  0  0
 20 19  2  0  0  0  0
 20 21  1  0  0  0  0
 21 23  2  0  0  0  0
 22 21  1  0  0  0  0
 23 24  1  0  0  0  0
 25 24  2  0  0  0  0
M  END
>  <minimizedAffinity>
-4.67367554

$$$$

 OpenBabel03262522333D

 25 27  0  0  0  0  0  0  0  0999 V2000
   38.1730   24.8090   34.7920 C   0  0  0  0  0  0  0  0  0  0  0  0
   38.4070   24.1510   33.6050 C   0  0  0  0  0  0  0  0  0  0  0  0
   38.1080   24.6550   32.3520 C   0  0  0  0  0  0  0  0  0  0  0  0
   37.5340   25.9030   32.2570 C   0  0  0  0  0  0  0  0  0  0  0  0
   37.3010   26.5600   33.4600 C   0  0  0  0  0  0  0  0  0  0  0  0
   37.6140   26.0180   34.6410 N   0  0  0  0  0  0  0  0  0  0  0  0
   38.8580   23.1640   33.6060 H   0  0  0  0  0  0  0  0  0  0  0  0
   38.3250   24.0680   31.4470 H   0  0  0  0  0  0  0  0  0  0  0  0
   37.2810   26.3410   31.3030 H   0  0  0  0  0  0  0  0  0  0  0  0
   39.4870   23.2780   36.3000 C   0  0  0  0  0  0  0  0  0  0  0  0
   38.5010   24.2480   36.0790 C   0  0  0  0  0  0  0  0  0  0  0  0
   37.7770   24.7090   37.1810 C   0  0  0  0  0  0  0  0  0  0  0  0
   38.0820   24.1790   38.4140 N   0  0  0  0  0  0  0  0  0  0  0  0
   39.0370   23.2510   38.5730 C   0  0  0  0  0  0  0  0  0  0  0  0
   39.7450   22.7930   37.5250 N   0  0  0  0  0  0  0  0  0  0  0  0
   39.9990   22.9770   35.3920 H   0  0  0  0  0  0  0  0  0  0  0  0
   37.0000   25.4570   37.0880 H   0  0  0  0  0  0  0  0  0  0  0  0
   39.2020   22.8980   39.5770 H   0  0  0  0  0  0  0  0  0  0  0  0
   36.6910   27.8850   33.3530 C   0  0  0  0  0  0  0  0  0  0  0  0
   36.7130   28.5110   32.1000 C   0  0  0  0  0  3  0  0  0  0  0  0
   36.1420   29.7610   31.9790 C   0  0  0  0  0  0  0  0  0  0  0  0
   36.1180   30.3070   31.0500 H   0  0  0  0  0  0  0  0  0  0  0  0
   35.6000   30.3080   33.0620 N   0  0  0  0  0  0  0  0  0  0  0  0
   35.5910   29.6810   34.2690 C   0  0  0  0  0  3  0  0  0  0  0  0
   36.1410   28.4630   34.4110 N   0  0  0  0  0  0  0  0  0  0  0  0
  1 11  1  0  0  0  0
  2  7  1  0  0  0  0
  2  1  2  0  0  0  0
  3  2  1  0  0  0  0
  4  3  2  0  0  0  0
  4  5  1  0  0  0  0
  5  6  2  0  0  0  0
  6  1  1  0  0  0  0
  8  3  1  0  0  0  0
  9  4  1  0  0  0  0
 10 15  1  0  0  0  0
 11 10  2  0  0  0  0
 11 12  1  0  0  0  0
 12 13  2  0  0  0  0
 13 14  1  0  0  0  0
 14 18  1  0  0  0  0
 15 14  2  0  0  0  0
 16 10  1  0  0  0  0
 17 12  1  0  0  0  0
 19  5  1  0  0  0  0
 19 25  1  0  0  0  0
 20 19  2  0  0  0  0
 21 20  1  0  0  0  0
 21 23  2  0  0  0  0
 22 21  1  0  0  0  0
 23 24  1  0  0  0  0
 24 25  2  0  0  0  0
M  END
>  <minimizedAffinity>
-4.61027241

$$$$
