
 OpenBabel03272505003D

 26 28  0  0  0  0  0  0  0  0999 V2000
   37.7340   30.3320   46.9690 Cl  0  0  0  0  0  0  0  0  0  0  0  0
   38.3250   31.7400   47.8290 C   0  0  0  0  0  0  0  0  0  0  0  0
   37.9280   31.9220   49.1200 C   0  0  0  0  0  0  0  0  0  0  0  0
   38.4230   33.0540   49.7610 C   0  0  0  0  0  0  0  0  0  0  0  0
   39.2710   33.9260   49.0880 C   0  0  0  0  0  0  0  0  0  0  0  0
   39.6400   33.7020   47.7940 C   0  0  0  0  0  0  0  0  0  0  0  0
   39.1550   32.5850   47.1560 C   0  0  0  0  0  0  0  0  0  0  0  0
   38.1200   33.2270   50.8020 H   0  0  0  0  0  0  0  0  0  0  0  0
   39.6070   34.7780   49.6600 H   0  0  0  0  0  0  0  0  0  0  0  0
   40.3000   34.4120   47.3230 H   0  0  0  0  0  0  0  0  0  0  0  0
   37.4590   30.3110   50.9730 C   0  0  0  0  0  0  0  0  0  0  0  0
   37.0360   31.0180   49.8510 C   0  0  0  0  0  0  0  0  0  0  0  0
   35.7140   30.8370   49.4380 C   0  0  0  0  0  0  0  0  0  0  0  0
   34.9150   29.9940   50.1370 N   0  0  0  0  0  0  0  0  0  0  0  0
   35.3600   29.3280   51.2170 C   0  0  0  0  0  0  0  0  0  0  0  0
   36.6470   29.4840   51.6450 N   0  0  0  0  0  0  0  0  0  0  0  0
   38.4930   30.4900   51.2470 H   0  0  0  0  0  0  0  0  0  0  0  0
   35.3740   31.3830   48.5660 H   0  0  0  0  0  0  0  0  0  0  0  0
   34.7520   28.6510   51.7930 H   0  0  0  0  0  0  0  0  0  0  0  0
   39.5150   32.2950   45.7740 C   0  0  0  0  0  0  0  0  0  0  0  0
   40.4520   31.3710   45.3730 C   0  0  0  0  0  0  0  0  0  0  0  0
   40.7510   31.1410   44.0460 C   0  0  0  0  0  0  0  0  0  0  0  0
   41.5140   30.3840   43.8220 H   0  0  0  0  0  0  0  0  0  0  0  0
   40.1290   31.8210   43.0680 N   0  0  0  0  0  0  0  0  0  0  0  0
   39.2110   32.7270   43.4510 C   0  0  0  0  0  0  0  0  0  0  0  0
   38.9210   32.9500   44.7450 N   0  0  0  0  0  0  0  0  0  0  0  0
  1  2  1  0  0  0  0
  2  3  1  0  0  0  0
  3  4  2  0  0  0  0
  3 12  1  0  0  0  0
  4  8  1  0  0  0  0
  5  9  1  0  0  0  0
  5  4  1  0  0  0  0
  6  5  2  0  0  0  0
  7  6  1  0  0  0  0
  7  2  2  0  0  0  0
 10  6  1  0  0  0  0
 11 17  1  0  0  0  0
 11 16  1  0  0  0  0
 12 11  2  0  0  0  0
 13 12  1  0  0  0  0
 13 14  2  0  0  0  0
 14 15  1  0  0  0  0
 15 16  2  0  0  0  0
 15 19  1  0  0  0  0
 18 13  1  0  0  0  0
 20  7  1  0  0  0  0
 21 20  1  0  0  0  0
 22 21  2  0  0  0  0
 23 22  1  0  0  0  0
 24 25  2  0  0  0  0
 24 22  1  0  0  0  0
 25 26  1  0  0  0  0
 26 20  2  0  0  0  0
M  END
>  <minimizedAffinity>
-6.62756538

>  <minimizedRMSD>
0.647729933

$$$$
