
 OpenBabel03272507453D

 31 33  0  0  0  0  0  0  0  0999 V2000
   33.5770   29.6130   46.5830 N   0  0  0  0  0  0  0  0  0  0  0  0
   33.8470   29.3950   47.9760 C   0  0  0  0  0  0  0  0  0  0  0  0
   35.0890   29.9670   48.5340 C   0  0  0  0  0  0  0  0  0  0  0  0
   36.2500   30.0940   47.6170 C   0  0  0  0  0  0  0  0  0  0  0  0
   35.8790   30.2610   46.1800 C   0  0  0  0  0  0  0  0  0  0  0  0
   34.7600   29.2650   45.8410 C   0  0  0  0  0  0  0  0  0  0  0  0
   33.7960   28.2770   48.1230 H   0  0  0  0  0  0  0  0  0  0  0  0
   32.9800   29.7890   48.5480 H   0  0  0  0  0  0  0  0  0  0  0  0
   35.3880   29.3780   49.4260 H   0  0  0  0  0  0  0  0  0  0  0  0
   34.8650   30.9940   48.9170 H   0  0  0  0  0  0  0  0  0  0  0  0
   36.8720   29.1660   47.7060 H   0  0  0  0  0  0  0  0  0  0  0  0
   35.4930   31.2500   45.9200 H   0  0  0  0  0  0  0  0  0  0  0  0
   36.7500   29.9850   45.5470 H   0  0  0  0  0  0  0  0  0  0  0  0
   35.1400   28.2540   46.0770 H   0  0  0  0  0  0  0  0  0  0  0  0
   34.6390   29.3720   44.7400 H   0  0  0  0  0  0  0  0  0  0  0  0
   32.3590   30.0890   46.0340 C   0  0  0  0  0  0  0  0  0  0  0  0
   32.2330   31.2520   45.2710 C   0  0  0  0  0  0  0  0  0  0  0  0
   30.9690   31.6000   44.7940 C   0  0  0  0  0  0  0  0  0  0  0  0
   29.9150   30.7870   45.0940 N   0  0  0  0  0  0  0  0  0  0  0  0
   30.0820   29.6760   45.8320 C   0  0  0  0  0  0  0  0  0  0  0  0
   31.2900   29.3270   46.2980 N   0  0  0  0  0  0  0  0  0  0  0  0
   33.1310   31.8260   45.0900 H   0  0  0  0  0  0  0  0  0  0  0  0
   30.8810   32.5030   44.2040 H   0  0  0  0  0  0  0  0  0  0  0  0
   29.2200   29.0380   46.0600 H   0  0  0  0  0  0  0  0  0  0  0  0
   37.1210   31.2140   48.0660 C   0  0  0  0  0  0  0  0  0  0  0  0
   38.1540   31.6130   47.2160 C   0  0  0  0  0  3  0  0  0  0  0  0
   38.9400   32.6660   47.6850 C   0  0  0  0  0  0  0  0  0  0  0  0
   39.7540   32.9830   47.0210 H   0  0  0  0  0  0  0  0  0  0  0  0
   38.7750   33.3020   48.8610 N   0  0  0  0  0  0  0  0  0  0  0  0
   37.7540   32.8640   49.6370 C   0  0  0  0  0  3  0  0  0  0  0  0
   36.9430   31.8500   49.2610 N   0  0  0  0  0  0  0  0  0  0  0  0
  1  2  1  0  0  0  0
  2  7  1  0  0  0  0
  2  3  1  0  0  0  0
  2  8  1  0  0  0  0
  3 10  1  0  0  0  0
  3  9  1  0  0  0  0
  4 11  1  0  0  0  0
  4 25  1  0  0  0  0
  4  3  1  0  0  0  0
  5  4  1  0  0  0  0
  6 14  1  0  0  0  0
  6  5  1  0  0  0  0
  6  1  1  0  0  0  0
 12  5  1  0  0  0  0
 13  5  1  0  0  0  0
 15  6  1  0  0  0  0
 16 21  1  0  0  0  0
 16  1  1  0  0  0  0
 17 16  2  0  0  0  0
 18 19  2  0  0  0  0
 18 17  1  0  0  0  0
 19 20  1  0  0  0  0
 20 24  1  0  0  0  0
 20 21  2  0  0  0  0
 22 17  1  0  0  0  0
 23 18  1  0  0  0  0
 25 31  1  0  0  0  0
 26 27  1  0  0  0  0
 26 25  2  0  0  0  0
 27 29  2  0  0  0  0
 28 27  1  0  0  0  0
 29 30  1  0  0  0  0
 31 30  2  0  0  0  0
M  END
>  <minimizedAffinity>
-4.51283836

>  <minimizedRMSD>
3.86620641

$$$$
