
 OpenBabel03262520073D

 16 17  0  0  0  0  0  0  0  0999 V2000
   38.1040   33.0720   49.4920 C   0  0  0  0  0  0  0  0  0  0  0  0
   38.9800   33.1460   48.3980 C   0  0  0  0  0  0  0  0  0  0  0  0
   38.8000   32.2030   47.3600 C   0  0  0  0  0  0  0  0  0  0  0  0
   37.7970   31.2930   47.4870 N   0  0  0  0  0  0  0  0  0  0  0  0
   36.9730   31.2570   48.5610 C   0  0  0  0  0  0  0  0  0  0  0  0
   37.1350   32.1540   49.5620 N   0  0  0  0  0  0  0  0  0  0  0  0
   38.2720   33.8170   50.2770 H   0  0  0  0  0  0  0  0  0  0  0  0
   39.7800   33.8690   48.2950 H   0  0  0  0  0  0  0  0  0  0  0  0
   39.4300   32.1780   46.4680 H   0  0  0  0  0  0  0  0  0  0  0  0
   35.9210   30.2460   48.6160 C   0  0  0  0  0  0  0  0  0  0  0  0
   35.8900   29.2780   49.5650 C   0  0  0  0  0  0  0  0  0  0  0  0
   34.8780   28.3600   49.5620 C   0  0  0  0  0  0  0  0  0  0  0  0
   34.8400   27.5770   50.3160 H   0  0  0  0  0  0  0  0  0  0  0  0
   33.9080   28.4180   48.6110 N   0  0  0  0  0  0  0  0  0  0  0  0
   33.9630   29.3880   47.6830 C   0  0  0  0  0  0  0  0  0  0  0  0
   34.9580   30.3080   47.6680 N   0  0  0  0  0  0  0  0  0  0  0  0
  1  6  1  0  0  0  0
  1  7  1  0  0  0  0
  2  1  2  0  0  0  0
  3  4  2  0  0  0  0
  3  2  1  0  0  0  0
  4  5  1  0  0  0  0
  5 10  1  0  0  0  0
  5  6  2  0  0  0  0
  8  2  1  0  0  0  0
  9  3  1  0  0  0  0
 10 11  1  0  0  0  0
 12 11  2  0  0  0  0
 12 13  1  0  0  0  0
 14 12  1  0  0  0  0
 15 14  2  0  0  0  0
 16 15  1  0  0  0  0
 16 10  2  0  0  0  0
M  END
>  <minimizedAffinity>
-4.31063938

>  <minimizedRMSD>
2.94707203

$$$$
