
 OpenBabel03272509293D

 32 34  0  0  1  0  0  0  0  0999 V2000
   37.8510   32.0120   45.2460 C   0  0  2  0  0  0  0  0  0  0  0  0
   38.4120   32.6470   43.9940 C   0  0  0  0  0  0  0  0  0  0  0  0
   39.8750   32.3720   43.8100 C   0  0  0  0  0  0  0  0  0  0  0  0
   40.6790   32.8190   45.0080 C   0  0  0  0  0  0  0  0  0  0  0  0
   40.1160   32.3240   46.2930 C   0  0  0  0  0  0  0  0  0  0  0  0
   38.8860   31.4650   46.1610 C   0  0  1  0  0  0  0  0  0  0  0  0
   37.1950   32.7630   45.7280 H   0  0  0  0  0  0  0  0  0  0  0  0
   38.3060   33.7500   44.0490 H   0  0  0  0  0  0  0  0  0  0  0  0
   37.8580   32.2620   43.1380 H   0  0  0  0  0  0  0  0  0  0  0  0
   40.2030   32.9850   42.9430 H   0  0  0  0  0  0  0  0  0  0  0  0
   39.9850   31.2920   43.5930 H   0  0  0  0  0  0  0  0  0  0  0  0
   40.5840   33.9400   45.0370 H   0  0  0  0  0  0  0  0  0  0  0  0
   41.7320   32.6010   44.8480 H   0  0  0  0  0  0  0  0  0  0  0  0
   40.8970   31.6330   46.7280 H   0  0  0  0  0  0  0  0  0  0  0  0
   40.0130   33.1110   47.0640 H   0  0  0  0  0  0  0  0  0  0  0  0
   39.1230   30.4070   45.9380 H   0  0  0  0  0  0  0  0  0  0  0  0
   36.9390   30.8840   44.8740 C   0  0  0  0  0  0  0  0  0  0  0  0
   37.4020   30.0220   43.8600 C   0  0  0  0  0  0  0  0  0  0  0  0
   36.5740   28.9710   43.4900 C   0  0  0  0  0  0  0  0  0  0  0  0
   35.3540   28.8210   44.1200 N   0  0  0  0  0  0  0  0  0  0  0  0
   34.9470   29.6790   45.0960 C   0  0  0  0  0  0  0  0  0  0  0  0
   35.7340   30.6940   45.4620 N   0  0  0  0  0  0  0  0  0  0  0  0
   38.3130   30.0690   43.3280 H   0  0  0  0  0  0  0  0  0  0  0  0
   36.8360   28.2490   42.7190 H   0  0  0  0  0  0  0  0  0  0  0  0
   33.9830   29.5140   45.5540 H   0  0  0  0  0  0  0  0  0  0  0  0
   38.2700   31.5140   47.5370 C   0  0  0  0  0  0  0  0  0  0  0  0
   37.8560   30.3100   48.0720 C   0  0  0  0  0  3  0  0  0  0  0  0
   37.2930   30.3460   49.3310 C   0  0  0  0  0  0  0  0  0  0  0  0
   36.9540   29.4040   49.7830 H   0  0  0  0  0  0  0  0  0  0  0  0
   37.1520   31.5200   50.0110 N   0  0  0  0  0  0  0  0  0  0  0  0
   37.5770   32.6760   49.4350 C   0  0  0  0  0  3  0  0  0  0  0  0
   38.1380   32.6580   48.1900 N   0  0  0  0  0  0  0  0  0  0  0  0
  1  7  1  1  0  0  0
  1  6  1  0  0  0  0
  2  8  1  0  0  0  0
  2  1  1  0  0  0  0
  3  2  1  0  0  0  0
  3  4  1  0  0  0  0
  4 12  1  0  0  0  0
  4  5  1  0  0  0  0
  5 14  1  0  0  0  0
  5 15  1  0  0  0  0
  6 16  1  6  0  0  0
  6  5  1  0  0  0  0
  6 26  1  0  0  0  0
  9  2  1  0  0  0  0
 10  3  1  0  0  0  0
 11  3  1  0  0  0  0
 13  4  1  0  0  0  0
 17  1  1  0  0  0  0
 17 22  1  0  0  0  0
 18 17  2  0  0  0  0
 19 18  1  0  0  0  0
 19 20  2  0  0  0  0
 20 21  1  0  0  0  0
 21 22  2  0  0  0  0
 21 25  1  0  0  0  0
 23 18  1  0  0  0  0
 24 19  1  0  0  0  0
 26 27  2  0  0  0  0
 26 32  1  0  0  0  0
 27 28  1  0  0  0  0
 28 29  1  0  0  0  0
 28 30  2  0  0  0  0
 31 30  1  0  0  0  0
 32 31  2  0  0  0  0
M  END
>  <minimizedAffinity>
-4.72831917

>  <minimizedRMSD>
5.44765234

$$$$
