
 OpenBabel03272507453D

 31 33  0  0  0  0  0  0  0  0999 V2000
   33.5830   29.6200   46.5860 N   0  0  0  0  0  0  0  0  0  0  0  0
   33.8540   29.4080   47.9800 C   0  0  0  0  0  0  0  0  0  0  0  0
   35.0980   29.9810   48.5340 C   0  0  0  0  0  0  0  0  0  0  0  0
   36.2580   30.1010   47.6150 C   0  0  0  0  0  0  0  0  0  0  0  0
   35.8860   30.2610   46.1770 C   0  0  0  0  0  0  0  0  0  0  0  0
   34.7640   29.2650   45.8440 C   0  0  0  0  0  0  0  0  0  0  0  0
   33.8010   28.2910   48.1320 H   0  0  0  0  0  0  0  0  0  0  0  0
   32.9890   29.8070   48.5510 H   0  0  0  0  0  0  0  0  0  0  0  0
   35.3970   29.3960   49.4280 H   0  0  0  0  0  0  0  0  0  0  0  0
   34.8770   31.0100   48.9120 H   0  0  0  0  0  0  0  0  0  0  0  0
   36.8780   29.1720   47.7080 H   0  0  0  0  0  0  0  0  0  0  0  0
   35.5010   31.2500   45.9130 H   0  0  0  0  0  0  0  0  0  0  0  0
   36.7560   29.9800   45.5450 H   0  0  0  0  0  0  0  0  0  0  0  0
   35.1430   28.2550   46.0850 H   0  0  0  0  0  0  0  0  0  0  0  0
   34.6420   29.3680   44.7430 H   0  0  0  0  0  0  0  0  0  0  0  0
   32.3650   30.0950   46.0360 C   0  0  0  0  0  0  0  0  0  0  0  0
   32.2390   31.2580   45.2740 C   0  0  0  0  0  0  0  0  0  0  0  0
   30.9760   31.6050   44.7950 C   0  0  0  0  0  0  0  0  0  0  0  0
   29.9220   30.7920   45.0940 N   0  0  0  0  0  0  0  0  0  0  0  0
   30.0890   29.6810   45.8320 C   0  0  0  0  0  0  0  0  0  0  0  0
   31.2970   29.3320   46.2990 N   0  0  0  0  0  0  0  0  0  0  0  0
   33.1380   31.8330   45.0940 H   0  0  0  0  0  0  0  0  0  0  0  0
   30.8870   32.5090   44.2050 H   0  0  0  0  0  0  0  0  0  0  0  0
   29.2270   29.0420   46.0590 H   0  0  0  0  0  0  0  0  0  0  0  0
   37.1310   31.2210   48.0570 C   0  0  0  0  0  0  0  0  0  0  0  0
   36.9150   31.7440   49.3340 C   0  0  0  0  0  3  0  0  0  0  0  0
   37.7600   32.7930   49.7010 C   0  0  0  0  0  0  0  0  0  0  0  0
   37.5940   33.2080   50.7040 H   0  0  0  0  0  0  0  0  0  0  0  0
   38.7360   33.3160   48.9340 N   0  0  0  0  0  0  0  0  0  0  0  0
   38.8900   32.7610   47.7070 C   0  0  0  0  0  3  0  0  0  0  0  0
   38.1170   31.7420   47.2700 N   0  0  0  0  0  0  0  0  0  0  0  0
  1  2  1  0  0  0  0
  2  7  1  0  0  0  0
  2  3  1  0  0  0  0
  2  8  1  0  0  0  0
  3 10  1  0  0  0  0
  3  9  1  0  0  0  0
  4 11  1  0  0  0  0
  4 25  1  0  0  0  0
  4  3  1  0  0  0  0
  5  4  1  0  0  0  0
  6 14  1  0  0  0  0
  6  5  1  0  0  0  0
  6  1  1  0  0  0  0
 12  5  1  0  0  0  0
 13  5  1  0  0  0  0
 15  6  1  0  0  0  0
 16 21  1  0  0  0  0
 16  1  1  0  0  0  0
 17 16  2  0  0  0  0
 18 19  2  0  0  0  0
 18 17  1  0  0  0  0
 19 20  1  0  0  0  0
 20 24  1  0  0  0  0
 20 21  2  0  0  0  0
 22 17  1  0  0  0  0
 23 18  1  0  0  0  0
 25 26  1  0  0  0  0
 26 27  2  0  0  0  0
 27 28  1  0  0  0  0
 29 27  1  0  0  0  0
 30 29  2  0  0  0  0
 31 30  1  0  0  0  0
 31 25  2  0  0  0  0
M  END
>  <minimizedAffinity>
-4.47695541

>  <minimizedRMSD>
3.8505137

$$$$
