
 OpenBabel03272508563D

 38 41  0  0  1  0  0  0  0  0999 V2000
   38.3190   31.8770   44.5680 C   0  0  0  0  0  0  0  0  0  0  0  0
   37.1560   32.3210   44.4540 O   0  0  0  0  0  0  0  0  0  0  0  0
   38.9450   31.7300   45.8750 N   0  0  0  0  0  0  0  0  0  0  0  0
   39.9500   31.5670   46.0200 H   0  0  0  0  0  0  0  0  0  0  0  0
   39.1230   31.4770   43.3890 C   0  0  0  0  0  0  0  0  0  0  0  0
   40.1240   30.5590   43.5430 C   0  0  0  0  0  0  0  0  0  0  0  0
   40.8430   30.2260   42.4070 C   0  0  0  0  0  0  0  0  0  0  0  0
   40.5270   30.8160   41.2190 C   0  0  0  0  0  0  0  0  0  0  0  0
   39.5140   31.7430   41.0640 C   0  0  0  0  0  0  0  0  0  0  0  0
   38.8430   32.0380   42.1840 N   0  0  0  0  0  0  0  0  0  0  0  0
   40.3590   30.1030   44.4960 H   0  0  0  0  0  0  0  0  0  0  0  0
   41.6430   29.5030   42.4890 H   0  0  0  0  0  0  0  0  0  0  0  0
   41.1280   30.5140   40.3550 H   0  0  0  0  0  0  0  0  0  0  0  0
   39.2130   32.3480   39.7650 C   0  0  0  0  0  0  0  0  0  0  0  0
   38.6710   33.4760   39.7410 O   0  0  0  0  0  0  0  0  0  0  0  0
   39.5190   31.6920   38.5040 C   0  0  0  0  0  0  0  0  0  0  0  0
   38.6380   30.7270   38.0640 C   0  0  0  0  0  3  0  0  0  0  0  0
   38.8970   30.0780   36.8600 C   0  0  0  0  0  0  0  0  0  0  0  0
   38.2220   29.3120   36.4850 H   0  0  0  0  0  0  0  0  0  0  0  0
   40.0110   30.4270   36.1740 N   0  0  0  0  0  0  0  0  0  0  0  0
   40.8610   31.3660   36.6120 C   0  0  0  0  0  3  0  0  0  0  0  0
   40.6110   31.9990   37.7800 N   0  0  0  0  0  0  0  0  0  0  0  0
   38.4300   31.1640   48.2400 C   0  0  2  0  0  0  0  0  0  0  0  0
   38.7080   32.6230   48.1940 C   0  0  0  0  0  0  0  0  0  0  0  0
   38.0770   31.8230   47.0240 C   0  0  1  0  0  0  0  0  0  0  0  0
   39.3610   30.5390   48.2980 H   0  0  0  0  0  0  0  0  0  0  0  0
   38.0170   33.2400   48.8120 H   0  0  0  0  0  0  0  0  0  0  0  0
   39.7310   33.0010   48.0690 H   0  0  0  0  0  0  0  0  0  0  0  0
   37.0020   32.0990   46.8470 H   0  0  0  0  0  0  0  0  0  0  0  0
   35.0760   30.2470   49.5200 C   0  0  0  0  0  0  0  0  0  0  0  0
   35.4000   29.5840   50.7420 C   0  0  0  0  0  0  0  0  0  0  0  0
   36.7930   29.4740   51.1070 C   0  0  0  0  0  0  0  0  0  0  0  0
   37.7530   30.0030   50.2790 N   0  0  0  0  0  0  0  0  0  0  0  0
   37.3650   30.6160   49.1410 C   0  0  0  0  0  0  0  0  0  0  0  0
   36.0440   30.7550   48.7320 N   0  0  0  0  0  0  0  0  0  0  0  0
   34.0170   30.2910   49.3110 H   0  0  0  0  0  0  0  0  0  0  0  0
   34.6620   29.1650   51.3970 H   0  0  0  0  0  0  0  0  0  0  0  0
   37.0360   28.9710   52.0330 H   0  0  0  0  0  0  0  0  0  0  0  0
  1  3  1  0  0  0  0
  2  1  2  0  0  0  0
  3  4  1  0  0  0  0
  3 25  1  0  0  0  0
  5  6  1  0  0  0  0
  5  1  1  0  0  0  0
  6 11  1  0  0  0  0
  7 12  1  0  0  0  0
  7  6  2  0  0  0  0
  8  7  1  0  0  0  0
  9  8  2  0  0  0  0
  9 10  1  0  0  0  0
 10  5  2  0  0  0  0
 13  8  1  0  0  0  0
 14  9  1  0  0  0  0
 15 14  2  0  0  0  0
 16 14  1  0  0  0  0
 17 16  1  0  0  0  0
 18 17  2  0  0  0  0
 19 18  1  0  0  0  0
 20 21  2  0  0  0  0
 20 18  1  0  0  0  0
 21 22  1  0  0  0  0
 22 16  2  0  0  0  0
 23 26  1  6  0  0  0
 23 34  1  0  0  0  0
 24 23  1  0  0  0  0
 24 27  1  0  0  0  0
 25 29  1  6  0  0  0
 25 24  1  0  0  0  0
 25 23  1  0  0  0  0
 28 24  1  0  0  0  0
 30 31  1  0  0  0  0
 31 32  2  0  0  0  0
 31 37  1  0  0  0  0
 32 38  1  0  0  0  0
 33 32  1  0  0  0  0
 34 33  2  0  0  0  0
 35 34  1  0  0  0  0
 35 30  2  0  0  0  0
 36 30  1  0  0  0  0
M  END
>  <minimizedAffinity>
-4.9481349

>  <minimizedRMSD>
0.328861237

$$$$
