
 OpenBabel03272500573D

 33 35  0  0  0  0  0  0  0  0999 V2000
   38.2170   31.9030   47.3930 C   0  0  0  0  0  0  0  0  0  0  0  0
   38.7750   32.7840   48.2760 C   0  0  0  0  0  0  0  0  0  0  0  0
   38.3480   32.8610   49.6020 C   0  0  0  0  0  0  0  0  0  0  0  0
   37.2860   31.9710   50.0170 C   0  0  0  0  0  0  0  0  0  0  0  0
   36.7680   31.1120   49.0870 C   0  0  0  0  0  0  0  0  0  0  0  0
   37.1850   31.0490   47.8190 C   0  0  0  0  0  0  0  0  0  0  0  0
   39.5770   33.4690   47.9970 H   0  0  0  0  0  0  0  0  0  0  0  0
   38.8150   33.5720   50.2670 H   0  0  0  0  0  0  0  0  0  0  0  0
   37.0590   32.1340   51.0480 H   0  0  0  0  0  0  0  0  0  0  0  0
   36.0230   30.5380   49.6140 H   0  0  0  0  0  0  0  0  0  0  0  0
   40.0320   31.2540   45.8840 C   0  0  0  0  0  0  0  0  0  0  0  0
   38.7840   31.9210   46.0630 C   0  0  0  0  0  0  0  0  0  0  0  0
   38.2680   32.5010   44.9320 C   0  0  0  0  0  0  0  0  0  0  0  0
   38.9180   32.4250   43.7600 N   0  0  0  0  0  0  0  0  0  0  0  0
   40.0850   31.7970   43.6120 C   0  0  0  0  0  0  0  0  0  0  0  0
   40.6300   31.2160   44.6780 N   0  0  0  0  0  0  0  0  0  0  0  0
   40.4940   30.7780   46.7300 H   0  0  0  0  0  0  0  0  0  0  0  0
   37.3210   32.9940   45.1220 H   0  0  0  0  0  0  0  0  0  0  0  0
   40.4600   31.8390   42.5950 H   0  0  0  0  0  0  0  0  0  0  0  0
   35.1450   30.0550   47.1860 C   0  0  0  0  0  0  0  0  0  0  0  0
   34.6360   30.6680   48.1970 O   0  0  0  0  0  0  0  0  0  0  0  0
   36.6060   30.1860   46.9210 N   0  0  0  0  0  0  0  0  0  0  0  0
   37.0560   29.6610   46.1420 H   0  0  0  0  0  0  0  0  0  0  0  0
   34.4110   29.2400   46.2700 O   0  0  0  0  0  0  0  0  0  0  0  0
   33.0430   29.3740   46.1980 C   0  0  0  0  0  0  0  0  0  0  0  0
   32.6300   30.2230   45.3560 O   0  0  0  0  0  0  0  0  0  0  0  0
   31.9610   28.6930   46.9480 C   0  0  0  0  0  0  0  0  0  0  0  0
   32.1750   27.8040   47.9990 C   0  0  0  0  0  0  0  0  0  0  0  0
   31.1560   27.1960   48.6670 C   0  0  0  0  0  0  0  0  0  0  0  0
   31.3630   26.5090   49.4810 H   0  0  0  0  0  0  0  0  0  0  0  0
   29.8840   27.4680   48.2890 N   0  0  0  0  0  0  0  0  0  0  0  0
   29.6600   28.3140   47.2890 C   0  0  0  0  0  0  0  0  0  0  0  0
   30.6760   28.8910   46.6570 N   0  0  0  0  0  0  0  0  0  0  0  0
  1  6  2  0  0  0  0
  1  2  1  0  0  0  0
  2  3  2  0  0  0  0
  3  4  1  0  0  0  0
  3  8  1  0  0  0  0
  4  9  1  0  0  0  0
  5 10  1  0  0  0  0
  5  4  2  0  0  0  0
  6  5  1  0  0  0  0
  7  2  1  0  0  0  0
 11 12  1  0  0  0  0
 11 17  1  0  0  0  0
 12  1  1  0  0  0  0
 13 18  1  0  0  0  0
 13 12  2  0  0  0  0
 14 13  1  0  0  0  0
 15 14  2  0  0  0  0
 15 16  1  0  0  0  0
 16 11  2  0  0  0  0
 19 15  1  0  0  0  0
 20 21  2  0  0  0  0
 22 20  1  0  0  0  0
 22  6  1  0  0  0  0
 23 22  1  0  0  0  0
 24 20  1  0  0  0  0
 25 24  1  0  0  0  0
 25 27  1  0  0  0  0
 26 25  2  0  0  0  0
 27 28  1  0  0  0  0
 28 29  2  0  0  0  0
 29 30  1  0  0  0  0
 31 29  1  0  0  0  0
 32 31  2  0  0  0  0
 33 27  2  0  0  0  0
 33 32  1  0  0  0  0
M  END
>  <minimizedAffinity>
-5.89861727

>  <minimizedRMSD>
1.14457655

$$$$
