
 OpenBabel03272508563D

 38 41  0  0  1  0  0  0  0  0999 V2000
   38.2980   31.9030   44.6500 C   0  0  0  0  0  0  0  0  0  0  0  0
   37.1350   32.3490   44.5380 O   0  0  0  0  0  0  0  0  0  0  0  0
   38.9230   31.7460   45.9560 N   0  0  0  0  0  0  0  0  0  0  0  0
   39.9280   31.5810   46.1000 H   0  0  0  0  0  0  0  0  0  0  0  0
   39.1020   31.5100   43.4690 C   0  0  0  0  0  0  0  0  0  0  0  0
   40.0970   30.5840   43.6150 C   0  0  0  0  0  0  0  0  0  0  0  0
   40.8160   30.2590   42.4770 C   0  0  0  0  0  0  0  0  0  0  0  0
   40.5070   30.8640   41.2940 C   0  0  0  0  0  0  0  0  0  0  0  0
   39.5010   31.7990   41.1470 C   0  0  0  0  0  0  0  0  0  0  0  0
   38.8290   32.0860   42.2690 N   0  0  0  0  0  0  0  0  0  0  0  0
   40.3260   30.1170   44.5630 H   0  0  0  0  0  0  0  0  0  0  0  0
   41.6110   29.5310   42.5530 H   0  0  0  0  0  0  0  0  0  0  0  0
   41.1070   30.5680   40.4280 H   0  0  0  0  0  0  0  0  0  0  0  0
   39.2070   32.4200   39.8540 C   0  0  0  0  0  0  0  0  0  0  0  0
   38.6540   33.5430   39.8420 O   0  0  0  0  0  0  0  0  0  0  0  0
   39.5310   31.7860   38.5870 C   0  0  0  0  0  0  0  0  0  0  0  0
   38.6650   30.8160   38.1270 C   0  0  0  0  0  3  0  0  0  0  0  0
   38.9440   30.1870   36.9160 C   0  0  0  0  0  0  0  0  0  0  0  0
   38.2820   29.4180   36.5240 H   0  0  0  0  0  0  0  0  0  0  0  0
   40.0590   30.5590   36.2430 N   0  0  0  0  0  0  0  0  0  0  0  0
   40.8930   31.5030   36.7010 C   0  0  0  0  0  3  0  0  0  0  0  0
   40.6260   32.1160   37.8770 N   0  0  0  0  0  0  0  0  0  0  0  0
   38.4100   31.1680   48.3190 C   0  0  2  0  0  0  0  0  0  0  0  0
   38.6840   32.6280   48.2780 C   0  0  0  0  0  0  0  0  0  0  0  0
   38.0550   31.8310   47.1060 C   0  0  1  0  0  0  0  0  0  0  0  0
   39.3420   30.5460   48.3740 H   0  0  0  0  0  0  0  0  0  0  0  0
   37.9910   33.2410   48.9000 H   0  0  0  0  0  0  0  0  0  0  0  0
   39.7050   33.0100   48.1560 H   0  0  0  0  0  0  0  0  0  0  0  0
   36.9790   32.1050   46.9290 H   0  0  0  0  0  0  0  0  0  0  0  0
   35.0620   30.1920   49.5710 C   0  0  0  0  0  0  0  0  0  0  0  0
   35.3850   29.5670   50.8140 C   0  0  0  0  0  0  0  0  0  0  0  0
   36.7750   29.5050   51.2020 C   0  0  0  0  0  0  0  0  0  0  0  0
   37.7330   30.0390   50.3760 N   0  0  0  0  0  0  0  0  0  0  0  0
   37.3460   30.6130   49.2170 C   0  0  0  0  0  0  0  0  0  0  0  0
   36.0280   30.7060   48.7860 N   0  0  0  0  0  0  0  0  0  0  0  0
   34.0050   30.2020   49.3460 H   0  0  0  0  0  0  0  0  0  0  0  0
   34.6490   29.1450   51.4690 H   0  0  0  0  0  0  0  0  0  0  0  0
   37.0180   29.0310   52.1430 H   0  0  0  0  0  0  0  0  0  0  0  0
  1  3  1  0  0  0  0
  2  1  2  0  0  0  0
  3  4  1  0  0  0  0
  3 25  1  0  0  0  0
  5  6  1  0  0  0  0
  5  1  1  0  0  0  0
  6 11  1  0  0  0  0
  7 12  1  0  0  0  0
  7  6  2  0  0  0  0
  8  7  1  0  0  0  0
  9  8  2  0  0  0  0
  9 10  1  0  0  0  0
 10  5  2  0  0  0  0
 13  8  1  0  0  0  0
 14  9  1  0  0  0  0
 15 14  2  0  0  0  0
 16 14  1  0  0  0  0
 17 16  1  0  0  0  0
 18 17  2  0  0  0  0
 19 18  1  0  0  0  0
 20 21  2  0  0  0  0
 20 18  1  0  0  0  0
 21 22  1  0  0  0  0
 22 16  2  0  0  0  0
 23 26  1  6  0  0  0
 23 34  1  0  0  0  0
 24 23  1  0  0  0  0
 24 27  1  0  0  0  0
 25 29  1  6  0  0  0
 25 24  1  0  0  0  0
 25 23  1  0  0  0  0
 28 24  1  0  0  0  0
 30 31  1  0  0  0  0
 31 32  2  0  0  0  0
 31 37  1  0  0  0  0
 32 38  1  0  0  0  0
 33 32  1  0  0  0  0
 34 33  2  0  0  0  0
 35 34  1  0  0  0  0
 35 30  2  0  0  0  0
 36 30  1  0  0  0  0
M  END
>  <minimizedAffinity>
-4.94474506

>  <minimizedRMSD>
0.577723742

$$$$
