
 OpenBabel03272508563D

 38 41  0  0  1  0  0  0  0  0999 V2000
   38.3600   31.8780   44.5320 C   0  0  0  0  0  0  0  0  0  0  0  0
   37.2340   32.4110   44.4190 O   0  0  0  0  0  0  0  0  0  0  0  0
   38.9510   31.6320   45.8400 N   0  0  0  0  0  0  0  0  0  0  0  0
   39.9380   31.3900   45.9930 H   0  0  0  0  0  0  0  0  0  0  0  0
   39.1540   31.4700   43.3490 C   0  0  0  0  0  0  0  0  0  0  0  0
   40.1470   30.5430   43.4980 C   0  0  0  0  0  0  0  0  0  0  0  0
   40.8570   30.2030   42.3590 C   0  0  0  0  0  0  0  0  0  0  0  0
   40.5400   30.7930   41.1720 C   0  0  0  0  0  0  0  0  0  0  0  0
   39.5340   31.7300   41.0210 C   0  0  0  0  0  0  0  0  0  0  0  0
   38.8720   32.0320   42.1450 N   0  0  0  0  0  0  0  0  0  0  0  0
   40.3830   30.0870   44.4500 H   0  0  0  0  0  0  0  0  0  0  0  0
   41.6510   29.4730   42.4370 H   0  0  0  0  0  0  0  0  0  0  0  0
   41.1320   30.4860   40.3040 H   0  0  0  0  0  0  0  0  0  0  0  0
   39.2320   32.3360   39.7230 C   0  0  0  0  0  0  0  0  0  0  0  0
   38.6730   33.4560   39.7010 O   0  0  0  0  0  0  0  0  0  0  0  0
   39.5530   31.6900   38.4610 C   0  0  0  0  0  0  0  0  0  0  0  0
   38.6780   30.7260   38.0050 C   0  0  0  0  0  3  0  0  0  0  0  0
   38.9530   30.0870   36.7990 C   0  0  0  0  0  0  0  0  0  0  0  0
   38.2830   29.3200   36.4110 H   0  0  0  0  0  0  0  0  0  0  0  0
   40.0750   30.4420   36.1270 N   0  0  0  0  0  0  0  0  0  0  0  0
   40.9160   31.3800   36.5810 C   0  0  0  0  0  3  0  0  0  0  0  0
   40.6530   32.0040   37.7510 N   0  0  0  0  0  0  0  0  0  0  0  0
   38.4230   31.1170   48.2140 C   0  0  2  0  0  0  0  0  0  0  0  0
   38.6800   32.5780   48.1340 C   0  0  0  0  0  0  0  0  0  0  0  0
   38.0710   31.7400   46.9800 C   0  0  1  0  0  0  0  0  0  0  0  0
   39.3620   30.5070   48.2960 H   0  0  0  0  0  0  0  0  0  0  0  0
   37.9750   33.2000   48.7310 H   0  0  0  0  0  0  0  0  0  0  0  0
   39.6990   32.9680   48.0090 H   0  0  0  0  0  0  0  0  0  0  0  0
   36.9930   31.9970   46.7860 H   0  0  0  0  0  0  0  0  0  0  0  0
   35.0670   30.2400   49.5170 C   0  0  0  0  0  0  0  0  0  0  0  0
   35.3920   29.5570   50.7280 C   0  0  0  0  0  0  0  0  0  0  0  0
   36.7860   29.4200   51.0780 C   0  0  0  0  0  0  0  0  0  0  0  0
   37.7470   29.9430   50.2460 N   0  0  0  0  0  0  0  0  0  0  0  0
   37.3580   30.5760   49.1190 C   0  0  0  0  0  0  0  0  0  0  0  0
   36.0350   30.7410   48.7260 N   0  0  0  0  0  0  0  0  0  0  0  0
   34.0070   30.3040   49.3200 H   0  0  0  0  0  0  0  0  0  0  0  0
   34.6540   29.1430   51.3860 H   0  0  0  0  0  0  0  0  0  0  0  0
   37.0310   28.9020   51.9950 H   0  0  0  0  0  0  0  0  0  0  0  0
  1  3  1  0  0  0  0
  2  1  2  0  0  0  0
  3  4  1  0  0  0  0
  3 25  1  0  0  0  0
  5  6  1  0  0  0  0
  5  1  1  0  0  0  0
  6 11  1  0  0  0  0
  7 12  1  0  0  0  0
  7  6  2  0  0  0  0
  8  7  1  0  0  0  0
  9  8  2  0  0  0  0
  9 10  1  0  0  0  0
 10  5  2  0  0  0  0
 13  8  1  0  0  0  0
 14  9  1  0  0  0  0
 15 14  2  0  0  0  0
 16 14  1  0  0  0  0
 17 16  1  0  0  0  0
 18 17  2  0  0  0  0
 19 18  1  0  0  0  0
 20 21  2  0  0  0  0
 20 18  1  0  0  0  0
 21 22  1  0  0  0  0
 22 16  2  0  0  0  0
 23 26  1  6  0  0  0
 23 34  1  0  0  0  0
 24 23  1  0  0  0  0
 24 27  1  0  0  0  0
 25 29  1  6  0  0  0
 25 24  1  0  0  0  0
 25 23  1  0  0  0  0
 28 24  1  0  0  0  0
 30 31  1  0  0  0  0
 31 32  2  0  0  0  0
 31 37  1  0  0  0  0
 32 38  1  0  0  0  0
 33 32  1  0  0  0  0
 34 33  2  0  0  0  0
 35 34  1  0  0  0  0
 35 30  2  0  0  0  0
 36 30  1  0  0  0  0
M  END
>  <minimizedAffinity>
-4.95138359

>  <minimizedRMSD>
0.404996216

$$$$
