
 OpenBabel03272508563D

 38 41  0  0  1  0  0  0  0  0999 V2000
   38.3800   31.8540   44.5900 C   0  0  0  0  0  0  0  0  0  0  0  0
   37.2930   32.4610   44.4680 O   0  0  0  0  0  0  0  0  0  0  0  0
   38.9230   31.5370   45.9030 N   0  0  0  0  0  0  0  0  0  0  0  0
   39.8890   31.2280   46.0700 H   0  0  0  0  0  0  0  0  0  0  0  0
   39.1730   31.4250   43.4130 C   0  0  0  0  0  0  0  0  0  0  0  0
   40.1470   30.4800   43.5720 C   0  0  0  0  0  0  0  0  0  0  0  0
   40.8560   30.1210   42.4380 C   0  0  0  0  0  0  0  0  0  0  0  0
   40.5570   30.7140   41.2470 C   0  0  0  0  0  0  0  0  0  0  0  0
   39.5720   31.6690   41.0870 C   0  0  0  0  0  0  0  0  0  0  0  0
   38.9090   31.9880   42.2050 N   0  0  0  0  0  0  0  0  0  0  0  0
   40.3680   30.0230   44.5270 H   0  0  0  0  0  0  0  0  0  0  0  0
   41.6350   29.3770   42.5240 H   0  0  0  0  0  0  0  0  0  0  0  0
   41.1490   30.3910   40.3840 H   0  0  0  0  0  0  0  0  0  0  0  0
   39.2880   32.2750   39.7850 C   0  0  0  0  0  0  0  0  0  0  0  0
   38.7860   33.4210   39.7550 O   0  0  0  0  0  0  0  0  0  0  0  0
   39.5660   31.6010   38.5270 C   0  0  0  0  0  0  0  0  0  0  0  0
   40.6390   32.0570   37.7900 C   0  0  0  0  0  3  0  0  0  0  0  0
   40.9350   31.4350   36.5810 C   0  0  0  0  0  0  0  0  0  0  0  0
   41.7750   31.7700   35.9740 H   0  0  0  0  0  0  0  0  0  0  0  0
   40.1510   30.4040   36.1810 N   0  0  0  0  0  0  0  0  0  0  0  0
   39.1110   29.9710   36.9070 C   0  0  0  0  0  3  0  0  0  0  0  0
   38.8200   30.5730   38.0820 N   0  0  0  0  0  0  0  0  0  0  0  0
   38.2770   30.9480   48.2300 C   0  0  2  0  0  0  0  0  0  0  0  0
   38.6850   32.3770   48.2410 C   0  0  0  0  0  0  0  0  0  0  0  0
   38.0270   31.6730   47.0260 C   0  0  1  0  0  0  0  0  0  0  0  0
   39.1450   30.2400   48.2980 H   0  0  0  0  0  0  0  0  0  0  0  0
   38.0310   33.0350   48.8580 H   0  0  0  0  0  0  0  0  0  0  0  0
   39.7410   32.6650   48.1630 H   0  0  0  0  0  0  0  0  0  0  0  0
   36.9870   32.0510   46.8240 H   0  0  0  0  0  0  0  0  0  0  0  0
   34.8210   30.1350   49.2900 C   0  0  0  0  0  0  0  0  0  0  0  0
   35.0360   29.5660   50.5820 C   0  0  0  0  0  0  0  0  0  0  0  0
   36.3930   29.4840   51.0700 C   0  0  0  0  0  0  0  0  0  0  0  0
   37.4230   29.9470   50.2880 N   0  0  0  0  0  0  0  0  0  0  0  0
   37.1360   30.4720   49.0770 C   0  0  0  0  0  0  0  0  0  0  0  0
   35.8550   30.5800   48.5500 N   0  0  0  0  0  0  0  0  0  0  0  0
   33.7830   30.1650   48.9900 H   0  0  0  0  0  0  0  0  0  0  0  0
   34.2430   29.2000   51.2030 H   0  0  0  0  0  0  0  0  0  0  0  0
   36.5550   29.0530   52.0480 H   0  0  0  0  0  0  0  0  0  0  0  0
  1  3  1  0  0  0  0
  2  1  2  0  0  0  0
  3  4  1  0  0  0  0
  3 25  1  0  0  0  0
  5  6  1  0  0  0  0
  5  1  1  0  0  0  0
  6 11  1  0  0  0  0
  7 12  1  0  0  0  0
  7  6  2  0  0  0  0
  8  7  1  0  0  0  0
  9  8  2  0  0  0  0
  9 10  1  0  0  0  0
 10  5  2  0  0  0  0
 13  8  1  0  0  0  0
 14  9  1  0  0  0  0
 15 14  2  0  0  0  0
 16 14  1  0  0  0  0
 17 16  2  0  0  0  0
 18 17  1  0  0  0  0
 19 18  1  0  0  0  0
 20 18  2  0  0  0  0
 20 21  1  0  0  0  0
 21 22  2  0  0  0  0
 22 16  1  0  0  0  0
 23 24  1  0  0  0  0
 23 26  1  6  0  0  0
 23 34  1  0  0  0  0
 24 27  1  0  0  0  0
 25 29  1  6  0  0  0
 25 23  1  0  0  0  0
 25 24  1  0  0  0  0
 28 24  1  0  0  0  0
 30 31  1  0  0  0  0
 31 32  2  0  0  0  0
 31 37  1  0  0  0  0
 32 38  1  0  0  0  0
 33 32  1  0  0  0  0
 34 33  2  0  0  0  0
 35 34  1  0  0  0  0
 35 30  2  0  0  0  0
 36 30  1  0  0  0  0
M  END
>  <minimizedAffinity>
-4.94898891

>  <minimizedRMSD>
0.535531759

$$$$
