
 OpenBabel03272508563D

 38 41  0  0  1  0  0  0  0  0999 V2000
   38.3740   31.8600   44.5780 C   0  0  0  0  0  0  0  0  0  0  0  0
   37.2590   32.4130   44.4590 O   0  0  0  0  0  0  0  0  0  0  0  0
   38.9510   31.6010   45.8900 N   0  0  0  0  0  0  0  0  0  0  0  0
   39.9320   31.3410   46.0500 H   0  0  0  0  0  0  0  0  0  0  0  0
   39.1700   31.4400   43.4000 C   0  0  0  0  0  0  0  0  0  0  0  0
   40.1550   30.5070   43.5580 C   0  0  0  0  0  0  0  0  0  0  0  0
   40.8670   30.1560   42.4230 C   0  0  0  0  0  0  0  0  0  0  0  0
   40.5590   30.7440   41.2320 C   0  0  0  0  0  0  0  0  0  0  0  0
   39.5620   31.6870   41.0730 C   0  0  0  0  0  0  0  0  0  0  0  0
   38.8980   32.0000   42.1930 N   0  0  0  0  0  0  0  0  0  0  0  0
   40.3840   30.0520   44.5130 H   0  0  0  0  0  0  0  0  0  0  0  0
   41.6550   29.4200   42.5080 H   0  0  0  0  0  0  0  0  0  0  0  0
   41.1530   30.4280   40.3680 H   0  0  0  0  0  0  0  0  0  0  0  0
   39.2690   32.2900   39.7710 C   0  0  0  0  0  0  0  0  0  0  0  0
   38.7540   33.4300   39.7420 O   0  0  0  0  0  0  0  0  0  0  0  0
   39.5530   31.6190   38.5130 C   0  0  0  0  0  0  0  0  0  0  0  0
   40.6240   32.0820   37.7790 C   0  0  0  0  0  3  0  0  0  0  0  0
   40.9270   31.4630   36.5680 C   0  0  0  0  0  0  0  0  0  0  0  0
   41.7660   31.8030   35.9640 H   0  0  0  0  0  0  0  0  0  0  0  0
   40.1500   30.4280   36.1680 N   0  0  0  0  0  0  0  0  0  0  0  0
   39.1110   29.9880   36.8910 C   0  0  0  0  0  3  0  0  0  0  0  0
   38.8150   30.5870   38.0660 N   0  0  0  0  0  0  0  0  0  0  0  0
   38.4100   31.1140   48.2680 C   0  0  2  0  0  0  0  0  0  0  0  0
   38.6660   32.5750   48.1710 C   0  0  0  0  0  0  0  0  0  0  0  0
   38.0650   31.7220   47.0230 C   0  0  1  0  0  0  0  0  0  0  0  0
   39.3490   30.5070   48.3620 H   0  0  0  0  0  0  0  0  0  0  0  0
   37.9570   33.2030   48.7570 H   0  0  0  0  0  0  0  0  0  0  0  0
   39.6850   32.9640   48.0470 H   0  0  0  0  0  0  0  0  0  0  0  0
   36.9880   31.9750   46.8210 H   0  0  0  0  0  0  0  0  0  0  0  0
   35.0510   30.2100   49.5420 C   0  0  0  0  0  0  0  0  0  0  0  0
   35.3680   29.5800   50.7840 C   0  0  0  0  0  0  0  0  0  0  0  0
   36.7590   29.4880   51.1630 C   0  0  0  0  0  0  0  0  0  0  0  0
   37.7230   30.0020   50.3300 N   0  0  0  0  0  0  0  0  0  0  0  0
   37.3410   30.5830   49.1730 C   0  0  0  0  0  0  0  0  0  0  0  0
   36.0220   30.7030   48.7500 N   0  0  0  0  0  0  0  0  0  0  0  0
   33.9930   30.2420   49.3240 H   0  0  0  0  0  0  0  0  0  0  0  0
   34.6280   29.1740   51.4430 H   0  0  0  0  0  0  0  0  0  0  0  0
   36.9970   29.0110   52.1030 H   0  0  0  0  0  0  0  0  0  0  0  0
  1  3  1  0  0  0  0
  2  1  2  0  0  0  0
  3  4  1  0  0  0  0
  3 25  1  0  0  0  0
  5  6  1  0  0  0  0
  5  1  1  0  0  0  0
  6 11  1  0  0  0  0
  7 12  1  0  0  0  0
  7  6  2  0  0  0  0
  8  7  1  0  0  0  0
  9  8  2  0  0  0  0
  9 10  1  0  0  0  0
 10  5  2  0  0  0  0
 13  8  1  0  0  0  0
 14  9  1  0  0  0  0
 15 14  2  0  0  0  0
 16 14  1  0  0  0  0
 17 16  2  0  0  0  0
 18 17  1  0  0  0  0
 19 18  1  0  0  0  0
 20 18  2  0  0  0  0
 20 21  1  0  0  0  0
 21 22  2  0  0  0  0
 22 16  1  0  0  0  0
 23 26  1  6  0  0  0
 23 34  1  0  0  0  0
 24 23  1  0  0  0  0
 24 27  1  0  0  0  0
 25 29  1  6  0  0  0
 25 24  1  0  0  0  0
 25 23  1  0  0  0  0
 28 24  1  0  0  0  0
 30 31  1  0  0  0  0
 31 32  2  0  0  0  0
 31 37  1  0  0  0  0
 32 38  1  0  0  0  0
 33 32  1  0  0  0  0
 34 33  2  0  0  0  0
 35 34  1  0  0  0  0
 35 30  2  0  0  0  0
 36 30  1  0  0  0  0
M  END
>  <minimizedAffinity>
-4.94667339

>  <minimizedRMSD>
0.616424859

$$$$
