
 OpenBabel03272508563D

 38 41  0  0  1  0  0  0  0  0999 V2000
   38.3340   31.8680   44.6010 C   0  0  0  0  0  0  0  0  0  0  0  0
   37.1810   32.3360   44.4780 O   0  0  0  0  0  0  0  0  0  0  0  0
   38.9450   31.7010   45.9120 N   0  0  0  0  0  0  0  0  0  0  0  0
   39.9440   31.5170   46.0660 H   0  0  0  0  0  0  0  0  0  0  0  0
   39.1410   31.4580   43.4270 C   0  0  0  0  0  0  0  0  0  0  0  0
   40.1380   30.5380   43.5900 C   0  0  0  0  0  0  0  0  0  0  0  0
   40.8600   30.1960   42.4590 C   0  0  0  0  0  0  0  0  0  0  0  0
   40.5510   30.7790   41.2660 C   0  0  0  0  0  0  0  0  0  0  0  0
   39.5410   31.7090   41.1020 C   0  0  0  0  0  0  0  0  0  0  0  0
   38.8670   32.0130   42.2180 N   0  0  0  0  0  0  0  0  0  0  0  0
   40.3680   30.0870   44.5470 H   0  0  0  0  0  0  0  0  0  0  0  0
   41.6580   29.4710   42.5480 H   0  0  0  0  0  0  0  0  0  0  0  0
   41.1530   30.4710   40.4060 H   0  0  0  0  0  0  0  0  0  0  0  0
   39.2470   32.3070   39.7980 C   0  0  0  0  0  0  0  0  0  0  0  0
   38.7410   33.4510   39.7650 O   0  0  0  0  0  0  0  0  0  0  0  0
   39.5180   31.6250   38.5430 C   0  0  0  0  0  0  0  0  0  0  0  0
   40.5840   32.0810   37.7950 C   0  0  0  0  0  3  0  0  0  0  0  0
   40.8740   31.4540   36.5870 C   0  0  0  0  0  0  0  0  0  0  0  0
   41.7070   31.7880   35.9720 H   0  0  0  0  0  0  0  0  0  0  0  0
   40.0910   30.4170   36.2000 N   0  0  0  0  0  0  0  0  0  0  0  0
   39.0580   29.9840   36.9360 C   0  0  0  0  0  3  0  0  0  0  0  0
   38.7730   30.5910   38.1100 N   0  0  0  0  0  0  0  0  0  0  0  0
   38.4140   31.1620   48.2810 C   0  0  2  0  0  0  0  0  0  0  0  0
   38.6870   32.6220   48.2180 C   0  0  0  0  0  0  0  0  0  0  0  0
   38.0680   31.8050   47.0540 C   0  0  1  0  0  0  0  0  0  0  0  0
   39.3460   30.5410   48.3540 H   0  0  0  0  0  0  0  0  0  0  0  0
   37.9900   33.2440   48.8240 H   0  0  0  0  0  0  0  0  0  0  0  0
   39.7100   33.0020   48.0970 H   0  0  0  0  0  0  0  0  0  0  0  0
   36.9930   32.0750   46.8660 H   0  0  0  0  0  0  0  0  0  0  0  0
   35.0540   30.2410   49.5420 C   0  0  0  0  0  0  0  0  0  0  0  0
   35.3710   29.6020   50.7800 C   0  0  0  0  0  0  0  0  0  0  0  0
   36.7610   29.5110   51.1610 C   0  0  0  0  0  0  0  0  0  0  0  0
   37.7250   30.0330   50.3340 N   0  0  0  0  0  0  0  0  0  0  0  0
   37.3440   30.6220   49.1800 C   0  0  0  0  0  0  0  0  0  0  0  0
   36.0260   30.7420   48.7560 N   0  0  0  0  0  0  0  0  0  0  0  0
   33.9970   30.2720   49.3220 H   0  0  0  0  0  0  0  0  0  0  0  0
   34.6300   29.1900   51.4350 H   0  0  0  0  0  0  0  0  0  0  0  0
   36.9990   29.0270   52.0980 H   0  0  0  0  0  0  0  0  0  0  0  0
  1  3  1  0  0  0  0
  2  1  2  0  0  0  0
  3  4  1  0  0  0  0
  3 25  1  0  0  0  0
  5  6  1  0  0  0  0
  5  1  1  0  0  0  0
  6 11  1  0  0  0  0
  7 12  1  0  0  0  0
  7  6  2  0  0  0  0
  8  7  1  0  0  0  0
  9  8  2  0  0  0  0
  9 10  1  0  0  0  0
 10  5  2  0  0  0  0
 13  8  1  0  0  0  0
 14  9  1  0  0  0  0
 15 14  2  0  0  0  0
 16 14  1  0  0  0  0
 17 16  2  0  0  0  0
 18 17  1  0  0  0  0
 19 18  1  0  0  0  0
 20 18  2  0  0  0  0
 20 21  1  0  0  0  0
 21 22  2  0  0  0  0
 22 16  1  0  0  0  0
 23 26  1  6  0  0  0
 23 34  1  0  0  0  0
 24 23  1  0  0  0  0
 24 27  1  0  0  0  0
 25 29  1  6  0  0  0
 25 24  1  0  0  0  0
 25 23  1  0  0  0  0
 28 24  1  0  0  0  0
 30 31  1  0  0  0  0
 31 32  2  0  0  0  0
 31 37  1  0  0  0  0
 32 38  1  0  0  0  0
 33 32  1  0  0  0  0
 34 33  2  0  0  0  0
 35 34  1  0  0  0  0
 35 30  2  0  0  0  0
 36 30  1  0  0  0  0
M  END
>  <minimizedAffinity>
-4.93707895

>  <minimizedRMSD>
0.412166089

$$$$
