
 OpenBabel03272508563D

 38 41  0  0  1  0  0  0  0  0999 V2000
   38.4230   31.8170   44.5890 C   0  0  0  0  0  0  0  0  0  0  0  0
   37.3580   32.4590   44.4580 O   0  0  0  0  0  0  0  0  0  0  0  0
   38.9380   31.4720   45.9070 N   0  0  0  0  0  0  0  0  0  0  0  0
   39.8910   31.1310   46.0850 H   0  0  0  0  0  0  0  0  0  0  0  0
   39.2200   31.3740   43.4210 C   0  0  0  0  0  0  0  0  0  0  0  0
   40.1930   30.4310   43.5940 C   0  0  0  0  0  0  0  0  0  0  0  0
   40.9050   30.0580   42.4670 C   0  0  0  0  0  0  0  0  0  0  0  0
   40.6110   30.6350   41.2670 C   0  0  0  0  0  0  0  0  0  0  0  0
   39.6260   31.5890   41.0920 C   0  0  0  0  0  0  0  0  0  0  0  0
   38.9590   31.9220   42.2050 N   0  0  0  0  0  0  0  0  0  0  0  0
   40.4110   29.9850   44.5550 H   0  0  0  0  0  0  0  0  0  0  0  0
   41.6840   29.3140   42.5640 H   0  0  0  0  0  0  0  0  0  0  0  0
   41.2050   30.3020   40.4100 H   0  0  0  0  0  0  0  0  0  0  0  0
   39.3460   32.1800   39.7820 C   0  0  0  0  0  0  0  0  0  0  0  0
   38.7180   33.2610   39.7350 O   0  0  0  0  0  0  0  0  0  0  0  0
   39.7690   31.5610   38.5360 C   0  0  0  0  0  0  0  0  0  0  0  0
   38.9360   30.6070   37.9900 C   0  0  0  0  0  3  0  0  0  0  0  0
   39.3080   29.9930   36.7980 C   0  0  0  0  0  0  0  0  0  0  0  0
   38.6740   29.2350   36.3410 H   0  0  0  0  0  0  0  0  0  0  0  0
   40.4780   30.3640   36.2250 N   0  0  0  0  0  0  0  0  0  0  0  0
   41.2790   31.2940   36.7650 C   0  0  0  0  0  3  0  0  0  0  0  0
   40.9210   31.8910   37.9240 N   0  0  0  0  0  0  0  0  0  0  0  0
   38.2730   30.9300   48.2410 C   0  0  2  0  0  0  0  0  0  0  0  0
   38.6710   32.3620   48.2240 C   0  0  0  0  0  0  0  0  0  0  0  0
   38.0300   31.6260   47.0190 C   0  0  1  0  0  0  0  0  0  0  0  0
   39.1460   30.2310   48.3330 H   0  0  0  0  0  0  0  0  0  0  0  0
   38.0060   33.0290   48.8190 H   0  0  0  0  0  0  0  0  0  0  0  0
   39.7260   32.6560   48.1490 H   0  0  0  0  0  0  0  0  0  0  0  0
   36.9890   31.9910   46.7980 H   0  0  0  0  0  0  0  0  0  0  0  0
   34.8100   30.1490   49.3000 C   0  0  0  0  0  0  0  0  0  0  0  0
   35.0200   29.5790   50.5920 C   0  0  0  0  0  0  0  0  0  0  0  0
   36.3750   29.4840   51.0800 C   0  0  0  0  0  0  0  0  0  0  0  0
   37.4100   29.9380   50.2980 N   0  0  0  0  0  0  0  0  0  0  0  0
   37.1280   30.4650   49.0880 C   0  0  0  0  0  0  0  0  0  0  0  0
   35.8480   30.5850   48.5600 N   0  0  0  0  0  0  0  0  0  0  0  0
   33.7720   30.1880   48.9990 H   0  0  0  0  0  0  0  0  0  0  0  0
   34.2230   29.2200   51.2130 H   0  0  0  0  0  0  0  0  0  0  0  0
   36.5330   29.0520   52.0590 H   0  0  0  0  0  0  0  0  0  0  0  0
  1  3  1  0  0  0  0
  2  1  2  0  0  0  0
  3  4  1  0  0  0  0
  3 25  1  0  0  0  0
  5  6  1  0  0  0  0
  5  1  1  0  0  0  0
  6 11  1  0  0  0  0
  7 12  1  0  0  0  0
  7  6  2  0  0  0  0
  8  7  1  0  0  0  0
  9  8  2  0  0  0  0
  9 10  1  0  0  0  0
 10  5  2  0  0  0  0
 13  8  1  0  0  0  0
 14  9  1  0  0  0  0
 15 14  2  0  0  0  0
 16 14  1  0  0  0  0
 17 16  1  0  0  0  0
 18 17  2  0  0  0  0
 19 18  1  0  0  0  0
 20 21  2  0  0  0  0
 20 18  1  0  0  0  0
 21 22  1  0  0  0  0
 22 16  2  0  0  0  0
 23 26  1  6  0  0  0
 23 34  1  0  0  0  0
 24 23  1  0  0  0  0
 24 27  1  0  0  0  0
 25 29  1  6  0  0  0
 25 24  1  0  0  0  0
 25 23  1  0  0  0  0
 28 24  1  0  0  0  0
 30 31  1  0  0  0  0
 31 32  2  0  0  0  0
 31 37  1  0  0  0  0
 32 38  1  0  0  0  0
 33 32  1  0  0  0  0
 34 33  2  0  0  0  0
 35 34  1  0  0  0  0
 35 30  2  0  0  0  0
 36 30  1  0  0  0  0
M  END
>  <minimizedAffinity>
-4.96179724

>  <minimizedRMSD>
0.688358247

$$$$
