
 OpenBabel03272508153D

 28 30  0  0  0  0  0  0  0  0999 V2000
   39.0090   31.1880   46.9270 Cl  0  0  0  0  0  0  0  0  0  0  0  0
   37.4360   30.7580   46.3340 C   0  0  0  0  0  0  0  0  0  0  0  0
   36.5670   30.3640   47.3110 C   0  0  0  0  0  0  0  0  0  0  0  0
   35.2550   30.0050   46.9330 C   0  0  0  0  0  0  0  0  0  0  0  0
   34.8550   30.0480   45.6330 C   0  0  0  0  0  0  0  0  0  0  0  0
   35.7600   30.4520   44.6650 C   0  0  0  0  0  0  0  0  0  0  0  0
   35.2580   30.5170   42.9900 Cl  0  0  0  0  0  0  0  0  0  0  0  0
   37.0340   30.8000   45.0340 C   0  0  0  0  0  0  0  0  0  0  0  0
   34.4950   29.6800   47.6310 H   0  0  0  0  0  0  0  0  0  0  0  0
   33.8440   29.7760   45.3170 H   0  0  0  0  0  0  0  0  0  0  0  0
   37.0960   31.4270   49.4730 C   0  0  0  0  0  0  0  0  0  0  0  0
   36.7710   30.2360   48.7570 C   0  0  0  0  0  0  0  0  0  0  0  0
   36.6770   29.0630   49.4770 C   0  0  0  0  0  0  0  0  0  0  0  0
   36.8980   29.1170   50.8160 N   0  0  0  0  0  0  0  0  0  0  0  0
   37.2020   30.2490   51.4670 C   0  0  0  0  0  0  0  0  0  0  0  0
   37.3010   31.4060   50.7910 N   0  0  0  0  0  0  0  0  0  0  0  0
   37.1800   32.3690   48.9490 H   0  0  0  0  0  0  0  0  0  0  0  0
   36.4310   28.1670   48.9260 H   0  0  0  0  0  0  0  0  0  0  0  0
   37.3590   30.1760   52.5400 H   0  0  0  0  0  0  0  0  0  0  0  0
   38.0190   31.2090   44.0390 C   0  0  0  0  0  0  0  0  0  0  0  0
   38.2240   32.3760   43.5850 O   0  0  0  0  0  0  0  0  0  0  0  0
   38.9250   30.2000   43.4350 C   0  0  0  0  0  0  0  0  0  0  0  0
   40.1450   30.5980   42.9310 C   0  0  0  0  0  3  0  0  0  0  0  0
   41.0760   29.7440   42.3290 C   0  0  0  0  0  0  0  0  0  0  0  0
   42.0170   30.0740   41.9450 H   0  0  0  0  0  0  0  0  0  0  0  0
   40.7340   28.4430   42.2470 N   0  0  0  0  0  0  0  0  0  0  0  0
   39.5420   28.0600   42.7400 C   0  0  0  0  0  3  0  0  0  0  0  0
   38.6790   28.9100   43.3090 N   0  0  0  0  0  0  0  0  0  0  0  0
  2  1  1  0  0  0  0
  2  3  1  0  0  0  0
  3 12  1  0  0  0  0
  4  3  2  0  0  0  0
  4  9  1  0  0  0  0
  5  4  1  0  0  0  0
  6  8  1  0  0  0  0
  6  5  2  0  0  0  0
  7  6  1  0  0  0  0
  8  2  2  0  0  0  0
 10  5  1  0  0  0  0
 11 16  1  0  0  0  0
 12 11  2  0  0  0  0
 12 13  1  0  0  0  0
 13 14  2  0  0  0  0
 14 15  1  0  0  0  0
 15 19  1  0  0  0  0
 16 15  2  0  0  0  0
 17 11  1  0  0  0  0
 18 13  1  0  0  0  0
 20  8  1  0  0  0  0
 21 20  2  0  0  0  0
 22 20  1  0  0  0  0
 23 22  2  0  0  0  0
 24 23  1  0  0  0  0
 25 24  1  0  0  0  0
 26 24  2  0  0  0  0
 26 27  1  0  0  0  0
 27 28  2  0  0  0  0
 28 22  1  0  0  0  0
M  END
>  <minimizedAffinity>
-5.46934652

>  <minimizedRMSD>
6.04371119

$$$$
