
 OpenBabel03262521023D

 35 37  0  0  1  0  0  0  0  0999 V2000
   38.8860   22.1330   35.0160 S   0  0  0  0  0  0  0  0  0  0  0  0
   38.6420   24.4110   36.4680 N   0  0  0  0  0  0  0  0  0  0  0  0
   39.6240   23.5900   35.8340 C   0  0  1  0  0  0  0  0  0  0  0  0
   40.5820   23.0530   36.8660 C   0  0  0  0  0  0  0  0  0  0  0  0
   39.7880   22.2690   37.8220 N   0  0  0  0  0  0  0  0  0  0  0  0
   38.9900   23.2640   38.5520 C   0  0  0  0  0  0  0  0  0  0  0  0
   37.9720   23.7930   37.5640 C   0  0  2  0  0  0  0  0  0  0  0  0
   38.0780   25.0040   35.8570 H   0  0  0  0  0  0  0  0  0  0  0  0
   40.1360   24.1720   35.0530 H   0  0  0  0  0  0  0  0  0  0  0  0
   41.4240   22.4990   36.4580 H   0  0  0  0  0  0  0  0  0  0  0  0
   40.9340   23.9360   37.4630 H   0  0  0  0  0  0  0  0  0  0  0  0
   40.4080   21.7340   38.4700 H   0  0  0  0  0  0  0  0  0  0  0  0
   38.4880   22.7980   39.4250 H   0  0  0  0  0  0  0  0  0  0  0  0
   39.6810   24.0660   38.8150 H   0  0  0  0  0  0  0  0  0  0  0  0
   37.3800   24.5680   38.0920 H   0  0  0  0  0  0  0  0  0  0  0  0
   37.1050   22.7040   37.1710 N   0  0  0  0  0  0  0  0  0  0  0  0
   36.7420   22.9000   36.2120 H   0  0  0  0  0  0  0  0  0  0  0  0
   37.5570   21.7660   37.2550 H   0  0  0  0  0  0  0  0  0  0  0  0
   36.0810   22.3670   32.0970 C   0  0  0  0  0  0  0  0  0  0  0  0
   36.8490   21.8530   33.1190 C   0  0  0  0  0  0  0  0  0  0  0  0
   37.8230   22.6510   33.6960 C   0  0  0  0  0  0  0  0  0  0  0  0
   37.9760   23.9330   33.2160 N   0  0  0  0  0  0  0  0  0  0  0  0
   37.2000   24.3810   32.2200 C   0  0  0  0  0  0  0  0  0  0  0  0
   36.2610   23.6140   31.6620 N   0  0  0  0  0  0  0  0  0  0  0  0
   35.3230   21.7360   31.6520 H   0  0  0  0  0  0  0  0  0  0  0  0
   36.7240   20.8620   33.4850 H   0  0  0  0  0  0  0  0  0  0  0  0
   37.3720   25.7350   31.7220 C   0  0  0  0  0  0  0  0  0  0  0  0
   38.0850   26.0260   30.7380 O   0  0  0  0  0  0  0  0  0  0  0  0
   36.6950   26.8490   32.3790 C   0  0  0  0  0  0  0  0  0  0  0  0
   37.0250   27.2010   33.6710 C   0  0  0  0  0  3  0  0  0  0  0  0
   36.4130   28.2550   34.3490 C   0  0  0  0  0  0  0  0  0  0  0  0
   36.6840   28.5230   35.3730 H   0  0  0  0  0  0  0  0  0  0  0  0
   35.4500   28.9420   33.6680 N   0  0  0  0  0  0  0  0  0  0  0  0
   35.1220   28.6090   32.4130 C   0  0  0  0  0  3  0  0  0  0  0  0
   35.7230   27.5770   31.7540 N   0  0  0  0  0  0  0  0  0  0  0  0
  1  3  1  0  0  0  0
  2  7  1  0  0  0  0
  3  9  1  6  0  0  0
  3  2  1  0  0  0  0
  3  4  1  0  0  0  0
  4 11  1  0  0  0  0
  4  5  1  0  0  0  0
  5 12  1  0  0  0  0
  5  6  1  0  0  0  0
  6 14  1  0  0  0  0
  6 13  1  0  0  0  0
  7 15  1  1  0  0  0
  7  6  1  0  0  0  0
  8  2  1  0  0  0  0
 10  4  1  0  0  0  0
 16 18  1  0  0  0  0
 16  7  1  0  0  0  0
 17 16  1  0  0  0  0
 19 20  1  0  0  0  0
 20 26  1  0  0  0  0
 20 21  2  0  0  0  0
 21  1  1  0  0  0  0
 22 21  1  0  0  0  0
 23 22  2  0  0  0  0
 24 19  2  0  0  0  0
 24 23  1  0  0  0  0
 25 19  1  0  0  0  0
 27 23  1  0  0  0  0
 27 29  1  0  0  0  0
 28 27  2  0  0  0  0
 29 30  1  0  0  0  0
 30 31  2  0  0  0  0
 31 32  1  0  0  0  0
 33 31  1  0  0  0  0
 34 33  2  0  0  0  0
 35 29  2  0  0  0  0
 35 34  1  0  0  0  0
M  END
>  <minimizedAffinity>
-5.45916033

$$$$

 OpenBabel03262521023D

 35 37  0  0  1  0  0  0  0  0999 V2000
   35.7480   24.8810   31.1640 S   0  0  0  0  0  0  0  0  0  0  0  0
   37.8380   26.3020   32.1480 N   0  0  0  0  0  0  0  0  0  0  0  0
   36.4110   26.3100   32.0880 C   0  0  1  0  0  0  0  0  0  0  0  0
   35.9380   27.5400   31.3580 C   0  0  0  0  0  0  0  0  0  0  0  0
   36.5140   27.4850   30.0070 N   0  0  0  0  0  0  0  0  0  0  0  0
   37.9530   27.7110   30.2030 C   0  0  0  0  0  0  0  0  0  0  0  0
   38.4840   26.4690   30.8880 C   0  0  2  0  0  0  0  0  0  0  0  0
   38.2650   25.6430   32.8010 H   0  0  0  0  0  0  0  0  0  0  0  0
   36.0040   26.2480   33.1080 H   0  0  0  0  0  0  0  0  0  0  0  0
   34.8600   27.6790   31.3550 H   0  0  0  0  0  0  0  0  0  0  0  0
   36.4540   28.4130   31.8390 H   0  0  0  0  0  0  0  0  0  0  0  0
   36.0970   28.2210   29.3950 H   0  0  0  0  0  0  0  0  0  0  0  0
   38.4600   27.8720   29.2290 H   0  0  0  0  0  0  0  0  0  0  0  0
   38.0320   28.5570   30.8880 H   0  0  0  0  0  0  0  0  0  0  0  0
   39.5650   26.6370   31.0700 H   0  0  0  0  0  0  0  0  0  0  0  0
   38.3100   25.3440   29.9960 N   0  0  0  0  0  0  0  0  0  0  0  0
   38.2180   24.4770   30.5720 H   0  0  0  0  0  0  0  0  0  0  0  0
   37.5260   25.4720   29.3190 H   0  0  0  0  0  0  0  0  0  0  0  0
   35.9510   21.0820   32.5660 C   0  0  0  0  0  0  0  0  0  0  0  0
   35.4840   22.1960   31.9040 C   0  0  0  0  0  0  0  0  0  0  0  0
   36.2170   23.3700   31.9620 C   0  0  0  0  0  0  0  0  0  0  0  0
   37.3890   23.3660   32.6860 N   0  0  0  0  0  0  0  0  0  0  0  0
   37.7950   22.2520   33.3110 C   0  0  0  0  0  0  0  0  0  0  0  0
   37.0910   21.1200   33.2570 N   0  0  0  0  0  0  0  0  0  0  0  0
   35.3720   20.1700   32.5160 H   0  0  0  0  0  0  0  0  0  0  0  0
   34.5780   22.1910   31.3460 H   0  0  0  0  0  0  0  0  0  0  0  0
   39.0320   22.2610   34.0720 C   0  0  0  0  0  0  0  0  0  0  0  0
   40.1510   22.0040   33.5790 O   0  0  0  0  0  0  0  0  0  0  0  0
   39.0140   22.5830   35.4970 C   0  0  0  0  0  0  0  0  0  0  0  0
   40.1220   22.3350   36.2800 C   0  0  0  0  0  3  0  0  0  0  0  0
   40.1640   22.6210   37.6440 C   0  0  0  0  0  0  0  0  0  0  0  0
   41.0480   22.4190   38.2540 H   0  0  0  0  0  0  0  0  0  0  0  0
   39.0380   23.1690   38.1880 N   0  0  0  0  0  0  0  0  0  0  0  0
   37.9570   23.4140   37.4370 C   0  0  0  0  0  3  0  0  0  0  0  0
   37.9210   23.1320   36.1030 N   0  0  0  0  0  0  0  0  0  0  0  0
  1 21  1  0  0  0  0
  1  3  1  0  0  0  0
  2  8  1  0  0  0  0
  3  2  1  0  0  0  0
  3  9  1  1  0  0  0
  4 11  1  0  0  0  0
  4  3  1  0  0  0  0
  5  6  1  0  0  0  0
  5  4  1  0  0  0  0
  6  7  1  0  0  0  0
  6 14  1  0  0  0  0
  7 15  1  1  0  0  0
  7  2  1  0  0  0  0
 10  4  1  0  0  0  0
 12  5  1  0  0  0  0
 13  6  1  0  0  0  0
 16 17  1  0  0  0  0
 16  7  1  0  0  0  0
 18 16  1  0  0  0  0
 19 24  1  0  0  0  0
 20 21  1  0  0  0  0
 20 19  2  0  0  0  0
 21 22  2  0  0  0  0
 22 23  1  0  0  0  0
 23 27  1  0  0  0  0
 24 23  2  0  0  0  0
 25 19  1  0  0  0  0
 26 20  1  0  0  0  0
 27 29  1  0  0  0  0
 28 27  2  0  0  0  0
 29 35  2  0  0  0  0
 29 30  1  0  0  0  0
 30 31  2  0  0  0  0
 31 33  1  0  0  0  0
 31 32  1  0  0  0  0
 34 33  2  0  0  0  0
 35 34  1  0  0  0  0
M  END
>  <minimizedAffinity>
-5.434196

$$$$

 OpenBabel03262521023D

 35 37  0  0  1  0  0  0  0  0999 V2000
   38.5660   22.4600   34.4760 S   0  0  0  0  0  0  0  0  0  0  0  0
   38.5360   24.4650   36.3020 N   0  0  0  0  0  0  0  0  0  0  0  0
   39.4140   23.7850   35.4040 C   0  0  1  0  0  0  0  0  0  0  0  0
   40.5190   23.1150   36.1800 C   0  0  0  0  0  0  0  0  0  0  0  0
   39.8810   22.1650   37.1010 N   0  0  0  0  0  0  0  0  0  0  0  0
   39.1990   23.0060   38.0950 C   0  0  0  0  0  0  0  0  0  0  0  0
   38.0410   23.6590   37.3690 C   0  0  2  0  0  0  0  0  0  0  0  0
   37.8840   25.1330   35.8880 H   0  0  0  0  0  0  0  0  0  0  0  0
   39.8000   24.5000   34.6620 H   0  0  0  0  0  0  0  0  0  0  0  0
   41.2910   22.6590   35.5650 H   0  0  0  0  0  0  0  0  0  0  0  0
   40.9540   23.8990   36.8550 H   0  0  0  0  0  0  0  0  0  0  0  0
   40.5930   21.5500   37.5530 H   0  0  0  0  0  0  0  0  0  0  0  0
   38.8360   22.3910   38.9440 H   0  0  0  0  0  0  0  0  0  0  0  0
   39.9190   23.7740   38.3810 H   0  0  0  0  0  0  0  0  0  0  0  0
   37.5340   24.3210   38.1000 H   0  0  0  0  0  0  0  0  0  0  0  0
   37.1290   22.6240   36.9360 N   0  0  0  0  0  0  0  0  0  0  0  0
   36.6250   22.9630   36.0870 H   0  0  0  0  0  0  0  0  0  0  0  0
   37.5910   21.6990   36.7970 H   0  0  0  0  0  0  0  0  0  0  0  0
   35.9400   23.0880   31.4510 C   0  0  0  0  0  0  0  0  0  0  0  0
   36.7040   22.4280   32.3880 C   0  0  0  0  0  0  0  0  0  0  0  0
   37.5270   23.1640   33.2240 C   0  0  0  0  0  0  0  0  0  0  0  0
   37.5410   24.5330   33.0760 N   0  0  0  0  0  0  0  0  0  0  0  0
   36.7760   25.1220   32.1460 C   0  0  0  0  0  0  0  0  0  0  0  0
   35.9830   24.4150   31.3400 N   0  0  0  0  0  0  0  0  0  0  0  0
   35.3000   22.5050   30.8020 H   0  0  0  0  0  0  0  0  0  0  0  0
   36.6870   21.3700   32.4970 H   0  0  0  0  0  0  0  0  0  0  0  0
   36.8010   26.5670   32.0000 C   0  0  0  0  0  0  0  0  0  0  0  0
   36.3090   27.3560   32.8340 O   0  0  0  0  0  0  0  0  0  0  0  0
   37.4260   27.1750   30.8280 C   0  0  0  0  0  0  0  0  0  0  0  0
   38.6630   26.7440   30.3970 C   0  0  0  0  0  3  0  0  0  0  0  0
   39.3080   27.2860   29.2860 C   0  0  0  0  0  0  0  0  0  0  0  0
   40.2890   26.9360   28.9540 H   0  0  0  0  0  0  0  0  0  0  0  0
   38.6520   28.2850   28.6260 N   0  0  0  0  0  0  0  0  0  0  0  0
   37.4510   28.7110   29.0360 C   0  0  0  0  0  3  0  0  0  0  0  0
   36.8240   28.1780   30.1240 N   0  0  0  0  0  0  0  0  0  0  0  0
  1  3  1  0  0  0  0
  2  7  1  0  0  0  0
  3  9  1  6  0  0  0
  3  4  1  0  0  0  0
  3  2  1  0  0  0  0
  4 11  1  0  0  0  0
  4  5  1  0  0  0  0
  5 12  1  0  0  0  0
  5  6  1  0  0  0  0
  6 14  1  0  0  0  0
  6 13  1  0  0  0  0
  7  6  1  0  0  0  0
  7 15  1  1  0  0  0
  8  2  1  0  0  0  0
 10  4  1  0  0  0  0
 16  7  1  0  0  0  0
 17 16  1  0  0  0  0
 18 16  1  0  0  0  0
 19 20  1  0  0  0  0
 20 26  1  0  0  0  0
 20 21  2  0  0  0  0
 21  1  1  0  0  0  0
 22 21  1  0  0  0  0
 23 22  2  0  0  0  0
 24 19  2  0  0  0  0
 24 23  1  0  0  0  0
 25 19  1  0  0  0  0
 27 23  1  0  0  0  0
 27 28  2  0  0  0  0
 29 27  1  0  0  0  0
 30 29  1  0  0  0  0
 31 30  2  0  0  0  0
 32 31  1  0  0  0  0
 33 34  2  0  0  0  0
 33 31  1  0  0  0  0
 34 35  1  0  0  0  0
 35 29  2  0  0  0  0
M  END
>  <minimizedAffinity>
-5.14556074

$$$$

 OpenBabel03262521023D

 35 37  0  0  1  0  0  0  0  0999 V2000
   38.6210   21.9510   34.8080 S   0  0  0  0  0  0  0  0  0  0  0  0
   38.1030   24.2420   36.1630 N   0  0  0  0  0  0  0  0  0  0  0  0
   39.1590   23.5600   35.4860 C   0  0  1  0  0  0  0  0  0  0  0  0
   40.2730   23.2570   36.4540 C   0  0  0  0  0  0  0  0  0  0  0  0
   39.7040   22.4130   37.5130 N   0  0  0  0  0  0  0  0  0  0  0  0
   38.8060   23.3040   38.2620 C   0  0  0  0  0  0  0  0  0  0  0  0
   37.6370   23.5910   37.3430 C   0  0  2  0  0  0  0  0  0  0  0  0
   37.3970   24.6920   35.5760 H   0  0  0  0  0  0  0  0  0  0  0  0
   39.4990   24.1680   34.6350 H   0  0  0  0  0  0  0  0  0  0  0  0
   41.1630   22.8280   36.0010 H   0  0  0  0  0  0  0  0  0  0  0  0
   40.5130   24.2230   36.9740 H   0  0  0  0  0  0  0  0  0  0  0  0
   40.4560   22.0320   38.1300 H   0  0  0  0  0  0  0  0  0  0  0  0
   38.4620   22.8170   39.1980 H   0  0  0  0  0  0  0  0  0  0  0  0
   39.3670   24.2270   38.4230 H   0  0  0  0  0  0  0  0  0  0  0  0
   36.9640   24.2880   37.8830 H   0  0  0  0  0  0  0  0  0  0  0  0
   36.9440   22.3490   37.0820 N   0  0  0  0  0  0  0  0  0  0  0  0
   36.4780   22.4210   36.1500 H   0  0  0  0  0  0  0  0  0  0  0  0
   37.5560   21.5080   37.1710 H   0  0  0  0  0  0  0  0  0  0  0  0
   35.4840   21.5740   32.2670 C   0  0  0  0  0  0  0  0  0  0  0  0
   36.4010   21.2680   33.2490 C   0  0  0  0  0  0  0  0  0  0  0  0
   37.3760   22.1980   33.5720 C   0  0  0  0  0  0  0  0  0  0  0  0
   37.3800   23.3940   32.8890 N   0  0  0  0  0  0  0  0  0  0  0  0
   36.4620   23.6370   31.9430 C   0  0  0  0  0  0  0  0  0  0  0  0
   35.5220   22.7440   31.6310 N   0  0  0  0  0  0  0  0  0  0  0  0
   34.7260   20.8420   32.0220 H   0  0  0  0  0  0  0  0  0  0  0  0
   36.3910   20.3420   33.7720 H   0  0  0  0  0  0  0  0  0  0  0  0
   36.4780   24.9030   31.2310 C   0  0  0  0  0  0  0  0  0  0  0  0
   35.4520   25.4630   30.7890 O   0  0  0  0  0  0  0  0  0  0  0  0
   37.7420   25.5960   30.9940 C   0  0  0  0  0  0  0  0  0  0  0  0
   38.0220   26.7760   31.6500 C   0  0  0  0  0  3  0  0  0  0  0  0
   39.2110   27.4810   31.4640 C   0  0  0  0  0  0  0  0  0  0  0  0
   39.4210   28.4160   31.9900 H   0  0  0  0  0  0  0  0  0  0  0  0
   40.1080   26.9450   30.5860 N   0  0  0  0  0  0  0  0  0  0  0  0
   39.8470   25.7990   29.9450 C   0  0  0  0  0  3  0  0  0  0  0  0
   38.6820   25.1130   30.1290 N   0  0  0  0  0  0  0  0  0  0  0  0
  1  3  1  0  0  0  0
  2  7  1  0  0  0  0
  3  9  1  6  0  0  0
  3  2  1  0  0  0  0
  3  4  1  0  0  0  0
  4 11  1  0  0  0  0
  4  5  1  0  0  0  0
  5 12  1  0  0  0  0
  5  6  1  0  0  0  0
  6 14  1  0  0  0  0
  6 13  1  0  0  0  0
  7 15  1  1  0  0  0
  7  6  1  0  0  0  0
  8  2  1  0  0  0  0
 10  4  1  0  0  0  0
 16 18  1  0  0  0  0
 16  7  1  0  0  0  0
 17 16  1  0  0  0  0
 19 20  1  0  0  0  0
 20 21  2  0  0  0  0
 20 26  1  0  0  0  0
 21  1  1  0  0  0  0
 22 21  1  0  0  0  0
 23 22  2  0  0  0  0
 24 23  1  0  0  0  0
 24 19  2  0  0  0  0
 25 19  1  0  0  0  0
 27 23  1  0  0  0  0
 28 27  2  0  0  0  0
 29 27  1  0  0  0  0
 29 30  1  0  0  0  0
 31 30  2  0  0  0  0
 31 32  1  0  0  0  0
 33 31  1  0  0  0  0
 34 35  1  0  0  0  0
 34 33  2  0  0  0  0
 35 29  2  0  0  0  0
M  END
>  <minimizedAffinity>
-5.08224154

$$$$

 OpenBabel03262521023D

 35 37  0  0  1  0  0  0  0  0999 V2000
   38.2760   25.1840   36.5890 S   0  0  0  0  0  0  0  0  0  0  0  0
   38.3970   22.5560   35.9310 N   0  0  0  0  0  0  0  0  0  0  0  0
   37.8010   23.4440   36.8780 C   0  0  1  0  0  0  0  0  0  0  0  0
   38.2770   23.1030   38.2660 C   0  0  0  0  0  0  0  0  0  0  0  0
   39.7390   23.2470   38.2670 N   0  0  0  0  0  0  0  0  0  0  0  0
   40.2260   22.1380   37.4340 C   0  0  0  0  0  0  0  0  0  0  0  0
   39.8170   22.4680   36.0140 C   0  0  2  0  0  0  0  0  0  0  0  0
   37.9880   22.5430   34.9950 H   0  0  0  0  0  0  0  0  0  0  0  0
   36.7060   23.3910   36.7870 H   0  0  0  0  0  0  0  0  0  0  0  0
   37.7940   23.6650   39.0610 H   0  0  0  0  0  0  0  0  0  0  0  0
   38.1120   22.0000   38.3970 H   0  0  0  0  0  0  0  0  0  0  0  0
   40.1190   23.1850   39.2370 H   0  0  0  0  0  0  0  0  0  0  0  0
   41.3290   22.0430   37.5160 H   0  0  0  0  0  0  0  0  0  0  0  0
   39.6800   21.2530   37.7660 H   0  0  0  0  0  0  0  0  0  0  0  0
   40.1530   21.6250   35.3760 H   0  0  0  0  0  0  0  0  0  0  0  0
   40.4950   23.6810   35.6110 N   0  0  0  0  0  0  0  0  0  0  0  0
   39.9130   24.1600   34.8900 H   0  0  0  0  0  0  0  0  0  0  0  0
   40.7460   24.2990   36.4140 H   0  0  0  0  0  0  0  0  0  0  0  0
   36.8310   27.2750   33.4300 C   0  0  0  0  0  0  0  0  0  0  0  0
   37.2400   26.9820   34.7120 C   0  0  0  0  0  0  0  0  0  0  0  0
   37.7140   25.7100   34.9930 C   0  0  0  0  0  0  0  0  0  0  0  0
   37.7520   24.7930   33.9660 N   0  0  0  0  0  0  0  0  0  0  0  0
   37.3400   25.1340   32.7370 C   0  0  0  0  0  0  0  0  0  0  0  0
   36.8850   26.3580   32.4640 N   0  0  0  0  0  0  0  0  0  0  0  0
   36.4620   28.2700   33.2200 H   0  0  0  0  0  0  0  0  0  0  0  0
   37.2080   27.6950   35.5000 H   0  0  0  0  0  0  0  0  0  0  0  0
   37.3860   24.1570   31.6630 C   0  0  0  0  0  0  0  0  0  0  0  0
   37.7750   24.4180   30.5050 O   0  0  0  0  0  0  0  0  0  0  0  0
   36.9630   22.7800   31.9060 C   0  0  0  0  0  0  0  0  0  0  0  0
   35.6260   22.4470   31.8730 C   0  0  0  0  0  3  0  0  0  0  0  0
   35.1630   21.1510   32.0960 C   0  0  0  0  0  0  0  0  0  0  0  0
   34.0990   20.9000   32.0670 H   0  0  0  0  0  0  0  0  0  0  0  0
   36.1080   20.2010   32.3560 N   0  0  0  0  0  0  0  0  0  0  0  0
   37.4100   20.5140   32.3910 C   0  0  0  0  0  3  0  0  0  0  0  0
   37.8570   21.7830   32.1720 N   0  0  0  0  0  0  0  0  0  0  0  0
  1  3  1  0  0  0  0
  2  7  1  0  0  0  0
  2  3  1  0  0  0  0
  3  9  1  6  0  0  0
  3  4  1  0  0  0  0
  4  5  1  0  0  0  0
  4 11  1  0  0  0  0
  4 10  1  0  0  0  0
  5 12  1  0  0  0  0
  6 13  1  0  0  0  0
  6 14  1  0  0  0  0
  6  5  1  0  0  0  0
  7 15  1  6  0  0  0
  7  6  1  0  0  0  0
  8  2  1  0  0  0  0
 16  7  1  0  0  0  0
 16 18  1  0  0  0  0
 17 16  1  0  0  0  0
 19 20  1  0  0  0  0
 20 21  2  0  0  0  0
 20 26  1  0  0  0  0
 21  1  1  0  0  0  0
 22 21  1  0  0  0  0
 23 22  2  0  0  0  0
 24 23  1  0  0  0  0
 24 19  2  0  0  0  0
 25 19  1  0  0  0  0
 27 29  1  0  0  0  0
 27 23  1  0  0  0  0
 28 27  2  0  0  0  0
 29 35  1  0  0  0  0
 30 29  2  0  0  0  0
 30 31  1  0  0  0  0
 31 33  2  0  0  0  0
 32 31  1  0  0  0  0
 33 34  1  0  0  0  0
 35 34  2  0  0  0  0
M  END
>  <minimizedAffinity>
-5.02348614

$$$$

 OpenBabel03262521023D

 35 37  0  0  1  0  0  0  0  0999 V2000
   37.7470   27.5640   30.3240 S   0  0  0  0  0  0  0  0  0  0  0  0
   36.5740   26.0830   32.2690 N   0  0  0  0  0  0  0  0  0  0  0  0
   37.8590   26.4620   31.7760 C   0  0  1  0  0  0  0  0  0  0  0  0
   38.6110   25.2390   31.3190 C   0  0  0  0  0  0  0  0  0  0  0  0
   37.8100   24.6150   30.2560 N   0  0  0  0  0  0  0  0  0  0  0  0
   36.6280   24.0770   30.9440 C   0  0  0  0  0  0  0  0  0  0  0  0
   35.8100   25.2770   31.3740 C   0  0  2  0  0  0  0  0  0  0  0  0
   36.0630   26.7870   32.8060 H   0  0  0  0  0  0  0  0  0  0  0  0
   38.3990   27.0160   32.5580 H   0  0  0  0  0  0  0  0  0  0  0  0
   39.6400   25.4250   31.0220 H   0  0  0  0  0  0  0  0  0  0  0  0
   38.5640   24.5020   32.1640 H   0  0  0  0  0  0  0  0  0  0  0  0
   38.3480   23.8560   29.7820 H   0  0  0  0  0  0  0  0  0  0  0  0
   36.0430   23.4240   30.2640 H   0  0  0  0  0  0  0  0  0  0  0  0
   37.0050   23.5670   31.8320 H   0  0  0  0  0  0  0  0  0  0  0  0
   34.9280   24.8880   31.9210 H   0  0  0  0  0  0  0  0  0  0  0  0
   35.3750   25.9840   30.1890 N   0  0  0  0  0  0  0  0  0  0  0  0
   35.2420   26.9900   30.4350 H   0  0  0  0  0  0  0  0  0  0  0  0
   36.0040   25.8410   29.3690 H   0  0  0  0  0  0  0  0  0  0  0  0
   36.0290   31.2350   30.4450 C   0  0  0  0  0  0  0  0  0  0  0  0
   36.8480   30.2000   30.0510 C   0  0  0  0  0  0  0  0  0  0  0  0
   36.7630   28.9860   30.7140 C   0  0  0  0  0  0  0  0  0  0  0  0
   35.8560   28.8730   31.7440 N   0  0  0  0  0  0  0  0  0  0  0  0
   35.0840   29.9150   32.0840 C   0  0  0  0  0  0  0  0  0  0  0  0
   35.1630   31.0850   31.4480 N   0  0  0  0  0  0  0  0  0  0  0  0
   36.1020   32.1790   29.9230 H   0  0  0  0  0  0  0  0  0  0  0  0
   37.5460   30.2940   29.2550 H   0  0  0  0  0  0  0  0  0  0  0  0
   34.1320   29.7830   33.1730 C   0  0  0  0  0  0  0  0  0  0  0  0
   33.0960   29.0870   33.1070 O   0  0  0  0  0  0  0  0  0  0  0  0
   34.3570   30.4850   34.4340 C   0  0  0  0  0  0  0  0  0  0  0  0
   35.6330   30.8460   34.8120 C   0  0  0  0  0  3  0  0  0  0  0  0
   35.9080   31.5170   36.0020 C   0  0  0  0  0  0  0  0  0  0  0  0
   36.9250   31.7970   36.2910 H   0  0  0  0  0  0  0  0  0  0  0  0
   34.8400   31.8100   36.7990 N   0  0  0  0  0  0  0  0  0  0  0  0
   33.5960   31.4650   36.4420 C   0  0  0  0  0  3  0  0  0  0  0  0
   33.3320   30.8080   35.2760 N   0  0  0  0  0  0  0  0  0  0  0  0
  1 21  1  0  0  0  0
  1  3  1  0  0  0  0
  2  8  1  0  0  0  0
  3  2  1  0  0  0  0
  3  9  1  1  0  0  0
  4  3  1  0  0  0  0
  4 11  1  0  0  0  0
  5  6  1  0  0  0  0
  5  4  1  0  0  0  0
  6  7  1  0  0  0  0
  6 14  1  0  0  0  0
  7 15  1  1  0  0  0
  7  2  1  0  0  0  0
 10  4  1  0  0  0  0
 12  5  1  0  0  0  0
 13  6  1  0  0  0  0
 16 17  1  0  0  0  0
 16  7  1  0  0  0  0
 18 16  1  0  0  0  0
 19 24  1  0  0  0  0
 20 19  2  0  0  0  0
 20 21  1  0  0  0  0
 21 22  2  0  0  0  0
 22 23  1  0  0  0  0
 23 27  1  0  0  0  0
 24 23  2  0  0  0  0
 25 19  1  0  0  0  0
 26 20  1  0  0  0  0
 27 29  1  0  0  0  0
 28 27  2  0  0  0  0
 29 30  2  0  0  0  0
 29 35  1  0  0  0  0
 30 31  1  0  0  0  0
 31 32  1  0  0  0  0
 31 33  2  0  0  0  0
 34 33  1  0  0  0  0
 35 34  2  0  0  0  0
M  END
>  <minimizedAffinity>
-4.98346663

$$$$

 OpenBabel03262521023D

 35 37  0  0  1  0  0  0  0  0999 V2000
   34.8880   29.8180   34.5860 S   0  0  0  0  0  0  0  0  0  0  0  0
   34.2920   32.4460   34.2750 N   0  0  0  0  0  0  0  0  0  0  0  0
   35.4060   31.5600   34.4050 C   0  0  1  0  0  0  0  0  0  0  0  0
   36.1840   31.8990   35.6490 C   0  0  0  0  0  0  0  0  0  0  0  0
   35.2650   31.7480   36.7850 N   0  0  0  0  0  0  0  0  0  0  0  0
   34.3080   32.8550   36.6450 C   0  0  0  0  0  0  0  0  0  0  0  0
   33.4630   32.5270   35.4320 C   0  0  2  0  0  0  0  0  0  0  0  0
   33.8220   32.4610   33.3680 H   0  0  0  0  0  0  0  0  0  0  0  0
   36.0240   31.6180   33.4970 H   0  0  0  0  0  0  0  0  0  0  0  0
   37.1080   31.3390   35.7720 H   0  0  0  0  0  0  0  0  0  0  0  0
   36.3870   33.0030   35.6070 H   0  0  0  0  0  0  0  0  0  0  0  0
   35.7800   31.8090   37.6910 H   0  0  0  0  0  0  0  0  0  0  0  0
   33.6780   32.9450   37.5530 H   0  0  0  0  0  0  0  0  0  0  0  0
   34.9070   33.7420   36.4320 H   0  0  0  0  0  0  0  0  0  0  0  0
   32.7540   33.3690   35.2950 H   0  0  0  0  0  0  0  0  0  0  0  0
   32.7270   31.3110   35.7010 N   0  0  0  0  0  0  0  0  0  0  0  0
   32.5340   30.8340   34.7930 H   0  0  0  0  0  0  0  0  0  0  0  0
   33.1950   30.6920   36.3990 H   0  0  0  0  0  0  0  0  0  0  0  0
   37.1150   27.7200   31.9250 C   0  0  0  0  0  0  0  0  0  0  0  0
   36.1610   28.5790   32.4240 C   0  0  0  0  0  0  0  0  0  0  0  0
   36.0600   28.7500   33.7960 C   0  0  0  0  0  0  0  0  0  0  0  0
   36.9280   28.0450   34.6000 N   0  0  0  0  0  0  0  0  0  0  0  0
   37.8370   27.2220   34.0590 C   0  0  0  0  0  0  0  0  0  0  0  0
   37.9360   27.0570   32.7390 N   0  0  0  0  0  0  0  0  0  0  0  0
   37.1860   27.5920   30.8540 H   0  0  0  0  0  0  0  0  0  0  0  0
   35.4950   29.1200   31.7960 H   0  0  0  0  0  0  0  0  0  0  0  0
   38.7450   26.4850   34.9190 C   0  0  0  0  0  0  0  0  0  0  0  0
   39.8570   26.9200   35.2890 O   0  0  0  0  0  0  0  0  0  0  0  0
   38.3810   25.1560   35.4030 C   0  0  0  0  0  0  0  0  0  0  0  0
   38.0190   24.9690   36.7200 C   0  0  0  0  0  3  0  0  0  0  0  0
   37.6610   23.7250   37.2380 C   0  0  0  0  0  0  0  0  0  0  0  0
   37.3770   23.5910   38.2850 H   0  0  0  0  0  0  0  0  0  0  0  0
   37.6850   22.6720   36.3700 N   0  0  0  0  0  0  0  0  0  0  0  0
   38.0350   22.8420   35.0890 C   0  0  0  0  0  3  0  0  0  0  0  0
   38.3840   24.0610   34.5860 N   0  0  0  0  0  0  0  0  0  0  0  0
  2  3  1  0  0  0  0
  2  7  1  0  0  0  0
  3  9  1  6  0  0  0
  3  1  1  0  0  0  0
  3  4  1  0  0  0  0
  4 10  1  0  0  0  0
  4  5  1  0  0  0  0
  5 12  1  0  0  0  0
  6  5  1  0  0  0  0
  6 13  1  0  0  0  0
  7 15  1  6  0  0  0
  7 16  1  0  0  0  0
  7  6  1  0  0  0  0
  8  2  1  0  0  0  0
 11  4  1  0  0  0  0
 14  6  1  0  0  0  0
 16 18  1  0  0  0  0
 17 16  1  0  0  0  0
 19 20  2  0  0  0  0
 19 24  1  0  0  0  0
 20 21  1  0  0  0  0
 21  1  1  0  0  0  0
 21 22  2  0  0  0  0
 23 22  1  0  0  0  0
 23 27  1  0  0  0  0
 24 23  2  0  0  0  0
 25 19  1  0  0  0  0
 26 20  1  0  0  0  0
 27 28  2  0  0  0  0
 27 29  1  0  0  0  0
 29 30  1  0  0  0  0
 30 31  2  0  0  0  0
 31 32  1  0  0  0  0
 33 31  1  0  0  0  0
 34 33  2  0  0  0  0
 35 34  1  0  0  0  0
 35 29  2  0  0  0  0
M  END
>  <minimizedAffinity>
-4.97224617

$$$$

 OpenBabel03262521023D

 35 37  0  0  1  0  0  0  0  0999 V2000
   36.3780   25.4960   31.2560 S   0  0  0  0  0  0  0  0  0  0  0  0
   38.3430   27.3010   31.7390 N   0  0  0  0  0  0  0  0  0  0  0  0
   36.9290   27.1330   31.8490 C   0  0  1  0  0  0  0  0  0  0  0  0
   36.2270   28.1510   30.9880 C   0  0  0  0  0  0  0  0  0  0  0  0
   36.6710   27.9240   29.6060 N   0  0  0  0  0  0  0  0  0  0  0  0
   38.0790   28.3460   29.5900 C   0  0  0  0  0  0  0  0  0  0  0  0
   38.8360   27.3150   30.4010 C   0  0  2  0  0  0  0  0  0  0  0  0
   38.9170   26.8230   32.4370 H   0  0  0  0  0  0  0  0  0  0  0  0
   36.6350   27.2070   32.9060 H   0  0  0  0  0  0  0  0  0  0  0  0
   35.1450   28.1610   31.0900 H   0  0  0  0  0  0  0  0  0  0  0  0
   36.6650   29.1490   31.2550 H   0  0  0  0  0  0  0  0  0  0  0  0
   36.1020   28.4860   28.9350 H   0  0  0  0  0  0  0  0  0  0  0  0
   38.4630   28.3890   28.5500 H   0  0  0  0  0  0  0  0  0  0  0  0
   38.1100   29.3030   30.1130 H   0  0  0  0  0  0  0  0  0  0  0  0
   39.8970   27.6360   30.4240 H   0  0  0  0  0  0  0  0  0  0  0  0
   38.7290   26.0370   29.7330 N   0  0  0  0  0  0  0  0  0  0  0  0
   38.8100   25.2820   30.4490 H   0  0  0  0  0  0  0  0  0  0  0  0
   37.8730   25.9510   29.1420 H   0  0  0  0  0  0  0  0  0  0  0  0
   37.3300   21.9710   33.0210 C   0  0  0  0  0  0  0  0  0  0  0  0
   36.8150   22.8670   32.1100 C   0  0  0  0  0  0  0  0  0  0  0  0
   36.9810   24.2250   32.3340 C   0  0  0  0  0  0  0  0  0  0  0  0
   37.6590   24.6150   33.4680 N   0  0  0  0  0  0  0  0  0  0  0  0
   38.1380   23.6980   34.3190 C   0  0  0  0  0  0  0  0  0  0  0  0
   37.9810   22.3910   34.1060 N   0  0  0  0  0  0  0  0  0  0  0  0
   37.1950   20.9140   32.8380 H   0  0  0  0  0  0  0  0  0  0  0  0
   36.2930   22.5580   31.2370 H   0  0  0  0  0  0  0  0  0  0  0  0
   38.8510   24.1230   35.5110 C   0  0  0  0  0  0  0  0  0  0  0  0
   38.4980   25.0870   36.2240 O   0  0  0  0  0  0  0  0  0  0  0  0
   40.0550   23.4140   35.9380 C   0  0  0  0  0  0  0  0  0  0  0  0
   40.0090   22.5470   37.0100 C   0  0  0  0  0  3  0  0  0  0  0  0
   41.1240   21.8430   37.4620 C   0  0  0  0  0  0  0  0  0  0  0  0
   41.0740   21.1600   38.3140 H   0  0  0  0  0  0  0  0  0  0  0  0
   42.2920   22.0510   36.7870 N   0  0  0  0  0  0  0  0  0  0  0  0
   42.3480   22.8900   35.7450 C   0  0  0  0  0  3  0  0  0  0  0  0
   41.2550   23.5760   35.3060 N   0  0  0  0  0  0  0  0  0  0  0  0
  1  3  1  0  0  0  0
  1 21  1  0  0  0  0
  2  3  1  0  0  0  0
  2  8  1  0  0  0  0
  3  9  1  1  0  0  0
  4 10  1  0  0  0  0
  4 11  1  0  0  0  0
  4  3  1  0  0  0  0
  5  4  1  0  0  0  0
  6  5  1  0  0  0  0
  6 14  1  0  0  0  0
  6  7  1  0  0  0  0
  7 15  1  1  0  0  0
  7  2  1  0  0  0  0
 12  5  1  0  0  0  0
 13  6  1  0  0  0  0
 16  7  1  0  0  0  0
 16 17  1  0  0  0  0
 18 16  1  0  0  0  0
 19 24  1  0  0  0  0
 20 21  1  0  0  0  0
 20 19  2  0  0  0  0
 21 22  2  0  0  0  0
 22 23  1  0  0  0  0
 23 27  1  0  0  0  0
 24 23  2  0  0  0  0
 25 19  1  0  0  0  0
 26 20  1  0  0  0  0
 27 29  1  0  0  0  0
 27 28  2  0  0  0  0
 29 30  1  0  0  0  0
 30 31  2  0  0  0  0
 31 32  1  0  0  0  0
 33 31  1  0  0  0  0
 34 33  2  0  0  0  0
 35 34  1  0  0  0  0
 35 29  2  0  0  0  0
M  END
>  <minimizedAffinity>
-4.86333656

$$$$

 OpenBabel03262521023D

 35 37  0  0  1  0  0  0  0  0999 V2000
   38.0450   27.3630   30.4700 S   0  0  0  0  0  0  0  0  0  0  0  0
   36.7380   25.9280   32.3640 N   0  0  0  0  0  0  0  0  0  0  0  0
   38.0490   26.1660   31.8500 C   0  0  1  0  0  0  0  0  0  0  0  0
   38.6190   24.8860   31.2950 C   0  0  0  0  0  0  0  0  0  0  0  0
   37.7150   24.4410   30.2260 N   0  0  0  0  0  0  0  0  0  0  0  0
   36.4900   24.0200   30.9210 C   0  0  0  0  0  0  0  0  0  0  0  0
   35.8510   25.2870   31.4500 C   0  0  2  0  0  0  0  0  0  0  0  0
   36.3400   26.6570   32.9590 H   0  0  0  0  0  0  0  0  0  0  0  0
   38.6790   26.5940   32.6440 H   0  0  0  0  0  0  0  0  0  0  0  0
   39.6560   24.9540   30.9750 H   0  0  0  0  0  0  0  0  0  0  0  0
   38.4970   24.1100   32.0970 H   0  0  0  0  0  0  0  0  0  0  0  0
   38.1340   23.6490   29.6900 H   0  0  0  0  0  0  0  0  0  0  0  0
   35.8060   23.4930   30.2240 H   0  0  0  0  0  0  0  0  0  0  0  0
   36.8200   23.4090   31.7640 H   0  0  0  0  0  0  0  0  0  0  0  0
   34.9390   24.9830   32.0030 H   0  0  0  0  0  0  0  0  0  0  0  0
   35.4820   26.1180   30.3250 N   0  0  0  0  0  0  0  0  0  0  0  0
   35.4900   27.1150   30.6340 H   0  0  0  0  0  0  0  0  0  0  0  0
   36.0650   25.9460   29.4760 H   0  0  0  0  0  0  0  0  0  0  0  0
   36.3680   31.0510   30.6300 C   0  0  0  0  0  0  0  0  0  0  0  0
   37.0760   29.9680   30.1560 C   0  0  0  0  0  0  0  0  0  0  0  0
   37.1730   28.8310   30.9420 C   0  0  0  0  0  0  0  0  0  0  0  0
   36.5510   28.8390   32.1710 N   0  0  0  0  0  0  0  0  0  0  0  0
   35.8760   29.9220   32.5810 C   0  0  0  0  0  0  0  0  0  0  0  0
   35.7800   31.0180   31.8260 N   0  0  0  0  0  0  0  0  0  0  0  0
   36.2980   31.9340   30.0100 H   0  0  0  0  0  0  0  0  0  0  0  0
   37.5530   29.9690   29.2050 H   0  0  0  0  0  0  0  0  0  0  0  0
   35.2250   29.9180   33.8790 C   0  0  0  0  0  0  0  0  0  0  0  0
   35.8130   30.1770   34.9510 O   0  0  0  0  0  0  0  0  0  0  0  0
   33.8040   29.5970   33.9870 C   0  0  0  0  0  0  0  0  0  0  0  0
   33.1420   29.7590   35.1850 C   0  0  0  0  0  3  0  0  0  0  0  0
   31.7870   29.4710   35.3480 C   0  0  0  0  0  0  0  0  0  0  0  0
   31.2750   29.6030   36.3040 H   0  0  0  0  0  0  0  0  0  0  0  0
   31.1260   29.0080   34.2470 N   0  0  0  0  0  0  0  0  0  0  0  0
   31.7580   28.8470   33.0780 C   0  0  0  0  0  3  0  0  0  0  0  0
   33.0840   29.1310   32.9240 N   0  0  0  0  0  0  0  0  0  0  0  0
  1 21  1  0  0  0  0
  1  3  1  0  0  0  0
  2  8  1  0  0  0  0
  3  2  1  0  0  0  0
  3  9  1  1  0  0  0
  4  3  1  0  0  0  0
  4 11  1  0  0  0  0
  5  6  1  0  0  0  0
  5  4  1  0  0  0  0
  6  7  1  0  0  0  0
  6 14  1  0  0  0  0
  7 15  1  1  0  0  0
  7  2  1  0  0  0  0
 10  4  1  0  0  0  0
 12  5  1  0  0  0  0
 13  6  1  0  0  0  0
 16 17  1  0  0  0  0
 16  7  1  0  0  0  0
 18 16  1  0  0  0  0
 19 24  1  0  0  0  0
 20 19  2  0  0  0  0
 20 21  1  0  0  0  0
 21 22  2  0  0  0  0
 22 23  1  0  0  0  0
 23 27  1  0  0  0  0
 24 23  2  0  0  0  0
 25 19  1  0  0  0  0
 26 20  1  0  0  0  0
 27 29  1  0  0  0  0
 27 28  2  0  0  0  0
 29 30  1  0  0  0  0
 30 31  2  0  0  0  0
 31 32  1  0  0  0  0
 33 31  1  0  0  0  0
 34 33  2  0  0  0  0
 35 34  1  0  0  0  0
 35 29  2  0  0  0  0
M  END
>  <minimizedAffinity>
-4.84269619

$$$$
