
 OpenBabel03272503233D

 30 32  0  0  1  0  0  0  0  0999 V2000
   37.2170   30.7930   48.7400 N   0  0  0  0  0  0  0  0  0  0  0  0
   37.6330   31.7960   47.8250 C   0  0  1  0  0  0  0  0  0  0  0  0
   38.3640   32.8180   48.6570 C   0  0  0  0  0  0  0  0  0  0  0  0
   38.3090   32.2280   50.0940 C   0  0  0  0  0  0  0  0  0  0  0  0
   38.2090   30.7700   49.7800 C   0  0  0  0  0  0  0  0  0  0  0  0
   36.6550   32.3140   47.4710 H   0  0  0  0  0  0  0  0  0  0  0  0
   39.3920   32.9940   48.3360 H   0  0  0  0  0  0  0  0  0  0  0  0
   37.7630   33.7430   48.7370 H   0  0  0  0  0  0  0  0  0  0  0  0
   37.4140   32.5670   50.6320 H   0  0  0  0  0  0  0  0  0  0  0  0
   39.2640   32.4640   50.5640 H   0  0  0  0  0  0  0  0  0  0  0  0
   37.8370   30.2010   50.6720 H   0  0  0  0  0  0  0  0  0  0  0  0
   39.1690   30.3550   49.4280 H   0  0  0  0  0  0  0  0  0  0  0  0
   36.0460   29.9920   48.6320 C   0  0  0  0  0  0  0  0  0  0  0  0
   35.1030   30.3130   47.6440 C   0  0  0  0  0  0  0  0  0  0  0  0
   33.9520   29.5330   47.5270 C   0  0  0  0  0  0  0  0  0  0  0  0
   33.8260   28.4830   48.4120 N   0  0  0  0  0  0  0  0  0  0  0  0
   34.7580   28.2050   49.3530 C   0  0  0  0  0  0  0  0  0  0  0  0
   35.8820   28.9610   49.4710 N   0  0  0  0  0  0  0  0  0  0  0  0
   35.1760   31.1130   46.9530 H   0  0  0  0  0  0  0  0  0  0  0  0
   33.2110   29.7390   46.7930 H   0  0  0  0  0  0  0  0  0  0  0  0
   34.5920   27.3800   50.0000 H   0  0  0  0  0  0  0  0  0  0  0  0
   38.2710   31.3820   46.6010 C   0  0  0  0  0  0  0  0  0  0  0  0
   38.6360   30.2330   46.4620 O   0  0  0  0  0  0  0  0  0  0  0  0
   38.6330   32.1090   45.3610 C   0  0  0  0  0  0  0  0  0  0  0  0
   37.9500   32.0490   44.1890 C   0  0  0  0  0  0  0  0  0  0  0  0
   38.2820   32.7040   43.0410 C   0  0  0  0  0  0  0  0  0  0  0  0
   37.6790   32.5960   42.1530 H   0  0  0  0  0  0  0  0  0  0  0  0
   39.3810   33.4780   43.0700 N   0  0  0  0  0  0  0  0  0  0  0  0
   40.0740   33.5560   44.2180 C   0  0  0  0  0  0  0  0  0  0  0  0
   39.7040   32.8950   45.3050 N   0  0  0  0  0  0  0  0  0  0  0  0
  1  5  1  0  0  0  0
  2  6  1  6  0  0  0
  2  3  1  0  0  0  0
  2  1  1  0  0  0  0
  3  8  1  0  0  0  0
  3  4  1  0  0  0  0
  4 10  1  0  0  0  0
  4  9  1  0  0  0  0
  5  4  1  0  0  0  0
  5 11  1  0  0  0  0
  7  3  1  0  0  0  0
 12  5  1  0  0  0  0
 13  1  1  0  0  0  0
 13 18  1  0  0  0  0
 14 13  2  0  0  0  0
 15 14  1  0  0  0  0
 15 16  2  0  0  0  0
 16 17  1  0  0  0  0
 17 18  2  0  0  0  0
 17 21  1  0  0  0  0
 19 14  1  0  0  0  0
 20 15  1  0  0  0  0
 22  2  1  0  0  0  0
 23 22  2  0  0  0  0
 24 22  1  0  0  0  0
 25 24  2  0  0  0  0
 26 28  2  0  0  0  0
 26 25  1  0  0  0  0
 27 26  1  0  0  0  0
 28 29  1  0  0  0  0
 29 30  2  0  0  0  0
 30 24  1  0  0  0  0
M  END
>  <minimizedAffinity>
-5.18127251

>  <minimizedRMSD>
2.80751896

$$$$
