
 OpenBabel03272509303D

 36 38  0  0  1  0  0  0  0  0999 V2000
   36.4000   30.7460   49.0020 C   0  0  2  0  0  0  0  0  0  0  0  0
   37.4170   31.5780   49.7260 C   0  0  0  0  0  0  0  0  0  0  0  0
   38.2790   30.7630   50.6660 C   0  0  0  0  0  0  0  0  0  0  0  0
   37.4090   30.0280   51.6800 C   0  0  0  0  0  0  0  0  0  0  0  0
   36.1220   29.4890   51.1010 C   0  0  0  0  0  0  0  0  0  0  0  0
   36.2870   29.3700   49.5740 C   0  0  1  0  0  0  0  0  0  0  0  0
   35.3520   31.1670   49.0480 H   0  0  0  0  0  0  0  0  0  0  0  0
   36.7940   32.2200   50.4360 H   0  0  0  0  0  0  0  0  0  0  0  0
   37.9810   32.2850   49.1490 H   0  0  0  0  0  0  0  0  0  0  0  0
   38.9360   31.4580   51.1980 H   0  0  0  0  0  0  0  0  0  0  0  0
   38.8540   29.9690   50.1400 H   0  0  0  0  0  0  0  0  0  0  0  0
   38.0340   29.2220   52.1470 H   0  0  0  0  0  0  0  0  0  0  0  0
   37.1760   30.7450   52.4940 H   0  0  0  0  0  0  0  0  0  0  0  0
   35.9970   28.4540   51.4910 H   0  0  0  0  0  0  0  0  0  0  0  0
   35.2790   30.1540   51.3380 H   0  0  0  0  0  0  0  0  0  0  0  0
   37.2180   28.8580   49.5300 H   0  0  0  0  0  0  0  0  0  0  0  0
   36.7300   30.6360   47.5570 C   0  0  0  0  0  0  0  0  0  0  0  0
   38.0910   30.8150   47.2300 C   0  0  0  0  0  0  0  0  0  0  0  0
   38.4230   30.7120   45.8740 C   0  0  0  0  0  0  0  0  0  0  0  0
   37.4260   30.4470   44.9620 N   0  0  0  0  0  0  0  0  0  0  0  0
   36.1180   30.2820   45.3350 C   0  0  0  0  0  0  0  0  0  0  0  0
   35.7930   30.3810   46.6390 N   0  0  0  0  0  0  0  0  0  0  0  0
   38.9470   31.0140   47.8410 H   0  0  0  0  0  0  0  0  0  0  0  0
   39.4210   30.8250   45.4770 H   0  0  0  0  0  0  0  0  0  0  0  0
   35.4540   30.0810   44.5270 H   0  0  0  0  0  0  0  0  0  0  0  0
   33.9480   28.4640   49.1790 C   0  0  0  0  0  0  0  0  0  0  0  0
   33.1890   29.1640   49.9450 O   0  0  0  0  0  0  0  0  0  0  0  0
   35.3450   28.5300   48.9320 N   0  0  0  0  0  0  0  0  0  0  0  0
   35.6830   27.8580   48.1700 H   0  0  0  0  0  0  0  0  0  0  0  0
   33.1510   27.4290   48.4650 C   0  0  0  0  0  0  0  0  0  0  0  0
   33.6840   26.4910   47.6270 C   0  0  0  0  0  3  0  0  0  0  0  0
   32.9940   25.5310   46.9560 C   0  0  0  0  0  0  0  0  0  0  0  0
   33.4850   24.8210   46.3070 H   0  0  0  0  0  0  0  0  0  0  0  0
   31.6530   25.5190   47.1490 N   0  0  0  0  0  0  0  0  0  0  0  0
   31.1120   26.4310   47.9680 C   0  0  0  0  0  3  0  0  0  0  0  0
   31.8260   27.3600   48.6100 N   0  0  0  0  0  0  0  0  0  0  0  0
  1  7  1  1  0  0  0
  1  6  1  0  0  0  0
  1  2  1  0  0  0  0
  2  8  1  0  0  0  0
  2  3  1  0  0  0  0
  3 10  1  0  0  0  0
  3  4  1  0  0  0  0
  4 12  1  0  0  0  0
  4 13  1  0  0  0  0
  5 15  1  0  0  0  0
  5 14  1  0  0  0  0
  5  4  1  0  0  0  0
  6 16  1  6  0  0  0
  6  5  1  0  0  0  0
  9  2  1  0  0  0  0
 11  3  1  0  0  0  0
 17  1  1  0  0  0  0
 18 17  1  0  0  0  0
 18 23  1  0  0  0  0
 19 18  2  0  0  0  0
 20 21  2  0  0  0  0
 20 19  1  0  0  0  0
 21 22  1  0  0  0  0
 22 17  2  0  0  0  0
 24 19  1  0  0  0  0
 25 21  1  0  0  0  0
 26 27  2  0  0  0  0
 28 26  1  0  0  0  0
 28  6  1  0  0  0  0
 29 28  1  0  0  0  0
 30 36  1  0  0  0  0
 30 26  1  0  0  0  0
 31 30  2  0  0  0  0
 32 34  2  0  0  0  0
 32 31  1  0  0  0  0
 33 32  1  0  0  0  0
 34 35  1  0  0  0  0
 35 36  2  0  0  0  0
M  END
>  <minimizedAffinity>
-5.99222183

>  <minimizedRMSD>
0.74567008

$$$$
