
 OpenBabel03272507313D

 27 29  0  0  0  0  0  0  0  0999 V2000
   38.2270   25.3130   36.0370 C   0  0  0  0  0  0  0  0  0  0  0  0
   38.3740   26.6160   36.3890 C   0  0  0  0  0  0  0  0  0  0  0  0
   38.1070   27.4080   35.2600 C   0  0  0  0  0  0  0  0  0  0  0  0
   37.8050   26.4830   34.2630 C   0  0  0  0  0  0  0  0  0  0  0  0
   37.8950   25.2830   34.7860 O   0  0  0  0  0  0  0  0  0  0  0  0
   38.6420   27.0890   37.3270 H   0  0  0  0  0  0  0  0  0  0  0  0
   38.1120   28.4810   35.1110 H   0  0  0  0  0  0  0  0  0  0  0  0
   38.4320   24.2270   36.9760 C   0  0  0  0  0  0  0  0  0  0  0  0
   37.7040   24.1560   37.9780 O   0  0  0  0  0  0  0  0  0  0  0  0
   39.4960   23.2780   36.6740 C   0  0  0  0  0  0  0  0  0  0  0  0
   40.1330   22.7010   37.7630 C   0  0  0  0  0  0  0  0  0  0  0  0
   41.1590   21.7870   37.5210 C   0  0  0  0  0  0  0  0  0  0  0  0
   41.4760   21.5140   36.2290 N   0  0  0  0  0  0  0  0  0  0  0  0
   40.8370   22.0930   35.1950 C   0  0  0  0  0  0  0  0  0  0  0  0
   39.8570   22.9660   35.4210 N   0  0  0  0  0  0  0  0  0  0  0  0
   39.8910   22.9090   38.8010 H   0  0  0  0  0  0  0  0  0  0  0  0
   41.7090   21.2890   38.3070 H   0  0  0  0  0  0  0  0  0  0  0  0
   41.0690   21.8940   34.1560 H   0  0  0  0  0  0  0  0  0  0  0  0
   37.4490   26.8120   32.8680 C   0  0  0  0  0  0  0  0  0  0  0  0
   37.8420   27.9100   32.3880 O   0  0  0  0  0  0  0  0  0  0  0  0
   36.6700   25.8760   32.1010 C   0  0  0  0  0  0  0  0  0  0  0  0
   37.1050   24.5700   31.9660 C   0  0  0  0  0  3  0  0  0  0  0  0
   36.3920   23.6410   31.2400 C   0  0  0  0  0  0  0  0  0  0  0  0
   36.7590   22.6450   31.1600 H   0  0  0  0  0  0  0  0  0  0  0  0
   35.2430   24.0690   30.6670 N   0  0  0  0  0  0  0  0  0  0  0  0
   34.8080   25.3330   30.7890 C   0  0  0  0  0  3  0  0  0  0  0  0
   35.5350   26.2340   31.5130 N   0  0  0  0  0  0  0  0  0  0  0  0
  1  2  2  0  0  0  0
  1  8  1  0  0  0  0
  2  6  1  0  0  0  0
  3  2  1  0  0  0  0
  4  5  1  0  0  0  0
  4  3  2  0  0  0  0
  5  1  1  0  0  0  0
  7  3  1  0  0  0  0
  8  9  2  0  0  0  0
 10  8  1  0  0  0  0
 10 11  1  0  0  0  0
 11 16  1  0  0  0  0
 12 11  2  0  0  0  0
 12 17  1  0  0  0  0
 13 12  1  0  0  0  0
 14 15  1  0  0  0  0
 14 13  2  0  0  0  0
 15 10  2  0  0  0  0
 18 14  1  0  0  0  0
 19  4  1  0  0  0  0
 20 19  2  0  0  0  0
 21 19  1  0  0  0  0
 22 21  1  0  0  0  0
 23 22  2  0  0  0  0
 24 23  1  0  0  0  0
 25 26  2  0  0  0  0
 25 23  1  0  0  0  0
 26 27  1  0  0  0  0
 27 21  2  0  0  0  0
M  END
>  <minimizedAffinity>
-5.24013233

$$$$

 OpenBabel03272507313D

 27 29  0  0  0  0  0  0  0  0999 V2000
   37.6250   26.4180   34.0380 C   0  0  0  0  0  0  0  0  0  0  0  0
   37.2490   27.5460   33.3820 C   0  0  0  0  0  0  0  0  0  0  0  0
   36.5450   27.1680   32.2270 C   0  0  0  0  0  0  0  0  0  0  0  0
   36.5480   25.7760   32.2710 C   0  0  0  0  0  0  0  0  0  0  0  0
   37.1940   25.4090   33.3520 O   0  0  0  0  0  0  0  0  0  0  0  0
   37.4000   28.5980   33.6010 H   0  0  0  0  0  0  0  0  0  0  0  0
   36.0810   27.7490   31.4390 H   0  0  0  0  0  0  0  0  0  0  0  0
   38.3740   26.4550   35.2790 C   0  0  0  0  0  0  0  0  0  0  0  0
   38.6500   27.5550   35.7800 O   0  0  0  0  0  0  0  0  0  0  0  0
   38.7570   25.1750   35.8620 C   0  0  0  0  0  0  0  0  0  0  0  0
   37.9610   24.7100   36.9000 C   0  0  0  0  0  0  0  0  0  0  0  0
   38.2910   23.4890   37.4890 C   0  0  0  0  0  0  0  0  0  0  0  0
   39.3750   22.8240   37.0110 N   0  0  0  0  0  0  0  0  0  0  0  0
   40.1250   23.3050   36.0030 C   0  0  0  0  0  0  0  0  0  0  0  0
   39.8150   24.4700   35.4370 N   0  0  0  0  0  0  0  0  0  0  0  0
   37.0920   25.2290   37.2920 H   0  0  0  0  0  0  0  0  0  0  0  0
   37.7280   23.0500   38.3010 H   0  0  0  0  0  0  0  0  0  0  0  0
   40.9940   22.7960   35.6020 H   0  0  0  0  0  0  0  0  0  0  0  0
   35.9280   24.8850   31.2700 C   0  0  0  0  0  0  0  0  0  0  0  0
   34.9320   25.3080   30.6200 O   0  0  0  0  0  0  0  0  0  0  0  0
   36.4740   23.5700   31.0630 C   0  0  0  0  0  0  0  0  0  0  0  0
   35.6840   22.4570   31.2900 C   0  0  0  0  0  3  0  0  0  0  0  0
   36.1650   21.1790   31.1060 C   0  0  0  0  0  0  0  0  0  0  0  0
   35.5260   20.3480   31.2900 H   0  0  0  0  0  0  0  0  0  0  0  0
   37.4480   21.0660   30.6900 N   0  0  0  0  0  0  0  0  0  0  0  0
   38.2270   22.1360   30.4670 C   0  0  0  0  0  3  0  0  0  0  0  0
   37.7240   23.3920   30.6580 N   0  0  0  0  0  0  0  0  0  0  0  0
  1  8  1  0  0  0  0
  2  6  1  0  0  0  0
  2  1  2  0  0  0  0
  3  4  2  0  0  0  0
  3  2  1  0  0  0  0
  4  5  1  0  0  0  0
  5  1  1  0  0  0  0
  7  3  1  0  0  0  0
  8  9  2  0  0  0  0
  8 10  1  0  0  0  0
 10 11  1  0  0  0  0
 11 16  1  0  0  0  0
 11 12  2  0  0  0  0
 12 17  1  0  0  0  0
 13 12  1  0  0  0  0
 14 13  2  0  0  0  0
 15 10  2  0  0  0  0
 15 14  1  0  0  0  0
 18 14  1  0  0  0  0
 19  4  1  0  0  0  0
 20 19  2  0  0  0  0
 21 19  1  0  0  0  0
 21 22  1  0  0  0  0
 23 24  1  0  0  0  0
 23 22  2  0  0  0  0
 25 23  1  0  0  0  0
 26 27  1  0  0  0  0
 26 25  2  0  0  0  0
 27 21  2  0  0  0  0
M  END
>  <minimizedAffinity>
-5.20997238

$$$$

 OpenBabel03272507313D

 27 29  0  0  0  0  0  0  0  0999 V2000
   36.5690   25.6880   32.2670 C   0  0  0  0  0  0  0  0  0  0  0  0
   36.6430   27.0380   32.1370 C   0  0  0  0  0  0  0  0  0  0  0  0
   37.3000   27.5510   33.2680 C   0  0  0  0  0  0  0  0  0  0  0  0
   37.5870   26.4230   34.0330 C   0  0  0  0  0  0  0  0  0  0  0  0
   37.1330   25.3740   33.3890 O   0  0  0  0  0  0  0  0  0  0  0  0
   36.3010   27.7130   31.3610 H   0  0  0  0  0  0  0  0  0  0  0  0
   37.5600   28.5620   33.5580 H   0  0  0  0  0  0  0  0  0  0  0  0
   35.9460   24.8450   31.2640 C   0  0  0  0  0  0  0  0  0  0  0  0
   34.9620   25.2760   30.6460 O   0  0  0  0  0  0  0  0  0  0  0  0
   36.5300   23.5280   31.0480 C   0  0  0  0  0  0  0  0  0  0  0  0
   35.6990   22.4410   31.2770 C   0  0  0  0  0  0  0  0  0  0  0  0
   36.2160   21.1600   31.0830 C   0  0  0  0  0  0  0  0  0  0  0  0
   37.5080   21.0500   30.6800 N   0  0  0  0  0  0  0  0  0  0  0  0
   38.2880   22.1260   30.4670 C   0  0  0  0  0  0  0  0  0  0  0  0
   37.7990   23.3510   30.6510 N   0  0  0  0  0  0  0  0  0  0  0  0
   34.6640   22.5130   31.5980 H   0  0  0  0  0  0  0  0  0  0  0  0
   35.6410   20.2570   31.2360 H   0  0  0  0  0  0  0  0  0  0  0  0
   39.3210   22.0670   30.1460 H   0  0  0  0  0  0  0  0  0  0  0  0
   38.2810   26.4240   35.3360 C   0  0  0  0  0  0  0  0  0  0  0  0
   38.4980   27.5300   35.9030 O   0  0  0  0  0  0  0  0  0  0  0  0
   38.6860   25.1730   35.9190 C   0  0  0  0  0  0  0  0  0  0  0  0
   37.9700   24.6460   36.9800 C   0  0  0  0  0  3  0  0  0  0  0  0
   38.3230   23.4520   37.5690 C   0  0  0  0  0  0  0  0  0  0  0  0
   37.7460   23.0800   38.3820 H   0  0  0  0  0  0  0  0  0  0  0  0
   39.4050   22.8180   37.0590 N   0  0  0  0  0  0  0  0  0  0  0  0
   40.1100   23.3160   36.0310 C   0  0  0  0  0  3  0  0  0  0  0  0
   39.7380   24.5030   35.4660 N   0  0  0  0  0  0  0  0  0  0  0  0
  1  5  1  0  0  0  0
  2  1  2  0  0  0  0
  2  3  1  0  0  0  0
  3  7  1  0  0  0  0
  3  4  2  0  0  0  0
  4 19  1  0  0  0  0
  5  4  1  0  0  0  0
  6  2  1  0  0  0  0
  8  1  1  0  0  0  0
  9  8  2  0  0  0  0
 10  8  1  0  0  0  0
 10 11  1  0  0  0  0
 11 16  1  0  0  0  0
 12 17  1  0  0  0  0
 12 11  2  0  0  0  0
 13 12  1  0  0  0  0
 14 15  1  0  0  0  0
 14 13  2  0  0  0  0
 15 10  2  0  0  0  0
 18 14  1  0  0  0  0
 19 20  2  0  0  0  0
 19 21  1  0  0  0  0
 21 22  1  0  0  0  0
 22 23  2  0  0  0  0
 23 24  1  0  0  0  0
 25 23  1  0  0  0  0
 26 25  2  0  0  0  0
 27 21  2  0  0  0  0
 27 26  1  0  0  0  0
M  END
>  <minimizedAffinity>
-5.17630816

$$$$

 OpenBabel03272507313D

 27 29  0  0  0  0  0  0  0  0999 V2000
   36.1490   28.3970   33.5690 C   0  0  0  0  0  0  0  0  0  0  0  0
   36.8750   28.1590   32.4470 C   0  0  0  0  0  0  0  0  0  0  0  0
   37.9830   27.3720   32.8000 C   0  0  0  0  0  0  0  0  0  0  0  0
   37.8390   27.1830   34.1720 C   0  0  0  0  0  0  0  0  0  0  0  0
   36.7500   27.8070   34.5530 O   0  0  0  0  0  0  0  0  0  0  0  0
   36.7360   28.4620   31.4150 H   0  0  0  0  0  0  0  0  0  0  0  0
   38.8000   26.9660   32.2140 H   0  0  0  0  0  0  0  0  0  0  0  0
   34.9320   29.1850   33.5540 C   0  0  0  0  0  0  0  0  0  0  0  0
   34.1380   29.0440   32.6120 O   0  0  0  0  0  0  0  0  0  0  0  0
   34.7210   30.1040   34.6660 C   0  0  0  0  0  0  0  0  0  0  0  0
   35.8270   30.8300   35.0810 C   0  0  0  0  0  0  0  0  0  0  0  0
   35.6720   31.7220   36.1430 C   0  0  0  0  0  0  0  0  0  0  0  0
   34.4430   31.8270   36.7110 N   0  0  0  0  0  0  0  0  0  0  0  0
   33.3900   31.1060   36.2830 C   0  0  0  0  0  0  0  0  0  0  0  0
   33.5330   30.2530   35.2700 N   0  0  0  0  0  0  0  0  0  0  0  0
   36.8160   30.7570   34.6380 H   0  0  0  0  0  0  0  0  0  0  0  0
   36.4780   32.3290   36.5320 H   0  0  0  0  0  0  0  0  0  0  0  0
   32.4000   31.1700   36.7170 H   0  0  0  0  0  0  0  0  0  0  0  0
   38.7590   26.4120   35.0330 C   0  0  0  0  0  0  0  0  0  0  0  0
   39.8500   26.9440   35.3780 O   0  0  0  0  0  0  0  0  0  0  0  0
   38.3870   25.0870   35.4530 C   0  0  0  0  0  0  0  0  0  0  0  0
   37.9860   24.8690   36.7600 C   0  0  0  0  0  3  0  0  0  0  0  0
   37.6220   23.6170   37.2050 C   0  0  0  0  0  0  0  0  0  0  0  0
   37.3190   23.4900   38.2170 H   0  0  0  0  0  0  0  0  0  0  0  0
   37.6750   22.6110   36.3020 N   0  0  0  0  0  0  0  0  0  0  0  0
   38.0620   22.8060   35.0310 C   0  0  0  0  0  3  0  0  0  0  0  0
   38.4180   24.0580   34.6160 N   0  0  0  0  0  0  0  0  0  0  0  0
  1  5  1  0  0  0  0
  2  3  1  0  0  0  0
  2  1  2  0  0  0  0
  3  4  2  0  0  0  0
  4  5  1  0  0  0  0
  4 19  1  0  0  0  0
  6  2  1  0  0  0  0
  7  3  1  0  0  0  0
  8  1  1  0  0  0  0
  8 10  1  0  0  0  0
  9  8  2  0  0  0  0
 10 11  2  0  0  0  0
 10 15  1  0  0  0  0
 11 12  1  0  0  0  0
 12 17  1  0  0  0  0
 12 13  2  0  0  0  0
 14 13  1  0  0  0  0
 14 18  1  0  0  0  0
 15 14  2  0  0  0  0
 16 11  1  0  0  0  0
 19 20  2  0  0  0  0
 19 21  1  0  0  0  0
 21 22  1  0  0  0  0
 22 23  2  0  0  0  0
 23 24  1  0  0  0  0
 25 23  1  0  0  0  0
 26 25  2  0  0  0  0
 27 26  1  0  0  0  0
 27 21  2  0  0  0  0
M  END
>  <minimizedAffinity>
-5.16849804

$$$$

 OpenBabel03272507313D

 27 29  0  0  0  0  0  0  0  0999 V2000
   37.8500   27.2660   34.2310 C   0  0  0  0  0  0  0  0  0  0  0  0
   37.9390   27.3720   32.8810 C   0  0  0  0  0  0  0  0  0  0  0  0
   36.8510   28.1360   32.4280 C   0  0  0  0  0  0  0  0  0  0  0  0
   36.1510   28.4490   33.5910 C   0  0  0  0  0  0  0  0  0  0  0  0
   36.7900   27.9110   34.6020 O   0  0  0  0  0  0  0  0  0  0  0  0
   38.6620   26.9890   32.1680 H   0  0  0  0  0  0  0  0  0  0  0  0
   36.5500   28.4520   31.4350 H   0  0  0  0  0  0  0  0  0  0  0  0
   38.8250   26.5360   35.0190 C   0  0  0  0  0  0  0  0  0  0  0  0
   39.9470   27.0320   35.1930 O   0  0  0  0  0  0  0  0  0  0  0  0
   38.4100   25.2480   35.5610 C   0  0  0  0  0  0  0  0  0  0  0  0
   38.4450   24.1730   34.6860 C   0  0  0  0  0  0  0  0  0  0  0  0
   38.0560   22.9200   35.1620 C   0  0  0  0  0  0  0  0  0  0  0  0
   37.6650   22.8260   36.4590 N   0  0  0  0  0  0  0  0  0  0  0  0
   37.6430   23.8910   37.2820 C   0  0  0  0  0  0  0  0  0  0  0  0
   38.0130   25.0890   36.8320 N   0  0  0  0  0  0  0  0  0  0  0  0
   38.7550   24.2320   33.6470 H   0  0  0  0  0  0  0  0  0  0  0  0
   38.0530   22.0270   34.5520 H   0  0  0  0  0  0  0  0  0  0  0  0
   37.3360   23.8440   38.3200 H   0  0  0  0  0  0  0  0  0  0  0  0
   34.9120   29.2480   33.6570 C   0  0  0  0  0  0  0  0  0  0  0  0
   34.0400   29.0860   32.7590 O   0  0  0  0  0  0  0  0  0  0  0  0
   34.7320   30.1820   34.7360 C   0  0  0  0  0  0  0  0  0  0  0  0
   35.8000   30.9530   35.1610 C   0  0  0  0  0  3  0  0  0  0  0  0
   35.6740   31.8600   36.1910 C   0  0  0  0  0  0  0  0  0  0  0  0
   36.5190   32.4350   36.4880 H   0  0  0  0  0  0  0  0  0  0  0  0
   34.4530   31.9600   36.7670 N   0  0  0  0  0  0  0  0  0  0  0  0
   33.4080   31.2190   36.3660 C   0  0  0  0  0  3  0  0  0  0  0  0
   33.5610   30.3270   35.3430 N   0  0  0  0  0  0  0  0  0  0  0  0
  1  5  1  0  0  0  0
  1  8  1  0  0  0  0
  2  1  2  0  0  0  0
  3  2  1  0  0  0  0
  3  4  2  0  0  0  0
  4 19  1  0  0  0  0
  4  5  1  0  0  0  0
  6  2  1  0  0  0  0
  7  3  1  0  0  0  0
  8  9  2  0  0  0  0
  8 10  1  0  0  0  0
 10 15  1  0  0  0  0
 11 12  1  0  0  0  0
 11 10  2  0  0  0  0
 12 13  2  0  0  0  0
 13 14  1  0  0  0  0
 14 18  1  0  0  0  0
 15 14  2  0  0  0  0
 16 11  1  0  0  0  0
 17 12  1  0  0  0  0
 19 21  1  0  0  0  0
 20 19  2  0  0  0  0
 21 22  2  0  0  0  0
 21 27  1  0  0  0  0
 22 23  1  0  0  0  0
 23 24  1  0  0  0  0
 23 25  2  0  0  0  0
 26 25  1  0  0  0  0
 27 26  2  0  0  0  0
M  END
>  <minimizedAffinity>
-5.11970663

$$$$

 OpenBabel03272507313D

 27 29  0  0  0  0  0  0  0  0999 V2000
   37.9140   25.5490   35.8830 C   0  0  0  0  0  0  0  0  0  0  0  0
   38.4900   26.6550   36.4190 C   0  0  0  0  0  0  0  0  0  0  0  0
   38.1040   27.7670   35.6520 C   0  0  0  0  0  0  0  0  0  0  0  0
   37.2860   27.2250   34.6630 C   0  0  0  0  0  0  0  0  0  0  0  0
   37.2200   25.9300   34.8590 O   0  0  0  0  0  0  0  0  0  0  0  0
   39.1440   26.7920   37.2740 H   0  0  0  0  0  0  0  0  0  0  0  0
   38.3380   28.8210   35.7350 H   0  0  0  0  0  0  0  0  0  0  0  0
   38.1100   24.2250   36.4410 C   0  0  0  0  0  0  0  0  0  0  0  0
   37.1600   23.6670   37.0090 O   0  0  0  0  0  0  0  0  0  0  0  0
   39.4320   23.6300   36.2910 C   0  0  0  0  0  0  0  0  0  0  0  0
   39.8570   22.8080   37.3260 C   0  0  0  0  0  0  0  0  0  0  0  0
   41.1170   22.2180   37.2260 C   0  0  0  0  0  0  0  0  0  0  0  0
   41.8570   22.4820   36.1180 N   0  0  0  0  0  0  0  0  0  0  0  0
   41.4150   23.2840   35.1330 C   0  0  0  0  0  0  0  0  0  0  0  0
   40.2120   23.8510   35.2230 N   0  0  0  0  0  0  0  0  0  0  0  0
   39.2770   22.5870   38.2170 H   0  0  0  0  0  0  0  0  0  0  0  0
   41.5290   21.5640   37.9820 H   0  0  0  0  0  0  0  0  0  0  0  0
   41.9840   23.5120   34.2390 H   0  0  0  0  0  0  0  0  0  0  0  0
   36.6170   27.9890   33.5900 C   0  0  0  0  0  0  0  0  0  0  0  0
   35.5860   28.6570   33.8770 O   0  0  0  0  0  0  0  0  0  0  0  0
   37.1570   27.9500   32.2570 C   0  0  0  0  0  0  0  0  0  0  0  0
   38.4400   27.4740   32.0500 C   0  0  0  0  0  3  0  0  0  0  0  0
   38.9970   27.4200   30.7900 C   0  0  0  0  0  0  0  0  0  0  0  0
   39.9860   27.0460   30.6720 H   0  0  0  0  0  0  0  0  0  0  0  0
   38.2270   27.8550   29.7660 N   0  0  0  0  0  0  0  0  0  0  0  0
   36.9810   28.3210   29.9510 C   0  0  0  0  0  3  0  0  0  0  0  0
   36.4540   28.3630   31.2100 N   0  0  0  0  0  0  0  0  0  0  0  0
  1  2  2  0  0  0  0
  1  8  1  0  0  0  0
  2  6  1  0  0  0  0
  3  7  1  0  0  0  0
  3  2  1  0  0  0  0
  4  5  1  0  0  0  0
  4  3  2  0  0  0  0
  5  1  1  0  0  0  0
  8  9  2  0  0  0  0
 10  8  1  0  0  0  0
 10 11  1  0  0  0  0
 11 16  1  0  0  0  0
 12 11  2  0  0  0  0
 12 17  1  0  0  0  0
 13 12  1  0  0  0  0
 14 15  1  0  0  0  0
 14 13  2  0  0  0  0
 15 10  2  0  0  0  0
 18 14  1  0  0  0  0
 19 20  2  0  0  0  0
 19  4  1  0  0  0  0
 21 19  1  0  0  0  0
 22 21  1  0  0  0  0
 23 22  2  0  0  0  0
 24 23  1  0  0  0  0
 25 26  2  0  0  0  0
 25 23  1  0  0  0  0
 26 27  1  0  0  0  0
 27 21  2  0  0  0  0
M  END
>  <minimizedAffinity>
-4.98405695

$$$$

 OpenBabel03272507313D

 27 29  0  0  0  0  0  0  0  0999 V2000
   38.3730   24.8630   33.6660 C   0  0  0  0  0  0  0  0  0  0  0  0
   37.9980   23.6540   33.1750 C   0  0  0  0  0  0  0  0  0  0  0  0
   36.9700   23.8610   32.2400 C   0  0  0  0  0  0  0  0  0  0  0  0
   36.7920   25.2420   32.2350 C   0  0  0  0  0  0  0  0  0  0  0  0
   37.6420   25.7610   33.0880 O   0  0  0  0  0  0  0  0  0  0  0  0
   38.3440   22.6470   33.3810 H   0  0  0  0  0  0  0  0  0  0  0  0
   36.3990   23.1730   31.6270 H   0  0  0  0  0  0  0  0  0  0  0  0
   39.4200   25.0060   34.6600 C   0  0  0  0  0  0  0  0  0  0  0  0
   40.4310   25.6640   34.3750 O   0  0  0  0  0  0  0  0  0  0  0  0
   39.2080   24.3550   35.9460 C   0  0  0  0  0  0  0  0  0  0  0  0
   38.1390   24.8170   36.7000 C   0  0  0  0  0  0  0  0  0  0  0  0
   37.8990   24.2240   37.9400 C   0  0  0  0  0  0  0  0  0  0  0  0
   38.7280   23.2240   38.3380 N   0  0  0  0  0  0  0  0  0  0  0  0
   39.7570   22.8010   37.5820 C   0  0  0  0  0  0  0  0  0  0  0  0
   39.9910   23.3640   36.3980 N   0  0  0  0  0  0  0  0  0  0  0  0
   37.4670   25.6140   36.3960 H   0  0  0  0  0  0  0  0  0  0  0  0
   37.0890   24.5180   38.5930 H   0  0  0  0  0  0  0  0  0  0  0  0
   40.4340   22.0070   37.8750 H   0  0  0  0  0  0  0  0  0  0  0  0
   35.8150   25.9780   31.4080 C   0  0  0  0  0  0  0  0  0  0  0  0
   34.9100   25.3240   30.8180 O   0  0  0  0  0  0  0  0  0  0  0  0
   35.9190   27.4090   31.2980 C   0  0  0  0  0  0  0  0  0  0  0  0
   36.7120   27.9650   30.3090 C   0  0  0  0  0  3  0  0  0  0  0  0
   36.8410   29.3290   30.1680 C   0  0  0  0  0  0  0  0  0  0  0  0
   37.4600   29.7180   29.3940 H   0  0  0  0  0  0  0  0  0  0  0  0
   36.1550   30.0990   31.0440 N   0  0  0  0  0  0  0  0  0  0  0  0
   35.3830   29.5750   32.0090 C   0  0  0  0  0  3  0  0  0  0  0  0
   35.2720   28.2190   32.1260 N   0  0  0  0  0  0  0  0  0  0  0  0
  1  8  1  0  0  0  0
  2  6  1  0  0  0  0
  2  1  2  0  0  0  0
  3  2  1  0  0  0  0
  4  3  2  0  0  0  0
  4  5  1  0  0  0  0
  5  1  1  0  0  0  0
  7  3  1  0  0  0  0
  8 10  1  0  0  0  0
  9  8  2  0  0  0  0
 10 15  2  0  0  0  0
 10 11  1  0  0  0  0
 11 12  2  0  0  0  0
 12 13  1  0  0  0  0
 12 17  1  0  0  0  0
 14 18  1  0  0  0  0
 14 13  2  0  0  0  0
 15 14  1  0  0  0  0
 16 11  1  0  0  0  0
 19  4  1  0  0  0  0
 20 19  2  0  0  0  0
 21 19  1  0  0  0  0
 21 27  1  0  0  0  0
 22 21  2  0  0  0  0
 23 22  1  0  0  0  0
 23 25  2  0  0  0  0
 24 23  1  0  0  0  0
 25 26  1  0  0  0  0
 26 27  2  0  0  0  0
M  END
>  <minimizedAffinity>
-4.96634626

$$$$

 OpenBabel03272507313D

 27 29  0  0  0  0  0  0  0  0999 V2000
   37.4390   26.7040   34.3040 C   0  0  0  0  0  0  0  0  0  0  0  0
   38.2640   27.4880   35.0430 C   0  0  0  0  0  0  0  0  0  0  0  0
   38.7320   26.7320   36.1300 C   0  0  0  0  0  0  0  0  0  0  0  0
   38.1270   25.4880   35.9610 C   0  0  0  0  0  0  0  0  0  0  0  0
   37.3890   25.5440   34.8780 O   0  0  0  0  0  0  0  0  0  0  0  0
   38.5850   28.5180   34.9270 H   0  0  0  0  0  0  0  0  0  0  0  0
   39.4000   26.9750   36.9480 H   0  0  0  0  0  0  0  0  0  0  0  0
   36.7830   27.1820   33.1030 C   0  0  0  0  0  0  0  0  0  0  0  0
   36.7750   26.4600   32.0960 O   0  0  0  0  0  0  0  0  0  0  0  0
   36.1670   28.5020   33.1630 C   0  0  0  0  0  0  0  0  0  0  0  0
   36.4200   29.3480   32.0920 C   0  0  0  0  0  0  0  0  0  0  0  0
   35.8520   30.6220   32.1080 C   0  0  0  0  0  0  0  0  0  0  0  0
   35.0810   30.9620   33.1730 N   0  0  0  0  0  0  0  0  0  0  0  0
   34.8560   30.1160   34.1960 C   0  0  0  0  0  0  0  0  0  0  0  0
   35.3970   28.8990   34.1860 N   0  0  0  0  0  0  0  0  0  0  0  0
   37.0340   29.0910   31.2340 H   0  0  0  0  0  0  0  0  0  0  0  0
   35.9940   31.3460   31.3170 H   0  0  0  0  0  0  0  0  0  0  0  0
   34.2470   30.3610   35.0570 H   0  0  0  0  0  0  0  0  0  0  0  0
   38.2970   24.3230   36.8520 C   0  0  0  0  0  0  0  0  0  0  0  0
   37.4620   24.1470   37.7820 O   0  0  0  0  0  0  0  0  0  0  0  0
   39.4010   23.4270   36.6360 C   0  0  0  0  0  0  0  0  0  0  0  0
   39.9390   23.2940   35.3670 C   0  0  0  0  0  3  0  0  0  0  0  0
   40.9960   22.4470   35.1150 C   0  0  0  0  0  0  0  0  0  0  0  0
   41.3820   22.3740   34.1260 H   0  0  0  0  0  0  0  0  0  0  0  0
   41.4830   21.7510   36.1690 N   0  0  0  0  0  0  0  0  0  0  0  0
   40.9720   21.8680   37.4040 C   0  0  0  0  0  3  0  0  0  0  0  0
   39.9240   22.7150   37.6260 N   0  0  0  0  0  0  0  0  0  0  0  0
  1  5  1  0  0  0  0
  1  2  2  0  0  0  0
  2  3  1  0  0  0  0
  3  7  1  0  0  0  0
  4  3  2  0  0  0  0
  4 19  1  0  0  0  0
  5  4  1  0  0  0  0
  6  2  1  0  0  0  0
  8 10  1  0  0  0  0
  8  1  1  0  0  0  0
  9  8  2  0  0  0  0
 10 15  1  0  0  0  0
 11 12  1  0  0  0  0
 11 10  2  0  0  0  0
 12 13  2  0  0  0  0
 13 14  1  0  0  0  0
 14 18  1  0  0  0  0
 15 14  2  0  0  0  0
 16 11  1  0  0  0  0
 17 12  1  0  0  0  0
 19 20  2  0  0  0  0
 21 19  1  0  0  0  0
 21 27  1  0  0  0  0
 22 21  2  0  0  0  0
 23 22  1  0  0  0  0
 23 25  2  0  0  0  0
 24 23  1  0  0  0  0
 25 26  1  0  0  0  0
 26 27  2  0  0  0  0
M  END
>  <minimizedAffinity>
-4.93487501

$$$$

 OpenBabel03272507313D

 27 29  0  0  0  0  0  0  0  0999 V2000
   35.9570   28.7340   33.7620 C   0  0  0  0  0  0  0  0  0  0  0  0
   36.2030   27.9860   32.6560 C   0  0  0  0  0  0  0  0  0  0  0  0
   37.1730   27.0240   32.9840 C   0  0  0  0  0  0  0  0  0  0  0  0
   37.4550   27.2740   34.3250 C   0  0  0  0  0  0  0  0  0  0  0  0
   36.7110   28.2820   34.7130 O   0  0  0  0  0  0  0  0  0  0  0  0
   35.7970   28.0200   31.6510 H   0  0  0  0  0  0  0  0  0  0  0  0
   37.6450   26.2430   32.4000 H   0  0  0  0  0  0  0  0  0  0  0  0
   34.9990   29.8230   33.7650 C   0  0  0  0  0  0  0  0  0  0  0  0
   35.4070   30.9810   33.6000 O   0  0  0  0  0  0  0  0  0  0  0  0
   33.5980   29.4740   33.9660 C   0  0  0  0  0  0  0  0  0  0  0  0
   33.1330   29.5230   35.2720 C   0  0  0  0  0  0  0  0  0  0  0  0
   31.7970   29.1960   35.5110 C   0  0  0  0  0  0  0  0  0  0  0  0
   31.0280   28.8470   34.4480 N   0  0  0  0  0  0  0  0  0  0  0  0
   31.5110   28.8090   33.1930 C   0  0  0  0  0  0  0  0  0  0  0  0
   32.7850   29.1200   32.9590 N   0  0  0  0  0  0  0  0  0  0  0  0
   33.7350   29.8000   36.1320 H   0  0  0  0  0  0  0  0  0  0  0  0
   31.3500   29.2080   36.4950 H   0  0  0  0  0  0  0  0  0  0  0  0
   30.9200   28.5350   32.3270 H   0  0  0  0  0  0  0  0  0  0  0  0
   38.4230   26.5250   35.1520 C   0  0  0  0  0  0  0  0  0  0  0  0
   39.4380   27.1330   35.5910 O   0  0  0  0  0  0  0  0  0  0  0  0
   38.1830   25.1350   35.4330 C   0  0  0  0  0  0  0  0  0  0  0  0
   37.7920   24.7490   36.7030 C   0  0  0  0  0  3  0  0  0  0  0  0
   37.5520   23.4290   37.0170 C   0  0  0  0  0  0  0  0  0  0  0  0
   37.2520   23.1730   38.0050 H   0  0  0  0  0  0  0  0  0  0  0  0
   37.7160   22.5280   36.0210 N   0  0  0  0  0  0  0  0  0  0  0  0
   38.0950   22.8860   34.7840 C   0  0  0  0  0  3  0  0  0  0  0  0
   38.3270   24.2020   34.5010 N   0  0  0  0  0  0  0  0  0  0  0  0
  1  8  1  0  0  0  0
  1  5  1  0  0  0  0
  2  3  1  0  0  0  0
  2  1  2  0  0  0  0
  3  4  2  0  0  0  0
  4  5  1  0  0  0  0
  4 19  1  0  0  0  0
  6  2  1  0  0  0  0
  7  3  1  0  0  0  0
  8 10  1  0  0  0  0
  9  8  2  0  0  0  0
 10 11  1  0  0  0  0
 11 12  2  0  0  0  0
 11 16  1  0  0  0  0
 12 17  1  0  0  0  0
 13 12  1  0  0  0  0
 14 13  2  0  0  0  0
 15 14  1  0  0  0  0
 15 10  2  0  0  0  0
 18 14  1  0  0  0  0
 19 21  1  0  0  0  0
 19 20  2  0  0  0  0
 21 22  1  0  0  0  0
 22 23  2  0  0  0  0
 23 24  1  0  0  0  0
 25 23  1  0  0  0  0
 26 25  2  0  0  0  0
 27 26  1  0  0  0  0
 27 21  2  0  0  0  0
M  END
>  <minimizedAffinity>
-4.90219069

$$$$
