
 OpenBabel03272505083D

 27 29  0  0  0  0  0  0  0  0999 V2000
   36.2900   30.9020   45.3410 Cl  0  0  0  0  0  0  0  0  0  0  0  0
   36.4970   30.4940   47.0250 C   0  0  0  0  0  0  0  0  0  0  0  0
   37.7350   30.7190   47.5710 C   0  0  0  0  0  0  0  0  0  0  0  0
   37.9170   30.3970   48.9210 C   0  0  0  0  0  0  0  0  0  0  0  0
   36.8740   29.8770   49.6420 C   0  0  0  0  0  0  0  0  0  0  0  0
   35.6660   29.6790   49.0310 C   0  0  0  0  0  0  0  0  0  0  0  0
   35.4110   29.9720   47.7070 C   0  0  0  0  0  0  0  0  0  0  0  0
   38.9120   30.5890   49.3200 H   0  0  0  0  0  0  0  0  0  0  0  0
   37.0310   29.6340   50.6850 H   0  0  0  0  0  0  0  0  0  0  0  0
   34.8500   29.2660   49.6220 H   0  0  0  0  0  0  0  0  0  0  0  0
   40.0470   33.1880   46.2060 C   0  0  0  0  0  0  0  0  0  0  0  0
   40.8410   32.4430   45.2910 C   0  0  0  0  0  0  0  0  0  0  0  0
   40.5540   31.0860   45.1680 C   0  0  0  0  0  0  0  0  0  0  0  0
   39.5460   30.5630   45.9160 N   0  0  0  0  0  0  0  0  0  0  0  0
   38.8210   31.2770   46.7610 C   0  0  0  0  0  0  0  0  0  0  0  0
   39.0820   32.5920   46.8960 N   0  0  0  0  0  0  0  0  0  0  0  0
   40.3010   34.2390   46.2730 H   0  0  0  0  0  0  0  0  0  0  0  0
   41.6270   32.8580   44.7080 H   0  0  0  0  0  0  0  0  0  0  0  0
   41.1280   30.4550   44.4800 H   0  0  0  0  0  0  0  0  0  0  0  0
   33.8530   29.7200   46.9070 S   0  0  0  0  0  0  0  0  0  0  0  0
   33.1710   28.1150   47.3210 C   0  0  0  0  0  0  0  0  0  0  0  0
   33.8480   26.9360   47.0870 C   0  0  0  0  0  3  0  0  0  0  0  0
   33.3530   25.6840   47.3920 C   0  0  0  0  0  0  0  0  0  0  0  0
   33.9150   24.7910   47.1930 H   0  0  0  0  0  0  0  0  0  0  0  0
   32.1250   25.7060   47.9520 N   0  0  0  0  0  0  0  0  0  0  0  0
   31.4270   26.8290   48.1980 C   0  0  0  0  0  3  0  0  0  0  0  0
   31.9550   28.0480   47.8800 N   0  0  0  0  0  0  0  0  0  0  0  0
  1  2  1  0  0  0  0
  2  3  2  0  0  0  0
  2  7  1  0  0  0  0
  3  4  1  0  0  0  0
  4  8  1  0  0  0  0
  4  5  2  0  0  0  0
  5  9  1  0  0  0  0
  6 10  1  0  0  0  0
  6  5  1  0  0  0  0
  7  6  2  0  0  0  0
 11 17  1  0  0  0  0
 11 16  1  0  0  0  0
 12 11  2  0  0  0  0
 13 12  1  0  0  0  0
 13 14  2  0  0  0  0
 14 15  1  0  0  0  0
 15 16  2  0  0  0  0
 15  3  1  0  0  0  0
 18 12  1  0  0  0  0
 19 13  1  0  0  0  0
 20 21  1  0  0  0  0
 20  7  1  0  0  0  0
 21 27  1  0  0  0  0
 22 21  2  0  0  0  0
 22 23  1  0  0  0  0
 23 25  2  0  0  0  0
 24 23  1  0  0  0  0
 25 26  1  0  0  0  0
 27 26  2  0  0  0  0
M  END
>  <minimizedAffinity>
-5.48972654

>  <minimizedRMSD>
1.50195956

$$$$
