
 OpenBabel03262521543D

 37 39  0  0  1  0  0  0  0  0999 V2000
   31.9310   26.8380   48.3060 C   0  0  1  0  0  0  0  0  0  0  0  0
   32.6210   28.1810   48.2990 C   0  0  2  0  0  0  0  0  0  0  0  0
   32.5470   28.7160   46.9010 C   0  0  0  0  0  0  0  0  0  0  0  0
   31.9020   27.8700   46.0220 O   0  0  0  0  0  0  0  0  0  0  0  0
   30.5940   27.5980   46.4110 C   0  0  0  0  0  0  0  0  0  0  0  0
   30.5090   27.0740   47.8100 C   0  0  2  0  0  0  0  0  0  0  0  0
   31.9550   26.3430   49.2840 H   0  0  0  0  0  0  0  0  0  0  0  0
   32.0830   28.8300   49.0140 H   0  0  0  0  0  0  0  0  0  0  0  0
   32.0020   29.6880   46.9280 H   0  0  0  0  0  0  0  0  0  0  0  0
   33.5420   28.9410   46.4680 H   0  0  0  0  0  0  0  0  0  0  0  0
   30.2100   26.8000   45.7290 H   0  0  0  0  0  0  0  0  0  0  0  0
   29.9010   28.4630   46.2260 H   0  0  0  0  0  0  0  0  0  0  0  0
   29.9610   26.1140   47.8930 H   0  0  0  0  0  0  0  0  0  0  0  0
   32.5290   25.9570   47.4060 O   0  0  0  0  0  0  0  0  0  0  0  0
   31.8760   25.5080   46.8060 H   0  0  0  0  0  0  0  0  0  0  0  0
   34.3260   28.0690   48.8820 S   0  0  0  0  0  0  0  0  0  0  0  0
   34.6460   29.3360   50.1290 C   0  0  0  0  0  0  0  0  0  0  0  0
   34.0430   29.0950   51.0210 H   0  0  0  0  0  0  0  0  0  0  0  0
   34.3250   30.3340   49.7360 H   0  0  0  0  0  0  0  0  0  0  0  0
   36.3600   29.4550   50.6140 S   0  0  0  0  0  0  0  0  0  0  0  0
   37.1920   30.6180   49.5490 C   0  0  0  0  0  0  0  0  0  0  0  0
   37.2410   31.9160   50.0290 C   0  0  0  0  0  0  0  0  0  0  0  0
   37.8810   32.8900   49.2460 C   0  0  0  0  0  0  0  0  0  0  0  0
   38.4160   32.4990   48.0620 N   0  0  0  0  0  0  0  0  0  0  0  0
   38.3400   31.2120   47.6390 C   0  0  0  0  0  0  0  0  0  0  0  0
   37.7420   30.2970   48.3670 N   0  0  0  0  0  0  0  0  0  0  0  0
   36.8240   32.2520   50.9670 H   0  0  0  0  0  0  0  0  0  0  0  0
   37.9500   33.9130   49.5670 H   0  0  0  0  0  0  0  0  0  0  0  0
   38.7980   31.0070   46.6800 H   0  0  0  0  0  0  0  0  0  0  0  0
   29.9800   28.0320   48.6620 O   0  0  0  0  0  0  0  0  0  0  0  0
   28.9150   27.9340   49.5100 C   0  0  0  0  0  0  0  0  0  0  0  0
   27.6590   28.4940   49.3360 C   0  0  0  0  0  3  0  0  0  0  0  0
   26.6600   28.3240   50.2680 C   0  0  0  0  0  0  0  0  0  0  0  0
   25.6760   28.7820   50.0960 H   0  0  0  0  0  0  0  0  0  0  0  0
   26.8900   27.5920   51.3940 N   0  0  0  0  0  0  0  0  0  0  0  0
   28.1300   27.0450   51.5600 C   0  0  0  0  0  3  0  0  0  0  0  0
   29.1140   27.2080   50.6480 N   0  0  0  0  0  0  0  0  0  0  0  0
  1  7  1  1  0  0  0
  2  1  1  0  0  0  0
  2 16  1  0  0  0  0
  2  8  1  1  0  0  0
  3  9  1  0  0  0  0
  3  2  1  0  0  0  0
  4  5  1  0  0  0  0
  4  3  1  0  0  0  0
  5  6  1  0  0  0  0
  6 13  1  1  0  0  0
  6  1  1  0  0  0  0
  6 30  1  0  0  0  0
 10  3  1  0  0  0  0
 11  5  1  0  0  0  0
 12  5  1  0  0  0  0
 14  1  1  0  0  0  0
 15 14  1  0  0  0  0
 16 17  1  0  0  0  0
 17 20  1  0  0  0  0
 17 18  1  0  0  0  0
 19 17  1  0  0  0  0
 21 22  1  0  0  0  0
 21 20  1  0  0  0  0
 22 27  1  0  0  0  0
 23 28  1  0  0  0  0
 23 22  2  0  0  0  0
 24 23  1  0  0  0  0
 25 24  2  0  0  0  0
 25 26  1  0  0  0  0
 26 21  2  0  0  0  0
 29 25  1  0  0  0  0
 30 31  1  0  0  0  0
 31 37  1  0  0  0  0
 32 31  2  0  0  0  0
 32 33  1  0  0  0  0
 33 35  2  0  0  0  0
 34 33  1  0  0  0  0
 35 36  1  0  0  0  0
 37 36  2  0  0  0  0
M  END
>  <minimizedAffinity>
-5.57319117

>  <minimizedRMSD>
1.19895768

$$$$
