
 OpenBabel03262521543D

 37 39  0  0  1  0  0  0  0  0999 V2000
   31.9210   26.8260   48.3010 C   0  0  1  0  0  0  0  0  0  0  0  0
   32.6010   28.1740   48.3070 C   0  0  2  0  0  0  0  0  0  0  0  0
   32.5280   28.7200   46.9130 C   0  0  0  0  0  0  0  0  0  0  0  0
   31.8920   27.8760   46.0250 O   0  0  0  0  0  0  0  0  0  0  0  0
   30.5850   27.5910   46.4070 C   0  0  0  0  0  0  0  0  0  0  0  0
   30.4990   27.0550   47.8020 C   0  0  2  0  0  0  0  0  0  0  0  0
   31.9450   26.3230   49.2750 H   0  0  0  0  0  0  0  0  0  0  0  0
   32.0550   28.8130   49.0250 H   0  0  0  0  0  0  0  0  0  0  0  0
   31.9760   29.6870   46.9460 H   0  0  0  0  0  0  0  0  0  0  0  0
   33.5230   28.9550   46.4850 H   0  0  0  0  0  0  0  0  0  0  0  0
   30.2090   26.7960   45.7180 H   0  0  0  0  0  0  0  0  0  0  0  0
   29.8860   28.4520   46.2270 H   0  0  0  0  0  0  0  0  0  0  0  0
   29.9570   26.0910   47.8760 H   0  0  0  0  0  0  0  0  0  0  0  0
   32.5290   25.9560   47.3960 O   0  0  0  0  0  0  0  0  0  0  0  0
   31.8810   25.5070   46.7900 H   0  0  0  0  0  0  0  0  0  0  0  0
   34.3040   28.0700   48.8950 S   0  0  0  0  0  0  0  0  0  0  0  0
   34.6590   29.4290   50.0310 C   0  0  0  0  0  0  0  0  0  0  0  0
   34.0470   29.2820   50.9380 H   0  0  0  0  0  0  0  0  0  0  0  0
   34.3680   30.3980   49.5530 H   0  0  0  0  0  0  0  0  0  0  0  0
   36.3740   29.5390   50.5110 S   0  0  0  0  0  0  0  0  0  0  0  0
   37.2280   30.6350   49.3930 C   0  0  0  0  0  0  0  0  0  0  0  0
   37.4030   31.9260   49.8630 C   0  0  0  0  0  0  0  0  0  0  0  0
   38.0670   32.8480   49.0400 C   0  0  0  0  0  0  0  0  0  0  0  0
   38.5000   32.4180   47.8270 N   0  0  0  0  0  0  0  0  0  0  0  0
   38.3030   31.1400   47.4160 C   0  0  0  0  0  0  0  0  0  0  0  0
   37.6810   30.2730   48.1830 N   0  0  0  0  0  0  0  0  0  0  0  0
   37.0690   32.2930   50.8230 H   0  0  0  0  0  0  0  0  0  0  0  0
   38.2320   33.8630   49.3500 H   0  0  0  0  0  0  0  0  0  0  0  0
   38.6860   30.9000   46.4330 H   0  0  0  0  0  0  0  0  0  0  0  0
   29.9600   28.0020   48.6600 O   0  0  0  0  0  0  0  0  0  0  0  0
   28.9540   27.8630   49.5720 C   0  0  0  0  0  0  0  0  0  0  0  0
   28.9870   27.1140   50.7370 C   0  0  0  0  0  3  0  0  0  0  0  0
   27.9040   27.0500   51.5830 C   0  0  0  0  0  0  0  0  0  0  0  0
   27.9660   26.4460   52.4990 H   0  0  0  0  0  0  0  0  0  0  0  0
   26.7610   27.7330   51.2860 N   0  0  0  0  0  0  0  0  0  0  0  0
   26.7350   28.4680   50.1370 C   0  0  0  0  0  3  0  0  0  0  0  0
   27.7980   28.5330   49.3020 N   0  0  0  0  0  0  0  0  0  0  0  0
  1  2  1  0  0  0  0
  1  7  1  1  0  0  0
  2 16  1  0  0  0  0
  2  8  1  1  0  0  0
  3  9  1  0  0  0  0
  3  2  1  0  0  0  0
  4  5  1  0  0  0  0
  4  3  1  0  0  0  0
  5  6  1  0  0  0  0
  6 13  1  1  0  0  0
  6  1  1  0  0  0  0
  6 30  1  0  0  0  0
 10  3  1  0  0  0  0
 11  5  1  0  0  0  0
 12  5  1  0  0  0  0
 14  1  1  0  0  0  0
 15 14  1  0  0  0  0
 16 17  1  0  0  0  0
 17 20  1  0  0  0  0
 17 18  1  0  0  0  0
 19 17  1  0  0  0  0
 21 22  1  0  0  0  0
 21 20  1  0  0  0  0
 22 27  1  0  0  0  0
 23 28  1  0  0  0  0
 23 22  2  0  0  0  0
 24 23  1  0  0  0  0
 25 24  2  0  0  0  0
 25 26  1  0  0  0  0
 26 21  2  0  0  0  0
 29 25  1  0  0  0  0
 30 31  1  0  0  0  0
 31 32  1  0  0  0  0
 32 33  2  0  0  0  0
 33 34  1  0  0  0  0
 35 33  1  0  0  0  0
 36 35  2  0  0  0  0
 37 31  2  0  0  0  0
 37 36  1  0  0  0  0
M  END
>  <minimizedAffinity>
-5.62393618

>  <minimizedRMSD>
1.24410677

$$$$
