
 OpenBabel03262521543D

 37 39  0  0  1  0  0  0  0  0999 V2000
   31.9620   26.8350   48.3000 C   0  0  1  0  0  0  0  0  0  0  0  0
   32.6640   28.1720   48.3180 C   0  0  2  0  0  0  0  0  0  0  0  0
   32.5800   28.7400   46.9330 C   0  0  0  0  0  0  0  0  0  0  0  0
   31.9200   27.9200   46.0410 O   0  0  0  0  0  0  0  0  0  0  0  0
   30.6130   27.6500   46.4370 C   0  0  0  0  0  0  0  0  0  0  0  0
   30.5380   27.0940   47.8250 C   0  0  2  0  0  0  0  0  0  0  0  0
   31.9930   26.3170   49.2670 H   0  0  0  0  0  0  0  0  0  0  0  0
   32.1380   28.8080   49.0530 H   0  0  0  0  0  0  0  0  0  0  0  0
   32.0440   29.7150   46.9880 H   0  0  0  0  0  0  0  0  0  0  0  0
   33.5730   28.9660   46.4950 H   0  0  0  0  0  0  0  0  0  0  0  0
   30.2150   26.8710   45.7410 H   0  0  0  0  0  0  0  0  0  0  0  0
   29.9250   28.5240   46.2800 H   0  0  0  0  0  0  0  0  0  0  0  0
   29.9820   26.1370   47.8910 H   0  0  0  0  0  0  0  0  0  0  0  0
   32.5440   25.9700   47.3740 O   0  0  0  0  0  0  0  0  0  0  0  0
   31.8820   25.5410   46.7710 H   0  0  0  0  0  0  0  0  0  0  0  0
   34.3730   28.0320   48.8810 S   0  0  0  0  0  0  0  0  0  0  0  0
   34.7720   29.3810   50.0160 C   0  0  0  0  0  0  0  0  0  0  0  0
   34.1590   29.2520   50.9250 H   0  0  0  0  0  0  0  0  0  0  0  0
   34.5070   30.3580   49.5380 H   0  0  0  0  0  0  0  0  0  0  0  0
   36.4910   29.4410   50.4890 S   0  0  0  0  0  0  0  0  0  0  0  0
   37.3690   30.5220   49.3760 C   0  0  0  0  0  0  0  0  0  0  0  0
   37.7870   31.7180   49.9330 C   0  0  0  0  0  0  0  0  0  0  0  0
   38.4860   32.6230   49.1190 C   0  0  0  0  0  0  0  0  0  0  0  0
   38.7130   32.2680   47.8280 N   0  0  0  0  0  0  0  0  0  0  0  0
   38.2820   31.0810   47.3320 C   0  0  0  0  0  0  0  0  0  0  0  0
   37.6260   30.2310   48.0910 N   0  0  0  0  0  0  0  0  0  0  0  0
   37.6200   32.0240   50.9560 H   0  0  0  0  0  0  0  0  0  0  0  0
   38.8350   33.5660   49.4960 H   0  0  0  0  0  0  0  0  0  0  0  0
   38.5140   30.8960   46.2920 H   0  0  0  0  0  0  0  0  0  0  0  0
   30.0250   28.0360   48.7040 O   0  0  0  0  0  0  0  0  0  0  0  0
   28.9480   27.9390   49.5360 C   0  0  0  0  0  0  0  0  0  0  0  0
   27.6980   28.5070   49.3480 C   0  0  0  0  0  3  0  0  0  0  0  0
   26.6840   28.3380   50.2640 C   0  0  0  0  0  0  0  0  0  0  0  0
   25.7060   28.8030   50.0800 H   0  0  0  0  0  0  0  0  0  0  0  0
   26.8940   27.5970   51.3880 N   0  0  0  0  0  0  0  0  0  0  0  0
   28.1270   27.0390   51.5670 C   0  0  0  0  0  3  0  0  0  0  0  0
   29.1260   27.2030   50.6710 N   0  0  0  0  0  0  0  0  0  0  0  0
  1  2  1  0  0  0  0
  1  7  1  1  0  0  0
  2 16  1  0  0  0  0
  2  8  1  1  0  0  0
  3  9  1  0  0  0  0
  3  2  1  0  0  0  0
  4  5  1  0  0  0  0
  4  3  1  0  0  0  0
  5  6  1  0  0  0  0
  6 13  1  1  0  0  0
  6  1  1  0  0  0  0
  6 30  1  0  0  0  0
 10  3  1  0  0  0  0
 11  5  1  0  0  0  0
 12  5  1  0  0  0  0
 14  1  1  0  0  0  0
 15 14  1  0  0  0  0
 16 17  1  0  0  0  0
 17 20  1  0  0  0  0
 17 18  1  0  0  0  0
 19 17  1  0  0  0  0
 21 22  1  0  0  0  0
 21 20  1  0  0  0  0
 22 27  1  0  0  0  0
 23 28  1  0  0  0  0
 23 22  2  0  0  0  0
 24 23  1  0  0  0  0
 25 24  2  0  0  0  0
 25 26  1  0  0  0  0
 26 21  2  0  0  0  0
 29 25  1  0  0  0  0
 30 31  1  0  0  0  0
 31 37  1  0  0  0  0
 32 31  2  0  0  0  0
 32 33  1  0  0  0  0
 33 35  2  0  0  0  0
 34 33  1  0  0  0  0
 35 36  1  0  0  0  0
 37 36  2  0  0  0  0
M  END
>  <minimizedAffinity>
-5.52215242

>  <minimizedRMSD>
1.17306399

$$$$
