
 OpenBabel03262521543D

 37 39  0  0  1  0  0  0  0  0999 V2000
   32.9900   27.0560   48.1270 C   0  0  1  0  0  0  0  0  0  0  0  0
   33.4760   28.4330   48.5130 C   0  0  2  0  0  0  0  0  0  0  0  0
   33.4250   29.2880   47.2830 C   0  0  0  0  0  0  0  0  0  0  0  0
   32.9770   28.6160   46.1640 O   0  0  0  0  0  0  0  0  0  0  0  0
   31.6980   28.0950   46.3360 C   0  0  0  0  0  0  0  0  0  0  0  0
   31.5890   27.2310   47.5530 C   0  0  2  0  0  0  0  0  0  0  0  0
   33.0160   26.3380   48.9560 H   0  0  0  0  0  0  0  0  0  0  0  0
   32.7970   28.8100   49.3000 H   0  0  0  0  0  0  0  0  0  0  0  0
   32.7440   30.1470   47.4830 H   0  0  0  0  0  0  0  0  0  0  0  0
   34.4060   29.7350   47.0250 H   0  0  0  0  0  0  0  0  0  0  0  0
   31.4850   27.4520   45.4470 H   0  0  0  0  0  0  0  0  0  0  0  0
   30.9010   28.8860   46.2900 H   0  0  0  0  0  0  0  0  0  0  0  0
   31.1820   26.2210   47.3460 H   0  0  0  0  0  0  0  0  0  0  0  0
   33.7750   26.5090   47.1110 O   0  0  0  0  0  0  0  0  0  0  0  0
   33.2400   26.1480   46.3560 H   0  0  0  0  0  0  0  0  0  0  0  0
   35.1310   28.3900   49.2310 S   0  0  0  0  0  0  0  0  0  0  0  0
   35.3930   29.8310   50.2890 C   0  0  0  0  0  0  0  0  0  0  0  0
   34.8570   29.6560   51.2390 H   0  0  0  0  0  0  0  0  0  0  0  0
   34.9630   30.7380   49.7950 H   0  0  0  0  0  0  0  0  0  0  0  0
   37.1090   30.1560   50.6530 S   0  0  0  0  0  0  0  0  0  0  0  0
   37.8520   31.0050   49.2720 C   0  0  0  0  0  0  0  0  0  0  0  0
   38.2810   32.2940   49.5430 C   0  0  0  0  0  0  0  0  0  0  0  0
   38.8770   33.0270   48.5050 C   0  0  0  0  0  0  0  0  0  0  0  0
   38.9980   32.4260   47.2940 N   0  0  0  0  0  0  0  0  0  0  0  0
   38.5610   31.1600   47.0830 C   0  0  0  0  0  0  0  0  0  0  0  0
   38.0020   30.4690   48.0510 N   0  0  0  0  0  0  0  0  0  0  0  0
   38.1960   32.7940   50.4970 H   0  0  0  0  0  0  0  0  0  0  0  0
   39.2290   34.0310   48.6550 H   0  0  0  0  0  0  0  0  0  0  0  0
   38.7050   30.7750   46.0820 H   0  0  0  0  0  0  0  0  0  0  0  0
   30.8650   27.8710   48.5470 O   0  0  0  0  0  0  0  0  0  0  0  0
   29.5300   27.7990   48.8210 C   0  0  0  0  0  0  0  0  0  0  0  0
   28.5690   27.1090   48.0990 C   0  0  0  0  0  3  0  0  0  0  0  0
   27.2460   27.1100   48.4760 C   0  0  0  0  0  0  0  0  0  0  0  0
   26.5130   26.5510   47.8790 H   0  0  0  0  0  0  0  0  0  0  0  0
   26.8490   27.8000   49.5830 N   0  0  0  0  0  0  0  0  0  0  0  0
   27.8000   28.4780   50.2890 C   0  0  0  0  0  3  0  0  0  0  0  0
   29.1020   28.4800   49.9230 N   0  0  0  0  0  0  0  0  0  0  0  0
  1  2  1  0  0  0  0
  1  7  1  1  0  0  0
  2 16  1  0  0  0  0
  2  8  1  1  0  0  0
  3  9  1  0  0  0  0
  3  2  1  0  0  0  0
  4  5  1  0  0  0  0
  4  3  1  0  0  0  0
  5  6  1  0  0  0  0
  6 13  1  6  0  0  0
  6  1  1  0  0  0  0
  6 30  1  0  0  0  0
 10  3  1  0  0  0  0
 11  5  1  0  0  0  0
 12  5  1  0  0  0  0
 14  1  1  0  0  0  0
 15 14  1  0  0  0  0
 16 17  1  0  0  0  0
 17 20  1  0  0  0  0
 17 18  1  0  0  0  0
 19 17  1  0  0  0  0
 21 22  1  0  0  0  0
 21 20  1  0  0  0  0
 22 27  1  0  0  0  0
 23 28  1  0  0  0  0
 23 22  2  0  0  0  0
 24 23  1  0  0  0  0
 25 24  2  0  0  0  0
 25 26  1  0  0  0  0
 26 21  2  0  0  0  0
 29 25  1  0  0  0  0
 30 31  1  0  0  0  0
 31 37  1  0  0  0  0
 32 33  1  0  0  0  0
 32 31  2  0  0  0  0
 33 35  2  0  0  0  0
 34 33  1  0  0  0  0
 35 36  1  0  0  0  0
 37 36  2  0  0  0  0
M  END
>  <minimizedAffinity>
-5.18636274

>  <minimizedRMSD>
0.431195438

$$$$
