
 OpenBabel03262521463D

 28 29  0  0  0  0  0  0  0  0999 V2000
   36.9750   29.2660   50.7090 C   0  0  0  0  0  0  0  0  0  0  0  0
   37.4510   28.3840   51.1890 H   0  0  0  0  0  0  0  0  0  0  0  0
   36.8200   28.9610   49.6360 H   0  0  0  0  0  0  0  0  0  0  0  0
   37.7650   30.5190   50.8580 C   0  0  0  0  0  0  0  0  0  0  0  0
   38.7130   30.2570   51.4110 H   0  0  0  0  0  0  0  0  0  0  0  0
   37.2530   31.2590   51.5400 H   0  0  0  0  0  0  0  0  0  0  0  0
   38.1130   31.1770   49.6130 C   0  0  0  0  0  0  0  0  0  0  0  0
   38.5520   32.4840   49.5450 C   0  0  0  0  0  0  0  0  0  0  0  0
   38.8690   33.0400   48.2830 C   0  0  0  0  0  0  0  0  0  0  0  0
   38.7180   32.2310   47.1920 N   0  0  0  0  0  0  0  0  0  0  0  0
   38.2820   30.9370   47.2860 C   0  0  0  0  0  0  0  0  0  0  0  0
   37.9870   30.4420   48.5140 N   0  0  0  0  0  0  0  0  0  0  0  0
   38.6430   33.0520   50.4560 H   0  0  0  0  0  0  0  0  0  0  0  0
   39.2080   34.0440   48.2110 H   0  0  0  0  0  0  0  0  0  0  0  0
   38.1830   30.3470   46.3800 H   0  0  0  0  0  0  0  0  0  0  0  0
   35.7220   29.4510   51.2910 O   0  0  0  0  0  0  0  0  0  0  0  0
   34.6950   30.5340   49.1500 O   0  0  0  0  0  0  0  0  0  0  0  0
   34.4910   29.3840   50.1250 P   0  0  2  0  0  0  0  0  0  0  0  0
   32.9750   29.6390   50.8120 O   0  0  0  0  0  0  0  0  0  0  0  0
   32.3080   29.0930   50.3300 H   0  0  0  0  0  0  0  0  0  0  0  0
   34.4970   27.9090   49.3310 O   0  0  0  0  0  0  0  0  0  0  0  0
   33.4530   27.6460   48.4490 C   0  0  0  0  0  0  0  0  0  0  0  0
   33.7650   27.1570   47.1740 C   0  0  0  0  0  0  0  0  0  0  0  0
   32.7830   26.8670   46.2290 C   0  0  0  0  0  0  0  0  0  0  0  0
   33.0890   26.4980   45.2790 H   0  0  0  0  0  0  0  0  0  0  0  0
   31.5230   27.0910   46.6290 N   0  0  0  0  0  0  0  0  0  0  0  0
   31.1720   27.5600   47.8410 C   0  0  0  0  0  0  0  0  0  0  0  0
   32.1370   27.8380   48.7530 N   0  0  0  0  0  0  0  0  0  0  0  0
  1  4  1  0  0  0  0
  1  2  1  0  0  0  0
  1 16  1  0  0  0  0
  3  1  1  0  0  0  0
  4  5  1  0  0  0  0
  4  6  1  0  0  0  0
  7  4  1  0  0  0  0
  8  7  1  0  0  0  0
  8 13  1  0  0  0  0
  9  8  2  0  0  0  0
 10 11  2  0  0  0  0
 10  9  1  0  0  0  0
 11 12  1  0  0  0  0
 12  7  2  0  0  0  0
 14  9  1  0  0  0  0
 15 11  1  0  0  0  0
 18 17  2  6  0  0  0
 18 19  1  0  0  0  0
 18 16  1  0  0  0  0
 20 19  1  0  0  0  0
 21 18  1  0  0  0  0
 22 28  1  0  0  0  0
 22 21  1  0  0  0  0
 23 22  2  0  0  0  0
 24 26  2  0  0  0  0
 24 23  1  0  0  0  0
 25 24  1  0  0  0  0
 26 27  1  0  0  0  0
 27 28  2  0  0  0  0
M  END
>  <minimizedAffinity>
-5.21784925

>  <minimizedRMSD>
1.13327706

$$$$
