
 OpenBabel03262521543D

 37 39  0  0  1  0  0  0  0  0999 V2000
   31.9400   26.8350   48.3040 C   0  0  1  0  0  0  0  0  0  0  0  0
   32.6310   28.1770   48.2990 C   0  0  2  0  0  0  0  0  0  0  0  0
   32.5470   28.7200   46.9040 C   0  0  0  0  0  0  0  0  0  0  0  0
   31.8960   27.8780   46.0250 O   0  0  0  0  0  0  0  0  0  0  0  0
   30.5900   27.6050   46.4220 C   0  0  0  0  0  0  0  0  0  0  0  0
   30.5150   27.0740   47.8190 C   0  0  2  0  0  0  0  0  0  0  0  0
   31.9710   26.3340   49.2790 H   0  0  0  0  0  0  0  0  0  0  0  0
   32.0980   28.8230   49.0210 H   0  0  0  0  0  0  0  0  0  0  0  0
   32.0030   29.6910   46.9400 H   0  0  0  0  0  0  0  0  0  0  0  0
   33.5390   28.9460   46.4650 H   0  0  0  0  0  0  0  0  0  0  0  0
   30.2010   26.8110   45.7390 H   0  0  0  0  0  0  0  0  0  0  0  0
   29.8960   28.4710   46.2470 H   0  0  0  0  0  0  0  0  0  0  0  0
   29.9670   26.1140   47.9020 H   0  0  0  0  0  0  0  0  0  0  0  0
   32.5320   25.9580   47.3950 O   0  0  0  0  0  0  0  0  0  0  0  0
   31.8740   25.5120   46.7980 H   0  0  0  0  0  0  0  0  0  0  0  0
   34.3390   28.0620   48.8690 S   0  0  0  0  0  0  0  0  0  0  0  0
   34.7040   29.3960   50.0310 C   0  0  0  0  0  0  0  0  0  0  0  0
   34.1040   29.2270   50.9420 H   0  0  0  0  0  0  0  0  0  0  0  0
   34.4040   30.3750   49.5780 H   0  0  0  0  0  0  0  0  0  0  0  0
   36.4250   29.5020   50.4920 S   0  0  0  0  0  0  0  0  0  0  0  0
   37.2600   30.6280   49.3910 C   0  0  0  0  0  0  0  0  0  0  0  0
   37.4050   31.9170   49.8750 C   0  0  0  0  0  0  0  0  0  0  0  0
   38.0530   32.8620   49.0660 C   0  0  0  0  0  0  0  0  0  0  0  0
   38.5020   32.4540   47.8510 N   0  0  0  0  0  0  0  0  0  0  0  0
   38.3350   31.1770   47.4250 C   0  0  0  0  0  0  0  0  0  0  0  0
   37.7280   30.2890   48.1790 N   0  0  0  0  0  0  0  0  0  0  0  0
   37.0570   32.2660   50.8370 H   0  0  0  0  0  0  0  0  0  0  0  0
   38.1940   33.8770   49.3880 H   0  0  0  0  0  0  0  0  0  0  0  0
   38.7290   30.9560   46.4420 H   0  0  0  0  0  0  0  0  0  0  0  0
   29.9920   28.0270   48.6800 O   0  0  0  0  0  0  0  0  0  0  0  0
   28.9230   27.9310   49.5220 C   0  0  0  0  0  0  0  0  0  0  0  0
   27.6690   28.4940   49.3430 C   0  0  0  0  0  3  0  0  0  0  0  0
   26.6650   28.3270   50.2690 C   0  0  0  0  0  0  0  0  0  0  0  0
   25.6840   28.7880   50.0930 H   0  0  0  0  0  0  0  0  0  0  0  0
   26.8880   27.5920   51.3960 N   0  0  0  0  0  0  0  0  0  0  0  0
   28.1240   27.0400   51.5660 C   0  0  0  0  0  3  0  0  0  0  0  0
   29.1140   27.2020   50.6600 N   0  0  0  0  0  0  0  0  0  0  0  0
  1  7  1  1  0  0  0
  2  1  1  0  0  0  0
  2 16  1  0  0  0  0
  2  8  1  1  0  0  0
  3  9  1  0  0  0  0
  3  2  1  0  0  0  0
  4  5  1  0  0  0  0
  4  3  1  0  0  0  0
  5  6  1  0  0  0  0
  6 13  1  1  0  0  0
  6  1  1  0  0  0  0
  6 30  1  0  0  0  0
 10  3  1  0  0  0  0
 11  5  1  0  0  0  0
 12  5  1  0  0  0  0
 14  1  1  0  0  0  0
 15 14  1  0  0  0  0
 16 17  1  0  0  0  0
 17 20  1  0  0  0  0
 17 18  1  0  0  0  0
 19 17  1  0  0  0  0
 21 22  1  0  0  0  0
 21 20  1  0  0  0  0
 22 27  1  0  0  0  0
 23 28  1  0  0  0  0
 23 22  2  0  0  0  0
 24 23  1  0  0  0  0
 25 24  2  0  0  0  0
 25 26  1  0  0  0  0
 26 21  2  0  0  0  0
 29 25  1  0  0  0  0
 30 31  1  0  0  0  0
 31 37  1  0  0  0  0
 32 31  2  0  0  0  0
 32 33  1  0  0  0  0
 33 35  2  0  0  0  0
 34 33  1  0  0  0  0
 35 36  1  0  0  0  0
 37 36  2  0  0  0  0
M  END
>  <minimizedAffinity>
-5.56299257

>  <minimizedRMSD>
1.1783042

$$$$
