
 OpenBabel03262521483D

 28 29  0  0  0  0  0  0  0  0999 V2000
   39.0170   27.1720   32.7070 C   0  0  0  0  0  0  0  0  0  0  0  0
   38.0360   27.6920   32.7400 H   0  0  0  0  0  0  0  0  0  0  0  0
   39.7050   27.8910   32.1790 H   0  0  0  0  0  0  0  0  0  0  0  0
   38.9560   25.8310   32.0640 C   0  0  0  0  0  0  0  0  0  0  0  0
   39.4310   25.0940   32.7740 H   0  0  0  0  0  0  0  0  0  0  0  0
   39.6090   25.7780   31.1450 H   0  0  0  0  0  0  0  0  0  0  0  0
   37.6220   25.3700   31.7310 C   0  0  0  0  0  0  0  0  0  0  0  0
   37.2510   24.0400   31.7660 C   0  0  0  0  0  0  0  0  0  0  0  0
   35.9230   23.6860   31.4250 C   0  0  0  0  0  0  0  0  0  0  0  0
   35.0790   24.7030   31.0770 N   0  0  0  0  0  0  0  0  0  0  0  0
   35.4710   26.0140   31.0500 C   0  0  0  0  0  0  0  0  0  0  0  0
   36.7520   26.3120   31.3840 N   0  0  0  0  0  0  0  0  0  0  0  0
   37.9800   23.3030   32.0530 H   0  0  0  0  0  0  0  0  0  0  0  0
   35.6190   22.6690   31.4460 H   0  0  0  0  0  0  0  0  0  0  0  0
   34.7520   26.7740   30.7640 H   0  0  0  0  0  0  0  0  0  0  0  0
   39.4700   27.0240   34.0170 O   0  0  0  0  0  0  0  0  0  0  0  0
   37.0850   27.9090   34.6000 O   0  0  0  0  0  0  0  0  0  0  0  0
   38.1730   26.9770   35.1110 P   0  0  2  0  0  0  0  0  0  0  0  0
   38.6160   27.5820   36.6180 O   0  0  0  0  0  0  0  0  0  0  0  0
   38.1300   27.0830   37.3200 H   0  0  0  0  0  0  0  0  0  0  0  0
   37.5980   25.4140   35.2900 O   0  0  0  0  0  0  0  0  0  0  0  0
   38.2260   24.5980   36.2260 C   0  0  0  0  0  0  0  0  0  0  0  0
   39.3070   23.8120   35.8050 C   0  0  0  0  0  3  0  0  0  0  0  0
   39.9930   22.9670   36.6750 C   0  0  0  0  0  0  0  0  0  0  0  0
   40.8060   22.3970   36.2890 H   0  0  0  0  0  0  0  0  0  0  0  0
   39.5450   22.9620   37.9380 N   0  0  0  0  0  0  0  0  0  0  0  0
   38.5120   23.6970   38.3900 C   0  0  0  0  0  3  0  0  0  0  0  0
   37.8510   24.5170   37.5350 N   0  0  0  0  0  0  0  0  0  0  0  0
  1  2  1  0  0  0  0
  1 16  1  0  0  0  0
  3  1  1  0  0  0  0
  4  1  1  0  0  0  0
  4  5  1  0  0  0  0
  6  4  1  0  0  0  0
  7  8  1  0  0  0  0
  7  4  1  0  0  0  0
  8 13  1  0  0  0  0
  9 14  1  0  0  0  0
  9  8  2  0  0  0  0
 10  9  1  0  0  0  0
 11 10  2  0  0  0  0
 11 12  1  0  0  0  0
 12  7  2  0  0  0  0
 15 11  1  0  0  0  0
 16 18  1  0  0  0  0
 18 17  2  6  0  0  0
 18 21  1  0  0  0  0
 18 19  1  0  0  0  0
 19 20  1  0  0  0  0
 21 22  1  0  0  0  0
 22 28  1  0  0  0  0
 23 22  2  0  0  0  0
 23 24  1  0  0  0  0
 24 26  2  0  0  0  0
 25 24  1  0  0  0  0
 26 27  1  0  0  0  0
 28 27  2  0  0  0  0
M  END
>  <minimizedAffinity>
-4.60991049

$$$$

 OpenBabel03262521483D

 28 29  0  0  0  0  0  0  0  0999 V2000
   37.6900   26.9940   32.9420 C   0  0  0  0  0  0  0  0  0  0  0  0
   37.6350   25.9900   32.4690 H   0  0  0  0  0  0  0  0  0  0  0  0
   37.1120   26.8890   33.9050 H   0  0  0  0  0  0  0  0  0  0  0  0
   37.1870   28.0890   32.0680 C   0  0  0  0  0  0  0  0  0  0  0  0
   36.8310   27.6170   31.1070 H   0  0  0  0  0  0  0  0  0  0  0  0
   38.0180   28.7760   31.7380 H   0  0  0  0  0  0  0  0  0  0  0  0
   36.1080   28.8780   32.6320 C   0  0  0  0  0  0  0  0  0  0  0  0
   35.8520   28.9520   33.9860 C   0  0  0  0  0  0  0  0  0  0  0  0
   34.7760   29.7500   34.4430 C   0  0  0  0  0  0  0  0  0  0  0  0
   34.0460   30.4090   33.4930 N   0  0  0  0  0  0  0  0  0  0  0  0
   34.3200   30.3200   32.1560 C   0  0  0  0  0  0  0  0  0  0  0  0
   35.3600   29.5440   31.7590 N   0  0  0  0  0  0  0  0  0  0  0  0
   36.4790   28.4000   34.6660 H   0  0  0  0  0  0  0  0  0  0  0  0
   34.5640   29.8190   35.4810 H   0  0  0  0  0  0  0  0  0  0  0  0
   33.7010   30.8680   31.4530 H   0  0  0  0  0  0  0  0  0  0  0  0
   39.0220   27.2490   33.2640 O   0  0  0  0  0  0  0  0  0  0  0  0
   38.8310   27.4140   35.8610 O   0  0  0  0  0  0  0  0  0  0  0  0
   39.4330   26.5570   34.7580 P   0  0  2  0  0  0  0  0  0  0  0  0
   41.0960   26.5910   35.0170 O   0  0  0  0  0  0  0  0  0  0  0  0
   41.3590   25.7820   35.5210 H   0  0  0  0  0  0  0  0  0  0  0  0
   38.8900   24.9750   34.8560 O   0  0  0  0  0  0  0  0  0  0  0  0
   38.8980   24.3660   36.1070 C   0  0  0  0  0  0  0  0  0  0  0  0
   39.8920   23.4170   36.3790 C   0  0  0  0  0  3  0  0  0  0  0  0
   39.9740   22.7590   37.6040 C   0  0  0  0  0  0  0  0  0  0  0  0
   40.7540   22.0490   37.7450 H   0  0  0  0  0  0  0  0  0  0  0  0
   39.0360   23.1000   38.4990 N   0  0  0  0  0  0  0  0  0  0  0  0
   38.0620   24.0040   38.2860 C   0  0  0  0  0  3  0  0  0  0  0  0
   37.9920   24.6390   37.0880 N   0  0  0  0  0  0  0  0  0  0  0  0
  1 16  1  0  0  0  0
  1  3  1  0  0  0  0
  2  1  1  0  0  0  0
  4  7  1  0  0  0  0
  4  1  1  0  0  0  0
  5  4  1  0  0  0  0
  6  4  1  0  0  0  0
  7  8  1  0  0  0  0
  8  9  2  0  0  0  0
  8 13  1  0  0  0  0
  9 14  1  0  0  0  0
 10  9  1  0  0  0  0
 11 10  2  0  0  0  0
 12 11  1  0  0  0  0
 12  7  2  0  0  0  0
 15 11  1  0  0  0  0
 16 18  1  0  0  0  0
 18 21  1  0  0  0  0
 18 19  1  0  0  0  0
 18 17  2  1  0  0  0
 19 20  1  0  0  0  0
 21 22  1  0  0  0  0
 22 23  2  0  0  0  0
 22 28  1  0  0  0  0
 23 24  1  0  0  0  0
 24 25  1  0  0  0  0
 24 26  2  0  0  0  0
 27 26  1  0  0  0  0
 28 27  2  0  0  0  0
M  END
>  <minimizedAffinity>
-4.48841476

$$$$

 OpenBabel03262521483D

 28 29  0  0  0  0  0  0  0  0999 V2000
   38.7240   23.3320   33.3570 C   0  0  0  0  0  0  0  0  0  0  0  0
   39.2890   23.0160   32.4540 H   0  0  0  0  0  0  0  0  0  0  0  0
   39.3320   24.1720   33.7970 H   0  0  0  0  0  0  0  0  0  0  0  0
   38.4720   22.2210   34.3150 C   0  0  0  0  0  0  0  0  0  0  0  0
   39.1120   21.3480   33.9960 H   0  0  0  0  0  0  0  0  0  0  0  0
   37.4180   21.8260   34.2310 H   0  0  0  0  0  0  0  0  0  0  0  0
   38.7570   22.5310   35.7030 C   0  0  0  0  0  0  0  0  0  0  0  0
   39.9890   22.3150   36.2880 C   0  0  0  0  0  0  0  0  0  0  0  0
   40.1720   22.6500   37.6520 C   0  0  0  0  0  0  0  0  0  0  0  0
   39.0970   23.1760   38.3120 N   0  0  0  0  0  0  0  0  0  0  0  0
   37.8860   23.3800   37.7090 C   0  0  0  0  0  0  0  0  0  0  0  0
   37.7510   23.0450   36.4010 N   0  0  0  0  0  0  0  0  0  0  0  0
   40.7830   21.8970   35.6940 H   0  0  0  0  0  0  0  0  0  0  0  0
   41.1120   22.4920   38.1190 H   0  0  0  0  0  0  0  0  0  0  0  0
   37.0720   23.8000   38.2900 H   0  0  0  0  0  0  0  0  0  0  0  0
   37.5010   23.8550   32.9400 O   0  0  0  0  0  0  0  0  0  0  0  0
   38.4080   22.7340   30.7640 O   0  0  0  0  0  0  0  0  0  0  0  0
   37.2140   23.5070   31.3040 P   0  0  2  0  0  0  0  0  0  0  0  0
   37.1300   24.9120   30.3800 O   0  0  0  0  0  0  0  0  0  0  0  0
   36.4700   24.7800   29.6560 H   0  0  0  0  0  0  0  0  0  0  0  0
   35.7940   22.6370   31.1170 O   0  0  0  0  0  0  0  0  0  0  0  0
   35.8100   21.2920   31.4760 C   0  0  0  0  0  0  0  0  0  0  0  0
   35.4320   20.9470   32.7800 C   0  0  0  0  0  3  0  0  0  0  0  0
   35.4190   19.6250   33.2230 C   0  0  0  0  0  0  0  0  0  0  0  0
   35.1220   19.4320   34.2270 H   0  0  0  0  0  0  0  0  0  0  0  0
   35.7920   18.7140   32.3130 N   0  0  0  0  0  0  0  0  0  0  0  0
   36.1620   18.9960   31.0500 C   0  0  0  0  0  3  0  0  0  0  0  0
   36.1720   20.2860   30.6300 N   0  0  0  0  0  0  0  0  0  0  0  0
  1  3  1  0  0  0  0
  1  4  1  0  0  0  0
  2  1  1  0  0  0  0
  4  7  1  0  0  0  0
  5  4  1  0  0  0  0
  6  4  1  0  0  0  0
  7  8  2  0  0  0  0
  7 12  1  0  0  0  0
  8  9  1  0  0  0  0
  9 14  1  0  0  0  0
  9 10  2  0  0  0  0
 11 15  1  0  0  0  0
 11 10  1  0  0  0  0
 12 11  2  0  0  0  0
 13  8  1  0  0  0  0
 16  1  1  0  0  0  0
 18 17  2  6  0  0  0
 18 16  1  0  0  0  0
 19 18  1  0  0  0  0
 20 19  1  0  0  0  0
 21 18  1  0  0  0  0
 21 22  1  0  0  0  0
 22 23  1  0  0  0  0
 23 24  2  0  0  0  0
 24 25  1  0  0  0  0
 26 24  1  0  0  0  0
 27 26  2  0  0  0  0
 28 27  1  0  0  0  0
 28 22  2  0  0  0  0
M  END
>  <minimizedAffinity>
-4.38103914

$$$$

 OpenBabel03262521483D

 28 29  0  0  0  0  0  0  0  0999 V2000
   38.1190   26.0530   32.5820 C   0  0  0  0  0  0  0  0  0  0  0  0
   38.8290   26.3410   31.7780 H   0  0  0  0  0  0  0  0  0  0  0  0
   38.6690   25.2790   33.1880 H   0  0  0  0  0  0  0  0  0  0  0  0
   36.8050   25.5780   32.0690 C   0  0  0  0  0  0  0  0  0  0  0  0
   36.6850   25.9810   31.0220 H   0  0  0  0  0  0  0  0  0  0  0  0
   35.9430   26.0380   32.6340 H   0  0  0  0  0  0  0  0  0  0  0  0
   36.6430   24.1370   32.0380 C   0  0  0  0  0  0  0  0  0  0  0  0
   35.7230   23.4960   31.2330 C   0  0  0  0  0  0  0  0  0  0  0  0
   35.6380   22.0830   31.2720 C   0  0  0  0  0  0  0  0  0  0  0  0
   36.4900   21.4340   32.1210 N   0  0  0  0  0  0  0  0  0  0  0  0
   37.3930   22.0920   32.9100 C   0  0  0  0  0  0  0  0  0  0  0  0
   37.4430   23.4460   32.8430 N   0  0  0  0  0  0  0  0  0  0  0  0
   35.0900   24.0860   30.5920 H   0  0  0  0  0  0  0  0  0  0  0  0
   34.9370   21.5730   30.6590 H   0  0  0  0  0  0  0  0  0  0  0  0
   38.0410   21.5170   33.5630 H   0  0  0  0  0  0  0  0  0  0  0  0
   37.9100   27.1680   33.3930 O   0  0  0  0  0  0  0  0  0  0  0  0
   37.9300   28.0340   35.8550 O   0  0  0  0  0  0  0  0  0  0  0  0
   38.3290   26.8380   35.0040 P   0  0  2  0  0  0  0  0  0  0  0  0
   39.9960   26.6880   35.1900 O   0  0  0  0  0  0  0  0  0  0  0  0
   40.1820   26.0090   35.8840 H   0  0  0  0  0  0  0  0  0  0  0  0
   37.5850   25.4360   35.5410 O   0  0  0  0  0  0  0  0  0  0  0  0
   38.3500   24.5440   36.2870 C   0  0  0  0  0  0  0  0  0  0  0  0
   37.9910   24.3130   37.6210 C   0  0  0  0  0  3  0  0  0  0  0  0
   38.7010   23.4370   38.4390 C   0  0  0  0  0  0  0  0  0  0  0  0
   38.3750   23.3070   39.4440 H   0  0  0  0  0  0  0  0  0  0  0  0
   39.7480   22.8340   37.8570 N   0  0  0  0  0  0  0  0  0  0  0  0
   40.1320   23.0230   36.5810 C   0  0  0  0  0  3  0  0  0  0  0  0
   39.4330   23.8780   35.7940 N   0  0  0  0  0  0  0  0  0  0  0  0
  1  3  1  0  0  0  0
  1 16  1  0  0  0  0
  2  1  1  0  0  0  0
  4  1  1  0  0  0  0
  4  6  1  0  0  0  0
  5  4  1  0  0  0  0
  7  4  1  0  0  0  0
  7 12  1  0  0  0  0
  8  9  1  0  0  0  0
  8  7  2  0  0  0  0
  9 10  2  0  0  0  0
 10 11  1  0  0  0  0
 11 15  1  0  0  0  0
 12 11  2  0  0  0  0
 13  8  1  0  0  0  0
 14  9  1  0  0  0  0
 16 18  1  0  0  0  0
 18 19  1  0  0  0  0
 18 21  1  0  0  0  0
 18 17  2  1  0  0  0
 19 20  1  0  0  0  0
 21 22  1  0  0  0  0
 22 23  1  0  0  0  0
 23 24  2  0  0  0  0
 24 25  1  0  0  0  0
 26 24  1  0  0  0  0
 27 26  2  0  0  0  0
 28 22  2  0  0  0  0
 28 27  1  0  0  0  0
M  END
>  <minimizedAffinity>
-4.35175228

$$$$

 OpenBabel03262521483D

 28 29  0  0  0  0  0  0  0  0999 V2000
   38.1930   25.4970   36.4540 C   0  0  0  0  0  0  0  0  0  0  0  0
   37.4580   25.4180   37.2840 H   0  0  0  0  0  0  0  0  0  0  0  0
   39.1970   25.3590   36.9460 H   0  0  0  0  0  0  0  0  0  0  0  0
   38.0820   26.7660   35.6840 C   0  0  0  0  0  0  0  0  0  0  0  0
   38.2240   27.6160   36.4120 H   0  0  0  0  0  0  0  0  0  0  0  0
   37.0370   26.9250   35.2870 H   0  0  0  0  0  0  0  0  0  0  0  0
   39.0340   26.9110   34.5990 C   0  0  0  0  0  0  0  0  0  0  0  0
   40.4010   26.8750   34.7840 C   0  0  0  0  0  0  0  0  0  0  0  0
   41.2520   27.0260   33.6620 C   0  0  0  0  0  0  0  0  0  0  0  0
   40.6520   27.1990   32.4470 N   0  0  0  0  0  0  0  0  0  0  0  0
   39.2930   27.2300   32.2900 C   0  0  0  0  0  0  0  0  0  0  0  0
   38.5130   27.0830   33.3900 N   0  0  0  0  0  0  0  0  0  0  0  0
   40.7900   26.7340   35.7770 H   0  0  0  0  0  0  0  0  0  0  0  0
   42.3070   27.0010   33.7840 H   0  0  0  0  0  0  0  0  0  0  0  0
   38.8800   27.3720   31.2970 H   0  0  0  0  0  0  0  0  0  0  0  0
   37.9840   24.4230   35.5890 O   0  0  0  0  0  0  0  0  0  0  0  0
   38.6180   21.9080   35.2990 O   0  0  0  0  0  0  0  0  0  0  0  0
   38.2950   22.9450   36.3640 P   0  0  2  0  0  0  0  0  0  0  0  0
   36.9290   22.3660   37.1590 O   0  0  0  0  0  0  0  0  0  0  0  0
   37.2120   21.8950   37.9810 H   0  0  0  0  0  0  0  0  0  0  0  0
   39.5510   23.0980   37.4620 O   0  0  0  0  0  0  0  0  0  0  0  0
   40.7950   22.5940   37.0930 C   0  0  0  0  0  0  0  0  0  0  0  0
   41.5980   23.3610   36.2390 C   0  0  0  0  0  3  0  0  0  0  0  0
   42.8560   22.9330   35.8210 C   0  0  0  0  0  0  0  0  0  0  0  0
   43.4140   23.5650   35.1710 H   0  0  0  0  0  0  0  0  0  0  0  0
   43.2400   21.7390   36.2940 N   0  0  0  0  0  0  0  0  0  0  0  0
   42.5060   20.9650   37.1150 C   0  0  0  0  0  3  0  0  0  0  0  0
   41.2820   21.3920   37.5160 N   0  0  0  0  0  0  0  0  0  0  0  0
  1  3  1  0  0  0  0
  1  2  1  0  0  0  0
  4  5  1  0  0  0  0
  4  1  1  0  0  0  0
  6  4  1  0  0  0  0
  7  8  1  0  0  0  0
  7  4  1  0  0  0  0
  8 13  1  0  0  0  0
  9 14  1  0  0  0  0
  9  8  2  0  0  0  0
 10  9  1  0  0  0  0
 11 10  2  0  0  0  0
 11 12  1  0  0  0  0
 12  7  2  0  0  0  0
 15 11  1  0  0  0  0
 16 18  1  0  0  0  0
 16  1  1  0  0  0  0
 18 17  2  6  0  0  0
 18 19  1  0  0  0  0
 18 21  1  0  0  0  0
 19 20  1  0  0  0  0
 22 21  1  0  0  0  0
 22 28  1  0  0  0  0
 23 22  2  0  0  0  0
 24 23  1  0  0  0  0
 24 26  2  0  0  0  0
 25 24  1  0  0  0  0
 26 27  1  0  0  0  0
 27 28  2  0  0  0  0
M  END
>  <minimizedAffinity>
-4.2894907

$$$$

 OpenBabel03262521483D

 28 29  0  0  0  0  0  0  0  0999 V2000
   38.2020   25.3800   36.3700 C   0  0  0  0  0  0  0  0  0  0  0  0
   37.2660   24.9880   35.9170 H   0  0  0  0  0  0  0  0  0  0  0  0
   38.0360   25.3060   37.4820 H   0  0  0  0  0  0  0  0  0  0  0  0
   38.5500   26.7540   35.9160 C   0  0  0  0  0  0  0  0  0  0  0  0
   39.6420   26.9200   36.1490 H   0  0  0  0  0  0  0  0  0  0  0  0
   38.0230   27.5430   36.5260 H   0  0  0  0  0  0  0  0  0  0  0  0
   38.3270   27.0100   34.5060 C   0  0  0  0  0  0  0  0  0  0  0  0
   39.3330   26.9730   33.5620 C   0  0  0  0  0  0  0  0  0  0  0  0
   39.0170   27.2360   32.2070 C   0  0  0  0  0  0  0  0  0  0  0  0
   37.7110   27.5150   31.9170 N   0  0  0  0  0  0  0  0  0  0  0  0
   36.7310   27.5460   32.8710 C   0  0  0  0  0  0  0  0  0  0  0  0
   37.0750   27.2880   34.1580 N   0  0  0  0  0  0  0  0  0  0  0  0
   40.3360   26.7440   33.8770 H   0  0  0  0  0  0  0  0  0  0  0  0
   39.7780   27.2120   31.4670 H   0  0  0  0  0  0  0  0  0  0  0  0
   35.7130   27.7740   32.5750 H   0  0  0  0  0  0  0  0  0  0  0  0
   39.2400   24.5140   36.0300 O   0  0  0  0  0  0  0  0  0  0  0  0
   37.3200   22.8660   36.6690 O   0  0  0  0  0  0  0  0  0  0  0  0
   38.7510   22.8940   36.1530 P   0  0  2  0  0  0  0  0  0  0  0  0
   39.6600   22.0600   37.2980 O   0  0  0  0  0  0  0  0  0  0  0  0
   39.7760   21.1260   36.9980 H   0  0  0  0  0  0  0  0  0  0  0  0
   38.8770   22.1170   34.6740 O   0  0  0  0  0  0  0  0  0  0  0  0
   37.8640   22.3310   33.7440 C   0  0  0  0  0  0  0  0  0  0  0  0
   37.8090   23.5690   33.0930 C   0  0  0  0  0  3  0  0  0  0  0  0
   36.8300   23.8680   32.1480 C   0  0  0  0  0  0  0  0  0  0  0  0
   36.8450   24.8290   31.6910 H   0  0  0  0  0  0  0  0  0  0  0  0
   35.9480   22.8870   31.9090 N   0  0  0  0  0  0  0  0  0  0  0  0
   35.9590   21.6820   32.5090 C   0  0  0  0  0  3  0  0  0  0  0  0
   36.9180   21.4010   33.4270 N   0  0  0  0  0  0  0  0  0  0  0  0
  1  3  1  0  0  0  0
  2  1  1  0  0  0  0
  4  5  1  0  0  0  0
  4  1  1  0  0  0  0
  4  6  1  0  0  0  0
  7  4  1  0  0  0  0
  8 13  1  0  0  0  0
  8  7  2  0  0  0  0
  9  8  1  0  0  0  0
 10  9  2  0  0  0  0
 10 11  1  0  0  0  0
 11 12  2  0  0  0  0
 12  7  1  0  0  0  0
 14  9  1  0  0  0  0
 15 11  1  0  0  0  0
 16 18  1  0  0  0  0
 16  1  1  0  0  0  0
 18 17  2  1  0  0  0
 18 19  1  0  0  0  0
 20 19  1  0  0  0  0
 21 18  1  0  0  0  0
 22 21  1  0  0  0  0
 23 22  2  0  0  0  0
 24 23  1  0  0  0  0
 25 24  1  0  0  0  0
 26 24  2  0  0  0  0
 26 27  1  0  0  0  0
 27 28  2  0  0  0  0
 28 22  1  0  0  0  0
M  END
>  <minimizedAffinity>
-4.23713875

$$$$

 OpenBabel03262521483D

 28 29  0  0  0  0  0  0  0  0999 V2000
   36.7380   23.3660   31.4070 C   0  0  0  0  0  0  0  0  0  0  0  0
   36.6990   23.9430   30.4580 H   0  0  0  0  0  0  0  0  0  0  0  0
   37.6700   22.7390   31.3240 H   0  0  0  0  0  0  0  0  0  0  0  0
   35.5090   22.5650   31.6630 C   0  0  0  0  0  0  0  0  0  0  0  0
   34.8110   22.7290   30.7910 H   0  0  0  0  0  0  0  0  0  0  0  0
   34.9290   22.9600   32.5470 H   0  0  0  0  0  0  0  0  0  0  0  0
   35.7270   21.1410   31.8290 C   0  0  0  0  0  0  0  0  0  0  0  0
   34.7110   20.2460   32.0960 C   0  0  0  0  0  0  0  0  0  0  0  0
   35.0220   18.8730   32.2420 C   0  0  0  0  0  0  0  0  0  0  0  0
   36.3340   18.5160   32.1060 N   0  0  0  0  0  0  0  0  0  0  0  0
   37.3240   19.4230   31.8410 C   0  0  0  0  0  0  0  0  0  0  0  0
   36.9850   20.7300   31.7090 N   0  0  0  0  0  0  0  0  0  0  0  0
   33.7030   20.6140   32.1870 H   0  0  0  0  0  0  0  0  0  0  0  0
   34.2540   18.1700   32.4460 H   0  0  0  0  0  0  0  0  0  0  0  0
   38.3470   19.0740   31.7450 H   0  0  0  0  0  0  0  0  0  0  0  0
   36.9160   24.2680   32.4550 O   0  0  0  0  0  0  0  0  0  0  0  0
   39.5160   24.0400   32.4470 O   0  0  0  0  0  0  0  0  0  0  0  0
   38.3040   23.8920   33.3550 P   0  0  2  0  0  0  0  0  0  0  0  0
   38.3030   22.2820   33.8470 O   0  0  0  0  0  0  0  0  0  0  0  0
   38.7330   22.2180   34.7350 H   0  0  0  0  0  0  0  0  0  0  0  0
   38.4310   24.8820   34.7010 O   0  0  0  0  0  0  0  0  0  0  0  0
   38.6840   24.2740   35.9270 C   0  0  0  0  0  0  0  0  0  0  0  0
   37.8500   24.5840   37.0080 C   0  0  0  0  0  3  0  0  0  0  0  0
   38.0310   24.0220   38.2710 C   0  0  0  0  0  0  0  0  0  0  0  0
   37.3600   24.3020   39.0490 H   0  0  0  0  0  0  0  0  0  0  0  0
   39.0580   23.1660   38.3730 N   0  0  0  0  0  0  0  0  0  0  0  0
   39.8860   22.8370   37.3650 C   0  0  0  0  0  3  0  0  0  0  0  0
   39.7010   23.3900   36.1400 N   0  0  0  0  0  0  0  0  0  0  0  0
  1  4  1  0  0  0  0
  1 16  1  0  0  0  0
  2  1  1  0  0  0  0
  3  1  1  0  0  0  0
  4  7  1  0  0  0  0
  4  6  1  0  0  0  0
  5  4  1  0  0  0  0
  7  8  1  0  0  0  0
  8 13  1  0  0  0  0
  8  9  2  0  0  0  0
  9 14  1  0  0  0  0
 10  9  1  0  0  0  0
 11 10  2  0  0  0  0
 12  7  2  0  0  0  0
 12 11  1  0  0  0  0
 15 11  1  0  0  0  0
 16 18  1  0  0  0  0
 18 17  2  6  0  0  0
 18 19  1  0  0  0  0
 18 21  1  0  0  0  0
 19 20  1  0  0  0  0
 21 22  1  0  0  0  0
 22 28  2  0  0  0  0
 22 23  1  0  0  0  0
 23 24  2  0  0  0  0
 24 26  1  0  0  0  0
 24 25  1  0  0  0  0
 27 26  2  0  0  0  0
 28 27  1  0  0  0  0
M  END
>  <minimizedAffinity>
-4.22330904

$$$$

 OpenBabel03262521483D

 28 29  0  0  0  0  0  0  0  0999 V2000
   38.3660   23.6970   36.3190 C   0  0  0  0  0  0  0  0  0  0  0  0
   37.4000   23.1590   36.2040 H   0  0  0  0  0  0  0  0  0  0  0  0
   38.8480   23.6430   35.3020 H   0  0  0  0  0  0  0  0  0  0  0  0
   39.2220   23.1490   37.4070 C   0  0  0  0  0  0  0  0  0  0  0  0
   38.6710   22.2760   37.8630 H   0  0  0  0  0  0  0  0  0  0  0  0
   39.3270   23.8770   38.2630 H   0  0  0  0  0  0  0  0  0  0  0  0
   40.5390   22.7080   36.9890 C   0  0  0  0  0  0  0  0  0  0  0  0
   41.2880   23.3640   36.0330 C   0  0  0  0  0  0  0  0  0  0  0  0
   42.5660   22.8580   35.6910 C   0  0  0  0  0  0  0  0  0  0  0  0
   42.9810   21.7310   36.3430 N   0  0  0  0  0  0  0  0  0  0  0  0
   42.2190   21.0980   37.2870 C   0  0  0  0  0  0  0  0  0  0  0  0
   41.0010   21.6150   37.5860 N   0  0  0  0  0  0  0  0  0  0  0  0
   40.8840   24.2480   35.5700 H   0  0  0  0  0  0  0  0  0  0  0  0
   43.1570   23.3490   34.9590 H   0  0  0  0  0  0  0  0  0  0  0  0
   42.6070   20.2060   37.7680 H   0  0  0  0  0  0  0  0  0  0  0  0
   38.0860   25.0340   36.5940 O   0  0  0  0  0  0  0  0  0  0  0  0
   39.3200   26.8900   35.2360 O   0  0  0  0  0  0  0  0  0  0  0  0
   38.1120   25.9680   35.1770 P   0  0  2  0  0  0  0  0  0  0  0  0
   36.7730   26.9830   35.0830 O   0  0  0  0  0  0  0  0  0  0  0  0
   36.5050   27.0750   34.1360 H   0  0  0  0  0  0  0  0  0  0  0  0
   38.1610   24.9910   33.8170 O   0  0  0  0  0  0  0  0  0  0  0  0
   37.2400   25.2460   32.8050 C   0  0  0  0  0  0  0  0  0  0  0  0
   36.5580   24.1620   32.2380 C   0  0  0  0  0  3  0  0  0  0  0  0
   35.6200   24.3270   31.2200 C   0  0  0  0  0  0  0  0  0  0  0  0
   35.1380   23.4610   30.8330 H   0  0  0  0  0  0  0  0  0  0  0  0
   35.4200   25.5930   30.8280 N   0  0  0  0  0  0  0  0  0  0  0  0
   36.0490   26.6660   31.3410 C   0  0  0  0  0  3  0  0  0  0  0  0
   36.9610   26.4940   32.3320 N   0  0  0  0  0  0  0  0  0  0  0  0
  1 16  1  0  0  0  0
  1  4  1  0  0  0  0
  2  1  1  0  0  0  0
  3  1  1  0  0  0  0
  4  5  1  0  0  0  0
  4  6  1  0  0  0  0
  7  4  1  0  0  0  0
  7 12  1  0  0  0  0
  8  7  2  0  0  0  0
  9  8  1  0  0  0  0
  9 10  2  0  0  0  0
 10 11  1  0  0  0  0
 11 12  2  0  0  0  0
 11 15  1  0  0  0  0
 13  8  1  0  0  0  0
 14  9  1  0  0  0  0
 18 17  2  1  0  0  0
 18 16  1  0  0  0  0
 19 18  1  0  0  0  0
 20 19  1  0  0  0  0
 21 18  1  0  0  0  0
 22 21  1  0  0  0  0
 23 22  2  0  0  0  0
 24 23  1  0  0  0  0
 25 24  1  0  0  0  0
 26 24  2  0  0  0  0
 26 27  1  0  0  0  0
 27 28  2  0  0  0  0
 28 22  1  0  0  0  0
M  END
>  <minimizedAffinity>
-4.17773533

$$$$

 OpenBabel03262521483D

 28 29  0  0  0  0  0  0  0  0999 V2000
   35.5240   29.4460   31.8940 C   0  0  0  0  0  0  0  0  0  0  0  0
   35.0480   30.1410   31.1700 H   0  0  0  0  0  0  0  0  0  0  0  0
   35.1180   28.4290   31.6260 H   0  0  0  0  0  0  0  0  0  0  0  0
   35.2880   29.8190   33.3160 C   0  0  0  0  0  0  0  0  0  0  0  0
   35.5540   30.9100   33.4270 H   0  0  0  0  0  0  0  0  0  0  0  0
   36.0080   29.2950   34.0100 H   0  0  0  0  0  0  0  0  0  0  0  0
   33.9320   29.6150   33.7880 C   0  0  0  0  0  0  0  0  0  0  0  0
   33.5260   29.9140   35.0730 C   0  0  0  0  0  0  0  0  0  0  0  0
   32.1790   29.6810   35.4420 C   0  0  0  0  0  0  0  0  0  0  0  0
   31.3530   29.1650   34.4830 N   0  0  0  0  0  0  0  0  0  0  0  0
   31.7800   28.8770   33.2150 C   0  0  0  0  0  0  0  0  0  0  0  0
   33.0790   29.1140   32.9010 N   0  0  0  0  0  0  0  0  0  0  0  0
   34.2430   30.3190   35.7660 H   0  0  0  0  0  0  0  0  0  0  0  0
   31.8480   29.9050   36.4250 H   0  0  0  0  0  0  0  0  0  0  0  0
   31.0740   28.4680   32.5000 H   0  0  0  0  0  0  0  0  0  0  0  0
   36.8960   29.4410   31.6500 O   0  0  0  0  0  0  0  0  0  0  0  0
   38.7730   28.2000   30.3260 O   0  0  0  0  0  0  0  0  0  0  0  0
   37.3780   27.9970   30.8980 P   0  0  2  0  0  0  0  0  0  0  0  0
   36.3980   27.6330   29.5780 O   0  0  0  0  0  0  0  0  0  0  0  0
   36.3020   26.6510   29.5120 H   0  0  0  0  0  0  0  0  0  0  0  0
   37.3460   26.7190   31.9800 O   0  0  0  0  0  0  0  0  0  0  0  0
   38.0210   26.8780   33.1860 C   0  0  0  0  0  0  0  0  0  0  0  0
   37.2730   27.1580   34.3370 C   0  0  0  0  0  3  0  0  0  0  0  0
   37.8680   27.3310   35.5850 C   0  0  0  0  0  0  0  0  0  0  0  0
   37.2400   27.5420   36.4180 H   0  0  0  0  0  0  0  0  0  0  0  0
   39.2030   27.2110   35.6030 N   0  0  0  0  0  0  0  0  0  0  0  0
   39.9650   26.9440   34.5260 C   0  0  0  0  0  3  0  0  0  0  0  0
   39.3750   26.7760   33.3160 N   0  0  0  0  0  0  0  0  0  0  0  0
  1  4  1  0  0  0  0
  2  1  1  0  0  0  0
  3  1  1  0  0  0  0
  4  5  1  0  0  0  0
  4  7  1  0  0  0  0
  4  6  1  0  0  0  0
  7  8  1  0  0  0  0
  8  9  2  0  0  0  0
  8 13  1  0  0  0  0
  9 14  1  0  0  0  0
 10  9  1  0  0  0  0
 11 10  2  0  0  0  0
 12 11  1  0  0  0  0
 12  7  2  0  0  0  0
 15 11  1  0  0  0  0
 16  1  1  0  0  0  0
 18 17  2  6  0  0  0
 18 16  1  0  0  0  0
 18 21  1  0  0  0  0
 19 18  1  0  0  0  0
 20 19  1  0  0  0  0
 21 22  1  0  0  0  0
 22 28  2  0  0  0  0
 22 23  1  0  0  0  0
 23 24  2  0  0  0  0
 24 26  1  0  0  0  0
 24 25  1  0  0  0  0
 27 26  2  0  0  0  0
 28 27  1  0  0  0  0
M  END
>  <minimizedAffinity>
-4.16362572

$$$$
