
 OpenBabel03272501593D

 29 31  0  0  0  0  0  0  0  0999 V2000
   37.0210   23.7790   31.2860 C   0  0  0  0  0  0  0  0  0  0  0  0
   37.7480   22.9570   31.0330 H   0  0  0  0  0  0  0  0  0  0  0  0
   37.0660   24.6300   30.6060 H   0  0  0  0  0  0  0  0  0  0  0  0
   37.4090   24.2580   32.6530 C   0  0  0  0  0  0  0  0  0  0  0  0
   37.4380   25.5570   33.1010 C   0  0  0  0  0  0  0  0  0  0  0  0
   37.8470   25.6080   34.4190 C   0  0  0  0  0  0  0  0  0  0  0  0
   38.0600   24.3070   34.7380 N   0  0  0  0  0  0  0  0  0  0  0  0
   37.8030   23.5080   33.6960 N   0  0  0  0  0  0  0  0  0  0  0  0
   37.1670   26.4230   32.4790 H   0  0  0  0  0  0  0  0  0  0  0  0
   37.9700   26.4690   35.0460 H   0  0  0  0  0  0  0  0  0  0  0  0
   38.5030   23.8740   36.0250 C   0  0  0  0  0  0  0  0  0  0  0  0
   39.6150   23.1390   36.3590 C   0  0  0  0  0  3  0  0  0  0  0  0
   39.8340   22.8400   37.6940 C   0  0  0  0  0  0  0  0  0  0  0  0
   40.7310   22.2570   37.8830 H   0  0  0  0  0  0  0  0  0  0  0  0
   38.9780   23.2610   38.6240 N   0  0  0  0  0  0  0  0  0  0  0  0
   37.8720   23.9880   38.3200 C   0  0  0  0  0  3  0  0  0  0  0  0
   37.6660   24.2730   37.0280 N   0  0  0  0  0  0  0  0  0  0  0  0
   35.6430   23.1810   31.4420 C   0  0  0  0  0  0  0  0  0  0  0  0
   34.9830   23.5100   30.5890 H   0  0  0  0  0  0  0  0  0  0  0  0
   35.1510   23.4960   32.3800 H   0  0  0  0  0  0  0  0  0  0  0  0
   34.9400   19.6320   32.1620 C   0  0  0  0  0  0  0  0  0  0  0  0
   35.9860   18.9650   31.4750 C   0  0  0  0  0  0  0  0  0  0  0  0
   36.9190   19.7610   30.7730 C   0  0  0  0  0  0  0  0  0  0  0  0
   36.7760   21.1190   30.7860 N   0  0  0  0  0  0  0  0  0  0  0  0
   35.7470   21.6900   31.4670 C   0  0  0  0  0  0  0  0  0  0  0  0
   34.8600   20.9690   32.1310 N   0  0  0  0  0  0  0  0  0  0  0  0
   34.1950   19.0790   32.7170 H   0  0  0  0  0  0  0  0  0  0  0  0
   36.0400   17.8840   31.5070 H   0  0  0  0  0  0  0  0  0  0  0  0
   37.7060   19.2550   30.2570 H   0  0  0  0  0  0  0  0  0  0  0  0
  1 18  1  0  0  0  0
  1  4  1  0  0  0  0
  2  1  1  0  0  0  0
  3  1  1  0  0  0  0
  4  5  1  0  0  0  0
  4  8  2  0  0  0  0
  5  6  2  0  0  0  0
  6  7  1  0  0  0  0
  6 10  1  0  0  0  0
  7 11  1  0  0  0  0
  8  7  1  0  0  0  0
  9  5  1  0  0  0  0
 11 12  2  0  0  0  0
 11 17  1  0  0  0  0
 12 13  1  0  0  0  0
 13 14  1  0  0  0  0
 13 15  2  0  0  0  0
 16 15  1  0  0  0  0
 17 16  2  0  0  0  0
 18 25  1  0  0  0  0
 18 20  1  0  0  0  0
 19 18  1  0  0  0  0
 21 27  1  0  0  0  0
 22 28  1  0  0  0  0
 22 21  2  0  0  0  0
 23 24  2  0  0  0  0
 23 22  1  0  0  0  0
 24 25  1  0  0  0  0
 25 26  2  0  0  0  0
 26 21  1  0  0  0  0
 29 23  1  0  0  0  0
M  END
>  <minimizedAffinity>
-4.87790394

$$$$

 OpenBabel03272501593D

 29 31  0  0  0  0  0  0  0  0999 V2000
   36.4370   28.2890   33.6380 C   0  0  0  0  0  0  0  0  0  0  0  0
   37.3010   28.9790   33.4330 H   0  0  0  0  0  0  0  0  0  0  0  0
   35.8120   28.6020   34.4740 H   0  0  0  0  0  0  0  0  0  0  0  0
   37.0480   26.9650   33.9880 C   0  0  0  0  0  0  0  0  0  0  0  0
   37.3590   25.9390   33.1290 C   0  0  0  0  0  0  0  0  0  0  0  0
   37.9080   24.8750   33.8180 C   0  0  0  0  0  0  0  0  0  0  0  0
   37.9130   25.2990   35.1070 N   0  0  0  0  0  0  0  0  0  0  0  0
   37.4040   26.5320   35.2100 N   0  0  0  0  0  0  0  0  0  0  0  0
   37.1870   25.9800   32.0430 H   0  0  0  0  0  0  0  0  0  0  0  0
   38.2510   23.9360   33.4320 H   0  0  0  0  0  0  0  0  0  0  0  0
   38.4010   24.5100   36.1930 C   0  0  0  0  0  0  0  0  0  0  0  0
   37.9100   24.3940   37.4710 C   0  0  0  0  0  3  0  0  0  0  0  0
   38.5650   23.5550   38.3570 C   0  0  0  0  0  0  0  0  0  0  0  0
   38.1220   23.5120   39.3480 H   0  0  0  0  0  0  0  0  0  0  0  0
   39.6460   22.8800   37.9680 N   0  0  0  0  0  0  0  0  0  0  0  0
   40.1510   22.9770   36.7110 C   0  0  0  0  0  3  0  0  0  0  0  0
   39.5130   23.7910   35.8590 N   0  0  0  0  0  0  0  0  0  0  0  0
   35.6810   28.0580   32.3500 C   0  0  0  0  0  0  0  0  0  0  0  0
   34.6010   28.3550   32.4820 H   0  0  0  0  0  0  0  0  0  0  0  0
   35.6960   26.9990   32.0370 H   0  0  0  0  0  0  0  0  0  0  0  0
   36.9370   30.9090   30.3750 C   0  0  0  0  0  0  0  0  0  0  0  0
   37.4620   30.2760   29.2200 C   0  0  0  0  0  0  0  0  0  0  0  0
   37.3700   28.8680   29.1470 C   0  0  0  0  0  0  0  0  0  0  0  0
   36.7880   28.1860   30.1770 N   0  0  0  0  0  0  0  0  0  0  0  0
   36.3060   28.8600   31.2550 C   0  0  0  0  0  0  0  0  0  0  0  0
   36.3800   30.1770   31.3490 N   0  0  0  0  0  0  0  0  0  0  0  0
   36.9780   31.9830   30.4910 H   0  0  0  0  0  0  0  0  0  0  0  0
   37.9100   30.8790   28.4400 H   0  0  0  0  0  0  0  0  0  0  0  0
   37.7650   28.3940   28.2740 H   0  0  0  0  0  0  0  0  0  0  0  0
  1  4  1  0  0  0  0
  1  3  1  0  0  0  0
  2  1  1  0  0  0  0
  4  8  2  0  0  0  0
  5  6  2  0  0  0  0
  5  4  1  0  0  0  0
  6  7  1  0  0  0  0
  7  8  1  0  0  0  0
  7 11  1  0  0  0  0
  9  5  1  0  0  0  0
 10  6  1  0  0  0  0
 11 12  1  0  0  0  0
 12 13  2  0  0  0  0
 13 14  1  0  0  0  0
 15 13  1  0  0  0  0
 16 15  2  0  0  0  0
 17 11  2  0  0  0  0
 17 16  1  0  0  0  0
 18 19  1  0  0  0  0
 18  1  1  0  0  0  0
 20 18  1  0  0  0  0
 21 27  1  0  0  0  0
 21 26  1  0  0  0  0
 22 21  2  0  0  0  0
 23 22  1  0  0  0  0
 23 24  2  0  0  0  0
 24 25  1  0  0  0  0
 25 26  2  0  0  0  0
 25 18  1  0  0  0  0
 28 22  1  0  0  0  0
 29 23  1  0  0  0  0
M  END
>  <minimizedAffinity>
-4.70012617

$$$$

 OpenBabel03272501593D

 29 31  0  0  0  0  0  0  0  0999 V2000
   38.6210   26.7600   35.3250 C   0  0  0  0  0  0  0  0  0  0  0  0
   38.5600   27.6130   36.0560 H   0  0  0  0  0  0  0  0  0  0  0  0
   39.6400   26.4340   35.1150 H   0  0  0  0  0  0  0  0  0  0  0  0
   38.0290   27.2740   34.0480 C   0  0  0  0  0  0  0  0  0  0  0  0
   36.7610   27.7700   33.8590 C   0  0  0  0  0  0  0  0  0  0  0  0
   36.5760   28.1480   32.5440 C   0  0  0  0  0  0  0  0  0  0  0  0
   37.7670   27.8630   31.9600 N   0  0  0  0  0  0  0  0  0  0  0  0
   38.6260   27.3460   32.8460 N   0  0  0  0  0  0  0  0  0  0  0  0
   36.0110   27.8470   34.6610 H   0  0  0  0  0  0  0  0  0  0  0  0
   35.7020   28.5680   32.0880 H   0  0  0  0  0  0  0  0  0  0  0  0
   38.0400   28.0930   30.5760 C   0  0  0  0  0  0  0  0  0  0  0  0
   37.4410   28.9750   29.7100 C   0  0  0  0  0  3  0  0  0  0  0  0
   37.8850   29.0160   28.3980 C   0  0  0  0  0  0  0  0  0  0  0  0
   37.3670   29.7360   27.7700 H   0  0  0  0  0  0  0  0  0  0  0  0
   38.8710   28.2140   27.9970 N   0  0  0  0  0  0  0  0  0  0  0  0
   39.4770   27.3340   28.8350 C   0  0  0  0  0  3  0  0  0  0  0  0
   39.0440   27.2990   30.1020 N   0  0  0  0  0  0  0  0  0  0  0  0
   37.6990   25.6560   35.7850 C   0  0  0  0  0  0  0  0  0  0  0  0
   37.1630   25.2090   34.8980 H   0  0  0  0  0  0  0  0  0  0  0  0
   36.9270   26.0170   36.4870 H   0  0  0  0  0  0  0  0  0  0  0  0
   38.8520   23.2670   38.3480 C   0  0  0  0  0  0  0  0  0  0  0  0
   39.9820   22.6740   37.7310 C   0  0  0  0  0  0  0  0  0  0  0  0
   40.3250   23.1150   36.4330 C   0  0  0  0  0  0  0  0  0  0  0  0
   39.5640   24.0800   35.8360 N   0  0  0  0  0  0  0  0  0  0  0  0
   38.4920   24.6040   36.4900 C   0  0  0  0  0  0  0  0  0  0  0  0
   38.1500   24.2090   37.7040 N   0  0  0  0  0  0  0  0  0  0  0  0
   38.5390   22.9730   39.3400 H   0  0  0  0  0  0  0  0  0  0  0  0
   40.5410   21.9140   38.2610 H   0  0  0  0  0  0  0  0  0  0  0  0
   41.1770   22.6660   35.9700 H   0  0  0  0  0  0  0  0  0  0  0  0
  1 18  1  0  0  0  0
  1  2  1  0  0  0  0
  3  1  1  0  0  0  0
  4  1  1  0  0  0  0
  5  4  1  0  0  0  0
  5  9  1  0  0  0  0
  6  5  2  0  0  0  0
  7  6  1  0  0  0  0
  7  8  1  0  0  0  0
  8  4  2  0  0  0  0
 10  6  1  0  0  0  0
 11  7  1  0  0  0  0
 12 11  2  0  0  0  0
 13 12  1  0  0  0  0
 14 13  1  0  0  0  0
 15 13  2  0  0  0  0
 15 16  1  0  0  0  0
 16 17  2  0  0  0  0
 17 11  1  0  0  0  0
 18 20  1  0  0  0  0
 18 25  1  0  0  0  0
 19 18  1  0  0  0  0
 21 27  1  0  0  0  0
 22 28  1  0  0  0  0
 22 21  1  0  0  0  0
 23 22  2  0  0  0  0
 24 23  1  0  0  0  0
 24 25  2  0  0  0  0
 25 26  1  0  0  0  0
 26 21  2  0  0  0  0
 29 23  1  0  0  0  0
M  END
>  <minimizedAffinity>
-4.67270422

$$$$

 OpenBabel03272501593D

 29 31  0  0  0  0  0  0  0  0999 V2000
   37.5600   26.0830   35.4020 C   0  0  0  0  0  0  0  0  0  0  0  0
   37.7940   26.9960   36.0160 H   0  0  0  0  0  0  0  0  0  0  0  0
   36.4950   25.8530   35.3450 H   0  0  0  0  0  0  0  0  0  0  0  0
   38.2420   24.9410   36.0940 C   0  0  0  0  0  0  0  0  0  0  0  0
   37.9150   24.3890   37.3090 C   0  0  0  0  0  0  0  0  0  0  0  0
   38.7720   23.3510   37.6190 C   0  0  0  0  0  0  0  0  0  0  0  0
   39.6140   23.3050   36.5570 N   0  0  0  0  0  0  0  0  0  0  0  0
   39.3040   24.2430   35.6550 N   0  0  0  0  0  0  0  0  0  0  0  0
   37.0790   24.7400   37.9320 H   0  0  0  0  0  0  0  0  0  0  0  0
   38.7750   22.7270   38.4910 H   0  0  0  0  0  0  0  0  0  0  0  0
   40.6860   22.3670   36.4420 C   0  0  0  0  0  0  0  0  0  0  0  0
   41.3320   21.6630   37.4300 C   0  0  0  0  0  3  0  0  0  0  0  0
   42.3540   20.8010   37.0680 C   0  0  0  0  0  0  0  0  0  0  0  0
   42.8190   20.2790   37.8990 H   0  0  0  0  0  0  0  0  0  0  0  0
   42.6940   20.6660   35.7860 N   0  0  0  0  0  0  0  0  0  0  0  0
   42.0720   21.3500   34.7920 C   0  0  0  0  0  3  0  0  0  0  0  0
   41.0840   22.1820   35.1500 N   0  0  0  0  0  0  0  0  0  0  0  0
   38.2400   26.2090   34.0600 C   0  0  0  0  0  0  0  0  0  0  0  0
   39.1340   25.5220   34.0160 H   0  0  0  0  0  0  0  0  0  0  0  0
   38.6040   27.2340   33.8670 H   0  0  0  0  0  0  0  0  0  0  0  0
   35.7230   26.5180   31.3820 C   0  0  0  0  0  0  0  0  0  0  0  0
   35.5140   25.1690   30.9980 C   0  0  0  0  0  0  0  0  0  0  0  0
   36.2520   24.1740   31.6770 C   0  0  0  0  0  0  0  0  0  0  0  0
   37.1220   24.5480   32.6600 N   0  0  0  0  0  0  0  0  0  0  0  0
   37.2720   25.8630   32.9750 C   0  0  0  0  0  0  0  0  0  0  0  0
   36.5940   26.8130   32.3550 N   0  0  0  0  0  0  0  0  0  0  0  0
   35.1880   27.3240   30.9000 H   0  0  0  0  0  0  0  0  0  0  0  0
   34.8070   24.9430   30.2090 H   0  0  0  0  0  0  0  0  0  0  0  0
   36.0920   23.1580   31.3860 H   0  0  0  0  0  0  0  0  0  0  0  0
  1  2  1  0  0  0  0
  1  4  1  0  0  0  0
  3  1  1  0  0  0  0
  4  5  1  0  0  0  0
  5  6  2  0  0  0  0
  5  9  1  0  0  0  0
  6 10  1  0  0  0  0
  7  6  1  0  0  0  0
  8  4  2  0  0  0  0
  8  7  1  0  0  0  0
 11  7  1  0  0  0  0
 11 12  1  0  0  0  0
 13 12  2  0  0  0  0
 13 14  1  0  0  0  0
 15 13  1  0  0  0  0
 16 17  1  0  0  0  0
 16 15  2  0  0  0  0
 17 11  2  0  0  0  0
 18  1  1  0  0  0  0
 19 18  1  0  0  0  0
 20 18  1  0  0  0  0
 21 26  1  0  0  0  0
 22 21  2  0  0  0  0
 22 23  1  0  0  0  0
 23 24  2  0  0  0  0
 24 25  1  0  0  0  0
 25 18  1  0  0  0  0
 26 25  2  0  0  0  0
 27 21  1  0  0  0  0
 28 22  1  0  0  0  0
 29 23  1  0  0  0  0
M  END
>  <minimizedAffinity>
-4.64069891

$$$$

 OpenBabel03272501593D

 29 31  0  0  0  0  0  0  0  0999 V2000
   36.2520   26.6660   31.5290 C   0  0  0  0  0  0  0  0  0  0  0  0
   35.7440   26.6920   32.5330 H   0  0  0  0  0  0  0  0  0  0  0  0
   35.6200   27.0010   30.7070 H   0  0  0  0  0  0  0  0  0  0  0  0
   36.6020   25.2280   31.2880 C   0  0  0  0  0  0  0  0  0  0  0  0
   37.7330   24.7370   30.6810 C   0  0  0  0  0  0  0  0  0  0  0  0
   37.7030   23.3570   30.6380 C   0  0  0  0  0  0  0  0  0  0  0  0
   36.5250   23.0450   31.2340 N   0  0  0  0  0  0  0  0  0  0  0  0
   35.8720   24.1480   31.6180 N   0  0  0  0  0  0  0  0  0  0  0  0
   38.5400   25.3740   30.2900 H   0  0  0  0  0  0  0  0  0  0  0  0
   38.4330   22.6870   30.2310 H   0  0  0  0  0  0  0  0  0  0  0  0
   36.0650   21.7040   31.4140 C   0  0  0  0  0  0  0  0  0  0  0  0
   35.0220   21.2400   32.1780 C   0  0  0  0  0  3  0  0  0  0  0  0
   34.7680   19.8780   32.1930 C   0  0  0  0  0  0  0  0  0  0  0  0
   33.9290   19.5840   32.8180 H   0  0  0  0  0  0  0  0  0  0  0  0
   35.5240   19.0470   31.4770 N   0  0  0  0  0  0  0  0  0  0  0  0
   36.5600   19.4810   30.7150 C   0  0  0  0  0  3  0  0  0  0  0  0
   36.8020   20.7990   30.7050 N   0  0  0  0  0  0  0  0  0  0  0  0
   37.5730   27.3920   31.6320 C   0  0  0  0  0  0  0  0  0  0  0  0
   37.4450   28.4680   31.3210 H   0  0  0  0  0  0  0  0  0  0  0  0
   38.3480   26.9510   30.9800 H   0  0  0  0  0  0  0  0  0  0  0  0
   39.7990   26.9450   34.5390 C   0  0  0  0  0  0  0  0  0  0  0  0
   38.9340   27.2010   35.6320 C   0  0  0  0  0  0  0  0  0  0  0  0
   37.5900   27.5250   35.3410 C   0  0  0  0  0  0  0  0  0  0  0  0
   37.1870   27.5770   34.0370 N   0  0  0  0  0  0  0  0  0  0  0  0
   38.0740   27.3190   33.0380 C   0  0  0  0  0  0  0  0  0  0  0  0
   39.3360   27.0140   33.2840 N   0  0  0  0  0  0  0  0  0  0  0  0
   40.8380   26.6920   34.6980 H   0  0  0  0  0  0  0  0  0  0  0  0
   39.3200   27.1430   36.6430 H   0  0  0  0  0  0  0  0  0  0  0  0
   36.9400   27.7180   36.1670 H   0  0  0  0  0  0  0  0  0  0  0  0
  1 18  1  0  0  0  0
  1  2  1  0  0  0  0
  3  1  1  0  0  0  0
  4  1  1  0  0  0  0
  4  8  2  0  0  0  0
  5  4  1  0  0  0  0
  6  5  2  0  0  0  0
  6  7  1  0  0  0  0
  7 11  1  0  0  0  0
  7  8  1  0  0  0  0
  9  5  1  0  0  0  0
 10  6  1  0  0  0  0
 11 12  1  0  0  0  0
 12 13  2  0  0  0  0
 13 14  1  0  0  0  0
 15 13  1  0  0  0  0
 16 15  2  0  0  0  0
 17 16  1  0  0  0  0
 17 11  2  0  0  0  0
 18 25  1  0  0  0  0
 19 18  1  0  0  0  0
 20 18  1  0  0  0  0
 21 27  1  0  0  0  0
 21 22  1  0  0  0  0
 22 28  1  0  0  0  0
 23 22  2  0  0  0  0
 23 29  1  0  0  0  0
 24 23  1  0  0  0  0
 25 26  1  0  0  0  0
 25 24  2  0  0  0  0
 26 21  2  0  0  0  0
M  END
>  <minimizedAffinity>
-4.62579489

$$$$

 OpenBabel03272501593D

 29 31  0  0  0  0  0  0  0  0999 V2000
   37.9360   26.3220   33.5010 C   0  0  0  0  0  0  0  0  0  0  0  0
   38.4750   26.3520   32.5140 H   0  0  0  0  0  0  0  0  0  0  0  0
   37.3140   25.4360   33.6360 H   0  0  0  0  0  0  0  0  0  0  0  0
   37.0370   27.5220   33.5110 C   0  0  0  0  0  0  0  0  0  0  0  0
   36.3770   28.0760   32.4410 C   0  0  0  0  0  0  0  0  0  0  0  0
   35.6420   29.1760   32.8390 C   0  0  0  0  0  0  0  0  0  0  0  0
   35.8860   29.2580   34.1710 N   0  0  0  0  0  0  0  0  0  0  0  0
   36.7100   28.2830   34.5700 N   0  0  0  0  0  0  0  0  0  0  0  0
   36.4380   27.6810   31.4170 H   0  0  0  0  0  0  0  0  0  0  0  0
   35.0250   29.8160   32.2410 H   0  0  0  0  0  0  0  0  0  0  0  0
   35.3240   30.2660   35.0130 C   0  0  0  0  0  0  0  0  0  0  0  0
   35.9620   31.2190   35.7700 C   0  0  0  0  0  3  0  0  0  0  0  0
   35.1910   32.0970   36.5140 C   0  0  0  0  0  0  0  0  0  0  0  0
   35.7610   32.8220   37.0870 H   0  0  0  0  0  0  0  0  0  0  0  0
   33.8610   32.0110   36.4870 N   0  0  0  0  0  0  0  0  0  0  0  0
   33.2080   31.0790   35.7470 C   0  0  0  0  0  3  0  0  0  0  0  0
   33.9590   30.2320   35.0300 N   0  0  0  0  0  0  0  0  0  0  0  0
   38.9350   26.5540   34.6100 C   0  0  0  0  0  0  0  0  0  0  0  0
   38.6600   27.4840   35.1860 H   0  0  0  0  0  0  0  0  0  0  0  0
   39.9620   26.6940   34.2290 H   0  0  0  0  0  0  0  0  0  0  0  0
   39.9310   23.3940   36.2310 C   0  0  0  0  0  0  0  0  0  0  0  0
   38.9300   23.2250   37.2200 C   0  0  0  0  0  0  0  0  0  0  0  0
   37.9240   24.2140   37.3070 C   0  0  0  0  0  0  0  0  0  0  0  0
   37.9580   25.2740   36.4470 N   0  0  0  0  0  0  0  0  0  0  0  0
   38.9510   25.3700   35.5220 C   0  0  0  0  0  0  0  0  0  0  0  0
   39.9040   24.4600   35.4200 N   0  0  0  0  0  0  0  0  0  0  0  0
   40.7270   22.6720   36.1150 H   0  0  0  0  0  0  0  0  0  0  0  0
   38.9620   22.3600   37.8700 H   0  0  0  0  0  0  0  0  0  0  0  0
   37.1690   24.0840   38.0530 H   0  0  0  0  0  0  0  0  0  0  0  0
  1  4  1  0  0  0  0
  1  3  1  0  0  0  0
  1 18  1  0  0  0  0
  2  1  1  0  0  0  0
  4  8  2  0  0  0  0
  5  6  2  0  0  0  0
  5  4  1  0  0  0  0
  6  7  1  0  0  0  0
  7  8  1  0  0  0  0
  7 11  1  0  0  0  0
  9  5  1  0  0  0  0
 10  6  1  0  0  0  0
 11 17  2  0  0  0  0
 11 12  1  0  0  0  0
 12 13  2  0  0  0  0
 13 14  1  0  0  0  0
 15 13  1  0  0  0  0
 16 15  2  0  0  0  0
 17 16  1  0  0  0  0
 18 19  1  0  0  0  0
 18 25  1  0  0  0  0
 20 18  1  0  0  0  0
 21 22  1  0  0  0  0
 22 23  2  0  0  0  0
 22 28  1  0  0  0  0
 23 29  1  0  0  0  0
 24 23  1  0  0  0  0
 25 24  2  0  0  0  0
 26 25  1  0  0  0  0
 26 21  2  0  0  0  0
 27 21  1  0  0  0  0
M  END
>  <minimizedAffinity>
-4.62427902

$$$$

 OpenBabel03272501593D

 29 31  0  0  0  0  0  0  0  0999 V2000
   37.2320   27.8330   32.7220 C   0  0  0  0  0  0  0  0  0  0  0  0
   37.5820   28.9020   32.7720 H   0  0  0  0  0  0  0  0  0  0  0  0
   36.2170   27.6850   33.0900 H   0  0  0  0  0  0  0  0  0  0  0  0
   38.1620   27.0590   33.6070 C   0  0  0  0  0  0  0  0  0  0  0  0
   39.5350   27.1190   33.6260 C   0  0  0  0  0  0  0  0  0  0  0  0
   40.0470   26.2590   34.5780 C   0  0  0  0  0  0  0  0  0  0  0  0
   38.9420   25.6890   35.1200 N   0  0  0  0  0  0  0  0  0  0  0  0
   37.8280   26.1590   34.5480 N   0  0  0  0  0  0  0  0  0  0  0  0
   40.1260   27.7710   32.9660 H   0  0  0  0  0  0  0  0  0  0  0  0
   41.0730   26.0810   34.8320 H   0  0  0  0  0  0  0  0  0  0  0  0
   38.9910   24.7140   36.1640 C   0  0  0  0  0  0  0  0  0  0  0  0
   39.7880   23.6000   36.2740 C   0  0  0  0  0  3  0  0  0  0  0  0
   39.6500   22.7970   37.3940 C   0  0  0  0  0  0  0  0  0  0  0  0
   40.3100   21.9360   37.4140 H   0  0  0  0  0  0  0  0  0  0  0  0
   38.7610   23.1090   38.3380 N   0  0  0  0  0  0  0  0  0  0  0  0
   37.9630   24.2040   38.2520 C   0  0  0  0  0  3  0  0  0  0  0  0
   38.1010   24.9760   37.1660 N   0  0  0  0  0  0  0  0  0  0  0  0
   37.4690   27.3060   31.3260 C   0  0  0  0  0  0  0  0  0  0  0  0
   38.5750   27.2940   31.1030 H   0  0  0  0  0  0  0  0  0  0  0  0
   36.9840   27.9290   30.5530 H   0  0  0  0  0  0  0  0  0  0  0  0
   35.0960   24.4830   31.2970 C   0  0  0  0  0  0  0  0  0  0  0  0
   35.9320   23.3810   30.9890 C   0  0  0  0  0  0  0  0  0  0  0  0
   37.3080   23.6370   30.7970 C   0  0  0  0  0  0  0  0  0  0  0  0
   37.7680   24.9170   30.9140 N   0  0  0  0  0  0  0  0  0  0  0  0
   36.9060   25.9270   31.2120 C   0  0  0  0  0  0  0  0  0  0  0  0
   35.6150   25.7140   31.3960 N   0  0  0  0  0  0  0  0  0  0  0  0
   34.0350   24.3510   31.4550 H   0  0  0  0  0  0  0  0  0  0  0  0
   35.5010   22.3900   30.9110 H   0  0  0  0  0  0  0  0  0  0  0  0
   37.9360   22.8040   30.5650 H   0  0  0  0  0  0  0  0  0  0  0  0
  1  2  1  0  0  0  0
  1  3  1  0  0  0  0
  1  4  1  0  0  0  0
  4  5  1  0  0  0  0
  4  8  2  0  0  0  0
  5  6  2  0  0  0  0
  6 10  1  0  0  0  0
  6  7  1  0  0  0  0
  7 11  1  0  0  0  0
  8  7  1  0  0  0  0
  9  5  1  0  0  0  0
 11 12  2  0  0  0  0
 11 17  1  0  0  0  0
 12 13  1  0  0  0  0
 13 14  1  0  0  0  0
 13 15  2  0  0  0  0
 16 15  1  0  0  0  0
 17 16  2  0  0  0  0
 18  1  1  0  0  0  0
 19 18  1  0  0  0  0
 20 18  1  0  0  0  0
 21 26  1  0  0  0  0
 21 27  1  0  0  0  0
 22 21  2  0  0  0  0
 23 24  2  0  0  0  0
 23 22  1  0  0  0  0
 24 25  1  0  0  0  0
 25 18  1  0  0  0  0
 25 26  2  0  0  0  0
 28 22  1  0  0  0  0
 29 23  1  0  0  0  0
M  END
>  <minimizedAffinity>
-4.61344242

$$$$

 OpenBabel03272501593D

 29 31  0  0  0  0  0  0  0  0999 V2000
   38.3010   26.7220   35.6650 C   0  0  0  0  0  0  0  0  0  0  0  0
   37.9970   27.3870   36.5210 H   0  0  0  0  0  0  0  0  0  0  0  0
   39.3800   26.6560   35.5210 H   0  0  0  0  0  0  0  0  0  0  0  0
   37.7090   27.3450   34.4360 C   0  0  0  0  0  0  0  0  0  0  0  0
   38.1600   27.2270   33.1440 C   0  0  0  0  0  0  0  0  0  0  0  0
   37.3550   27.9430   32.2790 C   0  0  0  0  0  0  0  0  0  0  0  0
   36.4180   28.4880   33.0940 N   0  0  0  0  0  0  0  0  0  0  0  0
   36.6250   28.1370   34.3690 N   0  0  0  0  0  0  0  0  0  0  0  0
   39.0430   26.6360   32.8580 H   0  0  0  0  0  0  0  0  0  0  0  0
   37.4460   28.0470   31.2170 H   0  0  0  0  0  0  0  0  0  0  0  0
   35.3590   29.3260   32.6260 C   0  0  0  0  0  0  0  0  0  0  0  0
   35.3200   30.1360   31.5170 C   0  0  0  0  0  3  0  0  0  0  0  0
   34.1670   30.8620   31.2690 C   0  0  0  0  0  0  0  0  0  0  0  0
   34.2070   31.4800   30.3770 H   0  0  0  0  0  0  0  0  0  0  0  0
   33.1240   30.7670   32.0940 N   0  0  0  0  0  0  0  0  0  0  0  0
   33.1380   29.9740   33.1960 C   0  0  0  0  0  3  0  0  0  0  0  0
   34.2570   29.2750   33.4310 N   0  0  0  0  0  0  0  0  0  0  0  0
   37.6120   25.3860   35.8150 C   0  0  0  0  0  0  0  0  0  0  0  0
   37.3020   24.9990   34.8020 H   0  0  0  0  0  0  0  0  0  0  0  0
   36.7010   25.4500   36.4370 H   0  0  0  0  0  0  0  0  0  0  0  0
   39.1470   23.1550   38.3200 C   0  0  0  0  0  0  0  0  0  0  0  0
   40.2720   22.6430   37.6280 C   0  0  0  0  0  0  0  0  0  0  0  0
   40.4800   23.0820   36.3010 C   0  0  0  0  0  0  0  0  0  0  0  0
   39.6000   23.9690   35.7500 N   0  0  0  0  0  0  0  0  0  0  0  0
   38.5400   24.4180   36.4740 C   0  0  0  0  0  0  0  0  0  0  0  0
   38.3230   24.0230   37.7160 N   0  0  0  0  0  0  0  0  0  0  0  0
   38.9340   22.8580   39.3370 H   0  0  0  0  0  0  0  0  0  0  0  0
   40.9310   21.9430   38.1260 H   0  0  0  0  0  0  0  0  0  0  0  0
   41.3310   22.6950   35.7820 H   0  0  0  0  0  0  0  0  0  0  0  0
  1 18  1  0  0  0  0
  1  2  1  0  0  0  0
  3  1  1  0  0  0  0
  4  1  1  0  0  0  0
  5  4  1  0  0  0  0
  6  7  1  0  0  0  0
  6  5  2  0  0  0  0
  7  8  1  0  0  0  0
  8  4  2  0  0  0  0
  9  5  1  0  0  0  0
 10  6  1  0  0  0  0
 11  7  1  0  0  0  0
 11 17  1  0  0  0  0
 12 11  2  0  0  0  0
 13 12  1  0  0  0  0
 13 15  2  0  0  0  0
 14 13  1  0  0  0  0
 15 16  1  0  0  0  0
 16 17  2  0  0  0  0
 18 20  1  0  0  0  0
 18 25  1  0  0  0  0
 19 18  1  0  0  0  0
 21 27  1  0  0  0  0
 22 28  1  0  0  0  0
 22 21  2  0  0  0  0
 23 22  1  0  0  0  0
 24 23  2  0  0  0  0
 24 25  1  0  0  0  0
 25 26  2  0  0  0  0
 26 21  1  0  0  0  0
 29 23  1  0  0  0  0
M  END
>  <minimizedAffinity>
-4.57266092

$$$$

 OpenBabel03272501593D

 29 31  0  0  0  0  0  0  0  0999 V2000
   38.0960   24.4990   36.7750 C   0  0  0  0  0  0  0  0  0  0  0  0
   36.9890   24.3230   36.8800 H   0  0  0  0  0  0  0  0  0  0  0  0
   38.5660   24.8920   37.6770 H   0  0  0  0  0  0  0  0  0  0  0  0
   38.2440   25.5250   35.6930 C   0  0  0  0  0  0  0  0  0  0  0  0
   39.4140   26.0580   35.2070 C   0  0  0  0  0  0  0  0  0  0  0  0
   39.1530   26.9770   34.2090 C   0  0  0  0  0  0  0  0  0  0  0  0
   37.8000   26.9740   34.1190 N   0  0  0  0  0  0  0  0  0  0  0  0
   37.2610   26.1180   34.9940 N   0  0  0  0  0  0  0  0  0  0  0  0
   40.4110   25.7770   35.5760 H   0  0  0  0  0  0  0  0  0  0  0  0
   39.8510   27.5580   33.6400 H   0  0  0  0  0  0  0  0  0  0  0  0
   37.0710   27.7900   33.2000 C   0  0  0  0  0  0  0  0  0  0  0  0
   35.9960   28.6130   33.4350 C   0  0  0  0  0  3  0  0  0  0  0  0
   35.4530   29.3110   32.3680 C   0  0  0  0  0  0  0  0  0  0  0  0
   34.6080   29.9420   32.6270 H   0  0  0  0  0  0  0  0  0  0  0  0
   35.9710   29.1800   31.1470 N   0  0  0  0  0  0  0  0  0  0  0  0
   37.0310   28.3730   30.8900 C   0  0  0  0  0  3  0  0  0  0  0  0
   37.5520   27.7000   31.9250 N   0  0  0  0  0  0  0  0  0  0  0  0
   38.7410   23.2440   36.2360 C   0  0  0  0  0  0  0  0  0  0  0  0
   39.2820   22.7040   37.0650 H   0  0  0  0  0  0  0  0  0  0  0  0
   39.4800   23.4580   35.4440 H   0  0  0  0  0  0  0  0  0  0  0  0
   36.7570   21.3030   33.8060 C   0  0  0  0  0  0  0  0  0  0  0  0
   35.7460   20.7320   34.6190 C   0  0  0  0  0  0  0  0  0  0  0  0
   35.7710   21.0310   36.0000 C   0  0  0  0  0  0  0  0  0  0  0  0
   36.7530   21.8460   36.4850 N   0  0  0  0  0  0  0  0  0  0  0  0
   37.6910   22.3590   35.6450 C   0  0  0  0  0  0  0  0  0  0  0  0
   37.6910   22.0940   34.3500 N   0  0  0  0  0  0  0  0  0  0  0  0
   36.7920   21.1110   32.7430 H   0  0  0  0  0  0  0  0  0  0  0  0
   34.9970   20.0930   34.1680 H   0  0  0  0  0  0  0  0  0  0  0  0
   35.0070   20.5990   36.6110 H   0  0  0  0  0  0  0  0  0  0  0  0
  1  2  1  0  0  0  0
  1  3  1  0  0  0  0
  4  1  1  0  0  0  0
  5  9  1  0  0  0  0
  5  4  1  0  0  0  0
  6  5  2  0  0  0  0
  7  6  1  0  0  0  0
  7  8  1  0  0  0  0
  8  4  2  0  0  0  0
 10  6  1  0  0  0  0
 11 12  1  0  0  0  0
 11  7  1  0  0  0  0
 13 14  1  0  0  0  0
 13 12  2  0  0  0  0
 15 13  1  0  0  0  0
 16 15  2  0  0  0  0
 16 17  1  0  0  0  0
 17 11  2  0  0  0  0
 18  1  1  0  0  0  0
 18 19  1  0  0  0  0
 20 18  1  0  0  0  0
 21 26  2  0  0  0  0
 21 22  1  0  0  0  0
 22 23  2  0  0  0  0
 23 24  1  0  0  0  0
 23 29  1  0  0  0  0
 25 18  1  0  0  0  0
 25 24  2  0  0  0  0
 26 25  1  0  0  0  0
 27 21  1  0  0  0  0
 28 22  1  0  0  0  0
M  END
>  <minimizedAffinity>
-4.54167175

$$$$
