
 OpenBabel03272507163D

 24 26  0  0  1  0  0  0  0  0999 V2000
   36.9060   30.9310   50.5560 C   0  0  1  0  0  0  0  0  0  0  0  0
   36.1660   29.6910   50.4900 C   0  0  2  0  0  0  0  0  0  0  0  0
   37.4970   29.6760   51.2000 C   0  0  0  0  0  0  0  0  0  0  0  0
   36.6850   31.7650   51.2730 H   0  0  0  0  0  0  0  0  0  0  0  0
   35.2430   29.5950   51.0970 H   0  0  0  0  0  0  0  0  0  0  0  0
   37.4180   29.6610   52.3020 H   0  0  0  0  0  0  0  0  0  0  0  0
   38.3680   29.2060   50.7510 H   0  0  0  0  0  0  0  0  0  0  0  0
   37.7270   31.4210   49.3870 C   0  0  0  0  0  0  0  0  0  0  0  0
   38.2190   32.7240   49.4780 C   0  0  0  0  0  0  0  0  0  0  0  0
   38.9480   33.1560   48.3710 C   0  0  0  0  0  0  0  0  0  0  0  0
   39.1460   32.3310   47.2890 N   0  0  0  0  0  0  0  0  0  0  0  0
   38.6430   31.0770   47.2560 C   0  0  0  0  0  0  0  0  0  0  0  0
   37.9240   30.6100   48.3180 N   0  0  0  0  0  0  0  0  0  0  0  0
   38.0490   33.3390   50.3310 H   0  0  0  0  0  0  0  0  0  0  0  0
   39.3570   34.1570   48.3790 H   0  0  0  0  0  0  0  0  0  0  0  0
   38.7910   30.4170   46.4120 H   0  0  0  0  0  0  0  0  0  0  0  0
   36.0910   28.9990   49.2720 O   0  0  0  0  0  0  0  0  0  0  0  0
   34.8860   28.8930   48.5550 C   0  0  0  0  0  0  0  0  0  0  0  0
   34.0000   27.8970   48.9670 C   0  0  0  0  0  0  0  0  0  0  0  0
   32.8400   27.8740   48.1970 C   0  0  0  0  0  0  0  0  0  0  0  0
   32.0690   27.1290   48.4310 H   0  0  0  0  0  0  0  0  0  0  0  0
   32.5390   28.6780   47.1690 N   0  0  0  0  0  0  0  0  0  0  0  0
   33.4640   29.6150   46.8450 C   0  0  0  0  0  0  0  0  0  0  0  0
   34.6190   29.7210   47.5260 N   0  0  0  0  0  0  0  0  0  0  0  0
  1  3  1  0  0  0  0
  1  4  1  1  0  0  0
  2  1  1  0  0  0  0
  2  5  1  1  0  0  0
  2  3  1  0  0  0  0
  3  6  1  0  0  0  0
  7  3  1  0  0  0  0
  8  9  1  0  0  0  0
  8  1  1  0  0  0  0
  9 14  1  0  0  0  0
 10 15  1  0  0  0  0
 10  9  2  0  0  0  0
 11 10  1  0  0  0  0
 12 11  2  0  0  0  0
 12 13  1  0  0  0  0
 13  8  2  0  0  0  0
 16 12  1  0  0  0  0
 17  2  1  0  0  0  0
 18 19  1  0  0  0  0
 18 17  1  0  0  0  0
 20 21  1  0  0  0  0
 20 19  2  0  0  0  0
 22 20  1  0  0  0  0
 23 22  2  0  0  0  0
 23 24  1  0  0  0  0
 24 18  2  0  0  0  0
M  END
>  <minimizedAffinity>
-5.26937866

>  <minimizedRMSD>
1.68419909

$$$$
