
 OpenBabel03272503123D

 44 48  0  0  0  0  0  0  0  0999 V2000
   39.2610   31.9150   44.9470 C   0  0  0  0  0  0  0  0  0  0  0  0
   38.1730   32.5660   45.0650 O   0  0  0  0  0  0  0  0  0  0  0  0
   39.9670   31.6450   46.1630 N   0  0  0  0  0  0  0  0  0  0  0  0
   40.8670   31.1200   46.1130 H   0  0  0  0  0  0  0  0  0  0  0  0
   39.1970   32.2270   42.5780 C   0  0  0  0  0  0  0  0  0  0  0  0
   39.7190   31.4950   43.6350 C   0  0  0  0  0  0  0  0  0  0  0  0
   40.5910   30.4620   43.4680 C   0  0  0  0  0  0  0  0  0  0  0  0
   40.9960   30.1000   42.1920 C   0  0  0  0  0  0  0  0  0  0  0  0
   41.8210   29.1530   41.7310 N   0  0  0  0  0  0  0  0  0  0  0  0
   41.8480   29.2530   40.4030 C   0  0  0  0  0  0  0  0  0  0  0  0
   41.0310   30.2730   40.0260 N   0  0  0  0  0  0  0  0  0  0  0  0
   40.4920   30.8120   41.1330 C   0  0  0  0  0  0  0  0  0  0  0  0
   39.5970   31.8770   41.2660 C   0  0  0  0  0  0  0  0  0  0  0  0
   38.5130   33.0400   42.6910 H   0  0  0  0  0  0  0  0  0  0  0  0
   40.9710   29.9190   44.3270 H   0  0  0  0  0  0  0  0  0  0  0  0
   42.3320   28.4770   42.3490 H   0  0  0  0  0  0  0  0  0  0  0  0
   42.4470   28.5930   39.7850 H   0  0  0  0  0  0  0  0  0  0  0  0
   39.0850   32.5980   40.2110 O   0  0  0  0  0  0  0  0  0  0  0  0
   37.7360   32.9220   40.2440 C   0  0  0  0  0  0  0  0  0  0  0  0
   36.8700   31.9030   39.8750 C   0  0  0  0  0  3  0  0  0  0  0  0
   35.5070   32.1450   39.8820 C   0  0  0  0  0  0  0  0  0  0  0  0
   34.8250   31.3550   39.5960 H   0  0  0  0  0  0  0  0  0  0  0  0
   35.0180   33.3530   40.2400 N   0  0  0  0  0  0  0  0  0  0  0  0
   35.8880   34.3340   40.5970 C   0  0  0  0  0  3  0  0  0  0  0  0
   37.2120   34.1150   40.5970 N   0  0  0  0  0  0  0  0  0  0  0  0
   38.1150   30.1570   47.4940 F   0  0  0  0  0  0  0  0  0  0  0  0
   38.3780   31.4050   47.9870 C   0  0  0  0  0  0  0  0  0  0  0  0
   37.7100   31.8330   49.1000 C   0  0  0  0  0  0  0  0  0  0  0  0
   38.0190   33.0950   49.5450 C   0  0  0  0  0  0  0  0  0  0  0  0
   38.9360   33.8910   48.9240 C   0  0  0  0  0  0  0  0  0  0  0  0
   39.5950   33.4210   47.7930 C   0  0  0  0  0  0  0  0  0  0  0  0
   39.3020   32.1570   47.3280 C   0  0  0  0  0  0  0  0  0  0  0  0
   37.4990   33.4600   50.4310 H   0  0  0  0  0  0  0  0  0  0  0  0
   39.1570   34.8820   49.3000 H   0  0  0  0  0  0  0  0  0  0  0  0
   40.3340   34.0380   47.2790 H   0  0  0  0  0  0  0  0  0  0  0  0
   36.0780   29.3530   51.4440 C   0  0  0  0  0  0  0  0  0  0  0  0
   37.0340   30.2120   50.8600 C   0  0  0  0  0  0  0  0  0  0  0  0
   36.7400   30.9400   49.7210 C   0  0  0  0  0  0  0  0  0  0  0  0
   35.4900   30.7860   49.1980 N   0  0  0  0  0  0  0  0  0  0  0  0
   34.5830   29.9670   49.7560 C   0  0  0  0  0  0  0  0  0  0  0  0
   34.8680   29.2710   50.8480 N   0  0  0  0  0  0  0  0  0  0  0  0
   36.4300   28.8410   52.3310 H   0  0  0  0  0  0  0  0  0  0  0  0
   38.0330   30.3430   51.2670 H   0  0  0  0  0  0  0  0  0  0  0  0
   33.5800   29.8440   49.3360 H   0  0  0  0  0  0  0  0  0  0  0  0
  1  2  2  0  0  0  0
  1  3  1  0  0  0  0
  3 32  1  0  0  0  0
  4  3  1  0  0  0  0
  5 14  1  0  0  0  0
  5  6  1  0  0  0  0
  6  1  1  0  0  0  0
  7  6  2  0  0  0  0
  7 15  1  0  0  0  0
  8  7  1  0  0  0  0
  9  8  1  0  0  0  0
  9 16  1  0  0  0  0
 10  9  1  0  0  0  0
 11 10  2  0  0  0  0
 11 12  1  0  0  0  0
 12 13  1  0  0  0  0
 12  8  2  0  0  0  0
 13  5  2  0  0  0  0
 17 10  1  0  0  0  0
 18 19  1  0  0  0  0
 18 13  1  0  0  0  0
 19 25  1  0  0  0  0
 20 21  1  0  0  0  0
 20 19  2  0  0  0  0
 21 23  2  0  0  0  0
 22 21  1  0  0  0  0
 23 24  1  0  0  0  0
 25 24  2  0  0  0  0
 26 27  1  0  0  0  0
 27 28  1  0  0  0  0
 28 29  2  0  0  0  0
 28 38  1  0  0  0  0
 29 33  1  0  0  0  0
 30 34  1  0  0  0  0
 30 29  1  0  0  0  0
 31 30  2  0  0  0  0
 32 31  1  0  0  0  0
 32 27  2  0  0  0  0
 35 31  1  0  0  0  0
 36 42  1  0  0  0  0
 37 43  1  0  0  0  0
 37 36  1  0  0  0  0
 38 37  2  0  0  0  0
 39 38  1  0  0  0  0
 39 40  2  0  0  0  0
 40 41  1  0  0  0  0
 41 36  2  0  0  0  0
 44 40  1  0  0  0  0
M  END
>  <minimizedAffinity>
-7.38219643

>  <minimizedRMSD>
1.56843412

$$$$
