
 OpenBabel03272507163D

 24 26  0  0  1  0  0  0  0  0999 V2000
   36.9060   30.9300   50.5570 C   0  0  1  0  0  0  0  0  0  0  0  0
   36.1660   29.6910   50.4910 C   0  0  2  0  0  0  0  0  0  0  0  0
   37.4980   29.6750   51.2000 C   0  0  0  0  0  0  0  0  0  0  0  0
   36.6860   31.7650   51.2730 H   0  0  0  0  0  0  0  0  0  0  0  0
   35.2430   29.5940   51.0980 H   0  0  0  0  0  0  0  0  0  0  0  0
   37.4190   29.6600   52.3020 H   0  0  0  0  0  0  0  0  0  0  0  0
   38.3680   29.2060   50.7510 H   0  0  0  0  0  0  0  0  0  0  0  0
   37.7270   31.4210   49.3880 C   0  0  0  0  0  0  0  0  0  0  0  0
   38.2190   32.7240   49.4780 C   0  0  0  0  0  0  0  0  0  0  0  0
   38.9480   33.1560   48.3710 C   0  0  0  0  0  0  0  0  0  0  0  0
   39.1460   32.3310   47.2890 N   0  0  0  0  0  0  0  0  0  0  0  0
   38.6440   31.0760   47.2570 C   0  0  0  0  0  0  0  0  0  0  0  0
   37.9250   30.6090   48.3190 N   0  0  0  0  0  0  0  0  0  0  0  0
   38.0480   33.3390   50.3300 H   0  0  0  0  0  0  0  0  0  0  0  0
   39.3560   34.1570   48.3790 H   0  0  0  0  0  0  0  0  0  0  0  0
   38.7920   30.4160   46.4130 H   0  0  0  0  0  0  0  0  0  0  0  0
   36.0910   28.9990   49.2720 O   0  0  0  0  0  0  0  0  0  0  0  0
   34.8860   28.8940   48.5560 C   0  0  0  0  0  0  0  0  0  0  0  0
   34.0000   27.8970   48.9670 C   0  0  0  0  0  3  0  0  0  0  0  0
   32.8400   27.8750   48.1950 C   0  0  0  0  0  0  0  0  0  0  0  0
   32.0690   27.1290   48.4290 H   0  0  0  0  0  0  0  0  0  0  0  0
   32.5390   28.6790   47.1680 N   0  0  0  0  0  0  0  0  0  0  0  0
   33.4650   29.6160   46.8450 C   0  0  0  0  0  3  0  0  0  0  0  0
   34.6190   29.7210   47.5270 N   0  0  0  0  0  0  0  0  0  0  0  0
  1  3  1  0  0  0  0
  1  4  1  1  0  0  0
  2  1  1  0  0  0  0
  2  5  1  1  0  0  0
  2  3  1  0  0  0  0
  3  6  1  0  0  0  0
  7  3  1  0  0  0  0
  8  9  1  0  0  0  0
  8  1  1  0  0  0  0
  9 14  1  0  0  0  0
 10 15  1  0  0  0  0
 10  9  2  0  0  0  0
 11 10  1  0  0  0  0
 12 11  2  0  0  0  0
 12 13  1  0  0  0  0
 13  8  2  0  0  0  0
 16 12  1  0  0  0  0
 17  2  1  0  0  0  0
 18 19  1  0  0  0  0
 18 17  1  0  0  0  0
 20 21  1  0  0  0  0
 20 19  2  0  0  0  0
 22 20  1  0  0  0  0
 23 22  2  0  0  0  0
 23 24  1  0  0  0  0
 24 18  2  0  0  0  0
M  END
>  <minimizedAffinity>
-5.266222

>  <minimizedRMSD>
1.73619199

$$$$
