
 OpenBabel03272507173D

 24 26  0  0  1  0  0  0  0  0999 V2000
   37.6620   27.5910   34.6970 C   0  0  1  0  0  0  0  0  0  0  0  0
   37.9770   26.8070   35.8690 C   0  0  2  0  0  0  0  0  0  0  0  0
   39.1100   27.1610   34.9370 C   0  0  0  0  0  0  0  0  0  0  0  0
   37.4960   28.7010   34.7010 H   0  0  0  0  0  0  0  0  0  0  0  0
   37.9360   27.3000   36.8610 H   0  0  0  0  0  0  0  0  0  0  0  0
   39.7600   27.9730   35.3100 H   0  0  0  0  0  0  0  0  0  0  0  0
   39.5590   26.4150   34.2890 H   0  0  0  0  0  0  0  0  0  0  0  0
   37.0690   26.9570   33.4610 C   0  0  0  0  0  0  0  0  0  0  0  0
   36.3350   27.7980   32.6240 C   0  0  0  0  0  0  0  0  0  0  0  0
   35.7770   27.1780   31.5070 C   0  0  0  0  0  0  0  0  0  0  0  0
   35.9590   25.8330   31.2820 N   0  0  0  0  0  0  0  0  0  0  0  0
   36.6820   25.0660   32.1290 C   0  0  0  0  0  0  0  0  0  0  0  0
   37.2470   25.6320   33.2350 N   0  0  0  0  0  0  0  0  0  0  0  0
   36.2110   28.8370   32.8260 H   0  0  0  0  0  0  0  0  0  0  0  0
   35.1960   27.7750   30.8190 H   0  0  0  0  0  0  0  0  0  0  0  0
   36.8330   24.0080   31.9640 H   0  0  0  0  0  0  0  0  0  0  0  0
   37.5960   25.4570   35.9150 O   0  0  0  0  0  0  0  0  0  0  0  0
   38.3630   24.4970   36.5990 C   0  0  0  0  0  0  0  0  0  0  0  0
   38.0420   24.2800   37.9390 C   0  0  0  0  0  3  0  0  0  0  0  0
   38.8570   23.3130   38.5250 C   0  0  0  0  0  0  0  0  0  0  0  0
   38.6940   23.0590   39.5800 H   0  0  0  0  0  0  0  0  0  0  0  0
   39.8480   22.6300   37.9380 N   0  0  0  0  0  0  0  0  0  0  0  0
   40.0820   22.9120   36.6320 C   0  0  0  0  0  3  0  0  0  0  0  0
   39.3530   23.8300   35.9730 N   0  0  0  0  0  0  0  0  0  0  0  0
  1  4  1  1  0  0  0
  1  3  1  0  0  0  0
  1  2  1  0  0  0  0
  2 17  1  0  0  0  0
  2  5  1  1  0  0  0
  3  6  1  0  0  0  0
  3  2  1  0  0  0  0
  7  3  1  0  0  0  0
  8  1  1  0  0  0  0
  9 14  1  0  0  0  0
  9  8  2  0  0  0  0
 10  9  1  0  0  0  0
 11 10  2  0  0  0  0
 11 12  1  0  0  0  0
 12 13  2  0  0  0  0
 13  8  1  0  0  0  0
 15 10  1  0  0  0  0
 16 12  1  0  0  0  0
 17 18  1  0  0  0  0
 18 19  1  0  0  0  0
 19 20  2  0  0  0  0
 20 21  1  0  0  0  0
 22 20  1  0  0  0  0
 23 22  2  0  0  0  0
 24 18  2  0  0  0  0
 24 23  1  0  0  0  0
M  END
>  <minimizedAffinity>
-4.68680477

$$$$

 OpenBabel03272507173D

 24 26  0  0  1  0  0  0  0  0999 V2000
   37.7940   22.8590   32.4160 C   0  0  1  0  0  0  0  0  0  0  0  0
   38.2780   22.6980   33.7680 C   0  0  2  0  0  0  0  0  0  0  0  0
   37.0410   21.9300   33.3690 C   0  0  0  0  0  0  0  0  0  0  0  0
   38.2360   22.3510   31.5190 H   0  0  0  0  0  0  0  0  0  0  0  0
   39.2190   22.1350   33.9290 H   0  0  0  0  0  0  0  0  0  0  0  0
   37.2200   20.8570   33.1800 H   0  0  0  0  0  0  0  0  0  0  0  0
   36.0590   22.2210   33.7300 H   0  0  0  0  0  0  0  0  0  0  0  0
   36.9730   24.0600   32.0110 C   0  0  0  0  0  0  0  0  0  0  0  0
   35.7460   23.7960   31.4020 C   0  0  0  0  0  0  0  0  0  0  0  0
   35.0250   24.9250   31.0150 C   0  0  0  0  0  0  0  0  0  0  0  0
   35.5210   26.1890   31.2340 N   0  0  0  0  0  0  0  0  0  0  0  0
   36.7190   26.3850   31.8290 C   0  0  0  0  0  0  0  0  0  0  0  0
   37.4590   25.3090   32.2260 N   0  0  0  0  0  0  0  0  0  0  0  0
   35.3890   22.8040   31.2460 H   0  0  0  0  0  0  0  0  0  0  0  0
   34.0650   24.7880   30.5370 H   0  0  0  0  0  0  0  0  0  0  0  0
   37.1200   27.3730   32.0080 H   0  0  0  0  0  0  0  0  0  0  0  0
   38.1030   23.7410   34.6900 O   0  0  0  0  0  0  0  0  0  0  0  0
   38.4460   23.5950   36.0450 C   0  0  0  0  0  0  0  0  0  0  0  0
   37.5910   24.1890   36.9740 C   0  0  0  0  0  3  0  0  0  0  0  0
   38.0170   23.9860   38.2850 C   0  0  0  0  0  0  0  0  0  0  0  0
   37.4190   24.4100   39.1030 H   0  0  0  0  0  0  0  0  0  0  0  0
   39.1040   23.3150   38.6860 N   0  0  0  0  0  0  0  0  0  0  0  0
   39.8720   22.7740   37.7070 C   0  0  0  0  0  3  0  0  0  0  0  0
   39.5490   22.9110   36.4090 N   0  0  0  0  0  0  0  0  0  0  0  0
  1  4  1  6  0  0  0
  1  3  1  0  0  0  0
  1  2  1  0  0  0  0
  2  5  1  1  0  0  0
  2 17  1  0  0  0  0
  3  7  1  0  0  0  0
  3  2  1  0  0  0  0
  6  3  1  0  0  0  0
  8 13  1  0  0  0  0
  8  1  1  0  0  0  0
  9  8  2  0  0  0  0
 10 11  2  0  0  0  0
 10  9  1  0  0  0  0
 11 12  1  0  0  0  0
 12 16  1  0  0  0  0
 12 13  2  0  0  0  0
 14  9  1  0  0  0  0
 15 10  1  0  0  0  0
 17 18  1  0  0  0  0
 18 24  2  0  0  0  0
 18 19  1  0  0  0  0
 19 20  2  0  0  0  0
 20 22  1  0  0  0  0
 20 21  1  0  0  0  0
 23 22  2  0  0  0  0
 24 23  1  0  0  0  0
M  END
>  <minimizedAffinity>
-4.33543682

$$$$

 OpenBabel03272507173D

 24 26  0  0  1  0  0  0  0  0999 V2000
   37.4590   27.3590   34.5930 C   0  0  1  0  0  0  0  0  0  0  0  0
   37.5190   26.3350   35.6110 C   0  0  2  0  0  0  0  0  0  0  0  0
   38.5890   27.3990   35.6220 C   0  0  0  0  0  0  0  0  0  0  0  0
   36.7680   28.2430   34.6210 H   0  0  0  0  0  0  0  0  0  0  0  0
   36.7570   26.3450   36.4160 H   0  0  0  0  0  0  0  0  0  0  0  0
   38.4520   28.1660   36.4050 H   0  0  0  0  0  0  0  0  0  0  0  0
   39.6050   27.1780   35.3070 H   0  0  0  0  0  0  0  0  0  0  0  0
   37.9620   27.1070   33.1920 C   0  0  0  0  0  0  0  0  0  0  0  0
   37.0040   26.7500   32.2430 C   0  0  0  0  0  0  0  0  0  0  0  0
   37.5040   26.4970   30.9660 C   0  0  0  0  0  0  0  0  0  0  0  0
   38.8490   26.6010   30.7010 N   0  0  0  0  0  0  0  0  0  0  0  0
   39.7330   26.9510   31.6620 C   0  0  0  0  0  0  0  0  0  0  0  0
   39.2890   27.2100   32.9260 N   0  0  0  0  0  0  0  0  0  0  0  0
   35.9670   26.6780   32.4790 H   0  0  0  0  0  0  0  0  0  0  0  0
   36.8110   26.2150   30.1850 H   0  0  0  0  0  0  0  0  0  0  0  0
   40.7940   27.0370   31.4670 H   0  0  0  0  0  0  0  0  0  0  0  0
   37.9220   25.0380   35.2580 O   0  0  0  0  0  0  0  0  0  0  0  0
   38.6590   24.2290   36.1390 C   0  0  0  0  0  0  0  0  0  0  0  0
   38.1460   24.0780   37.4280 C   0  0  0  0  0  3  0  0  0  0  0  0
   38.9470   23.2600   38.2210 C   0  0  0  0  0  0  0  0  0  0  0  0
   38.6390   23.0700   39.2580 H   0  0  0  0  0  0  0  0  0  0  0  0
   40.0870   22.6560   37.8630 N   0  0  0  0  0  0  0  0  0  0  0  0
   40.5040   22.8630   36.5890 C   0  0  0  0  0  3  0  0  0  0  0  0
   39.8030   23.6370   35.7420 N   0  0  0  0  0  0  0  0  0  0  0  0
  1  4  1  1  0  0  0
  1  2  1  0  0  0  0
  1  3  1  0  0  0  0
  2  3  1  0  0  0  0
  2  5  1  1  0  0  0
  3  6  1  0  0  0  0
  7  3  1  0  0  0  0
  8  1  1  0  0  0  0
  9 14  1  0  0  0  0
  9  8  2  0  0  0  0
 10  9  1  0  0  0  0
 11 10  2  0  0  0  0
 11 12  1  0  0  0  0
 12 13  2  0  0  0  0
 13  8  1  0  0  0  0
 15 10  1  0  0  0  0
 16 12  1  0  0  0  0
 17  2  1  0  0  0  0
 17 18  1  0  0  0  0
 18 19  1  0  0  0  0
 19 20  2  0  0  0  0
 20 21  1  0  0  0  0
 22 20  1  0  0  0  0
 23 22  2  0  0  0  0
 24 18  2  0  0  0  0
 24 23  1  0  0  0  0
M  END
>  <minimizedAffinity>
-4.26696396

$$$$

 OpenBabel03272507173D

 24 26  0  0  1  0  0  0  0  0999 V2000
   39.3080   26.0850   35.2970 C   0  0  1  0  0  0  0  0  0  0  0  0
   38.7270   27.0440   34.3870 C   0  0  2  0  0  0  0  0  0  0  0  0
   38.5240   27.2690   35.8650 C   0  0  0  0  0  0  0  0  0  0  0  0
   40.3920   26.0590   35.5860 H   0  0  0  0  0  0  0  0  0  0  0  0
   39.4040   27.7280   33.8370 H   0  0  0  0  0  0  0  0  0  0  0  0
   39.1630   28.0630   36.2900 H   0  0  0  0  0  0  0  0  0  0  0  0
   37.5600   27.0940   36.3330 H   0  0  0  0  0  0  0  0  0  0  0  0
   38.6390   24.7610   35.5790 C   0  0  0  0  0  0  0  0  0  0  0  0
   38.1240   24.5870   36.8650 C   0  0  0  0  0  0  0  0  0  0  0  0
   37.5380   23.3450   37.1020 C   0  0  0  0  0  0  0  0  0  0  0  0
   37.4900   22.3860   36.1170 N   0  0  0  0  0  0  0  0  0  0  0  0
   38.0060   22.6110   34.8880 C   0  0  0  0  0  0  0  0  0  0  0  0
   38.5890   23.8130   34.6100 N   0  0  0  0  0  0  0  0  0  0  0  0
   38.1770   25.3500   37.6080 H   0  0  0  0  0  0  0  0  0  0  0  0
   37.1200   23.1480   38.0800 H   0  0  0  0  0  0  0  0  0  0  0  0
   37.9750   21.8660   34.1040 H   0  0  0  0  0  0  0  0  0  0  0  0
   37.5930   26.6850   33.6420 O   0  0  0  0  0  0  0  0  0  0  0  0
   37.0400   27.5470   32.6780 C   0  0  0  0  0  0  0  0  0  0  0  0
   36.2330   28.5810   33.1530 C   0  0  0  0  0  3  0  0  0  0  0  0
   35.7360   29.3760   32.1230 C   0  0  0  0  0  0  0  0  0  0  0  0
   35.0870   30.2230   32.3800 H   0  0  0  0  0  0  0  0  0  0  0  0
   35.9590   29.2280   30.8110 N   0  0  0  0  0  0  0  0  0  0  0  0
   36.7570   28.1930   30.4480 C   0  0  0  0  0  3  0  0  0  0  0  0
   37.2880   27.3660   31.3650 N   0  0  0  0  0  0  0  0  0  0  0  0
  1  8  1  0  0  0  0
  1  4  1  1  0  0  0
  1  3  1  0  0  0  0
  2  5  1  6  0  0  0
  2  1  1  0  0  0  0
  2  3  1  0  0  0  0
  3  6  1  0  0  0  0
  3  7  1  0  0  0  0
  8  9  1  0  0  0  0
  9 10  2  0  0  0  0
  9 14  1  0  0  0  0
 10 15  1  0  0  0  0
 11 10  1  0  0  0  0
 12 11  2  0  0  0  0
 13 12  1  0  0  0  0
 13  8  2  0  0  0  0
 16 12  1  0  0  0  0
 17  2  1  0  0  0  0
 18 19  1  0  0  0  0
 18 17  1  0  0  0  0
 20 21  1  0  0  0  0
 20 19  2  0  0  0  0
 22 20  1  0  0  0  0
 23 22  2  0  0  0  0
 23 24  1  0  0  0  0
 24 18  2  0  0  0  0
M  END
>  <minimizedAffinity>
-4.2551775

$$$$

 OpenBabel03272507173D

 24 26  0  0  1  0  0  0  0  0999 V2000
   37.0890   22.8860   32.4830 C   0  0  1  0  0  0  0  0  0  0  0  0
   37.9150   23.1830   33.6310 C   0  0  2  0  0  0  0  0  0  0  0  0
   38.6090   22.9290   32.3150 C   0  0  0  0  0  0  0  0  0  0  0  0
   36.5300   23.6540   31.8870 H   0  0  0  0  0  0  0  0  0  0  0  0
   37.9070   24.2170   34.0330 H   0  0  0  0  0  0  0  0  0  0  0  0
   38.9750   23.8440   31.8180 H   0  0  0  0  0  0  0  0  0  0  0  0
   39.1510   22.0060   32.1350 H   0  0  0  0  0  0  0  0  0  0  0  0
   36.5230   21.5040   32.2580 C   0  0  0  0  0  0  0  0  0  0  0  0
   36.6790   20.9710   30.9770 C   0  0  0  0  0  0  0  0  0  0  0  0
   36.1220   19.7070   30.7930 C   0  0  0  0  0  0  0  0  0  0  0  0
   35.4720   19.0640   31.8210 N   0  0  0  0  0  0  0  0  0  0  0  0
   35.3500   19.6310   33.0430 C   0  0  0  0  0  0  0  0  0  0  0  0
   35.8820   20.8670   33.2700 N   0  0  0  0  0  0  0  0  0  0  0  0
   37.1880   21.4940   30.2010 H   0  0  0  0  0  0  0  0  0  0  0  0
   36.2090   19.2380   29.8230 H   0  0  0  0  0  0  0  0  0  0  0  0
   34.8420   19.1370   33.8600 H   0  0  0  0  0  0  0  0  0  0  0  0
   38.0800   22.2110   34.6300 O   0  0  0  0  0  0  0  0  0  0  0  0
   38.4230   22.5590   35.9480 C   0  0  0  0  0  0  0  0  0  0  0  0
   39.7500   22.3490   36.3240 C   0  0  0  0  0  3  0  0  0  0  0  0
   39.9880   22.7240   37.6450 C   0  0  0  0  0  0  0  0  0  0  0  0
   41.0010   22.6030   38.0500 H   0  0  0  0  0  0  0  0  0  0  0  0
   39.1020   23.2300   38.5110 N   0  0  0  0  0  0  0  0  0  0  0  0
   37.8370   23.3970   38.0510 C   0  0  0  0  0  3  0  0  0  0  0  0
   37.5030   23.0660   36.7920 N   0  0  0  0  0  0  0  0  0  0  0  0
  1  4  1  6  0  0  0
  1  2  1  0  0  0  0
  2  5  1  1  0  0  0
  2 17  1  0  0  0  0
  3  1  1  0  0  0  0
  3  2  1  0  0  0  0
  6  3  1  0  0  0  0
  7  3  1  0  0  0  0
  8  1  1  0  0  0  0
  8 13  1  0  0  0  0
  9  8  2  0  0  0  0
 10  9  1  0  0  0  0
 10 11  2  0  0  0  0
 11 12  1  0  0  0  0
 12 13  2  0  0  0  0
 12 16  1  0  0  0  0
 14  9  1  0  0  0  0
 15 10  1  0  0  0  0
 17 18  1  0  0  0  0
 18 19  2  0  0  0  0
 18 24  1  0  0  0  0
 19 20  1  0  0  0  0
 20 21  1  0  0  0  0
 20 22  2  0  0  0  0
 23 22  1  0  0  0  0
 24 23  2  0  0  0  0
M  END
>  <minimizedAffinity>
-4.16862535

$$$$

 OpenBabel03272507173D

 24 26  0  0  1  0  0  0  0  0999 V2000
   37.9030   21.9550   34.5970 C   0  0  1  0  0  0  0  0  0  0  0  0
   37.7720   22.8920   33.5050 C   0  0  2  0  0  0  0  0  0  0  0  0
   38.9980   22.0130   33.5300 C   0  0  0  0  0  0  0  0  0  0  0  0
   37.3630   20.9740   34.6600 H   0  0  0  0  0  0  0  0  0  0  0  0
   37.0000   22.6990   32.7330 H   0  0  0  0  0  0  0  0  0  0  0  0
   38.9650   21.1750   32.8110 H   0  0  0  0  0  0  0  0  0  0  0  0
   39.9730   22.4160   33.7890 H   0  0  0  0  0  0  0  0  0  0  0  0
   38.3970   22.3920   35.9550 C   0  0  0  0  0  0  0  0  0  0  0  0
   37.4670   23.0310   36.7770 C   0  0  0  0  0  0  0  0  0  0  0  0
   37.9600   23.4480   38.0120 C   0  0  0  0  0  0  0  0  0  0  0  0
   39.2730   23.2280   38.3590 N   0  0  0  0  0  0  0  0  0  0  0  0
   40.1300   22.6030   37.5210 C   0  0  0  0  0  0  0  0  0  0  0  0
   39.6910   22.1760   36.3010 N   0  0  0  0  0  0  0  0  0  0  0  0
   36.4560   23.1880   36.4790 H   0  0  0  0  0  0  0  0  0  0  0  0
   37.2900   23.9500   38.6950 H   0  0  0  0  0  0  0  0  0  0  0  0
   41.1640   22.4240   37.7810 H   0  0  0  0  0  0  0  0  0  0  0  0
   37.9710   24.2600   33.7460 O   0  0  0  0  0  0  0  0  0  0  0  0
   37.2570   25.2450   33.0410 C   0  0  0  0  0  0  0  0  0  0  0  0
   36.4950   24.8090   31.9560 C   0  0  0  0  0  3  0  0  0  0  0  0
   35.8280   25.8580   31.3270 C   0  0  0  0  0  0  0  0  0  0  0  0
   35.1970   25.6320   30.4580 H   0  0  0  0  0  0  0  0  0  0  0  0
   35.8630   27.1540   31.6630 N   0  0  0  0  0  0  0  0  0  0  0  0
   36.6320   27.4780   32.7330 C   0  0  0  0  0  3  0  0  0  0  0  0
   37.3170   26.5400   33.4100 N   0  0  0  0  0  0  0  0  0  0  0  0
  1  4  1  6  0  0  0
  1  8  1  0  0  0  0
  2  5  1  6  0  0  0
  2  3  1  0  0  0  0
  2 17  1  0  0  0  0
  2  1  1  0  0  0  0
  3  7  1  0  0  0  0
  3  1  1  0  0  0  0
  6  3  1  0  0  0  0
  8 13  2  0  0  0  0
  8  9  1  0  0  0  0
  9 10  2  0  0  0  0
 10 11  1  0  0  0  0
 10 15  1  0  0  0  0
 12 16  1  0  0  0  0
 12 11  2  0  0  0  0
 13 12  1  0  0  0  0
 14  9  1  0  0  0  0
 18 24  1  0  0  0  0
 18 17  1  0  0  0  0
 19 18  2  0  0  0  0
 20 22  2  0  0  0  0
 20 19  1  0  0  0  0
 21 20  1  0  0  0  0
 22 23  1  0  0  0  0
 23 24  2  0  0  0  0
M  END
>  <minimizedAffinity>
-4.16328764

$$$$

 OpenBabel03272507173D

 24 26  0  0  1  0  0  0  0  0999 V2000
   39.3750   26.0660   35.3130 C   0  0  1  0  0  0  0  0  0  0  0  0
   38.7270   27.0500   34.4770 C   0  0  2  0  0  0  0  0  0  0  0  0
   38.6190   27.2200   35.9730 C   0  0  0  0  0  0  0  0  0  0  0  0
   40.4760   26.0420   35.5300 H   0  0  0  0  0  0  0  0  0  0  0  0
   39.3620   27.7610   33.9100 H   0  0  0  0  0  0  0  0  0  0  0  0
   39.2770   28.0060   36.3840 H   0  0  0  0  0  0  0  0  0  0  0  0
   37.6890   27.0180   36.4950 H   0  0  0  0  0  0  0  0  0  0  0  0
   38.7370   24.7250   35.5900 C   0  0  0  0  0  0  0  0  0  0  0  0
   38.8130   23.7790   34.5660 C   0  0  0  0  0  0  0  0  0  0  0  0
   38.1900   22.5630   34.8410 C   0  0  0  0  0  0  0  0  0  0  0  0
   37.5580   22.3480   36.0440 N   0  0  0  0  0  0  0  0  0  0  0  0
   37.5160   23.3040   36.9990 C   0  0  0  0  0  0  0  0  0  0  0  0
   38.1130   24.5100   36.7750 N   0  0  0  0  0  0  0  0  0  0  0  0
   39.3100   23.9760   33.6440 H   0  0  0  0  0  0  0  0  0  0  0  0
   38.2130   21.7870   34.0880 H   0  0  0  0  0  0  0  0  0  0  0  0
   37.0230   23.1490   37.9490 H   0  0  0  0  0  0  0  0  0  0  0  0
   37.5510   26.7050   33.7940 O   0  0  0  0  0  0  0  0  0  0  0  0
   37.0070   27.5330   32.7960 C   0  0  0  0  0  0  0  0  0  0  0  0
   36.2400   28.6150   33.2310 C   0  0  0  0  0  3  0  0  0  0  0  0
   35.7490   29.3710   32.1690 C   0  0  0  0  0  0  0  0  0  0  0  0
   35.1300   30.2500   32.3930 H   0  0  0  0  0  0  0  0  0  0  0  0
   35.9430   29.1500   30.8630 N   0  0  0  0  0  0  0  0  0  0  0  0
   36.7030   28.0730   30.5410 C   0  0  0  0  0  3  0  0  0  0  0  0
   37.2260   27.2780   31.4910 N   0  0  0  0  0  0  0  0  0  0  0  0
  1  4  1  1  0  0  0
  1  8  1  0  0  0  0
  1  3  1  0  0  0  0
  2  5  1  6  0  0  0
  2  1  1  0  0  0  0
  2  3  1  0  0  0  0
  3  6  1  0  0  0  0
  3  7  1  0  0  0  0
  8 13  1  0  0  0  0
  9 10  1  0  0  0  0
  9  8  2  0  0  0  0
 10 11  2  0  0  0  0
 11 12  1  0  0  0  0
 12 16  1  0  0  0  0
 13 12  2  0  0  0  0
 14  9  1  0  0  0  0
 15 10  1  0  0  0  0
 17  2  1  0  0  0  0
 18 19  1  0  0  0  0
 18 17  1  0  0  0  0
 20 21  1  0  0  0  0
 20 19  2  0  0  0  0
 22 20  1  0  0  0  0
 23 22  2  0  0  0  0
 23 24  1  0  0  0  0
 24 18  2  0  0  0  0
M  END
>  <minimizedAffinity>
-4.15050793

$$$$

 OpenBabel03272507173D

 24 26  0  0  1  0  0  0  0  0999 V2000
   38.5520   26.6700   35.4060 C   0  0  1  0  0  0  0  0  0  0  0  0
   38.3610   27.0570   34.0270 C   0  0  2  0  0  0  0  0  0  0  0  0
   37.1430   27.0090   34.9170 C   0  0  0  0  0  0  0  0  0  0  0  0
   38.9450   27.3490   36.2080 H   0  0  0  0  0  0  0  0  0  0  0  0
   38.7370   28.0470   33.6990 H   0  0  0  0  0  0  0  0  0  0  0  0
   36.7860   28.0020   35.2410 H   0  0  0  0  0  0  0  0  0  0  0  0
   36.4080   26.2160   34.8200 H   0  0  0  0  0  0  0  0  0  0  0  0
   38.6910   25.2200   35.8060 C   0  0  0  0  0  0  0  0  0  0  0  0
   39.8550   24.5710   35.3910 C   0  0  0  0  0  0  0  0  0  0  0  0
   39.9400   23.2270   35.7510 C   0  0  0  0  0  0  0  0  0  0  0  0
   38.9310   22.6200   36.4610 N   0  0  0  0  0  0  0  0  0  0  0  0
   37.8230   23.3000   36.8360 C   0  0  0  0  0  0  0  0  0  0  0  0
   37.6970   24.6190   36.5070 N   0  0  0  0  0  0  0  0  0  0  0  0
   40.6200   25.0690   34.8410 H   0  0  0  0  0  0  0  0  0  0  0  0
   40.8180   22.6680   35.4600 H   0  0  0  0  0  0  0  0  0  0  0  0
   37.0220   22.8360   37.3950 H   0  0  0  0  0  0  0  0  0  0  0  0
   38.4470   26.0810   33.0220 O   0  0  0  0  0  0  0  0  0  0  0  0
   37.3110   25.6440   32.3180 C   0  0  0  0  0  0  0  0  0  0  0  0
   37.0470   24.2750   32.3480 C   0  0  0  0  0  3  0  0  0  0  0  0
   35.9030   23.9440   31.6230 C   0  0  0  0  0  0  0  0  0  0  0  0
   35.5970   22.8910   31.5770 H   0  0  0  0  0  0  0  0  0  0  0  0
   35.1040   24.7820   30.9520 N   0  0  0  0  0  0  0  0  0  0  0  0
   35.4450   26.0950   30.9830 C   0  0  0  0  0  3  0  0  0  0  0  0
   36.5300   26.5190   31.6540 N   0  0  0  0  0  0  0  0  0  0  0  0
  1  8  1  0  0  0  0
  1  4  1  1  0  0  0
  2  5  1  6  0  0  0
  2  3  1  0  0  0  0
  2  1  1  0  0  0  0
  3  6  1  0  0  0  0
  3  1  1  0  0  0  0
  7  3  1  0  0  0  0
  8 13  1  0  0  0  0
  9 10  1  0  0  0  0
  9  8  2  0  0  0  0
 10 11  2  0  0  0  0
 11 12  1  0  0  0  0
 12 16  1  0  0  0  0
 13 12  2  0  0  0  0
 14  9  1  0  0  0  0
 15 10  1  0  0  0  0
 17  2  1  0  0  0  0
 18 19  1  0  0  0  0
 18 17  1  0  0  0  0
 20 19  2  0  0  0  0
 21 20  1  0  0  0  0
 22 23  2  0  0  0  0
 22 20  1  0  0  0  0
 23 24  1  0  0  0  0
 24 18  2  0  0  0  0
M  END
>  <minimizedAffinity>
-4.11167479

$$$$

 OpenBabel03272507173D

 24 26  0  0  1  0  0  0  0  0999 V2000
   36.7920   25.1350   31.3360 C   0  0  1  0  0  0  0  0  0  0  0  0
   35.9280   24.0360   30.9700 C   0  0  2  0  0  0  0  0  0  0  0  0
   35.3110   25.4100   31.0690 C   0  0  0  0  0  0  0  0  0  0  0  0
   37.4980   25.6490   30.6320 H   0  0  0  0  0  0  0  0  0  0  0  0
   36.0470   23.5820   29.9660 H   0  0  0  0  0  0  0  0  0  0  0  0
   35.1160   25.8850   30.0920 H   0  0  0  0  0  0  0  0  0  0  0  0
   34.6610   25.6760   31.8970 H   0  0  0  0  0  0  0  0  0  0  0  0
   37.1760   25.3900   32.7740 C   0  0  0  0  0  0  0  0  0  0  0  0
   36.8750   26.6550   33.2810 C   0  0  0  0  0  0  0  0  0  0  0  0
   37.2680   26.8690   34.6020 C   0  0  0  0  0  0  0  0  0  0  0  0
   37.9030   25.8820   35.3190 N   0  0  0  0  0  0  0  0  0  0  0  0
   38.1700   24.6730   34.7740 C   0  0  0  0  0  0  0  0  0  0  0  0
   37.8020   24.4180   33.4840 N   0  0  0  0  0  0  0  0  0  0  0  0
   36.3820   27.4000   32.7000 H   0  0  0  0  0  0  0  0  0  0  0  0
   37.0630   27.8290   35.0540 H   0  0  0  0  0  0  0  0  0  0  0  0
   38.6680   23.8880   35.3260 H   0  0  0  0  0  0  0  0  0  0  0  0
   35.5510   23.1030   31.9490 O   0  0  0  0  0  0  0  0  0  0  0  0
   35.6580   21.7190   31.7290 C   0  0  0  0  0  0  0  0  0  0  0  0
   36.7460   21.2890   30.9680 C   0  0  0  0  0  3  0  0  0  0  0  0
   36.7620   19.9050   30.8080 C   0  0  0  0  0  0  0  0  0  0  0  0
   37.5750   19.4540   30.2250 H   0  0  0  0  0  0  0  0  0  0  0  0
   35.8770   19.0270   31.2950 N   0  0  0  0  0  0  0  0  0  0  0  0
   34.8540   19.5420   32.0230 C   0  0  0  0  0  3  0  0  0  0  0  0
   34.7460   20.8650   32.2360 N   0  0  0  0  0  0  0  0  0  0  0  0
  1  4  1  6  0  0  0
  1  8  1  0  0  0  0
  2  5  1  6  0  0  0
  2  3  1  0  0  0  0
  2  1  1  0  0  0  0
  2 17  1  0  0  0  0
  3  1  1  0  0  0  0
  3  7  1  0  0  0  0
  6  3  1  0  0  0  0
  8  9  2  0  0  0  0
  8 13  1  0  0  0  0
  9 10  1  0  0  0  0
 10 15  1  0  0  0  0
 10 11  2  0  0  0  0
 12 11  1  0  0  0  0
 12 16  1  0  0  0  0
 13 12  2  0  0  0  0
 14  9  1  0  0  0  0
 18 17  1  0  0  0  0
 18 24  1  0  0  0  0
 19 18  2  0  0  0  0
 20 19  1  0  0  0  0
 20 22  2  0  0  0  0
 21 20  1  0  0  0  0
 22 23  1  0  0  0  0
 23 24  2  0  0  0  0
M  END
>  <minimizedAffinity>
-4.08185482

$$$$
