
 OpenBabel03272510103D

 26 28  0  0  0  0  0  0  0  0999 V2000
   36.4110   30.5630   48.5320 C   0  0  0  0  0  0  0  0  0  0  0  0
   35.3890   30.4350   47.6420 C   0  0  0  0  0  0  0  0  0  0  0  0
   34.4120   29.4680   47.7310 C   0  0  0  0  0  0  0  0  0  0  0  0
   34.4150   28.5580   48.7410 C   0  0  0  0  0  0  0  0  0  0  0  0
   35.4730   28.7050   49.6440 C   0  0  0  0  0  0  0  0  0  0  0  0
   36.4300   29.6580   49.5500 N   0  0  0  0  0  0  0  0  0  0  0  0
   35.3360   31.1340   46.8170 H   0  0  0  0  0  0  0  0  0  0  0  0
   33.6070   29.3820   47.0170 H   0  0  0  0  0  0  0  0  0  0  0  0
   35.6040   28.0530   50.4950 H   0  0  0  0  0  0  0  0  0  0  0  0
   38.3030   31.7240   47.3340 C   0  0  0  0  0  0  0  0  0  0  0  0
   37.4380   31.5820   48.4330 C   0  0  0  0  0  0  0  0  0  0  0  0
   37.5970   32.4780   49.4680 C   0  0  0  0  0  0  0  0  0  0  0  0
   38.5670   33.4400   49.3710 N   0  0  0  0  0  0  0  0  0  0  0  0
   39.3620   33.5300   48.3030 C   0  0  0  0  0  0  0  0  0  0  0  0
   39.2400   32.6670   47.2610 N   0  0  0  0  0  0  0  0  0  0  0  0
   38.1630   31.0100   46.5280 H   0  0  0  0  0  0  0  0  0  0  0  0
   36.9660   32.4290   50.3480 H   0  0  0  0  0  0  0  0  0  0  0  0
   40.1080   34.3120   48.2920 H   0  0  0  0  0  0  0  0  0  0  0  0
   33.5480   27.5190   49.0180 O   0  0  0  0  0  0  0  0  0  0  0  0
   32.5360   27.2120   48.1380 C   0  0  0  0  0  0  0  0  0  0  0  0
   31.3380   27.5790   48.7680 C   0  0  0  0  0  3  0  0  0  0  0  0
   30.0880   27.4060   48.1550 C   0  0  0  0  0  0  0  0  0  0  0  0
   29.1290   27.6530   48.5500 H   0  0  0  0  0  0  0  0  0  0  0  0
   30.0720   26.8630   46.9120 N   0  0  0  0  0  0  0  0  0  0  0  0
   31.2160   26.5080   46.2980 C   0  0  0  0  0  3  0  0  0  0  0  0
   32.3770   26.6920   46.9230 N   0  0  0  0  0  0  0  0  0  0  0  0
  1  6  1  0  0  0  0
  2  3  1  0  0  0  0
  2  1  2  0  0  0  0
  3  4  2  0  0  0  0
  4 19  1  0  0  0  0
  4  5  1  0  0  0  0
  5  9  1  0  0  0  0
  6  5  2  0  0  0  0
  7  2  1  0  0  0  0
  8  3  1  0  0  0  0
 10 11  1  0  0  0  0
 11  1  1  0  0  0  0
 11 12  2  0  0  0  0
 12 17  1  0  0  0  0
 13 12  1  0  0  0  0
 14 13  2  0  0  0  0
 15 10  2  0  0  0  0
 15 14  1  0  0  0  0
 16 10  1  0  0  0  0
 18 14  1  0  0  0  0
 20 21  1  0  0  0  0
 20 19  1  0  0  0  0
 22 23  1  0  0  0  0
 22 21  2  0  0  0  0
 24 22  1  0  0  0  0
 25 24  2  0  0  0  0
 25 26  1  0  0  0  0
 26 20  2  0  0  0  0
M  END
>  <minimizedAffinity>
-4.85127974

>  <minimizedRMSD>
8.94437313

$$$$
