
 OpenBabel03272510103D

 26 28  0  0  0  0  0  0  0  0999 V2000
   37.4140   31.1120   48.5590 C   0  0  0  0  0  0  0  0  0  0  0  0
   36.3650   30.8470   47.7340 C   0  0  0  0  0  0  0  0  0  0  0  0
   35.4750   29.8130   47.9310 C   0  0  0  0  0  0  0  0  0  0  0  0
   35.6010   28.9740   48.9930 C   0  0  0  0  0  0  0  0  0  0  0  0
   36.6850   29.2620   49.8290 C   0  0  0  0  0  0  0  0  0  0  0  0
   37.5540   30.2790   49.6280 N   0  0  0  0  0  0  0  0  0  0  0  0
   36.2160   31.4850   46.8720 H   0  0  0  0  0  0  0  0  0  0  0  0
   34.6470   29.6180   47.2670 H   0  0  0  0  0  0  0  0  0  0  0  0
   36.9080   28.6790   50.7110 H   0  0  0  0  0  0  0  0  0  0  0  0
   39.0670   32.3970   47.1530 C   0  0  0  0  0  0  0  0  0  0  0  0
   38.3480   32.2000   48.3450 C   0  0  0  0  0  0  0  0  0  0  0  0
   38.5630   33.1100   49.3580 C   0  0  0  0  0  0  0  0  0  0  0  0
   39.4450   34.1370   49.1520 N   0  0  0  0  0  0  0  0  0  0  0  0
   40.1020   34.2780   47.9990 C   0  0  0  0  0  0  0  0  0  0  0  0
   39.9210   33.4030   46.9750 N   0  0  0  0  0  0  0  0  0  0  0  0
   38.8860   31.6710   46.3670 H   0  0  0  0  0  0  0  0  0  0  0  0
   38.0430   33.0210   50.3040 H   0  0  0  0  0  0  0  0  0  0  0  0
   40.7850   35.1110   47.9040 H   0  0  0  0  0  0  0  0  0  0  0  0
   34.8360   27.8900   49.3780 O   0  0  0  0  0  0  0  0  0  0  0  0
   33.6210   27.6550   48.7760 C   0  0  0  0  0  0  0  0  0  0  0  0
   33.8580   26.7230   47.7550 C   0  0  0  0  0  0  0  0  0  0  0  0
   32.8320   26.2470   46.9240 C   0  0  0  0  0  0  0  0  0  0  0  0
   32.9120   25.5430   46.1270 H   0  0  0  0  0  0  0  0  0  0  0  0
   31.5810   26.7240   47.1430 N   0  0  0  0  0  0  0  0  0  0  0  0
   31.3430   27.6190   48.1190 C   0  0  0  0  0  0  0  0  0  0  0  0
   32.3510   28.0390   48.8820 N   0  0  0  0  0  0  0  0  0  0  0  0
  1  6  1  0  0  0  0
  2  3  1  0  0  0  0
  2  1  2  0  0  0  0
  3  4  2  0  0  0  0
  4 19  1  0  0  0  0
  4  5  1  0  0  0  0
  5  9  1  0  0  0  0
  6  5  2  0  0  0  0
  7  2  1  0  0  0  0
  8  3  1  0  0  0  0
 10 11  1  0  0  0  0
 11  1  1  0  0  0  0
 11 12  2  0  0  0  0
 12 17  1  0  0  0  0
 13 12  1  0  0  0  0
 14 13  2  0  0  0  0
 15 10  2  0  0  0  0
 15 14  1  0  0  0  0
 16 10  1  0  0  0  0
 18 14  1  0  0  0  0
 20 26  1  0  0  0  0
 20 19  1  0  0  0  0
 21 20  2  0  0  0  0
 22 24  2  0  0  0  0
 22 21  1  0  0  0  0
 23 22  1  0  0  0  0
 24 25  1  0  0  0  0
 25 26  2  0  0  0  0
M  END
>  <minimizedAffinity>
-5.23771429

>  <minimizedRMSD>
8.55624294

$$$$
