
 OpenBabel03272508423D

 13 13  0  0  0  0  0  0  0  0999 V2000
   38.1400   24.7830   34.7250 C   0  0  0  0  0  0  0  0  0  0  0  0
   38.2150   23.5830   34.0080 C   0  0  0  0  0  0  0  0  0  0  0  0
   38.3150   22.3710   34.7140 C   0  0  0  0  0  0  0  0  0  0  0  0
   38.3320   22.4530   36.0620 N   0  0  0  0  0  0  0  0  0  0  0  0
   38.2590   23.6220   36.7340 C   0  0  0  0  0  0  0  0  0  0  0  0
   38.1630   24.7730   36.0730 N   0  0  0  0  0  0  0  0  0  0  0  0
   38.0650   25.6670   34.1420 H   0  0  0  0  0  0  0  0  0  0  0  0
   38.2000   23.5160   32.9170 H   0  0  0  0  0  0  0  0  0  0  0  0
   38.3760   21.4050   34.2350 H   0  0  0  0  0  0  0  0  0  0  0  0
   38.2800   23.6670   38.1910 C   0  0  0  0  0  0  0  0  0  0  0  0
   37.9990   24.7170   38.8400 O   0  0  0  0  0  0  0  0  0  0  0  0
   38.6030   22.5930   39.0380 O   0  0  0  0  0  0  0  0  0  0  0  0
   38.1070   22.4460   39.9280 H   0  0  0  0  0  0  0  0  0  0  0  0
  1  6  1  0  0  0  0
  2  3  1  0  0  0  0
  2  1  2  0  0  0  0
  3  4  2  0  0  0  0
  4  5  1  0  0  0  0
  5 10  1  0  0  0  0
  6  5  2  0  0  0  0
  7  1  1  0  0  0  0
  8  2  1  0  0  0  0
  9  3  1  0  0  0  0
 10 11  2  0  0  0  0
 10 12  1  0  0  0  0
 12 13  1  0  0  0  0
M  END
>  <minimizedAffinity>
-3.35339594

$$$$

 OpenBabel03272508423D

 13 13  0  0  0  0  0  0  0  0999 V2000
   38.0210   22.7330   36.0380 C   0  0  0  0  0  0  0  0  0  0  0  0
   37.4410   23.3820   37.1340 C   0  0  0  0  0  0  0  0  0  0  0  0
   38.1960   23.5490   38.3070 C   0  0  0  0  0  0  0  0  0  0  0  0
   39.4550   23.0580   38.2930 N   0  0  0  0  0  0  0  0  0  0  0  0
   39.9950   22.4350   37.2250 C   0  0  0  0  0  0  0  0  0  0  0  0
   39.2870   22.2730   36.1110 N   0  0  0  0  0  0  0  0  0  0  0  0
   37.4050   22.6350   35.1780 H   0  0  0  0  0  0  0  0  0  0  0  0
   36.4220   23.7800   37.1440 H   0  0  0  0  0  0  0  0  0  0  0  0
   37.8220   24.0390   39.1940 H   0  0  0  0  0  0  0  0  0  0  0  0
   41.3590   21.9200   37.2520 C   0  0  0  0  0  0  0  0  0  0  0  0
   42.3130   22.5000   36.6540 O   0  0  0  0  0  0  0  0  0  0  0  0
   41.7830   20.7580   37.9190 O   0  0  0  0  0  0  0  0  0  0  0  0
   42.6950   20.7150   38.3920 H   0  0  0  0  0  0  0  0  0  0  0  0
  1  6  2  0  0  0  0
  1  2  1  0  0  0  0
  2  8  1  0  0  0  0
  2  3  2  0  0  0  0
  3  9  1  0  0  0  0
  4  3  1  0  0  0  0
  5 10  1  0  0  0  0
  5  4  2  0  0  0  0
  6  5  1  0  0  0  0
  7  1  1  0  0  0  0
 10 12  1  0  0  0  0
 11 10  2  0  0  0  0
 12 13  1  0  0  0  0
M  END
>  <minimizedAffinity>
-3.31284523

$$$$

 OpenBabel03272508423D

 13 13  0  0  0  0  0  0  0  0999 V2000
   38.5210   26.7420   36.0190 C   0  0  0  0  0  0  0  0  0  0  0  0
   39.5590   26.6370   35.0860 C   0  0  0  0  0  0  0  0  0  0  0  0
   40.1660   25.3870   34.8780 C   0  0  0  0  0  0  0  0  0  0  0  0
   39.6940   24.3540   35.6100 N   0  0  0  0  0  0  0  0  0  0  0  0
   38.6910   24.4770   36.5050 C   0  0  0  0  0  0  0  0  0  0  0  0
   38.1110   25.6570   36.7070 N   0  0  0  0  0  0  0  0  0  0  0  0
   38.0980   27.7100   36.1350 H   0  0  0  0  0  0  0  0  0  0  0  0
   39.9400   27.4740   34.4940 H   0  0  0  0  0  0  0  0  0  0  0  0
   40.9710   25.2240   34.1770 H   0  0  0  0  0  0  0  0  0  0  0  0
   38.2120   23.3360   37.2740 C   0  0  0  0  0  0  0  0  0  0  0  0
   37.1340   22.7340   36.9910 O   0  0  0  0  0  0  0  0  0  0  0  0
   38.8540   22.7710   38.3880 O   0  0  0  0  0  0  0  0  0  0  0  0
   38.8590   21.7540   38.5450 H   0  0  0  0  0  0  0  0  0  0  0  0
  1  7  1  0  0  0  0
  1  6  1  0  0  0  0
  2  1  2  0  0  0  0
  3  2  1  0  0  0  0
  3  4  2  0  0  0  0
  4  5  1  0  0  0  0
  5  6  2  0  0  0  0
  5 10  1  0  0  0  0
  8  2  1  0  0  0  0
  9  3  1  0  0  0  0
 10 12  1  0  0  0  0
 11 10  2  0  0  0  0
 12 13  1  0  0  0  0
M  END
>  <minimizedAffinity>
-3.20234179

$$$$

 OpenBabel03272508423D

 13 13  0  0  0  0  0  0  0  0999 V2000
   38.7660   24.0160   34.2800 C   0  0  0  0  0  0  0  0  0  0  0  0
   38.0430   25.2050   34.4300 C   0  0  0  0  0  0  0  0  0  0  0  0
   37.7550   25.6720   35.7250 C   0  0  0  0  0  0  0  0  0  0  0  0
   38.2070   24.9220   36.7540 N   0  0  0  0  0  0  0  0  0  0  0  0
   38.9020   23.7770   36.5870 C   0  0  0  0  0  0  0  0  0  0  0  0
   39.1790   23.3290   35.3650 N   0  0  0  0  0  0  0  0  0  0  0  0
   38.9550   23.7120   33.2810 H   0  0  0  0  0  0  0  0  0  0  0  0
   37.6790   25.8120   33.5970 H   0  0  0  0  0  0  0  0  0  0  0  0
   37.2040   26.5790   35.9240 H   0  0  0  0  0  0  0  0  0  0  0  0
   39.3720   22.9970   37.7260 C   0  0  0  0  0  0  0  0  0  0  0  0
   40.5370   22.5030   37.7730 O   0  0  0  0  0  0  0  0  0  0  0  0
   38.6250   22.7010   38.8790 O   0  0  0  0  0  0  0  0  0  0  0  0
   39.0620   22.6840   39.8100 H   0  0  0  0  0  0  0  0  0  0  0  0
  1  2  2  0  0  0  0
  1  6  1  0  0  0  0
  2  3  1  0  0  0  0
  3  9  1  0  0  0  0
  3  4  2  0  0  0  0
  5  4  1  0  0  0  0
  5 10  1  0  0  0  0
  6  5  2  0  0  0  0
  7  1  1  0  0  0  0
  8  2  1  0  0  0  0
 10 11  2  0  0  0  0
 10 12  1  0  0  0  0
 12 13  1  0  0  0  0
M  END
>  <minimizedAffinity>
-3.19208622

$$$$

 OpenBabel03272508423D

 13 13  0  0  0  0  0  0  0  0999 V2000
   38.2900   23.4050   37.5460 C   0  0  0  0  0  0  0  0  0  0  0  0
   39.3090   22.7490   36.8460 C   0  0  0  0  0  0  0  0  0  0  0  0
   39.9270   23.4040   35.7660 C   0  0  0  0  0  0  0  0  0  0  0  0
   39.4820   24.6460   35.4740 N   0  0  0  0  0  0  0  0  0  0  0  0
   38.4960   25.2600   36.1630 C   0  0  0  0  0  0  0  0  0  0  0  0
   37.9070   24.6470   37.1860 N   0  0  0  0  0  0  0  0  0  0  0  0
   37.8600   22.8640   38.3520 H   0  0  0  0  0  0  0  0  0  0  0  0
   39.6700   21.7440   37.0820 H   0  0  0  0  0  0  0  0  0  0  0  0
   40.7200   22.9670   35.1770 H   0  0  0  0  0  0  0  0  0  0  0  0
   38.0460   26.6020   35.8150 C   0  0  0  0  0  0  0  0  0  0  0  0
   37.0270   26.8070   35.0900 O   0  0  0  0  0  0  0  0  0  0  0  0
   38.6540   27.8010   36.2220 O   0  0  0  0  0  0  0  0  0  0  0  0
   38.0950   28.6300   36.4660 H   0  0  0  0  0  0  0  0  0  0  0  0
  1  7  1  0  0  0  0
  2  8  1  0  0  0  0
  2  1  2  0  0  0  0
  3  2  1  0  0  0  0
  4  3  2  0  0  0  0
  4  5  1  0  0  0  0
  5  6  2  0  0  0  0
  6  1  1  0  0  0  0
  9  3  1  0  0  0  0
 10  5  1  0  0  0  0
 10 12  1  0  0  0  0
 11 10  2  0  0  0  0
 12 13  1  0  0  0  0
M  END
>  <minimizedAffinity>
-3.19012403

$$$$

 OpenBabel03272508423D

 13 13  0  0  0  0  0  0  0  0999 V2000
   40.1150   25.4240   34.8110 C   0  0  0  0  0  0  0  0  0  0  0  0
   39.7290   26.7670   34.8920 C   0  0  0  0  0  0  0  0  0  0  0  0
   38.7130   27.1330   35.7920 C   0  0  0  0  0  0  0  0  0  0  0  0
   38.1700   26.1400   36.5300 N   0  0  0  0  0  0  0  0  0  0  0  0
   38.5570   24.8510   36.4360 C   0  0  0  0  0  0  0  0  0  0  0  0
   39.5180   24.4960   35.5870 N   0  0  0  0  0  0  0  0  0  0  0  0
   40.8870   25.2050   34.1150 H   0  0  0  0  0  0  0  0  0  0  0  0
   40.1690   27.5710   34.2950 H   0  0  0  0  0  0  0  0  0  0  0  0
   38.3600   28.1460   35.9140 H   0  0  0  0  0  0  0  0  0  0  0  0
   37.9440   23.8090   37.2510 C   0  0  0  0  0  0  0  0  0  0  0  0
   37.6470   23.9910   38.4690 O   0  0  0  0  0  0  0  0  0  0  0  0
   37.6130   22.5160   36.8140 O   0  0  0  0  0  0  0  0  0  0  0  0
   36.7570   22.0440   37.1380 H   0  0  0  0  0  0  0  0  0  0  0  0
  1  2  2  0  0  0  0
  1  6  1  0  0  0  0
  2  3  1  0  0  0  0
  3  9  1  0  0  0  0
  3  4  2  0  0  0  0
  5  4  1  0  0  0  0
  5 10  1  0  0  0  0
  6  5  2  0  0  0  0
  7  1  1  0  0  0  0
  8  2  1  0  0  0  0
 10 11  2  0  0  0  0
 12 13  1  0  0  0  0
 12 10  1  0  0  0  0
M  END
>  <minimizedAffinity>
-3.16982818

$$$$

 OpenBabel03272508423D

 13 13  0  0  0  0  0  0  0  0999 V2000
   38.2790   23.7250   37.0760 C   0  0  0  0  0  0  0  0  0  0  0  0
   39.2810   23.6820   36.0990 C   0  0  0  0  0  0  0  0  0  0  0  0
   39.1790   22.7460   35.0560 C   0  0  0  0  0  0  0  0  0  0  0  0
   38.0970   21.9370   35.0710 N   0  0  0  0  0  0  0  0  0  0  0  0
   37.1420   21.9950   36.0220 C   0  0  0  0  0  0  0  0  0  0  0  0
   37.2320   22.8780   37.0130 N   0  0  0  0  0  0  0  0  0  0  0  0
   38.4080   24.4510   37.8400 H   0  0  0  0  0  0  0  0  0  0  0  0
   40.1560   24.3380   36.0870 H   0  0  0  0  0  0  0  0  0  0  0  0
   39.9080   22.6510   34.2650 H   0  0  0  0  0  0  0  0  0  0  0  0
   35.9890   21.1020   36.0010 C   0  0  0  0  0  0  0  0  0  0  0  0
   35.5100   20.6420   34.9230 O   0  0  0  0  0  0  0  0  0  0  0  0
   35.2840   20.6490   37.1280 O   0  0  0  0  0  0  0  0  0  0  0  0
   34.9160   19.6900   37.1800 H   0  0  0  0  0  0  0  0  0  0  0  0
  1  7  1  0  0  0  0
  2  1  2  0  0  0  0
  3  4  2  0  0  0  0
  3  2  1  0  0  0  0
  4  5  1  0  0  0  0
  5  6  2  0  0  0  0
  6  1  1  0  0  0  0
  8  2  1  0  0  0  0
  9  3  1  0  0  0  0
 10  5  1  0  0  0  0
 10 12  1  0  0  0  0
 11 10  2  0  0  0  0
 12 13  1  0  0  0  0
M  END
>  <minimizedAffinity>
-3.13602352

$$$$

 OpenBabel03272508423D

 13 13  0  0  0  0  0  0  0  0999 V2000
   41.8750   21.5210   36.9100 C   0  0  0  0  0  0  0  0  0  0  0  0
   42.1540   22.0870   35.6610 C   0  0  0  0  0  0  0  0  0  0  0  0
   41.2990   23.0800   35.1540 C   0  0  0  0  0  0  0  0  0  0  0  0
   40.2450   23.4250   35.9260 N   0  0  0  0  0  0  0  0  0  0  0  0
   39.9940   22.8660   37.1290 C   0  0  0  0  0  0  0  0  0  0  0  0
   40.7990   21.9250   37.6150 N   0  0  0  0  0  0  0  0  0  0  0  0
   42.5540   20.7760   37.2440 H   0  0  0  0  0  0  0  0  0  0  0  0
   43.0080   21.8080   35.0360 H   0  0  0  0  0  0  0  0  0  0  0  0
   41.4460   23.5650   34.2000 H   0  0  0  0  0  0  0  0  0  0  0  0
   38.8440   23.2680   37.9310 C   0  0  0  0  0  0  0  0  0  0  0  0
   38.2280   24.3560   37.7320 O   0  0  0  0  0  0  0  0  0  0  0  0
   38.2870   22.5310   38.9890 O   0  0  0  0  0  0  0  0  0  0  0  0
   37.2700   22.4990   39.1420 H   0  0  0  0  0  0  0  0  0  0  0  0
  1  7  1  0  0  0  0
  1  6  1  0  0  0  0
  2  1  2  0  0  0  0
  3  2  1  0  0  0  0
  3  4  2  0  0  0  0
  4  5  1  0  0  0  0
  5  6  2  0  0  0  0
  5 10  1  0  0  0  0
  8  2  1  0  0  0  0
  9  3  1  0  0  0  0
 10 12  1  0  0  0  0
 11 10  2  0  0  0  0
 12 13  1  0  0  0  0
M  END
>  <minimizedAffinity>
-3.10511208

$$$$

 OpenBabel03272508423D

 13 13  0  0  0  0  0  0  0  0999 V2000
   36.6830   28.0360   34.2800 C   0  0  0  0  0  0  0  0  0  0  0  0
   37.3990   27.0190   34.9210 C   0  0  0  0  0  0  0  0  0  0  0  0
   37.6450   25.8180   34.2320 C   0  0  0  0  0  0  0  0  0  0  0  0
   37.1610   25.7300   32.9740 N   0  0  0  0  0  0  0  0  0  0  0  0
   36.4730   26.7240   32.3740 C   0  0  0  0  0  0  0  0  0  0  0  0
   36.2360   27.8640   33.0190 N   0  0  0  0  0  0  0  0  0  0  0  0
   36.5270   28.9210   34.8460 H   0  0  0  0  0  0  0  0  0  0  0  0
   37.7910   27.0900   35.9390 H   0  0  0  0  0  0  0  0  0  0  0  0
   38.1900   24.9870   34.6560 H   0  0  0  0  0  0  0  0  0  0  0  0
   35.9680   26.5890   31.0130 C   0  0  0  0  0  0  0  0  0  0  0  0
   35.1670   25.6670   30.6770 O   0  0  0  0  0  0  0  0  0  0  0  0
   36.2880   27.4290   29.9340 O   0  0  0  0  0  0  0  0  0  0  0  0
   35.5830   27.6880   29.2290 H   0  0  0  0  0  0  0  0  0  0  0  0
  1  7  1  0  0  0  0
  1  2  1  0  0  0  0
  2  8  1  0  0  0  0
  3  9  1  0  0  0  0
  3  2  2  0  0  0  0
  4  3  1  0  0  0  0
  5  4  2  0  0  0  0
  5  6  1  0  0  0  0
  6  1  2  0  0  0  0
 10  5  1  0  0  0  0
 11 10  2  0  0  0  0
 12 10  1  0  0  0  0
 13 12  1  0  0  0  0
M  END
>  <minimizedAffinity>
-2.95130038

$$$$
