
 OpenBabel03272508423D

 13 13  0  0  0  0  0  0  0  0999 V2000
   37.2640   30.1470   51.4070 C   0  0  0  0  0  0  0  0  0  0  0  0
   38.1100   30.6430   50.4090 C   0  0  0  0  0  0  0  0  0  0  0  0
   37.7670   30.4420   49.0610 C   0  0  0  0  0  0  0  0  0  0  0  0
   36.6200   29.7690   48.8200 N   0  0  0  0  0  0  0  0  0  0  0  0
   35.8180   29.3000   49.7990 C   0  0  0  0  0  0  0  0  0  0  0  0
   36.1360   29.4860   51.0780 N   0  0  0  0  0  0  0  0  0  0  0  0
   37.5720   30.3280   52.4080 H   0  0  0  0  0  0  0  0  0  0  0  0
   39.0380   31.1870   50.6030 H   0  0  0  0  0  0  0  0  0  0  0  0
   38.3660   30.7930   48.2330 H   0  0  0  0  0  0  0  0  0  0  0  0
   34.5870   28.5790   49.4960 C   0  0  0  0  0  0  0  0  0  0  0  0
   33.4710   28.9070   49.9950 O   0  0  0  0  0  0  0  0  0  0  0  0
   34.4780   27.4680   48.6430 O   0  0  0  0  0  0  0  0  0  0  0  0
   34.9000   26.5610   48.8880 H   0  0  0  0  0  0  0  0  0  0  0  0
  1  7  1  0  0  0  0
  2  8  1  0  0  0  0
  2  1  2  0  0  0  0
  3  2  1  0  0  0  0
  4  3  2  0  0  0  0
  4  5  1  0  0  0  0
  5  6  2  0  0  0  0
  6  1  1  0  0  0  0
  9  3  1  0  0  0  0
 10  5  1  0  0  0  0
 10 11  2  0  0  0  0
 12 13  1  0  0  0  0
 12 10  1  0  0  0  0
M  END
>  <minimizedAffinity>
-3.39252424

>  <minimizedRMSD>
0.342770606

$$$$
