
 OpenBabel03272508583D

 33 35  0  0  1  0  0  0  0  0999 V2000
   38.3790   31.8990   44.5060 C   0  0  0  0  0  0  0  0  0  0  0  0
   37.2580   32.4520   44.4010 O   0  0  0  0  0  0  0  0  0  0  0  0
   38.9550   31.6370   45.8090 N   0  0  0  0  0  0  0  0  0  0  0  0
   39.9500   31.3860   45.9560 H   0  0  0  0  0  0  0  0  0  0  0  0
   39.1500   31.4980   43.3140 C   0  0  0  0  0  0  0  0  0  0  0  0
   40.1480   30.5760   43.4530 C   0  0  0  0  0  0  0  0  0  0  0  0
   40.8540   30.2210   42.3160 C   0  0  0  0  0  0  0  0  0  0  0  0
   40.5160   30.8090   41.1240 C   0  0  0  0  0  0  0  0  0  0  0  0
   39.5020   31.7480   40.9810 C   0  0  0  0  0  0  0  0  0  0  0  0
   38.8440   32.0610   42.1140 N   0  0  0  0  0  0  0  0  0  0  0  0
   40.4150   30.1120   44.3990 H   0  0  0  0  0  0  0  0  0  0  0  0
   41.6580   29.4980   42.3500 H   0  0  0  0  0  0  0  0  0  0  0  0
   41.0520   30.5510   40.2180 H   0  0  0  0  0  0  0  0  0  0  0  0
   39.1920   32.3360   39.6850 C   0  0  0  0  0  0  0  0  0  0  0  0
   38.8290   33.5360   39.6370 O   0  0  0  0  0  0  0  0  0  0  0  0
   39.2920   31.5970   38.5350 O   0  0  0  0  0  0  0  0  0  0  0  0
   40.1780   31.1930   38.2660 H   0  0  0  0  0  0  0  0  0  0  0  0
   38.4460   31.1090   48.1810 C   0  0  2  0  0  0  0  0  0  0  0  0
   38.6910   32.5740   48.1090 C   0  0  0  0  0  0  0  0  0  0  0  0
   38.0840   31.7350   46.9520 C   0  0  1  0  0  0  0  0  0  0  0  0
   39.3780   30.5150   48.2780 H   0  0  0  0  0  0  0  0  0  0  0  0
   38.0160   33.2830   48.6220 H   0  0  0  0  0  0  0  0  0  0  0  0
   39.7140   32.9430   47.9890 H   0  0  0  0  0  0  0  0  0  0  0  0
   36.9990   31.9880   46.7650 H   0  0  0  0  0  0  0  0  0  0  0  0
   35.0700   30.2440   49.4880 C   0  0  0  0  0  0  0  0  0  0  0  0
   35.4030   29.5530   50.7020 C   0  0  0  0  0  0  0  0  0  0  0  0
   36.8070   29.4120   51.0480 C   0  0  0  0  0  0  0  0  0  0  0  0
   37.7550   29.9340   50.2130 N   0  0  0  0  0  0  0  0  0  0  0  0
   37.3610   30.5700   49.0880 C   0  0  0  0  0  0  0  0  0  0  0  0
   36.0390   30.7430   48.6960 N   0  0  0  0  0  0  0  0  0  0  0  0
   34.0210   30.3270   49.2690 H   0  0  0  0  0  0  0  0  0  0  0  0
   34.6520   29.1430   51.3580 H   0  0  0  0  0  0  0  0  0  0  0  0
   37.0470   28.9010   51.9470 H   0  0  0  0  0  0  0  0  0  0  0  0
  1  3  1  0  0  0  0
  2  1  2  0  0  0  0
  3  4  1  0  0  0  0
  3 20  1  0  0  0  0
  5  6  1  0  0  0  0
  5  1  1  0  0  0  0
  6 11  1  0  0  0  0
  7 12  1  0  0  0  0
  7  6  2  0  0  0  0
  8  7  1  0  0  0  0
  9  8  2  0  0  0  0
  9 10  1  0  0  0  0
 10  5  2  0  0  0  0
 13  8  1  0  0  0  0
 14  9  1  0  0  0  0
 15 14  2  0  0  0  0
 16 14  1  0  0  0  0
 17 16  1  0  0  0  0
 18 21  1  6  0  0  0
 18 29  1  0  0  0  0
 19 18  1  0  0  0  0
 19 22  1  0  0  0  0
 20 24  1  6  0  0  0
 20 19  1  0  0  0  0
 20 18  1  0  0  0  0
 23 19  1  0  0  0  0
 25 26  1  0  0  0  0
 26 27  2  0  0  0  0
 26 32  1  0  0  0  0
 27 33  1  0  0  0  0
 28 27  1  0  0  0  0
 29 28  2  0  0  0  0
 30 29  1  0  0  0  0
 30 25  2  0  0  0  0
 31 25  1  0  0  0  0
M  END
>  <minimizedAffinity>
-5.02612066

>  <minimizedRMSD>
0.0194060691

$$$$
