
 OpenBabel03272504143D

 24 25  0  0  0  0  0  0  0  0999 V2000
   38.6850   24.1250   36.7720 C   0  0  0  0  0  0  0  0  0  0  0  0
   37.9180   24.9710   35.9580 C   0  0  0  0  0  0  0  0  0  0  0  0
   38.2860   25.2330   34.6530 C   0  0  0  0  0  0  0  0  0  0  0  0
   39.4360   24.6130   34.2270 N   0  0  0  0  0  0  0  0  0  0  0  0
   40.1580   23.8080   35.0140 C   0  0  0  0  0  0  0  0  0  0  0  0
   39.7760   23.5750   36.2700 N   0  0  0  0  0  0  0  0  0  0  0  0
   37.0280   25.4220   36.3660 H   0  0  0  0  0  0  0  0  0  0  0  0
   41.0370   23.3920   34.5420 H   0  0  0  0  0  0  0  0  0  0  0  0
   37.1550   23.8440   32.2210 Cl  0  0  0  0  0  0  0  0  0  0  0  0
   36.9590   25.5550   32.6660 C   0  0  0  0  0  0  0  0  0  0  0  0
   37.5170   26.0960   33.8020 C   0  0  0  0  0  0  0  0  0  0  0  0
   37.2820   27.4260   34.0150 C   0  0  0  0  0  0  0  0  0  0  0  0
   36.5350   28.1730   33.1490 C   0  0  0  0  0  0  0  0  0  0  0  0
   35.9660   27.6490   32.0040 C   0  0  0  0  0  0  0  0  0  0  0  0
   36.2020   26.2900   31.7790 C   0  0  0  0  0  0  0  0  0  0  0  0
   37.7110   27.8750   34.9030 H   0  0  0  0  0  0  0  0  0  0  0  0
   36.3950   29.2200   33.3890 H   0  0  0  0  0  0  0  0  0  0  0  0
   35.3760   28.2510   31.3240 H   0  0  0  0  0  0  0  0  0  0  0  0
   35.6240   25.7750   30.6230 O   0  0  0  0  0  0  0  0  0  0  0  0
   35.9330   24.9580   30.1280 H   0  0  0  0  0  0  0  0  0  0  0  0
   38.2400   23.8770   38.1770 C   0  0  0  0  0  0  0  0  0  0  0  0
   37.8600   25.0760   38.7530 F   0  0  0  0  0  0  0  0  0  0  0  0
   37.2410   22.9330   38.1320 F   0  0  0  0  0  0  0  0  0  0  0  0
   39.3340   23.3850   38.8850 F   0  0  0  0  0  0  0  0  0  0  0  0
  1 21  1  0  0  0  0
  2  7  1  0  0  0  0
  2  1  2  0  0  0  0
  3  2  1  0  0  0  0
  4  3  2  0  0  0  0
  4  5  1  0  0  0  0
  5  6  2  0  0  0  0
  6  1  1  0  0  0  0
  8  5  1  0  0  0  0
  9 10  1  0  0  0  0
 10 11  1  0  0  0  0
 11 12  2  0  0  0  0
 11  3  1  0  0  0  0
 12 16  1  0  0  0  0
 13 17  1  0  0  0  0
 13 12  1  0  0  0  0
 14 13  2  0  0  0  0
 15 14  1  0  0  0  0
 15 10  2  0  0  0  0
 18 14  1  0  0  0  0
 19 15  1  0  0  0  0
 20 19  1  0  0  0  0
 21 22  1  0  0  0  0
 21 24  1  0  0  0  0
 23 21  1  0  0  0  0
M  END
>  <minimizedAffinity>
-5.58494186

$$$$

 OpenBabel03272504143D

 24 25  0  0  0  0  0  0  0  0999 V2000
   38.8330   23.1030   37.0120 C   0  0  0  0  0  0  0  0  0  0  0  0
   37.9470   23.0190   35.9280 C   0  0  0  0  0  0  0  0  0  0  0  0
   38.3540   22.5090   34.7120 C   0  0  0  0  0  0  0  0  0  0  0  0
   39.6640   22.1000   34.6490 N   0  0  0  0  0  0  0  0  0  0  0  0
   40.4980   22.1860   35.6910 C   0  0  0  0  0  0  0  0  0  0  0  0
   40.0760   22.6830   36.8530 N   0  0  0  0  0  0  0  0  0  0  0  0
   36.9330   23.3620   36.0560 H   0  0  0  0  0  0  0  0  0  0  0  0
   41.4990   21.8260   35.4930 H   0  0  0  0  0  0  0  0  0  0  0  0
   38.5830   24.8190   32.7790 Cl  0  0  0  0  0  0  0  0  0  0  0  0
   37.4930   23.4200   32.6510 C   0  0  0  0  0  0  0  0  0  0  0  0
   37.4640   22.4130   33.5880 C   0  0  0  0  0  0  0  0  0  0  0  0
   36.5750   21.4000   33.3590 C   0  0  0  0  0  0  0  0  0  0  0  0
   35.7640   21.3890   32.2590 C   0  0  0  0  0  0  0  0  0  0  0  0
   35.7790   22.3900   31.3060 C   0  0  0  0  0  0  0  0  0  0  0  0
   36.6850   23.4290   31.5340 C   0  0  0  0  0  0  0  0  0  0  0  0
   36.5330   20.5950   34.0840 H   0  0  0  0  0  0  0  0  0  0  0  0
   35.0870   20.5510   32.1490 H   0  0  0  0  0  0  0  0  0  0  0  0
   35.1310   22.3700   30.4390 H   0  0  0  0  0  0  0  0  0  0  0  0
   36.6900   24.4280   30.5680 O   0  0  0  0  0  0  0  0  0  0  0  0
   37.0000   25.3740   30.7040 H   0  0  0  0  0  0  0  0  0  0  0  0
   38.3390   23.6640   38.3060 C   0  0  0  0  0  0  0  0  0  0  0  0
   38.0000   24.9930   38.1270 F   0  0  0  0  0  0  0  0  0  0  0  0
   37.2990   22.8710   38.7290 F   0  0  0  0  0  0  0  0  0  0  0  0
   39.3900   23.6050   39.2190 F   0  0  0  0  0  0  0  0  0  0  0  0
  1 21  1  0  0  0  0
  2  7  1  0  0  0  0
  2  1  2  0  0  0  0
  3  2  1  0  0  0  0
  4  3  2  0  0  0  0
  4  5  1  0  0  0  0
  5  6  2  0  0  0  0
  6  1  1  0  0  0  0
  8  5  1  0  0  0  0
 10  9  1  0  0  0  0
 10 11  1  0  0  0  0
 11  3  1  0  0  0  0
 12 11  2  0  0  0  0
 12 16  1  0  0  0  0
 13 12  1  0  0  0  0
 14 15  1  0  0  0  0
 14 13  2  0  0  0  0
 15 10  2  0  0  0  0
 17 13  1  0  0  0  0
 18 14  1  0  0  0  0
 19 20  1  0  0  0  0
 19 15  1  0  0  0  0
 21 23  1  0  0  0  0
 21 24  1  0  0  0  0
 22 21  1  0  0  0  0
M  END
>  <minimizedAffinity>
-5.40173244

$$$$

 OpenBabel03272504143D

 24 25  0  0  0  0  0  0  0  0999 V2000
   38.7010   24.0250   36.6810 C   0  0  0  0  0  0  0  0  0  0  0  0
   37.8790   24.7530   35.8080 C   0  0  0  0  0  0  0  0  0  0  0  0
   38.2940   25.0630   34.5290 C   0  0  0  0  0  0  0  0  0  0  0  0
   39.5460   24.6100   34.1860 N   0  0  0  0  0  0  0  0  0  0  0  0
   40.3180   23.9160   35.0290 C   0  0  0  0  0  0  0  0  0  0  0  0
   39.8900   23.6330   36.2580 N   0  0  0  0  0  0  0  0  0  0  0  0
   36.9090   25.0740   36.1520 H   0  0  0  0  0  0  0  0  0  0  0  0
   41.2780   23.6270   34.6200 H   0  0  0  0  0  0  0  0  0  0  0  0
   37.7770   27.9070   35.4050 Cl  0  0  0  0  0  0  0  0  0  0  0  0
   37.1770   27.1150   33.9300 C   0  0  0  0  0  0  0  0  0  0  0  0
   37.4700   25.8070   33.6180 C   0  0  0  0  0  0  0  0  0  0  0  0
   36.9390   25.3320   32.4520 C   0  0  0  0  0  0  0  0  0  0  0  0
   36.1630   26.1120   31.6420 C   0  0  0  0  0  0  0  0  0  0  0  0
   35.8580   27.4280   31.9380 C   0  0  0  0  0  0  0  0  0  0  0  0
   36.3970   27.9210   33.1290 C   0  0  0  0  0  0  0  0  0  0  0  0
   37.1550   24.3040   32.1840 H   0  0  0  0  0  0  0  0  0  0  0  0
   35.7800   25.6620   30.7350 H   0  0  0  0  0  0  0  0  0  0  0  0
   35.2420   28.0370   31.2890 H   0  0  0  0  0  0  0  0  0  0  0  0
   36.0830   29.2450   33.4140 O   0  0  0  0  0  0  0  0  0  0  0  0
   36.0840   29.6640   34.3270 H   0  0  0  0  0  0  0  0  0  0  0  0
   38.2010   23.7190   38.0560 C   0  0  0  0  0  0  0  0  0  0  0  0
   37.8960   24.9010   38.7040 F   0  0  0  0  0  0  0  0  0  0  0  0
   37.1380   22.8580   37.9250 F   0  0  0  0  0  0  0  0  0  0  0  0
   39.2380   23.0990   38.7520 F   0  0  0  0  0  0  0  0  0  0  0  0
  1 21  1  0  0  0  0
  2  7  1  0  0  0  0
  2  1  2  0  0  0  0
  3  2  1  0  0  0  0
  4  3  2  0  0  0  0
  4  5  1  0  0  0  0
  5  6  2  0  0  0  0
  6  1  1  0  0  0  0
  8  5  1  0  0  0  0
 10  9  1  0  0  0  0
 11 10  1  0  0  0  0
 11  3  1  0  0  0  0
 12 11  2  0  0  0  0
 13 14  2  0  0  0  0
 13 12  1  0  0  0  0
 14 15  1  0  0  0  0
 15 19  1  0  0  0  0
 15 10  2  0  0  0  0
 16 12  1  0  0  0  0
 17 13  1  0  0  0  0
 18 14  1  0  0  0  0
 19 20  1  0  0  0  0
 21 22  1  0  0  0  0
 21 24  1  0  0  0  0
 23 21  1  0  0  0  0
M  END
>  <minimizedAffinity>
-5.22522306

$$$$

 OpenBabel03272504143D

 24 25  0  0  0  0  0  0  0  0999 V2000
   37.8170   25.0680   32.3910 C   0  0  0  0  0  0  0  0  0  0  0  0
   37.8040   24.5390   33.6910 C   0  0  0  0  0  0  0  0  0  0  0  0
   38.6890   24.9850   34.6510 C   0  0  0  0  0  0  0  0  0  0  0  0
   39.5620   25.9650   34.2430 N   0  0  0  0  0  0  0  0  0  0  0  0
   39.5630   26.4600   33.0010 C   0  0  0  0  0  0  0  0  0  0  0  0
   38.6960   26.0090   32.0950 N   0  0  0  0  0  0  0  0  0  0  0  0
   37.0880   23.7710   33.9330 H   0  0  0  0  0  0  0  0  0  0  0  0
   40.3070   27.2260   32.8260 H   0  0  0  0  0  0  0  0  0  0  0  0
   40.6090   22.6860   35.0440 Cl  0  0  0  0  0  0  0  0  0  0  0  0
   39.5360   23.4080   36.2670 C   0  0  0  0  0  0  0  0  0  0  0  0
   38.6940   24.4590   35.9870 C   0  0  0  0  0  0  0  0  0  0  0  0
   37.9270   24.9100   37.0260 C   0  0  0  0  0  0  0  0  0  0  0  0
   37.9970   24.3490   38.2690 C   0  0  0  0  0  0  0  0  0  0  0  0
   38.8360   23.2930   38.5700 C   0  0  0  0  0  0  0  0  0  0  0  0
   39.6230   22.8260   37.5130 C   0  0  0  0  0  0  0  0  0  0  0  0
   37.2550   25.7380   36.8310 H   0  0  0  0  0  0  0  0  0  0  0  0
   37.3570   24.7630   39.0380 H   0  0  0  0  0  0  0  0  0  0  0  0
   38.8830   22.8560   39.5590 H   0  0  0  0  0  0  0  0  0  0  0  0
   40.4630   21.7640   37.8290 O   0  0  0  0  0  0  0  0  0  0  0  0
   40.8380   21.0990   37.1760 H   0  0  0  0  0  0  0  0  0  0  0  0
   36.8360   24.5480   31.3910 C   0  0  0  0  0  0  0  0  0  0  0  0
   36.0170   25.5820   30.9740 F   0  0  0  0  0  0  0  0  0  0  0  0
   37.5540   23.9560   30.3780 F   0  0  0  0  0  0  0  0  0  0  0  0
   36.0420   23.6000   32.0330 F   0  0  0  0  0  0  0  0  0  0  0  0
  1  2  1  0  0  0  0
  2  7  1  0  0  0  0
  2  3  2  0  0  0  0
  3 11  1  0  0  0  0
  4  3  1  0  0  0  0
  5  4  2  0  0  0  0
  6  1  2  0  0  0  0
  6  5  1  0  0  0  0
  8  5  1  0  0  0  0
  9 10  1  0  0  0  0
 10 15  1  0  0  0  0
 11 10  2  0  0  0  0
 11 12  1  0  0  0  0
 12 13  2  0  0  0  0
 13 14  1  0  0  0  0
 13 17  1  0  0  0  0
 14 18  1  0  0  0  0
 15 19  1  0  0  0  0
 15 14  2  0  0  0  0
 16 12  1  0  0  0  0
 20 19  1  0  0  0  0
 21 24  1  0  0  0  0
 21  1  1  0  0  0  0
 22 21  1  0  0  0  0
 23 21  1  0  0  0  0
M  END
>  <minimizedAffinity>
-5.20960999

$$$$

 OpenBabel03272504143D

 24 25  0  0  0  0  0  0  0  0999 V2000
   36.9600   24.8470   32.4930 C   0  0  0  0  0  0  0  0  0  0  0  0
   37.8340   24.1130   33.3100 C   0  0  0  0  0  0  0  0  0  0  0  0
   38.5360   24.7220   34.3300 C   0  0  0  0  0  0  0  0  0  0  0  0
   38.3170   26.0710   34.4780 N   0  0  0  0  0  0  0  0  0  0  0  0
   37.4800   26.7570   33.6920 C   0  0  0  0  0  0  0  0  0  0  0  0
   36.8160   26.1410   32.7150 N   0  0  0  0  0  0  0  0  0  0  0  0
   37.9530   23.0580   33.1300 H   0  0  0  0  0  0  0  0  0  0  0  0
   37.4100   27.8110   33.9280 H   0  0  0  0  0  0  0  0  0  0  0  0
   37.3490   23.9830   37.0080 Cl  0  0  0  0  0  0  0  0  0  0  0  0
   38.9870   23.6090   36.4220 C   0  0  0  0  0  0  0  0  0  0  0  0
   39.4360   23.9920   35.1790 C   0  0  0  0  0  0  0  0  0  0  0  0
   40.7170   23.6350   34.8640 C   0  0  0  0  0  0  0  0  0  0  0  0
   41.5060   22.9370   35.7350 C   0  0  0  0  0  0  0  0  0  0  0  0
   41.0730   22.5440   36.9870 C   0  0  0  0  0  0  0  0  0  0  0  0
   39.7640   22.9050   37.3160 C   0  0  0  0  0  0  0  0  0  0  0  0
   41.0940   23.9250   33.8900 H   0  0  0  0  0  0  0  0  0  0  0  0
   42.5090   22.6930   35.4110 H   0  0  0  0  0  0  0  0  0  0  0  0
   41.7070   21.9920   37.6700 H   0  0  0  0  0  0  0  0  0  0  0  0
   39.3420   22.5030   38.5790 O   0  0  0  0  0  0  0  0  0  0  0  0
   38.6030   22.9260   39.1120 H   0  0  0  0  0  0  0  0  0  0  0  0
   36.2250   24.1370   31.4030 C   0  0  0  0  0  0  0  0  0  0  0  0
   35.6100   23.0130   31.9240 F   0  0  0  0  0  0  0  0  0  0  0  0
   35.3580   25.0390   30.8340 F   0  0  0  0  0  0  0  0  0  0  0  0
   37.1660   23.7180   30.4640 F   0  0  0  0  0  0  0  0  0  0  0  0
  1  6  2  0  0  0  0
  1  2  1  0  0  0  0
  2  3  2  0  0  0  0
  3  4  1  0  0  0  0
  3 11  1  0  0  0  0
  5  8  1  0  0  0  0
  5  4  2  0  0  0  0
  6  5  1  0  0  0  0
  7  2  1  0  0  0  0
 10  9  1  0  0  0  0
 10 15  1  0  0  0  0
 11 10  2  0  0  0  0
 12 11  1  0  0  0  0
 12 13  2  0  0  0  0
 13 14  1  0  0  0  0
 14 15  2  0  0  0  0
 14 18  1  0  0  0  0
 15 19  1  0  0  0  0
 16 12  1  0  0  0  0
 17 13  1  0  0  0  0
 19 20  1  0  0  0  0
 21 22  1  0  0  0  0
 21  1  1  0  0  0  0
 23 21  1  0  0  0  0
 24 21  1  0  0  0  0
M  END
>  <minimizedAffinity>
-5.18342924

$$$$

 OpenBabel03272504143D

 24 25  0  0  0  0  0  0  0  0999 V2000
   39.1090   25.8430   32.6280 C   0  0  0  0  0  0  0  0  0  0  0  0
   39.1910   25.5350   33.9940 C   0  0  0  0  0  0  0  0  0  0  0  0
   38.5480   24.4310   34.5170 C   0  0  0  0  0  0  0  0  0  0  0  0
   37.8390   23.6760   33.6140 N   0  0  0  0  0  0  0  0  0  0  0  0
   37.7700   23.9810   32.3140 C   0  0  0  0  0  0  0  0  0  0  0  0
   38.4010   25.0540   31.8390 N   0  0  0  0  0  0  0  0  0  0  0  0
   39.7670   26.1780   34.6400 H   0  0  0  0  0  0  0  0  0  0  0  0
   37.1750   23.2950   31.7250 H   0  0  0  0  0  0  0  0  0  0  0  0
   40.5820   22.2890   35.1520 Cl  0  0  0  0  0  0  0  0  0  0  0  0
   39.5160   23.1300   36.3020 C   0  0  0  0  0  0  0  0  0  0  0  0
   38.6190   24.0970   35.9120 C   0  0  0  0  0  0  0  0  0  0  0  0
   37.8650   24.6560   36.9060 C   0  0  0  0  0  0  0  0  0  0  0  0
   37.9980   24.2770   38.2120 C   0  0  0  0  0  0  0  0  0  0  0  0
   38.8940   23.3080   38.6230 C   0  0  0  0  0  0  0  0  0  0  0  0
   39.6680   22.7310   37.6120 C   0  0  0  0  0  0  0  0  0  0  0  0
   37.1500   25.4210   36.6240 H   0  0  0  0  0  0  0  0  0  0  0  0
   37.3650   24.7680   38.9390 H   0  0  0  0  0  0  0  0  0  0  0  0
   38.9910   23.0150   39.6610 H   0  0  0  0  0  0  0  0  0  0  0  0
   40.5650   21.7590   38.0400 O   0  0  0  0  0  0  0  0  0  0  0  0
   40.9490   21.0250   37.4720 H   0  0  0  0  0  0  0  0  0  0  0  0
   39.8240   27.0510   32.1160 C   0  0  0  0  0  0  0  0  0  0  0  0
   38.9120   27.9040   31.5220 F   0  0  0  0  0  0  0  0  0  0  0  0
   40.5060   27.6050   33.1740 F   0  0  0  0  0  0  0  0  0  0  0  0
   40.7200   26.6260   31.1370 F   0  0  0  0  0  0  0  0  0  0  0  0
  1  2  1  0  0  0  0
  2  3  2  0  0  0  0
  2  7  1  0  0  0  0
  3 11  1  0  0  0  0
  4  3  1  0  0  0  0
  5  4  2  0  0  0  0
  6  5  1  0  0  0  0
  6  1  2  0  0  0  0
  8  5  1  0  0  0  0
  9 10  1  0  0  0  0
 10 15  1  0  0  0  0
 11 10  2  0  0  0  0
 11 12  1  0  0  0  0
 12 13  2  0  0  0  0
 13 14  1  0  0  0  0
 13 17  1  0  0  0  0
 14 18  1  0  0  0  0
 15 19  1  0  0  0  0
 15 14  2  0  0  0  0
 16 12  1  0  0  0  0
 20 19  1  0  0  0  0
 21  1  1  0  0  0  0
 21 23  1  0  0  0  0
 22 21  1  0  0  0  0
 24 21  1  0  0  0  0
M  END
>  <minimizedAffinity>
-5.15438986

$$$$

 OpenBabel03272504143D

 24 25  0  0  0  0  0  0  0  0999 V2000
   37.5920   26.0030   32.9830 C   0  0  0  0  0  0  0  0  0  0  0  0
   37.8760   25.7010   34.3230 C   0  0  0  0  0  0  0  0  0  0  0  0
   38.0240   24.3940   34.7440 C   0  0  0  0  0  0  0  0  0  0  0  0
   37.8760   23.4370   33.7680 N   0  0  0  0  0  0  0  0  0  0  0  0
   37.6060   23.7410   32.4940 C   0  0  0  0  0  0  0  0  0  0  0  0
   37.4690   25.0120   32.1180 N   0  0  0  0  0  0  0  0  0  0  0  0
   37.9760   26.5080   35.0300 H   0  0  0  0  0  0  0  0  0  0  0  0
   37.5170   22.8830   31.8400 H   0  0  0  0  0  0  0  0  0  0  0  0
   40.3770   22.5270   35.0640 Cl  0  0  0  0  0  0  0  0  0  0  0  0
   39.3700   23.2140   36.3600 C   0  0  0  0  0  0  0  0  0  0  0  0
   38.3140   24.0610   36.1100 C   0  0  0  0  0  0  0  0  0  0  0  0
   37.6300   24.5110   37.2040 C   0  0  0  0  0  0  0  0  0  0  0  0
   37.9760   24.1420   38.4730 C   0  0  0  0  0  0  0  0  0  0  0  0
   39.0330   23.2930   38.7450 C   0  0  0  0  0  0  0  0  0  0  0  0
   39.7370   22.8280   37.6310 C   0  0  0  0  0  0  0  0  0  0  0  0
   36.7940   25.1790   37.0330 H   0  0  0  0  0  0  0  0  0  0  0  0
   37.3840   24.5420   39.2870 H   0  0  0  0  0  0  0  0  0  0  0  0
   39.2980   23.0070   39.7550 H   0  0  0  0  0  0  0  0  0  0  0  0
   40.7980   21.9760   37.9190 O   0  0  0  0  0  0  0  0  0  0  0  0
   41.1960   21.3020   37.2890 H   0  0  0  0  0  0  0  0  0  0  0  0
   37.4410   27.4350   32.5830 C   0  0  0  0  0  0  0  0  0  0  0  0
   37.0630   28.1800   33.6860 F   0  0  0  0  0  0  0  0  0  0  0  0
   38.6300   27.8330   32.0170 F   0  0  0  0  0  0  0  0  0  0  0  0
   36.4150   27.5040   31.6420 F   0  0  0  0  0  0  0  0  0  0  0  0
  1  2  1  0  0  0  0
  2  3  2  0  0  0  0
  2  7  1  0  0  0  0
  3 11  1  0  0  0  0
  4  3  1  0  0  0  0
  5  4  2  0  0  0  0
  6  5  1  0  0  0  0
  6  1  2  0  0  0  0
  8  5  1  0  0  0  0
  9 10  1  0  0  0  0
 10 15  1  0  0  0  0
 11 10  2  0  0  0  0
 11 12  1  0  0  0  0
 12 13  2  0  0  0  0
 13 14  1  0  0  0  0
 13 17  1  0  0  0  0
 14 18  1  0  0  0  0
 15 19  1  0  0  0  0
 15 14  2  0  0  0  0
 16 12  1  0  0  0  0
 20 19  1  0  0  0  0
 21  1  1  0  0  0  0
 21 22  1  0  0  0  0
 23 21  1  0  0  0  0
 24 21  1  0  0  0  0
M  END
>  <minimizedAffinity>
-5.12990808

$$$$

 OpenBabel03272504143D

 24 25  0  0  0  0  0  0  0  0999 V2000
   38.9580   23.8010   36.3620 C   0  0  0  0  0  0  0  0  0  0  0  0
   38.0060   24.0180   35.3540 C   0  0  0  0  0  0  0  0  0  0  0  0
   38.3830   24.1430   34.0320 C   0  0  0  0  0  0  0  0  0  0  0  0
   39.7320   24.0390   33.7880 N   0  0  0  0  0  0  0  0  0  0  0  0
   40.6270   23.8320   34.7580 C   0  0  0  0  0  0  0  0  0  0  0  0
   40.2330   23.7150   36.0260 N   0  0  0  0  0  0  0  0  0  0  0  0
   36.9660   24.0880   35.6260 H   0  0  0  0  0  0  0  0  0  0  0  0
   41.6520   23.7730   34.4150 H   0  0  0  0  0  0  0  0  0  0  0  0
   37.7670   27.0600   33.5480 Cl  0  0  0  0  0  0  0  0  0  0  0  0
   37.0790   25.6630   32.6880 C   0  0  0  0  0  0  0  0  0  0  0  0
   37.4270   24.3650   32.9840 C   0  0  0  0  0  0  0  0  0  0  0  0
   36.8170   23.3930   32.2400 C   0  0  0  0  0  0  0  0  0  0  0  0
   35.9170   23.6960   31.2580 C   0  0  0  0  0  0  0  0  0  0  0  0
   35.5550   24.9930   30.9460 C   0  0  0  0  0  0  0  0  0  0  0  0
   36.1740   25.9920   31.7020 C   0  0  0  0  0  0  0  0  0  0  0  0
   37.0740   22.3620   32.4540 H   0  0  0  0  0  0  0  0  0  0  0  0
   35.4780   22.8690   30.7140 H   0  0  0  0  0  0  0  0  0  0  0  0
   34.8400   25.2210   30.1660 H   0  0  0  0  0  0  0  0  0  0  0  0
   35.8020   27.2920   31.3780 O   0  0  0  0  0  0  0  0  0  0  0  0
   35.8640   28.0890   31.9860 H   0  0  0  0  0  0  0  0  0  0  0  0
   38.4940   23.6740   37.7760 C   0  0  0  0  0  0  0  0  0  0  0  0
   37.3700   22.8690   37.8170 F   0  0  0  0  0  0  0  0  0  0  0  0
   39.5520   23.1990   38.5160 F   0  0  0  0  0  0  0  0  0  0  0  0
   38.1330   24.9450   38.2170 F   0  0  0  0  0  0  0  0  0  0  0  0
  1 21  1  0  0  0  0
  2  7  1  0  0  0  0
  2  1  2  0  0  0  0
  3  2  1  0  0  0  0
  4  3  2  0  0  0  0
  4  5  1  0  0  0  0
  5  6  2  0  0  0  0
  6  1  1  0  0  0  0
  8  5  1  0  0  0  0
 10 11  1  0  0  0  0
 10  9  1  0  0  0  0
 11  3  1  0  0  0  0
 12 16  1  0  0  0  0
 12 11  2  0  0  0  0
 13 12  1  0  0  0  0
 14 13  2  0  0  0  0
 14 15  1  0  0  0  0
 15 10  2  0  0  0  0
 17 13  1  0  0  0  0
 18 14  1  0  0  0  0
 19 15  1  0  0  0  0
 19 20  1  0  0  0  0
 21 22  1  0  0  0  0
 21 24  1  0  0  0  0
 21 23  1  0  0  0  0
M  END
>  <minimizedAffinity>
-5.08603859

$$$$

 OpenBabel03272504143D

 24 25  0  0  0  0  0  0  0  0999 V2000
   40.0670   22.9990   37.0700 C   0  0  0  0  0  0  0  0  0  0  0  0
   39.6290   23.9180   36.1050 C   0  0  0  0  0  0  0  0  0  0  0  0
   38.4450   24.6090   36.2640 C   0  0  0  0  0  0  0  0  0  0  0  0
   37.7460   24.3320   37.4150 N   0  0  0  0  0  0  0  0  0  0  0  0
   38.1760   23.4530   38.3260 C   0  0  0  0  0  0  0  0  0  0  0  0
   39.3240   22.8010   38.1450 N   0  0  0  0  0  0  0  0  0  0  0  0
   40.2330   24.0800   35.2280 H   0  0  0  0  0  0  0  0  0  0  0  0
   37.5210   23.3390   39.1800 H   0  0  0  0  0  0  0  0  0  0  0  0
   37.7910   23.3720   33.5860 Cl  0  0  0  0  0  0  0  0  0  0  0  0
   37.6530   25.0880   34.0360 C   0  0  0  0  0  0  0  0  0  0  0  0
   37.9770   25.5550   35.2890 C   0  0  0  0  0  0  0  0  0  0  0  0
   37.8200   26.8980   35.4920 C   0  0  0  0  0  0  0  0  0  0  0  0
   37.3670   27.7270   34.5050 C   0  0  0  0  0  0  0  0  0  0  0  0
   37.0360   27.2770   33.2410 C   0  0  0  0  0  0  0  0  0  0  0  0
   37.1940   25.9050   33.0260 C   0  0  0  0  0  0  0  0  0  0  0  0
   38.0690   27.2900   36.4710 H   0  0  0  0  0  0  0  0  0  0  0  0
   37.2700   28.7790   34.7450 H   0  0  0  0  0  0  0  0  0  0  0  0
   36.6780   27.9440   32.4660 H   0  0  0  0  0  0  0  0  0  0  0  0
   36.8570   25.4660   31.7510 O   0  0  0  0  0  0  0  0  0  0  0  0
   37.1970   24.6300   31.3090 H   0  0  0  0  0  0  0  0  0  0  0  0
   41.3570   22.2780   36.8470 C   0  0  0  0  0  0  0  0  0  0  0  0
   41.3040   21.6120   35.6360 F   0  0  0  0  0  0  0  0  0  0  0  0
   42.3680   23.2060   36.9350 F   0  0  0  0  0  0  0  0  0  0  0  0
   41.4880   21.3280   37.8580 F   0  0  0  0  0  0  0  0  0  0  0  0
  1  6  1  0  0  0  0
  2  3  1  0  0  0  0
  2  1  2  0  0  0  0
  3  4  2  0  0  0  0
  4  5  1  0  0  0  0
  5  8  1  0  0  0  0
  6  5  2  0  0  0  0
  7  2  1  0  0  0  0
  9 10  1  0  0  0  0
 10 11  1  0  0  0  0
 11 12  2  0  0  0  0
 11  3  1  0  0  0  0
 12 16  1  0  0  0  0
 13 17  1  0  0  0  0
 13 12  1  0  0  0  0
 14 13  2  0  0  0  0
 15 14  1  0  0  0  0
 15 10  2  0  0  0  0
 18 14  1  0  0  0  0
 19 15  1  0  0  0  0
 20 19  1  0  0  0  0
 21 23  1  0  0  0  0
 21  1  1  0  0  0  0
 21 24  1  0  0  0  0
 22 21  1  0  0  0  0
M  END
>  <minimizedAffinity>
-5.08539486

$$$$
