
 OpenBabel03272510143D

 34 36  0  0  0  0  0  0  0  0999 V2000
   35.7610   28.9820   34.0910 C   0  0  0  0  0  0  0  0  0  0  0  0
   36.6320   28.0760   34.5760 C   0  0  0  0  0  0  0  0  0  0  0  0
   37.1300   27.0060   33.8630 C   0  0  0  0  0  0  0  0  0  0  0  0
   36.7380   26.8120   32.5700 C   0  0  0  0  0  0  0  0  0  0  0  0
   35.8370   27.7430   32.0560 C   0  0  0  0  0  0  0  0  0  0  0  0
   35.3900   28.7620   32.8010 N   0  0  0  0  0  0  0  0  0  0  0  0
   36.9990   28.1510   35.5960 H   0  0  0  0  0  0  0  0  0  0  0  0
   37.8320   26.2770   34.2550 H   0  0  0  0  0  0  0  0  0  0  0  0
   35.4830   27.6510   31.0340 H   0  0  0  0  0  0  0  0  0  0  0  0
   36.0110   30.9550   35.5920 C   0  0  0  0  0  0  0  0  0  0  0  0
   35.2270   30.0780   34.8340 C   0  0  0  0  0  0  0  0  0  0  0  0
   33.8670   30.3040   34.8400 C   0  0  0  0  0  0  0  0  0  0  0  0
   33.3440   31.3400   35.5630 N   0  0  0  0  0  0  0  0  0  0  0  0
   34.1530   32.1560   36.2800 C   0  0  0  0  0  0  0  0  0  0  0  0
   35.4920   31.9790   36.3060 N   0  0  0  0  0  0  0  0  0  0  0  0
   37.0830   30.8160   35.6160 H   0  0  0  0  0  0  0  0  0  0  0  0
   33.2150   29.6480   34.2650 H   0  0  0  0  0  0  0  0  0  0  0  0
   33.7080   32.9690   36.8420 H   0  0  0  0  0  0  0  0  0  0  0  0
   37.1380   25.7870   31.7080 O   0  0  0  0  0  0  0  0  0  0  0  0
   36.8720   24.4600   31.9790 C   0  0  0  0  0  0  0  0  0  0  0  0
   35.7150   24.0000   31.3810 C   0  0  0  0  0  0  0  0  0  0  0  0
   35.5740   22.6530   31.7410 C   0  0  0  0  0  0  0  0  0  0  0  0
   36.6290   22.3560   32.5280 N   0  0  0  0  0  0  0  0  0  0  0  0
   37.3830   23.4100   32.6640 N   0  0  0  0  0  0  0  0  0  0  0  0
   34.9310   24.3980   30.7370 H   0  0  0  0  0  0  0  0  0  0  0  0
   34.8030   21.9210   31.4840 H   0  0  0  0  0  0  0  0  0  0  0  0
   36.8850   21.0620   33.1270 C   0  0  0  0  0  0  0  0  0  0  0  0
   37.4380   20.3800   32.4670 H   0  0  0  0  0  0  0  0  0  0  0  0
   37.4420   21.2730   34.0750 H   0  0  0  0  0  0  0  0  0  0  0  0
   35.5370   20.5020   33.5550 C   0  0  0  0  0  0  0  0  0  0  0  0
   35.5140   19.4340   33.1950 H   0  0  0  0  0  0  0  0  0  0  0  0
   34.7500   21.1010   33.0790 H   0  0  0  0  0  0  0  0  0  0  0  0
   35.4420   20.4150   34.9400 O   0  0  0  0  0  0  0  0  0  0  0  0
   34.6550   19.8500   35.1550 H   0  0  0  0  0  0  0  0  0  0  0  0
  1  2  1  0  0  0  0
  1 11  1  0  0  0  0
  2  7  1  0  0  0  0
  3  8  1  0  0  0  0
  3  2  2  0  0  0  0
  4  3  1  0  0  0  0
  5  4  2  0  0  0  0
  5  6  1  0  0  0  0
  6  1  2  0  0  0  0
  9  5  1  0  0  0  0
 10 16  1  0  0  0  0
 10 15  1  0  0  0  0
 11 12  1  0  0  0  0
 11 10  2  0  0  0  0
 12 13  2  0  0  0  0
 13 14  1  0  0  0  0
 14 15  2  0  0  0  0
 14 18  1  0  0  0  0
 17 12  1  0  0  0  0
 19 20  1  0  0  0  0
 19  4  1  0  0  0  0
 20 24  2  0  0  0  0
 21 22  2  0  0  0  0
 21 20  1  0  0  0  0
 22 23  1  0  0  0  0
 23 24  1  0  0  0  0
 23 27  1  0  0  0  0
 25 21  1  0  0  0  0
 26 22  1  0  0  0  0
 27 30  1  0  0  0  0
 27 29  1  0  0  0  0
 28 27  1  0  0  0  0
 30 33  1  0  0  0  0
 31 30  1  0  0  0  0
 32 30  1  0  0  0  0
 33 34  1  0  0  0  0
M  END
>  <minimizedAffinity>
-5.10282898

$$$$

 OpenBabel03272510143D

 34 36  0  0  0  0  0  0  0  0999 V2000
   38.2660   25.6180   35.4870 C   0  0  0  0  0  0  0  0  0  0  0  0
   38.1500   26.8720   35.9660 C   0  0  0  0  0  0  0  0  0  0  0  0
   37.5450   27.9160   35.2970 C   0  0  0  0  0  0  0  0  0  0  0  0
   37.0110   27.7070   34.0590 C   0  0  0  0  0  0  0  0  0  0  0  0
   37.1230   26.4120   33.5530 C   0  0  0  0  0  0  0  0  0  0  0  0
   37.7230   25.4420   34.2530 N   0  0  0  0  0  0  0  0  0  0  0  0
   38.5470   27.1310   36.9440 H   0  0  0  0  0  0  0  0  0  0  0  0
   37.4530   28.9250   35.6840 H   0  0  0  0  0  0  0  0  0  0  0  0
   36.7200   26.1740   32.5730 H   0  0  0  0  0  0  0  0  0  0  0  0
   38.4920   24.0470   37.4080 C   0  0  0  0  0  0  0  0  0  0  0  0
   38.9110   24.5420   36.1680 C   0  0  0  0  0  0  0  0  0  0  0  0
   40.0220   23.9460   35.6100 C   0  0  0  0  0  0  0  0  0  0  0  0
   40.6570   22.9270   36.2630 N   0  0  0  0  0  0  0  0  0  0  0  0
   40.2060   22.4910   37.4630 C   0  0  0  0  0  0  0  0  0  0  0  0
   39.1220   23.0390   38.0520 N   0  0  0  0  0  0  0  0  0  0  0  0
   37.6240   24.4850   37.8830 H   0  0  0  0  0  0  0  0  0  0  0  0
   40.3860   24.2960   34.6450 H   0  0  0  0  0  0  0  0  0  0  0  0
   40.7320   21.6800   37.9560 H   0  0  0  0  0  0  0  0  0  0  0  0
   36.3680   28.6430   33.2440 O   0  0  0  0  0  0  0  0  0  0  0  0
   35.4320   29.5240   33.7460 C   0  0  0  0  0  0  0  0  0  0  0  0
   34.1660   29.3350   33.2240 C   0  0  0  0  0  0  0  0  0  0  0  0
   33.3310   30.2900   33.8170 C   0  0  0  0  0  0  0  0  0  0  0  0
   34.1060   31.0070   34.6570 N   0  0  0  0  0  0  0  0  0  0  0  0
   35.3280   30.5580   34.6130 N   0  0  0  0  0  0  0  0  0  0  0  0
   33.6840   28.6690   32.5090 H   0  0  0  0  0  0  0  0  0  0  0  0
   32.2620   30.4860   33.6850 H   0  0  0  0  0  0  0  0  0  0  0  0
   33.6480   32.1050   35.4830 C   0  0  0  0  0  0  0  0  0  0  0  0
   34.1520   33.0550   35.2600 H   0  0  0  0  0  0  0  0  0  0  0  0
   32.5420   32.1670   35.3180 H   0  0  0  0  0  0  0  0  0  0  0  0
   33.8250   31.6710   36.9310 C   0  0  0  0  0  0  0  0  0  0  0  0
   33.9010   30.5460   36.9120 H   0  0  0  0  0  0  0  0  0  0  0  0
   32.9460   32.0020   37.4980 H   0  0  0  0  0  0  0  0  0  0  0  0
   35.0430   32.1040   37.4430 O   0  0  0  0  0  0  0  0  0  0  0  0
   35.2050   31.6180   38.2920 H   0  0  0  0  0  0  0  0  0  0  0  0
  1  2  1  0  0  0  0
  1 11  1  0  0  0  0
  2  7  1  0  0  0  0
  3  8  1  0  0  0  0
  3  2  2  0  0  0  0
  4  3  1  0  0  0  0
  5  4  2  0  0  0  0
  5  6  1  0  0  0  0
  6  1  2  0  0  0  0
  9  5  1  0  0  0  0
 10 16  1  0  0  0  0
 10 15  1  0  0  0  0
 11 10  2  0  0  0  0
 12 11  1  0  0  0  0
 12 13  2  0  0  0  0
 13 14  1  0  0  0  0
 14 18  1  0  0  0  0
 14 15  2  0  0  0  0
 17 12  1  0  0  0  0
 19 20  1  0  0  0  0
 19  4  1  0  0  0  0
 20 24  2  0  0  0  0
 21 20  1  0  0  0  0
 21 22  2  0  0  0  0
 22 23  1  0  0  0  0
 23 27  1  0  0  0  0
 24 23  1  0  0  0  0
 25 21  1  0  0  0  0
 26 22  1  0  0  0  0
 27 30  1  0  0  0  0
 28 27  1  0  0  0  0
 29 27  1  0  0  0  0
 30 33  1  0  0  0  0
 30 32  1  0  0  0  0
 31 30  1  0  0  0  0
 33 34  1  0  0  0  0
M  END
>  <minimizedAffinity>
-5.09264421

$$$$

 OpenBabel03272510143D

 34 36  0  0  0  0  0  0  0  0999 V2000
   37.9330   25.6050   35.0970 C   0  0  0  0  0  0  0  0  0  0  0  0
   37.5390   26.8710   35.3380 C   0  0  0  0  0  0  0  0  0  0  0  0
   37.0770   27.7460   34.3780 C   0  0  0  0  0  0  0  0  0  0  0  0
   36.9950   27.3420   33.0770 C   0  0  0  0  0  0  0  0  0  0  0  0
   37.3980   26.0330   32.8140 C   0  0  0  0  0  0  0  0  0  0  0  0
   37.8390   25.2320   33.7920 N   0  0  0  0  0  0  0  0  0  0  0  0
   37.5710   27.2780   36.3440 H   0  0  0  0  0  0  0  0  0  0  0  0
   36.7600   28.7650   34.5730 H   0  0  0  0  0  0  0  0  0  0  0  0
   37.3590   25.6440   31.8020 H   0  0  0  0  0  0  0  0  0  0  0  0
   37.8690   24.5610   37.3580 C   0  0  0  0  0  0  0  0  0  0  0  0
   38.4330   24.7040   36.0860 C   0  0  0  0  0  0  0  0  0  0  0  0
   39.5410   23.9310   35.8110 C   0  0  0  0  0  0  0  0  0  0  0  0
   40.0380   23.0800   36.7570 N   0  0  0  0  0  0  0  0  0  0  0  0
   39.4510   22.9840   37.9740 C   0  0  0  0  0  0  0  0  0  0  0  0
   38.3630   23.7170   38.2930 N   0  0  0  0  0  0  0  0  0  0  0  0
   36.9990   25.1470   37.6180 H   0  0  0  0  0  0  0  0  0  0  0  0
   40.0150   24.0080   34.8330 H   0  0  0  0  0  0  0  0  0  0  0  0
   39.8690   22.2980   38.7030 H   0  0  0  0  0  0  0  0  0  0  0  0
   36.5540   28.0910   31.9820 O   0  0  0  0  0  0  0  0  0  0  0  0
   35.4420   28.9050   32.0560 C   0  0  0  0  0  0  0  0  0  0  0  0
   35.5770   30.0830   31.3480 C   0  0  0  0  0  0  0  0  0  0  0  0
   34.3850   30.8000   31.5130 C   0  0  0  0  0  0  0  0  0  0  0  0
   33.5910   30.0450   32.2990 N   0  0  0  0  0  0  0  0  0  0  0  0
   34.2090   28.9420   32.6140 N   0  0  0  0  0  0  0  0  0  0  0  0
   36.3340   30.5660   30.7300 H   0  0  0  0  0  0  0  0  0  0  0  0
   34.0770   31.7750   31.1220 H   0  0  0  0  0  0  0  0  0  0  0  0
   32.2540   30.4050   32.7260 C   0  0  0  0  0  0  0  0  0  0  0  0
   32.2170   31.3490   33.2860 H   0  0  0  0  0  0  0  0  0  0  0  0
   31.6390   30.4470   31.7910 H   0  0  0  0  0  0  0  0  0  0  0  0
   31.7150   29.2270   33.5230 C   0  0  0  0  0  0  0  0  0  0  0  0
   30.7290   29.5640   33.9520 H   0  0  0  0  0  0  0  0  0  0  0  0
   32.4360   28.9910   34.3160 H   0  0  0  0  0  0  0  0  0  0  0  0
   31.3960   28.1570   32.6930 O   0  0  0  0  0  0  0  0  0  0  0  0
   30.8550   27.5150   33.2200 H   0  0  0  0  0  0  0  0  0  0  0  0
  1  2  1  0  0  0  0
  1 11  1  0  0  0  0
  2  7  1  0  0  0  0
  3  8  1  0  0  0  0
  3  2  2  0  0  0  0
  4  3  1  0  0  0  0
  5  4  2  0  0  0  0
  5  6  1  0  0  0  0
  6  1  2  0  0  0  0
  9  5  1  0  0  0  0
 10 16  1  0  0  0  0
 10 15  1  0  0  0  0
 11 10  2  0  0  0  0
 12 11  1  0  0  0  0
 12 13  2  0  0  0  0
 13 14  1  0  0  0  0
 14 15  2  0  0  0  0
 14 18  1  0  0  0  0
 17 12  1  0  0  0  0
 19 20  1  0  0  0  0
 19  4  1  0  0  0  0
 20 24  2  0  0  0  0
 21 22  2  0  0  0  0
 21 20  1  0  0  0  0
 22 23  1  0  0  0  0
 23 24  1  0  0  0  0
 23 27  1  0  0  0  0
 25 21  1  0  0  0  0
 26 22  1  0  0  0  0
 27 28  1  0  0  0  0
 27 30  1  0  0  0  0
 29 27  1  0  0  0  0
 30 31  1  0  0  0  0
 30 32  1  0  0  0  0
 33 34  1  0  0  0  0
 33 30  1  0  0  0  0
M  END
>  <minimizedAffinity>
-4.97065878

$$$$

 OpenBabel03272510143D

 34 36  0  0  0  0  0  0  0  0999 V2000
   36.1820   22.9520   31.9710 C   0  0  0  0  0  0  0  0  0  0  0  0
   35.4150   23.8060   31.2660 C   0  0  0  0  0  0  0  0  0  0  0  0
   35.5760   25.1750   31.2470 C   0  0  0  0  0  0  0  0  0  0  0  0
   36.5740   25.7490   31.9810 C   0  0  0  0  0  0  0  0  0  0  0  0
   37.3760   24.8760   32.7140 C   0  0  0  0  0  0  0  0  0  0  0  0
   37.1670   23.5540   32.6900 N   0  0  0  0  0  0  0  0  0  0  0  0
   34.5960   23.4380   30.6530 H   0  0  0  0  0  0  0  0  0  0  0  0
   34.9580   25.8620   30.6790 H   0  0  0  0  0  0  0  0  0  0  0  0
   38.1900   25.2630   33.3200 H   0  0  0  0  0  0  0  0  0  0  0  0
   36.1440   20.7070   30.8910 C   0  0  0  0  0  0  0  0  0  0  0  0
   36.0030   21.5360   32.0090 C   0  0  0  0  0  0  0  0  0  0  0  0
   35.6540   20.9210   33.1930 C   0  0  0  0  0  0  0  0  0  0  0  0
   35.4630   19.5690   33.2360 N   0  0  0  0  0  0  0  0  0  0  0  0
   35.6120   18.8170   32.1200 C   0  0  0  0  0  0  0  0  0  0  0  0
   35.9540   19.3690   30.9360 N   0  0  0  0  0  0  0  0  0  0  0  0
   36.4170   21.1460   29.9410 H   0  0  0  0  0  0  0  0  0  0  0  0
   35.5330   21.5250   34.0910 H   0  0  0  0  0  0  0  0  0  0  0  0
   35.4530   17.7460   32.1860 H   0  0  0  0  0  0  0  0  0  0  0  0
   36.8790   27.1100   32.0790 O   0  0  0  0  0  0  0  0  0  0  0  0
   35.9790   28.0230   32.5890 C   0  0  0  0  0  0  0  0  0  0  0  0
   36.2790   28.4270   33.8760 C   0  0  0  0  0  0  0  0  0  0  0  0
   35.2910   29.3430   34.2600 C   0  0  0  0  0  0  0  0  0  0  0  0
   34.4480   29.4570   33.2130 N   0  0  0  0  0  0  0  0  0  0  0  0
   34.8520   28.6880   32.2420 N   0  0  0  0  0  0  0  0  0  0  0  0
   37.0450   28.2220   34.6240 H   0  0  0  0  0  0  0  0  0  0  0  0
   35.1540   29.8980   35.1930 H   0  0  0  0  0  0  0  0  0  0  0  0
   33.2760   30.3070   33.1740 C   0  0  0  0  0  0  0  0  0  0  0  0
   33.3870   31.2260   33.7640 H   0  0  0  0  0  0  0  0  0  0  0  0
   33.0950   30.5230   32.0900 H   0  0  0  0  0  0  0  0  0  0  0  0
   32.1000   29.4550   33.6280 C   0  0  0  0  0  0  0  0  0  0  0  0
   31.1980   30.1300   33.6090 H   0  0  0  0  0  0  0  0  0  0  0  0
   32.3090   29.0950   34.6430 H   0  0  0  0  0  0  0  0  0  0  0  0
   31.8160   28.4520   32.7060 O   0  0  0  0  0  0  0  0  0  0  0  0
   30.9270   28.0760   32.9320 H   0  0  0  0  0  0  0  0  0  0  0  0
  1 11  1  0  0  0  0
  1  6  1  0  0  0  0
  2  1  2  0  0  0  0
  3  2  1  0  0  0  0
  3  4  2  0  0  0  0
  4 19  1  0  0  0  0
  4  5  1  0  0  0  0
  5  9  1  0  0  0  0
  6  5  2  0  0  0  0
  7  2  1  0  0  0  0
  8  3  1  0  0  0  0
 10 15  2  0  0  0  0
 10 11  1  0  0  0  0
 11 12  2  0  0  0  0
 12 13  1  0  0  0  0
 12 17  1  0  0  0  0
 14 18  1  0  0  0  0
 14 13  2  0  0  0  0
 15 14  1  0  0  0  0
 16 10  1  0  0  0  0
 19 20  1  0  0  0  0
 20 21  1  0  0  0  0
 21 22  2  0  0  0  0
 21 25  1  0  0  0  0
 22 26  1  0  0  0  0
 23 22  1  0  0  0  0
 24 20  2  0  0  0  0
 24 23  1  0  0  0  0
 27 23  1  0  0  0  0
 27 30  1  0  0  0  0
 27 28  1  0  0  0  0
 29 27  1  0  0  0  0
 30 32  1  0  0  0  0
 31 30  1  0  0  0  0
 33 34  1  0  0  0  0
 33 30  1  0  0  0  0
M  END
>  <minimizedAffinity>
-4.93442106

$$$$

 OpenBabel03272510143D

 34 36  0  0  0  0  0  0  0  0999 V2000
   36.3990   28.0970   33.7460 C   0  0  0  0  0  0  0  0  0  0  0  0
   37.1350   27.8100   34.8370 C   0  0  0  0  0  0  0  0  0  0  0  0
   38.0640   26.7940   34.9140 C   0  0  0  0  0  0  0  0  0  0  0  0
   38.2850   25.9960   33.8290 C   0  0  0  0  0  0  0  0  0  0  0  0
   37.5300   26.2830   32.6920 C   0  0  0  0  0  0  0  0  0  0  0  0
   36.6430   27.2860   32.6820 N   0  0  0  0  0  0  0  0  0  0  0  0
   37.0250   28.3920   35.7480 H   0  0  0  0  0  0  0  0  0  0  0  0
   38.6560   26.5640   35.7930 H   0  0  0  0  0  0  0  0  0  0  0  0
   37.6560   25.6900   31.7910 H   0  0  0  0  0  0  0  0  0  0  0  0
   34.4090   29.1760   32.7050 C   0  0  0  0  0  0  0  0  0  0  0  0
   35.4200   29.1340   33.6710 C   0  0  0  0  0  0  0  0  0  0  0  0
   35.4560   30.1760   34.5730 C   0  0  0  0  0  0  0  0  0  0  0  0
   34.5350   31.1830   34.4990 N   0  0  0  0  0  0  0  0  0  0  0  0
   33.5790   31.1720   33.5400 C   0  0  0  0  0  0  0  0  0  0  0  0
   33.4990   30.1740   32.6330 N   0  0  0  0  0  0  0  0  0  0  0  0
   34.3430   28.3800   31.9770 H   0  0  0  0  0  0  0  0  0  0  0  0
   36.2250   30.1870   35.3450 H   0  0  0  0  0  0  0  0  0  0  0  0
   32.8620   31.9850   33.5070 H   0  0  0  0  0  0  0  0  0  0  0  0
   39.1810   24.9280   33.7300 O   0  0  0  0  0  0  0  0  0  0  0  0
   39.3920   24.0550   34.7780 C   0  0  0  0  0  0  0  0  0  0  0  0
   38.5280   22.9780   34.7770 C   0  0  0  0  0  0  0  0  0  0  0  0
   38.8560   22.1860   35.8850 C   0  0  0  0  0  0  0  0  0  0  0  0
   39.8850   22.8020   36.5030 N   0  0  0  0  0  0  0  0  0  0  0  0
   40.1950   23.8890   35.8560 N   0  0  0  0  0  0  0  0  0  0  0  0
   37.7030   22.6120   34.1660 H   0  0  0  0  0  0  0  0  0  0  0  0
   38.4210   21.2500   36.2490 H   0  0  0  0  0  0  0  0  0  0  0  0
   40.5450   22.3250   37.7010 C   0  0  0  0  0  0  0  0  0  0  0  0
   40.9380   23.1340   38.3310 H   0  0  0  0  0  0  0  0  0  0  0  0
   39.7840   21.7050   38.2390 H   0  0  0  0  0  0  0  0  0  0  0  0
   41.6260   21.3530   37.2500 C   0  0  0  0  0  0  0  0  0  0  0  0
   42.5510   21.9740   37.0750 H   0  0  0  0  0  0  0  0  0  0  0  0
   41.2880   20.8700   36.3250 H   0  0  0  0  0  0  0  0  0  0  0  0
   41.9730   20.4740   38.2700 O   0  0  0  0  0  0  0  0  0  0  0  0
   42.8150   20.0200   38.0060 H   0  0  0  0  0  0  0  0  0  0  0  0
  1  2  1  0  0  0  0
  2  3  2  0  0  0  0
  2  7  1  0  0  0  0
  3  8  1  0  0  0  0
  4  3  1  0  0  0  0
  5  4  2  0  0  0  0
  6  5  1  0  0  0  0
  6  1  2  0  0  0  0
  9  5  1  0  0  0  0
 10 11  1  0  0  0  0
 11  1  1  0  0  0  0
 11 12  2  0  0  0  0
 12 17  1  0  0  0  0
 13 12  1  0  0  0  0
 14 13  2  0  0  0  0
 15 10  2  0  0  0  0
 15 14  1  0  0  0  0
 16 10  1  0  0  0  0
 18 14  1  0  0  0  0
 19  4  1  0  0  0  0
 19 20  1  0  0  0  0
 20 24  2  0  0  0  0
 21 20  1  0  0  0  0
 21 22  2  0  0  0  0
 22 26  1  0  0  0  0
 22 23  1  0  0  0  0
 23 27  1  0  0  0  0
 24 23  1  0  0  0  0
 25 21  1  0  0  0  0
 27 29  1  0  0  0  0
 27 28  1  0  0  0  0
 30 27  1  0  0  0  0
 30 33  1  0  0  0  0
 31 30  1  0  0  0  0
 32 30  1  0  0  0  0
 34 33  1  0  0  0  0
M  END
>  <minimizedAffinity>
-4.82705736

$$$$

 OpenBabel03272510143D

 34 36  0  0  0  0  0  0  0  0999 V2000
   35.9700   28.0650   32.6040 C   0  0  0  0  0  0  0  0  0  0  0  0
   36.6320   27.8870   33.7630 C   0  0  0  0  0  0  0  0  0  0  0  0
   37.5050   26.8500   34.0190 C   0  0  0  0  0  0  0  0  0  0  0  0
   37.7430   25.9130   33.0560 C   0  0  0  0  0  0  0  0  0  0  0  0
   37.0650   26.0860   31.8500 C   0  0  0  0  0  0  0  0  0  0  0  0
   36.2300   27.1160   31.6640 N   0  0  0  0  0  0  0  0  0  0  0  0
   36.5030   28.5840   34.5870 H   0  0  0  0  0  0  0  0  0  0  0  0
   38.0370   26.7090   34.9540 H   0  0  0  0  0  0  0  0  0  0  0  0
   37.2080   25.3790   31.0390 H   0  0  0  0  0  0  0  0  0  0  0  0
   33.8200   29.2610   32.9980 C   0  0  0  0  0  0  0  0  0  0  0  0
   35.0500   29.1250   32.3440 C   0  0  0  0  0  0  0  0  0  0  0  0
   35.3490   30.0740   31.3900 C   0  0  0  0  0  0  0  0  0  0  0  0
   34.4670   31.0820   31.1210 N   0  0  0  0  0  0  0  0  0  0  0  0
   33.2900   31.1620   31.7850 C   0  0  0  0  0  0  0  0  0  0  0  0
   32.9480   30.2590   32.7300 N   0  0  0  0  0  0  0  0  0  0  0  0
   33.5430   28.5390   33.7540 H   0  0  0  0  0  0  0  0  0  0  0  0
   36.2960   30.0100   30.8540 H   0  0  0  0  0  0  0  0  0  0  0  0
   32.6110   31.9740   31.5490 H   0  0  0  0  0  0  0  0  0  0  0  0
   38.5890   24.8040   33.1440 O   0  0  0  0  0  0  0  0  0  0  0  0
   38.7540   24.1040   34.3220 C   0  0  0  0  0  0  0  0  0  0  0  0
   38.0230   22.9330   34.3710 C   0  0  0  0  0  0  0  0  0  0  0  0
   38.2860   22.3360   35.6110 C   0  0  0  0  0  0  0  0  0  0  0  0
   39.1480   23.1520   36.2520 N   0  0  0  0  0  0  0  0  0  0  0  0
   39.4180   24.1800   35.4990 N   0  0  0  0  0  0  0  0  0  0  0  0
   37.3340   22.3900   33.7250 H   0  0  0  0  0  0  0  0  0  0  0  0
   37.9140   21.4050   36.0490 H   0  0  0  0  0  0  0  0  0  0  0  0
   39.6910   22.9190   37.5750 C   0  0  0  0  0  0  0  0  0  0  0  0
   39.9330   21.8640   37.7650 H   0  0  0  0  0  0  0  0  0  0  0  0
   40.5920   23.5780   37.6530 H   0  0  0  0  0  0  0  0  0  0  0  0
   38.6830   23.4780   38.5680 C   0  0  0  0  0  0  0  0  0  0  0  0
   37.9140   24.0300   37.9560 H   0  0  0  0  0  0  0  0  0  0  0  0
   39.2130   24.1570   39.2490 H   0  0  0  0  0  0  0  0  0  0  0  0
   37.9750   22.4610   39.1990 O   0  0  0  0  0  0  0  0  0  0  0  0
   37.1980   22.8710   39.6580 H   0  0  0  0  0  0  0  0  0  0  0  0
  1  2  1  0  0  0  0
  2  3  2  0  0  0  0
  2  7  1  0  0  0  0
  3  8  1  0  0  0  0
  4 19  1  0  0  0  0
  4  3  1  0  0  0  0
  5  4  2  0  0  0  0
  6  5  1  0  0  0  0
  6  1  2  0  0  0  0
  9  5  1  0  0  0  0
 10 16  1  0  0  0  0
 11  1  1  0  0  0  0
 11 10  2  0  0  0  0
 12 11  1  0  0  0  0
 13 12  2  0  0  0  0
 13 14  1  0  0  0  0
 14 15  2  0  0  0  0
 15 10  1  0  0  0  0
 17 12  1  0  0  0  0
 18 14  1  0  0  0  0
 19 20  1  0  0  0  0
 20 21  1  0  0  0  0
 20 24  2  0  0  0  0
 21 22  2  0  0  0  0
 22 26  1  0  0  0  0
 22 23  1  0  0  0  0
 23 27  1  0  0  0  0
 24 23  1  0  0  0  0
 25 21  1  0  0  0  0
 27 29  1  0  0  0  0
 27 28  1  0  0  0  0
 27 30  1  0  0  0  0
 30 33  1  0  0  0  0
 30 32  1  0  0  0  0
 31 30  1  0  0  0  0
 33 34  1  0  0  0  0
M  END
>  <minimizedAffinity>
-4.82515574

$$$$

 OpenBabel03272510143D

 34 36  0  0  0  0  0  0  0  0999 V2000
   40.4720   23.2090   36.0260 C   0  0  0  0  0  0  0  0  0  0  0  0
   40.7040   24.2800   35.2420 C   0  0  0  0  0  0  0  0  0  0  0  0
   39.8200   25.3220   35.0540 C   0  0  0  0  0  0  0  0  0  0  0  0
   38.6120   25.3080   35.6890 C   0  0  0  0  0  0  0  0  0  0  0  0
   38.3600   24.2060   36.5040 C   0  0  0  0  0  0  0  0  0  0  0  0
   39.2610   23.2250   36.6450 N   0  0  0  0  0  0  0  0  0  0  0  0
   41.6390   24.3760   34.6980 H   0  0  0  0  0  0  0  0  0  0  0  0
   40.0090   26.1840   34.4230 H   0  0  0  0  0  0  0  0  0  0  0  0
   37.4190   24.1290   37.0400 H   0  0  0  0  0  0  0  0  0  0  0  0
   42.1010   21.5340   35.1610 C   0  0  0  0  0  0  0  0  0  0  0  0
   41.3760   22.1180   36.2050 C   0  0  0  0  0  0  0  0  0  0  0  0
   41.5530   21.5750   37.4590 C   0  0  0  0  0  0  0  0  0  0  0  0
   42.4020   20.5190   37.6380 N   0  0  0  0  0  0  0  0  0  0  0  0
   43.0780   19.9930   36.5880 C   0  0  0  0  0  0  0  0  0  0  0  0
   42.9400   20.4890   35.3400 N   0  0  0  0  0  0  0  0  0  0  0  0
   41.9920   21.9280   34.1590 H   0  0  0  0  0  0  0  0  0  0  0  0
   41.0100   21.9960   38.3040 H   0  0  0  0  0  0  0  0  0  0  0  0
   43.7440   19.1550   36.7620 H   0  0  0  0  0  0  0  0  0  0  0  0
   37.6030   26.2730   35.6120 O   0  0  0  0  0  0  0  0  0  0  0  0
   37.1260   26.7330   34.4020 C   0  0  0  0  0  0  0  0  0  0  0  0
   36.6380   28.0250   34.4610 C   0  0  0  0  0  0  0  0  0  0  0  0
   36.1910   28.3550   33.1750 C   0  0  0  0  0  0  0  0  0  0  0  0
   36.4210   27.2730   32.4020 N   0  0  0  0  0  0  0  0  0  0  0  0
   36.9650   26.3310   33.1200 N   0  0  0  0  0  0  0  0  0  0  0  0
   36.5200   28.8040   35.2140 H   0  0  0  0  0  0  0  0  0  0  0  0
   35.7390   29.2730   32.7890 H   0  0  0  0  0  0  0  0  0  0  0  0
   36.1110   27.1760   30.9900 C   0  0  0  0  0  0  0  0  0  0  0  0
   36.0730   26.1410   30.6250 H   0  0  0  0  0  0  0  0  0  0  0  0
   35.1330   27.7050   30.8580 H   0  0  0  0  0  0  0  0  0  0  0  0
   37.1410   28.0210   30.2550 C   0  0  0  0  0  0  0  0  0  0  0  0
   38.1070   27.4420   30.2960 H   0  0  0  0  0  0  0  0  0  0  0  0
   37.2290   28.9830   30.7750 H   0  0  0  0  0  0  0  0  0  0  0  0
   36.8400   28.1200   28.9010 O   0  0  0  0  0  0  0  0  0  0  0  0
   37.6400   28.4820   28.4390 H   0  0  0  0  0  0  0  0  0  0  0  0
  1 11  1  0  0  0  0
  1  6  1  0  0  0  0
  2  1  2  0  0  0  0
  3  2  1  0  0  0  0
  3  4  2  0  0  0  0
  4  5  1  0  0  0  0
  5  6  2  0  0  0  0
  5  9  1  0  0  0  0
  7  2  1  0  0  0  0
  8  3  1  0  0  0  0
 10 15  2  0  0  0  0
 10 11  1  0  0  0  0
 11 12  2  0  0  0  0
 12 13  1  0  0  0  0
 12 17  1  0  0  0  0
 14 18  1  0  0  0  0
 14 13  2  0  0  0  0
 15 14  1  0  0  0  0
 16 10  1  0  0  0  0
 19  4  1  0  0  0  0
 20 21  1  0  0  0  0
 20 19  1  0  0  0  0
 21 25  1  0  0  0  0
 22 21  2  0  0  0  0
 23 24  1  0  0  0  0
 23 22  1  0  0  0  0
 24 20  2  0  0  0  0
 26 22  1  0  0  0  0
 27 23  1  0  0  0  0
 28 27  1  0  0  0  0
 29 27  1  0  0  0  0
 30 31  1  0  0  0  0
 30 32  1  0  0  0  0
 30 27  1  0  0  0  0
 33 30  1  0  0  0  0
 34 33  1  0  0  0  0
M  END
>  <minimizedAffinity>
-4.79357624

$$$$

 OpenBabel03272510143D

 34 36  0  0  0  0  0  0  0  0999 V2000
   35.9310   29.1310   34.0560 C   0  0  0  0  0  0  0  0  0  0  0  0
   35.8690   28.6370   32.8040 C   0  0  0  0  0  0  0  0  0  0  0  0
   36.3920   27.4230   32.4120 C   0  0  0  0  0  0  0  0  0  0  0  0
   37.0260   26.6320   33.3250 C   0  0  0  0  0  0  0  0  0  0  0  0
   37.0960   27.1300   34.6250 C   0  0  0  0  0  0  0  0  0  0  0  0
   36.5670   28.3190   34.9430 N   0  0  0  0  0  0  0  0  0  0  0  0
   35.3830   29.1990   32.0110 H   0  0  0  0  0  0  0  0  0  0  0  0
   36.3410   27.0270   31.4030 H   0  0  0  0  0  0  0  0  0  0  0  0
   37.5850   26.5530   35.4040 H   0  0  0  0  0  0  0  0  0  0  0  0
   34.4390   31.1010   33.7400 C   0  0  0  0  0  0  0  0  0  0  0  0
   35.4100   30.3970   34.4610 C   0  0  0  0  0  0  0  0  0  0  0  0
   35.8800   30.9960   35.6100 C   0  0  0  0  0  0  0  0  0  0  0  0
   35.4010   32.2160   35.9960 N   0  0  0  0  0  0  0  0  0  0  0  0
   34.4610   32.8520   35.2570 C   0  0  0  0  0  0  0  0  0  0  0  0
   33.9670   32.3090   34.1230 N   0  0  0  0  0  0  0  0  0  0  0  0
   34.0420   30.6690   32.8310 H   0  0  0  0  0  0  0  0  0  0  0  0
   36.6360   30.4860   36.2060 H   0  0  0  0  0  0  0  0  0  0  0  0
   34.1010   33.8190   35.5890 H   0  0  0  0  0  0  0  0  0  0  0  0
   37.6110   25.3820   33.1030 O   0  0  0  0  0  0  0  0  0  0  0  0
   38.3730   24.7520   34.0660 C   0  0  0  0  0  0  0  0  0  0  0  0
   39.7270   24.7700   33.7930 C   0  0  0  0  0  0  0  0  0  0  0  0
   40.3670   24.1010   34.8440 C   0  0  0  0  0  0  0  0  0  0  0  0
   39.3960   23.7120   35.6960 N   0  0  0  0  0  0  0  0  0  0  0  0
   38.2370   24.0920   35.2400 N   0  0  0  0  0  0  0  0  0  0  0  0
   40.3820   25.1510   33.0100 H   0  0  0  0  0  0  0  0  0  0  0  0
   41.4270   23.8920   35.0180 H   0  0  0  0  0  0  0  0  0  0  0  0
   39.6120   22.9830   36.9300 C   0  0  0  0  0  0  0  0  0  0  0  0
   39.6690   21.8960   36.7870 H   0  0  0  0  0  0  0  0  0  0  0  0
   40.5550   23.4000   37.3660 H   0  0  0  0  0  0  0  0  0  0  0  0
   38.4980   23.3940   37.8820 C   0  0  0  0  0  0  0  0  0  0  0  0
   37.5330   23.1130   37.3740 H   0  0  0  0  0  0  0  0  0  0  0  0
   38.5650   24.4770   38.0410 H   0  0  0  0  0  0  0  0  0  0  0  0
   38.5240   22.6340   39.0470 O   0  0  0  0  0  0  0  0  0  0  0  0
   37.6670   22.7820   39.5240 H   0  0  0  0  0  0  0  0  0  0  0  0
  1 11  1  0  0  0  0
  1  6  1  0  0  0  0
  2  1  2  0  0  0  0
  3  2  1  0  0  0  0
  3  4  2  0  0  0  0
  4  5  1  0  0  0  0
  5  6  2  0  0  0  0
  5  9  1  0  0  0  0
  7  2  1  0  0  0  0
  8  3  1  0  0  0  0
 10 15  2  0  0  0  0
 10 11  1  0  0  0  0
 11 12  2  0  0  0  0
 12 13  1  0  0  0  0
 12 17  1  0  0  0  0
 14 18  1  0  0  0  0
 14 13  2  0  0  0  0
 15 14  1  0  0  0  0
 16 10  1  0  0  0  0
 19  4  1  0  0  0  0
 19 20  1  0  0  0  0
 20 24  2  0  0  0  0
 21 20  1  0  0  0  0
 21 22  2  0  0  0  0
 22 26  1  0  0  0  0
 22 23  1  0  0  0  0
 23 27  1  0  0  0  0
 24 23  1  0  0  0  0
 25 21  1  0  0  0  0
 27 29  1  0  0  0  0
 27 30  1  0  0  0  0
 28 27  1  0  0  0  0
 30 32  1  0  0  0  0
 30 33  1  0  0  0  0
 31 30  1  0  0  0  0
 33 34  1  0  0  0  0
M  END
>  <minimizedAffinity>
-4.73720407

$$$$

 OpenBabel03272510143D

 34 36  0  0  0  0  0  0  0  0999 V2000
   36.3070   23.5400   31.7830 C   0  0  0  0  0  0  0  0  0  0  0  0
   35.5620   24.5120   31.2190 C   0  0  0  0  0  0  0  0  0  0  0  0
   35.8120   25.8620   31.3380 C   0  0  0  0  0  0  0  0  0  0  0  0
   36.8810   26.2910   32.0710 C   0  0  0  0  0  0  0  0  0  0  0  0
   37.6610   25.2950   32.6590 C   0  0  0  0  0  0  0  0  0  0  0  0
   37.3650   23.9990   32.5050 N   0  0  0  0  0  0  0  0  0  0  0  0
   34.6910   24.2630   30.6190 H   0  0  0  0  0  0  0  0  0  0  0  0
   35.2120   26.6430   30.8840 H   0  0  0  0  0  0  0  0  0  0  0  0
   38.5280   25.5640   33.2540 H   0  0  0  0  0  0  0  0  0  0  0  0
   34.9690   21.5100   32.3250 C   0  0  0  0  0  0  0  0  0  0  0  0
   36.0370   22.1420   31.6790 C   0  0  0  0  0  0  0  0  0  0  0  0
   36.8660   21.3390   30.9250 C   0  0  0  0  0  0  0  0  0  0  0  0
   36.6270   19.9960   30.8350 N   0  0  0  0  0  0  0  0  0  0  0  0
   35.5770   19.4380   31.4830 C   0  0  0  0  0  0  0  0  0  0  0  0
   34.7340   20.1810   32.2340 N   0  0  0  0  0  0  0  0  0  0  0  0
   34.2930   22.1010   32.9270 H   0  0  0  0  0  0  0  0  0  0  0  0
   37.7110   21.7860   30.4040 H   0  0  0  0  0  0  0  0  0  0  0  0
   35.4140   18.3700   31.3920 H   0  0  0  0  0  0  0  0  0  0  0  0
   37.2790   27.6110   32.2970 O   0  0  0  0  0  0  0  0  0  0  0  0
   36.4390   28.5360   32.8830 C   0  0  0  0  0  0  0  0  0  0  0  0
   36.0690   29.5580   32.0300 C   0  0  0  0  0  0  0  0  0  0  0  0
   35.2260   30.4120   32.7540 C   0  0  0  0  0  0  0  0  0  0  0  0
   35.1200   29.8850   33.9910 N   0  0  0  0  0  0  0  0  0  0  0  0
   35.8270   28.7940   34.0630 N   0  0  0  0  0  0  0  0  0  0  0  0
   36.2590   29.8500   30.9970 H   0  0  0  0  0  0  0  0  0  0  0  0
   34.7170   31.3340   32.4570 H   0  0  0  0  0  0  0  0  0  0  0  0
   34.3380   30.4480   35.0730 C   0  0  0  0  0  0  0  0  0  0  0  0
   33.3610   30.8300   34.7490 H   0  0  0  0  0  0  0  0  0  0  0  0
   34.2390   29.6300   35.8310 H   0  0  0  0  0  0  0  0  0  0  0  0
   35.2000   31.5170   35.7290 C   0  0  0  0  0  0  0  0  0  0  0  0
   34.6750   31.7970   36.6860 H   0  0  0  0  0  0  0  0  0  0  0  0
   35.2640   32.3720   35.0440 H   0  0  0  0  0  0  0  0  0  0  0  0
   36.4280   31.0020   36.1300 O   0  0  0  0  0  0  0  0  0  0  0  0
   36.8510   31.6630   36.7350 H   0  0  0  0  0  0  0  0  0  0  0  0
  1  6  1  0  0  0  0
  2  3  1  0  0  0  0
  2  1  2  0  0  0  0
  3  4  2  0  0  0  0
  4 19  1  0  0  0  0
  4  5  1  0  0  0  0
  5  9  1  0  0  0  0
  6  5  2  0  0  0  0
  7  2  1  0  0  0  0
  8  3  1  0  0  0  0
 10 16  1  0  0  0  0
 11  1  1  0  0  0  0
 11 10  2  0  0  0  0
 12 11  1  0  0  0  0
 13 12  2  0  0  0  0
 13 14  1  0  0  0  0
 14 15  2  0  0  0  0
 15 10  1  0  0  0  0
 17 12  1  0  0  0  0
 18 14  1  0  0  0  0
 19 20  1  0  0  0  0
 20 24  2  0  0  0  0
 21 22  2  0  0  0  0
 21 20  1  0  0  0  0
 22 23  1  0  0  0  0
 23 24  1  0  0  0  0
 23 27  1  0  0  0  0
 25 21  1  0  0  0  0
 26 22  1  0  0  0  0
 27 30  1  0  0  0  0
 27 29  1  0  0  0  0
 28 27  1  0  0  0  0
 30 33  1  0  0  0  0
 30 31  1  0  0  0  0
 32 30  1  0  0  0  0
 33 34  1  0  0  0  0
M  END
>  <minimizedAffinity>
-4.72671509

$$$$
