
 OpenBabel03272504053D

 21 22  0  0  0  0  0  0  0  0999 V2000
   38.5210   33.4920   49.4440 Cl  0  0  0  0  0  0  0  0  0  0  0  0
   38.8310   32.5790   47.9940 C   0  0  0  0  0  0  0  0  0  0  0  0
   38.1690   31.3790   47.9450 C   0  0  0  0  0  0  0  0  0  0  0  0
   38.3480   30.5590   46.8160 C   0  0  0  0  0  0  0  0  0  0  0  0
   39.1560   30.9350   45.7830 C   0  0  0  0  0  0  0  0  0  0  0  0
   39.8070   32.1420   45.8550 C   0  0  0  0  0  0  0  0  0  0  0  0
   40.8480   32.6500   44.5520 Cl  0  0  0  0  0  0  0  0  0  0  0  0
   39.6410   32.9370   46.9400 C   0  0  0  0  0  0  0  0  0  0  0  0
   37.8680   29.5940   46.6880 H   0  0  0  0  0  0  0  0  0  0  0  0
   39.3070   30.3160   44.9020 H   0  0  0  0  0  0  0  0  0  0  0  0
   40.1270   33.9030   47.0580 H   0  0  0  0  0  0  0  0  0  0  0  0
   37.8320   30.0930   50.0290 C   0  0  0  0  0  0  0  0  0  0  0  0
   37.2560   30.7700   48.9290 C   0  0  0  0  0  0  0  0  0  0  0  0
   35.8700   30.8240   48.8360 C   0  0  0  0  0  0  0  0  0  0  0  0
   35.1350   30.2230   49.8070 N   0  0  0  0  0  0  0  0  0  0  0  0
   35.7170   29.5810   50.8500 C   0  0  0  0  0  0  0  0  0  0  0  0
   37.0620   29.5170   50.9570 N   0  0  0  0  0  0  0  0  0  0  0  0
   38.9130   30.0630   50.0810 H   0  0  0  0  0  0  0  0  0  0  0  0
   35.4410   31.3450   47.9900 H   0  0  0  0  0  0  0  0  0  0  0  0
   34.9510   28.9770   51.8260 O   0  0  0  0  0  0  0  0  0  0  0  0
   34.0340   28.5980   51.5920 H   0  0  0  0  0  0  0  0  0  0  0  0
  2  1  1  0  0  0  0
  3  2  1  0  0  0  0
  3 13  1  0  0  0  0
  4  3  2  0  0  0  0
  5  6  2  0  0  0  0
  5  4  1  0  0  0  0
  6  8  1  0  0  0  0
  7  6  1  0  0  0  0
  8 11  1  0  0  0  0
  8  2  2  0  0  0  0
  9  4  1  0  0  0  0
 10  5  1  0  0  0  0
 12 18  1  0  0  0  0
 12 17  1  0  0  0  0
 13 12  2  0  0  0  0
 14 13  1  0  0  0  0
 14 15  2  0  0  0  0
 15 16  1  0  0  0  0
 16 17  2  0  0  0  0
 16 20  1  0  0  0  0
 19 14  1  0  0  0  0
 21 20  1  0  0  0  0
M  END
>  <minimizedAffinity>
-5.55048084

>  <minimizedRMSD>
0.208453432

$$$$
