
 OpenBabel03272502293D

 16 16  0  0  0  0  0  0  0  0999 V2000
   37.8420   24.1750   38.0630 C   0  0  0  0  0  0  0  0  0  0  0  0
   38.9200   23.3150   38.3200 C   0  0  0  0  0  0  0  0  0  0  0  0
   39.7350   22.8920   37.2830 C   0  0  0  0  0  0  0  0  0  0  0  0
   39.4560   23.3310   36.0400 N   0  0  0  0  0  0  0  0  0  0  0  0
   38.4190   24.1570   35.7990 C   0  0  0  0  0  0  0  0  0  0  0  0
   37.6110   24.5840   36.7870 N   0  0  0  0  0  0  0  0  0  0  0  0
   37.2310   24.4810   38.9000 H   0  0  0  0  0  0  0  0  0  0  0  0
   39.0920   22.9950   39.3550 H   0  0  0  0  0  0  0  0  0  0  0  0
   38.2360   24.4850   34.7660 H   0  0  0  0  0  0  0  0  0  0  0  0
   40.8190   22.0180   37.5930 C   0  0  0  0  0  3  0  0  0  0  0  0
   41.5900   21.4670   36.6970 C   0  0  0  0  0  3  0  0  0  0  0  0
   42.7250   20.5530   37.0190 C   0  0  0  0  0  0  0  0  0  0  0  0
   42.8690   19.8620   36.1620 H   0  0  0  0  0  0  0  0  0  0  0  0
   43.6410   21.1610   37.1760 H   0  0  0  0  0  0  0  0  0  0  0  0
   42.5080   19.8480   38.1940 O   0  0  0  0  0  0  0  0  0  0  0  0
   42.3060   18.8890   38.0530 H   0  0  0  0  0  0  0  0  0  0  0  0
  1  2  1  0  0  0  0
  1  7  1  0  0  0  0
  2  8  1  0  0  0  0
  3 10  1  0  0  0  0
  3  2  2  0  0  0  0
  4  3  1  0  0  0  0
  5  4  2  0  0  0  0
  5  6  1  0  0  0  0
  6  1  2  0  0  0  0
  9  5  1  0  0  0  0
 11 12  1  0  0  0  0
 11 10  2  0  0  0  0
 12 14  1  0  0  0  0
 12 15  1  0  0  0  0
 13 12  1  0  0  0  0
 16 15  1  0  0  0  0
M  END
>  <minimizedAffinity>
-3.78700423

$$$$

 OpenBabel03272502293D

 16 16  0  0  0  0  0  0  0  0999 V2000
   36.9390   27.4120   33.8210 C   0  0  0  0  0  0  0  0  0  0  0  0
   37.3350   26.9740   35.0940 C   0  0  0  0  0  0  0  0  0  0  0  0
   37.7760   25.6740   35.2750 C   0  0  0  0  0  0  0  0  0  0  0  0
   37.8080   24.8610   34.2020 N   0  0  0  0  0  0  0  0  0  0  0  0
   37.4250   25.2870   32.9810 C   0  0  0  0  0  0  0  0  0  0  0  0
   36.9930   26.5440   32.7760 N   0  0  0  0  0  0  0  0  0  0  0  0
   36.6010   28.4350   33.7230 H   0  0  0  0  0  0  0  0  0  0  0  0
   37.2850   27.6880   35.9260 H   0  0  0  0  0  0  0  0  0  0  0  0
   37.4710   24.5820   32.1390 H   0  0  0  0  0  0  0  0  0  0  0  0
   38.1690   25.2740   36.5870 C   0  0  0  0  0  3  0  0  0  0  0  0
   37.8620   24.1250   37.1210 C   0  0  0  0  0  3  0  0  0  0  0  0
   38.2730   23.7050   38.4930 C   0  0  0  0  0  0  0  0  0  0  0  0
   38.6870   24.5910   39.0180 H   0  0  0  0  0  0  0  0  0  0  0  0
   37.3800   23.3250   39.0340 H   0  0  0  0  0  0  0  0  0  0  0  0
   39.1940   22.6680   38.4660 O   0  0  0  0  0  0  0  0  0  0  0  0
   40.1120   22.9430   38.7130 H   0  0  0  0  0  0  0  0  0  0  0  0
  1  2  1  0  0  0  0
  2  3  2  0  0  0  0
  2  8  1  0  0  0  0
  3 10  1  0  0  0  0
  4  3  1  0  0  0  0
  5  4  2  0  0  0  0
  6  5  1  0  0  0  0
  6  1  2  0  0  0  0
  7  1  1  0  0  0  0
  9  5  1  0  0  0  0
 10 11  2  0  0  0  0
 11 12  1  0  0  0  0
 12 13  1  0  0  0  0
 12 14  1  0  0  0  0
 15 12  1  0  0  0  0
 15 16  1  0  0  0  0
M  END
>  <minimizedAffinity>
-3.53361058

$$$$

 OpenBabel03272502293D

 16 16  0  0  0  0  0  0  0  0999 V2000
   36.2040   27.8830   32.1760 C   0  0  0  0  0  0  0  0  0  0  0  0
   35.6850   29.0230   32.8100 C   0  0  0  0  0  0  0  0  0  0  0  0
   35.8760   29.2100   34.1690 C   0  0  0  0  0  0  0  0  0  0  0  0
   36.5650   28.2720   34.8450 N   0  0  0  0  0  0  0  0  0  0  0  0
   37.0610   27.1790   34.2320 C   0  0  0  0  0  0  0  0  0  0  0  0
   36.8910   26.9710   32.9130 N   0  0  0  0  0  0  0  0  0  0  0  0
   36.0330   27.7760   31.1140 H   0  0  0  0  0  0  0  0  0  0  0  0
   35.1340   29.7490   32.1990 H   0  0  0  0  0  0  0  0  0  0  0  0
   37.6150   26.4430   34.8320 H   0  0  0  0  0  0  0  0  0  0  0  0
   35.3310   30.3840   34.7680 C   0  0  0  0  0  3  0  0  0  0  0  0
   35.9680   31.1220   35.6350 C   0  0  0  0  0  3  0  0  0  0  0  0
   35.4000   32.3510   36.2630 C   0  0  0  0  0  0  0  0  0  0  0  0
   36.1880   33.1320   36.2740 H   0  0  0  0  0  0  0  0  0  0  0  0
   34.5330   32.6940   35.6590 H   0  0  0  0  0  0  0  0  0  0  0  0
   34.9230   32.1090   37.5430 O   0  0  0  0  0  0  0  0  0  0  0  0
   35.4890   32.4930   38.2590 H   0  0  0  0  0  0  0  0  0  0  0  0
  1  2  2  0  0  0  0
  1  6  1  0  0  0  0
  2  3  1  0  0  0  0
  3 10  1  0  0  0  0
  3  4  2  0  0  0  0
  5  9  1  0  0  0  0
  5  4  1  0  0  0  0
  6  5  2  0  0  0  0
  7  1  1  0  0  0  0
  8  2  1  0  0  0  0
 10 11  2  0  0  0  0
 11 12  1  0  0  0  0
 12 13  1  0  0  0  0
 12 15  1  0  0  0  0
 14 12  1  0  0  0  0
 15 16  1  0  0  0  0
M  END
>  <minimizedAffinity>
-3.37820244

$$$$

 OpenBabel03272502293D

 16 16  0  0  0  0  0  0  0  0999 V2000
   35.1470   25.2660   30.9370 C   0  0  0  0  0  0  0  0  0  0  0  0
   35.2040   23.8850   31.1800 C   0  0  0  0  0  0  0  0  0  0  0  0
   36.2160   23.3590   31.9660 C   0  0  0  0  0  0  0  0  0  0  0  0
   37.1260   24.2090   32.4770 N   0  0  0  0  0  0  0  0  0  0  0  0
   37.0670   25.5350   32.2410 C   0  0  0  0  0  0  0  0  0  0  0  0
   36.0950   26.0740   31.4810 N   0  0  0  0  0  0  0  0  0  0  0  0
   34.3410   25.6360   30.3180 H   0  0  0  0  0  0  0  0  0  0  0  0
   34.4300   23.2490   30.7330 H   0  0  0  0  0  0  0  0  0  0  0  0
   37.8360   26.1840   32.6820 H   0  0  0  0  0  0  0  0  0  0  0  0
   36.2320   21.9490   32.1850 C   0  0  0  0  0  3  0  0  0  0  0  0
   35.1710   21.1920   32.1390 C   0  0  0  0  0  3  0  0  0  0  0  0
   35.1860   19.7180   32.3680 C   0  0  0  0  0  0  0  0  0  0  0  0
   36.0970   19.3020   31.8900 H   0  0  0  0  0  0  0  0  0  0  0  0
   35.2090   19.5260   33.4620 H   0  0  0  0  0  0  0  0  0  0  0  0
   34.0430   19.1030   31.8780 O   0  0  0  0  0  0  0  0  0  0  0  0
   34.1970   18.5700   31.0580 H   0  0  0  0  0  0  0  0  0  0  0  0
  1  2  2  0  0  0  0
  1  6  1  0  0  0  0
  2  3  1  0  0  0  0
  3 10  1  0  0  0  0
  3  4  2  0  0  0  0
  5  4  1  0  0  0  0
  5  9  1  0  0  0  0
  6  5  2  0  0  0  0
  7  1  1  0  0  0  0
  8  2  1  0  0  0  0
 11 10  2  0  0  0  0
 11 12  1  0  0  0  0
 12 14  1  0  0  0  0
 13 12  1  0  0  0  0
 15 12  1  0  0  0  0
 16 15  1  0  0  0  0
M  END
>  <minimizedAffinity>
-3.23241258

$$$$

 OpenBabel03272502293D

 16 16  0  0  0  0  0  0  0  0999 V2000
   43.1280   20.7390   36.6850 C   0  0  0  0  0  0  0  0  0  0  0  0
   41.9070   21.0810   37.2860 C   0  0  0  0  0  0  0  0  0  0  0  0
   41.3860   22.3550   37.1270 C   0  0  0  0  0  0  0  0  0  0  0  0
   42.0860   23.2360   36.3870 N   0  0  0  0  0  0  0  0  0  0  0  0
   43.2590   22.9020   35.8130 C   0  0  0  0  0  0  0  0  0  0  0  0
   43.7880   21.6730   35.9510 N   0  0  0  0  0  0  0  0  0  0  0  0
   43.4990   19.7350   36.8350 H   0  0  0  0  0  0  0  0  0  0  0  0
   41.3870   20.3150   37.8750 H   0  0  0  0  0  0  0  0  0  0  0  0
   43.7900   23.6600   35.2200 H   0  0  0  0  0  0  0  0  0  0  0  0
   40.1410   22.6550   37.7550 C   0  0  0  0  0  3  0  0  0  0  0  0
   39.1620   23.2850   37.1680 C   0  0  0  0  0  3  0  0  0  0  0  0
   37.8590   23.6000   37.8230 C   0  0  0  0  0  0  0  0  0  0  0  0
   37.9640   24.5660   38.3600 H   0  0  0  0  0  0  0  0  0  0  0  0
   37.0750   23.6840   37.0400 H   0  0  0  0  0  0  0  0  0  0  0  0
   37.4530   22.5930   38.6870 O   0  0  0  0  0  0  0  0  0  0  0  0
   37.5320   22.8330   39.6440 H   0  0  0  0  0  0  0  0  0  0  0  0
  1  7  1  0  0  0  0
  1  2  1  0  0  0  0
  2  8  1  0  0  0  0
  3  2  2  0  0  0  0
  3 10  1  0  0  0  0
  4  3  1  0  0  0  0
  5  6  1  0  0  0  0
  5  4  2  0  0  0  0
  6  1  2  0  0  0  0
  9  5  1  0  0  0  0
 11 10  2  0  0  0  0
 11 12  1  0  0  0  0
 12 13  1  0  0  0  0
 12 15  1  0  0  0  0
 14 12  1  0  0  0  0
 15 16  1  0  0  0  0
M  END
>  <minimizedAffinity>
-3.14541674

$$$$

 OpenBabel03272502293D

 16 16  0  0  0  0  0  0  0  0999 V2000
   35.1340   19.4140   32.4880 C   0  0  0  0  0  0  0  0  0  0  0  0
   35.0900   20.8100   32.6230 C   0  0  0  0  0  0  0  0  0  0  0  0
   35.8150   21.6160   31.7610 C   0  0  0  0  0  0  0  0  0  0  0  0
   36.5520   21.0170   30.8060 N   0  0  0  0  0  0  0  0  0  0  0  0
   36.5910   19.6750   30.6810 C   0  0  0  0  0  0  0  0  0  0  0  0
   35.8970   18.8690   31.5040 N   0  0  0  0  0  0  0  0  0  0  0  0
   34.5530   18.8220   33.1820 H   0  0  0  0  0  0  0  0  0  0  0  0
   34.4680   21.2330   33.4220 H   0  0  0  0  0  0  0  0  0  0  0  0
   37.2100   19.2380   29.8840 H   0  0  0  0  0  0  0  0  0  0  0  0
   35.7370   23.0290   31.9360 C   0  0  0  0  0  3  0  0  0  0  0  0
   35.9000   23.8930   30.9720 C   0  0  0  0  0  3  0  0  0  0  0  0
   35.8190   25.3720   31.1540 C   0  0  0  0  0  0  0  0  0  0  0  0
   35.3110   25.5760   32.1190 H   0  0  0  0  0  0  0  0  0  0  0  0
   36.8490   25.7880   31.1700 H   0  0  0  0  0  0  0  0  0  0  0  0
   35.1560   25.9900   30.1040 O   0  0  0  0  0  0  0  0  0  0  0  0
   34.2520   26.3170   30.3400 H   0  0  0  0  0  0  0  0  0  0  0  0
  1  2  1  0  0  0  0
  1  7  1  0  0  0  0
  2  8  1  0  0  0  0
  3 10  1  0  0  0  0
  3  2  2  0  0  0  0
  4  3  1  0  0  0  0
  5  4  2  0  0  0  0
  5  6  1  0  0  0  0
  6  1  2  0  0  0  0
  9  5  1  0  0  0  0
 11 12  1  0  0  0  0
 11 10  2  0  0  0  0
 12 14  1  0  0  0  0
 12 13  1  0  0  0  0
 15 16  1  0  0  0  0
 15 12  1  0  0  0  0
M  END
>  <minimizedAffinity>
-3.11758614

$$$$

 OpenBabel03272502293D

 16 16  0  0  0  0  0  0  0  0999 V2000
   35.8280   23.9650   31.2210 C   0  0  0  0  0  0  0  0  0  0  0  0
   36.2750   25.1060   31.9040 C   0  0  0  0  0  0  0  0  0  0  0  0
   37.2650   24.9970   32.8670 C   0  0  0  0  0  0  0  0  0  0  0  0
   37.7720   23.7740   33.1170 N   0  0  0  0  0  0  0  0  0  0  0  0
   37.3380   22.6810   32.4580 C   0  0  0  0  0  0  0  0  0  0  0  0
   36.3780   22.7570   31.5190 N   0  0  0  0  0  0  0  0  0  0  0  0
   35.0530   24.0940   30.4780 H   0  0  0  0  0  0  0  0  0  0  0  0
   35.8210   26.0720   31.6520 H   0  0  0  0  0  0  0  0  0  0  0  0
   37.7850   21.7060   32.7010 H   0  0  0  0  0  0  0  0  0  0  0  0
   37.6890   26.1840   33.5340 C   0  0  0  0  0  3  0  0  0  0  0  0
   37.2560   26.5550   34.7070 C   0  0  0  0  0  3  0  0  0  0  0  0
   37.6970   27.7960   35.4070 C   0  0  0  0  0  0  0  0  0  0  0  0
   37.8680   28.5840   34.6430 H   0  0  0  0  0  0  0  0  0  0  0  0
   36.8980   28.1150   36.1090 H   0  0  0  0  0  0  0  0  0  0  0  0
   38.8380   27.5880   36.1680 O   0  0  0  0  0  0  0  0  0  0  0  0
   39.6540   27.9970   35.7850 H   0  0  0  0  0  0  0  0  0  0  0  0
  1  6  2  0  0  0  0
  1  2  1  0  0  0  0
  2  3  2  0  0  0  0
  3  4  1  0  0  0  0
  3 10  1  0  0  0  0
  5  9  1  0  0  0  0
  5  4  2  0  0  0  0
  6  5  1  0  0  0  0
  7  1  1  0  0  0  0
  8  2  1  0  0  0  0
 10 11  2  0  0  0  0
 11 12  1  0  0  0  0
 12 14  1  0  0  0  0
 12 15  1  0  0  0  0
 13 12  1  0  0  0  0
 16 15  1  0  0  0  0
M  END
>  <minimizedAffinity>
-3.02556729

$$$$

 OpenBabel03272502293D

 16 16  0  0  0  0  0  0  0  0999 V2000
   35.9390   29.8280   30.8590 C   0  0  0  0  0  0  0  0  0  0  0  0
   36.0390   29.3150   32.1620 C   0  0  0  0  0  0  0  0  0  0  0  0
   36.8850   28.2510   32.4270 C   0  0  0  0  0  0  0  0  0  0  0  0
   37.5930   27.7360   31.4040 N   0  0  0  0  0  0  0  0  0  0  0  0
   37.4920   28.2320   30.1540 C   0  0  0  0  0  0  0  0  0  0  0  0
   36.6790   29.2650   29.8680 N   0  0  0  0  0  0  0  0  0  0  0  0
   35.2670   30.6590   30.6960 H   0  0  0  0  0  0  0  0  0  0  0  0
   35.4350   29.7820   32.9500 H   0  0  0  0  0  0  0  0  0  0  0  0
   38.0930   27.7740   29.3560 H   0  0  0  0  0  0  0  0  0  0  0  0
   36.9540   27.7650   33.7670 C   0  0  0  0  0  3  0  0  0  0  0  0
   38.0180   27.2210   34.2900 C   0  0  0  0  0  3  0  0  0  0  0  0
   38.0930   26.7120   35.6910 C   0  0  0  0  0  0  0  0  0  0  0  0
   37.0630   26.4710   36.0280 H   0  0  0  0  0  0  0  0  0  0  0  0
   38.7220   25.7970   35.7070 H   0  0  0  0  0  0  0  0  0  0  0  0
   38.6940   27.6250   36.5440 O   0  0  0  0  0  0  0  0  0  0  0  0
   38.0630   28.0660   37.1670 H   0  0  0  0  0  0  0  0  0  0  0  0
  1  2  1  0  0  0  0
  2  3  2  0  0  0  0
  2  8  1  0  0  0  0
  3 10  1  0  0  0  0
  4  3  1  0  0  0  0
  5  4  2  0  0  0  0
  6  5  1  0  0  0  0
  6  1  2  0  0  0  0
  7  1  1  0  0  0  0
  9  5  1  0  0  0  0
 10 11  2  0  0  0  0
 11 12  1  0  0  0  0
 12 14  1  0  0  0  0
 12 13  1  0  0  0  0
 12 15  1  0  0  0  0
 15 16  1  0  0  0  0
M  END
>  <minimizedAffinity>
-3.01601291

$$$$

 OpenBabel03272502293D

 16 16  0  0  0  0  0  0  0  0999 V2000
   34.5380   34.3070   36.4770 C   0  0  0  0  0  0  0  0  0  0  0  0
   33.5810   33.3920   36.9420 C   0  0  0  0  0  0  0  0  0  0  0  0
   33.8350   32.0320   36.8900 C   0  0  0  0  0  0  0  0  0  0  0  0
   35.0160   31.6290   36.3830 N   0  0  0  0  0  0  0  0  0  0  0  0
   35.9320   32.5110   35.9370 C   0  0  0  0  0  0  0  0  0  0  0  0
   35.7120   33.8380   35.9750 N   0  0  0  0  0  0  0  0  0  0  0  0
   34.3000   35.3600   36.5360 H   0  0  0  0  0  0  0  0  0  0  0  0
   32.6400   33.7880   37.3440 H   0  0  0  0  0  0  0  0  0  0  0  0
   36.8800   32.1280   35.5320 H   0  0  0  0  0  0  0  0  0  0  0  0
   32.8330   31.1410   37.3750 C   0  0  0  0  0  3  0  0  0  0  0  0
   32.3140   30.1740   36.6700 C   0  0  0  0  0  3  0  0  0  0  0  0
   31.2650   29.2410   37.1770 C   0  0  0  0  0  0  0  0  0  0  0  0
   30.3410   29.8260   37.3630 H   0  0  0  0  0  0  0  0  0  0  0  0
   31.0750   28.4640   36.4060 H   0  0  0  0  0  0  0  0  0  0  0  0
   31.6710   28.5740   38.3230 O   0  0  0  0  0  0  0  0  0  0  0  0
   31.2190   28.8850   39.1470 H   0  0  0  0  0  0  0  0  0  0  0  0
  1  7  1  0  0  0  0
  1  2  1  0  0  0  0
  2  8  1  0  0  0  0
  3  2  2  0  0  0  0
  3 10  1  0  0  0  0
  4  3  1  0  0  0  0
  5  6  1  0  0  0  0
  5  4  2  0  0  0  0
  6  1  2  0  0  0  0
  9  5  1  0  0  0  0
 11 12  1  0  0  0  0
 11 10  2  0  0  0  0
 12 13  1  0  0  0  0
 12 15  1  0  0  0  0
 14 12  1  0  0  0  0
 15 16  1  0  0  0  0
M  END
>  <minimizedAffinity>
-2.96551585

$$$$
