
 OpenBabel03272500473D

 32 35  0  0  1  0  0  0  0  0999 V2000
   32.9000   28.6920   47.3360 C   0  0  0  0  0  0  0  0  0  0  0  0
   33.5770   28.8660   46.1290 C   0  0  0  0  0  0  0  0  0  0  0  0
   34.7520   29.5840   46.4060 C   0  0  0  0  0  0  0  0  0  0  0  0
   34.7610   29.8200   47.7250 N   0  0  0  0  0  0  0  0  0  0  0  0
   33.6740   29.2860   48.2150 N   0  0  0  0  0  0  0  0  0  0  0  0
   33.3420   28.5550   45.1130 H   0  0  0  0  0  0  0  0  0  0  0  0
   35.5180   29.8980   45.7030 H   0  0  0  0  0  0  0  0  0  0  0  0
   31.0960   27.5940   48.6770 C   0  0  0  0  0  0  0  0  0  0  0  0
   31.6500   27.9980   47.4460 C   0  0  0  0  0  0  0  0  0  0  0  0
   30.9210   27.6910   46.3240 C   0  0  0  0  0  0  0  0  0  0  0  0
   29.7340   27.0330   46.4350 N   0  0  0  0  0  0  0  0  0  0  0  0
   29.2510   26.6690   47.6460 C   0  0  0  0  0  0  0  0  0  0  0  0
   29.9460   26.9540   48.7980 N   0  0  0  0  0  0  0  0  0  0  0  0
   31.6950   27.8500   49.5510 H   0  0  0  0  0  0  0  0  0  0  0  0
   31.2390   27.9490   45.3100 H   0  0  0  0  0  0  0  0  0  0  0  0
   28.3090   26.1410   47.7810 H   0  0  0  0  0  0  0  0  0  0  0  0
   35.7820   30.5320   48.4720 C   0  0  1  0  0  0  0  0  0  0  0  0
   36.8800   29.6410   49.1520 C   0  0  0  0  0  0  0  0  0  0  0  0
   37.1750   30.5190   47.9910 C   0  0  2  0  0  0  0  0  0  0  0  0
   35.3940   31.3680   49.0740 H   0  0  0  0  0  0  0  0  0  0  0  0
   37.1490   29.9590   50.1800 H   0  0  0  0  0  0  0  0  0  0  0  0
   36.7530   28.5580   49.0340 H   0  0  0  0  0  0  0  0  0  0  0  0
   37.3440   30.0250   47.0360 H   0  0  0  0  0  0  0  0  0  0  0  0
   38.0270   31.7430   48.1900 C   0  0  0  0  0  0  0  0  0  0  0  0
   38.6640   32.4160   47.1340 C   0  0  0  0  0  0  0  0  0  0  0  0
   39.3410   33.4610   47.6790 N   0  0  0  0  0  0  0  0  0  0  0  0
   39.1370   33.4440   49.0250 C   0  0  0  0  0  0  0  0  0  0  0  0
   38.3320   32.3920   49.3410 N   0  0  0  0  0  0  0  0  0  0  0  0
   38.6590   32.2000   46.0740 H   0  0  0  0  0  0  0  0  0  0  0  0
   39.9430   34.2040   47.2280 H   0  0  0  0  0  0  0  0  0  0  0  0
   39.5910   34.2710   50.0430 O   0  0  0  0  0  0  0  0  0  0  0  0
   39.7270   35.2390   49.8240 H   0  0  0  0  0  0  0  0  0  0  0  0
  1  9  1  0  0  0  0
  1  5  2  0  0  0  0
  2  3  2  0  0  0  0
  2  1  1  0  0  0  0
  3  4  1  0  0  0  0
  4  5  1  0  0  0  0
  4 17  1  0  0  0  0
  6  2  1  0  0  0  0
  7  3  1  0  0  0  0
  8 13  1  0  0  0  0
  8 14  1  0  0  0  0
  9  8  2  0  0  0  0
 10 11  2  0  0  0  0
 10  9  1  0  0  0  0
 11 12  1  0  0  0  0
 12 16  1  0  0  0  0
 12 13  2  0  0  0  0
 15 10  1  0  0  0  0
 17 20  1  1  0  0  0
 17 18  1  0  0  0  0
 18 21  1  0  0  0  0
 19 23  1  6  0  0  0
 19 24  1  0  0  0  0
 19 17  1  0  0  0  0
 19 18  1  0  0  0  0
 22 18  1  0  0  0  0
 24 28  1  0  0  0  0
 25 26  1  0  0  0  0
 25 24  2  0  0  0  0
 26 27  1  0  0  0  0
 27 28  2  0  0  0  0
 27 31  1  0  0  0  0
 29 25  1  0  0  0  0
 30 26  1  0  0  0  0
 32 31  1  0  0  0  0
M  END
>  <minimizedAffinity>
-5.24632454

>  <minimizedRMSD>
0.747226179

$$$$
