
 OpenBabel03272510323D

 21 22  0  0  0  0  0  0  0  0999 V2000
   36.0750   30.1290   48.6120 C   0  0  0  0  0  0  0  0  0  0  0  0
   35.2540   29.9680   47.5360 C   0  0  0  0  0  0  0  0  0  0  0  0
   34.2650   28.9930   47.5410 C   0  0  0  0  0  0  0  0  0  0  0  0
   34.1330   28.1970   48.6530 C   0  0  0  0  0  0  0  0  0  0  0  0
   34.9560   28.3420   49.7620 C   0  0  0  0  0  0  0  0  0  0  0  0
   35.9530   29.3250   49.7580 C   0  0  0  0  0  0  0  0  0  0  0  0
   35.3530   30.5940   46.6530 H   0  0  0  0  0  0  0  0  0  0  0  0
   33.5930   28.8200   46.7270 H   0  0  0  0  0  0  0  0  0  0  0  0
   33.3770   27.4330   48.6890 H   0  0  0  0  0  0  0  0  0  0  0  0
   34.8600   27.7220   50.6410 H   0  0  0  0  0  0  0  0  0  0  0  0
   37.9960   33.1090   49.4800 C   0  0  0  0  0  0  0  0  0  0  0  0
   38.9730   33.1900   48.4900 C   0  0  0  0  0  0  0  0  0  0  0  0
   38.9630   32.1890   47.5030 C   0  0  0  0  0  0  0  0  0  0  0  0
   38.0200   31.2030   47.5520 N   0  0  0  0  0  0  0  0  0  0  0  0
   37.0910   31.1720   48.5390 C   0  0  0  0  0  0  0  0  0  0  0  0
   37.0870   32.1360   49.5040 N   0  0  0  0  0  0  0  0  0  0  0  0
   37.9650   33.8560   50.2580 H   0  0  0  0  0  0  0  0  0  0  0  0
   39.7040   33.9730   48.4700 H   0  0  0  0  0  0  0  0  0  0  0  0
   39.6940   32.1850   46.6980 H   0  0  0  0  0  0  0  0  0  0  0  0
   36.7870   29.4980   50.8370 O   0  0  0  0  0  0  0  0  0  0  0  0
   36.9310   28.7680   51.5450 H   0  0  0  0  0  0  0  0  0  0  0  0
  1  6  1  0  0  0  0
  2  3  1  0  0  0  0
  2  1  2  0  0  0  0
  3  4  2  0  0  0  0
  4  9  1  0  0  0  0
  4  5  1  0  0  0  0
  5 10  1  0  0  0  0
  6  5  2  0  0  0  0
  6 20  1  0  0  0  0
  7  2  1  0  0  0  0
  8  3  1  0  0  0  0
 11 16  1  0  0  0  0
 11 17  1  0  0  0  0
 12 11  2  0  0  0  0
 13 14  2  0  0  0  0
 13 12  1  0  0  0  0
 14 15  1  0  0  0  0
 15  1  1  0  0  0  0
 15 16  2  0  0  0  0
 18 12  1  0  0  0  0
 19 13  1  0  0  0  0
 20 21  1  0  0  0  0
M  END
>  <minimizedAffinity>
-5.14920568

>  <minimizedRMSD>
0.034997344

$$$$
