
 OpenBabel03272502283D

 16 16  0  0  0  0  0  0  0  0999 V2000
   37.3770   30.2290   51.3750 C   0  0  0  0  0  0  0  0  0  0  0  0
   38.0110   30.7050   50.2170 C   0  0  0  0  0  0  0  0  0  0  0  0
   37.5290   30.3580   48.9660 C   0  0  0  0  0  0  0  0  0  0  0  0
   36.4470   29.5580   48.9060 N   0  0  0  0  0  0  0  0  0  0  0  0
   35.8420   29.1030   50.0210 C   0  0  0  0  0  0  0  0  0  0  0  0
   36.2890   29.4240   51.2480 N   0  0  0  0  0  0  0  0  0  0  0  0
   37.7860   30.5240   52.3310 H   0  0  0  0  0  0  0  0  0  0  0  0
   38.8880   31.3540   50.3370 H   0  0  0  0  0  0  0  0  0  0  0  0
   34.9620   28.4520   49.9150 H   0  0  0  0  0  0  0  0  0  0  0  0
   38.2070   30.8670   47.8190 C   0  0  0  0  0  0  0  0  0  0  0  0
   38.7820   32.0370   47.7730 C   0  0  0  0  0  0  0  0  0  0  0  0
   39.4920   32.5720   46.5740 C   0  0  0  0  0  0  0  0  0  0  0  0
   40.0850   33.4560   46.8870 H   0  0  0  0  0  0  0  0  0  0  0  0
   40.1660   31.7840   46.1750 H   0  0  0  0  0  0  0  0  0  0  0  0
   38.6130   32.8990   45.5520 O   0  0  0  0  0  0  0  0  0  0  0  0
   38.5010   33.8740   45.4190 H   0  0  0  0  0  0  0  0  0  0  0  0
  1  7  1  0  0  0  0
  2  8  1  0  0  0  0
  2  1  2  0  0  0  0
  3  2  1  0  0  0  0
  4  3  2  0  0  0  0
  4  5  1  0  0  0  0
  5  6  2  0  0  0  0
  6  1  1  0  0  0  0
  9  5  1  0  0  0  0
 10  3  1  0  0  0  0
 11 10  2  0  0  0  0
 12 13  1  0  0  0  0
 12 11  1  0  0  0  0
 14 12  1  0  0  0  0
 15 12  1  0  0  0  0
 16 15  1  0  0  0  0
M  END
>  <minimizedAffinity>
-4.21132755

>  <minimizedRMSD>
0.317519188

$$$$
