
 OpenBabel03272508233D

 44 46  0  0  1  0  0  0  0  0999 V2000
   33.5610   28.4820   48.0290 C   0  0  0  0  0  0  0  0  0  0  0  0
   33.1400   29.1820   47.2770 H   0  0  0  0  0  0  0  0  0  0  0  0
   33.9860   27.6290   47.4180 H   0  0  0  0  0  0  0  0  0  0  0  0
   34.9650   30.6920   47.0990 F   0  0  0  0  0  0  0  0  0  0  0  0
   35.2880   30.0990   48.3020 C   0  0  0  0  0  0  0  0  0  0  0  0
   34.6060   28.9900   48.8310 C   0  0  0  0  0  0  0  0  0  0  0  0
   35.0720   28.5830   50.0020 C   0  0  0  0  0  0  0  0  0  0  0  0
   36.1120   29.1470   50.6770 C   0  0  0  0  0  0  0  0  0  0  0  0
   36.7940   30.2450   50.1580 C   0  0  0  0  0  0  0  0  0  0  0  0
   36.3220   30.6530   48.9770 C   0  0  0  0  0  0  0  0  0  0  0  0
   34.5650   27.7070   50.4640 H   0  0  0  0  0  0  0  0  0  0  0  0
   36.3970   28.7070   51.6460 H   0  0  0  0  0  0  0  0  0  0  0  0
   37.9130   30.8460   50.8810 C   0  0  0  0  0  0  0  0  0  0  0  0
   37.7320   30.8430   51.9700 H   0  0  0  0  0  0  0  0  0  0  0  0
   38.8720   30.3150   50.6440 H   0  0  0  0  0  0  0  0  0  0  0  0
   38.0210   31.9240   50.5680 H   0  0  0  0  0  0  0  0  0  0  0  0
   37.0370   31.7910   48.4280 O   0  0  0  0  0  0  0  0  0  0  0  0
   38.1570   31.4980   47.7330 C   0  0  0  0  0  0  0  0  0  0  0  0
   39.0580   32.3990   47.8180 O   0  0  0  0  0  0  0  0  0  0  0  0
   38.5710   30.4330   46.9350 N   0  0  0  0  0  0  0  0  0  0  0  0
   39.5570   30.0950   46.8260 H   0  0  0  0  0  0  0  0  0  0  0  0
   38.8860   29.6340   46.3370 H   0  0  0  0  0  0  0  0  0  0  0  0
   32.3760   27.9200   48.7530 C   0  0  0  0  0  0  0  0  0  0  0  0
   32.7480   27.2840   49.5830 H   0  0  0  0  0  0  0  0  0  0  0  0
   31.8660   28.7980   49.2510 H   0  0  0  0  0  0  0  0  0  0  0  0
   30.0760   27.2690   48.2680 C   0  0  0  0  0  0  0  0  0  0  0  0
   31.4140   27.2410   47.9350 C   0  0  0  0  0  0  0  0  0  0  0  0
   31.7090   26.5690   46.8160 C   0  0  0  0  0  0  0  0  0  0  0  0
   30.7640   25.9670   46.0690 N   0  0  0  0  0  0  0  0  0  0  0  0
   29.4560   25.9780   46.3690 C   0  0  0  0  0  0  0  0  0  0  0  0
   29.1000   26.6300   47.4710 N   0  0  0  0  0  0  0  0  0  0  0  0
   32.7160   26.4650   46.4340 H   0  0  0  0  0  0  0  0  0  0  0  0
   28.6610   25.5230   45.8230 H   0  0  0  0  0  0  0  0  0  0  0  0
   29.5580   27.8930   49.5210 C   0  0  1  0  0  0  0  0  0  0  0  0
   28.6280   28.9970   49.4190 C   0  0  0  0  0  0  0  0  0  0  0  0
   28.1110   27.5710   49.7740 C   0  0  2  0  0  0  0  0  0  0  0  0
   30.2960   28.0160   50.3320 H   0  0  0  0  0  0  0  0  0  0  0  0
   28.5770   29.7670   50.2060 H   0  0  0  0  0  0  0  0  0  0  0  0
   28.4040   29.3930   48.4160 H   0  0  0  0  0  0  0  0  0  0  0  0
   27.4510   27.2070   48.9340 H   0  0  0  0  0  0  0  0  0  0  0  0
   27.6070   27.4920   51.1490 C   0  0  0  0  0  0  0  0  0  0  0  0
   26.4360   27.8110   51.3060 O   0  0  0  0  0  0  0  0  0  0  0  0
   28.4390   27.0770   52.1810 O   0  0  0  0  0  0  0  0  0  0  0  0
   29.0540   27.7490   52.6680 H   0  0  0  0  0  0  0  0  0  0  0  0
  1 23  1  0  0  0  0
  1  6  1  0  0  0  0
  2  1  1  0  0  0  0
  3  1  1  0  0  0  0
  4  5  1  0  0  0  0
  5  6  2  0  0  0  0
  5 10  1  0  0  0  0
  6  7  1  0  0  0  0
  7 11  1  0  0  0  0
  7  8  2  0  0  0  0
  8 12  1  0  0  0  0
  9  8  1  0  0  0  0
  9 13  1  0  0  0  0
 10  9  2  0  0  0  0
 13 14  1  0  0  0  0
 15 13  1  0  0  0  0
 16 13  1  0  0  0  0
 17 10  1  0  0  0  0
 18 19  2  0  0  0  0
 18 17  1  0  0  0  0
 20 18  1  0  0  0  0
 21 20  1  0  0  0  0
 22 20  1  0  0  0  0
 23 25  1  0  0  0  0
 23 24  1  0  0  0  0
 26 34  1  0  0  0  0
 27 26  1  0  0  0  0
 27 23  1  0  0  0  0
 28 27  2  0  0  0  0
 29 30  2  0  0  0  0
 29 28  1  0  0  0  0
 30 31  1  0  0  0  0
 31 26  2  0  0  0  0
 32 28  1  0  0  0  0
 33 30  1  0  0  0  0
 34 36  1  0  0  0  0
 34 37  1  1  0  0  0
 35 34  1  0  0  0  0
 35 36  1  0  0  0  0
 35 38  1  0  0  0  0
 36 40  1  6  0  0  0
 36 41  1  0  0  0  0
 39 35  1  0  0  0  0
 41 42  2  0  0  0  0
 41 43  1  0  0  0  0
 43 44  1  0  0  0  0
M  END
>  <minimizedAffinity>
-6.50406885

>  <minimizedRMSD>
0.545910001

$$$$
