
 OpenBabel03272508243D

 44 46  0  0  1  0  0  0  0  0999 V2000
   38.1260   27.3860   35.5390 C   0  0  0  0  0  0  0  0  0  0  0  0
   37.7820   27.5210   36.5870 H   0  0  0  0  0  0  0  0  0  0  0  0
   38.5050   28.4070   35.2300 H   0  0  0  0  0  0  0  0  0  0  0  0
   37.7250   24.7570   36.3410 F   0  0  0  0  0  0  0  0  0  0  0  0
   38.9220   25.1560   35.7840 C   0  0  0  0  0  0  0  0  0  0  0  0
   39.1790   26.4660   35.3460 C   0  0  0  0  0  0  0  0  0  0  0  0
   40.3890   26.6330   34.8350 C   0  0  0  0  0  0  0  0  0  0  0  0
   41.3380   25.6630   34.7190 C   0  0  0  0  0  0  0  0  0  0  0  0
   41.0920   24.3620   35.1520 C   0  0  0  0  0  0  0  0  0  0  0  0
   39.8710   24.1960   35.6680 C   0  0  0  0  0  0  0  0  0  0  0  0
   40.6410   27.6550   34.4730 H   0  0  0  0  0  0  0  0  0  0  0  0
   42.3060   25.9390   34.2730 H   0  0  0  0  0  0  0  0  0  0  0  0
   42.1130   23.3240   35.0310 C   0  0  0  0  0  0  0  0  0  0  0  0
   42.6870   23.4350   34.0960 H   0  0  0  0  0  0  0  0  0  0  0  0
   42.8030   23.3390   35.9150 H   0  0  0  0  0  0  0  0  0  0  0  0
   41.6120   22.3140   34.9930 H   0  0  0  0  0  0  0  0  0  0  0  0
   39.6140   22.8450   36.1300 O   0  0  0  0  0  0  0  0  0  0  0  0
   39.7930   22.6340   37.4520 C   0  0  0  0  0  0  0  0  0  0  0  0
   40.8220   21.9280   37.7190 O   0  0  0  0  0  0  0  0  0  0  0  0
   39.1140   23.0100   38.6100 N   0  0  0  0  0  0  0  0  0  0  0  0
   39.5500   23.1860   39.5460 H   0  0  0  0  0  0  0  0  0  0  0  0
   38.6090   23.2920   39.4810 H   0  0  0  0  0  0  0  0  0  0  0  0
   36.8800   27.1510   34.7420 C   0  0  0  0  0  0  0  0  0  0  0  0
   36.7680   26.0580   34.5890 H   0  0  0  0  0  0  0  0  0  0  0  0
   36.0170   27.4520   35.4080 H   0  0  0  0  0  0  0  0  0  0  0  0
   35.9730   28.9990   33.4330 C   0  0  0  0  0  0  0  0  0  0  0  0
   36.7810   27.8850   33.5130 C   0  0  0  0  0  0  0  0  0  0  0  0
   37.4510   27.5840   32.3950 C   0  0  0  0  0  0  0  0  0  0  0  0
   37.3410   28.3210   31.2720 N   0  0  0  0  0  0  0  0  0  0  0  0
   36.5630   29.4080   31.1650 C   0  0  0  0  0  0  0  0  0  0  0  0
   35.8710   29.7580   32.2460 N   0  0  0  0  0  0  0  0  0  0  0  0
   38.1220   26.7390   32.3130 H   0  0  0  0  0  0  0  0  0  0  0  0
   36.4320   30.0320   30.3100 H   0  0  0  0  0  0  0  0  0  0  0  0
   35.0820   29.4460   34.5450 C   0  0  1  0  0  0  0  0  0  0  0  0
   34.9860   30.8590   34.8380 C   0  0  0  0  0  0  0  0  0  0  0  0
   33.8460   30.1460   34.0520 C   0  0  2  0  0  0  0  0  0  0  0  0
   35.0940   28.8130   35.4480 H   0  0  0  0  0  0  0  0  0  0  0  0
   34.7600   31.2110   35.8570 H   0  0  0  0  0  0  0  0  0  0  0  0
   35.6430   31.5480   34.2820 H   0  0  0  0  0  0  0  0  0  0  0  0
   33.8070   30.5700   33.0080 H   0  0  0  0  0  0  0  0  0  0  0  0
   32.6040   30.0710   34.8280 C   0  0  0  0  0  0  0  0  0  0  0  0
   32.3970   29.0100   35.4020 O   0  0  0  0  0  0  0  0  0  0  0  0
   31.7420   31.1600   34.8850 O   0  0  0  0  0  0  0  0  0  0  0  0
   30.9540   31.1780   35.5520 H   0  0  0  0  0  0  0  0  0  0  0  0
  1  2  1  0  0  0  0
  3  1  1  0  0  0  0
  5  4  1  0  0  0  0
  6  1  1  0  0  0  0
  6  5  2  0  0  0  0
  7  6  1  0  0  0  0
  8  7  2  0  0  0  0
  8  9  1  0  0  0  0
  9 10  2  0  0  0  0
 10  5  1  0  0  0  0
 10 17  1  0  0  0  0
 11  7  1  0  0  0  0
 12  8  1  0  0  0  0
 13  9  1  0  0  0  0
 13 15  1  0  0  0  0
 14 13  1  0  0  0  0
 16 13  1  0  0  0  0
 17 18  1  0  0  0  0
 18 19  2  0  0  0  0
 18 20  1  0  0  0  0
 20 22  1  0  0  0  0
 20 21  1  0  0  0  0
 23 25  1  0  0  0  0
 23  1  1  0  0  0  0
 24 23  1  0  0  0  0
 26 27  1  0  0  0  0
 26 34  1  0  0  0  0
 27 23  1  0  0  0  0
 28 27  2  0  0  0  0
 29 28  1  0  0  0  0
 30 29  2  0  0  0  0
 30 31  1  0  0  0  0
 31 26  2  0  0  0  0
 32 28  1  0  0  0  0
 33 30  1  0  0  0  0
 34 35  1  0  0  0  0
 34 37  1  1  0  0  0
 35 38  1  0  0  0  0
 36 40  1  6  0  0  0
 36 34  1  0  0  0  0
 36 41  1  0  0  0  0
 36 35  1  0  0  0  0
 39 35  1  0  0  0  0
 41 43  1  0  0  0  0
 41 42  2  0  0  0  0
 43 44  1  0  0  0  0
M  END
>  <minimizedAffinity>
-5.97469044

$$$$

 OpenBabel03272508243D

 44 46  0  0  1  0  0  0  0  0999 V2000
   35.8810   29.3610   33.7040 C   0  0  0  0  0  0  0  0  0  0  0  0
   35.3250   29.3390   32.7430 H   0  0  0  0  0  0  0  0  0  0  0  0
   36.9230   29.7020   33.4230 H   0  0  0  0  0  0  0  0  0  0  0  0
   33.1380   29.4590   34.1280 F   0  0  0  0  0  0  0  0  0  0  0  0
   33.9960   30.2690   34.8410 C   0  0  0  0  0  0  0  0  0  0  0  0
   35.3920   30.2540   34.6830 C   0  0  0  0  0  0  0  0  0  0  0  0
   36.0300   31.1050   35.4710 C   0  0  0  0  0  0  0  0  0  0  0  0
   35.4430   31.9410   36.3710 C   0  0  0  0  0  0  0  0  0  0  0  0
   34.0590   31.9620   36.5330 C   0  0  0  0  0  0  0  0  0  0  0  0
   33.4170   31.1040   35.7360 C   0  0  0  0  0  0  0  0  0  0  0  0
   37.1400   31.1310   35.3840 H   0  0  0  0  0  0  0  0  0  0  0  0
   36.0950   32.6000   36.9660 H   0  0  0  0  0  0  0  0  0  0  0  0
   33.4290   32.8640   37.4960 C   0  0  0  0  0  0  0  0  0  0  0  0
   34.0380   32.9590   38.4110 H   0  0  0  0  0  0  0  0  0  0  0  0
   33.2520   33.8730   37.0400 H   0  0  0  0  0  0  0  0  0  0  0  0
   32.4320   32.4370   37.8060 H   0  0  0  0  0  0  0  0  0  0  0  0
   31.9750   31.1310   35.8950 O   0  0  0  0  0  0  0  0  0  0  0  0
   31.4430   30.0960   36.5800 C   0  0  0  0  0  0  0  0  0  0  0  0
   30.4660   29.5360   35.9790 O   0  0  0  0  0  0  0  0  0  0  0  0
   31.7090   29.4840   37.8040 N   0  0  0  0  0  0  0  0  0  0  0  0
   31.5640   28.4710   38.0280 H   0  0  0  0  0  0  0  0  0  0  0  0
   31.9080   29.0210   38.7210 H   0  0  0  0  0  0  0  0  0  0  0  0
   36.0140   27.9270   34.1170 C   0  0  0  0  0  0  0  0  0  0  0  0
   35.3370   27.7510   34.9780 H   0  0  0  0  0  0  0  0  0  0  0  0
   35.5880   27.3140   33.2680 H   0  0  0  0  0  0  0  0  0  0  0  0
   38.0910   26.8840   33.3730 C   0  0  0  0  0  0  0  0  0  0  0  0
   37.3520   27.4770   34.3750 C   0  0  0  0  0  0  0  0  0  0  0  0
   37.9820   27.6070   35.5490 C   0  0  0  0  0  0  0  0  0  0  0  0
   39.2490   27.1870   35.7330 N   0  0  0  0  0  0  0  0  0  0  0  0
   39.9910   26.6080   34.7770 C   0  0  0  0  0  0  0  0  0  0  0  0
   39.4180   26.4520   33.5880 N   0  0  0  0  0  0  0  0  0  0  0  0
   37.5250   28.0520   36.4220 H   0  0  0  0  0  0  0  0  0  0  0  0
   40.9930   26.2560   34.8580 H   0  0  0  0  0  0  0  0  0  0  0  0
   37.5360   26.5750   32.0220 C   0  0  1  0  0  0  0  0  0  0  0  0
   38.2370   25.6300   31.1800 C   0  0  0  0  0  0  0  0  0  0  0  0
   36.9490   25.1930   31.9400 C   0  0  2  0  0  0  0  0  0  0  0  0
   37.1270   27.4350   31.4670 H   0  0  0  0  0  0  0  0  0  0  0  0
   38.1810   25.7020   30.0810 H   0  0  0  0  0  0  0  0  0  0  0  0
   39.2040   25.2380   31.5350 H   0  0  0  0  0  0  0  0  0  0  0  0
   37.2270   24.4070   32.6990 H   0  0  0  0  0  0  0  0  0  0  0  0
   35.8330   24.9250   31.0260 C   0  0  0  0  0  0  0  0  0  0  0  0
   35.4270   23.7700   31.0060 O   0  0  0  0  0  0  0  0  0  0  0  0
   35.2990   25.9450   30.2490 O   0  0  0  0  0  0  0  0  0  0  0  0
   34.4170   25.8090   29.7280 H   0  0  0  0  0  0  0  0  0  0  0  0
  1 23  1  0  0  0  0
  1  6  1  0  0  0  0
  2  1  1  0  0  0  0
  3  1  1  0  0  0  0
  4  5  1  0  0  0  0
  5 10  1  0  0  0  0
  6  5  2  0  0  0  0
  6  7  1  0  0  0  0
  7  8  2  0  0  0  0
  8  9  1  0  0  0  0
  8 12  1  0  0  0  0
  9 13  1  0  0  0  0
 10 17  1  0  0  0  0
 10  9  2  0  0  0  0
 11  7  1  0  0  0  0
 13 16  1  0  0  0  0
 13 14  1  0  0  0  0
 15 13  1  0  0  0  0
 17 18  1  0  0  0  0
 18 20  1  0  0  0  0
 19 18  2  0  0  0  0
 20 21  1  0  0  0  0
 20 22  1  0  0  0  0
 23 27  1  0  0  0  0
 23 24  1  0  0  0  0
 25 23  1  0  0  0  0
 26 31  2  0  0  0  0
 26 27  1  0  0  0  0
 27 28  2  0  0  0  0
 28 29  1  0  0  0  0
 28 32  1  0  0  0  0
 30 33  1  0  0  0  0
 30 29  2  0  0  0  0
 31 30  1  0  0  0  0
 34 37  1  6  0  0  0
 34 26  1  0  0  0  0
 35 39  1  0  0  0  0
 35 36  1  0  0  0  0
 35 34  1  0  0  0  0
 36 34  1  0  0  0  0
 36 40  1  1  0  0  0
 38 35  1  0  0  0  0
 41 36  1  0  0  0  0
 42 41  2  0  0  0  0
 43 41  1  0  0  0  0
 44 43  1  0  0  0  0
M  END
>  <minimizedAffinity>
-5.84309292

$$$$

 OpenBabel03272508243D

 44 46  0  0  1  0  0  0  0  0999 V2000
   37.8910   27.4240   35.6190 C   0  0  0  0  0  0  0  0  0  0  0  0
   37.4420   27.3730   36.6330 H   0  0  0  0  0  0  0  0  0  0  0  0
   38.2560   28.4910   35.5220 H   0  0  0  0  0  0  0  0  0  0  0  0
   37.6390   24.7410   36.2900 F   0  0  0  0  0  0  0  0  0  0  0  0
   38.8130   25.2330   35.7590 C   0  0  0  0  0  0  0  0  0  0  0  0
   38.9950   26.5760   35.3860 C   0  0  0  0  0  0  0  0  0  0  0  0
   40.1940   26.8350   34.8880 C   0  0  0  0  0  0  0  0  0  0  0  0
   41.1970   25.9280   34.7300 C   0  0  0  0  0  0  0  0  0  0  0  0
   41.0240   24.5960   35.0980 C   0  0  0  0  0  0  0  0  0  0  0  0
   39.8140   24.3360   35.6010 C   0  0  0  0  0  0  0  0  0  0  0  0
   40.3890   27.8870   34.5770 H   0  0  0  0  0  0  0  0  0  0  0  0
   42.1490   26.2800   34.3020 H   0  0  0  0  0  0  0  0  0  0  0  0
   42.1030   23.6240   34.9320 C   0  0  0  0  0  0  0  0  0  0  0  0
   42.6720   23.8130   34.0060 H   0  0  0  0  0  0  0  0  0  0  0  0
   42.7900   23.6350   35.8190 H   0  0  0  0  0  0  0  0  0  0  0  0
   41.6610   22.5900   34.8420 H   0  0  0  0  0  0  0  0  0  0  0  0
   39.6340   22.9510   35.9950 O   0  0  0  0  0  0  0  0  0  0  0  0
   39.8090   22.6900   37.3080 C   0  0  0  0  0  0  0  0  0  0  0  0
   40.8720   22.0290   37.5580 O   0  0  0  0  0  0  0  0  0  0  0  0
   39.0970   22.9740   38.4730 N   0  0  0  0  0  0  0  0  0  0  0  0
   39.5110   23.1300   39.4230 H   0  0  0  0  0  0  0  0  0  0  0  0
   38.5660   23.1880   39.3490 H   0  0  0  0  0  0  0  0  0  0  0  0
   36.7390   27.2950   34.6700 C   0  0  0  0  0  0  0  0  0  0  0  0
   36.9590   26.4640   33.9690 H   0  0  0  0  0  0  0  0  0  0  0  0
   35.8590   26.9430   35.2880 H   0  0  0  0  0  0  0  0  0  0  0  0
   36.4280   28.5670   32.6110 C   0  0  0  0  0  0  0  0  0  0  0  0
   36.3600   28.4980   33.9860 C   0  0  0  0  0  0  0  0  0  0  0  0
   35.9050   29.6020   34.5910 C   0  0  0  0  0  0  0  0  0  0  0  0
   35.5400   30.6990   33.9000 N   0  0  0  0  0  0  0  0  0  0  0  0
   35.5960   30.7940   32.5630 C   0  0  0  0  0  0  0  0  0  0  0  0
   36.0410   29.7270   31.9060 N   0  0  0  0  0  0  0  0  0  0  0  0
   35.7980   29.6910   35.6640 H   0  0  0  0  0  0  0  0  0  0  0  0
   35.3240   31.6290   31.9590 H   0  0  0  0  0  0  0  0  0  0  0  0
   36.9890   27.4720   31.7640 C   0  0  1  0  0  0  0  0  0  0  0  0
   37.5120   27.7990   30.4560 C   0  0  0  0  0  0  0  0  0  0  0  0
   38.4860   27.5410   31.6450 C   0  0  2  0  0  0  0  0  0  0  0  0
   36.4310   26.5200   31.7860 H   0  0  0  0  0  0  0  0  0  0  0  0
   37.4970   27.0590   29.6400 H   0  0  0  0  0  0  0  0  0  0  0  0
   37.3990   28.8350   30.0980 H   0  0  0  0  0  0  0  0  0  0  0  0
   39.0350   28.4980   31.8770 H   0  0  0  0  0  0  0  0  0  0  0  0
   39.2630   26.3100   31.4640 C   0  0  0  0  0  0  0  0  0  0  0  0
   38.8430   25.3220   32.0530 O   0  0  0  0  0  0  0  0  0  0  0  0
   40.4000   26.3060   30.6650 O   0  0  0  0  0  0  0  0  0  0  0  0
   40.8600   25.4200   30.4000 H   0  0  0  0  0  0  0  0  0  0  0  0
  1  2  1  0  0  0  0
  3  1  1  0  0  0  0
  5  4  1  0  0  0  0
  6  1  1  0  0  0  0
  6  5  2  0  0  0  0
  7  6  1  0  0  0  0
  8  7  2  0  0  0  0
  8  9  1  0  0  0  0
  9 10  2  0  0  0  0
 10  5  1  0  0  0  0
 10 17  1  0  0  0  0
 11  7  1  0  0  0  0
 12  8  1  0  0  0  0
 13  9  1  0  0  0  0
 13 15  1  0  0  0  0
 14 13  1  0  0  0  0
 16 13  1  0  0  0  0
 17 18  1  0  0  0  0
 18 19  2  0  0  0  0
 18 20  1  0  0  0  0
 20 22  1  0  0  0  0
 20 21  1  0  0  0  0
 23 25  1  0  0  0  0
 23  1  1  0  0  0  0
 24 23  1  0  0  0  0
 26 27  1  0  0  0  0
 27 28  2  0  0  0  0
 27 23  1  0  0  0  0
 28 32  1  0  0  0  0
 29 28  1  0  0  0  0
 30 29  2  0  0  0  0
 31 30  1  0  0  0  0
 31 26  2  0  0  0  0
 33 30  1  0  0  0  0
 34 37  1  1  0  0  0
 34 26  1  0  0  0  0
 35 36  1  0  0  0  0
 35 34  1  0  0  0  0
 36 34  1  0  0  0  0
 36 40  1  1  0  0  0
 38 35  1  0  0  0  0
 39 35  1  0  0  0  0
 41 36  1  0  0  0  0
 41 42  2  0  0  0  0
 43 41  1  0  0  0  0
 44 43  1  0  0  0  0
M  END
>  <minimizedAffinity>
-5.68740654

$$$$

 OpenBabel03272508243D

 44 46  0  0  1  0  0  0  0  0999 V2000
   35.3330   29.5840   32.4100 C   0  0  0  0  0  0  0  0  0  0  0  0
   34.6680   28.9720   31.7640 H   0  0  0  0  0  0  0  0  0  0  0  0
   35.5600   30.5050   31.7920 H   0  0  0  0  0  0  0  0  0  0  0  0
   32.7460   28.7840   33.0300 F   0  0  0  0  0  0  0  0  0  0  0  0
   33.4630   29.5950   33.8840 C   0  0  0  0  0  0  0  0  0  0  0  0
   34.7790   30.0200   33.6340 C   0  0  0  0  0  0  0  0  0  0  0  0
   35.2860   30.7860   34.5870 C   0  0  0  0  0  0  0  0  0  0  0  0
   34.6410   31.1610   35.7260 C   0  0  0  0  0  0  0  0  0  0  0  0
   33.3360   30.7450   35.9810 C   0  0  0  0  0  0  0  0  0  0  0  0
   32.8260   29.9730   35.0180 C   0  0  0  0  0  0  0  0  0  0  0  0
   36.3280   31.1490   34.4350 H   0  0  0  0  0  0  0  0  0  0  0  0
   35.1820   31.8030   36.4380 H   0  0  0  0  0  0  0  0  0  0  0  0
   32.6430   31.1520   37.2020 C   0  0  0  0  0  0  0  0  0  0  0  0
   33.3320   31.1800   38.0620 H   0  0  0  0  0  0  0  0  0  0  0  0
   32.1500   32.1510   37.0660 H   0  0  0  0  0  0  0  0  0  0  0  0
   31.8430   30.3950   37.4450 H   0  0  0  0  0  0  0  0  0  0  0  0
   31.4640   29.5460   35.2760 O   0  0  0  0  0  0  0  0  0  0  0  0
   31.3210   28.2790   35.7210 C   0  0  0  0  0  0  0  0  0  0  0  0
   30.5600   27.5640   34.9860 O   0  0  0  0  0  0  0  0  0  0  0  0
   31.8150   27.5550   36.8050 N   0  0  0  0  0  0  0  0  0  0  0  0
   32.0150   26.5270   36.8150 H   0  0  0  0  0  0  0  0  0  0  0  0
   32.1860   27.0080   37.6160 H   0  0  0  0  0  0  0  0  0  0  0  0
   36.6170   28.8170   32.4940 C   0  0  0  0  0  0  0  0  0  0  0  0
   37.3540   29.3020   31.8210 H   0  0  0  0  0  0  0  0  0  0  0  0
   37.0130   28.9790   33.5410 H   0  0  0  0  0  0  0  0  0  0  0  0
   37.3540   26.5300   32.9180 C   0  0  0  0  0  0  0  0  0  0  0  0
   36.5130   27.4050   32.2620 C   0  0  0  0  0  0  0  0  0  0  0  0
   35.6190   26.8350   31.4460 C   0  0  0  0  0  0  0  0  0  0  0  0
   35.5480   25.5000   31.2800 N   0  0  0  0  0  0  0  0  0  0  0  0
   36.3520   24.6250   31.9040 C   0  0  0  0  0  0  0  0  0  0  0  0
   37.2620   25.1330   32.7290 N   0  0  0  0  0  0  0  0  0  0  0  0
   34.8980   27.3980   30.8680 H   0  0  0  0  0  0  0  0  0  0  0  0
   36.3480   23.5630   31.8170 H   0  0  0  0  0  0  0  0  0  0  0  0
   38.4700   26.9760   33.8030 C   0  0  1  0  0  0  0  0  0  0  0  0
   38.3330   26.8170   35.2340 C   0  0  0  0  0  0  0  0  0  0  0  0
   39.2150   25.8250   34.4190 C   0  0  2  0  0  0  0  0  0  0  0  0
   38.9580   27.9220   33.5130 H   0  0  0  0  0  0  0  0  0  0  0  0
   38.8440   27.5010   35.9310 H   0  0  0  0  0  0  0  0  0  0  0  0
   37.3690   26.4500   35.6230 H   0  0  0  0  0  0  0  0  0  0  0  0
   38.7470   24.8000   34.4690 H   0  0  0  0  0  0  0  0  0  0  0  0
   40.6400   25.9630   34.7400 C   0  0  0  0  0  0  0  0  0  0  0  0
   41.1800   24.9690   35.2080 O   0  0  0  0  0  0  0  0  0  0  0  0
   41.3000   27.1640   34.5130 O   0  0  0  0  0  0  0  0  0  0  0  0
   42.3290   27.2250   34.5810 H   0  0  0  0  0  0  0  0  0  0  0  0
  1 23  1  0  0  0  0
  1  6  1  0  0  0  0
  2  1  1  0  0  0  0
  3  1  1  0  0  0  0
  4  5  1  0  0  0  0
  5 10  1  0  0  0  0
  6  5  2  0  0  0  0
  6  7  1  0  0  0  0
  7  8  2  0  0  0  0
  8  9  1  0  0  0  0
  8 12  1  0  0  0  0
  9 13  1  0  0  0  0
 10 17  1  0  0  0  0
 10  9  2  0  0  0  0
 11  7  1  0  0  0  0
 13 16  1  0  0  0  0
 13 14  1  0  0  0  0
 15 13  1  0  0  0  0
 17 18  1  0  0  0  0
 18 20  1  0  0  0  0
 19 18  2  0  0  0  0
 20 21  1  0  0  0  0
 20 22  1  0  0  0  0
 23 25  1  0  0  0  0
 24 23  1  0  0  0  0
 26 34  1  0  0  0  0
 27 23  1  0  0  0  0
 27 26  2  0  0  0  0
 28 27  1  0  0  0  0
 29 28  2  0  0  0  0
 29 30  1  0  0  0  0
 30 31  2  0  0  0  0
 31 26  1  0  0  0  0
 32 28  1  0  0  0  0
 33 30  1  0  0  0  0
 34 37  1  6  0  0  0
 34 36  1  0  0  0  0
 34 35  1  0  0  0  0
 35 39  1  0  0  0  0
 35 38  1  0  0  0  0
 36 40  1  6  0  0  0
 36 41  1  0  0  0  0
 36 35  1  0  0  0  0
 41 42  2  0  0  0  0
 43 44  1  0  0  0  0
 43 41  1  0  0  0  0
M  END
>  <minimizedAffinity>
-5.56301022

$$$$

 OpenBabel03272508243D

 44 46  0  0  1  0  0  0  0  0999 V2000
   37.9990   27.0360   35.2050 C   0  0  0  0  0  0  0  0  0  0  0  0
   37.4960   27.0680   36.1950 H   0  0  0  0  0  0  0  0  0  0  0  0
   38.3090   28.1080   35.0080 H   0  0  0  0  0  0  0  0  0  0  0  0
   37.8350   24.4020   36.0690 F   0  0  0  0  0  0  0  0  0  0  0  0
   39.0200   24.9200   35.5910 C   0  0  0  0  0  0  0  0  0  0  0  0
   39.1620   26.2390   35.1260 C   0  0  0  0  0  0  0  0  0  0  0  0
   40.3810   26.5290   34.7020 C   0  0  0  0  0  0  0  0  0  0  0  0
   41.4400   25.6730   34.6930 C   0  0  0  0  0  0  0  0  0  0  0  0
   41.3080   24.3640   35.1540 C   0  0  0  0  0  0  0  0  0  0  0  0
   40.0770   24.0730   35.5820 C   0  0  0  0  0  0  0  0  0  0  0  0
   40.5450   27.5640   34.3230 H   0  0  0  0  0  0  0  0  0  0  0  0
   42.4030   26.0460   34.3120 H   0  0  0  0  0  0  0  0  0  0  0  0
   42.4460   23.4480   35.1490 C   0  0  0  0  0  0  0  0  0  0  0  0
   43.0760   23.5980   34.2560 H   0  0  0  0  0  0  0  0  0  0  0  0
   43.0580   23.5660   36.0810 H   0  0  0  0  0  0  0  0  0  0  0  0
   42.0670   22.3860   35.1090 H   0  0  0  0  0  0  0  0  0  0  0  0
   39.9380   22.7150   36.0720 O   0  0  0  0  0  0  0  0  0  0  0  0
   40.0660   22.5580   37.4070 C   0  0  0  0  0  0  0  0  0  0  0  0
   41.1340   21.9480   37.7480 O   0  0  0  0  0  0  0  0  0  0  0  0
   39.2990   22.9100   38.5180 N   0  0  0  0  0  0  0  0  0  0  0  0
   39.6710   23.1480   39.4680 H   0  0  0  0  0  0  0  0  0  0  0  0
   38.7280   23.1740   39.3530 H   0  0  0  0  0  0  0  0  0  0  0  0
   36.9130   26.7330   34.2190 C   0  0  0  0  0  0  0  0  0  0  0  0
   36.1320   26.1390   34.7370 H   0  0  0  0  0  0  0  0  0  0  0  0
   36.4260   27.7230   33.9730 H   0  0  0  0  0  0  0  0  0  0  0  0
   37.6360   26.8990   31.8950 C   0  0  0  0  0  0  0  0  0  0  0  0
   37.3400   26.1200   32.9940 C   0  0  0  0  0  0  0  0  0  0  0  0
   37.5060   24.8040   32.8230 C   0  0  0  0  0  0  0  0  0  0  0  0
   37.9310   24.2800   31.6570 N   0  0  0  0  0  0  0  0  0  0  0  0
   38.2260   25.0120   30.5720 C   0  0  0  0  0  0  0  0  0  0  0  0
   38.0810   26.3290   30.6820 N   0  0  0  0  0  0  0  0  0  0  0  0
   37.3120   24.0750   33.5980 H   0  0  0  0  0  0  0  0  0  0  0  0
   38.5660   24.6610   29.6250 H   0  0  0  0  0  0  0  0  0  0  0  0
   37.4330   28.3780   31.8610 C   0  0  1  0  0  0  0  0  0  0  0  0
   37.5610   29.0710   30.5990 C   0  0  0  0  0  0  0  0  0  0  0  0
   36.1490   28.7710   31.1850 C   0  0  2  0  0  0  0  0  0  0  0  0
   37.8600   28.9360   32.7120 H   0  0  0  0  0  0  0  0  0  0  0  0
   37.8850   30.1240   30.5620 H   0  0  0  0  0  0  0  0  0  0  0  0
   37.8900   28.4910   29.7210 H   0  0  0  0  0  0  0  0  0  0  0  0
   35.6200   28.0500   30.4990 H   0  0  0  0  0  0  0  0  0  0  0  0
   35.4510   29.9950   31.5950 C   0  0  0  0  0  0  0  0  0  0  0  0
   35.4210   30.2130   32.7990 O   0  0  0  0  0  0  0  0  0  0  0  0
   34.8730   30.8270   30.6450 O   0  0  0  0  0  0  0  0  0  0  0  0
   34.5230   31.7640   30.9030 H   0  0  0  0  0  0  0  0  0  0  0  0
  1  2  1  0  0  0  0
  3  1  1  0  0  0  0
  5  4  1  0  0  0  0
  6  1  1  0  0  0  0
  6  5  2  0  0  0  0
  7  6  1  0  0  0  0
  8  7  2  0  0  0  0
  8  9  1  0  0  0  0
  9 10  2  0  0  0  0
 10  5  1  0  0  0  0
 10 17  1  0  0  0  0
 11  7  1  0  0  0  0
 12  8  1  0  0  0  0
 13  9  1  0  0  0  0
 13 15  1  0  0  0  0
 14 13  1  0  0  0  0
 16 13  1  0  0  0  0
 17 18  1  0  0  0  0
 18 19  2  0  0  0  0
 18 20  1  0  0  0  0
 20 22  1  0  0  0  0
 20 21  1  0  0  0  0
 23 24  1  0  0  0  0
 23  1  1  0  0  0  0
 25 23  1  0  0  0  0
 26 27  1  0  0  0  0
 27 23  1  0  0  0  0
 28 27  2  0  0  0  0
 28 32  1  0  0  0  0
 29 28  1  0  0  0  0
 30 31  1  0  0  0  0
 30 29  2  0  0  0  0
 31 26  2  0  0  0  0
 33 30  1  0  0  0  0
 34 26  1  0  0  0  0
 34 37  1  1  0  0  0
 35 36  1  0  0  0  0
 35 34  1  0  0  0  0
 36 40  1  6  0  0  0
 36 41  1  0  0  0  0
 36 34  1  0  0  0  0
 38 35  1  0  0  0  0
 39 35  1  0  0  0  0
 41 42  2  0  0  0  0
 43 44  1  0  0  0  0
 43 41  1  0  0  0  0
M  END
>  <minimizedAffinity>
-5.56221151

$$$$

 OpenBabel03272508243D

 44 46  0  0  1  0  0  0  0  0999 V2000
   39.4110   26.7250   33.3120 C   0  0  0  0  0  0  0  0  0  0  0  0
   39.7860   27.7700   33.2950 H   0  0  0  0  0  0  0  0  0  0  0  0
   40.2890   26.1010   32.9610 H   0  0  0  0  0  0  0  0  0  0  0  0
   39.6680   23.9990   33.7780 F   0  0  0  0  0  0  0  0  0  0  0  0
   39.1570   24.8400   34.7440 C   0  0  0  0  0  0  0  0  0  0  0  0
   39.0170   26.2270   34.5740 C   0  0  0  0  0  0  0  0  0  0  0  0
   38.5150   26.8490   35.6290 C   0  0  0  0  0  0  0  0  0  0  0  0
   38.1490   26.2530   36.7970 C   0  0  0  0  0  0  0  0  0  0  0  0
   38.2830   24.8770   36.9730 C   0  0  0  0  0  0  0  0  0  0  0  0
   38.7900   24.2520   35.9070 C   0  0  0  0  0  0  0  0  0  0  0  0
   38.3840   27.9520   35.5440 H   0  0  0  0  0  0  0  0  0  0  0  0
   37.7420   26.8910   37.5980 H   0  0  0  0  0  0  0  0  0  0  0  0
   37.8850   24.2380   38.2260 C   0  0  0  0  0  0  0  0  0  0  0  0
   38.1250   24.8750   39.0930 H   0  0  0  0  0  0  0  0  0  0  0  0
   36.7910   23.9890   38.2160 H   0  0  0  0  0  0  0  0  0  0  0  0
   38.4630   23.2770   38.3520 H   0  0  0  0  0  0  0  0  0  0  0  0
   38.9210   22.8180   36.0830 O   0  0  0  0  0  0  0  0  0  0  0  0
   40.0650   22.4030   36.6690 C   0  0  0  0  0  0  0  0  0  0  0  0
   41.0900   22.5030   35.9140 O   0  0  0  0  0  0  0  0  0  0  0  0
   40.3990   21.8840   37.9200 N   0  0  0  0  0  0  0  0  0  0  0  0
   41.3120   22.0190   38.4150 H   0  0  0  0  0  0  0  0  0  0  0  0
   40.6540   21.4980   38.8580 H   0  0  0  0  0  0  0  0  0  0  0  0
   38.3900   26.6530   32.2180 C   0  0  0  0  0  0  0  0  0  0  0  0
   37.4130   26.3910   32.6740 H   0  0  0  0  0  0  0  0  0  0  0  0
   38.2690   27.7090   31.8310 H   0  0  0  0  0  0  0  0  0  0  0  0
   38.0270   24.6270   30.9090 C   0  0  0  0  0  0  0  0  0  0  0  0
   38.7230   25.8000   31.1140 C   0  0  0  0  0  0  0  0  0  0  0  0
   39.6760   26.0640   30.2120 C   0  0  0  0  0  0  0  0  0  0  0  0
   39.9330   25.2390   29.1790 N   0  0  0  0  0  0  0  0  0  0  0  0
   39.2740   24.0920   28.9550 C   0  0  0  0  0  0  0  0  0  0  0  0
   38.3140   23.7760   29.8180 N   0  0  0  0  0  0  0  0  0  0  0  0
   40.2990   26.9470   30.2480 H   0  0  0  0  0  0  0  0  0  0  0  0
   39.4280   23.3990   28.1600 H   0  0  0  0  0  0  0  0  0  0  0  0
   36.9870   24.1170   31.8510 C   0  0  1  0  0  0  0  0  0  0  0  0
   35.6050   24.1070   31.4250 C   0  0  0  0  0  0  0  0  0  0  0  0
   36.4290   22.7850   31.4320 C   0  0  2  0  0  0  0  0  0  0  0  0
   37.1170   24.4080   32.9060 H   0  0  0  0  0  0  0  0  0  0  0  0
   34.7870   24.2020   32.1580 H   0  0  0  0  0  0  0  0  0  0  0  0
   35.3600   24.5590   30.4500 H   0  0  0  0  0  0  0  0  0  0  0  0
   36.5430   22.4260   30.3690 H   0  0  0  0  0  0  0  0  0  0  0  0
   35.9480   21.8410   32.4460 C   0  0  0  0  0  0  0  0  0  0  0  0
   36.6410   21.7400   33.4500 O   0  0  0  0  0  0  0  0  0  0  0  0
   34.7760   21.1250   32.2420 O   0  0  0  0  0  0  0  0  0  0  0  0
   34.3440   20.5840   33.0090 H   0  0  0  0  0  0  0  0  0  0  0  0
  1  6  1  0  0  0  0
  2  1  1  0  0  0  0
  3  1  1  0  0  0  0
  4  5  1  0  0  0  0
  5 10  1  0  0  0  0
  6  5  2  0  0  0  0
  6  7  1  0  0  0  0
  7  8  2  0  0  0  0
  8  9  1  0  0  0  0
  8 12  1  0  0  0  0
  9 13  1  0  0  0  0
 10 17  1  0  0  0  0
 10  9  2  0  0  0  0
 11  7  1  0  0  0  0
 13 16  1  0  0  0  0
 13 14  1  0  0  0  0
 15 13  1  0  0  0  0
 17 18  1  0  0  0  0
 18 20  1  0  0  0  0
 19 18  2  0  0  0  0
 20 21  1  0  0  0  0
 20 22  1  0  0  0  0
 23 24  1  0  0  0  0
 23  1  1  0  0  0  0
 25 23  1  0  0  0  0
 26 27  1  0  0  0  0
 26 34  1  0  0  0  0
 27 23  1  0  0  0  0
 28 32  1  0  0  0  0
 28 27  2  0  0  0  0
 29 28  1  0  0  0  0
 30 29  2  0  0  0  0
 30 31  1  0  0  0  0
 31 26  2  0  0  0  0
 33 30  1  0  0  0  0
 34 37  1  1  0  0  0
 35 36  1  0  0  0  0
 35 34  1  0  0  0  0
 35 38  1  0  0  0  0
 36 40  1  6  0  0  0
 36 34  1  0  0  0  0
 36 41  1  0  0  0  0
 39 35  1  0  0  0  0
 41 42  2  0  0  0  0
 43 41  1  0  0  0  0
 43 44  1  0  0  0  0
M  END
>  <minimizedAffinity>
-5.55716038

$$$$

 OpenBabel03272508243D

 44 46  0  0  1  0  0  0  0  0999 V2000
   37.8340   27.4900   35.3870 C   0  0  0  0  0  0  0  0  0  0  0  0
   37.4850   27.6170   36.4340 H   0  0  0  0  0  0  0  0  0  0  0  0
   38.1790   28.5220   35.0750 H   0  0  0  0  0  0  0  0  0  0  0  0
   37.5570   24.8750   36.2810 F   0  0  0  0  0  0  0  0  0  0  0  0
   38.7240   25.3010   35.6840 C   0  0  0  0  0  0  0  0  0  0  0  0
   38.9190   26.6060   35.1990 C   0  0  0  0  0  0  0  0  0  0  0  0
   40.1090   26.8030   34.6540 C   0  0  0  0  0  0  0  0  0  0  0  0
   41.0930   25.8670   34.5460 C   0  0  0  0  0  0  0  0  0  0  0  0
   40.9090   24.5730   35.0270 C   0  0  0  0  0  0  0  0  0  0  0  0
   39.7070   24.3760   35.5760 C   0  0  0  0  0  0  0  0  0  0  0  0
   40.3130   27.8220   34.2540 H   0  0  0  0  0  0  0  0  0  0  0  0
   42.0400   26.1660   34.0690 H   0  0  0  0  0  0  0  0  0  0  0  0
   41.9680   23.5720   34.9150 C   0  0  0  0  0  0  0  0  0  0  0  0
   42.5160   23.6740   33.9630 H   0  0  0  0  0  0  0  0  0  0  0  0
   42.6760   23.6420   35.7820 H   0  0  0  0  0  0  0  0  0  0  0  0
   41.5060   22.5420   34.9200 H   0  0  0  0  0  0  0  0  0  0  0  0
   39.5150   23.0320   36.0870 O   0  0  0  0  0  0  0  0  0  0  0  0
   39.6290   22.8920   37.4250 C   0  0  0  0  0  0  0  0  0  0  0  0
   40.8150   22.6190   37.8090 O   0  0  0  0  0  0  0  0  0  0  0  0
   38.7480   22.9780   38.5030 N   0  0  0  0  0  0  0  0  0  0  0  0
   38.9930   23.2950   39.4710 H   0  0  0  0  0  0  0  0  0  0  0  0
   38.0910   23.0430   39.3140 H   0  0  0  0  0  0  0  0  0  0  0  0
   36.5980   27.2090   34.5890 C   0  0  0  0  0  0  0  0  0  0  0  0
   36.3710   26.1270   34.6720 H   0  0  0  0  0  0  0  0  0  0  0  0
   35.7520   27.7370   35.1220 H   0  0  0  0  0  0  0  0  0  0  0  0
   36.6270   26.7430   32.1940 C   0  0  0  0  0  0  0  0  0  0  0  0
   36.6240   27.6580   33.2260 C   0  0  0  0  0  0  0  0  0  0  0  0
   36.6240   28.9420   32.8510 C   0  0  0  0  0  0  0  0  0  0  0  0
   36.6260   29.3110   31.5550 N   0  0  0  0  0  0  0  0  0  0  0  0
   36.6290   28.4440   30.5310 C   0  0  0  0  0  0  0  0  0  0  0  0
   36.6300   27.1510   30.8420 N   0  0  0  0  0  0  0  0  0  0  0  0
   36.6220   29.7660   33.5520 H   0  0  0  0  0  0  0  0  0  0  0  0
   36.6310   28.6690   29.4900 H   0  0  0  0  0  0  0  0  0  0  0  0
   36.7140   25.2680   32.4090 C   0  0  1  0  0  0  0  0  0  0  0  0
   36.4980   24.3850   31.2840 C   0  0  0  0  0  0  0  0  0  0  0  0
   37.9450   24.6640   31.7910 C   0  0  2  0  0  0  0  0  0  0  0  0
   36.2690   24.8960   33.3470 H   0  0  0  0  0  0  0  0  0  0  0  0
   36.0930   23.3700   31.4300 H   0  0  0  0  0  0  0  0  0  0  0  0
   36.1910   24.8340   30.3250 H   0  0  0  0  0  0  0  0  0  0  0  0
   38.5090   25.2150   30.9850 H   0  0  0  0  0  0  0  0  0  0  0  0
   38.5580   23.4740   32.3920 C   0  0  0  0  0  0  0  0  0  0  0  0
   39.6680   23.1770   31.9700 O   0  0  0  0  0  0  0  0  0  0  0  0
   37.8880   22.7580   33.3750 O   0  0  0  0  0  0  0  0  0  0  0  0
   38.3700   22.0220   33.9170 H   0  0  0  0  0  0  0  0  0  0  0  0
  1  2  1  0  0  0  0
  3  1  1  0  0  0  0
  5  4  1  0  0  0  0
  6  1  1  0  0  0  0
  6  5  2  0  0  0  0
  7  6  1  0  0  0  0
  8  7  2  0  0  0  0
  8  9  1  0  0  0  0
  9 10  2  0  0  0  0
 10  5  1  0  0  0  0
 10 17  1  0  0  0  0
 11  7  1  0  0  0  0
 12  8  1  0  0  0  0
 13 16  1  0  0  0  0
 13  9  1  0  0  0  0
 13 15  1  0  0  0  0
 14 13  1  0  0  0  0
 17 18  1  0  0  0  0
 18 19  2  0  0  0  0
 18 20  1  0  0  0  0
 20 22  1  0  0  0  0
 20 21  1  0  0  0  0
 23 24  1  0  0  0  0
 23 25  1  0  0  0  0
 23  1  1  0  0  0  0
 26 34  1  0  0  0  0
 26 27  1  0  0  0  0
 27 23  1  0  0  0  0
 28 27  2  0  0  0  0
 28 32  1  0  0  0  0
 29 28  1  0  0  0  0
 30 31  1  0  0  0  0
 30 29  2  0  0  0  0
 31 26  2  0  0  0  0
 33 30  1  0  0  0  0
 34 37  1  1  0  0  0
 35 38  1  0  0  0  0
 35 36  1  0  0  0  0
 35 34  1  0  0  0  0
 36 40  1  6  0  0  0
 36 41  1  0  0  0  0
 36 34  1  0  0  0  0
 39 35  1  0  0  0  0
 41 43  1  0  0  0  0
 42 41  2  0  0  0  0
 43 44  1  0  0  0  0
M  END
>  <minimizedAffinity>
-5.46114111

$$$$

 OpenBabel03272508243D

 44 46  0  0  1  0  0  0  0  0999 V2000
   39.2100   26.9880   34.2010 C   0  0  0  0  0  0  0  0  0  0  0  0
   38.2350   27.3760   34.5630 H   0  0  0  0  0  0  0  0  0  0  0  0
   39.9570   27.7910   34.4810 H   0  0  0  0  0  0  0  0  0  0  0  0
   37.3630   25.4710   35.6160 F   0  0  0  0  0  0  0  0  0  0  0  0
   38.6750   25.0630   35.4960 C   0  0  0  0  0  0  0  0  0  0  0  0
   39.6510   25.7790   34.7810 C   0  0  0  0  0  0  0  0  0  0  0  0
   40.8440   25.2070   34.7840 C   0  0  0  0  0  0  0  0  0  0  0  0
   41.1580   24.0350   35.4030 C   0  0  0  0  0  0  0  0  0  0  0  0
   40.1970   23.3200   36.1150 C   0  0  0  0  0  0  0  0  0  0  0  0
   38.9930   23.9000   36.1120 C   0  0  0  0  0  0  0  0  0  0  0  0
   41.6530   25.7350   34.2300 H   0  0  0  0  0  0  0  0  0  0  0  0
   42.1940   23.6710   35.3250 H   0  0  0  0  0  0  0  0  0  0  0  0
   40.5350   22.0660   36.7840 C   0  0  0  0  0  0  0  0  0  0  0  0
   41.2520   21.4760   36.1870 H   0  0  0  0  0  0  0  0  0  0  0  0
   40.9490   22.2590   37.8080 H   0  0  0  0  0  0  0  0  0  0  0  0
   39.6030   21.4400   36.8930 H   0  0  0  0  0  0  0  0  0  0  0  0
   37.9920   23.1640   36.8600 O   0  0  0  0  0  0  0  0  0  0  0  0
   37.8090   23.5600   38.1380 C   0  0  0  0  0  0  0  0  0  0  0  0
   37.2850   22.6610   38.8790 O   0  0  0  0  0  0  0  0  0  0  0  0
   38.0590   24.7310   38.8520 N   0  0  0  0  0  0  0  0  0  0  0  0
   38.3010   24.7890   39.8700 H   0  0  0  0  0  0  0  0  0  0  0  0
   38.2470   25.6070   39.3910 H   0  0  0  0  0  0  0  0  0  0  0  0
   39.1160   27.0160   32.7060 C   0  0  0  0  0  0  0  0  0  0  0  0
   39.2520   28.0650   32.3710 H   0  0  0  0  0  0  0  0  0  0  0  0
   40.0210   26.4570   32.3230 H   0  0  0  0  0  0  0  0  0  0  0  0
   36.7770   27.1440   32.0250 C   0  0  0  0  0  0  0  0  0  0  0  0
   37.9400   26.4140   32.1470 C   0  0  0  0  0  0  0  0  0  0  0  0
   37.8750   25.1570   31.6920 C   0  0  0  0  0  0  0  0  0  0  0  0
   36.7510   24.6460   31.1540 N   0  0  0  0  0  0  0  0  0  0  0  0
   35.6060   25.3320   31.0230 C   0  0  0  0  0  0  0  0  0  0  0  0
   35.6090   26.5890   31.4570 N   0  0  0  0  0  0  0  0  0  0  0  0
   38.7110   24.4700   31.7240 H   0  0  0  0  0  0  0  0  0  0  0  0
   34.6870   24.9880   30.6080 H   0  0  0  0  0  0  0  0  0  0  0  0
   36.6240   28.5340   32.5500 C   0  0  1  0  0  0  0  0  0  0  0  0
   36.0120   29.5360   31.7050 C   0  0  0  0  0  0  0  0  0  0  0  0
   35.1950   28.8820   32.8590 C   0  0  2  0  0  0  0  0  0  0  0  0
   37.4760   28.9170   33.1350 H   0  0  0  0  0  0  0  0  0  0  0  0
   36.2770   30.6010   31.8080 H   0  0  0  0  0  0  0  0  0  0  0  0
   35.7580   29.2550   30.6700 H   0  0  0  0  0  0  0  0  0  0  0  0
   34.3500   28.2850   32.4100 H   0  0  0  0  0  0  0  0  0  0  0  0
   34.8890   29.8380   33.9290 C   0  0  0  0  0  0  0  0  0  0  0  0
   33.7690   30.3300   33.9000 O   0  0  0  0  0  0  0  0  0  0  0  0
   35.8400   30.1400   34.8960 O   0  0  0  0  0  0  0  0  0  0  0  0
   35.5860   30.6810   35.7390 H   0  0  0  0  0  0  0  0  0  0  0  0
  1  3  1  0  0  0  0
  1  2  1  0  0  0  0
  1  6  1  0  0  0  0
  5  4  1  0  0  0  0
  5 10  1  0  0  0  0
  6  7  1  0  0  0  0
  6  5  2  0  0  0  0
  7  8  2  0  0  0  0
  8  9  1  0  0  0  0
  9 13  1  0  0  0  0
 10  9  2  0  0  0  0
 10 17  1  0  0  0  0
 11  7  1  0  0  0  0
 12  8  1  0  0  0  0
 13 16  1  0  0  0  0
 13 15  1  0  0  0  0
 14 13  1  0  0  0  0
 17 18  1  0  0  0  0
 18 20  1  0  0  0  0
 18 19  2  0  0  0  0
 20 22  1  0  0  0  0
 20 21  1  0  0  0  0
 23  1  1  0  0  0  0
 24 23  1  0  0  0  0
 25 23  1  0  0  0  0
 26 27  1  0  0  0  0
 26 34  1  0  0  0  0
 27 23  1  0  0  0  0
 28 32  1  0  0  0  0
 28 27  2  0  0  0  0
 29 28  1  0  0  0  0
 30 29  2  0  0  0  0
 30 31  1  0  0  0  0
 31 26  2  0  0  0  0
 33 30  1  0  0  0  0
 34 36  1  0  0  0  0
 34 37  1  1  0  0  0
 35 38  1  0  0  0  0
 35 34  1  0  0  0  0
 35 36  1  0  0  0  0
 36 40  1  6  0  0  0
 36 41  1  0  0  0  0
 39 35  1  0  0  0  0
 41 43  1  0  0  0  0
 42 41  2  0  0  0  0
 43 44  1  0  0  0  0
M  END
>  <minimizedAffinity>
-5.4386816

$$$$

 OpenBabel03272508243D

 44 46  0  0  1  0  0  0  0  0999 V2000
   36.5550   27.8240   34.5640 C   0  0  0  0  0  0  0  0  0  0  0  0
   37.3140   28.1320   35.3140 H   0  0  0  0  0  0  0  0  0  0  0  0
   35.6720   27.4740   35.1800 H   0  0  0  0  0  0  0  0  0  0  0  0
   36.2150   30.3760   35.6050 F   0  0  0  0  0  0  0  0  0  0  0  0
   35.9270   30.1030   34.2850 C   0  0  0  0  0  0  0  0  0  0  0  0
   36.0930   28.8380   33.6970 C   0  0  0  0  0  0  0  0  0  0  0  0
   35.7660   28.7950   32.4150 C   0  0  0  0  0  0  0  0  0  0  0  0
   35.3060   29.8470   31.6810 C   0  0  0  0  0  0  0  0  0  0  0  0
   35.1370   31.1040   32.2570 C   0  0  0  0  0  0  0  0  0  0  0  0
   35.4670   31.1440   33.5510 C   0  0  0  0  0  0  0  0  0  0  0  0
   35.8800   27.8130   31.9020 H   0  0  0  0  0  0  0  0  0  0  0  0
   35.0710   29.6720   30.6200 H   0  0  0  0  0  0  0  0  0  0  0  0
   34.6380   32.2300   31.4700 C   0  0  0  0  0  0  0  0  0  0  0  0
   35.0350   32.2050   30.4410 H   0  0  0  0  0  0  0  0  0  0  0  0
   33.5170   32.2400   31.4550 H   0  0  0  0  0  0  0  0  0  0  0  0
   34.9930   33.1940   31.9370 H   0  0  0  0  0  0  0  0  0  0  0  0
   35.2830   32.4500   34.1570 O   0  0  0  0  0  0  0  0  0  0  0  0
   36.4060   33.1810   34.3240 C   0  0  0  0  0  0  0  0  0  0  0  0
   36.6920   33.4020   35.5480 O   0  0  0  0  0  0  0  0  0  0  0  0
   37.3400   33.7600   33.4660 N   0  0  0  0  0  0  0  0  0  0  0  0
   38.3580   33.8990   33.6730 H   0  0  0  0  0  0  0  0  0  0  0  0
   38.0450   34.1940   32.8260 H   0  0  0  0  0  0  0  0  0  0  0  0
   37.1170   26.5960   33.9150 C   0  0  0  0  0  0  0  0  0  0  0  0
   36.5390   25.7200   34.2740 H   0  0  0  0  0  0  0  0  0  0  0  0
   36.8780   26.6840   32.8130 H   0  0  0  0  0  0  0  0  0  0  0  0
   39.0250   25.5220   34.9910 C   0  0  0  0  0  0  0  0  0  0  0  0
   38.5320   26.4100   34.0580 C   0  0  0  0  0  0  0  0  0  0  0  0
   39.4570   27.0340   33.3200 C   0  0  0  0  0  0  0  0  0  0  0  0
   40.7760   26.8070   33.4790 N   0  0  0  0  0  0  0  0  0  0  0  0
   41.2830   25.9500   34.3780 C   0  0  0  0  0  0  0  0  0  0  0  0
   40.4120   25.2990   35.1420 N   0  0  0  0  0  0  0  0  0  0  0  0
   39.2160   27.7560   32.5520 H   0  0  0  0  0  0  0  0  0  0  0  0
   42.3110   25.7260   34.5530 H   0  0  0  0  0  0  0  0  0  0  0  0
   38.1590   24.7940   35.9650 C   0  0  1  0  0  0  0  0  0  0  0  0
   38.0360   23.3570   35.8520 C   0  0  0  0  0  0  0  0  0  0  0  0
   38.9520   23.9790   36.9490 C   0  0  2  0  0  0  0  0  0  0  0  0
   37.2110   25.2940   36.2260 H   0  0  0  0  0  0  0  0  0  0  0  0
   37.1220   22.8400   36.1850 H   0  0  0  0  0  0  0  0  0  0  0  0
   38.5210   22.8630   34.9950 H   0  0  0  0  0  0  0  0  0  0  0  0
   40.0220   23.6980   36.7280 H   0  0  0  0  0  0  0  0  0  0  0  0
   38.4290   23.7490   38.3000 C   0  0  0  0  0  0  0  0  0  0  0  0
   37.8730   24.7050   38.8260 O   0  0  0  0  0  0  0  0  0  0  0  0
   38.5740   22.5100   38.9100 O   0  0  0  0  0  0  0  0  0  0  0  0
   38.0730   22.2880   39.7860 H   0  0  0  0  0  0  0  0  0  0  0  0
  1  3  1  0  0  0  0
  1  2  1  0  0  0  0
  5  4  1  0  0  0  0
  6  5  1  0  0  0  0
  6  1  1  0  0  0  0
  7  6  2  0  0  0  0
  8  9  2  0  0  0  0
  8  7  1  0  0  0  0
  9 10  1  0  0  0  0
 10 17  1  0  0  0  0
 10  5  2  0  0  0  0
 11  7  1  0  0  0  0
 12  8  1  0  0  0  0
 13 16  1  0  0  0  0
 13  9  1  0  0  0  0
 14 13  1  0  0  0  0
 15 13  1  0  0  0  0
 17 18  1  0  0  0  0
 18 19  2  0  0  0  0
 20 21  1  0  0  0  0
 20 18  1  0  0  0  0
 22 20  1  0  0  0  0
 23 27  1  0  0  0  0
 23 24  1  0  0  0  0
 23  1  1  0  0  0  0
 25 23  1  0  0  0  0
 26 31  1  0  0  0  0
 26 34  1  0  0  0  0
 27 26  2  0  0  0  0
 28 29  2  0  0  0  0
 28 27  1  0  0  0  0
 29 30  1  0  0  0  0
 30 33  1  0  0  0  0
 30 31  2  0  0  0  0
 32 28  1  0  0  0  0
 34 37  1  1  0  0  0
 34 36  1  0  0  0  0
 35 34  1  0  0  0  0
 35 38  1  0  0  0  0
 35 36  1  0  0  0  0
 36 40  1  6  0  0  0
 36 41  1  0  0  0  0
 39 35  1  0  0  0  0
 41 42  2  0  0  0  0
 41 43  1  0  0  0  0
 43 44  1  0  0  0  0
M  END
>  <minimizedAffinity>
-5.4237442

$$$$
