
 OpenBabel03272507273D

 38 40  0  0  1  0  0  0  0  0999 V2000
   36.8580   29.9370   49.1950 C   0  0  0  0  0  0  0  0  0  0  0  0
   37.8340   30.6080   48.4310 C   0  0  0  0  0  0  0  0  0  0  0  0
   37.5190   30.9160   47.1010 C   0  0  0  0  0  0  0  0  0  0  0  0
   36.3190   30.5600   46.6350 N   0  0  0  0  0  0  0  0  0  0  0  0
   35.4080   29.9190   47.3910 C   0  0  0  0  0  0  0  0  0  0  0  0
   35.6810   29.6120   48.6610 N   0  0  0  0  0  0  0  0  0  0  0  0
   38.4550   31.5850   46.2880 N   0  0  0  0  0  0  0  0  0  0  0  0
   39.4790   32.5250   46.7600 C   0  0  0  0  0  0  0  0  0  0  0  0
   40.0870   33.1430   45.5530 C   0  0  0  0  0  0  0  0  0  0  0  0
   39.0820   32.8900   44.5060 C   0  0  0  0  0  0  0  0  0  0  0  0
   38.6180   31.5040   44.8690 C   0  0  2  0  0  0  0  0  0  0  0  0
   37.1020   29.7000   50.2210 H   0  0  0  0  0  0  0  0  0  0  0  0
   38.7920   30.8700   48.8730 H   0  0  0  0  0  0  0  0  0  0  0  0
   34.4690   29.6810   46.9030 H   0  0  0  0  0  0  0  0  0  0  0  0
   40.1970   31.9720   47.4110 H   0  0  0  0  0  0  0  0  0  0  0  0
   38.9100   33.2850   47.3330 H   0  0  0  0  0  0  0  0  0  0  0  0
   40.2320   34.2420   45.7800 H   0  0  0  0  0  0  0  0  0  0  0  0
   41.1170   32.8000   45.3060 H   0  0  0  0  0  0  0  0  0  0  0  0
   38.2540   33.6200   44.5920 H   0  0  0  0  0  0  0  0  0  0  0  0
   39.5380   32.9290   43.4910 H   0  0  0  0  0  0  0  0  0  0  0  0
   37.4480   31.0490   44.0570 C   0  0  0  0  0  0  0  0  0  0  0  0
   36.3460   31.7440   44.5390 F   0  0  0  0  0  0  0  0  0  0  0  0
   37.1550   29.7220   44.1280 F   0  0  0  0  0  0  0  0  0  0  0  0
   37.6660   31.5070   42.7640 F   0  0  0  0  0  0  0  0  0  0  0  0
   39.7360   30.5500   44.6400 C   0  0  0  0  0  0  0  0  0  0  0  0
   39.4010   29.5960   45.0960 H   0  0  0  0  0  0  0  0  0  0  0  0
   40.5830   30.8770   45.3130 H   0  0  0  0  0  0  0  0  0  0  0  0
   40.1300   30.7330   43.4750 O   0  0  0  0  0  0  0  0  0  0  0  0
   40.4720   29.9720   42.4060 C   0  0  0  0  0  0  0  0  0  0  0  0
   40.8410   30.7360   41.4800 O   0  0  0  0  0  0  0  0  0  0  0  0
   40.6310   28.7200   41.7840 N   0  0  0  0  0  0  0  0  0  0  0  0
   39.9990   27.5780   42.4090 C   0  0  0  0  0  3  0  0  0  0  0  0
   40.7570   26.7390   42.4770 H   0  0  0  0  0  0  0  0  0  0  0  0
   38.9560   27.0640   41.4120 C   0  0  0  0  0  3  0  0  0  0  0  0
   38.3840   26.2580   41.8670 H   0  0  0  0  0  0  0  0  0  0  0  0
   39.6380   26.6400   40.2850 O   0  0  0  0  0  0  0  0  0  0  0  0
   40.2570   27.7240   39.6600 C   0  0  0  0  0  2  0  0  0  0  0  0
   41.3280   28.2820   40.5740 C   0  0  0  0  0  2  0  0  0  0  0  0
  1 12  1  0  0  0  0
  2 13  1  0  0  0  0
  2  1  2  0  0  0  0
  3  2  1  0  0  0  0
  4  3  2  0  0  0  0
  4  5  1  0  0  0  0
  5  6  2  0  0  0  0
  6  1  1  0  0  0  0
  7  8  1  0  0  0  0
  7  3  1  0  0  0  0
  8 16  1  0  0  0  0
  8 15  1  0  0  0  0
  9 17  1  0  0  0  0
  9  8  1  0  0  0  0
 10 19  1  0  0  0  0
 10 11  1  0  0  0  0
 10  9  1  0  0  0  0
 11 21  1  6  0  0  0
 11  7  1  0  0  0  0
 14  5  1  0  0  0  0
 18  9  1  0  0  0  0
 20 10  1  0  0  0  0
 21 23  1  0  0  0  0
 21 22  1  0  0  0  0
 24 21  1  0  0  0  0
 25 11  1  0  0  0  0
 25 26  1  0  0  0  0
 25 27  1  0  0  0  0
 28 25  1  0  0  0  0
 29 28  1  0  0  0  0
 30 29  2  0  0  0  0
 31 29  1  0  0  0  0
 31 32  1  0  0  0  0
 32 33  1  0  0  0  0
 34 35  1  0  0  0  0
 34 32  1  0  0  0  0
 36 34  1  0  0  0  0
 37 36  1  0  0  0  0
 37 38  1  0  0  0  0
 38 31  1  0  0  0  0
M  END
>  <minimizedAffinity>
-5.19938612

>  <minimizedRMSD>
0.897832394

$$$$
