
 OpenBabel03272507273D

 38 40  0  0  1  0  0  0  0  0999 V2000
   36.7740   29.8130   49.5160 C   0  0  0  0  0  0  0  0  0  0  0  0
   37.7430   30.5220   48.7770 C   0  0  0  0  0  0  0  0  0  0  0  0
   37.4480   30.8250   47.4420 C   0  0  0  0  0  0  0  0  0  0  0  0
   36.2730   30.4290   46.9460 N   0  0  0  0  0  0  0  0  0  0  0  0
   35.3680   29.7530   47.6780 C   0  0  0  0  0  0  0  0  0  0  0  0
   35.6210   29.4490   48.9530 N   0  0  0  0  0  0  0  0  0  0  0  0
   38.3790   31.5310   46.6540 N   0  0  0  0  0  0  0  0  0  0  0  0
   39.3580   32.5030   47.1540 C   0  0  0  0  0  0  0  0  0  0  0  0
   39.9720   33.1490   45.9640 C   0  0  0  0  0  0  0  0  0  0  0  0
   39.0010   32.8670   44.8930 C   0  0  0  0  0  0  0  0  0  0  0  0
   38.5780   31.4630   45.2390 C   0  0  2  0  0  0  0  0  0  0  0  0
   37.0020   29.5790   50.5460 H   0  0  0  0  0  0  0  0  0  0  0  0
   38.6810   30.8140   49.2430 H   0  0  0  0  0  0  0  0  0  0  0  0
   34.4490   29.4850   47.1670 H   0  0  0  0  0  0  0  0  0  0  0  0
   40.0790   31.9730   47.8190 H   0  0  0  0  0  0  0  0  0  0  0  0
   38.7490   33.2400   47.7170 H   0  0  0  0  0  0  0  0  0  0  0  0
   40.0730   34.2510   46.1990 H   0  0  0  0  0  0  0  0  0  0  0  0
   41.0180   32.8440   45.7400 H   0  0  0  0  0  0  0  0  0  0  0  0
   38.1460   33.5660   44.9630 H   0  0  0  0  0  0  0  0  0  0  0  0
   39.4790   32.9260   43.8890 H   0  0  0  0  0  0  0  0  0  0  0  0
   37.4440   30.9720   44.3980 C   0  0  0  0  0  0  0  0  0  0  0  0
   36.2890   31.5120   44.9470 F   0  0  0  0  0  0  0  0  0  0  0  0
   37.2790   29.6210   44.3520 F   0  0  0  0  0  0  0  0  0  0  0  0
   37.5980   31.5600   43.1490 F   0  0  0  0  0  0  0  0  0  0  0  0
   39.7340   30.5500   45.0320 C   0  0  0  0  0  0  0  0  0  0  0  0
   39.3830   29.5550   45.3770 H   0  0  0  0  0  0  0  0  0  0  0  0
   40.5110   30.8320   45.8020 H   0  0  0  0  0  0  0  0  0  0  0  0
   40.2230   30.8370   43.9260 O   0  0  0  0  0  0  0  0  0  0  0  0
   40.4940   30.2010   42.7590 C   0  0  0  0  0  0  0  0  0  0  0  0
   40.2710   30.9970   41.8150 O   0  0  0  0  0  0  0  0  0  0  0  0
   40.9130   29.0650   42.0430 N   0  0  0  0  0  0  0  0  0  0  0  0
   40.1430   27.8500   42.2040 C   0  0  0  0  0  3  0  0  0  0  0  0
   40.8560   26.9940   42.4060 H   0  0  0  0  0  0  0  0  0  0  0  0
   39.5480   27.5320   40.8290 C   0  0  0  0  0  3  0  0  0  0  0  0
   38.8810   26.6760   40.9100 H   0  0  0  0  0  0  0  0  0  0  0  0
   40.6050   27.2830   39.9710 O   0  0  0  0  0  0  0  0  0  0  0  0
   41.3660   28.4400   39.7960 C   0  0  0  0  0  2  0  0  0  0  0  0
   42.0150   28.8150   41.1130 C   0  0  0  0  0  2  0  0  0  0  0  0
  1 12  1  0  0  0  0
  2 13  1  0  0  0  0
  2  1  2  0  0  0  0
  3  2  1  0  0  0  0
  4  3  2  0  0  0  0
  4  5  1  0  0  0  0
  5  6  2  0  0  0  0
  6  1  1  0  0  0  0
  7  8  1  0  0  0  0
  7  3  1  0  0  0  0
  8 16  1  0  0  0  0
  8 15  1  0  0  0  0
  9 17  1  0  0  0  0
  9  8  1  0  0  0  0
 10 19  1  0  0  0  0
 10 11  1  0  0  0  0
 10  9  1  0  0  0  0
 11 21  1  6  0  0  0
 11  7  1  0  0  0  0
 14  5  1  0  0  0  0
 18  9  1  0  0  0  0
 20 10  1  0  0  0  0
 21 22  1  0  0  0  0
 23 21  1  0  0  0  0
 24 21  1  0  0  0  0
 25 11  1  0  0  0  0
 25 26  1  0  0  0  0
 25 27  1  0  0  0  0
 28 25  1  0  0  0  0
 29 28  1  0  0  0  0
 30 29  2  0  0  0  0
 31 32  1  0  0  0  0
 31 29  1  0  0  0  0
 32 33  1  0  0  0  0
 34 35  1  0  0  0  0
 34 32  1  0  0  0  0
 36 34  1  0  0  0  0
 37 36  1  0  0  0  0
 37 38  1  0  0  0  0
 38 31  1  0  0  0  0
M  END
>  <minimizedAffinity>
-5.3686204

>  <minimizedRMSD>
0.697941899

$$$$
