
 OpenBabel03272503243D

 31 33  0  0  1  0  0  0  0  0999 V2000
   36.2530   29.8400   49.3310 N   0  0  0  0  0  0  0  0  0  0  0  0
   36.7260   31.2110   49.4460 C   0  0  1  0  0  0  0  0  0  0  0  0
   37.3210   31.1870   50.8510 C   0  0  0  0  0  0  0  0  0  0  0  0
   36.9760   29.8330   51.4550 C   0  0  0  0  0  0  0  0  0  0  0  0
   37.0060   28.9740   50.2090 C   0  0  0  0  0  0  0  0  0  0  0  0
   35.8690   31.9190   49.4320 H   0  0  0  0  0  0  0  0  0  0  0  0
   36.8120   31.9380   51.4870 H   0  0  0  0  0  0  0  0  0  0  0  0
   38.4040   31.3800   50.8400 H   0  0  0  0  0  0  0  0  0  0  0  0
   37.8160   29.5190   52.1010 H   0  0  0  0  0  0  0  0  0  0  0  0
   35.9900   29.8310   51.9340 H   0  0  0  0  0  0  0  0  0  0  0  0
   38.0350   28.8070   49.8930 H   0  0  0  0  0  0  0  0  0  0  0  0
   36.4590   28.0230   50.3680 H   0  0  0  0  0  0  0  0  0  0  0  0
   37.7400   31.5560   48.4380 C   0  0  0  0  0  0  0  0  0  0  0  0
   38.7320   32.1450   48.8070 O   0  0  0  0  0  0  0  0  0  0  0  0
   38.0720   31.4820   47.0540 N   0  0  0  0  0  0  0  0  0  0  0  0
   39.1510   32.4490   46.9140 C   0  0  0  0  0  3  0  0  0  0  0  0
   40.0170   32.0760   47.4620 H   0  0  0  0  0  0  0  0  0  0  0  0
   39.4750   32.4670   45.4230 C   0  0  0  0  0  3  0  0  0  0  0  0
   40.2640   33.2510   45.3070 H   0  0  0  0  0  0  0  0  0  0  0  0
   38.3340   32.8050   44.7250 O   0  0  0  0  0  0  0  0  0  0  0  0
   37.4000   31.7980   44.7810 C   0  0  0  0  0  2  0  0  0  0  0  0
   37.6630   30.7690   45.8580 C   0  0  0  0  0  2  0  0  0  0  0  0
   35.1960   29.4240   48.4720 C   0  0  0  0  0  0  0  0  0  0  0  0
   34.5880   30.3900   47.6570 C   0  0  0  0  0  0  0  0  0  0  0  0
   33.5510   30.0340   46.8000 C   0  0  0  0  0  0  0  0  0  0  0  0
   33.1820   28.6960   46.8160 N   0  0  0  0  0  0  0  0  0  0  0  0
   33.7790   27.8040   47.6030 C   0  0  0  0  0  0  0  0  0  0  0  0
   34.7940   28.1650   48.4370 N   0  0  0  0  0  0  0  0  0  0  0  0
   34.8760   31.4370   47.6420 H   0  0  0  0  0  0  0  0  0  0  0  0
   33.0760   30.7710   46.1670 H   0  0  0  0  0  0  0  0  0  0  0  0
   33.4420   26.7970   47.5620 H   0  0  0  0  0  0  0  0  0  0  0  0
  1  2  1  0  0  0  0
  1  5  1  0  0  0  0
  2  6  1  6  0  0  0
  2  3  1  0  0  0  0
  3  4  1  0  0  0  0
  3  7  1  0  0  0  0
  4 10  1  0  0  0  0
  4  9  1  0  0  0  0
  5 12  1  0  0  0  0
  5  4  1  0  0  0  0
  8  3  1  0  0  0  0
 11  5  1  0  0  0  0
 13 14  2  0  0  0  0
 13  2  1  0  0  0  0
 15 13  1  0  0  0  0
 16 15  1  0  0  0  0
 16 17  1  0  0  0  0
 18 16  1  0  0  0  0
 19 18  1  0  0  0  0
 20 21  1  0  0  0  0
 20 18  1  0  0  0  0
 21 22  1  0  0  0  0
 22 15  1  0  0  0  0
 23  1  1  0  0  0  0
 24 23  2  0  0  0  0
 25 26  2  0  0  0  0
 25 24  1  0  0  0  0
 26 27  1  0  0  0  0
 27 28  2  0  0  0  0
 28 23  1  0  0  0  0
 29 24  1  0  0  0  0
 30 25  1  0  0  0  0
 31 27  1  0  0  0  0
M  END
>  <minimizedAffinity>
-5.59384727

>  <minimizedRMSD>
1.68784714

$$$$
