
 OpenBabel03272507273D

 38 40  0  0  1  0  0  0  0  0999 V2000
   36.5600   20.8330   33.3980 C   0  0  0  0  0  0  0  0  0  0  0  0
   37.7410   21.4820   33.8140 C   0  0  0  0  0  0  0  0  0  0  0  0
   37.8130   21.9050   35.1480 C   0  0  0  0  0  0  0  0  0  0  0  0
   36.7690   21.6710   35.9460 N   0  0  0  0  0  0  0  0  0  0  0  0
   35.6540   21.0480   35.5170 C   0  0  0  0  0  0  0  0  0  0  0  0
   35.5560   20.6340   34.2520 N   0  0  0  0  0  0  0  0  0  0  0  0
   38.9680   22.5600   35.6200 N   0  0  0  0  0  0  0  0  0  0  0  0
   40.3310   22.3630   35.1120 C   0  0  0  0  0  0  0  0  0  0  0  0
   41.2450   23.0840   36.0370 C   0  0  0  0  0  0  0  0  0  0  0  0
   40.4300   23.2470   37.2530 C   0  0  0  0  0  0  0  0  0  0  0  0
   39.0730   23.5330   36.6640 C   0  0  2  0  0  0  0  0  0  0  0  0
   36.5040   20.5070   32.3700 H   0  0  0  0  0  0  0  0  0  0  0  0
   38.5550   21.6400   33.1120 H   0  0  0  0  0  0  0  0  0  0  0  0
   34.8720   20.9140   36.2560 H   0  0  0  0  0  0  0  0  0  0  0  0
   40.3700   22.7110   34.0540 H   0  0  0  0  0  0  0  0  0  0  0  0
   40.4960   21.2680   35.1890 H   0  0  0  0  0  0  0  0  0  0  0  0
   42.1510   22.4250   36.1890 H   0  0  0  0  0  0  0  0  0  0  0  0
   41.6840   24.0260   35.6380 H   0  0  0  0  0  0  0  0  0  0  0  0
   40.4190   22.3040   37.8310 H   0  0  0  0  0  0  0  0  0  0  0  0
   40.8020   24.0890   37.8780 H   0  0  0  0  0  0  0  0  0  0  0  0
   37.9880   23.5740   37.6910 C   0  0  0  0  0  0  0  0  0  0  0  0
   38.3890   24.5010   38.6450 F   0  0  0  0  0  0  0  0  0  0  0  0
   37.7400   22.4040   38.3410 F   0  0  0  0  0  0  0  0  0  0  0  0
   36.8730   24.1140   37.0630 F   0  0  0  0  0  0  0  0  0  0  0  0
   39.1150   24.8560   35.9860 C   0  0  0  0  0  0  0  0  0  0  0  0
   40.1850   25.1470   35.9820 H   0  0  0  0  0  0  0  0  0  0  0  0
   38.6460   25.5980   36.6970 H   0  0  0  0  0  0  0  0  0  0  0  0
   38.3490   24.7820   35.0090 O   0  0  0  0  0  0  0  0  0  0  0  0
   37.7220   25.6380   34.1650 C   0  0  0  0  0  0  0  0  0  0  0  0
   37.0090   26.4140   34.8470 O   0  0  0  0  0  0  0  0  0  0  0  0
   37.4550   26.1180   32.8700 N   0  0  0  0  0  0  0  0  0  0  0  0
   37.1900   25.1400   31.8350 C   0  0  0  0  0  3  0  0  0  0  0  0
   37.8200   25.3940   30.9290 H   0  0  0  0  0  0  0  0  0  0  0  0
   35.7490   25.3820   31.3740 C   0  0  0  0  0  3  0  0  0  0  0  0
   35.4640   24.6130   30.6580 H   0  0  0  0  0  0  0  0  0  0  0  0
   35.7010   26.6480   30.8190 O   0  0  0  0  0  0  0  0  0  0  0  0
   35.9520   27.6130   31.7960 C   0  0  0  0  0  2  0  0  0  0  0  0
   37.3760   27.4610   32.2930 C   0  0  0  0  0  2  0  0  0  0  0  0
  1  2  2  0  0  0  0
  1  6  1  0  0  0  0
  2  3  1  0  0  0  0
  3  7  1  0  0  0  0
  3  4  2  0  0  0  0
  5  4  1  0  0  0  0
  5 14  1  0  0  0  0
  6  5  2  0  0  0  0
  7 11  1  0  0  0  0
  8 16  1  0  0  0  0
  8  7  1  0  0  0  0
  8  9  1  0  0  0  0
  9 17  1  0  0  0  0
  9 10  1  0  0  0  0
 10 19  1  0  0  0  0
 10 20  1  0  0  0  0
 11 25  1  6  0  0  0
 11 10  1  0  0  0  0
 11 21  1  0  0  0  0
 12  1  1  0  0  0  0
 13  2  1  0  0  0  0
 15  8  1  0  0  0  0
 18  9  1  0  0  0  0
 21 23  1  0  0  0  0
 21 22  1  0  0  0  0
 24 21  1  0  0  0  0
 25 27  1  0  0  0  0
 26 25  1  0  0  0  0
 28 25  1  0  0  0  0
 29 30  2  0  0  0  0
 29 28  1  0  0  0  0
 31 29  1  0  0  0  0
 32 31  1  0  0  0  0
 33 32  1  0  0  0  0
 34 32  1  0  0  0  0
 35 34  1  0  0  0  0
 36 34  1  0  0  0  0
 36 37  1  0  0  0  0
 37 38  1  0  0  0  0
 38 31  1  0  0  0  0
M  END
>  <minimizedAffinity>
-5.46303701

$$$$

 OpenBabel03272507273D

 38 40  0  0  1  0  0  0  0  0999 V2000
   37.2440   26.1400   31.0800 C   0  0  0  0  0  0  0  0  0  0  0  0
   37.8660   24.8810   30.9550 C   0  0  0  0  0  0  0  0  0  0  0  0
   37.0400   23.7500   30.9240 C   0  0  0  0  0  0  0  0  0  0  0  0
   35.7200   23.9250   31.0120 N   0  0  0  0  0  0  0  0  0  0  0  0
   35.1560   25.1420   31.1310 C   0  0  0  0  0  0  0  0  0  0  0  0
   35.9170   26.2380   31.1640 N   0  0  0  0  0  0  0  0  0  0  0  0
   37.6060   22.4650   30.8020 N   0  0  0  0  0  0  0  0  0  0  0  0
   38.8680   22.1470   30.1240 C   0  0  0  0  0  0  0  0  0  0  0  0
   38.9590   20.6650   30.0520 C   0  0  0  0  0  0  0  0  0  0  0  0
   37.5650   20.2350   30.2550 C   0  0  0  0  0  0  0  0  0  0  0  0
   37.0990   21.2210   31.2940 C   0  0  2  0  0  0  0  0  0  0  0  0
   37.8800   27.0130   31.1040 H   0  0  0  0  0  0  0  0  0  0  0  0
   38.9480   24.8100   30.8870 H   0  0  0  0  0  0  0  0  0  0  0  0
   34.0730   25.1600   31.1940 H   0  0  0  0  0  0  0  0  0  0  0  0
   39.7030   22.6380   30.6770 H   0  0  0  0  0  0  0  0  0  0  0  0
   38.7460   22.5720   29.1060 H   0  0  0  0  0  0  0  0  0  0  0  0
   39.3640   20.4070   29.0290 H   0  0  0  0  0  0  0  0  0  0  0  0
   39.6980   20.1970   30.7400 H   0  0  0  0  0  0  0  0  0  0  0  0
   36.9920   20.3510   29.3150 H   0  0  0  0  0  0  0  0  0  0  0  0
   37.5160   19.1850   30.6200 H   0  0  0  0  0  0  0  0  0  0  0  0
   35.6330   21.1260   31.5710 C   0  0  0  0  0  0  0  0  0  0  0  0
   34.9890   21.5100   30.4020 F   0  0  0  0  0  0  0  0  0  0  0  0
   35.1640   21.9190   32.5730 F   0  0  0  0  0  0  0  0  0  0  0  0
   35.3530   19.7760   31.7490 F   0  0  0  0  0  0  0  0  0  0  0  0
   37.8250   20.9570   32.5640 C   0  0  0  0  0  0  0  0  0  0  0  0
   38.7350   20.3960   32.2680 H   0  0  0  0  0  0  0  0  0  0  0  0
   37.2190   20.1890   33.1300 H   0  0  0  0  0  0  0  0  0  0  0  0
   37.7680   22.0040   33.2330 O   0  0  0  0  0  0  0  0  0  0  0  0
   37.8880   22.3650   34.5350 C   0  0  0  0  0  0  0  0  0  0  0  0
   37.0960   21.6660   35.2120 O   0  0  0  0  0  0  0  0  0  0  0  0
   38.4690   23.1490   35.5480 N   0  0  0  0  0  0  0  0  0  0  0  0
   38.6130   24.5670   35.2970 C   0  0  0  0  0  3  0  0  0  0  0  0
   39.6690   24.8760   35.5660 H   0  0  0  0  0  0  0  0  0  0  0  0
   37.7360   25.2780   36.3320 C   0  0  0  0  0  3  0  0  0  0  0  0
   37.7340   26.3480   36.1320 H   0  0  0  0  0  0  0  0  0  0  0  0
   38.2560   24.9880   37.5820 O   0  0  0  0  0  0  0  0  0  0  0  0
   38.1280   23.6240   37.8510 C   0  0  0  0  0  2  0  0  0  0  0  0
   38.9900   22.8410   36.8810 C   0  0  0  0  0  2  0  0  0  0  0  0
  1 12  1  0  0  0  0
  1  6  1  0  0  0  0
  2  1  2  0  0  0  0
  3  2  1  0  0  0  0
  3  4  2  0  0  0  0
  4  5  1  0  0  0  0
  5  6  2  0  0  0  0
  5 14  1  0  0  0  0
  7  3  1  0  0  0  0
  7 11  1  0  0  0  0
  8 15  1  0  0  0  0
  8  7  1  0  0  0  0
  9  8  1  0  0  0  0
  9 10  1  0  0  0  0
  9 18  1  0  0  0  0
 10 20  1  0  0  0  0
 10 11  1  0  0  0  0
 11 21  1  1  0  0  0
 11 25  1  0  0  0  0
 13  2  1  0  0  0  0
 16  8  1  0  0  0  0
 17  9  1  0  0  0  0
 19 10  1  0  0  0  0
 21 24  1  0  0  0  0
 21 23  1  0  0  0  0
 22 21  1  0  0  0  0
 25 27  1  0  0  0  0
 25 28  1  0  0  0  0
 26 25  1  0  0  0  0
 28 29  1  0  0  0  0
 29 30  2  0  0  0  0
 29 31  1  0  0  0  0
 31 38  1  0  0  0  0
 32 31  1  0  0  0  0
 32 33  1  0  0  0  0
 32 34  1  0  0  0  0
 34 36  1  0  0  0  0
 35 34  1  0  0  0  0
 36 37  1  0  0  0  0
 38 37  1  0  0  0  0
M  END
>  <minimizedAffinity>
-5.43790054

$$$$

 OpenBabel03272507273D

 38 40  0  0  1  0  0  0  0  0999 V2000
   39.2850   22.6770   37.1780 C   0  0  0  0  0  0  0  0  0  0  0  0
   39.7640   23.3380   36.0290 C   0  0  0  0  0  0  0  0  0  0  0  0
   39.2660   24.6200   35.7620 C   0  0  0  0  0  0  0  0  0  0  0  0
   38.3730   25.1420   36.6060 N   0  0  0  0  0  0  0  0  0  0  0  0
   37.9340   24.4840   37.6960 C   0  0  0  0  0  0  0  0  0  0  0  0
   38.3910   23.2610   37.9750 N   0  0  0  0  0  0  0  0  0  0  0  0
   39.7070   25.3290   34.6260 N   0  0  0  0  0  0  0  0  0  0  0  0
   41.0240   25.1920   33.9930 C   0  0  0  0  0  0  0  0  0  0  0  0
   41.1280   26.2730   32.9770 C   0  0  0  0  0  0  0  0  0  0  0  0
   40.0960   27.2330   33.4040 C   0  0  0  0  0  0  0  0  0  0  0  0
   39.0000   26.3060   33.8590 C   0  0  2  0  0  0  0  0  0  0  0  0
   39.6690   21.6880   37.3830 H   0  0  0  0  0  0  0  0  0  0  0  0
   40.4940   22.8550   35.3830 H   0  0  0  0  0  0  0  0  0  0  0  0
   37.2080   25.0090   38.3070 H   0  0  0  0  0  0  0  0  0  0  0  0
   41.1170   24.1590   33.5830 H   0  0  0  0  0  0  0  0  0  0  0  0
   41.7450   25.3720   34.8170 H   0  0  0  0  0  0  0  0  0  0  0  0
   42.1790   26.6860   33.0390 H   0  0  0  0  0  0  0  0  0  0  0  0
   41.0510   25.9430   31.9170 H   0  0  0  0  0  0  0  0  0  0  0  0
   40.4730   27.8440   34.2470 H   0  0  0  0  0  0  0  0  0  0  0  0
   39.7750   27.8820   32.5590 H   0  0  0  0  0  0  0  0  0  0  0  0
   37.8660   27.0240   34.5180 C   0  0  0  0  0  0  0  0  0  0  0  0
   38.4180   27.7390   35.5730 F   0  0  0  0  0  0  0  0  0  0  0  0
   36.8820   26.2370   35.0320 F   0  0  0  0  0  0  0  0  0  0  0  0
   37.4100   27.9640   33.6020 F   0  0  0  0  0  0  0  0  0  0  0  0
   38.4610   25.5840   32.6750 C   0  0  0  0  0  0  0  0  0  0  0  0
   39.3080   25.5240   31.9620 H   0  0  0  0  0  0  0  0  0  0  0  0
   37.7420   26.2910   32.1650 H   0  0  0  0  0  0  0  0  0  0  0  0
   37.7720   24.6460   33.1120 O   0  0  0  0  0  0  0  0  0  0  0  0
   37.0910   23.5880   32.6050 C   0  0  0  0  0  0  0  0  0  0  0  0
   36.1200   24.0260   31.9410 O   0  0  0  0  0  0  0  0  0  0  0  0
   36.9120   22.2030   32.4380 N   0  0  0  0  0  0  0  0  0  0  0  0
   37.0450   21.3650   33.6110 C   0  0  0  0  0  3  0  0  0  0  0  0
   37.7230   20.4940   33.3580 H   0  0  0  0  0  0  0  0  0  0  0  0
   35.6730   20.7220   33.8390 C   0  0  0  0  0  3  0  0  0  0  0  0
   35.6890   20.1500   34.7650 H   0  0  0  0  0  0  0  0  0  0  0  0
   35.4060   19.9220   32.7420 O   0  0  0  0  0  0  0  0  0  0  0  0
   35.2720   20.7060   31.5950 C   0  0  0  0  0  2  0  0  0  0  0  0
   36.6000   21.3630   31.2800 C   0  0  0  0  0  2  0  0  0  0  0  0
  1 12  1  0  0  0  0
  1  6  1  0  0  0  0
  2  1  2  0  0  0  0
  3  2  1  0  0  0  0
  3  4  2  0  0  0  0
  4  5  1  0  0  0  0
  5  6  2  0  0  0  0
  5 14  1  0  0  0  0
  7  3  1  0  0  0  0
  8  7  1  0  0  0  0
  8 16  1  0  0  0  0
  9 17  1  0  0  0  0
  9 10  1  0  0  0  0
  9  8  1  0  0  0  0
 10 11  1  0  0  0  0
 10 19  1  0  0  0  0
 11 25  1  6  0  0  0
 11 21  1  0  0  0  0
 11  7  1  0  0  0  0
 13  2  1  0  0  0  0
 15  8  1  0  0  0  0
 18  9  1  0  0  0  0
 20 10  1  0  0  0  0
 21 23  1  0  0  0  0
 21 22  1  0  0  0  0
 24 21  1  0  0  0  0
 25 28  1  0  0  0  0
 26 25  1  0  0  0  0
 27 25  1  0  0  0  0
 29 28  1  0  0  0  0
 30 29  2  0  0  0  0
 31 29  1  0  0  0  0
 31 32  1  0  0  0  0
 32 34  1  0  0  0  0
 33 32  1  0  0  0  0
 34 35  1  0  0  0  0
 36 34  1  0  0  0  0
 37 36  1  0  0  0  0
 38 37  1  0  0  0  0
 38 31  1  0  0  0  0
M  END
>  <minimizedAffinity>
-5.42922688

$$$$

 OpenBabel03272507273D

 38 40  0  0  1  0  0  0  0  0999 V2000
   35.9380   22.4190   31.2330 C   0  0  0  0  0  0  0  0  0  0  0  0
   35.7830   23.7880   31.5300 C   0  0  0  0  0  0  0  0  0  0  0  0
   36.9300   24.5920   31.5020 C   0  0  0  0  0  0  0  0  0  0  0  0
   38.0980   24.0210   31.1970 N   0  0  0  0  0  0  0  0  0  0  0  0
   38.2130   22.7090   30.9180 C   0  0  0  0  0  0  0  0  0  0  0  0
   37.1380   21.9180   30.9380 N   0  0  0  0  0  0  0  0  0  0  0  0
   36.8370   25.9680   31.7920 N   0  0  0  0  0  0  0  0  0  0  0  0
   35.6610   26.8140   31.5530 C   0  0  0  0  0  0  0  0  0  0  0  0
   36.0820   28.2180   31.8010 C   0  0  0  0  0  0  0  0  0  0  0  0
   37.5500   28.1490   31.7030 C   0  0  0  0  0  0  0  0  0  0  0  0
   37.8290   26.8250   32.3640 C   0  0  2  0  0  0  0  0  0  0  0  0
   35.0540   21.7990   31.2550 H   0  0  0  0  0  0  0  0  0  0  0  0
   34.8020   24.1890   31.7700 H   0  0  0  0  0  0  0  0  0  0  0  0
   39.2130   22.3590   30.6850 H   0  0  0  0  0  0  0  0  0  0  0  0
   34.8280   26.4560   32.2010 H   0  0  0  0  0  0  0  0  0  0  0  0
   35.4330   26.6680   30.4760 H   0  0  0  0  0  0  0  0  0  0  0  0
   35.6080   28.8540   30.9950 H   0  0  0  0  0  0  0  0  0  0  0  0
   35.6960   28.6740   32.7400 H   0  0  0  0  0  0  0  0  0  0  0  0
   37.8590   28.1340   30.6400 H   0  0  0  0  0  0  0  0  0  0  0  0
   38.0300   28.9970   32.2410 H   0  0  0  0  0  0  0  0  0  0  0  0
   39.2600   26.4080   32.2520 C   0  0  0  0  0  0  0  0  0  0  0  0
   39.5630   26.4150   30.8970 F   0  0  0  0  0  0  0  0  0  0  0  0
   39.5570   25.1680   32.7280 F   0  0  0  0  0  0  0  0  0  0  0  0
   40.0120   27.4240   32.8280 F   0  0  0  0  0  0  0  0  0  0  0  0
   37.4930   26.9310   33.8090 C   0  0  0  0  0  0  0  0  0  0  0  0
   36.6150   27.6080   33.8540 H   0  0  0  0  0  0  0  0  0  0  0  0
   38.3150   27.5390   34.2890 H   0  0  0  0  0  0  0  0  0  0  0  0
   37.5880   25.7850   34.2830 O   0  0  0  0  0  0  0  0  0  0  0  0
   37.8970   25.2220   35.4780 C   0  0  0  0  0  0  0  0  0  0  0  0
   38.1000   26.1420   36.3070 O   0  0  0  0  0  0  0  0  0  0  0  0
   38.1120   24.0930   36.2900 N   0  0  0  0  0  0  0  0  0  0  0  0
   38.9170   23.0210   35.7450 C   0  0  0  0  0  3  0  0  0  0  0  0
   38.3760   22.0410   35.9150 H   0  0  0  0  0  0  0  0  0  0  0  0
   40.1620   22.9240   36.6330 C   0  0  0  0  0  3  0  0  0  0  0  0
   40.8500   22.1920   36.2140 H   0  0  0  0  0  0  0  0  0  0  0  0
   39.7370   22.5680   37.9010 O   0  0  0  0  0  0  0  0  0  0  0  0
   38.9580   23.5870   38.4510 C   0  0  0  0  0  2  0  0  0  0  0  0
   37.6840   23.7350   37.6430 C   0  0  0  0  0  2  0  0  0  0  0  0
  1 12  1  0  0  0  0
  1  2  1  0  0  0  0
  2 13  1  0  0  0  0
  3  2  2  0  0  0  0
  3  7  1  0  0  0  0
  4  3  1  0  0  0  0
  5  6  1  0  0  0  0
  5  4  2  0  0  0  0
  6  1  2  0  0  0  0
  7 11  1  0  0  0  0
  8  7  1  0  0  0  0
  8  9  1  0  0  0  0
  8 15  1  0  0  0  0
  9 18  1  0  0  0  0
 10  9  1  0  0  0  0
 10 20  1  0  0  0  0
 10 11  1  0  0  0  0
 11 21  1  6  0  0  0
 11 25  1  0  0  0  0
 14  5  1  0  0  0  0
 16  8  1  0  0  0  0
 17  9  1  0  0  0  0
 19 10  1  0  0  0  0
 21 23  1  0  0  0  0
 21 24  1  0  0  0  0
 22 21  1  0  0  0  0
 25 26  1  0  0  0  0
 25 28  1  0  0  0  0
 25 27  1  0  0  0  0
 28 29  1  0  0  0  0
 29 31  1  0  0  0  0
 29 30  2  0  0  0  0
 31 38  1  0  0  0  0
 32 33  1  0  0  0  0
 32 31  1  0  0  0  0
 32 34  1  0  0  0  0
 34 36  1  0  0  0  0
 35 34  1  0  0  0  0
 36 37  1  0  0  0  0
 38 37  1  0  0  0  0
M  END
>  <minimizedAffinity>
-5.40810919

$$$$

 OpenBabel03272507273D

 38 40  0  0  1  0  0  0  0  0999 V2000
   37.9950   27.1120   33.9650 C   0  0  0  0  0  0  0  0  0  0  0  0
   37.8100   26.1980   35.0230 C   0  0  0  0  0  0  0  0  0  0  0  0
   38.8740   25.3420   35.3350 C   0  0  0  0  0  0  0  0  0  0  0  0
   39.9970   25.4380   34.6190 N   0  0  0  0  0  0  0  0  0  0  0  0
   40.1420   26.3220   33.6140 C   0  0  0  0  0  0  0  0  0  0  0  0
   39.1460   27.1500   33.2930 N   0  0  0  0  0  0  0  0  0  0  0  0
   38.7460   24.4070   36.3820 N   0  0  0  0  0  0  0  0  0  0  0  0
   37.9040   24.5680   37.5730 C   0  0  0  0  0  0  0  0  0  0  0  0
   38.2440   23.4530   38.4960 C   0  0  0  0  0  0  0  0  0  0  0  0
   39.5590   23.0040   38.0080 C   0  0  0  0  0  0  0  0  0  0  0  0
   39.3820   23.1330   36.5180 C   0  0  2  0  0  0  0  0  0  0  0  0
   37.1750   27.7720   33.7250 H   0  0  0  0  0  0  0  0  0  0  0  0
   36.8680   26.1730   35.5660 H   0  0  0  0  0  0  0  0  0  0  0  0
   41.1000   26.3070   33.1040 H   0  0  0  0  0  0  0  0  0  0  0  0
   36.8360   24.5990   37.2530 H   0  0  0  0  0  0  0  0  0  0  0  0
   38.2280   25.5360   38.0090 H   0  0  0  0  0  0  0  0  0  0  0  0
   38.2750   23.8840   39.5400 H   0  0  0  0  0  0  0  0  0  0  0  0
   37.4770   22.6500   38.5790 H   0  0  0  0  0  0  0  0  0  0  0  0
   40.3510   23.6870   38.3720 H   0  0  0  0  0  0  0  0  0  0  0  0
   39.7680   21.9560   38.3180 H   0  0  0  0  0  0  0  0  0  0  0  0
   40.6490   22.9010   35.7580 C   0  0  0  0  0  0  0  0  0  0  0  0
   41.5780   23.7980   36.2680 F   0  0  0  0  0  0  0  0  0  0  0  0
   40.5820   23.1050   34.4140 F   0  0  0  0  0  0  0  0  0  0  0  0
   41.0920   21.6330   36.1110 F   0  0  0  0  0  0  0  0  0  0  0  0
   38.3840   22.1280   36.0660 C   0  0  0  0  0  0  0  0  0  0  0  0
   37.8030   21.8660   36.9740 H   0  0  0  0  0  0  0  0  0  0  0  0
   38.9580   21.1800   35.8430 H   0  0  0  0  0  0  0  0  0  0  0  0
   37.9410   22.5280   34.9750 O   0  0  0  0  0  0  0  0  0  0  0  0
   37.6150   21.9930   33.7730 C   0  0  0  0  0  0  0  0  0  0  0  0
   37.9260   22.8150   32.8770 O   0  0  0  0  0  0  0  0  0  0  0  0
   37.0880   20.9490   32.9900 N   0  0  0  0  0  0  0  0  0  0  0  0
   35.8480   20.3450   33.4280 C   0  0  0  0  0  3  0  0  0  0  0  0
   35.9670   19.2190   33.4080 H   0  0  0  0  0  0  0  0  0  0  0  0
   34.8170   20.6350   32.3320 C   0  0  0  0  0  3  0  0  0  0  0  0
   33.8390   20.2810   32.6510 H   0  0  0  0  0  0  0  0  0  0  0  0
   35.2470   19.9950   31.1830 O   0  0  0  0  0  0  0  0  0  0  0  0
   36.4440   20.5600   30.7370 C   0  0  0  0  0  2  0  0  0  0  0  0
   37.5320   20.2960   31.7580 C   0  0  0  0  0  2  0  0  0  0  0  0
  1  2  1  0  0  0  0
  2  3  2  0  0  0  0
  2 13  1  0  0  0  0
  3  7  1  0  0  0  0
  4  3  1  0  0  0  0
  5  4  2  0  0  0  0
  6  5  1  0  0  0  0
  6  1  2  0  0  0  0
  7 11  1  0  0  0  0
  7  8  1  0  0  0  0
  8 16  1  0  0  0  0
  8  9  1  0  0  0  0
  9 18  1  0  0  0  0
  9 17  1  0  0  0  0
 10 20  1  0  0  0  0
 10 19  1  0  0  0  0
 10  9  1  0  0  0  0
 11 21  1  6  0  0  0
 11 10  1  0  0  0  0
 12  1  1  0  0  0  0
 14  5  1  0  0  0  0
 15  8  1  0  0  0  0
 21 24  1  0  0  0  0
 21 22  1  0  0  0  0
 23 21  1  0  0  0  0
 25 11  1  0  0  0  0
 25 26  1  0  0  0  0
 27 25  1  0  0  0  0
 28 25  1  0  0  0  0
 29 28  1  0  0  0  0
 30 29  2  0  0  0  0
 31 32  1  0  0  0  0
 31 29  1  0  0  0  0
 33 32  1  0  0  0  0
 34 35  1  0  0  0  0
 34 32  1  0  0  0  0
 36 34  1  0  0  0  0
 37 36  1  0  0  0  0
 37 38  1  0  0  0  0
 38 31  1  0  0  0  0
M  END
>  <minimizedAffinity>
-5.34804726

$$$$

 OpenBabel03272507273D

 38 40  0  0  1  0  0  0  0  0999 V2000
   41.5370   21.8460   36.3830 C   0  0  0  0  0  0  0  0  0  0  0  0
   41.3120   22.8780   35.4500 C   0  0  0  0  0  0  0  0  0  0  0  0
   40.3180   23.8180   35.7480 C   0  0  0  0  0  0  0  0  0  0  0  0
   39.6440   23.6870   36.8930 N   0  0  0  0  0  0  0  0  0  0  0  0
   39.8820   22.6890   37.7650 C   0  0  0  0  0  0  0  0  0  0  0  0
   40.8230   21.7780   37.5070 N   0  0  0  0  0  0  0  0  0  0  0  0
   40.0480   24.8720   34.8520 N   0  0  0  0  0  0  0  0  0  0  0  0
   41.0180   25.4840   33.9360 C   0  0  0  0  0  0  0  0  0  0  0  0
   40.3610   26.6810   33.3490 C   0  0  0  0  0  0  0  0  0  0  0  0
   39.2620   26.9550   34.2910 C   0  0  0  0  0  0  0  0  0  0  0  0
   38.8130   25.5600   34.6350 C   0  0  2  0  0  0  0  0  0  0  0  0
   42.3030   21.1200   36.1530 H   0  0  0  0  0  0  0  0  0  0  0  0
   41.8980   22.9260   34.5350 H   0  0  0  0  0  0  0  0  0  0  0  0
   39.2710   22.6860   38.6610 H   0  0  0  0  0  0  0  0  0  0  0  0
   41.3380   24.7180   33.1920 H   0  0  0  0  0  0  0  0  0  0  0  0
   41.8580   25.7920   34.5930 H   0  0  0  0  0  0  0  0  0  0  0  0
   41.1380   27.5030   33.3150 H   0  0  0  0  0  0  0  0  0  0  0  0
   40.0520   26.5840   32.2840 H   0  0  0  0  0  0  0  0  0  0  0  0
   39.6520   27.4770   35.1860 H   0  0  0  0  0  0  0  0  0  0  0  0
   38.4550   27.5500   33.8080 H   0  0  0  0  0  0  0  0  0  0  0  0
   37.7960   25.5280   35.7300 C   0  0  0  0  0  0  0  0  0  0  0  0
   38.3690   26.1820   36.8130 F   0  0  0  0  0  0  0  0  0  0  0  0
   37.4170   24.2920   36.1560 F   0  0  0  0  0  0  0  0  0  0  0  0
   36.7380   26.3230   35.3070 F   0  0  0  0  0  0  0  0  0  0  0  0
   38.2070   24.9400   33.4270 C   0  0  0  0  0  0  0  0  0  0  0  0
   38.5430   25.5700   32.5780 H   0  0  0  0  0  0  0  0  0  0  0  0
   37.0970   25.1470   33.4800 H   0  0  0  0  0  0  0  0  0  0  0  0
   38.3360   23.7100   33.5530 O   0  0  0  0  0  0  0  0  0  0  0  0
   37.5780   22.6020   33.3590 C   0  0  0  0  0  0  0  0  0  0  0  0
   37.8650   21.7670   34.2510 O   0  0  0  0  0  0  0  0  0  0  0  0
   36.6000   21.8870   32.6440 N   0  0  0  0  0  0  0  0  0  0  0  0
   36.6840   21.9000   31.1990 C   0  0  0  0  0  3  0  0  0  0  0  0
   35.6610   22.1420   30.7790 H   0  0  0  0  0  0  0  0  0  0  0  0
   36.9350   20.4500   30.7700 C   0  0  0  0  0  3  0  0  0  0  0  0
   37.0990   20.4130   29.6950 H   0  0  0  0  0  0  0  0  0  0  0  0
   35.8280   19.7110   31.1490 O   0  0  0  0  0  0  0  0  0  0  0  0
   35.7220   19.6810   32.5410 C   0  0  0  0  0  2  0  0  0  0  0  0
   35.4470   21.0820   33.0510 C   0  0  0  0  0  2  0  0  0  0  0  0
  1  6  1  0  0  0  0
  2  3  1  0  0  0  0
  2  1  2  0  0  0  0
  3  4  2  0  0  0  0
  4  5  1  0  0  0  0
  5 14  1  0  0  0  0
  6  5  2  0  0  0  0
  7  3  1  0  0  0  0
  8 16  1  0  0  0  0
  8  7  1  0  0  0  0
  9  8  1  0  0  0  0
  9 10  1  0  0  0  0
 10 11  1  0  0  0  0
 10 19  1  0  0  0  0
 11 25  1  6  0  0  0
 11  7  1  0  0  0  0
 11 21  1  0  0  0  0
 12  1  1  0  0  0  0
 13  2  1  0  0  0  0
 15  8  1  0  0  0  0
 17  9  1  0  0  0  0
 18  9  1  0  0  0  0
 20 10  1  0  0  0  0
 21 23  1  0  0  0  0
 21 22  1  0  0  0  0
 24 21  1  0  0  0  0
 25 27  1  0  0  0  0
 25 28  1  0  0  0  0
 26 25  1  0  0  0  0
 29 28  1  0  0  0  0
 29 30  2  0  0  0  0
 31 38  1  0  0  0  0
 31 29  1  0  0  0  0
 32 31  1  0  0  0  0
 33 32  1  0  0  0  0
 34 36  1  0  0  0  0
 34 32  1  0  0  0  0
 35 34  1  0  0  0  0
 36 37  1  0  0  0  0
 37 38  1  0  0  0  0
M  END
>  <minimizedAffinity>
-5.34697723

$$$$

 OpenBabel03272507273D

 38 40  0  0  1  0  0  0  0  0999 V2000
   42.2910   21.8220   36.2590 C   0  0  0  0  0  0  0  0  0  0  0  0
   42.0270   23.0050   35.5380 C   0  0  0  0  0  0  0  0  0  0  0  0
   40.8640   23.7160   35.8590 C   0  0  0  0  0  0  0  0  0  0  0  0
   40.0740   23.2380   36.8240 N   0  0  0  0  0  0  0  0  0  0  0  0
   40.3540   22.1040   37.4950 C   0  0  0  0  0  0  0  0  0  0  0  0
   41.4550   21.4050   37.2100 N   0  0  0  0  0  0  0  0  0  0  0  0
   40.5480   24.9050   35.1710 N   0  0  0  0  0  0  0  0  0  0  0  0
   41.5190   25.8310   34.5770 C   0  0  0  0  0  0  0  0  0  0  0  0
   40.7610   27.0380   34.1540 C   0  0  0  0  0  0  0  0  0  0  0  0
   39.5180   26.9440   34.9380 C   0  0  0  0  0  0  0  0  0  0  0  0
   39.2580   25.4600   34.9030 C   0  0  2  0  0  0  0  0  0  0  0  0
   43.1880   21.2740   36.0100 H   0  0  0  0  0  0  0  0  0  0  0  0
   42.7140   23.3390   34.7630 H   0  0  0  0  0  0  0  0  0  0  0  0
   39.6380   21.8150   38.2570 H   0  0  0  0  0  0  0  0  0  0  0  0
   42.0540   25.3060   33.7520 H   0  0  0  0  0  0  0  0  0  0  0  0
   42.2040   26.0840   35.4130 H   0  0  0  0  0  0  0  0  0  0  0  0
   41.3930   27.9370   34.4210 H   0  0  0  0  0  0  0  0  0  0  0  0
   40.6150   27.1510   33.0570 H   0  0  0  0  0  0  0  0  0  0  0  0
   39.6960   27.2890   35.9740 H   0  0  0  0  0  0  0  0  0  0  0  0
   38.6960   27.5260   34.4640 H   0  0  0  0  0  0  0  0  0  0  0  0
   38.1230   25.0460   35.7850 C   0  0  0  0  0  0  0  0  0  0  0  0
   37.0810   25.9250   35.5170 F   0  0  0  0  0  0  0  0  0  0  0  0
   38.3610   25.0950   37.1240 F   0  0  0  0  0  0  0  0  0  0  0  0
   37.7110   23.7980   35.3340 F   0  0  0  0  0  0  0  0  0  0  0  0
   38.9250   25.0650   33.5090 C   0  0  0  0  0  0  0  0  0  0  0  0
   38.9580   23.9560   33.5050 H   0  0  0  0  0  0  0  0  0  0  0  0
   39.8110   25.3540   32.8710 H   0  0  0  0  0  0  0  0  0  0  0  0
   37.9850   25.7940   33.1450 O   0  0  0  0  0  0  0  0  0  0  0  0
   37.7120   26.6300   32.1130 C   0  0  0  0  0  0  0  0  0  0  0  0
   36.5660   26.3570   31.6780 O   0  0  0  0  0  0  0  0  0  0  0  0
   38.0690   27.6830   31.2520 N   0  0  0  0  0  0  0  0  0  0  0  0
   39.4020   27.6620   30.6870 C   0  0  0  0  0  3  0  0  0  0  0  0
   39.8680   28.6860   30.8230 H   0  0  0  0  0  0  0  0  0  0  0  0
   39.2250   27.5250   29.1710 C   0  0  0  0  0  3  0  0  0  0  0  0
   40.2000   27.4120   28.7010 H   0  0  0  0  0  0  0  0  0  0  0  0
   38.5670   28.6600   28.7290 O   0  0  0  0  0  0  0  0  0  0  0  0
   37.2760   28.7040   29.2590 C   0  0  0  0  0  2  0  0  0  0  0  0
   37.3580   28.8660   30.7640 C   0  0  0  0  0  2  0  0  0  0  0  0
  1  6  1  0  0  0  0
  2  3  1  0  0  0  0
  2  1  2  0  0  0  0
  3  4  2  0  0  0  0
  4  5  1  0  0  0  0
  5 14  1  0  0  0  0
  6  5  2  0  0  0  0
  7  3  1  0  0  0  0
  8  7  1  0  0  0  0
  8 16  1  0  0  0  0
  9 17  1  0  0  0  0
  9  8  1  0  0  0  0
  9 10  1  0  0  0  0
 10 19  1  0  0  0  0
 11 25  1  6  0  0  0
 11 10  1  0  0  0  0
 11  7  1  0  0  0  0
 11 21  1  0  0  0  0
 12  1  1  0  0  0  0
 13  2  1  0  0  0  0
 15  8  1  0  0  0  0
 18  9  1  0  0  0  0
 20 10  1  0  0  0  0
 21 23  1  0  0  0  0
 22 21  1  0  0  0  0
 24 21  1  0  0  0  0
 26 25  1  0  0  0  0
 27 25  1  0  0  0  0
 28 25  1  0  0  0  0
 29 28  1  0  0  0  0
 30 29  2  0  0  0  0
 31 29  1  0  0  0  0
 32 33  1  0  0  0  0
 32 31  1  0  0  0  0
 34 32  1  0  0  0  0
 35 34  1  0  0  0  0
 36 34  1  0  0  0  0
 36 37  1  0  0  0  0
 37 38  1  0  0  0  0
 38 31  1  0  0  0  0
M  END
>  <minimizedAffinity>
-5.2535634

$$$$

 OpenBabel03272507273D

 38 40  0  0  1  0  0  0  0  0999 V2000
   41.1800   24.8440   30.0360 C   0  0  0  0  0  0  0  0  0  0  0  0
   39.8700   24.5410   30.4620 C   0  0  0  0  0  0  0  0  0  0  0  0
   38.9350   25.5830   30.4780 C   0  0  0  0  0  0  0  0  0  0  0  0
   39.3320   26.7980   30.0910 N   0  0  0  0  0  0  0  0  0  0  0  0
   40.5910   27.0560   29.6900 C   0  0  0  0  0  0  0  0  0  0  0  0
   41.5040   26.0830   29.6650 N   0  0  0  0  0  0  0  0  0  0  0  0
   37.6110   25.3400   30.8950 N   0  0  0  0  0  0  0  0  0  0  0  0
   36.8950   24.0650   30.7660 C   0  0  0  0  0  0  0  0  0  0  0  0
   35.4780   24.3260   31.1310 C   0  0  0  0  0  0  0  0  0  0  0  0
   35.3600   25.7870   30.9890 C   0  0  0  0  0  0  0  0  0  0  0  0
   36.6950   26.2450   31.5170 C   0  0  2  0  0  0  0  0  0  0  0  0
   41.9010   24.0400   30.0250 H   0  0  0  0  0  0  0  0  0  0  0  0
   39.6140   23.5280   30.7640 H   0  0  0  0  0  0  0  0  0  0  0  0
   40.7960   28.0800   29.3990 H   0  0  0  0  0  0  0  0  0  0  0  0
   37.4060   23.3030   31.4000 H   0  0  0  0  0  0  0  0  0  0  0  0
   36.9720   23.8150   29.6870 H   0  0  0  0  0  0  0  0  0  0  0  0
   34.8360   23.7510   30.3990 H   0  0  0  0  0  0  0  0  0  0  0  0
   35.1560   23.9240   32.1170 H   0  0  0  0  0  0  0  0  0  0  0  0
   35.2450   26.0560   29.9210 H   0  0  0  0  0  0  0  0  0  0  0  0
   34.5120   26.1840   31.5890 H   0  0  0  0  0  0  0  0  0  0  0  0
   36.9250   27.7100   31.3300 C   0  0  0  0  0  0  0  0  0  0  0  0
   35.8220   28.3510   31.8770 F   0  0  0  0  0  0  0  0  0  0  0  0
   37.0430   28.1330   30.0420 F   0  0  0  0  0  0  0  0  0  0  0  0
   38.0110   28.0420   32.1300 F   0  0  0  0  0  0  0  0  0  0  0  0
   36.7580   25.9520   32.9740 C   0  0  0  0  0  0  0  0  0  0  0  0
   35.7690   25.5170   33.2270 H   0  0  0  0  0  0  0  0  0  0  0  0
   36.7460   26.9490   33.5050 H   0  0  0  0  0  0  0  0  0  0  0  0
   37.8780   25.4580   33.1910 O   0  0  0  0  0  0  0  0  0  0  0  0
   38.4500   24.6490   34.1180 C   0  0  0  0  0  0  0  0  0  0  0  0
   38.5820   23.5060   33.6150 O   0  0  0  0  0  0  0  0  0  0  0  0
   38.9890   24.4290   35.3980 N   0  0  0  0  0  0  0  0  0  0  0  0
   38.2630   24.9640   36.5310 C   0  0  0  0  0  3  0  0  0  0  0  0
   38.9910   25.5160   37.1990 H   0  0  0  0  0  0  0  0  0  0  0  0
   37.8230   23.7580   37.3670 C   0  0  0  0  0  3  0  0  0  0  0  0
   37.1910   24.0950   38.1860 H   0  0  0  0  0  0  0  0  0  0  0  0
   38.9690   23.1320   37.8230 O   0  0  0  0  0  0  0  0  0  0  0  0
   39.6900   22.6050   36.7490 C   0  0  0  0  0  2  0  0  0  0  0  0
   40.1880   23.7400   35.8770 C   0  0  0  0  0  2  0  0  0  0  0  0
  1  2  1  0  0  0  0
  2  3  2  0  0  0  0
  2 13  1  0  0  0  0
  3  7  1  0  0  0  0
  4  3  1  0  0  0  0
  5  4  2  0  0  0  0
  6  5  1  0  0  0  0
  6  1  2  0  0  0  0
  7 11  1  0  0  0  0
  8  7  1  0  0  0  0
  8  9  1  0  0  0  0
  8 15  1  0  0  0  0
  9 18  1  0  0  0  0
 10  9  1  0  0  0  0
 10 11  1  0  0  0  0
 10 20  1  0  0  0  0
 11 21  1  6  0  0  0
 11 25  1  0  0  0  0
 12  1  1  0  0  0  0
 14  5  1  0  0  0  0
 16  8  1  0  0  0  0
 17  9  1  0  0  0  0
 19 10  1  0  0  0  0
 21 22  1  0  0  0  0
 21 24  1  0  0  0  0
 23 21  1  0  0  0  0
 25 28  1  0  0  0  0
 25 26  1  0  0  0  0
 25 27  1  0  0  0  0
 28 29  1  0  0  0  0
 29 31  1  0  0  0  0
 30 29  2  0  0  0  0
 31 38  1  0  0  0  0
 31 32  1  0  0  0  0
 32 33  1  0  0  0  0
 32 34  1  0  0  0  0
 34 36  1  0  0  0  0
 34 35  1  0  0  0  0
 37 36  1  0  0  0  0
 38 37  1  0  0  0  0
M  END
>  <minimizedAffinity>
-4.97905254

$$$$

 OpenBabel03272507273D

 38 40  0  0  1  0  0  0  0  0999 V2000
   43.3610   26.0680   34.1550 C   0  0  0  0  0  0  0  0  0  0  0  0
   41.9620   26.0220   34.3220 C   0  0  0  0  0  0  0  0  0  0  0  0
   41.4390   25.0180   35.1460 C   0  0  0  0  0  0  0  0  0  0  0  0
   42.2880   24.1650   35.7250 N   0  0  0  0  0  0  0  0  0  0  0  0
   43.6210   24.2350   35.5450 C   0  0  0  0  0  0  0  0  0  0  0  0
   44.1480   25.1810   34.7650 N   0  0  0  0  0  0  0  0  0  0  0  0
   40.0470   24.9220   35.3490 N   0  0  0  0  0  0  0  0  0  0  0  0
   39.0990   26.0420   35.3090 C   0  0  0  0  0  0  0  0  0  0  0  0
   37.7930   25.5180   35.7890 C   0  0  0  0  0  0  0  0  0  0  0  0
   38.1690   24.2900   36.5090 C   0  0  0  0  0  0  0  0  0  0  0  0
   39.2680   23.7550   35.6290 C   0  0  2  0  0  0  0  0  0  0  0  0
   43.7640   26.8420   33.5190 H   0  0  0  0  0  0  0  0  0  0  0  0
   41.3270   26.7490   33.8210 H   0  0  0  0  0  0  0  0  0  0  0  0
   44.2090   23.4880   36.0660 H   0  0  0  0  0  0  0  0  0  0  0  0
   39.0820   26.4570   34.2750 H   0  0  0  0  0  0  0  0  0  0  0  0
   39.5080   26.7730   36.0370 H   0  0  0  0  0  0  0  0  0  0  0  0
   37.3430   26.3110   36.4570 H   0  0  0  0  0  0  0  0  0  0  0  0
   37.0150   25.3810   35.0040 H   0  0  0  0  0  0  0  0  0  0  0  0
   38.5560   24.5440   37.5150 H   0  0  0  0  0  0  0  0  0  0  0  0
   37.3100   23.5870   36.5830 H   0  0  0  0  0  0  0  0  0  0  0  0
   39.9680   22.5750   36.2230 C   0  0  0  0  0  0  0  0  0  0  0  0
   40.6570   23.0480   37.3330 F   0  0  0  0  0  0  0  0  0  0  0  0
   40.8730   21.9530   35.4180 F   0  0  0  0  0  0  0  0  0  0  0  0
   38.9750   21.7320   36.7060 F   0  0  0  0  0  0  0  0  0  0  0  0
   38.6800   23.3350   34.3300 C   0  0  0  0  0  0  0  0  0  0  0  0
   39.5100   23.4090   33.5980 H   0  0  0  0  0  0  0  0  0  0  0  0
   37.9790   24.1620   34.0100 H   0  0  0  0  0  0  0  0  0  0  0  0
   37.9640   22.3460   34.5640 O   0  0  0  0  0  0  0  0  0  0  0  0
   37.0390   21.6050   33.9050 C   0  0  0  0  0  0  0  0  0  0  0  0
   36.2710   21.0880   34.7530 O   0  0  0  0  0  0  0  0  0  0  0  0
   36.4810   21.1040   32.7150 N   0  0  0  0  0  0  0  0  0  0  0  0
   37.3900   20.5830   31.7170 C   0  0  0  0  0  3  0  0  0  0  0  0
   37.1160   21.0260   30.7120 H   0  0  0  0  0  0  0  0  0  0  0  0
   37.0650   19.0920   31.5750 C   0  0  0  0  0  3  0  0  0  0  0  0
   37.7820   18.6270   30.9010 H   0  0  0  0  0  0  0  0  0  0  0  0
   35.7700   18.9970   31.0960 O   0  0  0  0  0  0  0  0  0  0  0  0
   34.8700   19.4930   32.0410 C   0  0  0  0  0  2  0  0  0  0  0  0
   35.1070   20.9790   32.2260 C   0  0  0  0  0  2  0  0  0  0  0  0
  1  2  2  0  0  0  0
  1  6  1  0  0  0  0
  2  3  1  0  0  0  0
  3  7  1  0  0  0  0
  3  4  2  0  0  0  0
  5  4  1  0  0  0  0
  5 14  1  0  0  0  0
  6  5  2  0  0  0  0
  7 11  1  0  0  0  0
  8  7  1  0  0  0  0
  8  9  1  0  0  0  0
  8 16  1  0  0  0  0
  9 17  1  0  0  0  0
  9 10  1  0  0  0  0
 10 20  1  0  0  0  0
 10 19  1  0  0  0  0
 11 25  1  6  0  0  0
 11 21  1  0  0  0  0
 11 10  1  0  0  0  0
 12  1  1  0  0  0  0
 13  2  1  0  0  0  0
 15  8  1  0  0  0  0
 18  9  1  0  0  0  0
 21 24  1  0  0  0  0
 21 22  1  0  0  0  0
 23 21  1  0  0  0  0
 25 28  1  0  0  0  0
 26 25  1  0  0  0  0
 27 25  1  0  0  0  0
 29 28  1  0  0  0  0
 29 30  2  0  0  0  0
 31 29  1  0  0  0  0
 32 31  1  0  0  0  0
 33 32  1  0  0  0  0
 34 32  1  0  0  0  0
 35 34  1  0  0  0  0
 36 34  1  0  0  0  0
 36 37  1  0  0  0  0
 37 38  1  0  0  0  0
 38 31  1  0  0  0  0
M  END
>  <minimizedAffinity>
-4.87428474

$$$$
