
 OpenBabel03272508153D

 29 31  0  0  0  0  0  0  0  0999 V2000
   34.6350   28.4590   48.4260 Cl  0  0  0  0  0  0  0  0  0  0  0  0
   34.5700   29.1610   46.8410 C   0  0  0  0  0  0  0  0  0  0  0  0
   33.4460   28.8190   46.1460 C   0  0  0  0  0  0  0  0  0  0  0  0
   33.2840   29.3370   44.8410 C   0  0  0  0  0  0  0  0  0  0  0  0
   34.2300   30.1630   44.2830 C   0  0  0  0  0  0  0  0  0  0  0  0
   35.3460   30.4840   45.0160 C   0  0  0  0  0  0  0  0  0  0  0  0
   36.5630   31.5330   44.3310 Cl  0  0  0  0  0  0  0  0  0  0  0  0
   35.5010   29.9810   46.2790 C   0  0  0  0  0  0  0  0  0  0  0  0
   32.4400   29.1320   44.2080 H   0  0  0  0  0  0  0  0  0  0  0  0
   34.1450   30.5810   43.2880 H   0  0  0  0  0  0  0  0  0  0  0  0
   36.6760   30.2920   47.0920 C   0  0  0  0  0  0  0  0  0  0  0  0
   37.8880   30.2490   46.7710 O   0  0  0  0  0  0  0  0  0  0  0  0
   36.7690   30.7250   48.4590 N   0  0  0  0  0  0  0  0  0  0  0  0
   38.1530   30.5410   48.8540 C   0  0  0  0  0  3  0  0  0  0  0  0
   38.3310   29.4510   48.9410 H   0  0  0  0  0  0  0  0  0  0  0  0
   38.3170   31.1530   50.2270 C   0  0  0  0  0  3  0  0  0  0  0  0
   39.3670   31.1380   50.5430 H   0  0  0  0  0  0  0  0  0  0  0  0
   37.4840   30.5190   51.1360 O   0  0  0  0  0  0  0  0  0  0  0  0
   36.1810   30.4420   50.7320 C   0  0  0  0  0  2  0  0  0  0  0  0
   35.8750   31.2670   49.4790 C   0  0  0  0  0  2  0  0  0  0  0  0
   32.4560   26.5630   46.2930 C   0  0  0  0  0  0  0  0  0  0  0  0
   32.3140   27.9620   46.5290 C   0  0  0  0  0  0  0  0  0  0  0  0
   31.1360   28.4040   47.0920 C   0  0  0  0  0  0  0  0  0  0  0  0
   30.1780   27.4860   47.3920 N   0  0  0  0  0  0  0  0  0  0  0  0
   30.3390   26.1740   47.1590 C   0  0  0  0  0  0  0  0  0  0  0  0
   31.4830   25.7070   46.6060 N   0  0  0  0  0  0  0  0  0  0  0  0
   33.3860   26.1850   45.8450 H   0  0  0  0  0  0  0  0  0  0  0  0
   31.0430   29.4670   47.2640 H   0  0  0  0  0  0  0  0  0  0  0  0
   29.5070   25.5240   47.4370 H   0  0  0  0  0  0  0  0  0  0  0  0
  2  1  1  0  0  0  0
  3 22  1  0  0  0  0
  3  2  2  0  0  0  0
  4  3  1  0  0  0  0
  5  4  2  0  0  0  0
  5  6  1  0  0  0  0
  6  8  2  0  0  0  0
  7  6  1  0  0  0  0
  8  2  1  0  0  0  0
  8 11  1  0  0  0  0
  9  4  1  0  0  0  0
 10  5  1  0  0  0  0
 11 13  1  0  0  0  0
 12 11  2  0  0  0  0
 13 14  1  0  0  0  0
 13 20  1  0  0  0  0
 14 15  1  0  0  0  0
 14 16  1  0  0  0  0
 16 17  1  0  0  0  0
 16 18  1  0  0  0  0
 19 18  1  0  0  0  0
 20 19  1  0  0  0  0
 21 22  2  0  0  0  0
 21 26  1  0  0  0  0
 22 23  1  0  0  0  0
 23 28  1  0  0  0  0
 23 24  2  0  0  0  0
 25 24  1  0  0  0  0
 25 29  1  0  0  0  0
 26 25  2  0  0  0  0
 27 21  1  0  0  0  0
M  END
>  <minimizedAffinity>
-4.0130887

>  <minimizedRMSD>
4.44748545

$$$$
