
 OpenBabel03272507273D

 38 40  0  0  1  0  0  0  0  0999 V2000
   36.9480   29.8280   49.6120 C   0  0  0  0  0  0  0  0  0  0  0  0
   37.8590   30.5230   48.7920 C   0  0  0  0  0  0  0  0  0  0  0  0
   37.4610   30.8150   47.4810 C   0  0  0  0  0  0  0  0  0  0  0  0
   36.2490   30.4210   47.0830 N   0  0  0  0  0  0  0  0  0  0  0  0
   35.4000   29.7570   47.8920 C   0  0  0  0  0  0  0  0  0  0  0  0
   35.7530   29.4650   49.1460 N   0  0  0  0  0  0  0  0  0  0  0  0
   38.3310   31.5070   46.6140 N   0  0  0  0  0  0  0  0  0  0  0  0
   39.3510   32.4780   47.0250 C   0  0  0  0  0  0  0  0  0  0  0  0
   39.8720   33.1090   45.7830 C   0  0  0  0  0  0  0  0  0  0  0  0
   38.8180   32.8210   44.7950 C   0  0  0  0  0  0  0  0  0  0  0  0
   38.4160   31.4240   45.1890 C   0  0  2  0  0  0  0  0  0  0  0  0
   37.2550   29.6030   50.6230 H   0  0  0  0  0  0  0  0  0  0  0  0
   38.8320   30.8150   49.1790 H   0  0  0  0  0  0  0  0  0  0  0  0
   34.4430   29.4890   47.4580 H   0  0  0  0  0  0  0  0  0  0  0  0
   40.1200   31.9510   47.6370 H   0  0  0  0  0  0  0  0  0  0  0  0
   38.7920   33.2250   47.6260 H   0  0  0  0  0  0  0  0  0  0  0  0
   39.9970   34.2120   45.9980 H   0  0  0  0  0  0  0  0  0  0  0  0
   40.8960   32.7950   45.4800 H   0  0  0  0  0  0  0  0  0  0  0  0
   37.9740   33.5260   44.9250 H   0  0  0  0  0  0  0  0  0  0  0  0
   39.2150   32.8680   43.7570 H   0  0  0  0  0  0  0  0  0  0  0  0
   37.2170   30.9300   44.4450 C   0  0  0  0  0  0  0  0  0  0  0  0
   36.1100   31.4400   45.1110 F   0  0  0  0  0  0  0  0  0  0  0  0
   37.0680   29.5790   44.3850 F   0  0  0  0  0  0  0  0  0  0  0  0
   37.2460   31.5470   43.2000 F   0  0  0  0  0  0  0  0  0  0  0  0
   39.5470   30.5020   44.9010 C   0  0  0  0  0  0  0  0  0  0  0  0
   39.2560   29.5330   45.3570 H   0  0  0  0  0  0  0  0  0  0  0  0
   40.4130   30.8410   45.5430 H   0  0  0  0  0  0  0  0  0  0  0  0
   39.8880   30.7100   43.7230 O   0  0  0  0  0  0  0  0  0  0  0  0
   40.1240   29.9750   42.6080 C   0  0  0  0  0  0  0  0  0  0  0  0
   39.5370   30.5230   41.6430 O   0  0  0  0  0  0  0  0  0  0  0  0
   40.7120   28.8740   41.9580 N   0  0  0  0  0  0  0  0  0  0  0  0
   40.1140   27.5740   42.1710 C   0  0  0  0  0  3  0  0  0  0  0  0
   40.9330   26.8360   42.4270 H   0  0  0  0  0  0  0  0  0  0  0  0
   39.6010   27.1090   40.8040 C   0  0  0  0  0  3  0  0  0  0  0  0
   39.0570   26.1730   40.9190 H   0  0  0  0  0  0  0  0  0  0  0  0
   40.7000   26.9670   39.9770 O   0  0  0  0  0  0  0  0  0  0  0  0
   41.2990   28.2090   39.7550 C   0  0  0  0  0  2  0  0  0  0  0  0
   41.8600   28.7360   41.0600 C   0  0  0  0  0  2  0  0  0  0  0  0
  1 12  1  0  0  0  0
  2 13  1  0  0  0  0
  2  1  2  0  0  0  0
  3  2  1  0  0  0  0
  4  3  2  0  0  0  0
  4  5  1  0  0  0  0
  5  6  2  0  0  0  0
  6  1  1  0  0  0  0
  7  8  1  0  0  0  0
  7  3  1  0  0  0  0
  8 16  1  0  0  0  0
  8 15  1  0  0  0  0
  9 17  1  0  0  0  0
  9  8  1  0  0  0  0
 10 19  1  0  0  0  0
 10 11  1  0  0  0  0
 10  9  1  0  0  0  0
 11 21  1  6  0  0  0
 11  7  1  0  0  0  0
 14  5  1  0  0  0  0
 18  9  1  0  0  0  0
 20 10  1  0  0  0  0
 21 22  1  0  0  0  0
 23 21  1  0  0  0  0
 24 21  1  0  0  0  0
 25 11  1  0  0  0  0
 25 26  1  0  0  0  0
 25 27  1  0  0  0  0
 28 25  1  0  0  0  0
 29 28  1  0  0  0  0
 30 29  2  0  0  0  0
 31 32  1  0  0  0  0
 31 29  1  0  0  0  0
 32 33  1  0  0  0  0
 34 35  1  0  0  0  0
 34 32  1  0  0  0  0
 36 34  1  0  0  0  0
 37 36  1  0  0  0  0
 37 38  1  0  0  0  0
 38 31  1  0  0  0  0
M  END
>  <minimizedAffinity>
-5.21998978

>  <minimizedRMSD>
0.834428251

$$$$
