
 OpenBabel03272507273D

 38 40  0  0  1  0  0  0  0  0999 V2000
   36.6920   29.7870   49.1150 C   0  0  0  0  0  0  0  0  0  0  0  0
   37.7060   30.4880   48.4300 C   0  0  0  0  0  0  0  0  0  0  0  0
   37.4570   30.8580   47.1030 C   0  0  0  0  0  0  0  0  0  0  0  0
   36.2810   30.5300   46.5620 N   0  0  0  0  0  0  0  0  0  0  0  0
   35.3320   29.8590   47.2430 C   0  0  0  0  0  0  0  0  0  0  0  0
   35.5420   29.4930   48.5090 N   0  0  0  0  0  0  0  0  0  0  0  0
   38.4340   31.5590   46.3680 N   0  0  0  0  0  0  0  0  0  0  0  0
   39.4360   32.4710   46.9330 C   0  0  0  0  0  0  0  0  0  0  0  0
   40.1040   33.1420   45.7860 C   0  0  0  0  0  0  0  0  0  0  0  0
   39.1510   32.9430   44.6810 C   0  0  0  0  0  0  0  0  0  0  0  0
   38.6660   31.5440   44.9570 C   0  0  2  0  0  0  0  0  0  0  0  0
   36.8850   29.5020   50.1390 H   0  0  0  0  0  0  0  0  0  0  0  0
   38.6420   30.7240   48.9310 H   0  0  0  0  0  0  0  0  0  0  0  0
   34.4180   29.6480   46.6990 H   0  0  0  0  0  0  0  0  0  0  0  0
   40.1200   31.8860   47.5910 H   0  0  0  0  0  0  0  0  0  0  0  0
   38.8410   33.2070   47.5120 H   0  0  0  0  0  0  0  0  0  0  0  0
   40.2410   34.2280   46.0710 H   0  0  0  0  0  0  0  0  0  0  0  0
   41.1440   32.8060   45.5740 H   0  0  0  0  0  0  0  0  0  0  0  0
   38.3210   33.6710   44.7600 H   0  0  0  0  0  0  0  0  0  0  0  0
   39.6560   33.0260   43.6930 H   0  0  0  0  0  0  0  0  0  0  0  0
   37.5360   31.1320   44.0690 C   0  0  0  0  0  0  0  0  0  0  0  0
   36.4110   31.7980   44.5360 F   0  0  0  0  0  0  0  0  0  0  0  0
   37.2450   29.8030   44.0530 F   0  0  0  0  0  0  0  0  0  0  0  0
   37.8120   31.6600   42.8130 F   0  0  0  0  0  0  0  0  0  0  0  0
   39.7910   30.5960   44.7390 C   0  0  0  0  0  0  0  0  0  0  0  0
   39.4250   29.6180   45.1150 H   0  0  0  0  0  0  0  0  0  0  0  0
   40.5970   30.8740   45.4810 H   0  0  0  0  0  0  0  0  0  0  0  0
   40.2570   30.8450   43.6130 O   0  0  0  0  0  0  0  0  0  0  0  0
   40.5820   30.1550   42.4920 C   0  0  0  0  0  0  0  0  0  0  0  0
   40.7090   30.9730   41.5480 O   0  0  0  0  0  0  0  0  0  0  0  0
   40.8590   28.9490   41.8240 N   0  0  0  0  0  0  0  0  0  0  0  0
   40.2150   27.7490   42.3140 C   0  0  0  0  0  3  0  0  0  0  0  0
   40.9960   26.9360   42.4190 H   0  0  0  0  0  0  0  0  0  0  0  0
   39.3060   27.2560   41.1840 C   0  0  0  0  0  3  0  0  0  0  0  0
   38.7240   26.4040   41.5310 H   0  0  0  0  0  0  0  0  0  0  0  0
   40.1200   26.9240   40.1160 O   0  0  0  0  0  0  0  0  0  0  0  0
   40.7550   28.0650   39.6210 C   0  0  0  0  0  2  0  0  0  0  0  0
   41.6990   28.6080   40.6740 C   0  0  0  0  0  2  0  0  0  0  0  0
  1 12  1  0  0  0  0
  2 13  1  0  0  0  0
  2  1  2  0  0  0  0
  3  2  1  0  0  0  0
  4  3  2  0  0  0  0
  4  5  1  0  0  0  0
  5  6  2  0  0  0  0
  6  1  1  0  0  0  0
  7  8  1  0  0  0  0
  7  3  1  0  0  0  0
  8 16  1  0  0  0  0
  8 15  1  0  0  0  0
  9 17  1  0  0  0  0
  9  8  1  0  0  0  0
 10 19  1  0  0  0  0
 10 11  1  0  0  0  0
 10  9  1  0  0  0  0
 11 21  1  6  0  0  0
 11  7  1  0  0  0  0
 14  5  1  0  0  0  0
 18  9  1  0  0  0  0
 20 10  1  0  0  0  0
 21 22  1  0  0  0  0
 23 21  1  0  0  0  0
 24 21  1  0  0  0  0
 25 11  1  0  0  0  0
 25 26  1  0  0  0  0
 25 27  1  0  0  0  0
 28 25  1  0  0  0  0
 29 28  1  0  0  0  0
 30 29  2  0  0  0  0
 31 32  1  0  0  0  0
 31 29  1  0  0  0  0
 32 33  1  0  0  0  0
 34 35  1  0  0  0  0
 34 32  1  0  0  0  0
 36 34  1  0  0  0  0
 37 36  1  0  0  0  0
 37 38  1  0  0  0  0
 38 31  1  0  0  0  0
M  END
>  <minimizedAffinity>
-5.35080242

>  <minimizedRMSD>
0.706785679

$$$$
