
 OpenBabel03262520363D

 41 43  0  0  1  0  0  0  0  0999 V2000
   37.3810   22.5090   33.3620 C   0  0  0  0  0  0  0  0  0  0  0  0
   36.8710   23.1410   32.2180 C   0  0  0  0  0  0  0  0  0  0  0  0
   35.7510   22.6820   31.5720 C   0  0  0  0  0  0  0  0  0  0  0  0
   35.1080   21.5700   32.0580 C   0  0  0  0  0  0  0  0  0  0  0  0
   35.5920   20.9480   33.1670 C   0  0  0  0  0  0  0  0  0  0  0  0
   36.7050   21.3720   33.8410 C   0  0  0  0  0  0  0  0  0  0  0  0
   35.4240   23.2330   30.6910 H   0  0  0  0  0  0  0  0  0  0  0  0
   34.2360   21.2760   31.4900 H   0  0  0  0  0  0  0  0  0  0  0  0
   35.0120   20.0720   33.4790 H   0  0  0  0  0  0  0  0  0  0  0  0
   36.9630   20.7940   34.6990 H   0  0  0  0  0  0  0  0  0  0  0  0
   38.7820   23.0420   34.2470 S   0  0  0  0  0  0  0  0  0  0  0  0
   40.0240   22.4090   33.7040 O   0  0  0  0  0  0  0  0  0  0  0  0
   38.8680   24.5700   34.1190 O   0  0  0  0  0  0  0  0  0  0  0  0
   37.8740   24.4440   36.4240 H   0  0  0  0  0  0  0  0  0  0  0  0
   37.6750   23.4540   36.6030 N   0  0  0  0  0  0  0  0  0  0  0  0
   38.6750   22.5930   35.9520 C   0  0  2  0  0  3  0  0  0  0  0  0
   40.0170   22.8430   36.5940 C   0  0  0  0  0  3  0  0  0  0  0  0
   40.1580   23.9660   36.5280 H   0  0  0  0  0  0  0  0  0  0  0  0
   40.0010   22.5480   37.9570 O   0  0  0  0  0  0  0  0  0  0  0  0
   39.1140   23.5010   38.5130 C   0  0  0  0  0  2  0  0  0  0  0  0
   37.7320   23.1250   38.0250 C   0  0  0  0  0  2  0  0  0  0  0  0
   37.6250   24.2320   31.8620 O   0  0  0  0  0  0  0  0  0  0  0  0
   38.2410   26.7290   31.2250 O   0  0  0  0  0  0  0  0  0  0  0  0
   37.0690   25.7960   31.5570 P   0  0  1  0  0  0  0  0  0  0  0  0
   35.9260   25.7990   30.3050 O   0  0  0  0  0  0  0  0  0  0  0  0
   36.3810   25.9540   29.4360 H   0  0  0  0  0  0  0  0  0  0  0  0
   36.3480   26.4850   32.9310 O   0  0  0  0  0  0  0  0  0  0  0  0
   37.1410   27.5640   33.3600 C   0  0  0  0  0  0  0  0  0  0  0  0
   38.0390   27.1690   33.9190 H   0  0  0  0  0  0  0  0  0  0  0  0
   37.5050   28.0800   32.4740 H   0  0  0  0  0  0  0  0  0  0  0  0
   35.6500   29.4630   33.8770 C   0  0  0  0  0  3  0  0  0  0  0  0
   36.3970   28.4660   34.2720 C   0  0  0  0  0  3  0  0  0  0  0  0
   33.1080   30.9170   36.0670 C   0  0  0  0  0  0  0  0  0  0  0  0
   33.8590   31.8500   36.8140 C   0  0  0  0  0  0  0  0  0  0  0  0
   35.2350   31.9590   36.5440 C   0  0  0  0  0  0  0  0  0  0  0  0
   35.7090   31.1270   35.5610 N   0  0  0  0  0  0  0  0  0  0  0  0
   34.9750   30.2670   34.8840 C   0  0  0  0  0  0  0  0  0  0  0  0
   33.6760   30.1710   35.1460 N   0  0  0  0  0  0  0  0  0  0  0  0
   32.0600   30.8980   36.3370 H   0  0  0  0  0  0  0  0  0  0  0  0
   33.4810   32.5050   37.5880 H   0  0  0  0  0  0  0  0  0  0  0  0
   35.8870   32.6350   37.0560 H   0  0  0  0  0  0  0  0  0  0  0  0
  1  6  1  0  0  0  0
  1 11  1  0  0  0  0
  2  1  2  0  0  0  0
  3  4  2  0  0  0  0
  3  2  1  0  0  0  0
  4  5  1  0  0  0  0
  5  9  1  0  0  0  0
  5  6  2  0  0  0  0
  6 10  1  0  0  0  0
  7  3  1  0  0  0  0
  8  4  1  0  0  0  0
 12 11  2  0  0  0  0
 13 11  2  0  0  0  0
 14 15  1  0  0  0  0
 15 21  1  0  0  0  0
 16 11  1  6  0  0  0
 16 17  1  0  0  0  0
 16 15  1  0  0  0  0
 17 19  1  0  0  0  0
 18 17  1  0  0  0  0
 19 20  1  0  0  0  0
 21 20  1  0  0  0  0
 22  2  1  0  0  0  0
 24 23  2  6  0  0  0
 24 22  1  0  0  0  0
 24 27  1  0  0  0  0
 25 24  1  0  0  0  0
 26 25  1  0  0  0  0
 27 28  1  0  0  0  0
 28 29  1  0  0  0  0
 28 32  1  0  0  0  0
 30 28  1  0  0  0  0
 31 32  2  0  0  0  0
 31 37  1  0  0  0  0
 33 39  1  0  0  0  0
 33 34  1  0  0  0  0
 34 40  1  0  0  0  0
 35 34  2  0  0  0  0
 35 41  1  0  0  0  0
 36 35  1  0  0  0  0
 37 38  1  0  0  0  0
 37 36  2  0  0  0  0
 38 33  2  0  0  0  0
M  END
>  <minimizedAffinity>
-5.90695143

$$$$

 OpenBabel03262520363D

 41 43  0  0  1  0  0  0  0  0999 V2000
   38.4320   25.4560   33.8880 C   0  0  0  0  0  0  0  0  0  0  0  0
   37.4060   26.4100   33.8130 C   0  0  0  0  0  0  0  0  0  0  0  0
   37.2980   27.4340   34.7190 C   0  0  0  0  0  0  0  0  0  0  0  0
   38.2200   27.5310   35.7320 C   0  0  0  0  0  0  0  0  0  0  0  0
   39.2210   26.6130   35.8160 C   0  0  0  0  0  0  0  0  0  0  0  0
   39.3660   25.5760   34.9340 C   0  0  0  0  0  0  0  0  0  0  0  0
   36.4700   28.1290   34.5860 H   0  0  0  0  0  0  0  0  0  0  0  0
   38.0610   28.3650   36.4010 H   0  0  0  0  0  0  0  0  0  0  0  0
   39.9070   26.7730   36.6540 H   0  0  0  0  0  0  0  0  0  0  0  0
   40.2010   24.9390   35.1150 H   0  0  0  0  0  0  0  0  0  0  0  0
   38.6480   24.1420   32.7670 S   0  0  0  0  0  0  0  0  0  0  0  0
   38.9340   24.6610   31.3930 O   0  0  0  0  0  0  0  0  0  0  0  0
   39.8220   23.2860   33.2630 O   0  0  0  0  0  0  0  0  0  0  0  0
   38.3340   21.4190   32.6460 H   0  0  0  0  0  0  0  0  0  0  0  0
   37.5100   21.7930   33.1310 N   0  0  0  0  0  0  0  0  0  0  0  0
   37.1920   23.1480   32.6530 C   0  0  2  0  0  3  0  0  0  0  0  0
   36.7870   23.0650   31.2020 C   0  0  0  0  0  3  0  0  0  0  0  0
   37.6390   22.5100   30.7010 H   0  0  0  0  0  0  0  0  0  0  0  0
   35.6630   22.2590   31.0250 O   0  0  0  0  0  0  0  0  0  0  0  0
   36.0970   20.9620   31.3890 C   0  0  0  0  0  2  0  0  0  0  0  0
   36.3120   20.9940   32.8860 C   0  0  0  0  0  2  0  0  0  0  0  0
   36.5700   26.1730   32.7490 O   0  0  0  0  0  0  0  0  0  0  0  0
   37.5700   27.9190   31.0240 O   0  0  0  0  0  0  0  0  0  0  0  0
   36.2810   27.1940   31.4370 P   0  0  1  0  0  0  0  0  0  0  0  0
   35.6330   26.3310   30.1310 O   0  0  0  0  0  0  0  0  0  0  0  0
   36.3650   26.0230   29.5350 H   0  0  0  0  0  0  0  0  0  0  0  0
   35.1980   28.4400   31.8370 O   0  0  0  0  0  0  0  0  0  0  0  0
   35.9350   29.6130   32.0810 C   0  0  0  0  0  0  0  0  0  0  0  0
   37.0210   29.3460   32.2350 H   0  0  0  0  0  0  0  0  0  0  0  0
   35.8710   30.2340   31.1900 H   0  0  0  0  0  0  0  0  0  0  0  0
   34.5320   29.8640   34.0980 C   0  0  0  0  0  3  0  0  0  0  0  0
   35.4610   30.3170   33.2970 C   0  0  0  0  0  3  0  0  0  0  0  0
   32.6900   31.3330   36.8940 C   0  0  0  0  0  0  0  0  0  0  0  0
   33.6360   32.2300   37.4330 C   0  0  0  0  0  0  0  0  0  0  0  0
   34.8980   32.3110   36.8170 C   0  0  0  0  0  0  0  0  0  0  0  0
   35.0760   31.4900   35.7320 N   0  0  0  0  0  0  0  0  0  0  0  0
   34.1660   30.6630   35.2570 C   0  0  0  0  0  0  0  0  0  0  0  0
   32.9770   30.5930   35.8460 N   0  0  0  0  0  0  0  0  0  0  0  0
   31.7470   31.3340   37.4270 H   0  0  0  0  0  0  0  0  0  0  0  0
   33.4920   32.8770   38.2890 H   0  0  0  0  0  0  0  0  0  0  0  0
   35.6800   32.9600   37.1510 H   0  0  0  0  0  0  0  0  0  0  0  0
  1  6  1  0  0  0  0
  2  1  2  0  0  0  0
  2  3  1  0  0  0  0
  3  4  2  0  0  0  0
  4  5  1  0  0  0  0
  4  8  1  0  0  0  0
  5  9  1  0  0  0  0
  6 10  1  0  0  0  0
  6  5  2  0  0  0  0
  7  3  1  0  0  0  0
 11 13  2  0  0  0  0
 11  1  1  0  0  0  0
 12 11  2  0  0  0  0
 14 15  1  0  0  0  0
 16 11  1  6  0  0  0
 16 15  1  0  0  0  0
 17 16  1  0  0  0  0
 18 17  1  0  0  0  0
 19 17  1  0  0  0  0
 19 20  1  0  0  0  0
 20 21  1  0  0  0  0
 21 15  1  0  0  0  0
 22  2  1  0  0  0  0
 24 23  2  6  0  0  0
 24 27  1  0  0  0  0
 24 22  1  0  0  0  0
 25 24  1  0  0  0  0
 26 25  1  0  0  0  0
 27 28  1  0  0  0  0
 28 29  1  0  0  0  0
 28 32  1  0  0  0  0
 30 28  1  0  0  0  0
 31 37  1  0  0  0  0
 32 31  2  0  0  0  0
 33 39  1  0  0  0  0
 33 34  1  0  0  0  0
 34 40  1  0  0  0  0
 35 41  1  0  0  0  0
 35 34  2  0  0  0  0
 36 35  1  0  0  0  0
 37 36  2  0  0  0  0
 37 38  1  0  0  0  0
 38 33  2  0  0  0  0
M  END
>  <minimizedAffinity>
-5.62354422

$$$$

 OpenBabel03262520363D

 41 43  0  0  1  0  0  0  0  0999 V2000
   39.3920   26.8330   34.2620 C   0  0  0  0  0  0  0  0  0  0  0  0
   39.2820   27.1440   32.8980 C   0  0  0  0  0  0  0  0  0  0  0  0
   40.3810   27.2520   32.0850 C   0  0  0  0  0  0  0  0  0  0  0  0
   41.6300   27.0500   32.6200 C   0  0  0  0  0  0  0  0  0  0  0  0
   41.7520   26.7470   33.9400 C   0  0  0  0  0  0  0  0  0  0  0  0
   40.6820   26.6300   34.7860 C   0  0  0  0  0  0  0  0  0  0  0  0
   40.2030   27.4970   31.0390 H   0  0  0  0  0  0  0  0  0  0  0  0
   42.4400   27.1540   31.9110 H   0  0  0  0  0  0  0  0  0  0  0  0
   42.7850   26.6030   34.2750 H   0  0  0  0  0  0  0  0  0  0  0  0
   40.9250   26.3780   35.7930 H   0  0  0  0  0  0  0  0  0  0  0  0
   38.0460   26.6580   35.3510 S   0  0  0  0  0  0  0  0  0  0  0  0
   38.4090   27.1360   36.7220 O   0  0  0  0  0  0  0  0  0  0  0  0
   36.8790   27.4870   34.7950 O   0  0  0  0  0  0  0  0  0  0  0  0
   38.9360   24.6720   37.0210 H   0  0  0  0  0  0  0  0  0  0  0  0
   37.9440   24.4860   36.8390 N   0  0  0  0  0  0  0  0  0  0  0  0
   37.5570   24.9670   35.5040 C   0  0  2  0  0  3  0  0  0  0  0  0
   38.3010   24.1630   34.4670 C   0  0  0  0  0  3  0  0  0  0  0  0
   39.3900   24.2490   34.7690 H   0  0  0  0  0  0  0  0  0  0  0  0
   37.9970   22.8050   34.5510 O   0  0  0  0  0  0  0  0  0  0  0  0
   38.5140   22.4050   35.8070 C   0  0  0  0  0  2  0  0  0  0  0  0
   37.6360   23.0580   36.8520 C   0  0  0  0  0  2  0  0  0  0  0  0
   37.9720   27.3150   32.5210 O   0  0  0  0  0  0  0  0  0  0  0  0
   36.0960   27.2930   30.6490 O   0  0  0  0  0  0  0  0  0  0  0  0
   37.1150   26.4100   31.3840 P   0  0  1  0  0  0  0  0  0  0  0  0
   38.1680   25.6670   30.2840 O   0  0  0  0  0  0  0  0  0  0  0  0
   38.2980   26.2550   29.4930 H   0  0  0  0  0  0  0  0  0  0  0  0
   36.1800   25.1990   32.1210 O   0  0  0  0  0  0  0  0  0  0  0  0
   35.7050   24.3290   31.1230 C   0  0  0  0  0  0  0  0  0  0  0  0
   34.5810   24.2510   31.2000 H   0  0  0  0  0  0  0  0  0  0  0  0
   35.9390   24.7740   30.1580 H   0  0  0  0  0  0  0  0  0  0  0  0
   35.5520   21.8840   31.4260 C   0  0  0  0  0  3  0  0  0  0  0  0
   36.2690   22.9660   31.2680 C   0  0  0  0  0  3  0  0  0  0  0  0
   38.1430   19.3150   31.6730 C   0  0  0  0  0  0  0  0  0  0  0  0
   37.3790   18.1360   31.8120 C   0  0  0  0  0  0  0  0  0  0  0  0
   35.9780   18.2530   31.8180 C   0  0  0  0  0  0  0  0  0  0  0  0
   35.4930   19.5300   31.6840 N   0  0  0  0  0  0  0  0  0  0  0  0
   36.2400   20.6080   31.5550 C   0  0  0  0  0  0  0  0  0  0  0  0
   37.5630   20.4890   31.5510 N   0  0  0  0  0  0  0  0  0  0  0  0
   39.2110   19.1360   31.6770 H   0  0  0  0  0  0  0  0  0  0  0  0
   37.7640   17.1310   31.9170 H   0  0  0  0  0  0  0  0  0  0  0  0
   35.3140   17.4200   31.9180 H   0  0  0  0  0  0  0  0  0  0  0  0
  1  6  1  0  0  0  0
  1 11  1  0  0  0  0
  2  1  2  0  0  0  0
  3  4  2  0  0  0  0
  3  2  1  0  0  0  0
  4  5  1  0  0  0  0
  5  9  1  0  0  0  0
  5  6  2  0  0  0  0
  6 10  1  0  0  0  0
  7  3  1  0  0  0  0
  8  4  1  0  0  0  0
 11 12  2  0  0  0  0
 13 11  2  0  0  0  0
 15 21  1  0  0  0  0
 15 14  1  0  0  0  0
 16 11  1  1  0  0  0
 16 15  1  0  0  0  0
 17 19  1  0  0  0  0
 17 18  1  0  0  0  0
 17 16  1  0  0  0  0
 19 20  1  0  0  0  0
 20 21  1  0  0  0  0
 22  2  1  0  0  0  0
 24 23  2  6  0  0  0
 24 27  1  0  0  0  0
 24 22  1  0  0  0  0
 25 24  1  0  0  0  0
 26 25  1  0  0  0  0
 28 29  1  0  0  0  0
 28 32  1  0  0  0  0
 28 27  1  0  0  0  0
 30 28  1  0  0  0  0
 31 37  1  0  0  0  0
 32 31  2  0  0  0  0
 33 39  1  0  0  0  0
 33 34  1  0  0  0  0
 34 35  2  0  0  0  0
 34 40  1  0  0  0  0
 35 41  1  0  0  0  0
 36 35  1  0  0  0  0
 37 36  2  0  0  0  0
 38 37  1  0  0  0  0
 38 33  2  0  0  0  0
M  END
>  <minimizedAffinity>
-5.53890133

$$$$

 OpenBabel03262520363D

 41 43  0  0  1  0  0  0  0  0999 V2000
   38.4100   24.5140   34.7720 C   0  0  0  0  0  0  0  0  0  0  0  0
   38.3510   25.6570   33.9610 C   0  0  0  0  0  0  0  0  0  0  0  0
   38.2660   26.9200   34.4890 C   0  0  0  0  0  0  0  0  0  0  0  0
   38.2380   27.0740   35.8530 C   0  0  0  0  0  0  0  0  0  0  0  0
   38.2960   25.9750   36.6520 C   0  0  0  0  0  0  0  0  0  0  0  0
   38.3800   24.6970   36.1680 C   0  0  0  0  0  0  0  0  0  0  0  0
   38.2250   27.7510   33.7860 H   0  0  0  0  0  0  0  0  0  0  0  0
   38.1700   28.1010   36.1840 H   0  0  0  0  0  0  0  0  0  0  0  0
   38.2680   26.1960   37.7240 H   0  0  0  0  0  0  0  0  0  0  0  0
   38.4280   23.9320   36.9090 H   0  0  0  0  0  0  0  0  0  0  0  0
   38.5390   22.8830   34.1790 S   0  0  0  0  0  0  0  0  0  0  0  0
   39.7900   22.7090   33.3770 O   0  0  0  0  0  0  0  0  0  0  0  0
   38.5540   21.9400   35.3910 O   0  0  0  0  0  0  0  0  0  0  0  0
   37.0670   20.5790   33.9520 H   0  0  0  0  0  0  0  0  0  0  0  0
   36.4380   21.3580   33.7250 N   0  0  0  0  0  0  0  0  0  0  0  0
   37.1840   22.4740   33.1220 C   0  0  2  0  0  3  0  0  0  0  0  0
   37.7390   22.0210   31.7940 C   0  0  0  0  0  3  0  0  0  0  0  0
   38.3060   21.0690   32.0330 H   0  0  0  0  0  0  0  0  0  0  0  0
   36.7260   21.6410   30.9140 O   0  0  0  0  0  0  0  0  0  0  0  0
   36.1500   20.4950   31.5130 C   0  0  0  0  0  2  0  0  0  0  0  0
   35.4210   20.9840   32.7450 C   0  0  0  0  0  2  0  0  0  0  0  0
   38.3890   25.3350   32.6260 O   0  0  0  0  0  0  0  0  0  0  0  0
   38.1550   27.1020   30.6650 O   0  0  0  0  0  0  0  0  0  0  0  0
   37.4210   25.9710   31.3990 P   0  0  1  0  0  0  0  0  0  0  0  0
   36.9480   24.7590   30.3130 O   0  0  0  0  0  0  0  0  0  0  0  0
   37.5990   24.7060   29.5640 H   0  0  0  0  0  0  0  0  0  0  0  0
   36.0190   26.7010   32.0190 O   0  0  0  0  0  0  0  0  0  0  0  0
   36.0240   28.0600   31.6590 C   0  0  0  0  0  0  0  0  0  0  0  0
   37.0160   28.3160   31.1850 H   0  0  0  0  0  0  0  0  0  0  0  0
   35.2520   28.2060   30.9060 H   0  0  0  0  0  0  0  0  0  0  0  0
   34.6780   29.3110   33.3070 C   0  0  0  0  0  3  0  0  0  0  0  0
   35.8400   28.9420   32.8360 C   0  0  0  0  0  3  0  0  0  0  0  0
   33.5480   31.2760   36.1770 C   0  0  0  0  0  0  0  0  0  0  0  0
   34.7560   31.8320   36.6490 C   0  0  0  0  0  0  0  0  0  0  0  0
   35.9420   31.5160   35.9630 C   0  0  0  0  0  0  0  0  0  0  0  0
   35.7930   30.6820   34.8840 N   0  0  0  0  0  0  0  0  0  0  0  0
   34.6460   30.1820   34.4720 C   0  0  0  0  0  0  0  0  0  0  0  0
   33.5300   30.4860   35.1260 N   0  0  0  0  0  0  0  0  0  0  0  0
   32.6840   31.5700   36.7600 H   0  0  0  0  0  0  0  0  0  0  0  0
   34.8700   32.4900   37.5000 H   0  0  0  0  0  0  0  0  0  0  0  0
   36.9060   31.8870   36.2430 H   0  0  0  0  0  0  0  0  0  0  0  0
  1  6  1  0  0  0  0
  2  3  1  0  0  0  0
  2  1  2  0  0  0  0
  3  4  2  0  0  0  0
  4  8  1  0  0  0  0
  4  5  1  0  0  0  0
  5  9  1  0  0  0  0
  6  5  2  0  0  0  0
  6 10  1  0  0  0  0
  7  3  1  0  0  0  0
 11  1  1  0  0  0  0
 11 13  2  0  0  0  0
 12 11  2  0  0  0  0
 15 14  1  0  0  0  0
 16 15  1  0  0  0  0
 16 11  1  1  0  0  0
 17 18  1  0  0  0  0
 17 16  1  0  0  0  0
 19 20  1  0  0  0  0
 19 17  1  0  0  0  0
 20 21  1  0  0  0  0
 21 15  1  0  0  0  0
 22  2  1  0  0  0  0
 24 23  2  6  0  0  0
 24 27  1  0  0  0  0
 24 22  1  0  0  0  0
 25 24  1  0  0  0  0
 26 25  1  0  0  0  0
 28 27  1  0  0  0  0
 28 32  1  0  0  0  0
 29 28  1  0  0  0  0
 30 28  1  0  0  0  0
 31 37  1  0  0  0  0
 32 31  2  0  0  0  0
 33 34  1  0  0  0  0
 33 39  1  0  0  0  0
 34 40  1  0  0  0  0
 35 41  1  0  0  0  0
 35 34  2  0  0  0  0
 36 35  1  0  0  0  0
 37 36  2  0  0  0  0
 37 38  1  0  0  0  0
 38 33  2  0  0  0  0
M  END
>  <minimizedAffinity>
-5.53600836

$$$$

 OpenBabel03262520363D

 41 43  0  0  1  0  0  0  0  0999 V2000
   38.4860   24.5440   35.4540 C   0  0  0  0  0  0  0  0  0  0  0  0
   38.5930   24.7510   34.0700 C   0  0  0  0  0  0  0  0  0  0  0  0
   38.4800   25.9980   33.5100 C   0  0  0  0  0  0  0  0  0  0  0  0
   38.2560   27.0790   34.3260 C   0  0  0  0  0  0  0  0  0  0  0  0
   38.1510   26.8930   35.6690 C   0  0  0  0  0  0  0  0  0  0  0  0
   38.2570   25.6680   36.2690 C   0  0  0  0  0  0  0  0  0  0  0  0
   38.5760   26.0670   32.4270 H   0  0  0  0  0  0  0  0  0  0  0  0
   38.1790   28.0230   33.8040 H   0  0  0  0  0  0  0  0  0  0  0  0
   37.9730   27.8130   36.2380 H   0  0  0  0  0  0  0  0  0  0  0  0
   38.1640   25.6720   37.3320 H   0  0  0  0  0  0  0  0  0  0  0  0
   38.6380   22.9980   36.2400 S   0  0  0  0  0  0  0  0  0  0  0  0
   38.4880   23.1420   37.7220 O   0  0  0  0  0  0  0  0  0  0  0  0
   37.5420   22.0770   35.6840 O   0  0  0  0  0  0  0  0  0  0  0  0
   40.5430   22.0720   37.9830 H   0  0  0  0  0  0  0  0  0  0  0  0
   40.6150   21.5020   37.1330 N   0  0  0  0  0  0  0  0  0  0  0  0
   40.2260   22.2810   35.9470 C   0  0  2  0  0  3  0  0  0  0  0  0
   41.2220   23.3980   35.7540 C   0  0  0  0  0  3  0  0  0  0  0  0
   41.2490   23.9290   36.7550 H   0  0  0  0  0  0  0  0  0  0  0  0
   42.5130   22.9090   35.5570 O   0  0  0  0  0  0  0  0  0  0  0  0
   42.8470   22.2880   36.7850 C   0  0  0  0  0  2  0  0  0  0  0  0
   41.9810   21.0510   36.8810 C   0  0  0  0  0  2  0  0  0  0  0  0
   38.8150   23.5740   33.3970 O   0  0  0  0  0  0  0  0  0  0  0  0
   38.5980   21.7780   31.4600 O   0  0  0  0  0  0  0  0  0  0  0  0
   37.8380   22.8830   32.2080 P   0  0  1  0  0  0  0  0  0  0  0  0
   36.4060   22.2750   32.8800 O   0  0  0  0  0  0  0  0  0  0  0  0
   36.5260   21.3190   33.1220 H   0  0  0  0  0  0  0  0  0  0  0  0
   37.4220   24.0060   31.0050 O   0  0  0  0  0  0  0  0  0  0  0  0
   36.0400   24.2540   31.0810 C   0  0  0  0  0  0  0  0  0  0  0  0
   35.5600   23.9990   30.0920 H   0  0  0  0  0  0  0  0  0  0  0  0
   35.6240   23.5850   31.8320 H   0  0  0  0  0  0  0  0  0  0  0  0
   36.3720   26.6870   30.8180 C   0  0  0  0  0  3  0  0  0  0  0  0
   35.7510   25.6790   31.3730 C   0  0  0  0  0  3  0  0  0  0  0  0
   34.9120   29.5440   32.5730 C   0  0  0  0  0  0  0  0  0  0  0  0
   35.3450   30.6290   31.7830 C   0  0  0  0  0  0  0  0  0  0  0  0
   36.1360   30.3520   30.6540 C   0  0  0  0  0  0  0  0  0  0  0  0
   36.4070   29.0240   30.4380 N   0  0  0  0  0  0  0  0  0  0  0  0
   35.9840   28.0360   31.2000 C   0  0  0  0  0  0  0  0  0  0  0  0
   35.2370   28.3080   32.2650 N   0  0  0  0  0  0  0  0  0  0  0  0
   34.3090   29.8450   33.4210 H   0  0  0  0  0  0  0  0  0  0  0  0
   35.1290   31.6750   31.9560 H   0  0  0  0  0  0  0  0  0  0  0  0
   36.5120   31.1050   29.9940 H   0  0  0  0  0  0  0  0  0  0  0  0
  1 11  1  0  0  0  0
  1  6  1  0  0  0  0
  2  1  2  0  0  0  0
  3  2  1  0  0  0  0
  3  4  2  0  0  0  0
  4  5  1  0  0  0  0
  5  9  1  0  0  0  0
  5  6  2  0  0  0  0
  6 10  1  0  0  0  0
  7  3  1  0  0  0  0
  8  4  1  0  0  0  0
 11 12  2  0  0  0  0
 13 11  2  0  0  0  0
 15 14  1  0  0  0  0
 16 11  1  1  0  0  0
 16 15  1  0  0  0  0
 17 16  1  0  0  0  0
 17 18  1  0  0  0  0
 19 17  1  0  0  0  0
 19 20  1  0  0  0  0
 20 21  1  0  0  0  0
 21 15  1  0  0  0  0
 22  2  1  0  0  0  0
 24 23  2  6  0  0  0
 24 25  1  0  0  0  0
 24 22  1  0  0  0  0
 25 26  1  0  0  0  0
 27 28  1  0  0  0  0
 27 24  1  0  0  0  0
 28 32  1  0  0  0  0
 28 30  1  0  0  0  0
 29 28  1  0  0  0  0
 31 37  1  0  0  0  0
 31 32  2  0  0  0  0
 33 39  1  0  0  0  0
 34 40  1  0  0  0  0
 34 33  2  0  0  0  0
 35 34  1  0  0  0  0
 36 35  2  0  0  0  0
 36 37  1  0  0  0  0
 37 38  2  0  0  0  0
 38 33  1  0  0  0  0
 41 35  1  0  0  0  0
M  END
>  <minimizedAffinity>
-5.40223455

$$$$

 OpenBabel03262520363D

 41 43  0  0  1  0  0  0  0  0999 V2000
   37.6670   25.2730   33.7300 C   0  0  0  0  0  0  0  0  0  0  0  0
   37.2790   26.6070   33.5320 C   0  0  0  0  0  0  0  0  0  0  0  0
   37.4590   27.5670   34.4950 C   0  0  0  0  0  0  0  0  0  0  0  0
   38.0360   27.2150   35.6910 C   0  0  0  0  0  0  0  0  0  0  0  0
   38.4170   25.9250   35.8960 C   0  0  0  0  0  0  0  0  0  0  0  0
   38.2570   24.9360   34.9630 C   0  0  0  0  0  0  0  0  0  0  0  0
   37.1290   28.5770   34.2580 H   0  0  0  0  0  0  0  0  0  0  0  0
   38.1390   28.0310   36.3930 H   0  0  0  0  0  0  0  0  0  0  0  0
   38.8680   25.7400   36.8770 H   0  0  0  0  0  0  0  0  0  0  0  0
   38.6100   23.9740   35.2550 H   0  0  0  0  0  0  0  0  0  0  0  0
   37.4920   24.0040   32.5510 S   0  0  0  0  0  0  0  0  0  0  0  0
   37.6150   22.6610   33.1980 O   0  0  0  0  0  0  0  0  0  0  0  0
   36.1090   24.1540   31.9000 O   0  0  0  0  0  0  0  0  0  0  0  0
   37.3820   23.5860   29.8420 H   0  0  0  0  0  0  0  0  0  0  0  0
   38.1030   24.2970   30.0050 N   0  0  0  0  0  0  0  0  0  0  0  0
   38.7480   24.0990   31.3120 C   0  0  2  0  0  3  0  0  0  0  0  0
   39.4920   22.7870   31.2900 C   0  0  0  0  0  3  0  0  0  0  0  0
   38.7180   22.0280   30.9580 H   0  0  0  0  0  0  0  0  0  0  0  0
   40.4780   22.7700   30.3040 O   0  0  0  0  0  0  0  0  0  0  0  0
   39.7610   22.8380   29.0860 C   0  0  0  0  0  2  0  0  0  0  0  0
   39.1780   24.2330   29.0180 C   0  0  0  0  0  2  0  0  0  0  0  0
   36.7210   26.7940   32.2920 O   0  0  0  0  0  0  0  0  0  0  0  0
   38.7450   27.8800   30.9680 O   0  0  0  0  0  0  0  0  0  0  0  0
   37.2160   27.8930   31.1100 P   0  0  1  0  0  0  0  0  0  0  0  0
   36.4730   27.5580   29.6240 O   0  0  0  0  0  0  0  0  0  0  0  0
   37.0510   26.9530   29.0880 H   0  0  0  0  0  0  0  0  0  0  0  0
   36.8390   29.4910   31.5410 O   0  0  0  0  0  0  0  0  0  0  0  0
   35.4610   29.5700   31.8080 C   0  0  0  0  0  0  0  0  0  0  0  0
   34.9600   30.1880   31.0060 H   0  0  0  0  0  0  0  0  0  0  0  0
   35.0540   28.5630   31.7500 H   0  0  0  0  0  0  0  0  0  0  0  0
   34.0900   30.0540   33.8040 C   0  0  0  0  0  3  0  0  0  0  0  0
   35.1900   30.2150   33.1150 C   0  0  0  0  0  3  0  0  0  0  0  0
   32.8090   31.3030   36.9930 C   0  0  0  0  0  0  0  0  0  0  0  0
   33.8710   32.1180   37.4400 C   0  0  0  0  0  0  0  0  0  0  0  0
   35.0140   32.2200   36.6270 C   0  0  0  0  0  0  0  0  0  0  0  0
   34.9710   31.5000   35.4600 N   0  0  0  0  0  0  0  0  0  0  0  0
   33.9590   30.7490   35.0750 C   0  0  0  0  0  0  0  0  0  0  0  0
   32.8830   30.6580   35.8500 N   0  0  0  0  0  0  0  0  0  0  0  0
   31.9690   31.2810   37.6760 H   0  0  0  0  0  0  0  0  0  0  0  0
   33.9010   32.6850   38.3610 H   0  0  0  0  0  0  0  0  0  0  0  0
   35.8690   32.8110   36.8790 H   0  0  0  0  0  0  0  0  0  0  0  0
  1  6  1  0  0  0  0
  2  1  2  0  0  0  0
  2  3  1  0  0  0  0
  3  4  2  0  0  0  0
  4  5  1  0  0  0  0
  4  8  1  0  0  0  0
  5  9  1  0  0  0  0
  6 10  1  0  0  0  0
  6  5  2  0  0  0  0
  7  3  1  0  0  0  0
 11 12  2  0  0  0  0
 11  1  1  0  0  0  0
 13 11  2  0  0  0  0
 14 15  1  0  0  0  0
 15 16  1  0  0  0  0
 16 11  1  1  0  0  0
 17 16  1  0  0  0  0
 18 17  1  0  0  0  0
 19 17  1  0  0  0  0
 20 19  1  0  0  0  0
 21 20  1  0  0  0  0
 21 15  1  0  0  0  0
 22  2  1  0  0  0  0
 24 23  2  6  0  0  0
 24 27  1  0  0  0  0
 24 22  1  0  0  0  0
 25 24  1  0  0  0  0
 26 25  1  0  0  0  0
 27 28  1  0  0  0  0
 28 32  1  0  0  0  0
 29 28  1  0  0  0  0
 30 28  1  0  0  0  0
 31 37  1  0  0  0  0
 32 31  2  0  0  0  0
 33 34  1  0  0  0  0
 33 39  1  0  0  0  0
 34 40  1  0  0  0  0
 35 41  1  0  0  0  0
 35 34  2  0  0  0  0
 36 35  1  0  0  0  0
 37 36  2  0  0  0  0
 37 38  1  0  0  0  0
 38 33  2  0  0  0  0
M  END
>  <minimizedAffinity>
-5.34824705

$$$$

 OpenBabel03262520363D

 41 43  0  0  1  0  0  0  0  0999 V2000
   42.5040   23.6790   35.9310 C   0  0  0  0  0  0  0  0  0  0  0  0
   42.5290   24.7760   35.0550 C   0  0  0  0  0  0  0  0  0  0  0  0
   43.6180   25.6040   34.9590 C   0  0  0  0  0  0  0  0  0  0  0  0
   44.7180   25.3570   35.7430 C   0  0  0  0  0  0  0  0  0  0  0  0
   44.7070   24.2970   36.5960 C   0  0  0  0  0  0  0  0  0  0  0  0
   43.6430   23.4450   36.7230 C   0  0  0  0  0  0  0  0  0  0  0  0
   43.5520   26.4310   34.2540 H   0  0  0  0  0  0  0  0  0  0  0  0
   45.5300   26.0570   35.6050 H   0  0  0  0  0  0  0  0  0  0  0  0
   45.6280   24.1790   37.1780 H   0  0  0  0  0  0  0  0  0  0  0  0
   43.7770   22.6520   37.4230 H   0  0  0  0  0  0  0  0  0  0  0  0
   41.1710   22.5720   36.0940 S   0  0  0  0  0  0  0  0  0  0  0  0
   40.7280   22.0750   34.7540 O   0  0  0  0  0  0  0  0  0  0  0  0
   41.6370   21.3970   36.9660 O   0  0  0  0  0  0  0  0  0  0  0  0
   39.4660   21.7050   38.0610 H   0  0  0  0  0  0  0  0  0  0  0  0
   39.5320   22.7250   38.1520 N   0  0  0  0  0  0  0  0  0  0  0  0
   39.7740   23.3530   36.8440 C   0  0  2  0  0  3  0  0  0  0  0  0
   38.5710   23.1160   35.9650 C   0  0  0  0  0  3  0  0  0  0  0  0
   38.4130   21.9940   35.9960 H   0  0  0  0  0  0  0  0  0  0  0  0
   37.4150   23.6710   36.5130 O   0  0  0  0  0  0  0  0  0  0  0  0
   37.1920   22.9260   37.6960 C   0  0  0  0  0  2  0  0  0  0  0  0
   38.2950   23.3190   38.6540 C   0  0  0  0  0  2  0  0  0  0  0  0
   41.3580   24.8860   34.3460 O   0  0  0  0  0  0  0  0  0  0  0  0
   39.8480   26.7240   35.5130 O   0  0  0  0  0  0  0  0  0  0  0  0
   40.4090   26.2690   34.1590 P   0  0  1  0  0  0  0  0  0  0  0  0
   41.2940   27.5150   33.4270 O   0  0  0  0  0  0  0  0  0  0  0  0
   41.7150   28.0830   34.1240 H   0  0  0  0  0  0  0  0  0  0  0  0
   39.0370   25.9640   33.2060 O   0  0  0  0  0  0  0  0  0  0  0  0
   37.8910   26.1400   34.0020 C   0  0  0  0  0  0  0  0  0  0  0  0
   37.2200   25.2380   33.8940 H   0  0  0  0  0  0  0  0  0  0  0  0
   38.2130   26.1890   35.0400 H   0  0  0  0  0  0  0  0  0  0  0  0
   36.4950   28.1320   34.4240 C   0  0  0  0  0  3  0  0  0  0  0  0
   37.1160   27.3360   33.5940 C   0  0  0  0  0  3  0  0  0  0  0  0
   34.8840   31.3920   34.0420 C   0  0  0  0  0  0  0  0  0  0  0  0
   34.3970   31.3290   32.7190 C   0  0  0  0  0  0  0  0  0  0  0  0
   34.6350   30.1550   31.9820 C   0  0  0  0  0  0  0  0  0  0  0  0
   35.3320   29.1760   32.6450 N   0  0  0  0  0  0  0  0  0  0  0  0
   35.7720   29.2720   33.8830 C   0  0  0  0  0  0  0  0  0  0  0  0
   35.5410   30.3850   34.5720 N   0  0  0  0  0  0  0  0  0  0  0  0
   34.6560   32.3280   34.5370 H   0  0  0  0  0  0  0  0  0  0  0  0
   33.8470   32.1030   32.2000 H   0  0  0  0  0  0  0  0  0  0  0  0
   34.3070   30.0110   30.9740 H   0  0  0  0  0  0  0  0  0  0  0  0
  1 11  1  0  0  0  0
  1  6  1  0  0  0  0
  2  1  2  0  0  0  0
  3  2  1  0  0  0  0
  3  4  2  0  0  0  0
  4  5  1  0  0  0  0
  5  6  2  0  0  0  0
  5  9  1  0  0  0  0
  6 10  1  0  0  0  0
  7  3  1  0  0  0  0
  8  4  1  0  0  0  0
 11 13  2  0  0  0  0
 12 11  2  0  0  0  0
 14 15  1  0  0  0  0
 15 21  1  0  0  0  0
 16 11  1  6  0  0  0
 16 15  1  0  0  0  0
 17 18  1  0  0  0  0
 17 19  1  0  0  0  0
 17 16  1  0  0  0  0
 19 20  1  0  0  0  0
 20 21  1  0  0  0  0
 22  2  1  0  0  0  0
 24 22  1  0  0  0  0
 24 23  2  1  0  0  0
 25 26  1  0  0  0  0
 25 24  1  0  0  0  0
 27 28  1  0  0  0  0
 27 24  1  0  0  0  0
 28 30  1  0  0  0  0
 29 28  1  0  0  0  0
 32 28  1  0  0  0  0
 32 31  2  0  0  0  0
 33 39  1  0  0  0  0
 33 38  1  0  0  0  0
 34 33  2  0  0  0  0
 35 36  2  0  0  0  0
 35 34  1  0  0  0  0
 36 37  1  0  0  0  0
 37 31  1  0  0  0  0
 37 38  2  0  0  0  0
 40 34  1  0  0  0  0
 41 35  1  0  0  0  0
M  END
>  <minimizedAffinity>
-5.34806871

$$$$

 OpenBabel03262520363D

 41 43  0  0  1  0  0  0  0  0999 V2000
   39.8900   26.4940   34.0940 C   0  0  0  0  0  0  0  0  0  0  0  0
   38.8350   26.7720   33.2110 C   0  0  0  0  0  0  0  0  0  0  0  0
   37.6300   27.2600   33.6480 C   0  0  0  0  0  0  0  0  0  0  0  0
   37.4470   27.4840   34.9910 C   0  0  0  0  0  0  0  0  0  0  0  0
   38.4610   27.2200   35.8580 C   0  0  0  0  0  0  0  0  0  0  0  0
   39.6780   26.7320   35.4650 C   0  0  0  0  0  0  0  0  0  0  0  0
   36.8680   27.4480   32.8940 H   0  0  0  0  0  0  0  0  0  0  0  0
   36.4700   27.8680   35.2490 H   0  0  0  0  0  0  0  0  0  0  0  0
   38.2220   27.4300   36.9060 H   0  0  0  0  0  0  0  0  0  0  0  0
   40.3820   26.5810   36.2510 H   0  0  0  0  0  0  0  0  0  0  0  0
   41.4520   25.8940   33.6150 S   0  0  0  0  0  0  0  0  0  0  0  0
   41.3110   24.7860   32.6200 O   0  0  0  0  0  0  0  0  0  0  0  0
   42.2370   27.0610   33.0000 O   0  0  0  0  0  0  0  0  0  0  0  0
   44.0860   26.1430   34.3410 H   0  0  0  0  0  0  0  0  0  0  0  0
   43.5450   26.0580   35.2080 N   0  0  0  0  0  0  0  0  0  0  0  0
   42.3410   25.2400   34.9950 C   0  0  2  0  0  3  0  0  0  0  0  0
   42.7660   23.8320   34.6600 C   0  0  0  0  0  3  0  0  0  0  0  0
   43.4880   23.9520   33.7950 H   0  0  0  0  0  0  0  0  0  0  0  0
   43.5120   23.2590   35.6910 O   0  0  0  0  0  0  0  0  0  0  0  0
   44.6980   24.0300   35.7390 C   0  0  0  0  0  2  0  0  0  0  0  0
   44.2960   25.3890   36.2680 C   0  0  0  0  0  2  0  0  0  0  0  0
   39.1770   26.4950   31.9100 O   0  0  0  0  0  0  0  0  0  0  0  0
   36.8880   25.6270   30.8950 O   0  0  0  0  0  0  0  0  0  0  0  0
   38.4080   25.4150   30.8650 P   0  0  1  0  0  0  0  0  0  0  0  0
   39.0050   25.5730   29.2870 O   0  0  0  0  0  0  0  0  0  0  0  0
   38.4490   26.2220   28.7810 H   0  0  0  0  0  0  0  0  0  0  0  0
   38.6270   23.8050   31.3550 O   0  0  0  0  0  0  0  0  0  0  0  0
   37.4970   23.4010   32.0880 C   0  0  0  0  0  0  0  0  0  0  0  0
   36.6360   24.0940   31.8580 H   0  0  0  0  0  0  0  0  0  0  0  0
   37.2200   22.4060   31.7470 H   0  0  0  0  0  0  0  0  0  0  0  0
   38.7740   22.9070   34.1430 C   0  0  0  0  0  3  0  0  0  0  0  0
   37.7430   23.4490   33.5490 C   0  0  0  0  0  3  0  0  0  0  0  0
   39.9840   22.7040   37.5880 C   0  0  0  0  0  0  0  0  0  0  0  0
   38.9540   23.3530   38.3020 C   0  0  0  0  0  0  0  0  0  0  0  0
   37.8560   23.8490   37.5760 C   0  0  0  0  0  0  0  0  0  0  0  0
   37.9070   23.6440   36.2200 N   0  0  0  0  0  0  0  0  0  0  0  0
   38.8880   23.0320   35.5880 C   0  0  0  0  0  0  0  0  0  0  0  0
   39.9210   22.5670   36.2820 N   0  0  0  0  0  0  0  0  0  0  0  0
   40.7880   22.3530   38.2210 H   0  0  0  0  0  0  0  0  0  0  0  0
   38.9170   23.5120   39.3710 H   0  0  0  0  0  0  0  0  0  0  0  0
   37.0270   24.3540   38.0260 H   0  0  0  0  0  0  0  0  0  0  0  0
  1  6  1  0  0  0  0
  2  3  1  0  0  0  0
  2  1  2  0  0  0  0
  3  4  2  0  0  0  0
  4  8  1  0  0  0  0
  4  5  1  0  0  0  0
  5  9  1  0  0  0  0
  6  5  2  0  0  0  0
  6 10  1  0  0  0  0
  7  3  1  0  0  0  0
 11  1  1  0  0  0  0
 12 11  2  0  0  0  0
 13 11  2  0  0  0  0
 14 15  1  0  0  0  0
 15 21  1  0  0  0  0
 16 11  1  6  0  0  0
 16 15  1  0  0  0  0
 17 16  1  0  0  0  0
 17 19  1  0  0  0  0
 18 17  1  0  0  0  0
 19 20  1  0  0  0  0
 20 21  1  0  0  0  0
 22  2  1  0  0  0  0
 24 23  2  6  0  0  0
 24 27  1  0  0  0  0
 24 22  1  0  0  0  0
 25 24  1  0  0  0  0
 26 25  1  0  0  0  0
 27 28  1  0  0  0  0
 28 32  1  0  0  0  0
 29 28  1  0  0  0  0
 30 28  1  0  0  0  0
 31 37  1  0  0  0  0
 32 31  2  0  0  0  0
 33 39  1  0  0  0  0
 33 34  1  0  0  0  0
 34 40  1  0  0  0  0
 35 41  1  0  0  0  0
 35 34  2  0  0  0  0
 36 35  1  0  0  0  0
 37 36  2  0  0  0  0
 37 38  1  0  0  0  0
 38 33  2  0  0  0  0
M  END
>  <minimizedAffinity>
-5.30211067

$$$$

 OpenBabel03262520363D

 41 43  0  0  1  0  0  0  0  0999 V2000
   39.5540   26.8270   34.2930 C   0  0  0  0  0  0  0  0  0  0  0  0
   39.5050   27.2550   32.9570 C   0  0  0  0  0  0  0  0  0  0  0  0
   40.6340   27.3650   32.1870 C   0  0  0  0  0  0  0  0  0  0  0  0
   41.8520   27.0480   32.7360 C   0  0  0  0  0  0  0  0  0  0  0  0
   41.9140   26.6310   34.0290 C   0  0  0  0  0  0  0  0  0  0  0  0
   40.8140   26.5070   34.8340 C   0  0  0  0  0  0  0  0  0  0  0  0
   40.5030   27.7040   31.1600 H   0  0  0  0  0  0  0  0  0  0  0  0
   42.6880   27.1630   32.0610 H   0  0  0  0  0  0  0  0  0  0  0  0
   42.9270   26.4010   34.3780 H   0  0  0  0  0  0  0  0  0  0  0  0
   41.0100   26.1610   35.8220 H   0  0  0  0  0  0  0  0  0  0  0  0
   38.1670   26.6430   35.3270 S   0  0  0  0  0  0  0  0  0  0  0  0
   38.4590   27.1550   36.7020 O   0  0  0  0  0  0  0  0  0  0  0  0
   37.0060   27.4320   34.7050 O   0  0  0  0  0  0  0  0  0  0  0  0
   39.4190   24.5600   36.6010 H   0  0  0  0  0  0  0  0  0  0  0  0
   38.4100   24.3830   36.6600 N   0  0  0  0  0  0  0  0  0  0  0  0
   37.7100   24.9440   35.4940 C   0  0  2  0  0  3  0  0  0  0  0  0
   38.1640   24.2080   34.2590 C   0  0  0  0  0  3  0  0  0  0  0  0
   39.2960   24.2780   34.2860 H   0  0  0  0  0  0  0  0  0  0  0  0
   37.8740   22.8460   34.3330 O   0  0  0  0  0  0  0  0  0  0  0  0
   38.6810   22.3710   35.3950 C   0  0  0  0  0  2  0  0  0  0  0  0
   38.0970   22.9560   36.6620 C   0  0  0  0  0  2  0  0  0  0  0  0
   38.2190   27.5320   32.5610 O   0  0  0  0  0  0  0  0  0  0  0  0
   38.3190   28.6950   30.1820 O   0  0  0  0  0  0  0  0  0  0  0  0
   37.6310   27.5790   30.9800 P   0  0  1  0  0  0  0  0  0  0  0  0
   37.8340   26.0810   30.2140 O   0  0  0  0  0  0  0  0  0  0  0  0
   38.7010   26.0660   29.7290 H   0  0  0  0  0  0  0  0  0  0  0  0
   35.9800   27.9760   30.9360 O   0  0  0  0  0  0  0  0  0  0  0  0
   35.8530   29.3740   31.0190 C   0  0  0  0  0  0  0  0  0  0  0  0
   36.8780   29.8450   30.9840 H   0  0  0  0  0  0  0  0  0  0  0  0
   35.3060   29.7080   30.1390 H   0  0  0  0  0  0  0  0  0  0  0  0
   35.8040   30.4360   33.2470 C   0  0  0  0  0  3  0  0  0  0  0  0
   35.2000   29.7930   32.2820 C   0  0  0  0  0  3  0  0  0  0  0  0
   33.1220   30.7590   35.7110 C   0  0  0  0  0  0  0  0  0  0  0  0
   33.7400   31.5230   36.7240 C   0  0  0  0  0  0  0  0  0  0  0  0
   35.0780   31.9130   36.5340 C   0  0  0  0  0  0  0  0  0  0  0  0
   35.6500   31.4990   35.3580 N   0  0  0  0  0  0  0  0  0  0  0  0
   35.0390   30.7860   34.4340 C   0  0  0  0  0  0  0  0  0  0  0  0
   33.7750   30.4220   34.6210 N   0  0  0  0  0  0  0  0  0  0  0  0
   32.0940   30.5030   35.9360 H   0  0  0  0  0  0  0  0  0  0  0  0
   33.2860   31.8470   37.6500 H   0  0  0  0  0  0  0  0  0  0  0  0
   35.6330   32.4910   37.2430 H   0  0  0  0  0  0  0  0  0  0  0  0
  1  6  1  0  0  0  0
  1 11  1  0  0  0  0
  2  1  2  0  0  0  0
  3  4  2  0  0  0  0
  3  2  1  0  0  0  0
  4  5  1  0  0  0  0
  5  9  1  0  0  0  0
  5  6  2  0  0  0  0
  6 10  1  0  0  0  0
  7  3  1  0  0  0  0
  8  4  1  0  0  0  0
 11 12  2  0  0  0  0
 13 11  2  0  0  0  0
 14 15  1  0  0  0  0
 15 21  1  0  0  0  0
 16 11  1  6  0  0  0
 16 15  1  0  0  0  0
 17 18  1  0  0  0  0
 17 19  1  0  0  0  0
 17 16  1  0  0  0  0
 19 20  1  0  0  0  0
 20 21  1  0  0  0  0
 22  2  1  0  0  0  0
 24 23  2  6  0  0  0
 24 22  1  0  0  0  0
 25 24  1  0  0  0  0
 26 25  1  0  0  0  0
 27 24  1  0  0  0  0
 27 28  1  0  0  0  0
 28 32  1  0  0  0  0
 29 28  1  0  0  0  0
 30 28  1  0  0  0  0
 31 37  1  0  0  0  0
 32 31  2  0  0  0  0
 33 39  1  0  0  0  0
 33 34  1  0  0  0  0
 34 40  1  0  0  0  0
 35 34  2  0  0  0  0
 35 41  1  0  0  0  0
 36 35  1  0  0  0  0
 37 38  1  0  0  0  0
 37 36  2  0  0  0  0
 38 33  2  0  0  0  0
M  END
>  <minimizedAffinity>
-5.27795553

$$$$
