
 OpenBabel03262520353D

 41 43  0  0  1  0  0  0  0  0999 V2000
   28.0960   28.3750   48.4500 C   0  0  0  0  0  0  0  0  0  0  0  0
   29.3450   28.0510   49.0020 C   0  0  0  0  0  0  0  0  0  0  0  0
   29.4680   27.5090   50.2560 C   0  0  0  0  0  0  0  0  0  0  0  0
   28.3350   27.2770   50.9970 C   0  0  0  0  0  0  0  0  0  0  0  0
   27.1180   27.5860   50.4740 C   0  0  0  0  0  0  0  0  0  0  0  0
   26.9500   28.1270   49.2290 C   0  0  0  0  0  0  0  0  0  0  0  0
   30.4750   27.2890   50.6060 H   0  0  0  0  0  0  0  0  0  0  0  0
   28.5220   26.8500   51.9730 H   0  0  0  0  0  0  0  0  0  0  0  0
   26.2750   27.3640   51.1380 H   0  0  0  0  0  0  0  0  0  0  0  0
   25.9390   28.3090   48.9450 H   0  0  0  0  0  0  0  0  0  0  0  0
   27.8580   29.0450   46.8610 S   0  0  0  0  0  0  0  0  0  0  0  0
   29.1160   29.6810   46.3610 O   0  0  0  0  0  0  0  0  0  0  0  0
   27.4360   27.9010   45.9260 O   0  0  0  0  0  0  0  0  0  0  0  0
   27.9400   31.6690   46.0670 H   0  0  0  0  0  0  0  0  0  0  0  0
   26.9840   31.3370   45.8980 N   0  0  0  0  0  0  0  0  0  0  0  0
   26.6120   30.2970   46.8710 C   0  0  2  0  0  3  0  0  0  0  0  0
   26.5720   30.9150   48.2460 C   0  0  0  0  0  3  0  0  0  0  0  0
   27.5840   31.4160   48.3620 H   0  0  0  0  0  0  0  0  0  0  0  0
   25.6360   31.9460   48.3220 O   0  0  0  0  0  0  0  0  0  0  0  0
   26.1380   32.9450   47.4540 C   0  0  0  0  0  2  0  0  0  0  0  0
   25.9920   32.3970   46.0510 C   0  0  0  0  0  2  0  0  0  0  0  0
   30.3720   28.3430   48.1390 O   0  0  0  0  0  0  0  0  0  0  0  0
   31.6800   26.0440   48.2950 O   0  0  0  0  0  0  0  0  0  0  0  0
   31.8520   27.5430   48.0110 P   0  0  1  0  0  0  0  0  0  0  0  0
   32.5430   27.7880   46.4830 O   0  0  0  0  0  0  0  0  0  0  0  0
   32.2680   27.0580   45.8680 H   0  0  0  0  0  0  0  0  0  0  0  0
   32.9580   28.0770   49.1830 O   0  0  0  0  0  0  0  0  0  0  0  0
   34.2590   27.7650   48.7480 C   0  0  0  0  0  0  0  0  0  0  0  0
   34.7450   27.0690   49.4920 H   0  0  0  0  0  0  0  0  0  0  0  0
   34.1730   27.2310   47.8040 H   0  0  0  0  0  0  0  0  0  0  0  0
   36.1890   29.1880   49.3380 C   0  0  0  0  0  3  0  0  0  0  0  0
   35.1060   28.9770   48.6360 C   0  0  0  0  0  3  0  0  0  0  0  0
   37.4440   32.6090   49.6370 C   0  0  0  0  0  0  0  0  0  0  0  0
   38.3910   32.6700   48.5930 C   0  0  0  0  0  0  0  0  0  0  0  0
   38.5770   31.5220   47.8020 C   0  0  0  0  0  0  0  0  0  0  0  0
   37.8000   30.4430   48.1390 N   0  0  0  0  0  0  0  0  0  0  0  0
   36.9250   30.4240   49.1240 C   0  0  0  0  0  0  0  0  0  0  0  0
   36.7550   31.5130   49.8660 N   0  0  0  0  0  0  0  0  0  0  0  0
   37.3620   33.5340   50.1950 H   0  0  0  0  0  0  0  0  0  0  0  0
   39.0020   33.5230   48.3290 H   0  0  0  0  0  0  0  0  0  0  0  0
   39.2700   31.4690   46.9880 H   0  0  0  0  0  0  0  0  0  0  0  0
  1  2  2  0  0  0  0
  1  6  1  0  0  0  0
  2  3  1  0  0  0  0
  3  7  1  0  0  0  0
  3  4  2  0  0  0  0
  4  8  1  0  0  0  0
  5  4  1  0  0  0  0
  5  9  1  0  0  0  0
  6  5  2  0  0  0  0
 10  6  1  0  0  0  0
 11  1  1  0  0  0  0
 12 11  2  0  0  0  0
 13 11  2  0  0  0  0
 15 21  1  0  0  0  0
 15 14  1  0  0  0  0
 15 16  1  0  0  0  0
 16 11  1  1  0  0  0
 16 17  1  0  0  0  0
 17 19  1  0  0  0  0
 17 18  1  0  0  0  0
 20 19  1  0  0  0  0
 21 20  1  0  0  0  0
 22  2  1  0  0  0  0
 24 22  1  0  0  0  0
 24 23  2  1  0  0  0
 24 27  1  0  0  0  0
 25 24  1  0  0  0  0
 26 25  1  0  0  0  0
 28 27  1  0  0  0  0
 28 29  1  0  0  0  0
 30 28  1  0  0  0  0
 32 28  1  0  0  0  0
 32 31  2  0  0  0  0
 33 38  1  0  0  0  0
 33 39  1  0  0  0  0
 34 33  2  0  0  0  0
 35 36  2  0  0  0  0
 35 34  1  0  0  0  0
 36 37  1  0  0  0  0
 37 31  1  0  0  0  0
 37 38  2  0  0  0  0
 40 34  1  0  0  0  0
 41 35  1  0  0  0  0
M  END
>  <minimizedAffinity>
-6.56274128

>  <minimizedRMSD>
2.31779313

$$$$
