
 OpenBabel03262520343D

 41 43  0  0  1  0  0  0  0  0999 V2000
   28.0880   28.2500   48.5250 C   0  0  0  0  0  0  0  0  0  0  0  0
   29.3760   27.9790   49.0110 C   0  0  0  0  0  0  0  0  0  0  0  0
   29.5860   27.4420   50.2550 C   0  0  0  0  0  0  0  0  0  0  0  0
   28.5050   27.1620   51.0540 C   0  0  0  0  0  0  0  0  0  0  0  0
   27.2500   27.4190   50.5950 C   0  0  0  0  0  0  0  0  0  0  0  0
   26.9950   27.9540   49.3610 C   0  0  0  0  0  0  0  0  0  0  0  0
   30.6190   27.2640   50.5510 H   0  0  0  0  0  0  0  0  0  0  0  0
   28.7590   26.7430   52.0170 H   0  0  0  0  0  0  0  0  0  0  0  0
   26.4520   27.1620   51.3010 H   0  0  0  0  0  0  0  0  0  0  0  0
   25.9640   28.0930   49.1310 H   0  0  0  0  0  0  0  0  0  0  0  0
   27.7390   28.9090   46.9520 S   0  0  0  0  0  0  0  0  0  0  0  0
   28.9730   29.4910   46.3370 O   0  0  0  0  0  0  0  0  0  0  0  0
   27.1970   27.7720   46.0740 O   0  0  0  0  0  0  0  0  0  0  0  0
   27.8700   31.5330   46.1640 H   0  0  0  0  0  0  0  0  0  0  0  0
   26.8940   31.2400   46.0580 N   0  0  0  0  0  0  0  0  0  0  0  0
   26.5470   30.2090   47.0490 C   0  0  2  0  0  3  0  0  0  0  0  0
   26.6230   30.8200   48.4270 C   0  0  0  0  0  3  0  0  0  0  0  0
   27.6580   31.2800   48.4770 H   0  0  0  0  0  0  0  0  0  0  0  0
   25.7340   31.8860   48.5680 O   0  0  0  0  0  0  0  0  0  0  0  0
   26.2160   32.8700   47.6730 C   0  0  0  0  0  2  0  0  0  0  0  0
   25.9560   32.3360   46.2810 C   0  0  0  0  0  2  0  0  0  0  0  0
   30.3440   28.3140   48.0960 O   0  0  0  0  0  0  0  0  0  0  0  0
   31.8980   26.1720   48.2340 O   0  0  0  0  0  0  0  0  0  0  0  0
   31.9080   27.6890   47.9940 P   0  0  1  0  0  0  0  0  0  0  0  0
   32.6100   28.0540   46.4960 O   0  0  0  0  0  0  0  0  0  0  0  0
   32.4360   27.3160   45.8540 H   0  0  0  0  0  0  0  0  0  0  0  0
   32.9130   28.3090   49.2140 O   0  0  0  0  0  0  0  0  0  0  0  0
   34.2010   27.7680   49.0530 C   0  0  0  0  0  0  0  0  0  0  0  0
   34.5000   27.2290   49.9990 H   0  0  0  0  0  0  0  0  0  0  0  0
   34.1520   27.0300   48.2550 H   0  0  0  0  0  0  0  0  0  0  0  0
   35.3130   29.9330   49.4680 C   0  0  0  0  0  3  0  0  0  0  0  0
   35.2110   28.8200   48.7890 C   0  0  0  0  0  3  0  0  0  0  0  0
   37.7290   32.6770   49.5280 C   0  0  0  0  0  0  0  0  0  0  0  0
   38.3260   32.5740   48.2540 C   0  0  0  0  0  0  0  0  0  0  0  0
   37.8800   31.5530   47.3950 C   0  0  0  0  0  0  0  0  0  0  0  0
   36.8890   30.7500   47.9010 N   0  0  0  0  0  0  0  0  0  0  0  0
   36.3550   30.8780   49.0980 C   0  0  0  0  0  0  0  0  0  0  0  0
   36.7830   31.8450   49.9030 N   0  0  0  0  0  0  0  0  0  0  0  0
   38.1290   33.4880   50.1240 H   0  0  0  0  0  0  0  0  0  0  0  0
   39.1070   33.2090   47.8580 H   0  0  0  0  0  0  0  0  0  0  0  0
   38.2700   31.3940   46.4110 H   0  0  0  0  0  0  0  0  0  0  0  0
  1  2  2  0  0  0  0
  1  6  1  0  0  0  0
  2  3  1  0  0  0  0
  3  7  1  0  0  0  0
  3  4  2  0  0  0  0
  4  8  1  0  0  0  0
  5  4  1  0  0  0  0
  5  9  1  0  0  0  0
  6  5  2  0  0  0  0
 10  6  1  0  0  0  0
 11  1  1  0  0  0  0
 12 11  2  0  0  0  0
 13 11  2  0  0  0  0
 15 14  1  0  0  0  0
 15 21  1  0  0  0  0
 15 16  1  0  0  0  0
 16 11  1  1  0  0  0
 16 17  1  0  0  0  0
 17 18  1  0  0  0  0
 17 19  1  0  0  0  0
 20 19  1  0  0  0  0
 21 20  1  0  0  0  0
 22  2  1  0  0  0  0
 24 22  1  0  0  0  0
 24 23  2  1  0  0  0
 24 27  1  0  0  0  0
 25 24  1  0  0  0  0
 26 25  1  0  0  0  0
 28 27  1  0  0  0  0
 28 29  1  0  0  0  0
 30 28  1  0  0  0  0
 32 28  1  0  0  0  0
 32 31  2  0  0  0  0
 33 38  1  0  0  0  0
 33 39  1  0  0  0  0
 34 33  2  0  0  0  0
 35 36  2  0  0  0  0
 35 34  1  0  0  0  0
 36 37  1  0  0  0  0
 37 31  1  0  0  0  0
 37 38  2  0  0  0  0
 40 34  1  0  0  0  0
 41 35  1  0  0  0  0
M  END
>  <minimizedAffinity>
-6.36162663

>  <minimizedRMSD>
2.10281968

$$$$
