
 OpenBabel03272507323D

 35 38  0  0  1  0  0  0  0  0999 V2000
   35.8350   29.1580   49.8160 C   0  0  0  0  0  0  0  0  0  0  0  0
   34.8510   29.6780   50.6260 C   0  0  0  0  0  0  0  0  0  0  0  0
   33.6240   29.1670   50.1770 C   0  0  0  0  0  0  0  0  0  0  0  0
   33.9510   28.3590   49.1100 C   0  0  0  0  0  0  0  0  0  0  0  0
   35.2490   28.3830   48.9320 O   0  0  0  0  0  0  0  0  0  0  0  0
   34.9020   30.3580   51.4750 H   0  0  0  0  0  0  0  0  0  0  0  0
   32.6450   29.3880   50.6100 H   0  0  0  0  0  0  0  0  0  0  0  0
   37.2380   29.4790   50.0000 C   0  0  0  0  0  0  0  0  0  0  0  0
   37.9010   28.8460   50.8380 O   0  0  0  0  0  0  0  0  0  0  0  0
   37.7810   30.5290   49.1850 C   0  0  0  0  0  0  0  0  0  0  0  0
   38.1310   31.7070   49.8270 C   0  0  0  0  0  0  0  0  0  0  0  0
   38.6600   32.7530   49.0640 C   0  0  0  0  0  0  0  0  0  0  0  0
   38.8040   32.5520   47.7110 N   0  0  0  0  0  0  0  0  0  0  0  0
   38.4550   31.4040   47.1260 C   0  0  0  0  0  0  0  0  0  0  0  0
   37.9470   30.3960   47.8510 N   0  0  0  0  0  0  0  0  0  0  0  0
   38.0430   31.9230   50.8790 H   0  0  0  0  0  0  0  0  0  0  0  0
   38.9480   33.6930   49.5290 H   0  0  0  0  0  0  0  0  0  0  0  0
   38.5990   31.3190   46.0470 H   0  0  0  0  0  0  0  0  0  0  0  0
   32.9950   27.5930   48.3010 C   0  0  0  0  0  0  0  0  0  0  0  0
   31.7820   27.5310   48.6940 O   0  0  0  0  0  0  0  0  0  0  0  0
   33.4560   26.9010   47.0500 C   0  0  1  0  0  0  0  0  0  0  0  0
   33.7700   25.3970   47.3380 C   0  0  0  0  0  0  0  0  0  0  0  0
   32.6440   25.8280   46.4720 C   0  0  2  0  0  0  0  0  0  0  0  0
   34.3970   27.3310   46.6560 H   0  0  0  0  0  0  0  0  0  0  0  0
   33.5590   25.0190   48.3530 H   0  0  0  0  0  0  0  0  0  0  0  0
   34.6600   24.9470   46.8960 H   0  0  0  0  0  0  0  0  0  0  0  0
   31.6420   25.7270   46.9460 H   0  0  0  0  0  0  0  0  0  0  0  0
   32.6020   25.5960   45.0720 N   0  0  1  0  0  0  0  0  0  0  0  0
   32.3600   24.2630   44.6350 C   0  0  0  0  0  3  0  0  0  0  0  0
   31.2590   24.1470   44.4110 H   0  0  0  0  0  0  0  0  0  0  0  0
   33.0450   24.1190   43.2900 C   0  0  0  0  0  3  0  0  0  0  0  0
   32.8150   23.1540   42.7970 H   0  0  0  0  0  0  0  0  0  0  0  0
   32.7980   25.2350   42.5150 O   0  0  0  0  0  0  0  0  0  0  0  0
   31.6960   25.9610   42.9110 C   0  0  0  0  0  2  0  0  0  0  0  0
   31.8210   26.5160   44.3160 C   0  0  0  0  0  2  0  0  0  0  0  0
  1  8  1  0  0  0  0
  1  2  2  0  0  0  0
  2  6  1  0  0  0  0
  3  7  1  0  0  0  0
  3  2  1  0  0  0  0
  4  3  2  0  0  0  0
  5  4  1  0  0  0  0
  5  1  1  0  0  0  0
  8  9  2  0  0  0  0
 10 11  1  0  0  0  0
 10  8  1  0  0  0  0
 11 16  1  0  0  0  0
 12 17  1  0  0  0  0
 12 11  2  0  0  0  0
 13 12  1  0  0  0  0
 14 13  2  0  0  0  0
 14 15  1  0  0  0  0
 15 10  2  0  0  0  0
 18 14  1  0  0  0  0
 19 20  2  0  0  0  0
 19  4  1  0  0  0  0
 21 24  1  6  0  0  0
 21 22  1  0  0  0  0
 21 19  1  0  0  0  0
 22 25  1  0  0  0  0
 23 27  1  1  0  0  0
 23 21  1  0  0  0  0
 23 22  1  0  0  0  0
 26 22  1  0  0  0  0
 28 35  1  6  0  0  0
 28 23  1  0  0  0  0
 29 28  1  0  0  0  0
 30 29  1  0  0  0  0
 31 29  1  0  0  0  0
 32 31  1  0  0  0  0
 33 34  1  0  0  0  0
 33 31  1  0  0  0  0
 34 35  1  0  0  0  0
M  END
>  <minimizedAffinity>
-4.82975721

>  <minimizedRMSD>
0.178666994

$$$$
