
 OpenBabel03272507123D

 39 43  0  0  0  0  0  0  0  0999 V2000
   35.9190   29.1500   49.7970 C   0  0  0  0  0  0  0  0  0  0  0  0
   34.8860   29.7100   50.4940 C   0  0  0  0  0  0  0  0  0  0  0  0
   33.7140   29.1480   49.9870 C   0  0  0  0  0  0  0  0  0  0  0  0
   34.1200   28.2580   48.9860 C   0  0  0  0  0  0  0  0  0  0  0  0
   35.4200   28.3120   48.9330 O   0  0  0  0  0  0  0  0  0  0  0  0
   34.9370   30.4490   51.2910 H   0  0  0  0  0  0  0  0  0  0  0  0
   32.7420   29.4160   50.3630 H   0  0  0  0  0  0  0  0  0  0  0  0
   33.5670   26.5180   47.2910 C   0  0  0  0  0  0  0  0  0  0  0  0
   33.1690   27.4680   48.2130 C   0  0  0  0  0  0  0  0  0  0  0  0
   31.8210   27.7160   48.4560 C   0  0  0  0  0  0  0  0  0  0  0  0
   30.8900   26.9820   47.7440 C   0  0  0  0  0  0  0  0  0  0  0  0
   29.5600   27.0150   47.7800 N   0  0  0  0  0  0  0  0  0  0  0  0
   29.1160   26.1090   46.9050 N   0  0  0  0  0  0  0  0  0  0  0  0
   30.1600   25.5130   46.3250 C   0  0  0  0  0  0  0  0  0  0  0  0
   31.3430   26.0390   46.8300 C   0  0  0  0  0  0  0  0  0  0  0  0
   32.6810   25.7860   46.5820 C   0  0  0  0  0  0  0  0  0  0  0  0
   34.6520   26.4020   47.1760 H   0  0  0  0  0  0  0  0  0  0  0  0
   31.4430   28.4500   49.1670 H   0  0  0  0  0  0  0  0  0  0  0  0
   28.9270   27.6140   48.3620 H   0  0  0  0  0  0  0  0  0  0  0  0
   30.1510   24.7300   45.5680 H   0  0  0  0  0  0  0  0  0  0  0  0
   32.9850   25.0430   45.8600 H   0  0  0  0  0  0  0  0  0  0  0  0
   37.3030   29.5060   50.0640 C   0  0  0  0  0  0  0  0  0  0  0  0
   37.9550   28.8270   50.8980 O   0  0  0  0  0  0  0  0  0  0  0  0
   37.8480   30.6300   49.3450 C   0  0  0  0  0  0  0  0  0  0  0  0
   38.1390   31.7740   50.0750 C   0  0  0  0  0  0  0  0  0  0  0  0
   38.6660   32.8890   49.4280 C   0  0  0  0  0  0  0  0  0  0  0  0
   38.8640   32.7740   48.0910 N   0  0  0  0  0  0  0  0  0  0  0  0
   38.5810   31.6710   47.4000 C   0  0  0  0  0  0  0  0  0  0  0  0
   38.0760   30.6110   48.0340 N   0  0  0  0  0  0  0  0  0  0  0  0
   37.9670   31.8240   51.1300 H   0  0  0  0  0  0  0  0  0  0  0  0
   38.8850   33.7620   50.0020 H   0  0  0  0  0  0  0  0  0  0  0  0
   38.8100   31.5990   45.9780 N   0  0  0  0  0  0  0  0  0  0  0  0
   37.8980   32.2950   45.0620 C   0  0  0  0  0  0  0  0  0  0  0  0
   36.9010   31.7930   45.0510 H   0  0  0  0  0  0  0  0  0  0  0  0
   38.4710   32.2050   43.6910 C   0  0  0  0  0  0  0  0  0  0  0  0
   38.1050   31.2850   43.1740 H   0  0  0  0  0  0  0  0  0  0  0  0
   39.8300   32.3420   43.6070 O   0  0  0  0  0  0  0  0  0  0  0  0
   40.5540   31.3810   44.2580 C   0  0  0  0  0  0  0  0  0  0  0  0
   39.9510   30.8310   45.5060 C   0  0  0  0  0  0  0  0  0  0  0  0
  1 22  1  0  0  0  0
  1  2  2  0  0  0  0
  2  6  1  0  0  0  0
  3  7  1  0  0  0  0
  3  2  1  0  0  0  0
  4  3  2  0  0  0  0
  5  4  1  0  0  0  0
  5  1  1  0  0  0  0
  8  9  1  0  0  0  0
  9 10  2  0  0  0  0
  9  4  1  0  0  0  0
 10 18  1  0  0  0  0
 11 12  1  0  0  0  0
 11 10  1  0  0  0  0
 12 19  1  0  0  0  0
 13 12  1  0  0  0  0
 14 15  1  0  0  0  0
 14 13  2  0  0  0  0
 15 11  2  0  0  0  0
 16 15  1  0  0  0  0
 16  8  2  0  0  0  0
 17  8  1  0  0  0  0
 20 14  1  0  0  0  0
 21 16  1  0  0  0  0
 22 23  2  0  0  0  0
 24 22  1  0  0  0  0
 24 25  1  0  0  0  0
 25 30  1  0  0  0  0
 26 31  1  0  0  0  0
 26 25  2  0  0  0  0
 27 26  1  0  0  0  0
 28 29  1  0  0  0  0
 28 27  2  0  0  0  0
 29 24  2  0  0  0  0
 32 28  1  0  0  0  0
 33 32  1  0  0  0  0
 34 33  1  0  0  0  0
 35 33  1  0  0  0  0
 36 35  1  0  0  0  0
 37 35  1  0  0  0  0
 37 38  1  0  0  0  0
 38 39  1  0  0  0  0
 39 32  1  0  0  0  0
M  END
>  <minimizedAffinity>
-7.36032963

>  <minimizedRMSD>
0.346365601

$$$$
