
 OpenBabel03272507323D

 35 38  0  0  1  0  0  0  0  0999 V2000
   35.8960   29.2070   49.8350 C   0  0  0  0  0  0  0  0  0  0  0  0
   34.9400   29.6870   50.7010 C   0  0  0  0  0  0  0  0  0  0  0  0
   33.6980   29.1990   50.2670 C   0  0  0  0  0  0  0  0  0  0  0  0
   33.9890   28.4450   49.1520 C   0  0  0  0  0  0  0  0  0  0  0  0
   35.2810   28.4770   48.9340 O   0  0  0  0  0  0  0  0  0  0  0  0
   35.0200   30.3250   51.5800 H   0  0  0  0  0  0  0  0  0  0  0  0
   32.7330   29.4000   50.7420 H   0  0  0  0  0  0  0  0  0  0  0  0
   37.3060   29.5190   49.9900 C   0  0  0  0  0  0  0  0  0  0  0  0
   37.9820   28.8760   50.8090 O   0  0  0  0  0  0  0  0  0  0  0  0
   37.8360   30.5700   49.1690 C   0  0  0  0  0  0  0  0  0  0  0  0
   38.1780   31.7530   49.8060 C   0  0  0  0  0  0  0  0  0  0  0  0
   38.6960   32.8010   49.0370 C   0  0  0  0  0  0  0  0  0  0  0  0
   38.8380   32.5960   47.6850 N   0  0  0  0  0  0  0  0  0  0  0  0
   38.4980   31.4430   47.1050 C   0  0  0  0  0  0  0  0  0  0  0  0
   38.0000   30.4330   47.8350 N   0  0  0  0  0  0  0  0  0  0  0  0
   38.0910   31.9730   50.8570 H   0  0  0  0  0  0  0  0  0  0  0  0
   38.9760   33.7450   49.4980 H   0  0  0  0  0  0  0  0  0  0  0  0
   38.6390   31.3550   46.0260 H   0  0  0  0  0  0  0  0  0  0  0  0
   33.0060   27.7200   48.3370 C   0  0  0  0  0  0  0  0  0  0  0  0
   31.7960   27.6800   48.7410 O   0  0  0  0  0  0  0  0  0  0  0  0
   33.4370   27.0430   47.0670 C   0  0  1  0  0  0  0  0  0  0  0  0
   33.7530   25.5340   47.3300 C   0  0  0  0  0  0  0  0  0  0  0  0
   32.6090   25.9800   46.4940 C   0  0  2  0  0  0  0  0  0  0  0  0
   34.3700   27.4740   46.6580 H   0  0  0  0  0  0  0  0  0  0  0  0
   33.5630   25.1440   48.3440 H   0  0  0  0  0  0  0  0  0  0  0  0
   34.6310   25.0870   46.8630 H   0  0  0  0  0  0  0  0  0  0  0  0
   31.6180   25.8760   46.9880 H   0  0  0  0  0  0  0  0  0  0  0  0
   32.5360   25.7650   45.0930 N   0  0  1  0  0  0  0  0  0  0  0  0
   32.5020   24.4170   44.6370 C   0  0  0  0  0  3  0  0  0  0  0  0
   31.4260   24.1180   44.4630 H   0  0  0  0  0  0  0  0  0  0  0  0
   33.1310   24.4140   43.2550 C   0  0  0  0  0  3  0  0  0  0  0  0
   33.0440   23.4310   42.7510 H   0  0  0  0  0  0  0  0  0  0  0  0
   32.6580   25.4830   42.5210 O   0  0  0  0  0  0  0  0  0  0  0  0
   31.4700   26.0020   42.9860 C   0  0  0  0  0  2  0  0  0  0  0  0
   31.5710   26.5500   44.3960 C   0  0  0  0  0  2  0  0  0  0  0  0
  1  8  1  0  0  0  0
  1  2  2  0  0  0  0
  2  6  1  0  0  0  0
  3  2  1  0  0  0  0
  3  7  1  0  0  0  0
  4  3  2  0  0  0  0
  5  4  1  0  0  0  0
  5  1  1  0  0  0  0
  8  9  2  0  0  0  0
 10 11  1  0  0  0  0
 10  8  1  0  0  0  0
 11 16  1  0  0  0  0
 12 17  1  0  0  0  0
 12 11  2  0  0  0  0
 13 12  1  0  0  0  0
 14 13  2  0  0  0  0
 14 15  1  0  0  0  0
 15 10  2  0  0  0  0
 18 14  1  0  0  0  0
 19 20  2  0  0  0  0
 19  4  1  0  0  0  0
 21 24  1  6  0  0  0
 21 22  1  0  0  0  0
 21 19  1  0  0  0  0
 22 25  1  0  0  0  0
 23 27  1  1  0  0  0
 23 21  1  0  0  0  0
 23 22  1  0  0  0  0
 26 22  1  0  0  0  0
 28 35  1  1  0  0  0
 28 23  1  0  0  0  0
 29 28  1  0  0  0  0
 30 29  1  0  0  0  0
 31 29  1  0  0  0  0
 32 31  1  0  0  0  0
 33 34  1  0  0  0  0
 33 31  1  0  0  0  0
 34 35  1  0  0  0  0
M  END
>  <minimizedAffinity>
-4.83327341

>  <minimizedRMSD>
0.336073995

$$$$
