
 OpenBabel03272507153D

 39 43  0  0  0  0  0  0  0  0999 V2000
   36.9600   27.5450   32.3710 C   0  0  0  0  0  0  0  0  0  0  0  0
   36.3790   28.2610   31.3630 C   0  0  0  0  0  0  0  0  0  0  0  0
   35.5290   29.1850   31.9710 C   0  0  0  0  0  0  0  0  0  0  0  0
   35.6500   28.9670   33.3480 C   0  0  0  0  0  0  0  0  0  0  0  0
   36.5020   27.9950   33.5060 O   0  0  0  0  0  0  0  0  0  0  0  0
   36.5310   28.1530   30.2900 H   0  0  0  0  0  0  0  0  0  0  0  0
   34.9430   29.8840   31.3990 H   0  0  0  0  0  0  0  0  0  0  0  0
   33.5630   29.5450   34.5780 C   0  0  0  0  0  0  0  0  0  0  0  0
   34.9070   29.7490   34.3290 C   0  0  0  0  0  0  0  0  0  0  0  0
   35.6290   30.7200   35.0170 C   0  0  0  0  0  0  0  0  0  0  0  0
   34.9580   31.4780   35.9600 C   0  0  0  0  0  0  0  0  0  0  0  0
   35.3980   32.4560   36.7480 N   0  0  0  0  0  0  0  0  0  0  0  0
   34.3640   32.8690   37.4840 N   0  0  0  0  0  0  0  0  0  0  0  0
   33.2840   32.1550   37.1600 C   0  0  0  0  0  0  0  0  0  0  0  0
   33.6070   31.2330   36.1710 C   0  0  0  0  0  0  0  0  0  0  0  0
   32.8810   30.2700   35.4930 C   0  0  0  0  0  0  0  0  0  0  0  0
   33.0890   28.7560   33.9820 H   0  0  0  0  0  0  0  0  0  0  0  0
   36.6880   30.9300   34.8670 H   0  0  0  0  0  0  0  0  0  0  0  0
   36.3600   32.8660   36.8220 H   0  0  0  0  0  0  0  0  0  0  0  0
   32.2770   32.2350   37.5700 H   0  0  0  0  0  0  0  0  0  0  0  0
   31.8320   30.1160   35.6910 H   0  0  0  0  0  0  0  0  0  0  0  0
   37.9150   26.4810   32.1040 C   0  0  0  0  0  0  0  0  0  0  0  0
   37.8120   25.8300   31.0320 O   0  0  0  0  0  0  0  0  0  0  0  0
   38.9310   26.2390   33.0960 C   0  0  0  0  0  0  0  0  0  0  0  0
   39.9760   27.1490   33.1740 C   0  0  0  0  0  0  0  0  0  0  0  0
   40.9850   26.9610   34.1150 C   0  0  0  0  0  0  0  0  0  0  0  0
   40.8710   25.8700   34.9120 N   0  0  0  0  0  0  0  0  0  0  0  0
   39.8630   25.0030   34.8290 C   0  0  0  0  0  0  0  0  0  0  0  0
   38.9050   25.1960   33.9220 N   0  0  0  0  0  0  0  0  0  0  0  0
   40.0290   27.9980   32.5240 H   0  0  0  0  0  0  0  0  0  0  0  0
   41.7830   27.6680   34.1640 H   0  0  0  0  0  0  0  0  0  0  0  0
   39.7880   23.8560   35.7010 N   0  0  0  0  0  0  0  0  0  0  0  0
   40.6720   22.7090   35.4660 C   0  0  0  0  0  3  0  0  0  0  0  0
   40.3740   22.1730   34.5340 H   0  0  0  0  0  0  0  0  0  0  0  0
   40.5110   21.7660   36.6070 C   0  0  0  0  0  3  0  0  0  0  0  0
   39.6940   21.0340   36.3970 H   0  0  0  0  0  0  0  0  0  0  0  0
   40.3840   22.3460   37.8410 O   0  0  0  0  0  0  0  0  0  0  0  0
   39.2830   23.1430   38.0000 C   0  0  0  0  0  2  0  0  0  0  0  0
   38.8260   23.8880   36.7920 C   0  0  0  0  0  2  0  0  0  0  0  0
  1  5  1  0  0  0  0
  2  3  1  0  0  0  0
  2  1  2  0  0  0  0
  3  4  2  0  0  0  0
  4  5  1  0  0  0  0
  4  9  1  0  0  0  0
  6  2  1  0  0  0  0
  7  3  1  0  0  0  0
  8 16  1  0  0  0  0
  9  8  2  0  0  0  0
  9 10  1  0  0  0  0
 10 11  2  0  0  0  0
 11 15  1  0  0  0  0
 11 12  1  0  0  0  0
 12 19  1  0  0  0  0
 12 13  1  0  0  0  0
 14 13  2  0  0  0  0
 14 20  1  0  0  0  0
 15 14  1  0  0  0  0
 16 21  1  0  0  0  0
 16 15  2  0  0  0  0
 17  8  1  0  0  0  0
 18 10  1  0  0  0  0
 22  1  1  0  0  0  0
 22 24  1  0  0  0  0
 23 22  2  0  0  0  0
 24 25  2  0  0  0  0
 24 29  1  0  0  0  0
 25 26  1  0  0  0  0
 26 31  1  0  0  0  0
 26 27  2  0  0  0  0
 28 27  1  0  0  0  0
 28 32  1  0  0  0  0
 29 28  2  0  0  0  0
 30 25  1  0  0  0  0
 32 39  1  0  0  0  0
 33 32  1  0  0  0  0
 33 35  1  0  0  0  0
 34 33  1  0  0  0  0
 35 37  1  0  0  0  0
 36 35  1  0  0  0  0
 37 38  1  0  0  0  0
 39 38  1  0  0  0  0
M  END
>  <minimizedAffinity>
-6.86702633

$$$$

 OpenBabel03272507153D

 39 43  0  0  0  0  0  0  0  0999 V2000
   37.1660   27.7930   32.3490 C   0  0  0  0  0  0  0  0  0  0  0  0
   36.4500   28.3800   31.3450 C   0  0  0  0  0  0  0  0  0  0  0  0
   35.5130   29.2120   31.9590 C   0  0  0  0  0  0  0  0  0  0  0  0
   35.7250   29.0740   33.3360 C   0  0  0  0  0  0  0  0  0  0  0  0
   36.7050   28.2310   33.4870 O   0  0  0  0  0  0  0  0  0  0  0  0
   36.5650   28.2460   30.2710 H   0  0  0  0  0  0  0  0  0  0  0  0
   34.8130   29.8020   31.3920 H   0  0  0  0  0  0  0  0  0  0  0  0
   33.5870   29.5440   34.5230 C   0  0  0  0  0  0  0  0  0  0  0  0
   34.9300   29.7960   34.3230 C   0  0  0  0  0  0  0  0  0  0  0  0
   35.6020   30.7600   35.0680 C   0  0  0  0  0  0  0  0  0  0  0  0
   34.8810   31.4610   36.0180 C   0  0  0  0  0  0  0  0  0  0  0  0
   35.2680   32.4200   36.8560 N   0  0  0  0  0  0  0  0  0  0  0  0
   34.2010   32.7740   37.5760 N   0  0  0  0  0  0  0  0  0  0  0  0
   33.1530   32.0420   37.1920 C   0  0  0  0  0  0  0  0  0  0  0  0
   33.5330   31.1690   36.1800 C   0  0  0  0  0  0  0  0  0  0  0  0
   32.8570   30.2120   35.4430 C   0  0  0  0  0  0  0  0  0  0  0  0
   33.1540   28.7650   33.8830 H   0  0  0  0  0  0  0  0  0  0  0  0
   36.6580   31.0060   34.9580 H   0  0  0  0  0  0  0  0  0  0  0  0
   36.2150   32.8550   36.9750 H   0  0  0  0  0  0  0  0  0  0  0  0
   32.1330   32.0770   37.5740 H   0  0  0  0  0  0  0  0  0  0  0  0
   31.8070   30.0200   35.6040 H   0  0  0  0  0  0  0  0  0  0  0  0
   38.2410   26.8530   32.0740 C   0  0  0  0  0  0  0  0  0  0  0  0
   39.1890   27.2160   31.3310 O   0  0  0  0  0  0  0  0  0  0  0  0
   38.1500   25.5480   32.6780 C   0  0  0  0  0  0  0  0  0  0  0  0
   37.4490   24.5720   31.9840 C   0  0  0  0  0  0  0  0  0  0  0  0
   37.3300   23.2940   32.5240 C   0  0  0  0  0  0  0  0  0  0  0  0
   37.9250   23.0880   33.7250 N   0  0  0  0  0  0  0  0  0  0  0  0
   38.5960   24.0330   34.3830 C   0  0  0  0  0  0  0  0  0  0  0  0
   38.7000   25.2520   33.8520 N   0  0  0  0  0  0  0  0  0  0  0  0
   36.9920   24.7750   31.0380 H   0  0  0  0  0  0  0  0  0  0  0  0
   36.7880   22.5520   31.9800 H   0  0  0  0  0  0  0  0  0  0  0  0
   39.2120   23.7630   35.6590 N   0  0  0  0  0  0  0  0  0  0  0  0
   38.3730   23.6540   36.8590 C   0  0  0  0  0  3  0  0  0  0  0  0
   37.9550   24.6510   37.1320 H   0  0  0  0  0  0  0  0  0  0  0  0
   39.2380   23.1960   37.9800 C   0  0  0  0  0  3  0  0  0  0  0  0
   39.6850   24.0710   38.5120 H   0  0  0  0  0  0  0  0  0  0  0  0
   40.1740   22.2500   37.6590 O   0  0  0  0  0  0  0  0  0  0  0  0
   41.1140   22.6470   36.7470 C   0  0  0  0  0  2  0  0  0  0  0  0
   40.6570   23.6080   35.7030 C   0  0  0  0  0  2  0  0  0  0  0  0
  1  5  1  0  0  0  0
  2  3  1  0  0  0  0
  2  1  2  0  0  0  0
  3  4  2  0  0  0  0
  4  5  1  0  0  0  0
  4  9  1  0  0  0  0
  6  2  1  0  0  0  0
  7  3  1  0  0  0  0
  8 16  1  0  0  0  0
  9  8  2  0  0  0  0
  9 10  1  0  0  0  0
 10 11  2  0  0  0  0
 11 15  1  0  0  0  0
 11 12  1  0  0  0  0
 12 19  1  0  0  0  0
 12 13  1  0  0  0  0
 14 20  1  0  0  0  0
 14 13  2  0  0  0  0
 15 14  1  0  0  0  0
 16 21  1  0  0  0  0
 16 15  2  0  0  0  0
 17  8  1  0  0  0  0
 18 10  1  0  0  0  0
 22  1  1  0  0  0  0
 22 24  1  0  0  0  0
 23 22  2  0  0  0  0
 24 29  1  0  0  0  0
 25 26  1  0  0  0  0
 25 24  2  0  0  0  0
 26 27  2  0  0  0  0
 27 28  1  0  0  0  0
 28 32  1  0  0  0  0
 29 28  2  0  0  0  0
 30 25  1  0  0  0  0
 31 26  1  0  0  0  0
 32 39  1  0  0  0  0
 32 33  1  0  0  0  0
 33 34  1  0  0  0  0
 33 35  1  0  0  0  0
 35 36  1  0  0  0  0
 37 35  1  0  0  0  0
 38 37  1  0  0  0  0
 39 38  1  0  0  0  0
M  END
>  <minimizedAffinity>
-6.72993803

$$$$

 OpenBabel03272507153D

 39 43  0  0  0  0  0  0  0  0999 V2000
   38.4650   26.3770   33.6000 C   0  0  0  0  0  0  0  0  0  0  0  0
   38.7310   27.1350   34.7060 C   0  0  0  0  0  0  0  0  0  0  0  0
   39.6360   26.4060   35.4780 C   0  0  0  0  0  0  0  0  0  0  0  0
   39.8690   25.2190   34.7740 C   0  0  0  0  0  0  0  0  0  0  0  0
   39.1520   25.2730   33.6890 O   0  0  0  0  0  0  0  0  0  0  0  0
   38.3320   28.1150   34.9600 H   0  0  0  0  0  0  0  0  0  0  0  0
   40.0180   26.7770   36.4140 H   0  0  0  0  0  0  0  0  0  0  0  0
   42.0490   24.0130   34.7670 C   0  0  0  0  0  0  0  0  0  0  0  0
   40.7720   24.1840   35.2670 C   0  0  0  0  0  0  0  0  0  0  0  0
   40.2800   23.3710   36.2830 C   0  0  0  0  0  0  0  0  0  0  0  0
   41.1110   22.3820   36.7790 C   0  0  0  0  0  0  0  0  0  0  0  0
   40.8990   21.4810   37.7340 N   0  0  0  0  0  0  0  0  0  0  0  0
   42.0110   20.7510   37.8460 N   0  0  0  0  0  0  0  0  0  0  0  0
   42.9130   21.1910   36.9670 C   0  0  0  0  0  0  0  0  0  0  0  0
   42.3850   22.2530   36.2410 C   0  0  0  0  0  0  0  0  0  0  0  0
   42.8830   23.0570   35.2310 C   0  0  0  0  0  0  0  0  0  0  0  0
   42.3370   24.7070   33.9670 H   0  0  0  0  0  0  0  0  0  0  0  0
   39.2850   23.4550   36.7190 H   0  0  0  0  0  0  0  0  0  0  0  0
   40.0450   21.3260   38.3220 H   0  0  0  0  0  0  0  0  0  0  0  0
   43.9220   20.8180   36.7960 H   0  0  0  0  0  0  0  0  0  0  0  0
   43.8810   22.9180   34.8450 H   0  0  0  0  0  0  0  0  0  0  0  0
   37.5510   26.8300   32.5650 C   0  0  0  0  0  0  0  0  0  0  0  0
   37.5740   28.0410   32.2220 O   0  0  0  0  0  0  0  0  0  0  0  0
   36.6650   25.8510   31.9890 C   0  0  0  0  0  0  0  0  0  0  0  0
   35.5770   26.3210   31.2660 C   0  0  0  0  0  0  0  0  0  0  0  0
   34.6900   25.4160   30.6900 C   0  0  0  0  0  0  0  0  0  0  0  0
   34.9590   24.1010   30.8810 N   0  0  0  0  0  0  0  0  0  0  0  0
   36.0070   23.6600   31.5760 C   0  0  0  0  0  0  0  0  0  0  0  0
   36.8470   24.5400   32.1230 N   0  0  0  0  0  0  0  0  0  0  0  0
   35.3990   27.3690   31.1390 H   0  0  0  0  0  0  0  0  0  0  0  0
   33.8570   25.7920   30.1370 H   0  0  0  0  0  0  0  0  0  0  0  0
   36.2490   22.2490   31.7500 N   0  0  0  0  0  0  0  0  0  0  0  0
   35.4210   21.4830   32.6890 C   0  0  0  0  0  3  0  0  0  0  0  0
   35.6520   21.7780   33.7400 H   0  0  0  0  0  0  0  0  0  0  0  0
   35.7650   20.0430   32.5310 C   0  0  0  0  0  3  0  0  0  0  0  0
   36.6000   19.7630   33.2180 H   0  0  0  0  0  0  0  0  0  0  0  0
   35.9860   19.6240   31.2470 O   0  0  0  0  0  0  0  0  0  0  0  0
   37.0440   20.2180   30.6140 C   0  0  0  0  0  2  0  0  0  0  0  0
   37.3190   21.6380   30.9770 C   0  0  0  0  0  2  0  0  0  0  0  0
  1  5  1  0  0  0  0
  1  2  2  0  0  0  0
  2  6  1  0  0  0  0
  2  3  1  0  0  0  0
  3  7  1  0  0  0  0
  4  9  1  0  0  0  0
  4  3  2  0  0  0  0
  5  4  1  0  0  0  0
  8 16  2  0  0  0  0
  8  9  1  0  0  0  0
  9 10  2  0  0  0  0
 10 18  1  0  0  0  0
 10 11  1  0  0  0  0
 11 12  1  0  0  0  0
 12 13  1  0  0  0  0
 12 19  1  0  0  0  0
 14 13  2  0  0  0  0
 15 11  2  0  0  0  0
 15 14  1  0  0  0  0
 16 15  1  0  0  0  0
 17  8  1  0  0  0  0
 20 14  1  0  0  0  0
 21 16  1  0  0  0  0
 22  1  1  0  0  0  0
 23 22  2  0  0  0  0
 24 29  1  0  0  0  0
 24 22  1  0  0  0  0
 25 24  2  0  0  0  0
 26 27  2  0  0  0  0
 26 25  1  0  0  0  0
 27 28  1  0  0  0  0
 28 32  1  0  0  0  0
 28 29  2  0  0  0  0
 30 25  1  0  0  0  0
 31 26  1  0  0  0  0
 32 33  1  0  0  0  0
 33 34  1  0  0  0  0
 35 33  1  0  0  0  0
 35 36  1  0  0  0  0
 37 35  1  0  0  0  0
 38 39  1  0  0  0  0
 38 37  1  0  0  0  0
 39 32  1  0  0  0  0
M  END
>  <minimizedAffinity>
-6.58790684

$$$$

 OpenBabel03272507153D

 39 43  0  0  0  0  0  0  0  0999 V2000
   35.7570   26.9960   31.2500 C   0  0  0  0  0  0  0  0  0  0  0  0
   36.6560   27.5980   30.4160 C   0  0  0  0  0  0  0  0  0  0  0  0
   36.8370   28.8950   30.8970 C   0  0  0  0  0  0  0  0  0  0  0  0
   36.0150   29.0020   32.0240 C   0  0  0  0  0  0  0  0  0  0  0  0
   35.4160   27.8550   32.1690 O   0  0  0  0  0  0  0  0  0  0  0  0
   37.1490   27.1740   29.5430 H   0  0  0  0  0  0  0  0  0  0  0  0
   37.5030   29.5940   30.4200 H   0  0  0  0  0  0  0  0  0  0  0  0
   36.0950   31.4810   32.2570 C   0  0  0  0  0  0  0  0  0  0  0  0
   35.9290   30.2270   32.8120 C   0  0  0  0  0  0  0  0  0  0  0  0
   35.6610   30.0680   34.1680 C   0  0  0  0  0  0  0  0  0  0  0  0
   35.5670   31.2080   34.9470 C   0  0  0  0  0  0  0  0  0  0  0  0
   35.3230   31.3430   36.2480 N   0  0  0  0  0  0  0  0  0  0  0  0
   35.3310   32.6490   36.5210 N   0  0  0  0  0  0  0  0  0  0  0  0
   35.5790   33.3290   35.3990 C   0  0  0  0  0  0  0  0  0  0  0  0
   35.7420   32.4450   34.3390 C   0  0  0  0  0  0  0  0  0  0  0  0
   36.0090   32.6120   32.9920 C   0  0  0  0  0  0  0  0  0  0  0  0
   36.3020   31.4940   31.1800 H   0  0  0  0  0  0  0  0  0  0  0  0
   35.5210   29.1090   34.6660 H   0  0  0  0  0  0  0  0  0  0  0  0
   35.1490   30.6030   36.9700 H   0  0  0  0  0  0  0  0  0  0  0  0
   35.6530   34.4080   35.2700 H   0  0  0  0  0  0  0  0  0  0  0  0
   36.1380   33.5940   32.5640 H   0  0  0  0  0  0  0  0  0  0  0  0
   35.3280   25.6210   31.0490 C   0  0  0  0  0  0  0  0  0  0  0  0
   34.3180   25.4000   30.3320 O   0  0  0  0  0  0  0  0  0  0  0  0
   36.0970   24.5870   31.6930 C   0  0  0  0  0  0  0  0  0  0  0  0
   37.0910   24.9870   32.5750 C   0  0  0  0  0  0  0  0  0  0  0  0
   37.8640   24.0260   33.2230 C   0  0  0  0  0  0  0  0  0  0  0  0
   37.5820   22.7310   32.9380 N   0  0  0  0  0  0  0  0  0  0  0  0
   36.6250   22.3580   32.0890 C   0  0  0  0  0  0  0  0  0  0  0  0
   35.8940   23.2900   31.4760 N   0  0  0  0  0  0  0  0  0  0  0  0
   37.2820   26.0210   32.7730 H   0  0  0  0  0  0  0  0  0  0  0  0
   38.6250   24.3480   33.9000 H   0  0  0  0  0  0  0  0  0  0  0  0
   36.3650   20.9660   31.8200 N   0  0  0  0  0  0  0  0  0  0  0  0
   37.2880   20.2090   30.9660 C   0  0  0  0  0  3  0  0  0  0  0  0
   37.2120   20.5550   29.9080 H   0  0  0  0  0  0  0  0  0  0  0  0
   36.8820   18.7770   31.0100 C   0  0  0  0  0  3  0  0  0  0  0  0
   36.1390   18.5570   30.2050 H   0  0  0  0  0  0  0  0  0  0  0  0
   36.4760   18.3140   32.2330 O   0  0  0  0  0  0  0  0  0  0  0  0
   35.3610   18.9200   32.7450 C   0  0  0  0  0  2  0  0  0  0  0  0
   35.1820   20.3630   32.4140 C   0  0  0  0  0  2  0  0  0  0  0  0
  1  5  1  0  0  0  0
  2  3  1  0  0  0  0
  2  1  2  0  0  0  0
  3  4  2  0  0  0  0
  4  5  1  0  0  0  0
  4  9  1  0  0  0  0
  6  2  1  0  0  0  0
  7  3  1  0  0  0  0
  8  9  2  0  0  0  0
  8 16  1  0  0  0  0
  9 10  1  0  0  0  0
 10 18  1  0  0  0  0
 10 11  2  0  0  0  0
 11 12  1  0  0  0  0
 12 13  1  0  0  0  0
 12 19  1  0  0  0  0
 14 13  2  0  0  0  0
 15 11  1  0  0  0  0
 15 14  1  0  0  0  0
 16 15  2  0  0  0  0
 17  8  1  0  0  0  0
 20 14  1  0  0  0  0
 21 16  1  0  0  0  0
 22  1  1  0  0  0  0
 22 24  1  0  0  0  0
 23 22  2  0  0  0  0
 24 25  1  0  0  0  0
 25 30  1  0  0  0  0
 25 26  2  0  0  0  0
 26 31  1  0  0  0  0
 27 26  1  0  0  0  0
 28 27  2  0  0  0  0
 29 24  2  0  0  0  0
 29 28  1  0  0  0  0
 32 28  1  0  0  0  0
 32 39  1  0  0  0  0
 33 35  1  0  0  0  0
 33 32  1  0  0  0  0
 34 33  1  0  0  0  0
 35 37  1  0  0  0  0
 36 35  1  0  0  0  0
 37 38  1  0  0  0  0
 39 38  1  0  0  0  0
M  END
>  <minimizedAffinity>
-6.46494055

$$$$

 OpenBabel03272507153D

 39 43  0  0  0  0  0  0  0  0999 V2000
   36.7240   28.0200   32.1350 C   0  0  0  0  0  0  0  0  0  0  0  0
   36.2230   28.6330   31.0210 C   0  0  0  0  0  0  0  0  0  0  0  0
   35.6360   29.8220   31.4520 C   0  0  0  0  0  0  0  0  0  0  0  0
   35.8210   29.8590   32.8390 C   0  0  0  0  0  0  0  0  0  0  0  0
   36.4640   28.7740   33.1650 O   0  0  0  0  0  0  0  0  0  0  0  0
   36.2610   28.2850   29.9900 H   0  0  0  0  0  0  0  0  0  0  0  0
   35.1620   30.5060   30.7690 H   0  0  0  0  0  0  0  0  0  0  0  0
   34.7510   32.0900   33.1200 C   0  0  0  0  0  0  0  0  0  0  0  0
   35.3390   30.9630   33.6610 C   0  0  0  0  0  0  0  0  0  0  0  0
   35.4960   30.8200   35.0360 C   0  0  0  0  0  0  0  0  0  0  0  0
   35.0450   31.8460   35.8480 C   0  0  0  0  0  0  0  0  0  0  0  0
   35.0690   31.9670   37.1730 N   0  0  0  0  0  0  0  0  0  0  0  0
   34.5100   33.1410   37.4750 N   0  0  0  0  0  0  0  0  0  0  0  0
   34.1390   33.7510   36.3480 C   0  0  0  0  0  0  0  0  0  0  0  0
   34.4610   32.9570   35.2540 C   0  0  0  0  0  0  0  0  0  0  0  0
   34.3000   33.1070   33.8880 C   0  0  0  0  0  0  0  0  0  0  0  0
   34.6750   32.1020   32.0260 H   0  0  0  0  0  0  0  0  0  0  0  0
   35.9510   29.9590   35.5240 H   0  0  0  0  0  0  0  0  0  0  0  0
   35.4410   31.3020   37.8930 H   0  0  0  0  0  0  0  0  0  0  0  0
   33.6540   34.7210   36.2370 H   0  0  0  0  0  0  0  0  0  0  0  0
   33.8410   33.9900   33.4710 H   0  0  0  0  0  0  0  0  0  0  0  0
   37.4120   26.7420   32.0610 C   0  0  0  0  0  0  0  0  0  0  0  0
   37.0950   25.9330   31.1510 O   0  0  0  0  0  0  0  0  0  0  0  0
   38.4290   26.4790   33.0480 C   0  0  0  0  0  0  0  0  0  0  0  0
   39.5450   27.3040   33.0480 C   0  0  0  0  0  0  0  0  0  0  0  0
   40.5570   27.0930   33.9810 C   0  0  0  0  0  0  0  0  0  0  0  0
   40.3740   26.0670   34.8490 N   0  0  0  0  0  0  0  0  0  0  0  0
   39.2980   25.2820   34.8400 C   0  0  0  0  0  0  0  0  0  0  0  0
   38.3380   25.4960   33.9400 N   0  0  0  0  0  0  0  0  0  0  0  0
   39.6520   28.1030   32.3450 H   0  0  0  0  0  0  0  0  0  0  0  0
   41.4110   27.7340   33.9700 H   0  0  0  0  0  0  0  0  0  0  0  0
   39.1510   24.2030   35.7860 N   0  0  0  0  0  0  0  0  0  0  0  0
   39.9350   22.9740   35.6090 C   0  0  0  0  0  3  0  0  0  0  0  0
   39.5730   22.4070   34.7180 H   0  0  0  0  0  0  0  0  0  0  0  0
   39.7250   22.1210   36.8110 C   0  0  0  0  0  3  0  0  0  0  0  0
   38.8470   21.4470   36.6630 H   0  0  0  0  0  0  0  0  0  0  0  0
   39.6730   22.7860   38.0070 O   0  0  0  0  0  0  0  0  0  0  0  0
   38.6440   23.6780   38.1340 C   0  0  0  0  0  2  0  0  0  0  0  0
   38.2210   24.3810   36.8890 C   0  0  0  0  0  2  0  0  0  0  0  0
  1  5  1  0  0  0  0
  2  3  1  0  0  0  0
  2  1  2  0  0  0  0
  3  4  2  0  0  0  0
  4  5  1  0  0  0  0
  4  9  1  0  0  0  0
  6  2  1  0  0  0  0
  7  3  1  0  0  0  0
  8  9  2  0  0  0  0
  8 16  1  0  0  0  0
  9 10  1  0  0  0  0
 10 18  1  0  0  0  0
 10 11  2  0  0  0  0
 11 12  1  0  0  0  0
 12 13  1  0  0  0  0
 12 19  1  0  0  0  0
 14 13  2  0  0  0  0
 15 11  1  0  0  0  0
 15 14  1  0  0  0  0
 16 15  2  0  0  0  0
 17  8  1  0  0  0  0
 20 14  1  0  0  0  0
 21 16  1  0  0  0  0
 22  1  1  0  0  0  0
 22 24  1  0  0  0  0
 23 22  2  0  0  0  0
 24 29  1  0  0  0  0
 25 24  2  0  0  0  0
 25 26  1  0  0  0  0
 26 27  2  0  0  0  0
 28 27  1  0  0  0  0
 28 32  1  0  0  0  0
 29 28  2  0  0  0  0
 30 25  1  0  0  0  0
 31 26  1  0  0  0  0
 32 39  1  0  0  0  0
 33 32  1  0  0  0  0
 33 35  1  0  0  0  0
 34 33  1  0  0  0  0
 35 37  1  0  0  0  0
 36 35  1  0  0  0  0
 37 38  1  0  0  0  0
 39 38  1  0  0  0  0
M  END
>  <minimizedAffinity>
-6.41044044

$$$$

 OpenBabel03272507153D

 39 43  0  0  0  0  0  0  0  0999 V2000
   37.0990   27.6260   32.7900 C   0  0  0  0  0  0  0  0  0  0  0  0
   36.2620   27.9660   31.7650 C   0  0  0  0  0  0  0  0  0  0  0  0
   35.3050   28.8270   32.3020 C   0  0  0  0  0  0  0  0  0  0  0  0
   35.6280   28.9590   33.6570 C   0  0  0  0  0  0  0  0  0  0  0  0
   36.6860   28.2300   33.8690 O   0  0  0  0  0  0  0  0  0  0  0  0
   36.3100   27.6460   30.7250 H   0  0  0  0  0  0  0  0  0  0  0  0
   34.5170   29.2510   31.7030 H   0  0  0  0  0  0  0  0  0  0  0  0
   33.4920   29.6110   34.7590 C   0  0  0  0  0  0  0  0  0  0  0  0
   34.8480   29.7900   34.5670 C   0  0  0  0  0  0  0  0  0  0  0  0
   35.5480   30.7830   35.2470 C   0  0  0  0  0  0  0  0  0  0  0  0
   34.8420   31.5870   36.1230 C   0  0  0  0  0  0  0  0  0  0  0  0
   35.2540   32.5930   36.8890 N   0  0  0  0  0  0  0  0  0  0  0  0
   34.1910   33.0480   37.5570 N   0  0  0  0  0  0  0  0  0  0  0  0
   33.1200   32.3320   37.2110 C   0  0  0  0  0  0  0  0  0  0  0  0
   33.4790   31.3650   36.2790 C   0  0  0  0  0  0  0  0  0  0  0  0
   32.7750   30.3810   35.6080 C   0  0  0  0  0  0  0  0  0  0  0  0
   33.0370   28.8020   34.1740 H   0  0  0  0  0  0  0  0  0  0  0  0
   36.6150   30.9750   35.1400 H   0  0  0  0  0  0  0  0  0  0  0  0
   36.2170   32.9970   36.9930 H   0  0  0  0  0  0  0  0  0  0  0  0
   32.0960   32.4390   37.5680 H   0  0  0  0  0  0  0  0  0  0  0  0
   31.7160   30.2460   35.7620 H   0  0  0  0  0  0  0  0  0  0  0  0
   38.2280   26.7310   32.5920 C   0  0  0  0  0  0  0  0  0  0  0  0
   39.2370   27.1560   31.9730 O   0  0  0  0  0  0  0  0  0  0  0  0
   38.1160   25.3970   33.1250 C   0  0  0  0  0  0  0  0  0  0  0  0
   38.5940   25.1820   34.4100 C   0  0  0  0  0  0  0  0  0  0  0  0
   38.5110   23.9100   34.9710 C   0  0  0  0  0  0  0  0  0  0  0  0
   37.9520   22.9440   34.2000 N   0  0  0  0  0  0  0  0  0  0  0  0
   37.4960   23.1630   32.9680 C   0  0  0  0  0  0  0  0  0  0  0  0
   37.5830   24.3860   32.4440 N   0  0  0  0  0  0  0  0  0  0  0  0
   39.0290   25.9720   34.9860 H   0  0  0  0  0  0  0  0  0  0  0  0
   38.8830   23.7580   35.9610 H   0  0  0  0  0  0  0  0  0  0  0  0
   36.9100   22.1010   32.1880 N   0  0  0  0  0  0  0  0  0  0  0  0
   37.7770   21.0800   31.5860 C   0  0  0  0  0  3  0  0  0  0  0  0
   38.3800   21.5230   30.7580 H   0  0  0  0  0  0  0  0  0  0  0  0
   36.9050   20.0240   31.0040 C   0  0  0  0  0  3  0  0  0  0  0  0
   36.6490   20.2680   29.9450 H   0  0  0  0  0  0  0  0  0  0  0  0
   35.7990   19.6960   31.7420 O   0  0  0  0  0  0  0  0  0  0  0  0
   34.8990   20.7100   31.9260 C   0  0  0  0  0  2  0  0  0  0  0  0
   35.4640   22.0860   32.0290 C   0  0  0  0  0  2  0  0  0  0  0  0
  1  5  1  0  0  0  0
  2  3  1  0  0  0  0
  2  1  2  0  0  0  0
  3  4  2  0  0  0  0
  4  5  1  0  0  0  0
  4  9  1  0  0  0  0
  6  2  1  0  0  0  0
  7  3  1  0  0  0  0
  8 16  1  0  0  0  0
  9  8  2  0  0  0  0
  9 10  1  0  0  0  0
 10 11  2  0  0  0  0
 11 15  1  0  0  0  0
 11 12  1  0  0  0  0
 12 19  1  0  0  0  0
 12 13  1  0  0  0  0
 14 13  2  0  0  0  0
 14 20  1  0  0  0  0
 15 14  1  0  0  0  0
 16 21  1  0  0  0  0
 16 15  2  0  0  0  0
 17  8  1  0  0  0  0
 18 10  1  0  0  0  0
 22  1  1  0  0  0  0
 22 24  1  0  0  0  0
 23 22  2  0  0  0  0
 24 25  1  0  0  0  0
 25 26  2  0  0  0  0
 25 30  1  0  0  0  0
 26 31  1  0  0  0  0
 27 26  1  0  0  0  0
 28 27  2  0  0  0  0
 29 28  1  0  0  0  0
 29 24  2  0  0  0  0
 32 28  1  0  0  0  0
 33 32  1  0  0  0  0
 34 33  1  0  0  0  0
 35 33  1  0  0  0  0
 35 37  1  0  0  0  0
 36 35  1  0  0  0  0
 37 38  1  0  0  0  0
 38 39  1  0  0  0  0
 39 32  1  0  0  0  0
M  END
>  <minimizedAffinity>
-6.40999842

$$$$

 OpenBabel03272507153D

 39 43  0  0  0  0  0  0  0  0999 V2000
   37.0760   26.9580   32.8250 C   0  0  0  0  0  0  0  0  0  0  0  0
   38.3620   27.3760   32.6310 C   0  0  0  0  0  0  0  0  0  0  0  0
   39.1530   26.6550   33.5260 C   0  0  0  0  0  0  0  0  0  0  0  0
   38.2740   25.8220   34.2270 C   0  0  0  0  0  0  0  0  0  0  0  0
   37.0790   26.0530   33.7630 O   0  0  0  0  0  0  0  0  0  0  0  0
   38.7260   28.1210   31.9260 H   0  0  0  0  0  0  0  0  0  0  0  0
   40.2200   26.7900   33.5830 H   0  0  0  0  0  0  0  0  0  0  0  0
   38.0010   24.6590   36.4120 C   0  0  0  0  0  0  0  0  0  0  0  0
   38.7300   24.9030   35.2640 C   0  0  0  0  0  0  0  0  0  0  0  0
   39.9490   24.2730   35.0350 C   0  0  0  0  0  0  0  0  0  0  0  0
   40.4110   23.3910   35.9950 C   0  0  0  0  0  0  0  0  0  0  0  0
   41.5250   22.6630   36.0300 N   0  0  0  0  0  0  0  0  0  0  0  0
   41.5110   21.9690   37.1700 N   0  0  0  0  0  0  0  0  0  0  0  0
   40.3980   22.2590   37.8450 C   0  0  0  0  0  0  0  0  0  0  0  0
   39.6400   23.1800   37.1320 C   0  0  0  0  0  0  0  0  0  0  0  0
   38.4270   23.8030   37.3680 C   0  0  0  0  0  0  0  0  0  0  0  0
   37.0550   25.2080   36.4950 H   0  0  0  0  0  0  0  0  0  0  0  0
   40.5700   24.4230   34.1530 H   0  0  0  0  0  0  0  0  0  0  0  0
   42.3000   22.6040   35.3260 H   0  0  0  0  0  0  0  0  0  0  0  0
   40.0750   21.8670   38.8090 H   0  0  0  0  0  0  0  0  0  0  0  0
   37.8630   23.6080   38.2670 H   0  0  0  0  0  0  0  0  0  0  0  0
   35.9700   27.5020   32.0540 C   0  0  0  0  0  0  0  0  0  0  0  0
   35.4240   26.7770   31.1810 O   0  0  0  0  0  0  0  0  0  0  0  0
   35.5640   28.8540   32.3420 C   0  0  0  0  0  0  0  0  0  0  0  0
   35.5240   29.7470   31.2800 C   0  0  0  0  0  0  0  0  0  0  0  0
   35.1400   31.0670   31.5040 C   0  0  0  0  0  0  0  0  0  0  0  0
   34.8220   31.3950   32.7810 N   0  0  0  0  0  0  0  0  0  0  0  0
   34.8640   30.5290   33.7930 C   0  0  0  0  0  0  0  0  0  0  0  0
   35.2350   29.2690   33.5620 N   0  0  0  0  0  0  0  0  0  0  0  0
   35.7830   29.4480   30.2850 H   0  0  0  0  0  0  0  0  0  0  0  0
   35.1130   31.7440   30.6790 H   0  0  0  0  0  0  0  0  0  0  0  0
   34.5170   30.9280   35.1350 N   0  0  0  0  0  0  0  0  0  0  0  0
   35.4570   31.7420   35.9140 C   0  0  0  0  0  3  0  0  0  0  0  0
   36.3540   31.1390   36.1930 H   0  0  0  0  0  0  0  0  0  0  0  0
   34.7730   32.1550   37.1700 C   0  0  0  0  0  3  0  0  0  0  0  0
   34.9410   31.3970   37.9730 H   0  0  0  0  0  0  0  0  0  0  0  0
   33.4520   32.4910   37.0420 O   0  0  0  0  0  0  0  0  0  0  0  0
   32.6320   31.4830   36.6140 C   0  0  0  0  0  2  0  0  0  0  0  0
   33.2320   30.5010   35.6650 C   0  0  0  0  0  2  0  0  0  0  0  0
  1  5  1  0  0  0  0
  2  1  2  0  0  0  0
  2  3  1  0  0  0  0
  3  7  1  0  0  0  0
  3  4  2  0  0  0  0
  4  9  1  0  0  0  0
  5  4  1  0  0  0  0
  6  2  1  0  0  0  0
  8 17  1  0  0  0  0
  8 16  1  0  0  0  0
  9  8  2  0  0  0  0
 10  9  1  0  0  0  0
 10 11  2  0  0  0  0
 11 12  1  0  0  0  0
 11 15  1  0  0  0  0
 12 13  1  0  0  0  0
 13 14  2  0  0  0  0
 14 20  1  0  0  0  0
 15 16  2  0  0  0  0
 15 14  1  0  0  0  0
 16 21  1  0  0  0  0
 18 10  1  0  0  0  0
 19 12  1  0  0  0  0
 22 24  1  0  0  0  0
 22  1  1  0  0  0  0
 23 22  2  0  0  0  0
 24 29  1  0  0  0  0
 25 26  1  0  0  0  0
 25 24  2  0  0  0  0
 26 27  2  0  0  0  0
 27 28  1  0  0  0  0
 28 32  1  0  0  0  0
 29 28  2  0  0  0  0
 30 25  1  0  0  0  0
 31 26  1  0  0  0  0
 32 39  1  0  0  0  0
 32 33  1  0  0  0  0
 33 34  1  0  0  0  0
 33 35  1  0  0  0  0
 35 36  1  0  0  0  0
 37 35  1  0  0  0  0
 38 37  1  0  0  0  0
 39 38  1  0  0  0  0
M  END
>  <minimizedAffinity>
-6.39285135

$$$$

 OpenBabel03272507153D

 39 43  0  0  0  0  0  0  0  0999 V2000
   35.9090   26.9190   31.3570 C   0  0  0  0  0  0  0  0  0  0  0  0
   36.9440   27.4730   30.6590 C   0  0  0  0  0  0  0  0  0  0  0  0
   37.0930   28.7750   31.1370 C   0  0  0  0  0  0  0  0  0  0  0  0
   36.1110   28.9350   32.1220 C   0  0  0  0  0  0  0  0  0  0  0  0
   35.4600   27.8100   32.1950 O   0  0  0  0  0  0  0  0  0  0  0  0
   37.5500   27.0140   29.8800 H   0  0  0  0  0  0  0  0  0  0  0  0
   37.8470   29.4420   30.7540 H   0  0  0  0  0  0  0  0  0  0  0  0
   35.9670   31.4180   32.2500 C   0  0  0  0  0  0  0  0  0  0  0  0
   35.9470   30.1800   32.8640 C   0  0  0  0  0  0  0  0  0  0  0  0
   35.7600   30.0580   34.2370 C   0  0  0  0  0  0  0  0  0  0  0  0
   35.5940   31.2180   34.9730 C   0  0  0  0  0  0  0  0  0  0  0  0
   35.4000   31.3880   36.2780 N   0  0  0  0  0  0  0  0  0  0  0  0
   35.2970   32.7000   36.4980 N   0  0  0  0  0  0  0  0  0  0  0  0
   35.4260   33.3490   35.3380 C   0  0  0  0  0  0  0  0  0  0  0  0
   35.6230   32.4370   34.3070 C   0  0  0  0  0  0  0  0  0  0  0  0
   35.8080   32.5680   32.9430 C   0  0  0  0  0  0  0  0  0  0  0  0
   36.1210   31.4020   31.1650 H   0  0  0  0  0  0  0  0  0  0  0  0
   35.7350   29.1130   34.7790 H   0  0  0  0  0  0  0  0  0  0  0  0
   35.3310   30.6680   37.0370 H   0  0  0  0  0  0  0  0  0  0  0  0
   35.3920   34.4230   35.1620 H   0  0  0  0  0  0  0  0  0  0  0  0
   35.8230   33.5380   32.4700 H   0  0  0  0  0  0  0  0  0  0  0  0
   35.4700   25.5530   31.1190 C   0  0  0  0  0  0  0  0  0  0  0  0
   34.4270   25.3610   30.4410 O   0  0  0  0  0  0  0  0  0  0  0  0
   36.2670   24.4940   31.6820 C   0  0  0  0  0  0  0  0  0  0  0  0
   36.2250   23.2590   31.0500 C   0  0  0  0  0  0  0  0  0  0  0  0
   36.9770   22.2010   31.5550 C   0  0  0  0  0  0  0  0  0  0  0  0
   37.7190   22.4600   32.6600 N   0  0  0  0  0  0  0  0  0  0  0  0
   37.7520   23.6490   33.2590 C   0  0  0  0  0  0  0  0  0  0  0  0
   37.0260   24.6530   32.7630 N   0  0  0  0  0  0  0  0  0  0  0  0
   35.6250   23.0950   30.1790 H   0  0  0  0  0  0  0  0  0  0  0  0
   36.9350   21.2560   31.0590 H   0  0  0  0  0  0  0  0  0  0  0  0
   38.5580   23.8740   34.4330 N   0  0  0  0  0  0  0  0  0  0  0  0
   38.1170   23.3390   35.7270 C   0  0  0  0  0  3  0  0  0  0  0  0
   37.2170   23.8910   36.0880 H   0  0  0  0  0  0  0  0  0  0  0  0
   39.2140   23.5580   36.7100 C   0  0  0  0  0  3  0  0  0  0  0  0
   39.0990   24.5500   37.2100 H   0  0  0  0  0  0  0  0  0  0  0  0
   40.4830   23.3600   36.2350 O   0  0  0  0  0  0  0  0  0  0  0  0
   40.8640   24.1990   35.2230 C   0  0  0  0  0  2  0  0  0  0  0  0
   39.7910   24.6310   34.2830 C   0  0  0  0  0  2  0  0  0  0  0  0
  1  5  1  0  0  0  0
  2  3  1  0  0  0  0
  2  1  2  0  0  0  0
  3  4  2  0  0  0  0
  4  5  1  0  0  0  0
  4  9  1  0  0  0  0
  6  2  1  0  0  0  0
  7  3  1  0  0  0  0
  8  9  2  0  0  0  0
  8 16  1  0  0  0  0
  9 10  1  0  0  0  0
 10 18  1  0  0  0  0
 10 11  2  0  0  0  0
 11 12  1  0  0  0  0
 12 13  1  0  0  0  0
 12 19  1  0  0  0  0
 14 13  2  0  0  0  0
 15 11  1  0  0  0  0
 15 14  1  0  0  0  0
 16 15  2  0  0  0  0
 17  8  1  0  0  0  0
 20 14  1  0  0  0  0
 21 16  1  0  0  0  0
 22  1  1  0  0  0  0
 22 24  1  0  0  0  0
 23 22  2  0  0  0  0
 24 29  1  0  0  0  0
 25 26  1  0  0  0  0
 25 24  2  0  0  0  0
 26 27  2  0  0  0  0
 27 28  1  0  0  0  0
 28 32  1  0  0  0  0
 29 28  2  0  0  0  0
 30 25  1  0  0  0  0
 31 26  1  0  0  0  0
 32 33  1  0  0  0  0
 33 34  1  0  0  0  0
 33 35  1  0  0  0  0
 35 36  1  0  0  0  0
 37 35  1  0  0  0  0
 38 37  1  0  0  0  0
 39 32  1  0  0  0  0
 39 38  1  0  0  0  0
M  END
>  <minimizedAffinity>
-6.37727356

$$$$

 OpenBabel03272507153D

 39 43  0  0  0  0  0  0  0  0999 V2000
   37.2300   26.7570   33.5150 C   0  0  0  0  0  0  0  0  0  0  0  0
   37.3190   27.5970   34.5890 C   0  0  0  0  0  0  0  0  0  0  0  0
   37.9700   26.8850   35.5980 C   0  0  0  0  0  0  0  0  0  0  0  0
   38.2420   25.6230   35.0580 C   0  0  0  0  0  0  0  0  0  0  0  0
   37.7820   25.6220   33.8400 O   0  0  0  0  0  0  0  0  0  0  0  0
   36.9630   28.6230   34.6700 H   0  0  0  0  0  0  0  0  0  0  0  0
   38.1730   27.3170   36.5630 H   0  0  0  0  0  0  0  0  0  0  0  0
   38.4490   24.1140   37.0290 C   0  0  0  0  0  0  0  0  0  0  0  0
   38.9230   24.5800   35.8180 C   0  0  0  0  0  0  0  0  0  0  0  0
   40.0870   24.0680   35.2530 C   0  0  0  0  0  0  0  0  0  0  0  0
   40.7580   23.0740   35.9440 C   0  0  0  0  0  0  0  0  0  0  0  0
   41.8740   22.4180   35.6380 N   0  0  0  0  0  0  0  0  0  0  0  0
   42.1100   21.5520   36.6270 N   0  0  0  0  0  0  0  0  0  0  0  0
   41.1490   21.6640   37.5450 C   0  0  0  0  0  0  0  0  0  0  0  0
   40.2380   22.6410   37.1570 C   0  0  0  0  0  0  0  0  0  0  0  0
   39.0820   23.1440   37.7260 C   0  0  0  0  0  0  0  0  0  0  0  0
   37.5240   24.5850   37.3850 H   0  0  0  0  0  0  0  0  0  0  0  0
   40.5130   24.3930   34.3050 H   0  0  0  0  0  0  0  0  0  0  0  0
   42.4920   22.5170   34.7970 H   0  0  0  0  0  0  0  0  0  0  0  0
   41.0390   21.1070   38.4750 H   0  0  0  0  0  0  0  0  0  0  0  0
   38.7160   22.7760   38.6730 H   0  0  0  0  0  0  0  0  0  0  0  0
   36.6030   27.1710   32.2700 C   0  0  0  0  0  0  0  0  0  0  0  0
   36.6940   26.4180   31.2660 O   0  0  0  0  0  0  0  0  0  0  0  0
   35.9090   28.4330   32.2670 C   0  0  0  0  0  0  0  0  0  0  0  0
   36.4810   29.4730   31.5460 C   0  0  0  0  0  0  0  0  0  0  0  0
   35.8510   30.7140   31.5110 C   0  0  0  0  0  0  0  0  0  0  0  0
   34.6890   30.8220   32.2020 N   0  0  0  0  0  0  0  0  0  0  0  0
   34.1490   29.8180   32.8900 C   0  0  0  0  0  0  0  0  0  0  0  0
   34.7650   28.6350   32.9150 N   0  0  0  0  0  0  0  0  0  0  0  0
   37.4010   29.3470   31.0140 H   0  0  0  0  0  0  0  0  0  0  0  0
   36.3020   31.5060   30.9530 H   0  0  0  0  0  0  0  0  0  0  0  0
   32.9110   29.9840   33.6100 N   0  0  0  0  0  0  0  0  0  0  0  0
   32.9020   30.7310   34.8740 C   0  0  0  0  0  3  0  0  0  0  0  0
   33.4310   30.1540   35.6690 H   0  0  0  0  0  0  0  0  0  0  0  0
   31.4850   30.9010   35.2950 C   0  0  0  0  0  3  0  0  0  0  0  0
   31.1610   30.0430   35.9330 H   0  0  0  0  0  0  0  0  0  0  0  0
   30.5950   31.1640   34.2890 O   0  0  0  0  0  0  0  0  0  0  0  0
   30.4740   30.1800   33.3460 C   0  0  0  0  0  2  0  0  0  0  0  0
   31.7060   29.3970   33.0450 C   0  0  0  0  0  2  0  0  0  0  0  0
  1  5  1  0  0  0  0
  1  2  2  0  0  0  0
  2  6  1  0  0  0  0
  2  3  1  0  0  0  0
  3  7  1  0  0  0  0
  4  3  2  0  0  0  0
  4  9  1  0  0  0  0
  5  4  1  0  0  0  0
  8 17  1  0  0  0  0
  8 16  1  0  0  0  0
  9  8  2  0  0  0  0
 10  9  1  0  0  0  0
 10 11  2  0  0  0  0
 11 15  1  0  0  0  0
 12 11  1  0  0  0  0
 12 13  1  0  0  0  0
 13 14  2  0  0  0  0
 14 20  1  0  0  0  0
 15 14  1  0  0  0  0
 15 16  2  0  0  0  0
 16 21  1  0  0  0  0
 18 10  1  0  0  0  0
 19 12  1  0  0  0  0
 22  1  1  0  0  0  0
 23 22  2  0  0  0  0
 24 22  1  0  0  0  0
 24 29  1  0  0  0  0
 25 24  2  0  0  0  0
 26 25  1  0  0  0  0
 26 27  2  0  0  0  0
 27 28  1  0  0  0  0
 28 29  2  0  0  0  0
 28 32  1  0  0  0  0
 30 25  1  0  0  0  0
 31 26  1  0  0  0  0
 32 33  1  0  0  0  0
 33 35  1  0  0  0  0
 33 34  1  0  0  0  0
 35 36  1  0  0  0  0
 37 35  1  0  0  0  0
 38 37  1  0  0  0  0
 39 38  1  0  0  0  0
 39 32  1  0  0  0  0
M  END
>  <minimizedAffinity>
-6.30696297

$$$$
