
 OpenBabel03272507323D

 35 38  0  0  1  0  0  0  0  0999 V2000
   35.8380   29.1430   49.8080 C   0  0  0  0  0  0  0  0  0  0  0  0
   34.8160   29.6510   50.5780 C   0  0  0  0  0  0  0  0  0  0  0  0
   33.6170   29.1040   50.0970 C   0  0  0  0  0  0  0  0  0  0  0  0
   33.9970   28.2900   49.0530 C   0  0  0  0  0  0  0  0  0  0  0  0
   35.3010   28.3420   48.9180 O   0  0  0  0  0  0  0  0  0  0  0  0
   34.8230   30.3450   51.4180 H   0  0  0  0  0  0  0  0  0  0  0  0
   32.6180   29.3080   50.4940 H   0  0  0  0  0  0  0  0  0  0  0  0
   37.2270   29.5020   50.0340 C   0  0  0  0  0  0  0  0  0  0  0  0
   37.8710   28.9070   50.9130 O   0  0  0  0  0  0  0  0  0  0  0  0
   37.7750   30.5410   49.2090 C   0  0  0  0  0  0  0  0  0  0  0  0
   38.1240   31.7250   49.8400 C   0  0  0  0  0  0  0  0  0  0  0  0
   38.6600   32.7620   49.0670 C   0  0  0  0  0  0  0  0  0  0  0  0
   38.8110   32.5440   47.7180 N   0  0  0  0  0  0  0  0  0  0  0  0
   38.4630   31.3900   47.1450 C   0  0  0  0  0  0  0  0  0  0  0  0
   37.9490   30.3920   47.8780 N   0  0  0  0  0  0  0  0  0  0  0  0
   38.0300   31.9550   50.8880 H   0  0  0  0  0  0  0  0  0  0  0  0
   38.9460   33.7060   49.5230 H   0  0  0  0  0  0  0  0  0  0  0  0
   38.6130   31.2920   46.0670 H   0  0  0  0  0  0  0  0  0  0  0  0
   33.0880   27.4890   48.2250 C   0  0  0  0  0  0  0  0  0  0  0  0
   31.8570   27.4310   48.5600 O   0  0  0  0  0  0  0  0  0  0  0  0
   33.6140   26.7590   47.0230 C   0  0  1  0  0  0  0  0  0  0  0  0
   33.7680   25.2330   47.3310 C   0  0  0  0  0  0  0  0  0  0  0  0
   32.7780   25.7580   46.3570 C   0  0  2  0  0  0  0  0  0  0  0  0
   34.6240   27.1050   46.7300 H   0  0  0  0  0  0  0  0  0  0  0  0
   33.4220   24.8760   48.3160 H   0  0  0  0  0  0  0  0  0  0  0  0
   34.6560   24.7080   46.9800 H   0  0  0  0  0  0  0  0  0  0  0  0
   31.7270   25.7440   46.7240 H   0  0  0  0  0  0  0  0  0  0  0  0
   32.8600   25.5280   44.9580 N   0  0  1  0  0  0  0  0  0  0  0  0
   31.7040   25.8030   44.1780 C   0  0  0  0  0  3  0  0  0  0  0  0
   31.7980   26.8380   43.7350 H   0  0  0  0  0  0  0  0  0  0  0  0
   31.7560   24.8680   42.9840 C   0  0  0  0  0  3  0  0  0  0  0  0
   30.9630   25.0820   42.2410 H   0  0  0  0  0  0  0  0  0  0  0  0
   33.0370   24.8350   42.4690 O   0  0  0  0  0  0  0  0  0  0  0  0
   33.8120   25.9190   42.8200 C   0  0  0  0  0  2  0  0  0  0  0  0
   34.0270   26.0380   44.3170 C   0  0  0  0  0  2  0  0  0  0  0  0
  1  8  1  0  0  0  0
  1  2  2  0  0  0  0
  2  6  1  0  0  0  0
  3  7  1  0  0  0  0
  3  2  1  0  0  0  0
  4  3  2  0  0  0  0
  5  4  1  0  0  0  0
  5  1  1  0  0  0  0
  8  9  2  0  0  0  0
 10 11  1  0  0  0  0
 10  8  1  0  0  0  0
 11 16  1  0  0  0  0
 12 17  1  0  0  0  0
 12 11  2  0  0  0  0
 13 12  1  0  0  0  0
 14 13  2  0  0  0  0
 14 15  1  0  0  0  0
 15 10  2  0  0  0  0
 18 14  1  0  0  0  0
 19 20  2  0  0  0  0
 19  4  1  0  0  0  0
 21 24  1  6  0  0  0
 21 22  1  0  0  0  0
 21 19  1  0  0  0  0
 22 25  1  0  0  0  0
 23 27  1  1  0  0  0
 23 21  1  0  0  0  0
 23 22  1  0  0  0  0
 26 22  1  0  0  0  0
 28 35  1  6  0  0  0
 28 23  1  0  0  0  0
 29 28  1  0  0  0  0
 30 29  1  0  0  0  0
 31 29  1  0  0  0  0
 32 31  1  0  0  0  0
 33 34  1  0  0  0  0
 33 31  1  0  0  0  0
 34 35  1  0  0  0  0
M  END
>  <minimizedAffinity>
-4.84864712

>  <minimizedRMSD>
0.197221398

$$$$
