
 OpenBabel03272507323D

 35 38  0  0  1  0  0  0  0  0999 V2000
   35.8290   29.1550   49.8150 C   0  0  0  0  0  0  0  0  0  0  0  0
   34.8440   29.6770   50.6220 C   0  0  0  0  0  0  0  0  0  0  0  0
   33.6180   29.1650   50.1730 C   0  0  0  0  0  0  0  0  0  0  0  0
   33.9470   28.3550   49.1080 C   0  0  0  0  0  0  0  0  0  0  0  0
   35.2460   28.3780   48.9330 O   0  0  0  0  0  0  0  0  0  0  0  0
   34.8940   30.3600   51.4700 H   0  0  0  0  0  0  0  0  0  0  0  0
   32.6380   29.3870   50.6030 H   0  0  0  0  0  0  0  0  0  0  0  0
   37.2330   29.4770   50.0010 C   0  0  0  0  0  0  0  0  0  0  0  0
   37.8940   28.8460   50.8410 O   0  0  0  0  0  0  0  0  0  0  0  0
   37.7760   30.5270   49.1860 C   0  0  0  0  0  0  0  0  0  0  0  0
   38.1270   31.7040   49.8270 C   0  0  0  0  0  0  0  0  0  0  0  0
   38.6580   32.7500   49.0640 C   0  0  0  0  0  0  0  0  0  0  0  0
   38.8010   32.5480   47.7120 N   0  0  0  0  0  0  0  0  0  0  0  0
   38.4510   31.4000   47.1270 C   0  0  0  0  0  0  0  0  0  0  0  0
   37.9420   30.3930   47.8520 N   0  0  0  0  0  0  0  0  0  0  0  0
   38.0400   31.9210   50.8790 H   0  0  0  0  0  0  0  0  0  0  0  0
   38.9460   33.6890   49.5290 H   0  0  0  0  0  0  0  0  0  0  0  0
   38.5940   31.3140   46.0480 H   0  0  0  0  0  0  0  0  0  0  0  0
   32.9920   27.5860   48.2990 C   0  0  0  0  0  0  0  0  0  0  0  0
   31.7800   27.5210   48.6930 O   0  0  0  0  0  0  0  0  0  0  0  0
   33.4550   26.8950   47.0480 C   0  0  1  0  0  0  0  0  0  0  0  0
   33.7710   25.3910   47.3370 C   0  0  0  0  0  0  0  0  0  0  0  0
   32.6450   25.8220   46.4700 C   0  0  2  0  0  0  0  0  0  0  0  0
   34.3950   27.3260   46.6550 H   0  0  0  0  0  0  0  0  0  0  0  0
   33.5600   25.0120   48.3520 H   0  0  0  0  0  0  0  0  0  0  0  0
   34.6610   24.9430   46.8950 H   0  0  0  0  0  0  0  0  0  0  0  0
   31.6430   25.7190   46.9430 H   0  0  0  0  0  0  0  0  0  0  0  0
   32.6040   25.5890   45.0700 N   0  0  1  0  0  0  0  0  0  0  0  0
   32.1470   24.3160   44.6290 C   0  0  0  0  0  3  0  0  0  0  0  0
   31.0490   24.3900   44.3710 H   0  0  0  0  0  0  0  0  0  0  0  0
   32.8350   24.0450   43.3040 C   0  0  0  0  0  3  0  0  0  0  0  0
   32.4560   23.1300   42.8070 H   0  0  0  0  0  0  0  0  0  0  0  0
   32.8090   25.1810   42.5210 O   0  0  0  0  0  0  0  0  0  0  0  0
   31.8380   26.0910   42.8810 C   0  0  0  0  0  2  0  0  0  0  0  0
   32.0170   26.6260   44.2880 C   0  0  0  0  0  2  0  0  0  0  0  0
  1  8  1  0  0  0  0
  1  2  2  0  0  0  0
  2  6  1  0  0  0  0
  3  7  1  0  0  0  0
  3  2  1  0  0  0  0
  4  3  2  0  0  0  0
  5  4  1  0  0  0  0
  5  1  1  0  0  0  0
  8  9  2  0  0  0  0
 10 11  1  0  0  0  0
 10  8  1  0  0  0  0
 11 16  1  0  0  0  0
 12 17  1  0  0  0  0
 12 11  2  0  0  0  0
 13 12  1  0  0  0  0
 14 13  2  0  0  0  0
 14 15  1  0  0  0  0
 15 10  2  0  0  0  0
 18 14  1  0  0  0  0
 19 20  2  0  0  0  0
 19  4  1  0  0  0  0
 21 24  1  6  0  0  0
 21 22  1  0  0  0  0
 21 19  1  0  0  0  0
 22 25  1  0  0  0  0
 23 27  1  1  0  0  0
 23 21  1  0  0  0  0
 23 22  1  0  0  0  0
 26 22  1  0  0  0  0
 28 35  1  6  0  0  0
 28 23  1  0  0  0  0
 29 28  1  0  0  0  0
 30 29  1  0  0  0  0
 31 29  1  0  0  0  0
 32 31  1  0  0  0  0
 33 34  1  0  0  0  0
 33 31  1  0  0  0  0
 34 35  1  0  0  0  0
M  END
>  <minimizedAffinity>
-4.8329463

>  <minimizedRMSD>
0.185226321

$$$$
