
 OpenBabel03272507323D

 35 38  0  0  1  0  0  0  0  0999 V2000
   35.8380   29.1440   49.8090 C   0  0  0  0  0  0  0  0  0  0  0  0
   34.8160   29.6460   50.5820 C   0  0  0  0  0  0  0  0  0  0  0  0
   33.6170   29.1000   50.0990 C   0  0  0  0  0  0  0  0  0  0  0  0
   33.9980   28.2920   49.0500 C   0  0  0  0  0  0  0  0  0  0  0  0
   35.3020   28.3460   48.9140 O   0  0  0  0  0  0  0  0  0  0  0  0
   34.8230   30.3350   51.4260 H   0  0  0  0  0  0  0  0  0  0  0  0
   32.6190   29.3010   50.4970 H   0  0  0  0  0  0  0  0  0  0  0  0
   37.2270   29.5020   50.0360 C   0  0  0  0  0  0  0  0  0  0  0  0
   37.8710   28.9070   50.9140 O   0  0  0  0  0  0  0  0  0  0  0  0
   37.7760   30.5420   49.2120 C   0  0  0  0  0  0  0  0  0  0  0  0
   38.1220   31.7270   49.8430 C   0  0  0  0  0  0  0  0  0  0  0  0
   38.6580   32.7640   49.0720 C   0  0  0  0  0  0  0  0  0  0  0  0
   38.8110   32.5470   47.7230 N   0  0  0  0  0  0  0  0  0  0  0  0
   38.4660   31.3930   47.1490 C   0  0  0  0  0  0  0  0  0  0  0  0
   37.9520   30.3930   47.8810 N   0  0  0  0  0  0  0  0  0  0  0  0
   38.0270   31.9560   50.8920 H   0  0  0  0  0  0  0  0  0  0  0  0
   38.9430   33.7090   49.5280 H   0  0  0  0  0  0  0  0  0  0  0  0
   38.6170   31.2950   46.0710 H   0  0  0  0  0  0  0  0  0  0  0  0
   33.0890   27.4940   48.2180 C   0  0  0  0  0  0  0  0  0  0  0  0
   31.8570   27.4410   48.5480 O   0  0  0  0  0  0  0  0  0  0  0  0
   33.6180   26.7630   47.0180 C   0  0  1  0  0  0  0  0  0  0  0  0
   33.7900   25.2410   47.3350 C   0  0  0  0  0  0  0  0  0  0  0  0
   32.7890   25.7490   46.3620 C   0  0  2  0  0  0  0  0  0  0  0  0
   34.6220   27.1180   46.7190 H   0  0  0  0  0  0  0  0  0  0  0  0
   33.4520   24.8860   48.3240 H   0  0  0  0  0  0  0  0  0  0  0  0
   34.6820   24.7240   46.9820 H   0  0  0  0  0  0  0  0  0  0  0  0
   31.7410   25.7250   46.7350 H   0  0  0  0  0  0  0  0  0  0  0  0
   32.8680   25.5110   44.9650 N   0  0  1  0  0  0  0  0  0  0  0  0
   32.2410   26.4510   44.1010 C   0  0  0  0  0  3  0  0  0  0  0  0
   33.0150   27.1910   43.7410 H   0  0  0  0  0  0  0  0  0  0  0  0
   31.8300   25.6870   42.8560 C   0  0  0  0  0  3  0  0  0  0  0  0
   31.4410   26.3500   42.0590 H   0  0  0  0  0  0  0  0  0  0  0  0
   32.8540   24.8490   42.4610 O   0  0  0  0  0  0  0  0  0  0  0  0
   34.0910   25.2020   42.9550 C   0  0  0  0  0  2  0  0  0  0  0  0
   34.1600   25.1660   44.4690 C   0  0  0  0  0  2  0  0  0  0  0  0
  1  8  1  0  0  0  0
  1  2  2  0  0  0  0
  2  6  1  0  0  0  0
  3  7  1  0  0  0  0
  3  2  1  0  0  0  0
  4  3  2  0  0  0  0
  5  4  1  0  0  0  0
  5  1  1  0  0  0  0
  8  9  2  0  0  0  0
 10 11  1  0  0  0  0
 10  8  1  0  0  0  0
 11 16  1  0  0  0  0
 12 17  1  0  0  0  0
 12 11  2  0  0  0  0
 13 12  1  0  0  0  0
 14 13  2  0  0  0  0
 14 15  1  0  0  0  0
 15 10  2  0  0  0  0
 18 14  1  0  0  0  0
 19 20  2  0  0  0  0
 19  4  1  0  0  0  0
 21 24  1  6  0  0  0
 21 22  1  0  0  0  0
 21 19  1  0  0  0  0
 22 25  1  0  0  0  0
 23 27  1  1  0  0  0
 23 21  1  0  0  0  0
 23 22  1  0  0  0  0
 26 22  1  0  0  0  0
 28 35  1  6  0  0  0
 28 23  1  0  0  0  0
 29 28  1  0  0  0  0
 30 29  1  0  0  0  0
 31 29  1  0  0  0  0
 32 31  1  0  0  0  0
 33 31  1  0  0  0  0
 33 34  1  0  0  0  0
 34 35  1  0  0  0  0
M  END
>  <minimizedAffinity>
-4.84670591

>  <minimizedRMSD>
0.0789071247

$$$$
