
 OpenBabel03272507323D

 35 38  0  0  1  0  0  0  0  0999 V2000
   35.8340   29.1520   49.8120 C   0  0  0  0  0  0  0  0  0  0  0  0
   34.8330   29.6630   50.6060 C   0  0  0  0  0  0  0  0  0  0  0  0
   33.6190   29.1370   50.1410 C   0  0  0  0  0  0  0  0  0  0  0  0
   33.9700   28.3300   49.0810 C   0  0  0  0  0  0  0  0  0  0  0  0
   35.2710   28.3680   48.9220 O   0  0  0  0  0  0  0  0  0  0  0  0
   34.8640   30.3470   51.4530 H   0  0  0  0  0  0  0  0  0  0  0  0
   32.6300   29.3480   50.5580 H   0  0  0  0  0  0  0  0  0  0  0  0
   37.2310   29.4910   50.0160 C   0  0  0  0  0  0  0  0  0  0  0  0
   37.8860   28.8760   50.8730 O   0  0  0  0  0  0  0  0  0  0  0  0
   37.7770   30.5360   49.1960 C   0  0  0  0  0  0  0  0  0  0  0  0
   38.1220   31.7180   49.8320 C   0  0  0  0  0  0  0  0  0  0  0  0
   38.6550   32.7600   49.0640 C   0  0  0  0  0  0  0  0  0  0  0  0
   38.8060   32.5490   47.7140 N   0  0  0  0  0  0  0  0  0  0  0  0
   38.4610   31.3970   47.1350 C   0  0  0  0  0  0  0  0  0  0  0  0
   37.9500   30.3930   47.8640 N   0  0  0  0  0  0  0  0  0  0  0  0
   38.0290   31.9420   50.8810 H   0  0  0  0  0  0  0  0  0  0  0  0
   38.9390   33.7030   49.5240 H   0  0  0  0  0  0  0  0  0  0  0  0
   38.6100   31.3040   46.0570 H   0  0  0  0  0  0  0  0  0  0  0  0
   33.0350   27.5500   48.2600 C   0  0  0  0  0  0  0  0  0  0  0  0
   31.8120   27.4990   48.6200 O   0  0  0  0  0  0  0  0  0  0  0  0
   33.5300   26.8320   47.0370 C   0  0  1  0  0  0  0  0  0  0  0  0
   33.7690   25.3180   47.3480 C   0  0  0  0  0  0  0  0  0  0  0  0
   32.7060   25.7890   46.4250 C   0  0  2  0  0  0  0  0  0  0  0  0
   34.5050   27.2210   46.6880 H   0  0  0  0  0  0  0  0  0  0  0  0
   33.4930   24.9560   48.3530 H   0  0  0  0  0  0  0  0  0  0  0  0
   34.6600   24.8310   46.9530 H   0  0  0  0  0  0  0  0  0  0  0  0
   31.6780   25.7300   46.8480 H   0  0  0  0  0  0  0  0  0  0  0  0
   32.7240   25.5480   45.0250 N   0  0  1  0  0  0  0  0  0  0  0  0
   33.9920   25.5360   44.3780 C   0  0  0  0  0  3  0  0  0  0  0  0
   34.3470   24.4670   44.2900 H   0  0  0  0  0  0  0  0  0  0  0  0
   33.7490   25.9820   42.9470 C   0  0  0  0  0  3  0  0  0  0  0  0
   34.6540   25.8890   42.3150 H   0  0  0  0  0  0  0  0  0  0  0  0
   32.6260   25.3530   42.4450 O   0  0  0  0  0  0  0  0  0  0  0  0
   32.2740   24.2060   43.1210 C   0  0  0  0  0  2  0  0  0  0  0  0
   31.9260   24.4550   44.5760 C   0  0  0  0  0  2  0  0  0  0  0  0
  1  8  1  0  0  0  0
  1  2  2  0  0  0  0
  2  6  1  0  0  0  0
  3  7  1  0  0  0  0
  3  2  1  0  0  0  0
  4  3  2  0  0  0  0
  5  4  1  0  0  0  0
  5  1  1  0  0  0  0
  8  9  2  0  0  0  0
 10 11  1  0  0  0  0
 10  8  1  0  0  0  0
 11 16  1  0  0  0  0
 12 17  1  0  0  0  0
 12 11  2  0  0  0  0
 13 12  1  0  0  0  0
 14 13  2  0  0  0  0
 14 15  1  0  0  0  0
 15 10  2  0  0  0  0
 18 14  1  0  0  0  0
 19 20  2  0  0  0  0
 19  4  1  0  0  0  0
 21 24  1  6  0  0  0
 21 22  1  0  0  0  0
 21 19  1  0  0  0  0
 22 25  1  0  0  0  0
 23 27  1  1  0  0  0
 23 21  1  0  0  0  0
 23 22  1  0  0  0  0
 26 22  1  0  0  0  0
 28 35  1  1  0  0  0
 28 23  1  0  0  0  0
 29 28  1  0  0  0  0
 30 29  1  0  0  0  0
 31 29  1  0  0  0  0
 32 31  1  0  0  0  0
 33 31  1  0  0  0  0
 33 34  1  0  0  0  0
 34 35  1  0  0  0  0
M  END
>  <minimizedAffinity>
-4.83609056

>  <minimizedRMSD>
0.284245074

$$$$
