
 OpenBabel03272503573D

 33 36  0  0  0  0  0  0  0  0999 V2000
   35.7390   30.4730   31.0970 C   0  0  0  0  0  0  0  0  0  0  0  0
   36.1340   29.1310   30.9150 C   0  0  0  0  0  0  0  0  0  0  0  0
   36.2440   28.3750   32.0720 C   0  0  0  0  0  0  0  0  0  0  0  0
   35.9770   28.9520   33.2320 N   0  0  0  0  0  0  0  0  0  0  0  0
   35.6080   30.1990   33.4360 C   0  0  0  0  0  0  0  0  0  0  0  0
   35.5090   30.9080   32.3120 N   0  0  0  0  0  0  0  0  0  0  0  0
   36.3310   28.7430   29.9340 H   0  0  0  0  0  0  0  0  0  0  0  0
   36.6330   27.0100   32.0170 N   0  0  0  0  0  0  0  0  0  0  0  0
   37.8100   26.5030   32.6800 C   0  0  0  0  0  3  0  0  0  0  0  0
   38.5820   26.3500   31.8880 H   0  0  0  0  0  0  0  0  0  0  0  0
   37.4370   25.1130   33.1860 C   0  0  0  0  0  3  0  0  0  0  0  0
   36.5090   25.2520   33.7920 H   0  0  0  0  0  0  0  0  0  0  0  0
   37.1030   24.2470   32.1690 O   0  0  0  0  0  0  0  0  0  0  0  0
   36.7040   24.8600   31.0090 C   0  0  0  0  0  2  0  0  0  0  0  0
   35.8130   26.0710   31.2600 C   0  0  0  0  0  2  0  0  0  0  0  0
   35.2810   30.9690   34.6310 C   0  0  0  0  0  0  0  0  0  0  0  0
   36.0510   31.9910   35.0860 N   0  0  0  0  0  0  0  0  0  0  0  0
   35.7340   32.6900   36.1790 C   0  0  0  0  0  0  0  0  0  0  0  0
   34.6410   32.4620   36.9310 N   0  0  0  0  0  0  0  0  0  0  0  0
   33.8380   31.4620   36.5310 C   0  0  0  0  0  0  0  0  0  0  0  0
   32.7200   31.2190   37.2860 C   0  0  0  0  0  0  0  0  0  0  0  0
   31.8520   30.2140   36.9390 C   0  0  0  0  0  0  0  0  0  0  0  0
   32.1660   29.4760   35.8050 C   0  0  0  0  0  0  0  0  0  0  0  0
   33.3000   29.7620   35.0830 C   0  0  0  0  0  0  0  0  0  0  0  0
   34.1780   30.7540   35.4060 C   0  0  0  0  0  0  0  0  0  0  0  0
   36.4150   33.5060   36.4820 H   0  0  0  0  0  0  0  0  0  0  0  0
   32.5120   31.8190   38.1640 H   0  0  0  0  0  0  0  0  0  0  0  0
   30.9860   30.0630   37.5680 H   0  0  0  0  0  0  0  0  0  0  0  0
   31.4510   28.6910   35.5690 H   0  0  0  0  0  0  0  0  0  0  0  0
   33.4080   29.1020   34.2380 H   0  0  0  0  0  0  0  0  0  0  0  0
   35.5860   31.3650   29.9710 N   0  0  0  0  0  0  0  0  0  0  0  0
   34.7330   31.1690   29.3720 H   0  0  0  0  0  0  0  0  0  0  0  0
   36.2210   32.1690   29.6970 H   0  0  0  0  0  0  0  0  0  0  0  0
  1  6  1  0  0  0  0
  2  1  2  0  0  0  0
  2  3  1  0  0  0  0
  3  4  2  0  0  0  0
  4  5  1  0  0  0  0
  5 16  1  0  0  0  0
  6  5  2  0  0  0  0
  7  2  1  0  0  0  0
  8  3  1  0  0  0  0
  8  9  1  0  0  0  0
  9 11  1  0  0  0  0
 10  9  1  0  0  0  0
 11 12  1  0  0  0  0
 13 11  1  0  0  0  0
 14 15  1  0  0  0  0
 14 13  1  0  0  0  0
 15  8  1  0  0  0  0
 16 17  2  0  0  0  0
 16 25  1  0  0  0  0
 17 18  1  0  0  0  0
 18 26  1  0  0  0  0
 18 19  2  0  0  0  0
 20 19  1  0  0  0  0
 20 21  1  0  0  0  0
 21 27  1  0  0  0  0
 22 21  2  0  0  0  0
 22 28  1  0  0  0  0
 23 22  1  0  0  0  0
 24 25  1  0  0  0  0
 24 23  2  0  0  0  0
 25 20  2  0  0  0  0
 29 23  1  0  0  0  0
 30 24  1  0  0  0  0
 31  1  1  0  0  0  0
 32 31  1  0  0  0  0
 33 31  1  0  0  0  0
M  END
>  <minimizedAffinity>
-6.03507757

$$$$

 OpenBabel03272503573D

 33 36  0  0  0  0  0  0  0  0999 V2000
   36.2150   29.1170   31.3380 C   0  0  0  0  0  0  0  0  0  0  0  0
   37.2080   28.1810   31.6920 C   0  0  0  0  0  0  0  0  0  0  0  0
   37.1580   27.7170   32.9980 C   0  0  0  0  0  0  0  0  0  0  0  0
   36.2070   28.1740   33.7950 N   0  0  0  0  0  0  0  0  0  0  0  0
   35.2670   29.0460   33.4970 C   0  0  0  0  0  0  0  0  0  0  0  0
   35.3340   29.4800   32.2380 N   0  0  0  0  0  0  0  0  0  0  0  0
   37.9460   27.8630   30.9790 H   0  0  0  0  0  0  0  0  0  0  0  0
   38.1060   26.7710   33.4730 N   0  0  0  0  0  0  0  0  0  0  0  0
   38.9910   27.0360   34.5800 C   0  0  0  0  0  3  0  0  0  0  0  0
   39.9980   27.2410   34.1430 H   0  0  0  0  0  0  0  0  0  0  0  0
   39.1160   25.7180   35.3390 C   0  0  0  0  0  3  0  0  0  0  0  0
   38.0690   25.4010   35.5650 H   0  0  0  0  0  0  0  0  0  0  0  0
   39.6630   24.7130   34.5740 O   0  0  0  0  0  0  0  0  0  0  0  0
   39.5510   24.9020   33.2210 C   0  0  0  0  0  2  0  0  0  0  0  0
   38.1950   25.4700   32.8180 C   0  0  0  0  0  2  0  0  0  0  0  0
   34.1660   29.6370   34.2500 C   0  0  0  0  0  0  0  0  0  0  0  0
   32.8790   29.2280   34.1190 N   0  0  0  0  0  0  0  0  0  0  0  0
   31.8820   29.7760   34.8200 C   0  0  0  0  0  0  0  0  0  0  0  0
   32.0440   30.7700   35.7120 N   0  0  0  0  0  0  0  0  0  0  0  0
   33.2990   31.2180   35.8870 C   0  0  0  0  0  0  0  0  0  0  0  0
   33.4790   32.2300   36.7940 C   0  0  0  0  0  0  0  0  0  0  0  0
   34.7320   32.7400   37.0260 C   0  0  0  0  0  0  0  0  0  0  0  0
   35.7810   32.1830   36.3040 C   0  0  0  0  0  0  0  0  0  0  0  0
   35.5450   31.1680   35.4070 C   0  0  0  0  0  0  0  0  0  0  0  0
   34.3100   30.6450   35.1590 C   0  0  0  0  0  0  0  0  0  0  0  0
   30.8620   29.3840   34.6540 H   0  0  0  0  0  0  0  0  0  0  0  0
   32.6340   32.6370   37.3350 H   0  0  0  0  0  0  0  0  0  0  0  0
   34.8210   33.5370   37.7500 H   0  0  0  0  0  0  0  0  0  0  0  0
   36.7540   32.6170   36.5210 H   0  0  0  0  0  0  0  0  0  0  0  0
   36.4530   30.8470   34.9250 H   0  0  0  0  0  0  0  0  0  0  0  0
   36.1550   29.6750   30.0070 N   0  0  0  0  0  0  0  0  0  0  0  0
   35.8170   28.9970   29.2630 H   0  0  0  0  0  0  0  0  0  0  0  0
   36.4070   30.6620   29.7110 H   0  0  0  0  0  0  0  0  0  0  0  0
  1  2  2  0  0  0  0
  1  6  1  0  0  0  0
  2  3  1  0  0  0  0
  3  8  1  0  0  0  0
  3  4  2  0  0  0  0
  5  4  1  0  0  0  0
  5 16  1  0  0  0  0
  6  5  2  0  0  0  0
  7  2  1  0  0  0  0
  8  9  1  0  0  0  0
  9 11  1  0  0  0  0
 10  9  1  0  0  0  0
 11 12  1  0  0  0  0
 13 11  1  0  0  0  0
 14 13  1  0  0  0  0
 15 14  1  0  0  0  0
 15  8  1  0  0  0  0
 16 25  1  0  0  0  0
 17 16  2  0  0  0  0
 17 18  1  0  0  0  0
 18 19  2  0  0  0  0
 19 20  1  0  0  0  0
 20 21  1  0  0  0  0
 21 22  2  0  0  0  0
 21 27  1  0  0  0  0
 22 28  1  0  0  0  0
 23 29  1  0  0  0  0
 23 22  1  0  0  0  0
 24 23  2  0  0  0  0
 25 24  1  0  0  0  0
 25 20  2  0  0  0  0
 26 18  1  0  0  0  0
 30 24  1  0  0  0  0
 31  1  1  0  0  0  0
 32 31  1  0  0  0  0
 33 31  1  0  0  0  0
M  END
>  <minimizedAffinity>
-5.95560884

$$$$

 OpenBabel03272503573D

 33 36  0  0  0  0  0  0  0  0999 V2000
   37.3640   23.0260   32.1830 C   0  0  0  0  0  0  0  0  0  0  0  0
   37.1240   24.2540   31.5300 C   0  0  0  0  0  0  0  0  0  0  0  0
   37.2620   25.3890   32.3150 C   0  0  0  0  0  0  0  0  0  0  0  0
   37.6000   25.2400   33.5850 N   0  0  0  0  0  0  0  0  0  0  0  0
   37.8300   24.1120   34.2240 C   0  0  0  0  0  0  0  0  0  0  0  0
   37.6920   23.0350   33.4510 N   0  0  0  0  0  0  0  0  0  0  0  0
   36.8530   24.2820   30.4920 H   0  0  0  0  0  0  0  0  0  0  0  0
   37.0460   26.6820   31.7720 N   0  0  0  0  0  0  0  0  0  0  0  0
   36.0390   27.5860   32.2720 C   0  0  0  0  0  3  0  0  0  0  0  0
   35.1970   27.5650   31.5400 H   0  0  0  0  0  0  0  0  0  0  0  0
   36.6490   28.9820   32.1810 C   0  0  0  0  0  3  0  0  0  0  0  0
   37.6220   28.9220   32.7260 H   0  0  0  0  0  0  0  0  0  0  0  0
   36.9570   29.3450   30.8890 O   0  0  0  0  0  0  0  0  0  0  0  0
   37.1210   28.2920   30.0260 C   0  0  0  0  0  2  0  0  0  0  0  0
   37.8750   27.1280   30.6570 C   0  0  0  0  0  2  0  0  0  0  0  0
   38.2080   23.7910   35.5960 C   0  0  0  0  0  0  0  0  0  0  0  0
   37.4150   24.0600   36.6630 N   0  0  0  0  0  0  0  0  0  0  0  0
   37.7740   23.7540   37.9130 C   0  0  0  0  0  0  0  0  0  0  0  0
   38.9350   23.1590   38.2410 N   0  0  0  0  0  0  0  0  0  0  0  0
   39.7650   22.8670   37.2260 C   0  0  0  0  0  0  0  0  0  0  0  0
   40.9510   22.2590   37.5450 C   0  0  0  0  0  0  0  0  0  0  0  0
   41.8490   21.9290   36.5610 C   0  0  0  0  0  0  0  0  0  0  0  0
   41.4930   22.2410   35.2540 C   0  0  0  0  0  0  0  0  0  0  0  0
   40.2900   22.8500   34.9890 C   0  0  0  0  0  0  0  0  0  0  0  0
   39.3810   23.1870   35.9490 C   0  0  0  0  0  0  0  0  0  0  0  0
   37.0690   24.0080   38.7260 H   0  0  0  0  0  0  0  0  0  0  0  0
   41.1900   22.0330   38.5770 H   0  0  0  0  0  0  0  0  0  0  0  0
   42.7700   21.4520   36.8640 H   0  0  0  0  0  0  0  0  0  0  0  0
   42.2340   21.9610   34.5090 H   0  0  0  0  0  0  0  0  0  0  0  0
   40.1610   23.0300   33.9350 H   0  0  0  0  0  0  0  0  0  0  0  0
   37.2560   21.7710   31.4750 N   0  0  0  0  0  0  0  0  0  0  0  0
   38.0420   21.5880   30.7870 H   0  0  0  0  0  0  0  0  0  0  0  0
   36.4930   21.0410   31.5750 H   0  0  0  0  0  0  0  0  0  0  0  0
  1  6  1  0  0  0  0
  2  1  2  0  0  0  0
  2  3  1  0  0  0  0
  3  4  2  0  0  0  0
  4  5  1  0  0  0  0
  5 16  1  0  0  0  0
  6  5  2  0  0  0  0
  7  2  1  0  0  0  0
  8  9  1  0  0  0  0
  8  3  1  0  0  0  0
 10  9  1  0  0  0  0
 11  9  1  0  0  0  0
 11 12  1  0  0  0  0
 13 11  1  0  0  0  0
 14 15  1  0  0  0  0
 14 13  1  0  0  0  0
 15  8  1  0  0  0  0
 16 25  2  0  0  0  0
 16 17  1  0  0  0  0
 17 18  2  0  0  0  0
 18 19  1  0  0  0  0
 18 26  1  0  0  0  0
 20 21  1  0  0  0  0
 20 19  2  0  0  0  0
 21 27  1  0  0  0  0
 22 28  1  0  0  0  0
 22 21  2  0  0  0  0
 23 22  1  0  0  0  0
 24 23  2  0  0  0  0
 24 25  1  0  0  0  0
 25 20  1  0  0  0  0
 29 23  1  0  0  0  0
 30 24  1  0  0  0  0
 31 33  1  0  0  0  0
 31  1  1  0  0  0  0
 32 31  1  0  0  0  0
M  END
>  <minimizedAffinity>
-5.72130346

$$$$

 OpenBabel03272503573D

 33 36  0  0  0  0  0  0  0  0999 V2000
   36.7770   28.2940   30.1410 C   0  0  0  0  0  0  0  0  0  0  0  0
   36.1080   29.4080   30.6890 C   0  0  0  0  0  0  0  0  0  0  0  0
   35.7510   29.2970   32.0250 C   0  0  0  0  0  0  0  0  0  0  0  0
   36.0570   28.1850   32.6700 N   0  0  0  0  0  0  0  0  0  0  0  0
   36.6790   27.1280   32.1890 C   0  0  0  0  0  0  0  0  0  0  0  0
   37.0120   27.2550   30.9050 N   0  0  0  0  0  0  0  0  0  0  0  0
   35.8980   30.2740   30.0910 H   0  0  0  0  0  0  0  0  0  0  0  0
   35.0730   30.3540   32.6880 N   0  0  0  0  0  0  0  0  0  0  0  0
   33.7690   30.1960   33.2850 C   0  0  0  0  0  3  0  0  0  0  0  0
   33.0400   30.6840   32.5950 H   0  0  0  0  0  0  0  0  0  0  0  0
   33.7860   31.0420   34.5550 C   0  0  0  0  0  3  0  0  0  0  0  0
   34.6770   30.6970   35.1340 H   0  0  0  0  0  0  0  0  0  0  0  0
   33.9910   32.3800   34.3010 O   0  0  0  0  0  0  0  0  0  0  0  0
   34.5960   32.6450   33.1000 C   0  0  0  0  0  2  0  0  0  0  0  0
   35.7150   31.6610   32.7760 C   0  0  0  0  0  2  0  0  0  0  0  0
   37.0850   25.8500   32.7640 C   0  0  0  0  0  0  0  0  0  0  0  0
   37.0140   24.6780   32.0840 N   0  0  0  0  0  0  0  0  0  0  0  0
   37.3940   23.5170   32.6230 C   0  0  0  0  0  0  0  0  0  0  0  0
   37.8790   23.3870   33.8710 N   0  0  0  0  0  0  0  0  0  0  0  0
   37.9740   24.5140   34.5970 C   0  0  0  0  0  0  0  0  0  0  0  0
   38.4670   24.3970   35.8700 C   0  0  0  0  0  0  0  0  0  0  0  0
   38.5940   25.5050   36.6710 C   0  0  0  0  0  0  0  0  0  0  0  0
   38.2020   26.7220   36.1260 C   0  0  0  0  0  0  0  0  0  0  0  0
   37.7140   26.7830   34.8430 C   0  0  0  0  0  0  0  0  0  0  0  0
   37.5780   25.6980   34.0280 C   0  0  0  0  0  0  0  0  0  0  0  0
   37.3030   22.6080   32.0000 H   0  0  0  0  0  0  0  0  0  0  0  0
   38.7610   23.4290   36.2560 H   0  0  0  0  0  0  0  0  0  0  0  0
   38.9870   25.3590   37.6660 H   0  0  0  0  0  0  0  0  0  0  0  0
   38.3200   27.5710   36.7950 H   0  0  0  0  0  0  0  0  0  0  0  0
   37.4490   27.7910   34.5680 H   0  0  0  0  0  0  0  0  0  0  0  0
   37.2040   28.2840   28.7610 N   0  0  0  0  0  0  0  0  0  0  0  0
   38.0320   28.9140   28.5550 H   0  0  0  0  0  0  0  0  0  0  0  0
   36.7850   27.7260   27.9620 H   0  0  0  0  0  0  0  0  0  0  0  0
  1  2  2  0  0  0  0
  1  6  1  0  0  0  0
  2  3  1  0  0  0  0
  3  4  2  0  0  0  0
  3  8  1  0  0  0  0
  5  4  1  0  0  0  0
  5 16  1  0  0  0  0
  6  5  2  0  0  0  0
  7  2  1  0  0  0  0
  8 15  1  0  0  0  0
  8  9  1  0  0  0  0
  9 11  1  0  0  0  0
 10  9  1  0  0  0  0
 11 12  1  0  0  0  0
 13 11  1  0  0  0  0
 14 13  1  0  0  0  0
 15 14  1  0  0  0  0
 16 25  1  0  0  0  0
 17 18  1  0  0  0  0
 17 16  2  0  0  0  0
 18 19  2  0  0  0  0
 19 20  1  0  0  0  0
 20 21  1  0  0  0  0
 21 27  1  0  0  0  0
 21 22  2  0  0  0  0
 22 28  1  0  0  0  0
 23 22  1  0  0  0  0
 23 29  1  0  0  0  0
 24 23  2  0  0  0  0
 25 20  2  0  0  0  0
 25 24  1  0  0  0  0
 26 18  1  0  0  0  0
 30 24  1  0  0  0  0
 31  1  1  0  0  0  0
 32 31  1  0  0  0  0
 33 31  1  0  0  0  0
M  END
>  <minimizedAffinity>
-5.71650457

$$$$

 OpenBabel03272503573D

 33 36  0  0  0  0  0  0  0  0999 V2000
   36.8450   28.2170   30.2220 C   0  0  0  0  0  0  0  0  0  0  0  0
   36.1000   29.2270   30.8640 C   0  0  0  0  0  0  0  0  0  0  0  0
   35.8670   29.0340   32.2180 C   0  0  0  0  0  0  0  0  0  0  0  0
   36.3490   27.9440   32.7920 N   0  0  0  0  0  0  0  0  0  0  0  0
   37.0470   26.9840   32.2230 C   0  0  0  0  0  0  0  0  0  0  0  0
   37.2580   27.1890   30.9230 N   0  0  0  0  0  0  0  0  0  0  0  0
   35.7450   30.0820   30.3200 H   0  0  0  0  0  0  0  0  0  0  0  0
   35.1280   29.9820   32.9740 N   0  0  0  0  0  0  0  0  0  0  0  0
   33.9030   29.6540   33.6610 C   0  0  0  0  0  3  0  0  0  0  0  0
   33.0700   30.0750   33.0500 H   0  0  0  0  0  0  0  0  0  0  0  0
   33.9260   30.4560   34.9600 C   0  0  0  0  0  3  0  0  0  0  0  0
   34.8950   30.1990   35.4550 H   0  0  0  0  0  0  0  0  0  0  0  0
   33.9560   31.8150   34.7460 O   0  0  0  0  0  0  0  0  0  0  0  0
   34.4280   32.1870   33.5130 C   0  0  0  0  0  2  0  0  0  0  0  0
   35.6220   31.3520   33.0660 C   0  0  0  0  0  2  0  0  0  0  0  0
   37.6400   25.7440   32.7120 C   0  0  0  0  0  0  0  0  0  0  0  0
   38.7420   25.7160   33.5050 N   0  0  0  0  0  0  0  0  0  0  0  0
   39.2710   24.5720   33.9490 C   0  0  0  0  0  0  0  0  0  0  0  0
   38.7790   23.3530   33.6660 N   0  0  0  0  0  0  0  0  0  0  0  0
   37.6860   23.3150   32.8850 C   0  0  0  0  0  0  0  0  0  0  0  0
   37.1730   22.0790   32.5890 C   0  0  0  0  0  0  0  0  0  0  0  0
   36.0570   21.9610   31.7970 C   0  0  0  0  0  0  0  0  0  0  0  0
   35.4950   23.1410   31.3250 C   0  0  0  0  0  0  0  0  0  0  0  0
   36.0500   24.3550   31.6530 C   0  0  0  0  0  0  0  0  0  0  0  0
   37.1560   24.4980   32.4370 C   0  0  0  0  0  0  0  0  0  0  0  0
   40.1690   24.6380   34.5900 H   0  0  0  0  0  0  0  0  0  0  0  0
   37.6430   21.1840   32.9780 H   0  0  0  0  0  0  0  0  0  0  0  0
   35.6930   20.9650   31.5930 H   0  0  0  0  0  0  0  0  0  0  0  0
   34.6140   22.9990   30.7020 H   0  0  0  0  0  0  0  0  0  0  0  0
   35.5050   25.1710   31.2080 H   0  0  0  0  0  0  0  0  0  0  0  0
   37.1580   28.3010   28.8140 N   0  0  0  0  0  0  0  0  0  0  0  0
   37.8900   29.0300   28.5720 H   0  0  0  0  0  0  0  0  0  0  0  0
   36.7430   27.7240   28.0280 H   0  0  0  0  0  0  0  0  0  0  0  0
  1  2  2  0  0  0  0
  1  6  1  0  0  0  0
  2  3  1  0  0  0  0
  3  4  2  0  0  0  0
  3  8  1  0  0  0  0
  5 16  1  0  0  0  0
  5  4  1  0  0  0  0
  6  5  2  0  0  0  0
  7  2  1  0  0  0  0
  8 15  1  0  0  0  0
  8  9  1  0  0  0  0
  9 11  1  0  0  0  0
 10  9  1  0  0  0  0
 11 12  1  0  0  0  0
 13 11  1  0  0  0  0
 14 13  1  0  0  0  0
 15 14  1  0  0  0  0
 16 17  1  0  0  0  0
 17 18  2  0  0  0  0
 18 26  1  0  0  0  0
 19 18  1  0  0  0  0
 20 19  2  0  0  0  0
 21 20  1  0  0  0  0
 21 27  1  0  0  0  0
 22 21  2  0  0  0  0
 23 24  2  0  0  0  0
 23 22  1  0  0  0  0
 24 25  1  0  0  0  0
 25 16  2  0  0  0  0
 25 20  1  0  0  0  0
 28 22  1  0  0  0  0
 29 23  1  0  0  0  0
 30 24  1  0  0  0  0
 31  1  1  0  0  0  0
 32 31  1  0  0  0  0
 33 31  1  0  0  0  0
M  END
>  <minimizedAffinity>
-5.69440889

$$$$

 OpenBabel03272503573D

 33 36  0  0  0  0  0  0  0  0999 V2000
   36.0210   26.9970   31.6660 C   0  0  0  0  0  0  0  0  0  0  0  0
   35.4810   28.2530   32.0120 C   0  0  0  0  0  0  0  0  0  0  0  0
   35.8940   28.7690   33.2320 C   0  0  0  0  0  0  0  0  0  0  0  0
   36.7410   28.0620   33.9620 N   0  0  0  0  0  0  0  0  0  0  0  0
   37.2610   26.8890   33.6690 C   0  0  0  0  0  0  0  0  0  0  0  0
   36.8510   26.4120   32.4940 N   0  0  0  0  0  0  0  0  0  0  0  0
   34.7970   28.7590   31.3570 H   0  0  0  0  0  0  0  0  0  0  0  0
   35.4200   30.0260   33.6890 N   0  0  0  0  0  0  0  0  0  0  0  0
   34.6840   30.1860   34.9200 C   0  0  0  0  0  3  0  0  0  0  0  0
   33.6130   30.3250   34.6360 H   0  0  0  0  0  0  0  0  0  0  0  0
   35.1440   31.5150   35.5110 C   0  0  0  0  0  3  0  0  0  0  0  0
   36.2580   31.4500   35.5670 H   0  0  0  0  0  0  0  0  0  0  0  0
   34.8650   32.5880   34.6940 O   0  0  0  0  0  0  0  0  0  0  0  0
   34.6910   32.2650   33.3720 C   0  0  0  0  0  2  0  0  0  0  0  0
   35.6840   31.2160   32.8880 C   0  0  0  0  0  2  0  0  0  0  0  0
   38.1940   26.0020   34.3550 C   0  0  0  0  0  0  0  0  0  0  0  0
   37.7910   24.9510   35.1140 N   0  0  0  0  0  0  0  0  0  0  0  0
   38.6580   24.1440   35.7320 C   0  0  0  0  0  0  0  0  0  0  0  0
   39.9950   24.2840   35.6700 N   0  0  0  0  0  0  0  0  0  0  0  0
   40.4560   25.3070   34.9320 C   0  0  0  0  0  0  0  0  0  0  0  0
   41.8160   25.4600   34.8590 C   0  0  0  0  0  0  0  0  0  0  0  0
   42.3610   26.4840   34.1230 C   0  0  0  0  0  0  0  0  0  0  0  0
   41.4730   27.3330   33.4740 C   0  0  0  0  0  0  0  0  0  0  0  0
   40.1180   27.1340   33.5810 C   0  0  0  0  0  0  0  0  0  0  0  0
   39.5520   26.1260   34.3050 C   0  0  0  0  0  0  0  0  0  0  0  0
   38.2470   23.3110   36.3310 H   0  0  0  0  0  0  0  0  0  0  0  0
   42.4730   24.7760   35.3800 H   0  0  0  0  0  0  0  0  0  0  0  0
   43.4390   26.5620   34.0980 H   0  0  0  0  0  0  0  0  0  0  0  0
   41.9500   28.1280   32.9040 H   0  0  0  0  0  0  0  0  0  0  0  0
   39.5650   27.8750   33.0280 H   0  0  0  0  0  0  0  0  0  0  0  0
   35.6720   26.3520   30.4200 N   0  0  0  0  0  0  0  0  0  0  0  0
   36.1020   26.8020   29.5610 H   0  0  0  0  0  0  0  0  0  0  0  0
   35.0510   25.5030   30.2870 H   0  0  0  0  0  0  0  0  0  0  0  0
  1  2  2  0  0  0  0
  1  6  1  0  0  0  0
  2  3  1  0  0  0  0
  3  8  1  0  0  0  0
  3  4  2  0  0  0  0
  5  4  1  0  0  0  0
  5 16  1  0  0  0  0
  6  5  2  0  0  0  0
  7  2  1  0  0  0  0
  8  9  1  0  0  0  0
  9 11  1  0  0  0  0
 10  9  1  0  0  0  0
 11 12  1  0  0  0  0
 13 11  1  0  0  0  0
 14 13  1  0  0  0  0
 15 14  1  0  0  0  0
 15  8  1  0  0  0  0
 16 17  1  0  0  0  0
 17 18  2  0  0  0  0
 18 26  1  0  0  0  0
 19 18  1  0  0  0  0
 20 19  2  0  0  0  0
 21 20  1  0  0  0  0
 21 27  1  0  0  0  0
 22 21  2  0  0  0  0
 23 24  2  0  0  0  0
 23 22  1  0  0  0  0
 24 25  1  0  0  0  0
 25 16  2  0  0  0  0
 25 20  1  0  0  0  0
 28 22  1  0  0  0  0
 29 23  1  0  0  0  0
 30 24  1  0  0  0  0
 31  1  1  0  0  0  0
 32 31  1  0  0  0  0
 33 31  1  0  0  0  0
M  END
>  <minimizedAffinity>
-5.6599474

$$$$

 OpenBabel03272503573D

 33 36  0  0  0  0  0  0  0  0999 V2000
   36.7600   28.1810   30.3210 C   0  0  0  0  0  0  0  0  0  0  0  0
   36.0340   29.2060   30.9640 C   0  0  0  0  0  0  0  0  0  0  0  0
   35.8830   29.0650   32.3360 C   0  0  0  0  0  0  0  0  0  0  0  0
   36.4170   28.0090   32.9250 N   0  0  0  0  0  0  0  0  0  0  0  0
   37.0980   27.0360   32.3560 C   0  0  0  0  0  0  0  0  0  0  0  0
   37.2310   27.1900   31.0380 N   0  0  0  0  0  0  0  0  0  0  0  0
   35.6340   30.0310   30.4060 H   0  0  0  0  0  0  0  0  0  0  0  0
   35.1720   30.0330   33.0940 N   0  0  0  0  0  0  0  0  0  0  0  0
   33.9940   29.7150   33.8640 C   0  0  0  0  0  3  0  0  0  0  0  0
   33.1200   30.0970   33.2850 H   0  0  0  0  0  0  0  0  0  0  0  0
   34.0770   30.5700   35.1250 C   0  0  0  0  0  3  0  0  0  0  0  0
   35.0770   30.3500   35.5730 H   0  0  0  0  0  0  0  0  0  0  0  0
   34.0690   31.9200   34.8540 O   0  0  0  0  0  0  0  0  0  0  0  0
   34.4640   32.2470   33.5820 C   0  0  0  0  0  2  0  0  0  0  0  0
   35.6450   31.4130   33.1010 C   0  0  0  0  0  2  0  0  0  0  0  0
   37.7410   25.8280   32.8600 C   0  0  0  0  0  0  0  0  0  0  0  0
   37.1830   24.5950   32.7550 N   0  0  0  0  0  0  0  0  0  0  0  0
   37.7880   23.4980   33.2180 C   0  0  0  0  0  0  0  0  0  0  0  0
   38.9890   23.4960   33.8250 N   0  0  0  0  0  0  0  0  0  0  0  0
   39.5920   24.6890   33.9590 C   0  0  0  0  0  0  0  0  0  0  0  0
   40.8180   24.7020   34.5730 C   0  0  0  0  0  0  0  0  0  0  0  0
   41.4950   25.8840   34.7460 C   0  0  0  0  0  0  0  0  0  0  0  0
   40.8810   27.0360   34.2710 C   0  0  0  0  0  0  0  0  0  0  0  0
   39.6510   26.9660   33.6610 C   0  0  0  0  0  0  0  0  0  0  0  0
   38.9580   25.8050   33.4780 C   0  0  0  0  0  0  0  0  0  0  0  0
   37.2650   22.5320   33.0920 H   0  0  0  0  0  0  0  0  0  0  0  0
   41.2620   23.7810   34.9290 H   0  0  0  0  0  0  0  0  0  0  0  0
   42.4570   25.8400   35.2370 H   0  0  0  0  0  0  0  0  0  0  0  0
   41.4540   27.9470   34.4290 H   0  0  0  0  0  0  0  0  0  0  0  0
   39.3060   27.9390   33.3540 H   0  0  0  0  0  0  0  0  0  0  0  0
   36.9900   28.2110   28.8950 N   0  0  0  0  0  0  0  0  0  0  0  0
   37.6930   28.9410   28.5810 H   0  0  0  0  0  0  0  0  0  0  0  0
   36.5410   27.5950   28.1580 H   0  0  0  0  0  0  0  0  0  0  0  0
  1  2  2  0  0  0  0
  1  6  1  0  0  0  0
  2  3  1  0  0  0  0
  3  4  2  0  0  0  0
  3  8  1  0  0  0  0
  5 16  1  0  0  0  0
  5  4  1  0  0  0  0
  6  5  2  0  0  0  0
  7  2  1  0  0  0  0
  8 15  1  0  0  0  0
  8  9  1  0  0  0  0
  9 11  1  0  0  0  0
 10  9  1  0  0  0  0
 11 12  1  0  0  0  0
 13 11  1  0  0  0  0
 14 13  1  0  0  0  0
 15 14  1  0  0  0  0
 16 25  1  0  0  0  0
 17 16  2  0  0  0  0
 17 18  1  0  0  0  0
 18 19  2  0  0  0  0
 19 20  1  0  0  0  0
 20 21  1  0  0  0  0
 21 22  2  0  0  0  0
 21 27  1  0  0  0  0
 22 28  1  0  0  0  0
 23 29  1  0  0  0  0
 23 22  1  0  0  0  0
 24 23  2  0  0  0  0
 25 24  1  0  0  0  0
 25 20  2  0  0  0  0
 26 18  1  0  0  0  0
 30 24  1  0  0  0  0
 31  1  1  0  0  0  0
 32 31  1  0  0  0  0
 33 31  1  0  0  0  0
M  END
>  <minimizedAffinity>
-5.59663391

$$$$

 OpenBabel03272503573D

 33 36  0  0  0  0  0  0  0  0999 V2000
   35.8570   30.1430   30.7040 C   0  0  0  0  0  0  0  0  0  0  0  0
   34.7470   30.7860   31.2920 C   0  0  0  0  0  0  0  0  0  0  0  0
   34.1250   30.0910   32.3180 C   0  0  0  0  0  0  0  0  0  0  0  0
   34.6060   28.9070   32.6620 N   0  0  0  0  0  0  0  0  0  0  0  0
   35.6370   28.2810   32.1330 C   0  0  0  0  0  0  0  0  0  0  0  0
   36.2190   28.9660   31.1490 N   0  0  0  0  0  0  0  0  0  0  0  0
   34.4230   31.7510   30.9500 H   0  0  0  0  0  0  0  0  0  0  0  0
   32.9980   30.6340   32.9890 N   0  0  0  0  0  0  0  0  0  0  0  0
   31.7110   29.9820   33.0140 C   0  0  0  0  0  3  0  0  0  0  0  0
   31.0590   30.5330   32.2950 H   0  0  0  0  0  0  0  0  0  0  0  0
   31.1360   30.2500   34.4020 C   0  0  0  0  0  3  0  0  0  0  0  0
   31.9170   29.9050   35.1230 H   0  0  0  0  0  0  0  0  0  0  0  0
   30.9500   31.5910   34.6530 O   0  0  0  0  0  0  0  0  0  0  0  0
   31.7160   32.4250   33.8790 C   0  0  0  0  0  2  0  0  0  0  0  0
   33.1360   31.9080   33.6860 C   0  0  0  0  0  2  0  0  0  0  0  0
   36.2790   26.9980   32.3990 C   0  0  0  0  0  0  0  0  0  0  0  0
   36.1830   25.9360   31.5600 N   0  0  0  0  0  0  0  0  0  0  0  0
   36.7820   24.7690   31.8150 C   0  0  0  0  0  0  0  0  0  0  0  0
   37.5290   24.5280   32.9080 N   0  0  0  0  0  0  0  0  0  0  0  0
   37.6630   25.5430   33.7780 C   0  0  0  0  0  0  0  0  0  0  0  0
   38.4230   25.3110   34.8940 C   0  0  0  0  0  0  0  0  0  0  0  0
   38.6050   26.3010   35.8280 C   0  0  0  0  0  0  0  0  0  0  0  0
   37.9880   27.5210   35.5790 C   0  0  0  0  0  0  0  0  0  0  0  0
   37.2370   27.7000   34.4420 C   0  0  0  0  0  0  0  0  0  0  0  0
   37.0410   26.7330   33.5000 C   0  0  0  0  0  0  0  0  0  0  0  0
   36.6530   23.9550   31.0800 H   0  0  0  0  0  0  0  0  0  0  0  0
   38.8870   24.3450   35.0510 H   0  0  0  0  0  0  0  0  0  0  0  0
   39.2120   26.0680   36.6910 H   0  0  0  0  0  0  0  0  0  0  0  0
   38.1600   28.2750   36.3450 H   0  0  0  0  0  0  0  0  0  0  0  0
   36.8220   28.6930   34.3950 H   0  0  0  0  0  0  0  0  0  0  0  0
   36.5930   30.7630   29.6260 N   0  0  0  0  0  0  0  0  0  0  0  0
   37.1950   31.5850   29.9240 H   0  0  0  0  0  0  0  0  0  0  0  0
   36.5910   30.4860   28.6030 H   0  0  0  0  0  0  0  0  0  0  0  0
  1  6  2  0  0  0  0
  1  2  1  0  0  0  0
  2  3  2  0  0  0  0
  3  4  1  0  0  0  0
  3  8  1  0  0  0  0
  5 16  1  0  0  0  0
  5  4  2  0  0  0  0
  6  5  1  0  0  0  0
  7  2  1  0  0  0  0
  8  9  1  0  0  0  0
  8 15  1  0  0  0  0
  9 11  1  0  0  0  0
 10  9  1  0  0  0  0
 11 13  1  0  0  0  0
 11 12  1  0  0  0  0
 14 13  1  0  0  0  0
 15 14  1  0  0  0  0
 16 25  1  0  0  0  0
 17 18  1  0  0  0  0
 17 16  2  0  0  0  0
 18 19  2  0  0  0  0
 19 20  1  0  0  0  0
 20 21  1  0  0  0  0
 21 27  1  0  0  0  0
 21 22  2  0  0  0  0
 22 28  1  0  0  0  0
 23 22  1  0  0  0  0
 23 29  1  0  0  0  0
 24 23  2  0  0  0  0
 25 20  2  0  0  0  0
 25 24  1  0  0  0  0
 26 18  1  0  0  0  0
 30 24  1  0  0  0  0
 31 32  1  0  0  0  0
 31  1  1  0  0  0  0
 33 31  1  0  0  0  0
M  END
>  <minimizedAffinity>
-5.57681513

$$$$

 OpenBabel03272503573D

 33 36  0  0  0  0  0  0  0  0999 V2000
   36.7400   25.3630   31.6500 C   0  0  0  0  0  0  0  0  0  0  0  0
   36.1480   26.6290   31.8410 C   0  0  0  0  0  0  0  0  0  0  0  0
   36.6280   27.3590   32.9190 C   0  0  0  0  0  0  0  0  0  0  0  0
   37.5790   26.8280   33.6680 N   0  0  0  0  0  0  0  0  0  0  0  0
   38.1510   25.6510   33.5180 C   0  0  0  0  0  0  0  0  0  0  0  0
   37.6750   24.9670   32.4770 N   0  0  0  0  0  0  0  0  0  0  0  0
   35.3780   26.9830   31.1820 H   0  0  0  0  0  0  0  0  0  0  0  0
   36.1110   28.6480   33.2140 N   0  0  0  0  0  0  0  0  0  0  0  0
   35.4720   28.9690   34.4670 C   0  0  0  0  0  3  0  0  0  0  0  0
   34.3740   29.0030   34.2690 H   0  0  0  0  0  0  0  0  0  0  0  0
   35.8910   30.3990   34.7940 C   0  0  0  0  0  3  0  0  0  0  0  0
   37.0070   30.4030   34.7540 H   0  0  0  0  0  0  0  0  0  0  0  0
   35.4720   31.3060   33.8470 O   0  0  0  0  0  0  0  0  0  0  0  0
   35.2070   30.7620   32.6160 C   0  0  0  0  0  2  0  0  0  0  0  0
   36.2250   29.7020   32.2120 C   0  0  0  0  0  2  0  0  0  0  0  0
   39.1960   24.9390   34.2450 C   0  0  0  0  0  0  0  0  0  0  0  0
   40.4470   24.7580   33.7500 N   0  0  0  0  0  0  0  0  0  0  0  0
   41.3950   24.1080   34.4310 C   0  0  0  0  0  0  0  0  0  0  0  0
   41.2150   23.5750   35.6530 N   0  0  0  0  0  0  0  0  0  0  0  0
   39.9960   23.7220   36.1970 C   0  0  0  0  0  0  0  0  0  0  0  0
   39.7990   23.1850   37.4430 C   0  0  0  0  0  0  0  0  0  0  0  0
   38.5780   23.2960   38.0620 C   0  0  0  0  0  0  0  0  0  0  0  0
   37.5800   23.9680   37.3680 C   0  0  0  0  0  0  0  0  0  0  0  0
   37.8310   24.4890   36.1210 C   0  0  0  0  0  0  0  0  0  0  0  0
   39.0340   24.3920   35.4850 C   0  0  0  0  0  0  0  0  0  0  0  0
   42.3880   24.0040   33.9560 H   0  0  0  0  0  0  0  0  0  0  0  0
   40.6040   22.6680   37.9490 H   0  0  0  0  0  0  0  0  0  0  0  0
   38.4750   22.8550   39.0430 H   0  0  0  0  0  0  0  0  0  0  0  0
   36.6320   24.0320   37.8970 H   0  0  0  0  0  0  0  0  0  0  0  0
   36.9610   24.9740   35.7120 H   0  0  0  0  0  0  0  0  0  0  0  0
   36.3310   24.5050   30.5610 N   0  0  0  0  0  0  0  0  0  0  0  0
   36.6550   24.8290   29.6040 H   0  0  0  0  0  0  0  0  0  0  0  0
   35.7600   23.6140   30.6240 H   0  0  0  0  0  0  0  0  0  0  0  0
  1  2  2  0  0  0  0
  1  6  1  0  0  0  0
  2  3  1  0  0  0  0
  3  8  1  0  0  0  0
  3  4  2  0  0  0  0
  5  4  1  0  0  0  0
  5 16  1  0  0  0  0
  6  5  2  0  0  0  0
  7  2  1  0  0  0  0
  8  9  1  0  0  0  0
  9 11  1  0  0  0  0
 10  9  1  0  0  0  0
 12 11  1  0  0  0  0
 13 11  1  0  0  0  0
 14 13  1  0  0  0  0
 15 14  1  0  0  0  0
 15  8  1  0  0  0  0
 16 25  1  0  0  0  0
 17 16  2  0  0  0  0
 17 18  1  0  0  0  0
 18 19  2  0  0  0  0
 19 20  1  0  0  0  0
 20 21  1  0  0  0  0
 21 27  1  0  0  0  0
 21 22  2  0  0  0  0
 22 28  1  0  0  0  0
 23 29  1  0  0  0  0
 23 22  1  0  0  0  0
 24 23  2  0  0  0  0
 25 24  1  0  0  0  0
 25 20  2  0  0  0  0
 26 18  1  0  0  0  0
 30 24  1  0  0  0  0
 31 33  1  0  0  0  0
 31  1  1  0  0  0  0
 32 31  1  0  0  0  0
M  END
>  <minimizedAffinity>
-5.53185129

$$$$
