
 OpenBabel03272507463D

 45 49  0  0  0  0  0  0  0  0999 V2000
   31.9900   28.1140   47.3850 N   0  0  0  0  0  0  0  0  0  0  0  0
   32.2930   27.7730   48.7310 C   0  0  0  0  0  0  0  0  0  0  0  0
   33.5260   28.3670   49.3020 C   0  0  0  0  0  0  0  0  0  0  0  0
   34.6860   28.4520   48.4150 C   0  0  0  0  0  0  0  0  0  0  0  0
   34.2810   28.7460   46.9590 C   0  0  0  0  0  0  0  0  0  0  0  0
   33.1450   27.7780   46.5980 C   0  0  0  0  0  0  0  0  0  0  0  0
   32.3660   26.6670   48.8240 H   0  0  0  0  0  0  0  0  0  0  0  0
   31.4160   28.0670   49.3660 H   0  0  0  0  0  0  0  0  0  0  0  0
   33.1990   29.4420   49.5000 H   0  0  0  0  0  0  0  0  0  0  0  0
   33.7390   27.9280   50.2820 H   0  0  0  0  0  0  0  0  0  0  0  0
   35.2400   27.4800   48.3650 H   0  0  0  0  0  0  0  0  0  0  0  0
   35.1050   28.5570   46.2730 H   0  0  0  0  0  0  0  0  0  0  0  0
   33.8570   29.7510   46.9680 H   0  0  0  0  0  0  0  0  0  0  0  0
   32.9320   27.8910   45.5050 H   0  0  0  0  0  0  0  0  0  0  0  0
   33.4670   26.7120   46.7280 H   0  0  0  0  0  0  0  0  0  0  0  0
   30.7840   28.6780   46.8610 C   0  0  0  0  0  0  0  0  0  0  0  0
   30.5980   29.1520   45.5650 C   0  0  0  0  0  0  0  0  0  0  0  0
   29.3330   29.6630   45.2590 C   0  0  0  0  0  0  0  0  0  0  0  0
   28.3670   29.6730   46.2210 N   0  0  0  0  0  0  0  0  0  0  0  0
   28.5960   29.2110   47.4410 C   0  0  0  0  0  0  0  0  0  0  0  0
   29.7830   28.7170   47.7710 N   0  0  0  0  0  0  0  0  0  0  0  0
   31.4470   29.0810   44.9110 H   0  0  0  0  0  0  0  0  0  0  0  0
   29.2010   30.0250   44.2570 H   0  0  0  0  0  0  0  0  0  0  0  0
   27.5200   29.2700   48.3630 N   0  0  0  0  0  0  0  0  0  0  0  0
   26.5620   28.1930   48.5170 C   0  0  0  0  0  0  0  0  0  0  0  0
   26.2280   27.8140   47.5230 H   0  0  0  0  0  0  0  0  0  0  0  0
   25.3560   28.6410   49.3120 C   0  0  0  0  0  0  0  0  0  0  0  0
   24.5480   27.9050   49.1180 H   0  0  0  0  0  0  0  0  0  0  0  0
   24.8980   29.8850   48.9710 O   0  0  0  0  0  0  0  0  0  0  0  0
   25.8370   30.8690   48.8180 C   0  0  0  0  0  0  0  0  0  0  0  0
   27.1800   30.3430   49.2750 C   0  0  0  0  0  0  0  0  0  0  0  0
   35.9030   29.7360   50.1140 C   0  0  0  0  0  0  0  0  0  0  0  0
   35.6570   29.5180   48.7670 C   0  0  0  0  0  0  0  0  0  0  0  0
   36.2340   30.2400   47.7580 C   0  0  0  0  0  0  0  0  0  0  0  0
   37.1200   31.2560   48.1180 C   0  0  0  0  0  0  0  0  0  0  0  0
   37.3670   31.4790   49.4510 C   0  0  0  0  0  0  0  0  0  0  0  0
   36.7810   30.7430   50.4790 C   0  0  0  0  0  0  0  0  0  0  0  0
   38.2760   32.5340   49.6030 O   0  0  0  0  0  0  0  0  0  0  0  0
   38.8280   32.7250   48.3060 C   0  0  0  0  0  0  0  0  0  0  0  0
   37.8860   32.1840   47.4120 O   0  0  0  0  0  0  0  0  0  0  0  0
   35.5200   29.2280   50.9880 H   0  0  0  0  0  0  0  0  0  0  0  0
   36.0220   30.0430   46.7380 H   0  0  0  0  0  0  0  0  0  0  0  0
   37.0280   30.9800   51.5290 H   0  0  0  0  0  0  0  0  0  0  0  0
   39.7670   32.1100   48.2200 H   0  0  0  0  0  0  0  0  0  0  0  0
   39.0500   33.7880   48.1160 H   0  0  0  0  0  0  0  0  0  0  0  0
  1  2  1  0  0  0  0
  2  7  1  0  0  0  0
  2  3  1  0  0  0  0
  2  8  1  0  0  0  0
  3  9  1  0  0  0  0
  3 10  1  0  0  0  0
  4 33  1  0  0  0  0
  4  3  1  0  0  0  0
  5 13  1  0  0  0  0
  5  4  1  0  0  0  0
  6 15  1  0  0  0  0
  6  5  1  0  0  0  0
  6  1  1  0  0  0  0
 11  4  1  0  0  0  0
 12  5  1  0  0  0  0
 14  6  1  0  0  0  0
 16  1  1  0  0  0  0
 16 21  1  0  0  0  0
 17 16  2  0  0  0  0
 18 17  1  0  0  0  0
 18 19  2  0  0  0  0
 19 20  1  0  0  0  0
 20 21  2  0  0  0  0
 20 24  1  0  0  0  0
 22 17  1  0  0  0  0
 23 18  1  0  0  0  0
 24 25  1  0  0  0  0
 24 31  1  0  0  0  0
 25 27  1  0  0  0  0
 26 25  1  0  0  0  0
 28 27  1  0  0  0  0
 29 27  1  0  0  0  0
 30 29  1  0  0  0  0
 30 31  1  0  0  0  0
 32 37  1  0  0  0  0
 32 41  1  0  0  0  0
 33 32  2  0  0  0  0
 34 35  2  0  0  0  0
 34 33  1  0  0  0  0
 35 36  1  0  0  0  0
 36 38  1  0  0  0  0
 36 37  2  0  0  0  0
 37 43  1  0  0  0  0
 39 38  1  0  0  0  0
 40 35  1  0  0  0  0
 40 39  1  0  0  0  0
 42 34  1  0  0  0  0
 44 39  1  0  0  0  0
 45 39  1  0  0  0  0
M  END
>  <minimizedAffinity>
-8.13240623

>  <minimizedRMSD>
1.44569898

$$$$
