
 OpenBabel03272508503D

 39 43  0  0  0  0  0  0  0  0999 V2000
   37.1520   27.8090   32.3910 C   0  0  0  0  0  0  0  0  0  0  0  0
   36.4640   28.3330   31.3090 C   0  0  0  0  0  0  0  0  0  0  0  0
   35.5190   29.1670   31.8980 C   0  0  0  0  0  0  0  0  0  0  0  0
   35.6610   29.1180   33.2530 C   0  0  0  0  0  0  0  0  0  0  0  0
   36.6520   28.2900   33.5080 O   0  0  0  0  0  0  0  0  0  0  0  0
   36.6250   28.1410   30.2500 H   0  0  0  0  0  0  0  0  0  0  0  0
   34.8010   29.7450   31.3530 H   0  0  0  0  0  0  0  0  0  0  0  0
   33.5110   29.6360   34.3120 C   0  0  0  0  0  0  0  0  0  0  0  0
   34.8790   29.8330   34.2590 C   0  0  0  0  0  0  0  0  0  0  0  0
   35.5170   30.6900   35.1350 C   0  0  0  0  0  0  0  0  0  0  0  0
   34.7850   31.3780   36.0960 C   0  0  0  0  0  0  0  0  0  0  0  0
   35.1170   32.2640   37.0690 N   0  0  0  0  0  0  0  0  0  0  0  0
   33.9930   32.5840   37.6800 N   0  0  0  0  0  0  0  0  0  0  0  0
   32.9500   31.9290   37.1260 C   0  0  0  0  0  0  0  0  0  0  0  0
   33.4350   31.1400   36.0980 C   0  0  0  0  0  0  0  0  0  0  0  0
   32.7340   30.3120   35.2680 C   0  0  0  0  0  0  0  0  0  0  0  0
   33.0420   28.9510   33.6040 H   0  0  0  0  0  0  0  0  0  0  0  0
   36.5880   30.8300   35.0760 H   0  0  0  0  0  0  0  0  0  0  0  0
   36.1120   32.5580   37.2090 H   0  0  0  0  0  0  0  0  0  0  0  0
   31.9230   32.0260   37.4550 H   0  0  0  0  0  0  0  0  0  0  0  0
   31.6840   30.1640   35.3140 H   0  0  0  0  0  0  0  0  0  0  0  0
   38.2550   26.8680   32.2860 C   0  0  0  0  0  0  0  0  0  0  0  0
   39.3220   27.2500   31.7580 O   0  0  0  0  0  0  0  0  0  0  0  0
   37.4400   23.3080   32.3690 C   0  0  0  0  0  0  0  0  0  0  0  0
   37.7570   22.9360   33.6790 C   0  0  0  0  0  0  0  0  0  0  0  0
   38.2460   23.8990   34.5230 C   0  0  0  0  0  0  0  0  0  0  0  0
   38.4060   25.1560   34.0830 N   0  0  0  0  0  0  0  0  0  0  0  0
   38.0920   25.5100   32.7960 C   0  0  0  0  0  0  0  0  0  0  0  0
   37.6070   24.5710   31.9450 N   0  0  0  0  0  0  0  0  0  0  0  0
   37.0480   22.6310   31.6210 H   0  0  0  0  0  0  0  0  0  0  0  0
   37.6090   21.9270   33.9690 H   0  0  0  0  0  0  0  0  0  0  0  0
   38.5890   23.5910   35.8670 N   0  0  0  0  0  0  0  0  0  0  0  0
   37.6070   23.3240   36.8930 C   0  0  0  0  0  3  0  0  0  0  0  0
   36.6360   23.7900   36.7480 H   0  0  0  0  0  0  0  0  0  0  0  0
   38.2010   23.7870   38.2250 C   0  0  0  0  0  3  0  0  0  0  0  0
   37.4400   23.7210   39.0370 H   0  0  0  0  0  0  0  0  0  0  0  0
   39.3610   23.1090   38.5420 O   0  0  0  0  0  0  0  0  0  0  0  0
   40.0480   22.5890   37.4750 C   0  0  0  0  0  2  0  0  0  0  0  0
   39.9740   23.5270   36.2900 C   0  0  0  0  0  2  0  0  0  0  0  0
  1  5  1  0  0  0  0
  2  3  1  0  0  0  0
  2  1  2  0  0  0  0
  3  4  2  0  0  0  0
  4  5  1  0  0  0  0
  4  9  1  0  0  0  0
  6  2  1  0  0  0  0
  7  3  1  0  0  0  0
  8 16  1  0  0  0  0
  9  8  2  0  0  0  0
  9 10  1  0  0  0  0
 10 11  2  0  0  0  0
 11 15  1  0  0  0  0
 11 12  1  0  0  0  0
 12 19  1  0  0  0  0
 12 13  1  0  0  0  0
 14 20  1  0  0  0  0
 14 13  2  0  0  0  0
 15 14  1  0  0  0  0
 16 21  1  0  0  0  0
 16 15  2  0  0  0  0
 17  8  1  0  0  0  0
 18 10  1  0  0  0  0
 22  1  1  0  0  0  0
 22 28  1  0  0  0  0
 23 22  2  0  0  0  0
 24 25  1  0  0  0  0
 25 31  1  0  0  0  0
 25 26  2  0  0  0  0
 26 32  1  0  0  0  0
 27 26  1  0  0  0  0
 28 27  2  0  0  0  0
 29 24  2  0  0  0  0
 29 28  1  0  0  0  0
 30 24  1  0  0  0  0
 32 39  1  0  0  0  0
 32 33  1  0  0  0  0
 33 35  1  0  0  0  0
 34 33  1  0  0  0  0
 35 37  1  0  0  0  0
 35 36  1  0  0  0  0
 38 37  1  0  0  0  0
 39 38  1  0  0  0  0
M  END
>  <minimizedAffinity>
-6.61087418

$$$$

 OpenBabel03272508503D

 39 43  0  0  0  0  0  0  0  0999 V2000
   36.7170   27.4200   32.8370 C   0  0  0  0  0  0  0  0  0  0  0  0
   36.2630   28.1230   31.7340 C   0  0  0  0  0  0  0  0  0  0  0  0
   35.6030   29.2140   32.2930 C   0  0  0  0  0  0  0  0  0  0  0  0
   35.6770   29.1330   33.6520 C   0  0  0  0  0  0  0  0  0  0  0  0
   36.3540   28.0410   33.9380 O   0  0  0  0  0  0  0  0  0  0  0  0
   36.3930   27.8830   30.6810 H   0  0  0  0  0  0  0  0  0  0  0  0
   35.1200   29.9820   31.7250 H   0  0  0  0  0  0  0  0  0  0  0  0
   35.9810   30.8550   35.3710 C   0  0  0  0  0  0  0  0  0  0  0  0
   35.1210   30.0630   34.6320 C   0  0  0  0  0  0  0  0  0  0  0  0
   33.7520   30.1340   34.8020 C   0  0  0  0  0  0  0  0  0  0  0  0
   33.2090   31.0140   35.7320 C   0  0  0  0  0  0  0  0  0  0  0  0
   31.9400   31.3040   36.1170 N   0  0  0  0  0  0  0  0  0  0  0  0
   32.0370   32.2320   37.0490 N   0  0  0  0  0  0  0  0  0  0  0  0
   33.3310   32.5450   37.2720 C   0  0  0  0  0  0  0  0  0  0  0  0
   34.1120   31.7710   36.4320 C   0  0  0  0  0  0  0  0  0  0  0  0
   35.4740   31.7570   36.3200 C   0  0  0  0  0  0  0  0  0  0  0  0
   37.0560   30.7720   35.2080 H   0  0  0  0  0  0  0  0  0  0  0  0
   33.0970   29.5060   34.2150 H   0  0  0  0  0  0  0  0  0  0  0  0
   31.1230   30.8150   35.6810 H   0  0  0  0  0  0  0  0  0  0  0  0
   33.6670   33.2810   37.9920 H   0  0  0  0  0  0  0  0  0  0  0  0
   36.1290   32.3680   36.8900 H   0  0  0  0  0  0  0  0  0  0  0  0
   37.4760   26.1830   32.7670 C   0  0  0  0  0  0  0  0  0  0  0  0
   37.0110   25.2280   32.1070 O   0  0  0  0  0  0  0  0  0  0  0  0
   40.8410   27.0400   33.9040 C   0  0  0  0  0  0  0  0  0  0  0  0
   41.1790   25.9710   34.7400 C   0  0  0  0  0  0  0  0  0  0  0  0
   40.2610   24.9680   34.9100 C   0  0  0  0  0  0  0  0  0  0  0  0
   39.0770   25.0310   34.2820 N   0  0  0  0  0  0  0  0  0  0  0  0
   38.7560   26.0840   33.4650 C   0  0  0  0  0  0  0  0  0  0  0  0
   39.6510   27.0870   33.2840 N   0  0  0  0  0  0  0  0  0  0  0  0
   41.4880   27.8830   33.6990 H   0  0  0  0  0  0  0  0  0  0  0  0
   42.1310   25.9770   35.2090 H   0  0  0  0  0  0  0  0  0  0  0  0
   40.5400   23.8520   35.7450 N   0  0  0  0  0  0  0  0  0  0  0  0
   39.5210   23.1420   36.4820 C   0  0  0  0  0  3  0  0  0  0  0  0
   38.6400   23.7220   36.7470 H   0  0  0  0  0  0  0  0  0  0  0  0
   40.1740   22.5970   37.7540 C   0  0  0  0  0  3  0  0  0  0  0  0
   39.4060   22.1450   38.4250 H   0  0  0  0  0  0  0  0  0  0  0  0
   41.2040   21.7220   37.4770 O   0  0  0  0  0  0  0  0  0  0  0  0
   41.8030   21.8880   36.2550 C   0  0  0  0  0  2  0  0  0  0  0  0
   41.8930   23.3570   35.9050 C   0  0  0  0  0  2  0  0  0  0  0  0
  1  5  1  0  0  0  0
  2  3  1  0  0  0  0
  2  1  2  0  0  0  0
  3  4  2  0  0  0  0
  4  5  1  0  0  0  0
  4  9  1  0  0  0  0
  6  2  1  0  0  0  0
  7  3  1  0  0  0  0
  8 16  1  0  0  0  0
  9 10  1  0  0  0  0
  9  8  2  0  0  0  0
 10 11  2  0  0  0  0
 11 12  1  0  0  0  0
 11 15  1  0  0  0  0
 12 13  1  0  0  0  0
 13 14  2  0  0  0  0
 14 20  1  0  0  0  0
 15 14  1  0  0  0  0
 16 15  2  0  0  0  0
 16 21  1  0  0  0  0
 17  8  1  0  0  0  0
 18 10  1  0  0  0  0
 19 12  1  0  0  0  0
 22  1  1  0  0  0  0
 22 28  1  0  0  0  0
 23 22  2  0  0  0  0
 24 25  1  0  0  0  0
 25 26  2  0  0  0  0
 25 31  1  0  0  0  0
 26 32  1  0  0  0  0
 27 26  1  0  0  0  0
 28 27  2  0  0  0  0
 29 28  1  0  0  0  0
 29 24  2  0  0  0  0
 30 24  1  0  0  0  0
 32 39  1  0  0  0  0
 32 33  1  0  0  0  0
 33 34  1  0  0  0  0
 33 35  1  0  0  0  0
 35 36  1  0  0  0  0
 37 35  1  0  0  0  0
 38 37  1  0  0  0  0
 39 38  1  0  0  0  0
M  END
>  <minimizedAffinity>
-6.48011589

$$$$

 OpenBabel03272508503D

 39 43  0  0  0  0  0  0  0  0999 V2000
   37.3330   28.2360   31.7360 C   0  0  0  0  0  0  0  0  0  0  0  0
   36.7280   28.9830   30.7390 C   0  0  0  0  0  0  0  0  0  0  0  0
   35.7850   29.7410   31.4290 C   0  0  0  0  0  0  0  0  0  0  0  0
   35.8510   29.4360   32.7560 C   0  0  0  0  0  0  0  0  0  0  0  0
   36.7930   28.5280   32.8980 O   0  0  0  0  0  0  0  0  0  0  0  0
   36.9390   28.9810   29.6720 H   0  0  0  0  0  0  0  0  0  0  0  0
   35.1230   30.4440   30.9670 H   0  0  0  0  0  0  0  0  0  0  0  0
   33.6930   29.7020   33.8890 C   0  0  0  0  0  0  0  0  0  0  0  0
   35.0440   29.9930   33.8400 C   0  0  0  0  0  0  0  0  0  0  0  0
   35.6430   30.7960   34.7910 C   0  0  0  0  0  0  0  0  0  0  0  0
   34.8870   31.3330   35.8270 C   0  0  0  0  0  0  0  0  0  0  0  0
   35.1810   32.1360   36.8820 N   0  0  0  0  0  0  0  0  0  0  0  0
   34.0500   32.3180   37.5360 N   0  0  0  0  0  0  0  0  0  0  0  0
   33.0410   31.6550   36.9320 C   0  0  0  0  0  0  0  0  0  0  0  0
   33.5550   31.0090   35.8210 C   0  0  0  0  0  0  0  0  0  0  0  0
   32.8940   30.2250   34.9190 C   0  0  0  0  0  0  0  0  0  0  0  0
   33.2560   29.0640   33.1210 H   0  0  0  0  0  0  0  0  0  0  0  0
   36.7010   31.0120   34.7340 H   0  0  0  0  0  0  0  0  0  0  0  0
   36.1570   32.4790   37.0390 H   0  0  0  0  0  0  0  0  0  0  0  0
   32.0160   31.6510   37.2810 H   0  0  0  0  0  0  0  0  0  0  0  0
   31.8560   30.0050   34.9640 H   0  0  0  0  0  0  0  0  0  0  0  0
   38.4010   27.2770   31.5090 C   0  0  0  0  0  0  0  0  0  0  0  0
   38.5480   26.8000   30.3620 O   0  0  0  0  0  0  0  0  0  0  0  0
   41.3550   27.1080   33.6530 C   0  0  0  0  0  0  0  0  0  0  0  0
   40.9660   26.2270   34.6670 C   0  0  0  0  0  0  0  0  0  0  0  0
   39.7030   25.6990   34.6140 C   0  0  0  0  0  0  0  0  0  0  0  0
   38.8800   26.0310   33.6070 N   0  0  0  0  0  0  0  0  0  0  0  0
   39.2720   26.8950   32.6180 C   0  0  0  0  0  0  0  0  0  0  0  0
   40.5190   27.4290   32.6530 N   0  0  0  0  0  0  0  0  0  0  0  0
   42.3260   27.5810   33.5960 H   0  0  0  0  0  0  0  0  0  0  0  0
   41.6600   26.0020   35.4370 H   0  0  0  0  0  0  0  0  0  0  0  0
   39.2420   24.7980   35.6110 N   0  0  0  0  0  0  0  0  0  0  0  0
   39.9520   23.5960   35.9810 C   0  0  0  0  0  3  0  0  0  0  0  0
   40.5790   23.1620   35.2070 H   0  0  0  0  0  0  0  0  0  0  0  0
   38.9090   22.5680   36.4280 C   0  0  0  0  0  3  0  0  0  0  0  0
   39.3890   21.5780   36.6070 H   0  0  0  0  0  0  0  0  0  0  0  0
   38.1850   23.0020   37.5190 O   0  0  0  0  0  0  0  0  0  0  0  0
   38.1130   24.3630   37.6740 C   0  0  0  0  0  2  0  0  0  0  0  0
   38.0050   25.0430   36.3270 C   0  0  0  0  0  2  0  0  0  0  0  0
  1  5  1  0  0  0  0
  2  3  1  0  0  0  0
  2  1  2  0  0  0  0
  3  4  2  0  0  0  0
  4  5  1  0  0  0  0
  4  9  1  0  0  0  0
  6  2  1  0  0  0  0
  7  3  1  0  0  0  0
  8 16  1  0  0  0  0
  9  8  2  0  0  0  0
  9 10  1  0  0  0  0
 10 11  2  0  0  0  0
 11 12  1  0  0  0  0
 12 19  1  0  0  0  0
 12 13  1  0  0  0  0
 14 20  1  0  0  0  0
 14 13  2  0  0  0  0
 15 11  1  0  0  0  0
 15 14  1  0  0  0  0
 16 21  1  0  0  0  0
 16 15  2  0  0  0  0
 17  8  1  0  0  0  0
 18 10  1  0  0  0  0
 22  1  1  0  0  0  0
 22 28  1  0  0  0  0
 23 22  2  0  0  0  0
 24 25  1  0  0  0  0
 25 31  1  0  0  0  0
 26 25  2  0  0  0  0
 26 32  1  0  0  0  0
 27 26  1  0  0  0  0
 28 29  1  0  0  0  0
 28 27  2  0  0  0  0
 29 24  2  0  0  0  0
 30 24  1  0  0  0  0
 32 33  1  0  0  0  0
 32 39  1  0  0  0  0
 33 35  1  0  0  0  0
 34 33  1  0  0  0  0
 35 36  1  0  0  0  0
 35 37  1  0  0  0  0
 37 38  1  0  0  0  0
 39 38  1  0  0  0  0
M  END
>  <minimizedAffinity>
-6.38554096

$$$$

 OpenBabel03272508503D

 39 43  0  0  0  0  0  0  0  0999 V2000
   36.7390   27.8490   32.3710 C   0  0  0  0  0  0  0  0  0  0  0  0
   37.3780   27.3480   33.4930 C   0  0  0  0  0  0  0  0  0  0  0  0
   36.7890   28.0490   34.5420 C   0  0  0  0  0  0  0  0  0  0  0  0
   35.8600   28.9100   34.0380 C   0  0  0  0  0  0  0  0  0  0  0  0
   35.8610   28.7590   32.7310 O   0  0  0  0  0  0  0  0  0  0  0  0
   38.1530   26.5860   33.5440 H   0  0  0  0  0  0  0  0  0  0  0  0
   37.0440   27.9170   35.5730 H   0  0  0  0  0  0  0  0  0  0  0  0
   33.6400   29.7870   34.5990 C   0  0  0  0  0  0  0  0  0  0  0  0
   35.0090   29.8380   34.7800 C   0  0  0  0  0  0  0  0  0  0  0  0
   35.5870   30.7460   35.6470 C   0  0  0  0  0  0  0  0  0  0  0  0
   34.7900   31.6350   36.3590 C   0  0  0  0  0  0  0  0  0  0  0  0
   35.0560   32.6160   37.2590 N   0  0  0  0  0  0  0  0  0  0  0  0
   33.8910   33.1310   37.6020 N   0  0  0  0  0  0  0  0  0  0  0  0
   32.8870   32.5090   36.9480 C   0  0  0  0  0  0  0  0  0  0  0  0
   33.4420   31.5350   36.1360 C   0  0  0  0  0  0  0  0  0  0  0  0
   32.7990   30.6680   35.2990 C   0  0  0  0  0  0  0  0  0  0  0  0
   33.2200   29.0560   33.9070 H   0  0  0  0  0  0  0  0  0  0  0  0
   36.6610   30.7700   35.7750 H   0  0  0  0  0  0  0  0  0  0  0  0
   36.0400   32.8280   37.5460 H   0  0  0  0  0  0  0  0  0  0  0  0
   31.8380   32.7530   37.0620 H   0  0  0  0  0  0  0  0  0  0  0  0
   31.7460   30.6330   35.1640 H   0  0  0  0  0  0  0  0  0  0  0  0
   37.0140   27.4210   31.0100 C   0  0  0  0  0  0  0  0  0  0  0  0
   36.7050   28.1810   30.0660 O   0  0  0  0  0  0  0  0  0  0  0  0
   39.5190   24.9390   30.0520 C   0  0  0  0  0  0  0  0  0  0  0  0
   38.8810   23.7230   30.3130 C   0  0  0  0  0  0  0  0  0  0  0  0
   37.6060   23.7550   30.8130 C   0  0  0  0  0  0  0  0  0  0  0  0
   37.0050   24.9340   31.0360 N   0  0  0  0  0  0  0  0  0  0  0  0
   37.6390   26.1220   30.7770 C   0  0  0  0  0  0  0  0  0  0  0  0
   38.9030   26.1100   30.2820 N   0  0  0  0  0  0  0  0  0  0  0  0
   40.5220   25.0300   29.6580 H   0  0  0  0  0  0  0  0  0  0  0  0
   39.4070   22.8230   30.1160 H   0  0  0  0  0  0  0  0  0  0  0  0
   36.8990   22.5570   31.1000 N   0  0  0  0  0  0  0  0  0  0  0  0
   37.4790   21.2420   30.9550 C   0  0  0  0  0  3  0  0  0  0  0  0
   38.2740   21.1570   30.2180 H   0  0  0  0  0  0  0  0  0  0  0  0
   36.3450   20.2800   30.5950 C   0  0  0  0  0  3  0  0  0  0  0  0
   36.7520   19.2710   30.3480 H   0  0  0  0  0  0  0  0  0  0  0  0
   35.3770   20.2250   31.5770 O   0  0  0  0  0  0  0  0  0  0  0  0
   35.2870   21.3360   32.3760 C   0  0  0  0  0  2  0  0  0  0  0  0
   35.5260   22.5910   31.5650 C   0  0  0  0  0  2  0  0  0  0  0  0
  1  5  1  0  0  0  0
  1  2  2  0  0  0  0
  2  6  1  0  0  0  0
  2  3  1  0  0  0  0
  3  7  1  0  0  0  0
  4  3  2  0  0  0  0
  4  9  1  0  0  0  0
  5  4  1  0  0  0  0
  8  9  2  0  0  0  0
  8 16  1  0  0  0  0
  9 10  1  0  0  0  0
 10 18  1  0  0  0  0
 10 11  2  0  0  0  0
 11 12  1  0  0  0  0
 12 19  1  0  0  0  0
 12 13  1  0  0  0  0
 14 20  1  0  0  0  0
 14 13  2  0  0  0  0
 15 11  1  0  0  0  0
 15 14  1  0  0  0  0
 16 15  2  0  0  0  0
 17  8  1  0  0  0  0
 21 16  1  0  0  0  0
 22  1  1  0  0  0  0
 23 22  2  0  0  0  0
 24 29  2  0  0  0  0
 24 25  1  0  0  0  0
 25 26  2  0  0  0  0
 26 27  1  0  0  0  0
 26 32  1  0  0  0  0
 28 22  1  0  0  0  0
 28 27  2  0  0  0  0
 29 28  1  0  0  0  0
 30 24  1  0  0  0  0
 31 25  1  0  0  0  0
 32 39  1  0  0  0  0
 33 32  1  0  0  0  0
 34 33  1  0  0  0  0
 35 33  1  0  0  0  0
 35 37  1  0  0  0  0
 36 35  1  0  0  0  0
 37 38  1  0  0  0  0
 39 38  1  0  0  0  0
M  END
>  <minimizedAffinity>
-6.33453703

$$$$

 OpenBabel03272508503D

 39 43  0  0  0  0  0  0  0  0999 V2000
   38.1570   26.4670   33.8450 C   0  0  0  0  0  0  0  0  0  0  0  0
   38.1300   27.1140   35.0690 C   0  0  0  0  0  0  0  0  0  0  0  0
   39.0120   26.3700   35.8490 C   0  0  0  0  0  0  0  0  0  0  0  0
   39.5150   25.3470   35.1010 C   0  0  0  0  0  0  0  0  0  0  0  0
   38.9770   25.4410   33.9040 O   0  0  0  0  0  0  0  0  0  0  0  0
   37.5580   27.9940   35.3550 H   0  0  0  0  0  0  0  0  0  0  0  0
   39.2400   26.5860   36.8720 H   0  0  0  0  0  0  0  0  0  0  0  0
   41.7310   24.3070   34.9510 C   0  0  0  0  0  0  0  0  0  0  0  0
   40.4710   24.3240   35.5200 C   0  0  0  0  0  0  0  0  0  0  0  0
   40.0990   23.3950   36.4730 C   0  0  0  0  0  0  0  0  0  0  0  0
   40.9980   22.4150   36.8800 C   0  0  0  0  0  0  0  0  0  0  0  0
   40.9280   21.3930   37.7700 N   0  0  0  0  0  0  0  0  0  0  0  0
   42.1000   20.7890   37.7350 N   0  0  0  0  0  0  0  0  0  0  0  0
   42.9180   21.3950   36.8490 C   0  0  0  0  0  0  0  0  0  0  0  0
   42.2290   22.4520   36.2800 C   0  0  0  0  0  0  0  0  0  0  0  0
   42.6690   23.3340   35.3340 C   0  0  0  0  0  0  0  0  0  0  0  0
   41.9890   25.0570   34.2030 H   0  0  0  0  0  0  0  0  0  0  0  0
   39.1080   23.4250   36.9050 H   0  0  0  0  0  0  0  0  0  0  0  0
   40.0540   21.2200   38.3210 H   0  0  0  0  0  0  0  0  0  0  0  0
   43.9350   21.0830   36.6410 H   0  0  0  0  0  0  0  0  0  0  0  0
   43.6380   23.3170   34.9020 H   0  0  0  0  0  0  0  0  0  0  0  0
   37.3880   26.8770   32.6820 C   0  0  0  0  0  0  0  0  0  0  0  0
   37.4960   28.0550   32.2740 O   0  0  0  0  0  0  0  0  0  0  0  0
   34.6580   25.5480   30.6510 C   0  0  0  0  0  0  0  0  0  0  0  0
   34.8260   24.1630   30.7540 C   0  0  0  0  0  0  0  0  0  0  0  0
   35.8660   23.6930   31.5120 C   0  0  0  0  0  0  0  0  0  0  0  0
   36.6870   24.5560   32.1300 N   0  0  0  0  0  0  0  0  0  0  0  0
   36.5130   25.9120   32.0230 C   0  0  0  0  0  0  0  0  0  0  0  0
   35.4880   26.3970   31.2760 N   0  0  0  0  0  0  0  0  0  0  0  0
   33.8720   26.0260   30.0800 H   0  0  0  0  0  0  0  0  0  0  0  0
   34.1450   23.5310   30.2420 H   0  0  0  0  0  0  0  0  0  0  0  0
   36.0950   22.2990   31.6600 N   0  0  0  0  0  0  0  0  0  0  0  0
   37.2370   21.6200   31.0920 C   0  0  0  0  0  3  0  0  0  0  0  0
   37.6620   22.0770   30.2020 H   0  0  0  0  0  0  0  0  0  0  0  0
   36.8040   20.1870   30.7730 C   0  0  0  0  0  3  0  0  0  0  0  0
   37.6080   19.6510   30.2170 H   0  0  0  0  0  0  0  0  0  0  0  0
   36.4020   19.5010   31.9010 O   0  0  0  0  0  0  0  0  0  0  0  0
   35.9540   20.2810   32.9350 C   0  0  0  0  0  2  0  0  0  0  0  0
   35.1730   21.4640   32.4050 C   0  0  0  0  0  2  0  0  0  0  0  0
  1  5  1  0  0  0  0
  1  2  2  0  0  0  0
  2  6  1  0  0  0  0
  2  3  1  0  0  0  0
  3  7  1  0  0  0  0
  4  9  1  0  0  0  0
  4  3  2  0  0  0  0
  5  4  1  0  0  0  0
  8 16  2  0  0  0  0
  8  9  1  0  0  0  0
  9 10  2  0  0  0  0
 10 11  1  0  0  0  0
 10 18  1  0  0  0  0
 11 12  1  0  0  0  0
 12 19  1  0  0  0  0
 13 12  1  0  0  0  0
 14 13  2  0  0  0  0
 15 14  1  0  0  0  0
 15 11  2  0  0  0  0
 16 15  1  0  0  0  0
 17  8  1  0  0  0  0
 20 14  1  0  0  0  0
 21 16  1  0  0  0  0
 22  1  1  0  0  0  0
 23 22  2  0  0  0  0
 24 25  2  0  0  0  0
 24 29  1  0  0  0  0
 25 26  1  0  0  0  0
 26 32  1  0  0  0  0
 26 27  2  0  0  0  0
 28 27  1  0  0  0  0
 28 22  1  0  0  0  0
 29 28  2  0  0  0  0
 30 24  1  0  0  0  0
 31 25  1  0  0  0  0
 32 39  1  0  0  0  0
 33 32  1  0  0  0  0
 34 33  1  0  0  0  0
 35 33  1  0  0  0  0
 35 37  1  0  0  0  0
 36 35  1  0  0  0  0
 37 38  1  0  0  0  0
 39 38  1  0  0  0  0
M  END
>  <minimizedAffinity>
-6.30474615

$$$$

 OpenBabel03272508503D

 39 43  0  0  0  0  0  0  0  0999 V2000
   38.8160   24.5620   35.4980 C   0  0  0  0  0  0  0  0  0  0  0  0
   40.0150   25.1870   35.1940 C   0  0  0  0  0  0  0  0  0  0  0  0
   39.6170   26.3460   34.5320 C   0  0  0  0  0  0  0  0  0  0  0  0
   38.2560   26.3760   34.4620 C   0  0  0  0  0  0  0  0  0  0  0  0
   37.8140   25.2870   35.0530 O   0  0  0  0  0  0  0  0  0  0  0  0
   41.0250   24.8540   35.4210 H   0  0  0  0  0  0  0  0  0  0  0  0
   40.2930   27.0810   34.1460 H   0  0  0  0  0  0  0  0  0  0  0  0
   36.5260   28.1040   34.6450 C   0  0  0  0  0  0  0  0  0  0  0  0
   37.4180   27.4060   33.8520 C   0  0  0  0  0  0  0  0  0  0  0  0
   37.5320   27.6630   32.4990 C   0  0  0  0  0  0  0  0  0  0  0  0
   36.7400   28.6400   31.9050 C   0  0  0  0  0  0  0  0  0  0  0  0
   36.6250   29.1080   30.6360 N   0  0  0  0  0  0  0  0  0  0  0  0
   35.7010   30.0480   30.6690 N   0  0  0  0  0  0  0  0  0  0  0  0
   35.2210   30.1960   31.9220 C   0  0  0  0  0  0  0  0  0  0  0  0
   35.8770   29.2960   32.7440 C   0  0  0  0  0  0  0  0  0  0  0  0
   35.7080   29.0980   34.0850 C   0  0  0  0  0  0  0  0  0  0  0  0
   36.4650   27.8740   35.7090 H   0  0  0  0  0  0  0  0  0  0  0  0
   38.2360   27.1060   31.8960 H   0  0  0  0  0  0  0  0  0  0  0  0
   37.2150   28.7160   29.8650 H   0  0  0  0  0  0  0  0  0  0  0  0
   34.4540   30.9070   32.2040 H   0  0  0  0  0  0  0  0  0  0  0  0
   35.0210   29.6380   34.6880 H   0  0  0  0  0  0  0  0  0  0  0  0
   38.7060   23.2950   36.2020 C   0  0  0  0  0  0  0  0  0  0  0  0
   39.5680   23.0090   37.0620 O   0  0  0  0  0  0  0  0  0  0  0  0
   35.6860   21.2870   36.6440 C   0  0  0  0  0  0  0  0  0  0  0  0
   35.4980   20.7100   35.3850 C   0  0  0  0  0  0  0  0  0  0  0  0
   36.3980   21.0080   34.3960 C   0  0  0  0  0  0  0  0  0  0  0  0
   37.4250   21.8330   34.6520 N   0  0  0  0  0  0  0  0  0  0  0  0
   37.6000   22.3940   35.8910 C   0  0  0  0  0  0  0  0  0  0  0  0
   36.7190   22.1110   36.8830 N   0  0  0  0  0  0  0  0  0  0  0  0
   35.0380   21.1210   37.4950 H   0  0  0  0  0  0  0  0  0  0  0  0
   34.6670   20.0650   35.2430 H   0  0  0  0  0  0  0  0  0  0  0  0
   36.2670   20.4560   33.0930 N   0  0  0  0  0  0  0  0  0  0  0  0
   35.5560   19.2280   32.8220 C   0  0  0  0  0  3  0  0  0  0  0  0
   35.5150   18.5160   33.6430 H   0  0  0  0  0  0  0  0  0  0  0  0
   36.2240   18.5720   31.6110 C   0  0  0  0  0  3  0  0  0  0  0  0
   35.7970   17.5580   31.4310 H   0  0  0  0  0  0  0  0  0  0  0  0
   36.1640   19.3700   30.4870 O   0  0  0  0  0  0  0  0  0  0  0  0
   36.0410   20.7150   30.7270 C   0  0  0  0  0  2  0  0  0  0  0  0
   36.8530   21.1110   31.9400 C   0  0  0  0  0  2  0  0  0  0  0  0
  1 22  1  0  0  0  0
  2  6  1  0  0  0  0
  2  1  2  0  0  0  0
  3  2  1  0  0  0  0
  4  3  2  0  0  0  0
  4  5  1  0  0  0  0
  5  1  1  0  0  0  0
  7  3  1  0  0  0  0
  8 17  1  0  0  0  0
  9  4  1  0  0  0  0
  9  8  2  0  0  0  0
 10  9  1  0  0  0  0
 11 10  2  0  0  0  0
 11 15  1  0  0  0  0
 12 13  1  0  0  0  0
 12 11  1  0  0  0  0
 13 14  2  0  0  0  0
 14 20  1  0  0  0  0
 14 15  1  0  0  0  0
 15 16  2  0  0  0  0
 16  8  1  0  0  0  0
 16 21  1  0  0  0  0
 18 10  1  0  0  0  0
 19 12  1  0  0  0  0
 22 23  2  0  0  0  0
 24 29  1  0  0  0  0
 24 30  1  0  0  0  0
 25 24  2  0  0  0  0
 26 27  2  0  0  0  0
 26 25  1  0  0  0  0
 27 28  1  0  0  0  0
 28 22  1  0  0  0  0
 28 29  2  0  0  0  0
 31 25  1  0  0  0  0
 32 26  1  0  0  0  0
 33 32  1  0  0  0  0
 33 34  1  0  0  0  0
 35 33  1  0  0  0  0
 36 35  1  0  0  0  0
 37 38  1  0  0  0  0
 37 35  1  0  0  0  0
 38 39  1  0  0  0  0
 39 32  1  0  0  0  0
M  END
>  <minimizedAffinity>
-6.29504585

$$$$

 OpenBabel03272508503D

 39 43  0  0  0  0  0  0  0  0999 V2000
   38.5570   24.8550   35.4880 C   0  0  0  0  0  0  0  0  0  0  0  0
   38.3330   26.0630   36.1270 C   0  0  0  0  0  0  0  0  0  0  0  0
   38.3770   26.9920   35.0910 C   0  0  0  0  0  0  0  0  0  0  0  0
   38.6160   26.3410   33.9170 C   0  0  0  0  0  0  0  0  0  0  0  0
   38.7180   25.0600   34.1990 O   0  0  0  0  0  0  0  0  0  0  0  0
   38.1630   26.2440   37.1860 H   0  0  0  0  0  0  0  0  0  0  0  0
   38.2430   28.0460   35.2210 H   0  0  0  0  0  0  0  0  0  0  0  0
   40.0030   27.1420   32.0610 C   0  0  0  0  0  0  0  0  0  0  0  0
   38.7420   26.9250   32.5840 C   0  0  0  0  0  0  0  0  0  0  0  0
   37.6020   27.2490   31.8730 C   0  0  0  0  0  0  0  0  0  0  0  0
   37.7070   27.8070   30.6030 C   0  0  0  0  0  0  0  0  0  0  0  0
   36.7970   28.2210   29.6840 N   0  0  0  0  0  0  0  0  0  0  0  0
   37.4870   28.6670   28.6530 N   0  0  0  0  0  0  0  0  0  0  0  0
   38.8120   28.5510   28.8840 C   0  0  0  0  0  0  0  0  0  0  0  0
   38.9830   27.9960   30.1410 C   0  0  0  0  0  0  0  0  0  0  0  0
   40.1530   27.7030   30.7820 C   0  0  0  0  0  0  0  0  0  0  0  0
   40.8790   26.8720   32.6510 H   0  0  0  0  0  0  0  0  0  0  0  0
   36.6250   27.0720   32.3000 H   0  0  0  0  0  0  0  0  0  0  0  0
   35.7700   28.1470   29.8760 H   0  0  0  0  0  0  0  0  0  0  0  0
   39.5840   28.8490   28.1850 H   0  0  0  0  0  0  0  0  0  0  0  0
   41.1190   27.8710   30.3740 H   0  0  0  0  0  0  0  0  0  0  0  0
   38.6040   23.5670   36.1590 C   0  0  0  0  0  0  0  0  0  0  0  0
   39.5370   23.3400   36.9600 O   0  0  0  0  0  0  0  0  0  0  0  0
   35.7700   21.3240   36.6980 C   0  0  0  0  0  0  0  0  0  0  0  0
   35.5970   20.7200   35.4490 C   0  0  0  0  0  0  0  0  0  0  0  0
   36.4440   21.0800   34.4340 C   0  0  0  0  0  0  0  0  0  0  0  0
   37.4060   21.9890   34.6560 N   0  0  0  0  0  0  0  0  0  0  0  0
   37.5670   22.5750   35.8850 C   0  0  0  0  0  0  0  0  0  0  0  0
   36.7380   22.2310   36.9030 N   0  0  0  0  0  0  0  0  0  0  0  0
   35.1610   21.1140   37.5670 H   0  0  0  0  0  0  0  0  0  0  0  0
   34.8190   20.0080   35.3340 H   0  0  0  0  0  0  0  0  0  0  0  0
   36.3240   20.5060   33.1400 N   0  0  0  0  0  0  0  0  0  0  0  0
   35.4910   19.3610   32.8560 C   0  0  0  0  0  3  0  0  0  0  0  0
   35.3180   18.6860   33.6900 H   0  0  0  0  0  0  0  0  0  0  0  0
   36.1450   18.5930   31.7050 C   0  0  0  0  0  3  0  0  0  0  0  0
   35.6120   17.6310   31.5250 H   0  0  0  0  0  0  0  0  0  0  0  0
   36.2460   19.3570   30.5600 O   0  0  0  0  0  0  0  0  0  0  0  0
   36.2690   20.7140   30.7580 C   0  0  0  0  0  2  0  0  0  0  0  0
   37.0500   21.0510   32.0090 C   0  0  0  0  0  2  0  0  0  0  0  0
  1  2  2  0  0  0  0
  1 22  1  0  0  0  0
  2  6  1  0  0  0  0
  3  7  1  0  0  0  0
  3  2  1  0  0  0  0
  4  5  1  0  0  0  0
  4  3  2  0  0  0  0
  5  1  1  0  0  0  0
  8  9  1  0  0  0  0
  8 17  1  0  0  0  0
  9  4  1  0  0  0  0
 10 18  1  0  0  0  0
 10  9  2  0  0  0  0
 11 10  1  0  0  0  0
 12 19  1  0  0  0  0
 12 11  1  0  0  0  0
 13 14  2  0  0  0  0
 13 12  1  0  0  0  0
 14 15  1  0  0  0  0
 15 11  2  0  0  0  0
 15 16  1  0  0  0  0
 16  8  2  0  0  0  0
 20 14  1  0  0  0  0
 21 16  1  0  0  0  0
 22 23  2  0  0  0  0
 24 29  1  0  0  0  0
 24 30  1  0  0  0  0
 25 24  2  0  0  0  0
 26 27  2  0  0  0  0
 26 25  1  0  0  0  0
 27 28  1  0  0  0  0
 28 22  1  0  0  0  0
 28 29  2  0  0  0  0
 31 25  1  0  0  0  0
 32 26  1  0  0  0  0
 33 32  1  0  0  0  0
 33 34  1  0  0  0  0
 35 33  1  0  0  0  0
 36 35  1  0  0  0  0
 37 38  1  0  0  0  0
 37 35  1  0  0  0  0
 38 39  1  0  0  0  0
 39 32  1  0  0  0  0
M  END
>  <minimizedAffinity>
-6.2786088

$$$$

 OpenBabel03272508503D

 39 43  0  0  0  0  0  0  0  0999 V2000
   37.5080   26.6980   34.2860 C   0  0  0  0  0  0  0  0  0  0  0  0
   37.8010   27.5130   35.3680 C   0  0  0  0  0  0  0  0  0  0  0  0
   38.5850   26.7010   36.1820 C   0  0  0  0  0  0  0  0  0  0  0  0
   38.7300   25.4810   35.5910 C   0  0  0  0  0  0  0  0  0  0  0  0
   38.0680   25.5200   34.4540 O   0  0  0  0  0  0  0  0  0  0  0  0
   37.4930   28.5420   35.5390 H   0  0  0  0  0  0  0  0  0  0  0  0
   38.9960   27.0080   37.1220 H   0  0  0  0  0  0  0  0  0  0  0  0
   39.0110   23.6760   37.2260 C   0  0  0  0  0  0  0  0  0  0  0  0
   39.4710   24.3270   36.0970 C   0  0  0  0  0  0  0  0  0  0  0  0
   40.6130   23.9110   35.4400 C   0  0  0  0  0  0  0  0  0  0  0  0
   41.3280   22.8160   35.9100 C   0  0  0  0  0  0  0  0  0  0  0  0
   42.4560   22.1850   35.4950 N   0  0  0  0  0  0  0  0  0  0  0  0
   42.6630   21.1960   36.3410 N   0  0  0  0  0  0  0  0  0  0  0  0
   41.7000   21.1730   37.2880 C   0  0  0  0  0  0  0  0  0  0  0  0
   40.8220   22.2130   37.0320 C   0  0  0  0  0  0  0  0  0  0  0  0
   39.7040   22.5640   37.7340 C   0  0  0  0  0  0  0  0  0  0  0  0
   38.1050   24.0320   37.7170 H   0  0  0  0  0  0  0  0  0  0  0  0
   40.9560   24.4350   34.5580 H   0  0  0  0  0  0  0  0  0  0  0  0
   42.9740   22.5170   34.6470 H   0  0  0  0  0  0  0  0  0  0  0  0
   41.6520   20.4530   38.0940 H   0  0  0  0  0  0  0  0  0  0  0  0
   39.3560   22.0590   38.6010 H   0  0  0  0  0  0  0  0  0  0  0  0
   36.7010   27.1040   33.1470 C   0  0  0  0  0  0  0  0  0  0  0  0
   36.3900   26.2440   32.2940 O   0  0  0  0  0  0  0  0  0  0  0  0
   36.1610   30.4150   31.7010 C   0  0  0  0  0  0  0  0  0  0  0  0
   35.5080   31.1100   32.7240 C   0  0  0  0  0  0  0  0  0  0  0  0
   35.2570   30.4470   33.8970 C   0  0  0  0  0  0  0  0  0  0  0  0
   35.6360   29.1670   34.0360 N   0  0  0  0  0  0  0  0  0  0  0  0
   36.2760   28.4960   33.0270 C   0  0  0  0  0  0  0  0  0  0  0  0
   36.5340   29.1350   31.8580 N   0  0  0  0  0  0  0  0  0  0  0  0
   36.4090   30.8400   30.7370 H   0  0  0  0  0  0  0  0  0  0  0  0
   35.2330   32.1200   32.5550 H   0  0  0  0  0  0  0  0  0  0  0  0
   34.5970   31.0920   34.9770 N   0  0  0  0  0  0  0  0  0  0  0  0
   35.1060   32.2830   35.6170 C   0  0  0  0  0  3  0  0  0  0  0  0
   36.1840   32.4170   35.5730 H   0  0  0  0  0  0  0  0  0  0  0  0
   34.6560   32.2430   37.0790 C   0  0  0  0  0  3  0  0  0  0  0  0
   35.1240   33.0760   37.6550 H   0  0  0  0  0  0  0  0  0  0  0  0
   33.2820   32.2340   37.2010 O   0  0  0  0  0  0  0  0  0  0  0  0
   32.5990   31.7380   36.1200 C   0  0  0  0  0  2  0  0  0  0  0  0
   33.3510   30.5770   35.5080 C   0  0  0  0  0  2  0  0  0  0  0  0
  1  5  1  0  0  0  0
  1  2  2  0  0  0  0
  2  6  1  0  0  0  0
  2  3  1  0  0  0  0
  3  7  1  0  0  0  0
  4  9  1  0  0  0  0
  4  3  2  0  0  0  0
  5  4  1  0  0  0  0
  8 17  1  0  0  0  0
  8 16  1  0  0  0  0
  9  8  2  0  0  0  0
 10 11  2  0  0  0  0
 10  9  1  0  0  0  0
 11 15  1  0  0  0  0
 12 11  1  0  0  0  0
 12 13  1  0  0  0  0
 13 14  2  0  0  0  0
 14 20  1  0  0  0  0
 15 14  1  0  0  0  0
 15 16  2  0  0  0  0
 16 21  1  0  0  0  0
 18 10  1  0  0  0  0
 19 12  1  0  0  0  0
 22  1  1  0  0  0  0
 23 22  2  0  0  0  0
 24 29  2  0  0  0  0
 24 25  1  0  0  0  0
 25 26  2  0  0  0  0
 26 27  1  0  0  0  0
 26 32  1  0  0  0  0
 28 22  1  0  0  0  0
 28 27  2  0  0  0  0
 29 28  1  0  0  0  0
 30 24  1  0  0  0  0
 31 25  1  0  0  0  0
 32 39  1  0  0  0  0
 32 33  1  0  0  0  0
 33 35  1  0  0  0  0
 34 33  1  0  0  0  0
 35 37  1  0  0  0  0
 35 36  1  0  0  0  0
 38 37  1  0  0  0  0
 39 38  1  0  0  0  0
M  END
>  <minimizedAffinity>
-6.18938637

$$$$

 OpenBabel03272508503D

 39 43  0  0  0  0  0  0  0  0999 V2000
   37.2900   27.6390   32.8120 C   0  0  0  0  0  0  0  0  0  0  0  0
   36.5990   28.0340   31.6780 C   0  0  0  0  0  0  0  0  0  0  0  0
   35.6250   28.8950   32.1740 C   0  0  0  0  0  0  0  0  0  0  0  0
   35.7550   28.9850   33.5290 C   0  0  0  0  0  0  0  0  0  0  0  0
   36.7660   28.2150   33.8720 O   0  0  0  0  0  0  0  0  0  0  0  0
   36.7770   27.7420   30.6450 H   0  0  0  0  0  0  0  0  0  0  0  0
   34.8980   29.3960   31.5680 H   0  0  0  0  0  0  0  0  0  0  0  0
   33.5730   29.5930   34.4650 C   0  0  0  0  0  0  0  0  0  0  0  0
   34.9430   29.7740   34.4520 C   0  0  0  0  0  0  0  0  0  0  0  0
   35.5570   30.6840   35.2910 C   0  0  0  0  0  0  0  0  0  0  0  0
   34.7970   31.4420   36.1740 C   0  0  0  0  0  0  0  0  0  0  0  0
   35.1020   32.3900   37.0970 N   0  0  0  0  0  0  0  0  0  0  0  0
   33.9590   32.7610   37.6400 N   0  0  0  0  0  0  0  0  0  0  0  0
   32.9310   32.0790   37.0930 C   0  0  0  0  0  0  0  0  0  0  0  0
   33.4450   31.2170   36.1400 C   0  0  0  0  0  0  0  0  0  0  0  0
   32.7680   30.3390   35.3420 C   0  0  0  0  0  0  0  0  0  0  0  0
   33.1230   28.8650   33.7880 H   0  0  0  0  0  0  0  0  0  0  0  0
   36.6310   30.8100   35.2650 H   0  0  0  0  0  0  0  0  0  0  0  0
   36.0940   32.6840   37.2550 H   0  0  0  0  0  0  0  0  0  0  0  0
   31.8920   32.2060   37.3740 H   0  0  0  0  0  0  0  0  0  0  0  0
   31.7150   30.2050   35.3570 H   0  0  0  0  0  0  0  0  0  0  0  0
   38.4190   26.7250   32.8100 C   0  0  0  0  0  0  0  0  0  0  0  0
   39.5100   27.1170   32.3400 O   0  0  0  0  0  0  0  0  0  0  0  0
   38.5600   23.9290   35.1580 C   0  0  0  0  0  0  0  0  0  0  0  0
   37.9820   22.8780   34.4400 C   0  0  0  0  0  0  0  0  0  0  0  0
   37.5490   23.1270   33.1640 C   0  0  0  0  0  0  0  0  0  0  0  0
   37.6870   24.3540   32.6390 N   0  0  0  0  0  0  0  0  0  0  0  0
   38.2550   25.3790   33.3520 C   0  0  0  0  0  0  0  0  0  0  0  0
   38.6900   25.1510   34.6170 N   0  0  0  0  0  0  0  0  0  0  0  0
   38.9350   23.8440   36.1690 H   0  0  0  0  0  0  0  0  0  0  0  0
   37.9010   21.9290   34.9090 H   0  0  0  0  0  0  0  0  0  0  0  0
   36.9530   22.1050   32.3780 N   0  0  0  0  0  0  0  0  0  0  0  0
   35.5790   22.1470   31.9360 C   0  0  0  0  0  3  0  0  0  0  0  0
   34.8990   22.7170   32.5630 H   0  0  0  0  0  0  0  0  0  0  0  0
   35.0870   20.7010   31.8340 C   0  0  0  0  0  3  0  0  0  0  0  0
   33.9940   20.6740   31.6160 H   0  0  0  0  0  0  0  0  0  0  0  0
   35.8180   19.9650   30.9230 O   0  0  0  0  0  0  0  0  0  0  0  0
   37.0930   20.4160   30.6910 C   0  0  0  0  0  2  0  0  0  0  0  0
   37.7100   20.9370   31.9700 C   0  0  0  0  0  2  0  0  0  0  0  0
  1  5  1  0  0  0  0
  2  3  1  0  0  0  0
  2  1  2  0  0  0  0
  3  4  2  0  0  0  0
  4  5  1  0  0  0  0
  4  9  1  0  0  0  0
  6  2  1  0  0  0  0
  7  3  1  0  0  0  0
  8 16  1  0  0  0  0
  9  8  2  0  0  0  0
  9 10  1  0  0  0  0
 10 11  2  0  0  0  0
 11 12  1  0  0  0  0
 12 19  1  0  0  0  0
 12 13  1  0  0  0  0
 14 20  1  0  0  0  0
 14 13  2  0  0  0  0
 15 11  1  0  0  0  0
 15 14  1  0  0  0  0
 16 21  1  0  0  0  0
 16 15  2  0  0  0  0
 17  8  1  0  0  0  0
 18 10  1  0  0  0  0
 22  1  1  0  0  0  0
 22 28  1  0  0  0  0
 23 22  2  0  0  0  0
 24 30  1  0  0  0  0
 25 31  1  0  0  0  0
 25 24  2  0  0  0  0
 26 25  1  0  0  0  0
 27 26  2  0  0  0  0
 27 28  1  0  0  0  0
 28 29  2  0  0  0  0
 29 24  1  0  0  0  0
 32 26  1  0  0  0  0
 33 32  1  0  0  0  0
 33 34  1  0  0  0  0
 35 33  1  0  0  0  0
 36 35  1  0  0  0  0
 37 35  1  0  0  0  0
 38 37  1  0  0  0  0
 38 39  1  0  0  0  0
 39 32  1  0  0  0  0
M  END
>  <minimizedAffinity>
-6.17493153

$$$$
