
 OpenBabel03272508463D

 39 43  0  0  0  0  0  0  0  0999 V2000
   35.5630   29.6230   49.6320 C   0  0  0  0  0  0  0  0  0  0  0  0
   36.5710   29.3490   50.5420 C   0  0  0  0  0  0  0  0  0  0  0  0
   37.6980   29.9210   49.9590 C   0  0  0  0  0  0  0  0  0  0  0  0
   37.3470   30.4920   48.7720 C   0  0  0  0  0  0  0  0  0  0  0  0
   36.0570   30.2910   48.6120 O   0  0  0  0  0  0  0  0  0  0  0  0
   36.4990   28.8160   51.4870 H   0  0  0  0  0  0  0  0  0  0  0  0
   38.6770   29.9000   50.3930 H   0  0  0  0  0  0  0  0  0  0  0  0
   38.7320   32.4300   48.1900 C   0  0  0  0  0  0  0  0  0  0  0  0
   38.2140   31.1990   47.8320 C   0  0  0  0  0  0  0  0  0  0  0  0
   38.5000   30.6260   46.6070 C   0  0  0  0  0  0  0  0  0  0  0  0
   39.3230   31.2880   45.7030 C   0  0  0  0  0  0  0  0  0  0  0  0
   39.7740   30.9920   44.4570 N   0  0  0  0  0  0  0  0  0  0  0  0
   40.5310   32.0050   44.0850 N   0  0  0  0  0  0  0  0  0  0  0  0
   40.5790   32.9420   45.0560 C   0  0  0  0  0  0  0  0  0  0  0  0
   39.8040   32.5030   46.1160 C   0  0  0  0  0  0  0  0  0  0  0  0
   39.5680   33.1310   47.3050 C   0  0  0  0  0  0  0  0  0  0  0  0
   38.4850   32.8500   49.1660 H   0  0  0  0  0  0  0  0  0  0  0  0
   38.0840   29.6630   46.3460 H   0  0  0  0  0  0  0  0  0  0  0  0
   39.5020   30.0960   43.9880 H   0  0  0  0  0  0  0  0  0  0  0  0
   41.1370   33.8680   44.9870 H   0  0  0  0  0  0  0  0  0  0  0  0
   39.9690   34.0770   47.5750 H   0  0  0  0  0  0  0  0  0  0  0  0
   34.1760   29.2230   49.7980 C   0  0  0  0  0  0  0  0  0  0  0  0
   33.5800   29.5400   50.8510 O   0  0  0  0  0  0  0  0  0  0  0  0
   31.6850   27.1670   48.0900 C   0  0  0  0  0  0  0  0  0  0  0  0
   32.2130   27.0260   46.8030 C   0  0  0  0  0  0  0  0  0  0  0  0
   33.4100   27.6320   46.5260 C   0  0  0  0  0  0  0  0  0  0  0  0
   34.0410   28.3340   47.4790 N   0  0  0  0  0  0  0  0  0  0  0  0
   33.5150   28.4660   48.7380 C   0  0  0  0  0  0  0  0  0  0  0  0
   32.3290   27.8740   49.0320 N   0  0  0  0  0  0  0  0  0  0  0  0
   30.7490   26.7320   48.4160 H   0  0  0  0  0  0  0  0  0  0  0  0
   31.6680   26.4580   46.0910 H   0  0  0  0  0  0  0  0  0  0  0  0
   34.0040   27.5300   45.2390 N   0  0  0  0  0  0  0  0  0  0  0  0
   34.6310   28.6430   44.5660 C   0  0  0  0  0  3  0  0  0  0  0  0
   34.2580   29.6280   44.8390 H   0  0  0  0  0  0  0  0  0  0  0  0
   34.4510   28.4290   43.0630 C   0  0  0  0  0  3  0  0  0  0  0  0
   34.8070   29.3200   42.4940 H   0  0  0  0  0  0  0  0  0  0  0  0
   35.0480   27.2620   42.6270 O   0  0  0  0  0  0  0  0  0  0  0  0
   35.2010   26.2900   43.5820 C   0  0  0  0  0  2  0  0  0  0  0  0
   34.0120   26.2730   44.5150 C   0  0  0  0  0  2  0  0  0  0  0  0
  1 22  1  0  0  0  0
  1  2  2  0  0  0  0
  2  6  1  0  0  0  0
  3  7  1  0  0  0  0
  3  2  1  0  0  0  0
  4  3  2  0  0  0  0
  5  4  1  0  0  0  0
  5  1  1  0  0  0  0
  8 17  1  0  0  0  0
  9  8  1  0  0  0  0
  9  4  1  0  0  0  0
 10  9  2  0  0  0  0
 11 15  2  0  0  0  0
 11 10  1  0  0  0  0
 12 11  1  0  0  0  0
 13 12  1  0  0  0  0
 13 14  2  0  0  0  0
 14 15  1  0  0  0  0
 15 16  1  0  0  0  0
 16 21  1  0  0  0  0
 16  8  2  0  0  0  0
 18 10  1  0  0  0  0
 19 12  1  0  0  0  0
 20 14  1  0  0  0  0
 22 23  2  0  0  0  0
 24 30  1  0  0  0  0
 24 29  1  0  0  0  0
 25 24  2  0  0  0  0
 26 25  1  0  0  0  0
 26 27  2  0  0  0  0
 27 28  1  0  0  0  0
 28 29  2  0  0  0  0
 28 22  1  0  0  0  0
 31 25  1  0  0  0  0
 32 26  1  0  0  0  0
 33 34  1  0  0  0  0
 33 32  1  0  0  0  0
 35 33  1  0  0  0  0
 36 35  1  0  0  0  0
 37 35  1  0  0  0  0
 37 38  1  0  0  0  0
 38 39  1  0  0  0  0
 39 32  1  0  0  0  0
M  END
>  <minimizedAffinity>
-6.41444063

>  <minimizedRMSD>
1.61163473

$$$$
