
 OpenBabel03272508463D

 39 43  0  0  0  0  0  0  0  0999 V2000
   35.5020   29.4920   49.5540 C   0  0  0  0  0  0  0  0  0  0  0  0
   36.5600   28.9880   50.2940 C   0  0  0  0  0  0  0  0  0  0  0  0
   37.6800   29.5290   49.6680 C   0  0  0  0  0  0  0  0  0  0  0  0
   37.2770   30.3030   48.6200 C   0  0  0  0  0  0  0  0  0  0  0  0
   35.9620   30.2530   48.5860 O   0  0  0  0  0  0  0  0  0  0  0  0
   36.5250   28.3290   51.1580 H   0  0  0  0  0  0  0  0  0  0  0  0
   38.6890   29.3490   49.9780 H   0  0  0  0  0  0  0  0  0  0  0  0
   38.6090   32.2880   48.0780 C   0  0  0  0  0  0  0  0  0  0  0  0
   38.1180   31.0550   47.6920 C   0  0  0  0  0  0  0  0  0  0  0  0
   38.4060   30.5220   46.4500 C   0  0  0  0  0  0  0  0  0  0  0  0
   39.2050   31.2270   45.5570 C   0  0  0  0  0  0  0  0  0  0  0  0
   39.6520   30.9750   44.3000 N   0  0  0  0  0  0  0  0  0  0  0  0
   40.3820   32.0160   43.9490 N   0  0  0  0  0  0  0  0  0  0  0  0
   40.4150   32.9280   44.9440 C   0  0  0  0  0  0  0  0  0  0  0  0
   39.6610   32.4420   45.9980 C   0  0  0  0  0  0  0  0  0  0  0  0
   39.4200   33.0330   47.2060 C   0  0  0  0  0  0  0  0  0  0  0  0
   38.3610   32.6760   49.0670 H   0  0  0  0  0  0  0  0  0  0  0  0
   38.0120   29.5560   46.1670 H   0  0  0  0  0  0  0  0  0  0  0  0
   39.3980   30.0860   43.8090 H   0  0  0  0  0  0  0  0  0  0  0  0
   40.9500   33.8680   44.8940 H   0  0  0  0  0  0  0  0  0  0  0  0
   39.8010   33.9810   47.4960 H   0  0  0  0  0  0  0  0  0  0  0  0
   34.1030   29.2070   49.8240 C   0  0  0  0  0  0  0  0  0  0  0  0
   33.5410   29.7970   50.7730 O   0  0  0  0  0  0  0  0  0  0  0  0
   31.3710   27.1890   48.4780 C   0  0  0  0  0  0  0  0  0  0  0  0
   31.9840   26.4590   47.4560 C   0  0  0  0  0  0  0  0  0  0  0  0
   33.3210   26.6580   47.2320 C   0  0  0  0  0  0  0  0  0  0  0  0
   34.0020   27.5350   47.9860 N   0  0  0  0  0  0  0  0  0  0  0  0
   33.3910   28.2460   48.9860 C   0  0  0  0  0  0  0  0  0  0  0  0
   32.0670   28.0630   49.2230 N   0  0  0  0  0  0  0  0  0  0  0  0
   30.3240   27.1100   48.7410 H   0  0  0  0  0  0  0  0  0  0  0  0
   31.3940   25.7800   46.8940 H   0  0  0  0  0  0  0  0  0  0  0  0
   34.0080   25.9490   46.2100 N   0  0  0  0  0  0  0  0  0  0  0  0
   34.3300   24.5450   46.3000 C   0  0  0  0  0  3  0  0  0  0  0  0
   34.4460   24.1520   47.3070 H   0  0  0  0  0  0  0  0  0  0  0  0
   35.6220   24.3210   45.5130 C   0  0  0  0  0  3  0  0  0  0  0  0
   35.9890   23.2760   45.6510 H   0  0  0  0  0  0  0  0  0  0  0  0
   35.4860   24.6540   44.1810 O   0  0  0  0  0  0  0  0  0  0  0  0
   34.5040   25.5700   43.9020 C   0  0  0  0  0  2  0  0  0  0  0  0
   34.4320   26.6150   44.9930 C   0  0  0  0  0  2  0  0  0  0  0  0
  1 22  1  0  0  0  0
  1  2  2  0  0  0  0
  2  6  1  0  0  0  0
  3  7  1  0  0  0  0
  3  2  1  0  0  0  0
  4  3  2  0  0  0  0
  5  4  1  0  0  0  0
  5  1  1  0  0  0  0
  8 17  1  0  0  0  0
  9  8  1  0  0  0  0
  9  4  1  0  0  0  0
 10  9  2  0  0  0  0
 11 15  2  0  0  0  0
 11 10  1  0  0  0  0
 12 11  1  0  0  0  0
 13 12  1  0  0  0  0
 13 14  2  0  0  0  0
 14 15  1  0  0  0  0
 15 16  1  0  0  0  0
 16 21  1  0  0  0  0
 16  8  2  0  0  0  0
 18 10  1  0  0  0  0
 19 12  1  0  0  0  0
 20 14  1  0  0  0  0
 22 23  2  0  0  0  0
 24 30  1  0  0  0  0
 24 29  1  0  0  0  0
 25 24  2  0  0  0  0
 26 25  1  0  0  0  0
 26 27  2  0  0  0  0
 27 28  1  0  0  0  0
 28 29  2  0  0  0  0
 28 22  1  0  0  0  0
 31 25  1  0  0  0  0
 32 33  1  0  0  0  0
 32 26  1  0  0  0  0
 33 34  1  0  0  0  0
 35 36  1  0  0  0  0
 35 33  1  0  0  0  0
 37 35  1  0  0  0  0
 38 37  1  0  0  0  0
 38 39  1  0  0  0  0
 39 32  1  0  0  0  0
M  END
>  <minimizedAffinity>
-6.1715703

>  <minimizedRMSD>
0.708047926

$$$$
