
 OpenBabel03272507493D

 45 49  0  0  0  0  0  0  0  0999 V2000
   36.8950   27.5220   31.5710 N   0  0  0  0  0  0  0  0  0  0  0  0
   36.5620   26.1930   31.1930 C   0  0  0  0  0  0  0  0  0  0  0  0
   36.8560   25.1300   32.1840 C   0  0  0  0  0  0  0  0  0  0  0  0
   38.1040   25.2590   32.9350 C   0  0  0  0  0  0  0  0  0  0  0  0
   38.4450   26.7280   33.2440 C   0  0  0  0  0  0  0  0  0  0  0  0
   38.2850   27.5180   31.9360 C   0  0  0  0  0  0  0  0  0  0  0  0
   37.0840   25.9380   30.2450 H   0  0  0  0  0  0  0  0  0  0  0  0
   35.4680   26.1710   30.9440 H   0  0  0  0  0  0  0  0  0  0  0  0
   36.0140   25.2760   32.9410 H   0  0  0  0  0  0  0  0  0  0  0  0
   36.6970   24.1430   31.7380 H   0  0  0  0  0  0  0  0  0  0  0  0
   38.9800   24.8810   32.3480 H   0  0  0  0  0  0  0  0  0  0  0  0
   39.4790   26.8350   33.5680 H   0  0  0  0  0  0  0  0  0  0  0  0
   37.6680   27.0750   33.9260 H   0  0  0  0  0  0  0  0  0  0  0  0
   38.6570   28.5580   32.1160 H   0  0  0  0  0  0  0  0  0  0  0  0
   38.9460   27.1020   31.1310 H   0  0  0  0  0  0  0  0  0  0  0  0
   36.0510   28.6770   31.5970 C   0  0  0  0  0  0  0  0  0  0  0  0
   36.2020   29.8180   30.8120 C   0  0  0  0  0  0  0  0  0  0  0  0
   35.2590   30.8340   30.9940 C   0  0  0  0  0  0  0  0  0  0  0  0
   34.2620   30.6630   31.9090 N   0  0  0  0  0  0  0  0  0  0  0  0
   34.1640   29.5580   32.6320 C   0  0  0  0  0  0  0  0  0  0  0  0
   35.0390   28.5700   32.4880 N   0  0  0  0  0  0  0  0  0  0  0  0
   37.0330   29.8150   30.1320 H   0  0  0  0  0  0  0  0  0  0  0  0
   35.3840   31.7080   30.3840 H   0  0  0  0  0  0  0  0  0  0  0  0
   33.0890   29.4860   33.5530 N   0  0  0  0  0  0  0  0  0  0  0  0
   31.7900   28.9480   33.2000 C   0  0  0  0  0  3  0  0  0  0  0  0
   31.4550   29.3390   32.2120 H   0  0  0  0  0  0  0  0  0  0  0  0
   30.7530   29.2860   34.2490 C   0  0  0  0  0  3  0  0  0  0  0  0
   29.7580   29.1410   33.7780 H   0  0  0  0  0  0  0  0  0  0  0  0
   30.8290   30.5720   34.7100 O   0  0  0  0  0  0  0  0  0  0  0  0
   32.0760   31.0470   35.0150 C   0  0  0  0  0  2  0  0  0  0  0  0
   33.0680   29.9070   34.9400 C   0  0  0  0  0  2  0  0  0  0  0  0
   38.1100   23.1920   34.2550 C   0  0  0  0  0  0  0  0  0  0  0  0
   38.1050   24.5780   34.2540 C   0  0  0  0  0  0  0  0  0  0  0  0
   38.0760   25.3430   35.3880 C   0  0  0  0  0  0  0  0  0  0  0  0
   38.0470   24.6780   36.6140 C   0  0  0  0  0  0  0  0  0  0  0  0
   38.0500   23.3050   36.6220 C   0  0  0  0  0  0  0  0  0  0  0  0
   38.0810   22.5240   35.4690 C   0  0  0  0  0  0  0  0  0  0  0  0
   38.0170   22.8310   37.9410 O   0  0  0  0  0  0  0  0  0  0  0  0
   38.3310   23.9640   38.7400 C   0  0  0  0  0  0  0  0  0  0  0  0
   38.0140   25.0830   37.9480 O   0  0  0  0  0  0  0  0  0  0  0  0
   38.1430   22.4900   33.4340 H   0  0  0  0  0  0  0  0  0  0  0  0
   38.0750   26.4030   35.3470 H   0  0  0  0  0  0  0  0  0  0  0  0
   38.0810   21.4230   35.5540 H   0  0  0  0  0  0  0  0  0  0  0  0
   39.4420   23.9820   38.9200 H   0  0  0  0  0  0  0  0  0  0  0  0
   37.7900   23.9420   39.7000 H   0  0  0  0  0  0  0  0  0  0  0  0
  1 16  1  0  0  0  0
  1  6  1  0  0  0  0
  2  1  1  0  0  0  0
  2  3  1  0  0  0  0
  3  4  1  0  0  0  0
  3  9  1  0  0  0  0
  4  5  1  0  0  0  0
  4 33  1  0  0  0  0
  5 12  1  0  0  0  0
  5 13  1  0  0  0  0
  6 14  1  0  0  0  0
  6  5  1  0  0  0  0
  7  2  1  0  0  0  0
  8  2  1  0  0  0  0
 10  3  1  0  0  0  0
 11  4  1  0  0  0  0
 15  6  1  0  0  0  0
 16 21  1  0  0  0  0
 17 18  1  0  0  0  0
 17 16  2  0  0  0  0
 18 19  2  0  0  0  0
 19 20  1  0  0  0  0
 20 24  1  0  0  0  0
 21 20  2  0  0  0  0
 22 17  1  0  0  0  0
 23 18  1  0  0  0  0
 24 31  1  0  0  0  0
 25 24  1  0  0  0  0
 25 27  1  0  0  0  0
 26 25  1  0  0  0  0
 27 29  1  0  0  0  0
 28 27  1  0  0  0  0
 29 30  1  0  0  0  0
 31 30  1  0  0  0  0
 32 37  1  0  0  0  0
 33 32  2  0  0  0  0
 33 34  1  0  0  0  0
 34 35  2  0  0  0  0
 35 36  1  0  0  0  0
 35 40  1  0  0  0  0
 36 38  1  0  0  0  0
 37 43  1  0  0  0  0
 37 36  2  0  0  0  0
 38 39  1  0  0  0  0
 39 44  1  0  0  0  0
 39 45  1  0  0  0  0
 40 39  1  0  0  0  0
 41 32  1  0  0  0  0
 42 34  1  0  0  0  0
M  END
>  <minimizedAffinity>
-6.28550243

$$$$

 OpenBabel03272507493D

 45 49  0  0  0  0  0  0  0  0999 V2000
   36.7970   27.2120   32.6730 N   0  0  0  0  0  0  0  0  0  0  0  0
   37.4120   27.3410   33.9480 C   0  0  0  0  0  0  0  0  0  0  0  0
   36.8150   28.3350   34.8720 C   0  0  0  0  0  0  0  0  0  0  0  0
   36.3600   29.5930   34.2810 C   0  0  0  0  0  0  0  0  0  0  0  0
   35.7770   29.3920   32.8710 C   0  0  0  0  0  0  0  0  0  0  0  0
   36.7710   28.5230   32.0850 C   0  0  0  0  0  0  0  0  0  0  0  0
   38.4880   27.5940   33.8150 H   0  0  0  0  0  0  0  0  0  0  0  0
   37.4040   26.3320   34.4380 H   0  0  0  0  0  0  0  0  0  0  0  0
   35.8750   27.7910   35.2250 H   0  0  0  0  0  0  0  0  0  0  0  0
   37.4470   28.4550   35.7590 H   0  0  0  0  0  0  0  0  0  0  0  0
   37.2060   30.3120   34.1390 H   0  0  0  0  0  0  0  0  0  0  0  0
   35.6800   30.3390   32.3430 H   0  0  0  0  0  0  0  0  0  0  0  0
   34.8710   28.7990   33.0070 H   0  0  0  0  0  0  0  0  0  0  0  0
   36.4250   28.4800   31.0220 H   0  0  0  0  0  0  0  0  0  0  0  0
   37.7830   29.0050   32.0470 H   0  0  0  0  0  0  0  0  0  0  0  0
   36.2910   26.0290   32.0470 C   0  0  0  0  0  0  0  0  0  0  0  0
   35.2500   25.9750   31.1230 C   0  0  0  0  0  0  0  0  0  0  0  0
   34.9140   24.7100   30.6310 C   0  0  0  0  0  0  0  0  0  0  0  0
   35.6030   23.6180   31.0680 N   0  0  0  0  0  0  0  0  0  0  0  0
   36.5850   23.7240   31.9510 C   0  0  0  0  0  0  0  0  0  0  0  0
   36.9360   24.9080   32.4420 N   0  0  0  0  0  0  0  0  0  0  0  0
   34.7960   26.9150   30.8680 H   0  0  0  0  0  0  0  0  0  0  0  0
   34.1110   24.6800   29.9190 H   0  0  0  0  0  0  0  0  0  0  0  0
   37.2350   22.5250   32.3370 N   0  0  0  0  0  0  0  0  0  0  0  0
   38.3940   22.0030   31.6390 C   0  0  0  0  0  3  0  0  0  0  0  0
   38.2460   22.0510   30.5350 H   0  0  0  0  0  0  0  0  0  0  0  0
   38.6800   20.5730   32.0430 C   0  0  0  0  0  3  0  0  0  0  0  0
   39.3430   20.1430   31.2640 H   0  0  0  0  0  0  0  0  0  0  0  0
   37.5620   19.7900   32.1400 O   0  0  0  0  0  0  0  0  0  0  0  0
   36.4850   20.3280   32.7910 C   0  0  0  0  0  2  0  0  0  0  0  0
   36.8980   21.6360   33.4300 C   0  0  0  0  0  2  0  0  0  0  0  0
   35.6810   31.2780   35.9280 C   0  0  0  0  0  0  0  0  0  0  0  0
   35.2910   30.2840   35.0450 C   0  0  0  0  0  0  0  0  0  0  0  0
   33.9930   29.8920   34.8590 C   0  0  0  0  0  0  0  0  0  0  0  0
   33.0110   30.5370   35.6110 C   0  0  0  0  0  0  0  0  0  0  0  0
   33.3900   31.5220   36.4900 C   0  0  0  0  0  0  0  0  0  0  0  0
   34.7110   31.9230   36.6790 C   0  0  0  0  0  0  0  0  0  0  0  0
   32.2670   32.0410   37.1460 O   0  0  0  0  0  0  0  0  0  0  0  0
   31.1570   31.5690   36.3910 C   0  0  0  0  0  0  0  0  0  0  0  0
   31.6240   30.4300   35.7080 O   0  0  0  0  0  0  0  0  0  0  0  0
   36.6610   31.6760   36.1480 H   0  0  0  0  0  0  0  0  0  0  0  0
   33.7330   29.1270   34.1710 H   0  0  0  0  0  0  0  0  0  0  0  0
   34.9410   32.7240   37.4050 H   0  0  0  0  0  0  0  0  0  0  0  0
   30.8920   32.3420   35.6160 H   0  0  0  0  0  0  0  0  0  0  0  0
   30.2880   31.3640   37.0380 H   0  0  0  0  0  0  0  0  0  0  0  0
  1  2  1  0  0  0  0
  2  8  1  0  0  0  0
  2  3  1  0  0  0  0
  3  9  1  0  0  0  0
  3 10  1  0  0  0  0
  4  3  1  0  0  0  0
  4 33  1  0  0  0  0
  5 13  1  0  0  0  0
  5  4  1  0  0  0  0
  6  1  1  0  0  0  0
  6  5  1  0  0  0  0
  7  2  1  0  0  0  0
 11  4  1  0  0  0  0
 12  5  1  0  0  0  0
 14  6  1  0  0  0  0
 15  6  1  0  0  0  0
 16 21  1  0  0  0  0
 16  1  1  0  0  0  0
 17 16  2  0  0  0  0
 18 19  2  0  0  0  0
 18 17  1  0  0  0  0
 19 20  1  0  0  0  0
 20 24  1  0  0  0  0
 20 21  2  0  0  0  0
 22 17  1  0  0  0  0
 23 18  1  0  0  0  0
 24 31  1  0  0  0  0
 25 27  1  0  0  0  0
 25 24  1  0  0  0  0
 26 25  1  0  0  0  0
 27 29  1  0  0  0  0
 28 27  1  0  0  0  0
 29 30  1  0  0  0  0
 30 31  1  0  0  0  0
 32 41  1  0  0  0  0
 32 37  1  0  0  0  0
 33 32  2  0  0  0  0
 34 33  1  0  0  0  0
 34 35  2  0  0  0  0
 35 40  1  0  0  0  0
 35 36  1  0  0  0  0
 36 37  2  0  0  0  0
 36 38  1  0  0  0  0
 37 43  1  0  0  0  0
 39 45  1  0  0  0  0
 39 38  1  0  0  0  0
 40 39  1  0  0  0  0
 42 34  1  0  0  0  0
 44 39  1  0  0  0  0
M  END
>  <minimizedAffinity>
-6.24082136

$$$$

 OpenBabel03272507493D

 45 49  0  0  0  0  0  0  0  0999 V2000
   36.9760   27.8040   31.6860 N   0  0  0  0  0  0  0  0  0  0  0  0
   36.3470   26.5700   31.3660 C   0  0  0  0  0  0  0  0  0  0  0  0
   36.5760   25.4480   32.3070 C   0  0  0  0  0  0  0  0  0  0  0  0
   37.9210   25.3230   32.8670 C   0  0  0  0  0  0  0  0  0  0  0  0
   38.5730   26.6940   33.1170 C   0  0  0  0  0  0  0  0  0  0  0  0
   38.3780   27.5310   31.8440 C   0  0  0  0  0  0  0  0  0  0  0  0
   36.6700   26.2440   30.3520 H   0  0  0  0  0  0  0  0  0  0  0  0
   35.2440   26.7580   31.2780 H   0  0  0  0  0  0  0  0  0  0  0  0
   35.8940   25.7300   33.1780 H   0  0  0  0  0  0  0  0  0  0  0  0
   36.1710   24.5180   31.8930 H   0  0  0  0  0  0  0  0  0  0  0  0
   38.6160   24.8020   32.1600 H   0  0  0  0  0  0  0  0  0  0  0  0
   39.6450   26.5980   33.2860 H   0  0  0  0  0  0  0  0  0  0  0  0
   37.9820   27.1640   33.9040 H   0  0  0  0  0  0  0  0  0  0  0  0
   38.9610   28.4790   31.9630 H   0  0  0  0  0  0  0  0  0  0  0  0
   38.8260   27.0190   30.9530 H   0  0  0  0  0  0  0  0  0  0  0  0
   36.3770   29.0950   31.8300 C   0  0  0  0  0  0  0  0  0  0  0  0
   36.1380   30.0050   30.8030 C   0  0  0  0  0  0  0  0  0  0  0  0
   35.5370   31.2140   31.1630 C   0  0  0  0  0  0  0  0  0  0  0  0
   35.2210   31.4400   32.4700 N   0  0  0  0  0  0  0  0  0  0  0  0
   35.4710   30.5410   33.4100 C   0  0  0  0  0  0  0  0  0  0  0  0
   36.0400   29.3800   33.1090 N   0  0  0  0  0  0  0  0  0  0  0  0
   36.4380   29.6940   29.8190 H   0  0  0  0  0  0  0  0  0  0  0  0
   35.3570   31.9080   30.3630 H   0  0  0  0  0  0  0  0  0  0  0  0
   35.1020   30.8780   34.7360 N   0  0  0  0  0  0  0  0  0  0  0  0
   33.7960   30.5730   35.2880 C   0  0  0  0  0  3  0  0  0  0  0  0
   32.9900   30.8280   34.5610 H   0  0  0  0  0  0  0  0  0  0  0  0
   33.5580   31.3190   36.5820 C   0  0  0  0  0  3  0  0  0  0  0  0
   32.4640   31.3020   36.7690 H   0  0  0  0  0  0  0  0  0  0  0  0
   33.9710   32.6230   36.5540 O   0  0  0  0  0  0  0  0  0  0  0  0
   35.2020   32.8710   36.0090 C   0  0  0  0  0  2  0  0  0  0  0  0
   35.8960   31.5520   35.7440 C   0  0  0  0  0  2  0  0  0  0  0  0
   38.0390   23.2380   34.1530 C   0  0  0  0  0  0  0  0  0  0  0  0
   37.9840   24.6220   34.1740 C   0  0  0  0  0  0  0  0  0  0  0  0
   37.9590   25.3690   35.3210 C   0  0  0  0  0  0  0  0  0  0  0  0
   37.9890   24.6850   36.5360 C   0  0  0  0  0  0  0  0  0  0  0  0
   38.0420   23.3120   36.5230 C   0  0  0  0  0  0  0  0  0  0  0  0
   38.0690   22.5510   35.3560 C   0  0  0  0  0  0  0  0  0  0  0  0
   38.0620   22.8180   37.8330 O   0  0  0  0  0  0  0  0  0  0  0  0
   38.3580   23.9500   38.6420 C   0  0  0  0  0  0  0  0  0  0  0  0
   37.9780   25.0680   37.8770 O   0  0  0  0  0  0  0  0  0  0  0  0
   38.0750   22.5500   33.3200 H   0  0  0  0  0  0  0  0  0  0  0  0
   37.9180   26.4290   35.2970 H   0  0  0  0  0  0  0  0  0  0  0  0
   38.1120   21.4490   35.4240 H   0  0  0  0  0  0  0  0  0  0  0  0
   39.4720   24.0060   38.7920 H   0  0  0  0  0  0  0  0  0  0  0  0
   37.8450   23.8930   39.6160 H   0  0  0  0  0  0  0  0  0  0  0  0
  1 16  1  0  0  0  0
  1  6  1  0  0  0  0
  2  1  1  0  0  0  0
  2  3  1  0  0  0  0
  3  4  1  0  0  0  0
  3  9  1  0  0  0  0
  4  5  1  0  0  0  0
  4 33  1  0  0  0  0
  5 12  1  0  0  0  0
  5 13  1  0  0  0  0
  6 14  1  0  0  0  0
  6  5  1  0  0  0  0
  7  2  1  0  0  0  0
  8  2  1  0  0  0  0
 10  3  1  0  0  0  0
 11  4  1  0  0  0  0
 15  6  1  0  0  0  0
 16 21  1  0  0  0  0
 17 18  1  0  0  0  0
 17 16  2  0  0  0  0
 18 19  2  0  0  0  0
 19 20  1  0  0  0  0
 20 24  1  0  0  0  0
 21 20  2  0  0  0  0
 22 17  1  0  0  0  0
 23 18  1  0  0  0  0
 24 25  1  0  0  0  0
 24 31  1  0  0  0  0
 25 27  1  0  0  0  0
 26 25  1  0  0  0  0
 27 28  1  0  0  0  0
 29 27  1  0  0  0  0
 30 29  1  0  0  0  0
 31 30  1  0  0  0  0
 32 33  2  0  0  0  0
 32 37  1  0  0  0  0
 33 34  1  0  0  0  0
 34 35  2  0  0  0  0
 35 40  1  0  0  0  0
 36 35  1  0  0  0  0
 36 38  1  0  0  0  0
 37 43  1  0  0  0  0
 37 36  2  0  0  0  0
 38 39  1  0  0  0  0
 39 44  1  0  0  0  0
 39 45  1  0  0  0  0
 40 39  1  0  0  0  0
 41 32  1  0  0  0  0
 42 34  1  0  0  0  0
M  END
>  <minimizedAffinity>
-6.2145381

$$$$

 OpenBabel03272507493D

 45 49  0  0  0  0  0  0  0  0999 V2000
   37.9400   26.6340   32.3980 N   0  0  0  0  0  0  0  0  0  0  0  0
   38.9520   27.2560   31.6160 C   0  0  0  0  0  0  0  0  0  0  0  0
   40.3400   27.1480   32.1250 C   0  0  0  0  0  0  0  0  0  0  0  0
   40.5210   27.2690   33.5720 C   0  0  0  0  0  0  0  0  0  0  0  0
   39.3530   26.6440   34.3560 C   0  0  0  0  0  0  0  0  0  0  0  0
   38.0520   27.1660   33.7280 C   0  0  0  0  0  0  0  0  0  0  0  0
   38.7110   28.3360   31.4920 H   0  0  0  0  0  0  0  0  0  0  0  0
   38.9040   26.8220   30.5830 H   0  0  0  0  0  0  0  0  0  0  0  0
   40.6030   26.0690   31.8620 H   0  0  0  0  0  0  0  0  0  0  0  0
   41.0110   27.7790   31.5320 H   0  0  0  0  0  0  0  0  0  0  0  0
   40.5410   28.3410   33.8970 H   0  0  0  0  0  0  0  0  0  0  0  0
   39.3640   26.9570   35.3980 H   0  0  0  0  0  0  0  0  0  0  0  0
   39.4010   25.5730   34.1530 H   0  0  0  0  0  0  0  0  0  0  0  0
   37.2010   26.8250   34.3690 H   0  0  0  0  0  0  0  0  0  0  0  0
   38.0130   28.2860   33.7550 H   0  0  0  0  0  0  0  0  0  0  0  0
   36.9700   25.6660   31.9870 C   0  0  0  0  0  0  0  0  0  0  0  0
   35.7800   25.9340   31.3150 C   0  0  0  0  0  0  0  0  0  0  0  0
   34.9740   24.8350   31.0040 C   0  0  0  0  0  0  0  0  0  0  0  0
   35.3810   23.5850   31.3640 N   0  0  0  0  0  0  0  0  0  0  0  0
   36.5230   23.3840   32.0040 C   0  0  0  0  0  0  0  0  0  0  0  0
   37.3170   24.4010   32.3170 N   0  0  0  0  0  0  0  0  0  0  0  0
   35.5860   26.9680   31.0940 H   0  0  0  0  0  0  0  0  0  0  0  0
   34.0590   25.0540   30.4860 H   0  0  0  0  0  0  0  0  0  0  0  0
   36.8490   22.0430   32.3300 N   0  0  0  0  0  0  0  0  0  0  0  0
   37.6040   21.1820   31.4410 C   0  0  0  0  0  3  0  0  0  0  0  0
   37.2300   21.2690   30.3940 H   0  0  0  0  0  0  0  0  0  0  0  0
   37.5280   19.7370   31.8810 C   0  0  0  0  0  3  0  0  0  0  0  0
   37.8340   19.1180   31.0120 H   0  0  0  0  0  0  0  0  0  0  0  0
   36.2790   19.3420   32.2750 O   0  0  0  0  0  0  0  0  0  0  0  0
   35.5930   20.1920   33.1000 C   0  0  0  0  0  2  0  0  0  0  0  0
   36.5180   21.3090   33.5340 C   0  0  0  0  0  2  0  0  0  0  0  0
   42.9650   27.1220   33.7130 C   0  0  0  0  0  0  0  0  0  0  0  0
   41.7390   26.6050   34.1000 C   0  0  0  0  0  0  0  0  0  0  0  0
   41.5910   25.5130   34.9120 C   0  0  0  0  0  0  0  0  0  0  0  0
   42.7520   24.8890   35.3700 C   0  0  0  0  0  0  0  0  0  0  0  0
   43.9700   25.3950   34.9890 C   0  0  0  0  0  0  0  0  0  0  0  0
   44.1220   26.5070   34.1640 C   0  0  0  0  0  0  0  0  0  0  0  0
   45.0040   24.6320   35.5480 O   0  0  0  0  0  0  0  0  0  0  0  0
   44.3730   23.8490   36.5530 C   0  0  0  0  0  0  0  0  0  0  0  0
   43.0160   23.7890   36.1860 O   0  0  0  0  0  0  0  0  0  0  0  0
   43.2030   27.9740   33.0930 H   0  0  0  0  0  0  0  0  0  0  0  0
   40.6350   25.1470   35.1880 H   0  0  0  0  0  0  0  0  0  0  0  0
   45.1360   26.8570   33.8990 H   0  0  0  0  0  0  0  0  0  0  0  0
   44.4340   24.3990   37.5330 H   0  0  0  0  0  0  0  0  0  0  0  0
   44.8440   22.8560   36.6440 H   0  0  0  0  0  0  0  0  0  0  0  0
  1  6  1  0  0  0  0
  2  3  1  0  0  0  0
  2  1  1  0  0  0  0
  3  4  1  0  0  0  0
  4 11  1  0  0  0  0
  4 33  1  0  0  0  0
  4  5  1  0  0  0  0
  5 12  1  0  0  0  0
  6 15  1  0  0  0  0
  6  5  1  0  0  0  0
  6 14  1  0  0  0  0
  7  2  1  0  0  0  0
  8  2  1  0  0  0  0
  9  3  1  0  0  0  0
 10  3  1  0  0  0  0
 13  5  1  0  0  0  0
 16 21  1  0  0  0  0
 16  1  1  0  0  0  0
 17 16  2  0  0  0  0
 18 17  1  0  0  0  0
 18 19  2  0  0  0  0
 19 20  1  0  0  0  0
 20 21  2  0  0  0  0
 20 24  1  0  0  0  0
 22 17  1  0  0  0  0
 23 18  1  0  0  0  0
 24 31  1  0  0  0  0
 25 27  1  0  0  0  0
 25 24  1  0  0  0  0
 26 25  1  0  0  0  0
 27 29  1  0  0  0  0
 28 27  1  0  0  0  0
 29 30  1  0  0  0  0
 30 31  1  0  0  0  0
 32 33  2  0  0  0  0
 32 37  1  0  0  0  0
 33 34  1  0  0  0  0
 34 42  1  0  0  0  0
 34 35  2  0  0  0  0
 35 40  1  0  0  0  0
 36 35  1  0  0  0  0
 36 38  1  0  0  0  0
 37 36  2  0  0  0  0
 38 39  1  0  0  0  0
 39 45  1  0  0  0  0
 39 44  1  0  0  0  0
 40 39  1  0  0  0  0
 41 32  1  0  0  0  0
 43 37  1  0  0  0  0
M  END
>  <minimizedAffinity>
-6.09075689

$$$$

 OpenBabel03272507493D

 45 49  0  0  0  0  0  0  0  0999 V2000
   37.0400   24.4950   31.4600 N   0  0  0  0  0  0  0  0  0  0  0  0
   38.0500   25.2990   30.8660 C   0  0  0  0  0  0  0  0  0  0  0  0
   37.8610   26.7670   30.9500 C   0  0  0  0  0  0  0  0  0  0  0  0
   36.4980   27.2660   30.7730 C   0  0  0  0  0  0  0  0  0  0  0  0
   35.4500   26.3100   31.3710 C   0  0  0  0  0  0  0  0  0  0  0  0
   35.7890   24.8950   30.8770 C   0  0  0  0  0  0  0  0  0  0  0  0
   38.1570   25.0240   29.7930 H   0  0  0  0  0  0  0  0  0  0  0  0
   39.0300   25.0260   31.3400 H   0  0  0  0  0  0  0  0  0  0  0  0
   38.1370   26.9770   32.0380 H   0  0  0  0  0  0  0  0  0  0  0  0
   38.6130   27.2810   30.3410 H   0  0  0  0  0  0  0  0  0  0  0  0
   36.2250   27.3460   29.6900 H   0  0  0  0  0  0  0  0  0  0  0  0
   34.4480   26.5500   31.0180 H   0  0  0  0  0  0  0  0  0  0  0  0
   35.6180   26.3230   32.4490 H   0  0  0  0  0  0  0  0  0  0  0  0
   34.9610   24.2130   31.1950 H   0  0  0  0  0  0  0  0  0  0  0  0
   35.7950   24.8510   29.7570 H   0  0  0  0  0  0  0  0  0  0  0  0
   37.1870   23.4690   32.4460 C   0  0  0  0  0  0  0  0  0  0  0  0
   36.4920   22.2630   32.4820 C   0  0  0  0  0  0  0  0  0  0  0  0
   36.7920   21.3960   33.5370 C   0  0  0  0  0  0  0  0  0  0  0  0
   37.7270   21.7650   34.4580 N   0  0  0  0  0  0  0  0  0  0  0  0
   38.3600   22.9260   34.3800 C   0  0  0  0  0  0  0  0  0  0  0  0
   38.1040   23.7760   33.3920 N   0  0  0  0  0  0  0  0  0  0  0  0
   35.7830   22.1040   31.6900 H   0  0  0  0  0  0  0  0  0  0  0  0
   36.2500   20.4690   33.5540 H   0  0  0  0  0  0  0  0  0  0  0  0
   39.3130   23.2080   35.3900 N   0  0  0  0  0  0  0  0  0  0  0  0
   40.7110   22.8400   35.2730 C   0  0  0  0  0  3  0  0  0  0  0  0
   40.8150   21.7980   34.8920 H   0  0  0  0  0  0  0  0  0  0  0  0
   41.4230   22.9600   36.6020 C   0  0  0  0  0  3  0  0  0  0  0  0
   42.3620   22.3730   36.5200 H   0  0  0  0  0  0  0  0  0  0  0  0
   40.7040   22.4810   37.6620 O   0  0  0  0  0  0  0  0  0  0  0  0
   39.3840   22.8370   37.7260 C   0  0  0  0  0  2  0  0  0  0  0  0
   39.1020   23.8740   36.6600 C   0  0  0  0  0  2  0  0  0  0  0  0
   36.3710   29.7100   30.6270 C   0  0  0  0  0  0  0  0  0  0  0  0
   36.2310   28.5780   31.4130 C   0  0  0  0  0  0  0  0  0  0  0  0
   35.8910   28.6050   32.7390 C   0  0  0  0  0  0  0  0  0  0  0  0
   35.6750   29.8530   33.3230 C   0  0  0  0  0  0  0  0  0  0  0  0
   35.8140   30.9800   32.5500 C   0  0  0  0  0  0  0  0  0  0  0  0
   36.1600   30.9540   31.2010 C   0  0  0  0  0  0  0  0  0  0  0  0
   35.5590   32.1250   33.3170 O   0  0  0  0  0  0  0  0  0  0  0  0
   34.9350   31.6370   34.4980 C   0  0  0  0  0  0  0  0  0  0  0  0
   35.3250   30.2890   34.6010 O   0  0  0  0  0  0  0  0  0  0  0  0
   36.6220   29.8110   29.5800 H   0  0  0  0  0  0  0  0  0  0  0  0
   35.7910   27.7160   33.3080 H   0  0  0  0  0  0  0  0  0  0  0  0
   36.2530   31.9020   30.6420 H   0  0  0  0  0  0  0  0  0  0  0  0
   33.8190   31.6550   34.3500 H   0  0  0  0  0  0  0  0  0  0  0  0
   35.2120   32.2400   35.3780 H   0  0  0  0  0  0  0  0  0  0  0  0
  1 16  1  0  0  0  0
  2  3  1  0  0  0  0
  2  8  1  0  0  0  0
  2  1  1  0  0  0  0
  3  9  1  0  0  0  0
  4  3  1  0  0  0  0
  4  5  1  0  0  0  0
  4 33  1  0  0  0  0
  5 13  1  0  0  0  0
  6 14  1  0  0  0  0
  6  5  1  0  0  0  0
  6  1  1  0  0  0  0
  7  2  1  0  0  0  0
 10  3  1  0  0  0  0
 11  4  1  0  0  0  0
 12  5  1  0  0  0  0
 15  6  1  0  0  0  0
 16 17  2  0  0  0  0
 16 21  1  0  0  0  0
 17 18  1  0  0  0  0
 18 23  1  0  0  0  0
 18 19  2  0  0  0  0
 20 19  1  0  0  0  0
 20 24  1  0  0  0  0
 21 20  2  0  0  0  0
 22 17  1  0  0  0  0
 24 31  1  0  0  0  0
 25 24  1  0  0  0  0
 25 27  1  0  0  0  0
 26 25  1  0  0  0  0
 27 29  1  0  0  0  0
 28 27  1  0  0  0  0
 29 30  1  0  0  0  0
 31 30  1  0  0  0  0
 32 37  2  0  0  0  0
 32 33  1  0  0  0  0
 33 34  2  0  0  0  0
 34 42  1  0  0  0  0
 34 35  1  0  0  0  0
 35 40  1  0  0  0  0
 36 38  1  0  0  0  0
 36 35  2  0  0  0  0
 37 36  1  0  0  0  0
 38 39  1  0  0  0  0
 39 40  1  0  0  0  0
 39 45  1  0  0  0  0
 41 32  1  0  0  0  0
 43 37  1  0  0  0  0
 44 39  1  0  0  0  0
M  END
>  <minimizedAffinity>
-6.0834403

$$$$

 OpenBabel03272507493D

 45 49  0  0  0  0  0  0  0  0999 V2000
   37.0420   24.4570   31.4340 N   0  0  0  0  0  0  0  0  0  0  0  0
   38.0610   25.2130   30.7920 C   0  0  0  0  0  0  0  0  0  0  0  0
   37.9310   26.6890   30.8590 C   0  0  0  0  0  0  0  0  0  0  0  0
   36.5820   27.2360   30.7200 C   0  0  0  0  0  0  0  0  0  0  0  0
   35.5200   26.3310   31.3680 C   0  0  0  0  0  0  0  0  0  0  0  0
   35.7880   24.8970   30.8870 C   0  0  0  0  0  0  0  0  0  0  0  0
   38.1200   24.9180   29.7210 H   0  0  0  0  0  0  0  0  0  0  0  0
   39.0460   24.9100   31.2370 H   0  0  0  0  0  0  0  0  0  0  0  0
   38.2520   26.9040   31.9330 H   0  0  0  0  0  0  0  0  0  0  0  0
   38.6800   27.1640   30.2160 H   0  0  0  0  0  0  0  0  0  0  0  0
   36.2750   27.3100   29.6450 H   0  0  0  0  0  0  0  0  0  0  0  0
   34.5160   26.6040   31.0460 H   0  0  0  0  0  0  0  0  0  0  0  0
   35.7260   26.3540   32.4400 H   0  0  0  0  0  0  0  0  0  0  0  0
   34.9460   24.2520   31.2440 H   0  0  0  0  0  0  0  0  0  0  0  0
   35.7540   24.8350   29.7680 H   0  0  0  0  0  0  0  0  0  0  0  0
   37.1840   23.4420   32.4310 C   0  0  0  0  0  0  0  0  0  0  0  0
   36.4820   22.2410   32.4810 C   0  0  0  0  0  0  0  0  0  0  0  0
   36.7780   21.3840   33.5460 C   0  0  0  0  0  0  0  0  0  0  0  0
   37.7170   21.7570   34.4610 N   0  0  0  0  0  0  0  0  0  0  0  0
   38.3570   22.9130   34.3690 C   0  0  0  0  0  0  0  0  0  0  0  0
   38.1050   23.7540   33.3720 N   0  0  0  0  0  0  0  0  0  0  0  0
   35.7710   22.0770   31.6920 H   0  0  0  0  0  0  0  0  0  0  0  0
   36.2310   20.4610   33.5740 H   0  0  0  0  0  0  0  0  0  0  0  0
   39.3130   23.2000   35.3750 N   0  0  0  0  0  0  0  0  0  0  0  0
   40.7080   22.8230   35.2600 C   0  0  0  0  0  3  0  0  0  0  0  0
   40.8060   21.7750   34.8900 H   0  0  0  0  0  0  0  0  0  0  0  0
   41.4240   22.9530   36.5860 C   0  0  0  0  0  3  0  0  0  0  0  0
   42.3580   22.3590   36.5100 H   0  0  0  0  0  0  0  0  0  0  0  0
   40.7030   22.4900   37.6530 O   0  0  0  0  0  0  0  0  0  0  0  0
   39.3850   22.8550   37.7150 C   0  0  0  0  0  2  0  0  0  0  0  0
   39.1090   23.8820   36.6370 C   0  0  0  0  0  2  0  0  0  0  0  0
   35.7960   28.6020   32.5990 C   0  0  0  0  0  0  0  0  0  0  0  0
   36.3880   28.5680   31.3470 C   0  0  0  0  0  0  0  0  0  0  0  0
   36.7750   29.6830   30.6530 C   0  0  0  0  0  0  0  0  0  0  0  0
   36.5550   30.9230   31.2530 C   0  0  0  0  0  0  0  0  0  0  0  0
   35.9670   30.9640   32.4930 C   0  0  0  0  0  0  0  0  0  0  0  0
   35.5730   29.8300   33.2000 C   0  0  0  0  0  0  0  0  0  0  0  0
   35.8310   32.2920   32.9180 O   0  0  0  0  0  0  0  0  0  0  0  0
   36.6610   33.0400   32.0380 C   0  0  0  0  0  0  0  0  0  0  0  0
   36.7980   32.2460   30.8840 O   0  0  0  0  0  0  0  0  0  0  0  0
   35.4630   27.7980   33.2390 H   0  0  0  0  0  0  0  0  0  0  0  0
   37.2270   29.6160   29.6960 H   0  0  0  0  0  0  0  0  0  0  0  0
   35.1050   29.9410   34.1950 H   0  0  0  0  0  0  0  0  0  0  0  0
   37.6820   33.1400   32.5020 H   0  0  0  0  0  0  0  0  0  0  0  0
   36.2360   34.0370   31.8340 H   0  0  0  0  0  0  0  0  0  0  0  0
  1 16  1  0  0  0  0
  2  3  1  0  0  0  0
  2  8  1  0  0  0  0
  2  1  1  0  0  0  0
  3  9  1  0  0  0  0
  4  3  1  0  0  0  0
  4 33  1  0  0  0  0
  4  5  1  0  0  0  0
  5 13  1  0  0  0  0
  6 14  1  0  0  0  0
  6  5  1  0  0  0  0
  6  1  1  0  0  0  0
  7  2  1  0  0  0  0
 10  3  1  0  0  0  0
 11  4  1  0  0  0  0
 12  5  1  0  0  0  0
 15  6  1  0  0  0  0
 16 17  2  0  0  0  0
 16 21  1  0  0  0  0
 17 18  1  0  0  0  0
 18 23  1  0  0  0  0
 18 19  2  0  0  0  0
 20 19  1  0  0  0  0
 20 24  1  0  0  0  0
 21 20  2  0  0  0  0
 22 17  1  0  0  0  0
 24 31  1  0  0  0  0
 25 24  1  0  0  0  0
 25 27  1  0  0  0  0
 26 25  1  0  0  0  0
 27 29  1  0  0  0  0
 28 27  1  0  0  0  0
 29 30  1  0  0  0  0
 31 30  1  0  0  0  0
 32 37  1  0  0  0  0
 32 41  1  0  0  0  0
 33 32  2  0  0  0  0
 34 35  2  0  0  0  0
 34 33  1  0  0  0  0
 35 36  1  0  0  0  0
 36 38  1  0  0  0  0
 36 37  2  0  0  0  0
 37 43  1  0  0  0  0
 39 44  1  0  0  0  0
 39 38  1  0  0  0  0
 40 35  1  0  0  0  0
 40 39  1  0  0  0  0
 42 34  1  0  0  0  0
 45 39  1  0  0  0  0
M  END
>  <minimizedAffinity>
-5.96783638

$$$$

 OpenBabel03272507493D

 45 49  0  0  0  0  0  0  0  0999 V2000
   36.8150   27.4900   33.6730 N   0  0  0  0  0  0  0  0  0  0  0  0
   37.1340   26.8990   34.9260 C   0  0  0  0  0  0  0  0  0  0  0  0
   38.5600   26.5670   35.1570 C   0  0  0  0  0  0  0  0  0  0  0  0
   39.3010   26.0250   34.0180 C   0  0  0  0  0  0  0  0  0  0  0  0
   38.8530   26.6520   32.6850 C   0  0  0  0  0  0  0  0  0  0  0  0
   37.3180   26.6090   32.6550 C   0  0  0  0  0  0  0  0  0  0  0  0
   36.5350   25.9710   35.0590 H   0  0  0  0  0  0  0  0  0  0  0  0
   36.7830   27.5950   35.7340 H   0  0  0  0  0  0  0  0  0  0  0  0
   39.0090   27.5940   35.3690 H   0  0  0  0  0  0  0  0  0  0  0  0
   38.6690   25.9900   36.0820 H   0  0  0  0  0  0  0  0  0  0  0  0
   39.1200   24.9280   33.8910 H   0  0  0  0  0  0  0  0  0  0  0  0
   39.2150   26.0760   31.8350 H   0  0  0  0  0  0  0  0  0  0  0  0
   39.1440   27.7020   32.7400 H   0  0  0  0  0  0  0  0  0  0  0  0
   36.9850   26.9400   31.6390 H   0  0  0  0  0  0  0  0  0  0  0  0
   36.9420   25.5590   32.7620 H   0  0  0  0  0  0  0  0  0  0  0  0
   36.1260   28.7180   33.4200 C   0  0  0  0  0  0  0  0  0  0  0  0
   35.9020   29.2870   32.1690 C   0  0  0  0  0  0  0  0  0  0  0  0
   35.2000   30.4970   32.1460 C   0  0  0  0  0  0  0  0  0  0  0  0
   34.7800   31.0460   33.3210 N   0  0  0  0  0  0  0  0  0  0  0  0
   35.0200   30.4640   34.4860 C   0  0  0  0  0  0  0  0  0  0  0  0
   35.6820   29.3150   34.5500 N   0  0  0  0  0  0  0  0  0  0  0  0
   36.2900   28.7440   31.3270 H   0  0  0  0  0  0  0  0  0  0  0  0
   35.0330   30.9260   31.1770 H   0  0  0  0  0  0  0  0  0  0  0  0
   34.5370   31.1230   35.6450 N   0  0  0  0  0  0  0  0  0  0  0  0
   33.2180   30.8760   36.1940 C   0  0  0  0  0  3  0  0  0  0  0  0
   32.4500   30.8550   35.3850 H   0  0  0  0  0  0  0  0  0  0  0  0
   32.8420   31.9270   37.2140 C   0  0  0  0  0  3  0  0  0  0  0  0
   31.7410   31.8740   37.3430 H   0  0  0  0  0  0  0  0  0  0  0  0
   33.1720   33.2020   36.8430 O   0  0  0  0  0  0  0  0  0  0  0  0
   34.4200   33.3890   36.3130 C   0  0  0  0  0  2  0  0  0  0  0  0
   35.2140   32.1100   36.4620 C   0  0  0  0  0  2  0  0  0  0  0  0
   41.2910   27.2520   33.2770 C   0  0  0  0  0  0  0  0  0  0  0  0
   40.7680   26.2460   34.0740 C   0  0  0  0  0  0  0  0  0  0  0  0
   41.5230   25.4380   34.8800 C   0  0  0  0  0  0  0  0  0  0  0  0
   42.9020   25.6480   34.8910 C   0  0  0  0  0  0  0  0  0  0  0  0
   43.4280   26.6420   34.1030 C   0  0  0  0  0  0  0  0  0  0  0  0
   42.6600   27.4660   33.2830 C   0  0  0  0  0  0  0  0  0  0  0  0
   44.8200   26.6900   34.2530 O   0  0  0  0  0  0  0  0  0  0  0  0
   45.0860   25.9110   35.4130 C   0  0  0  0  0  0  0  0  0  0  0  0
   43.9780   25.0560   35.5540 O   0  0  0  0  0  0  0  0  0  0  0  0
   40.7990   27.9520   32.6170 H   0  0  0  0  0  0  0  0  0  0  0  0
   41.0860   24.6790   35.4770 H   0  0  0  0  0  0  0  0  0  0  0  0
   43.1540   28.2460   32.6760 H   0  0  0  0  0  0  0  0  0  0  0  0
   45.1030   26.5920   36.3090 H   0  0  0  0  0  0  0  0  0  0  0  0
   46.0440   25.3730   35.3250 H   0  0  0  0  0  0  0  0  0  0  0  0
  1  2  1  0  0  0  0
  2  7  1  0  0  0  0
  2  3  1  0  0  0  0
  2  8  1  0  0  0  0
  3  9  1  0  0  0  0
  3 10  1  0  0  0  0
  4 33  1  0  0  0  0
  4  3  1  0  0  0  0
  5 13  1  0  0  0  0
  5  4  1  0  0  0  0
  6  5  1  0  0  0  0
  6 15  1  0  0  0  0
  6  1  1  0  0  0  0
 11  4  1  0  0  0  0
 12  5  1  0  0  0  0
 14  6  1  0  0  0  0
 16  1  1  0  0  0  0
 16 21  1  0  0  0  0
 17 16  2  0  0  0  0
 18 17  1  0  0  0  0
 18 19  2  0  0  0  0
 19 20  1  0  0  0  0
 20 21  2  0  0  0  0
 20 24  1  0  0  0  0
 22 17  1  0  0  0  0
 23 18  1  0  0  0  0
 24 25  1  0  0  0  0
 24 31  1  0  0  0  0
 25 27  1  0  0  0  0
 26 25  1  0  0  0  0
 27 28  1  0  0  0  0
 29 27  1  0  0  0  0
 30 31  1  0  0  0  0
 30 29  1  0  0  0  0
 32 37  2  0  0  0  0
 32 33  1  0  0  0  0
 33 34  2  0  0  0  0
 34 35  1  0  0  0  0
 34 42  1  0  0  0  0
 35 40  1  0  0  0  0
 36 38  1  0  0  0  0
 36 35  2  0  0  0  0
 37 36  1  0  0  0  0
 38 39  1  0  0  0  0
 39 40  1  0  0  0  0
 39 44  1  0  0  0  0
 41 32  1  0  0  0  0
 43 37  1  0  0  0  0
 45 39  1  0  0  0  0
M  END
>  <minimizedAffinity>
-5.95249796

$$$$

 OpenBabel03272507493D

 45 49  0  0  0  0  0  0  0  0999 V2000
   36.7800   26.2970   31.5890 N   0  0  0  0  0  0  0  0  0  0  0  0
   37.6010   27.2460   30.9190 C   0  0  0  0  0  0  0  0  0  0  0  0
   37.4360   28.6630   31.3220 C   0  0  0  0  0  0  0  0  0  0  0  0
   36.0710   29.1160   31.5920 C   0  0  0  0  0  0  0  0  0  0  0  0
   35.2160   28.0160   32.2460 C   0  0  0  0  0  0  0  0  0  0  0  0
   35.4200   26.7330   31.4280 C   0  0  0  0  0  0  0  0  0  0  0  0
   37.4270   27.1740   29.8230 H   0  0  0  0  0  0  0  0  0  0  0  0
   38.6700   26.9420   31.0700 H   0  0  0  0  0  0  0  0  0  0  0  0
   37.9830   28.6880   32.3230 H   0  0  0  0  0  0  0  0  0  0  0  0
   38.0030   29.3160   30.6490 H   0  0  0  0  0  0  0  0  0  0  0  0
   35.5280   29.3750   30.6480 H   0  0  0  0  0  0  0  0  0  0  0  0
   34.1570   28.2650   32.2100 H   0  0  0  0  0  0  0  0  0  0  0  0
   35.6570   27.8440   33.2290 H   0  0  0  0  0  0  0  0  0  0  0  0
   34.7040   25.9630   31.8120 H   0  0  0  0  0  0  0  0  0  0  0  0
   35.1360   26.8900   30.3540 H   0  0  0  0  0  0  0  0  0  0  0  0
   37.1800   25.1200   32.2960 C   0  0  0  0  0  0  0  0  0  0  0  0
   38.0630   25.0720   33.3710 C   0  0  0  0  0  0  0  0  0  0  0  0
   38.3160   23.8120   33.9210 C   0  0  0  0  0  0  0  0  0  0  0  0
   37.7000   22.7170   33.3910 N   0  0  0  0  0  0  0  0  0  0  0  0
   36.8680   22.8160   32.3660 C   0  0  0  0  0  0  0  0  0  0  0  0
   36.6010   23.9950   31.8160 N   0  0  0  0  0  0  0  0  0  0  0  0
   38.4750   26.0140   33.6860 H   0  0  0  0  0  0  0  0  0  0  0  0
   38.9980   23.7870   34.7500 H   0  0  0  0  0  0  0  0  0  0  0  0
   36.2830   21.6140   31.8940 N   0  0  0  0  0  0  0  0  0  0  0  0
   35.0280   21.1000   32.4070 C   0  0  0  0  0  3  0  0  0  0  0  0
   35.0020   21.1570   33.5200 H   0  0  0  0  0  0  0  0  0  0  0  0
   34.8050   19.6670   31.9750 C   0  0  0  0  0  3  0  0  0  0  0  0
   34.0270   19.2450   32.6450 H   0  0  0  0  0  0  0  0  0  0  0  0
   35.9220   18.8820   32.0600 O   0  0  0  0  0  0  0  0  0  0  0  0
   37.0890   19.4120   31.5810 C   0  0  0  0  0  2  0  0  0  0  0  0
   36.7830   20.7150   30.8740 C   0  0  0  0  0  2  0  0  0  0  0  0
   36.2070   31.5340   31.9780 C   0  0  0  0  0  0  0  0  0  0  0  0
   35.9760   30.2770   32.5120 C   0  0  0  0  0  0  0  0  0  0  0  0
   35.6940   30.0470   33.8320 C   0  0  0  0  0  0  0  0  0  0  0  0
   35.6400   31.1520   34.6810 C   0  0  0  0  0  0  0  0  0  0  0  0
   35.8690   32.4010   34.1580 C   0  0  0  0  0  0  0  0  0  0  0  0
   36.1560   32.6370   32.8150 C   0  0  0  0  0  0  0  0  0  0  0  0
   35.7730   33.3700   35.1650 O   0  0  0  0  0  0  0  0  0  0  0  0
   35.1460   32.7000   36.2520 C   0  0  0  0  0  0  0  0  0  0  0  0
   35.3910   31.3310   36.0420 O   0  0  0  0  0  0  0  0  0  0  0  0
   36.4250   31.8350   30.9630 H   0  0  0  0  0  0  0  0  0  0  0  0
   35.5210   29.0690   34.2040 H   0  0  0  0  0  0  0  0  0  0  0  0
   36.3300   33.6700   32.4670 H   0  0  0  0  0  0  0  0  0  0  0  0
   34.0340   32.8590   36.1820 H   0  0  0  0  0  0  0  0  0  0  0  0
   35.5240   33.0670   37.2220 H   0  0  0  0  0  0  0  0  0  0  0  0
  1 16  1  0  0  0  0
  2  8  1  0  0  0  0
  2  3  1  0  0  0  0
  2  1  1  0  0  0  0
  3  4  1  0  0  0  0
  3  9  1  0  0  0  0
  4  5  1  0  0  0  0
  4 33  1  0  0  0  0
  5 13  1  0  0  0  0
  6  1  1  0  0  0  0
  6 14  1  0  0  0  0
  6  5  1  0  0  0  0
  7  2  1  0  0  0  0
 10  3  1  0  0  0  0
 11  4  1  0  0  0  0
 12  5  1  0  0  0  0
 15  6  1  0  0  0  0
 16 17  1  0  0  0  0
 17 22  1  0  0  0  0
 17 18  2  0  0  0  0
 18 23  1  0  0  0  0
 19 18  1  0  0  0  0
 20 19  2  0  0  0  0
 21 16  2  0  0  0  0
 21 20  1  0  0  0  0
 24 20  1  0  0  0  0
 24 25  1  0  0  0  0
 25 26  1  0  0  0  0
 27 29  1  0  0  0  0
 27 25  1  0  0  0  0
 27 28  1  0  0  0  0
 30 29  1  0  0  0  0
 31 30  1  0  0  0  0
 31 24  1  0  0  0  0
 32 33  2  0  0  0  0
 32 37  1  0  0  0  0
 33 34  1  0  0  0  0
 34 42  1  0  0  0  0
 34 35  2  0  0  0  0
 35 40  1  0  0  0  0
 36 35  1  0  0  0  0
 36 38  1  0  0  0  0
 37 36  2  0  0  0  0
 38 39  1  0  0  0  0
 39 45  1  0  0  0  0
 40 39  1  0  0  0  0
 41 32  1  0  0  0  0
 43 37  1  0  0  0  0
 44 39  1  0  0  0  0
M  END
>  <minimizedAffinity>
-5.95245123

$$$$

 OpenBabel03272507493D

 45 49  0  0  0  0  0  0  0  0999 V2000
   38.3920   26.5110   33.4390 N   0  0  0  0  0  0  0  0  0  0  0  0
   37.9870   27.0640   32.1940 C   0  0  0  0  0  0  0  0  0  0  0  0
   37.2040   28.3220   32.2520 C   0  0  0  0  0  0  0  0  0  0  0  0
   36.2130   28.4300   33.3230 C   0  0  0  0  0  0  0  0  0  0  0  0
   36.6840   27.7440   34.6180 C   0  0  0  0  0  0  0  0  0  0  0  0
   37.2050   26.3520   34.2330 C   0  0  0  0  0  0  0  0  0  0  0  0
   37.3910   26.3100   31.6320 H   0  0  0  0  0  0  0  0  0  0  0  0
   38.9080   27.2320   31.5760 H   0  0  0  0  0  0  0  0  0  0  0  0
   38.0130   29.0910   32.4890 H   0  0  0  0  0  0  0  0  0  0  0  0
   36.8230   28.5770   31.2570 H   0  0  0  0  0  0  0  0  0  0  0  0
   35.2580   27.9100   33.0560 H   0  0  0  0  0  0  0  0  0  0  0  0
   35.8580   27.6050   35.3150 H   0  0  0  0  0  0  0  0  0  0  0  0
   37.5410   28.3240   34.9650 H   0  0  0  0  0  0  0  0  0  0  0  0
   37.4260   25.7940   35.1780 H   0  0  0  0  0  0  0  0  0  0  0  0
   36.4110   25.7530   33.7160 H   0  0  0  0  0  0  0  0  0  0  0  0
   39.7120   26.1590   33.8670 C   0  0  0  0  0  0  0  0  0  0  0  0
   40.8470   26.9570   33.7570 C   0  0  0  0  0  0  0  0  0  0  0  0
   42.0420   26.4180   34.2430 C   0  0  0  0  0  0  0  0  0  0  0  0
   42.0390   25.1680   34.7870 N   0  0  0  0  0  0  0  0  0  0  0  0
   40.9300   24.4480   34.8660 C   0  0  0  0  0  0  0  0  0  0  0  0
   39.7740   24.9240   34.4160 N   0  0  0  0  0  0  0  0  0  0  0  0
   40.7030   27.9220   33.3070 H   0  0  0  0  0  0  0  0  0  0  0  0
   42.9110   27.0430   34.1540 H   0  0  0  0  0  0  0  0  0  0  0  0
   41.0400   23.1610   35.4490 N   0  0  0  0  0  0  0  0  0  0  0  0
   40.8710   22.9290   36.8710 C   0  0  0  0  0  3  0  0  0  0  0  0
   41.4210   23.6950   37.4650 H   0  0  0  0  0  0  0  0  0  0  0  0
   41.3560   21.5500   37.2630 C   0  0  0  0  0  3  0  0  0  0  0  0
   41.5020   21.5600   38.3630 H   0  0  0  0  0  0  0  0  0  0  0  0
   42.5360   21.1880   36.6730 O   0  0  0  0  0  0  0  0  0  0  0  0
   42.6610   21.4410   35.3330 C   0  0  0  0  0  2  0  0  0  0  0  0
   41.3240   21.9010   34.7930 C   0  0  0  0  0  2  0  0  0  0  0  0
   35.7000   30.7480   32.7070 C   0  0  0  0  0  0  0  0  0  0  0  0
   35.8840   29.8220   33.7220 C   0  0  0  0  0  0  0  0  0  0  0  0
   35.8060   30.1210   35.0550 C   0  0  0  0  0  0  0  0  0  0  0  0
   35.5240   31.4430   35.4020 C   0  0  0  0  0  0  0  0  0  0  0  0
   35.3420   32.3660   34.4020 C   0  0  0  0  0  0  0  0  0  0  0  0
   35.4210   32.0620   33.0450 C   0  0  0  0  0  0  0  0  0  0  0  0
   35.0730   33.6260   34.9530 O   0  0  0  0  0  0  0  0  0  0  0  0
   34.7680   33.3660   36.3180 C   0  0  0  0  0  0  0  0  0  0  0  0
   35.3670   32.1260   36.6080 O   0  0  0  0  0  0  0  0  0  0  0  0
   35.7260   30.6270   31.6340 H   0  0  0  0  0  0  0  0  0  0  0  0
   35.9510   29.3840   35.8030 H   0  0  0  0  0  0  0  0  0  0  0  0
   35.2620   32.8590   32.2970 H   0  0  0  0  0  0  0  0  0  0  0  0
   33.6550   33.2360   36.4210 H   0  0  0  0  0  0  0  0  0  0  0  0
   35.1180   34.1830   36.9710 H   0  0  0  0  0  0  0  0  0  0  0  0
  1 16  1  0  0  0  0
  1  6  1  0  0  0  0
  2  3  1  0  0  0  0
  2  1  1  0  0  0  0
  3  9  1  0  0  0  0
  3  4  1  0  0  0  0
  4 33  1  0  0  0  0
  4  5  1  0  0  0  0
  5 13  1  0  0  0  0
  5 12  1  0  0  0  0
  6  5  1  0  0  0  0
  6 14  1  0  0  0  0
  7  2  1  0  0  0  0
  8  2  1  0  0  0  0
 10  3  1  0  0  0  0
 11  4  1  0  0  0  0
 15  6  1  0  0  0  0
 16 21  1  0  0  0  0
 17 16  2  0  0  0  0
 17 18  1  0  0  0  0
 18 19  2  0  0  0  0
 19 20  1  0  0  0  0
 20 24  1  0  0  0  0
 21 20  2  0  0  0  0
 22 17  1  0  0  0  0
 23 18  1  0  0  0  0
 24 25  1  0  0  0  0
 25 27  1  0  0  0  0
 25 26  1  0  0  0  0
 27 28  1  0  0  0  0
 29 27  1  0  0  0  0
 30 29  1  0  0  0  0
 31 30  1  0  0  0  0
 31 24  1  0  0  0  0
 32 37  2  0  0  0  0
 32 33  1  0  0  0  0
 33 34  2  0  0  0  0
 34 35  1  0  0  0  0
 34 42  1  0  0  0  0
 35 40  1  0  0  0  0
 36 38  1  0  0  0  0
 36 35  2  0  0  0  0
 37 36  1  0  0  0  0
 38 39  1  0  0  0  0
 39 44  1  0  0  0  0
 39 40  1  0  0  0  0
 39 45  1  0  0  0  0
 41 32  1  0  0  0  0
 43 37  1  0  0  0  0
M  END
>  <minimizedAffinity>
-5.94274139

$$$$
