
 OpenBabel03272510083D

 43 47  0  0  0  0  0  0  0  0999 V2000
   35.5550   28.9520   49.1920 C   0  0  0  0  0  0  0  0  0  0  0  0
   36.1360   28.6750   50.3890 N   0  0  0  0  0  0  0  0  0  0  0  0
   37.3500   29.1760   50.6690 C   0  0  0  0  0  0  0  0  0  0  0  0
   38.0720   29.9670   49.8200 N   0  0  0  0  0  0  0  0  0  0  0  0
   37.5180   30.2590   48.6220 C   0  0  0  0  0  0  0  0  0  0  0  0
   38.1590   31.0500   47.6800 C   0  0  0  0  0  0  0  0  0  0  0  0
   37.5710   31.3300   46.4600 C   0  0  0  0  0  0  0  0  0  0  0  0
   36.3060   30.8010   46.1800 C   0  0  0  0  0  0  0  0  0  0  0  0
   35.6970   30.0120   47.1520 C   0  0  0  0  0  0  0  0  0  0  0  0
   36.2860   29.7440   48.3490 C   0  0  0  0  0  0  0  0  0  0  0  0
   37.8430   28.9690   51.6250 H   0  0  0  0  0  0  0  0  0  0  0  0
   39.1270   31.4020   48.0000 H   0  0  0  0  0  0  0  0  0  0  0  0
   38.1750   31.9570   45.8220 H   0  0  0  0  0  0  0  0  0  0  0  0
   36.0370   31.1380   45.1900 H   0  0  0  0  0  0  0  0  0  0  0  0
   33.9470   27.1590   48.3430 C   0  0  0  0  0  0  0  0  0  0  0  0
   34.2700   28.3800   48.9980 C   0  0  0  0  0  0  0  0  0  0  0  0
   33.2150   29.1570   49.5280 C   0  0  0  0  0  0  0  0  0  0  0  0
   31.9350   28.7230   49.3930 N   0  0  0  0  0  0  0  0  0  0  0  0
   31.6810   27.5540   48.7560 C   0  0  0  0  0  0  0  0  0  0  0  0
   32.6620   26.7740   48.2370 N   0  0  0  0  0  0  0  0  0  0  0  0
   30.2940   27.1710   48.6020 N   0  0  0  0  0  0  0  0  0  0  0  0
   29.4030   26.9500   49.6970 C   0  0  0  0  0  0  0  0  0  0  0  0
   28.0640   26.7730   49.0480 C   0  0  0  0  0  0  0  0  0  0  0  0
   28.2040   27.2400   47.6190 C   0  0  0  0  0  0  0  0  0  0  0  0
   29.6220   26.9680   47.3020 C   0  0  0  0  0  0  0  0  0  0  0  0
   34.8040   26.6190   47.9700 H   0  0  0  0  0  0  0  0  0  0  0  0
   33.3480   30.0790   50.0380 H   0  0  0  0  0  0  0  0  0  0  0  0
   29.6950   26.1530   50.3970 H   0  0  0  0  0  0  0  0  0  0  0  0
   29.3560   27.9190   50.2590 H   0  0  0  0  0  0  0  0  0  0  0  0
   27.8840   25.6610   48.9980 H   0  0  0  0  0  0  0  0  0  0  0  0
   27.2330   27.2680   49.5850 H   0  0  0  0  0  0  0  0  0  0  0  0
   28.0260   28.3410   47.5950 H   0  0  0  0  0  0  0  0  0  0  0  0
   27.4680   26.7660   46.9380 H   0  0  0  0  0  0  0  0  0  0  0  0
   29.7590   25.9490   46.9210 H   0  0  0  0  0  0  0  0  0  0  0  0
   30.0660   27.6850   46.5830 H   0  0  0  0  0  0  0  0  0  0  0  0
   34.5050   29.6510   46.4820 N   0  0  0  0  0  0  0  0  0  0  0  0
   33.2210   30.1790   46.0800 C   0  0  0  0  0  3  0  0  0  0  0  0
   33.0420   31.2100   46.4330 H   0  0  0  0  0  0  0  0  0  0  0  0
   32.0940   29.3530   46.7360 C   0  0  0  0  0  3  0  0  0  0  0  0
   31.1770   29.9650   46.6120 H   0  0  0  0  0  0  0  0  0  0  0  0
   31.9580   28.2310   45.9610 O   0  0  0  0  0  0  0  0  0  0  0  0
   33.1300   27.9480   45.3040 C   0  0  0  0  0  2  0  0  0  0  0  0
   34.3880   28.2360   46.0360 C   0  0  0  0  0  2  0  0  0  0  0  0
  1  2  1  0  0  0  0
  2  3  2  0  0  0  0
  3 11  1  0  0  0  0
  4  3  1  0  0  0  0
  5  4  2  0  0  0  0
  6 12  1  0  0  0  0
  6  5  1  0  0  0  0
  7  6  2  0  0  0  0
  8  7  1  0  0  0  0
  8  9  2  0  0  0  0
  9 10  1  0  0  0  0
 10  5  1  0  0  0  0
 10  1  2  0  0  0  0
 13  7  1  0  0  0  0
 14  8  1  0  0  0  0
 15 16  1  0  0  0  0
 16  1  1  0  0  0  0
 16 17  2  0  0  0  0
 17 27  1  0  0  0  0
 18 17  1  0  0  0  0
 19 18  2  0  0  0  0
 20 15  2  0  0  0  0
 20 19  1  0  0  0  0
 21 19  1  0  0  0  0
 21 22  1  0  0  0  0
 22 29  1  0  0  0  0
 22 28  1  0  0  0  0
 23 31  1  0  0  0  0
 23 22  1  0  0  0  0
 24 23  1  0  0  0  0
 25 24  1  0  0  0  0
 25 21  1  0  0  0  0
 26 15  1  0  0  0  0
 30 23  1  0  0  0  0
 32 24  1  0  0  0  0
 33 24  1  0  0  0  0
 34 25  1  0  0  0  0
 35 25  1  0  0  0  0
 36  9  1  0  0  0  0
 37 38  1  0  0  0  0
 37 36  1  0  0  0  0
 37 39  1  0  0  0  0
 40 39  1  0  0  0  0
 41 39  1  0  0  0  0
 42 41  1  0  0  0  0
 42 43  1  0  0  0  0
 43 36  1  0  0  0  0
M  END
>  <minimizedAffinity>
-4.88678885

>  <minimizedRMSD>
2.92722964

$$$$
