
 OpenBabel03272508463D

 39 43  0  0  0  0  0  0  0  0999 V2000
   35.4740   29.4830   49.5920 C   0  0  0  0  0  0  0  0  0  0  0  0
   36.5120   29.0240   50.3880 C   0  0  0  0  0  0  0  0  0  0  0  0
   37.6480   29.5220   49.7570 C   0  0  0  0  0  0  0  0  0  0  0  0
   37.2740   30.2300   48.6540 C   0  0  0  0  0  0  0  0  0  0  0  0
   35.9610   30.1810   48.5900 O   0  0  0  0  0  0  0  0  0  0  0  0
   36.4530   28.4200   51.2910 H   0  0  0  0  0  0  0  0  0  0  0  0
   38.6490   29.3600   50.1030 H   0  0  0  0  0  0  0  0  0  0  0  0
   38.5390   32.2160   47.9730 C   0  0  0  0  0  0  0  0  0  0  0  0
   38.1410   30.9210   47.7020 C   0  0  0  0  0  0  0  0  0  0  0  0
   38.5450   30.2690   46.5520 C   0  0  0  0  0  0  0  0  0  0  0  0
   39.3690   30.9140   45.6370 C   0  0  0  0  0  0  0  0  0  0  0  0
   39.9180   30.5480   44.4510 N   0  0  0  0  0  0  0  0  0  0  0  0
   40.6170   31.5840   44.0290 N   0  0  0  0  0  0  0  0  0  0  0  0
   40.5320   32.6030   44.9110 C   0  0  0  0  0  0  0  0  0  0  0  0
   39.7300   32.1960   45.9630 C   0  0  0  0  0  0  0  0  0  0  0  0
   39.3720   32.9040   47.0750 C   0  0  0  0  0  0  0  0  0  0  0  0
   38.2010   32.6980   48.8910 H   0  0  0  0  0  0  0  0  0  0  0  0
   38.2220   29.2550   46.3590 H   0  0  0  0  0  0  0  0  0  0  0  0
   39.7460   29.5960   44.0510 H   0  0  0  0  0  0  0  0  0  0  0  0
   41.0210   33.5620   44.7870 H   0  0  0  0  0  0  0  0  0  0  0  0
   39.6820   33.8990   47.2770 H   0  0  0  0  0  0  0  0  0  0  0  0
   34.0680   29.2190   49.8440 C   0  0  0  0  0  0  0  0  0  0  0  0
   33.4960   29.8360   50.7690 O   0  0  0  0  0  0  0  0  0  0  0  0
   31.3360   27.2030   48.4940 C   0  0  0  0  0  0  0  0  0  0  0  0
   31.9610   26.4380   47.5040 C   0  0  0  0  0  0  0  0  0  0  0  0
   33.3040   26.6140   47.3030 C   0  0  0  0  0  0  0  0  0  0  0  0
   33.9820   27.5010   48.0480 N   0  0  0  0  0  0  0  0  0  0  0  0
   33.3600   28.2460   49.0170 C   0  0  0  0  0  0  0  0  0  0  0  0
   32.0290   28.0860   49.2310 N   0  0  0  0  0  0  0  0  0  0  0  0
   30.2830   27.1440   48.7370 H   0  0  0  0  0  0  0  0  0  0  0  0
   31.3720   25.7530   46.9470 H   0  0  0  0  0  0  0  0  0  0  0  0
   34.0020   25.8710   46.3130 N   0  0  0  0  0  0  0  0  0  0  0  0
   34.4330   26.4360   45.0550 C   0  0  0  0  0  3  0  0  0  0  0  0
   33.8440   27.2750   44.6910 H   0  0  0  0  0  0  0  0  0  0  0  0
   34.4170   25.3120   44.0200 C   0  0  0  0  0  3  0  0  0  0  0  0
   34.6200   25.7160   43.0000 H   0  0  0  0  0  0  0  0  0  0  0  0
   35.2750   24.2830   44.3530 O   0  0  0  0  0  0  0  0  0  0  0  0
   35.5550   24.1620   45.6910 C   0  0  0  0  0  2  0  0  0  0  0  0
   34.3260   24.4720   46.5170 C   0  0  0  0  0  2  0  0  0  0  0  0
  1 22  1  0  0  0  0
  1  2  2  0  0  0  0
  2  6  1  0  0  0  0
  3  7  1  0  0  0  0
  3  2  1  0  0  0  0
  4  3  2  0  0  0  0
  5  4  1  0  0  0  0
  5  1  1  0  0  0  0
  8 17  1  0  0  0  0
  9  8  1  0  0  0  0
  9  4  1  0  0  0  0
 10  9  2  0  0  0  0
 11 15  2  0  0  0  0
 11 10  1  0  0  0  0
 12 11  1  0  0  0  0
 13 12  1  0  0  0  0
 13 14  2  0  0  0  0
 14 15  1  0  0  0  0
 15 16  1  0  0  0  0
 16 21  1  0  0  0  0
 16  8  2  0  0  0  0
 18 10  1  0  0  0  0
 19 12  1  0  0  0  0
 20 14  1  0  0  0  0
 22 23  2  0  0  0  0
 24 30  1  0  0  0  0
 24 29  1  0  0  0  0
 25 24  2  0  0  0  0
 26 25  1  0  0  0  0
 26 27  2  0  0  0  0
 27 28  1  0  0  0  0
 28 29  2  0  0  0  0
 28 22  1  0  0  0  0
 31 25  1  0  0  0  0
 32 39  1  0  0  0  0
 32 26  1  0  0  0  0
 33 32  1  0  0  0  0
 34 33  1  0  0  0  0
 35 37  1  0  0  0  0
 35 33  1  0  0  0  0
 36 35  1  0  0  0  0
 37 38  1  0  0  0  0
 38 39  1  0  0  0  0
M  END
>  <minimizedAffinity>
-6.18321943

>  <minimizedRMSD>
0.567085207

$$$$
