
 OpenBabel03272508463D

 39 43  0  0  0  0  0  0  0  0999 V2000
   35.6560   29.8780   49.3410 C   0  0  0  0  0  0  0  0  0  0  0  0
   36.7500   29.6200   50.1510 C   0  0  0  0  0  0  0  0  0  0  0  0
   37.8010   30.2440   49.4850 C   0  0  0  0  0  0  0  0  0  0  0  0
   37.3260   30.8290   48.3480 C   0  0  0  0  0  0  0  0  0  0  0  0
   36.0340   30.5850   48.2990 O   0  0  0  0  0  0  0  0  0  0  0  0
   36.7810   29.0640   51.0850 H   0  0  0  0  0  0  0  0  0  0  0  0
   38.8150   30.2490   49.8290 H   0  0  0  0  0  0  0  0  0  0  0  0
   39.0830   32.4400   47.7760 C   0  0  0  0  0  0  0  0  0  0  0  0
   38.0810   31.5870   47.3530 C   0  0  0  0  0  0  0  0  0  0  0  0
   37.7810   31.4370   46.0120 C   0  0  0  0  0  0  0  0  0  0  0  0
   38.4910   32.1520   45.0540 C   0  0  0  0  0  0  0  0  0  0  0  0
   38.4320   32.2170   43.7000 N   0  0  0  0  0  0  0  0  0  0  0  0
   39.3610   33.0760   43.3280 N   0  0  0  0  0  0  0  0  0  0  0  0
   40.0140   33.5630   44.4040 C   0  0  0  0  0  0  0  0  0  0  0  0
   39.4710   32.9810   45.5360 C   0  0  0  0  0  0  0  0  0  0  0  0
   39.8240   33.1820   46.8410 C   0  0  0  0  0  0  0  0  0  0  0  0
   39.2910   32.5320   48.8420 H   0  0  0  0  0  0  0  0  0  0  0  0
   36.9940   30.7640   45.7020 H   0  0  0  0  0  0  0  0  0  0  0  0
   37.7360   31.6450   43.1660 H   0  0  0  0  0  0  0  0  0  0  0  0
   40.8210   34.2840   44.3560 H   0  0  0  0  0  0  0  0  0  0  0  0
   40.5950   33.8390   47.1590 H   0  0  0  0  0  0  0  0  0  0  0  0
   34.3030   29.4250   49.6190 C   0  0  0  0  0  0  0  0  0  0  0  0
   33.8230   29.6270   50.7560 O   0  0  0  0  0  0  0  0  0  0  0  0
   31.8400   27.2440   48.0300 C   0  0  0  0  0  0  0  0  0  0  0  0
   32.0690   27.4430   46.6650 C   0  0  0  0  0  0  0  0  0  0  0  0
   33.0580   28.3160   46.2960 C   0  0  0  0  0  0  0  0  0  0  0  0
   33.7750   28.9520   47.2360 N   0  0  0  0  0  0  0  0  0  0  0  0
   33.5420   28.7500   48.5720 C   0  0  0  0  0  0  0  0  0  0  0  0
   32.5670   27.8880   48.9570 N   0  0  0  0  0  0  0  0  0  0  0  0
   31.0880   26.5790   48.4320 H   0  0  0  0  0  0  0  0  0  0  0  0
   31.4710   26.9120   45.9680 H   0  0  0  0  0  0  0  0  0  0  0  0
   33.3440   28.5650   44.9260 N   0  0  0  0  0  0  0  0  0  0  0  0
   32.3210   28.7160   43.9180 C   0  0  0  0  0  3  0  0  0  0  0  0
   31.3820   28.2030   44.1200 H   0  0  0  0  0  0  0  0  0  0  0  0
   32.9030   28.2120   42.5970 C   0  0  0  0  0  3  0  0  0  0  0  0
   32.1170   28.1870   41.8070 H   0  0  0  0  0  0  0  0  0  0  0  0
   34.0110   28.9370   42.2060 O   0  0  0  0  0  0  0  0  0  0  0  0
   34.6950   29.5580   43.2210 C   0  0  0  0  0  2  0  0  0  0  0  0
   34.7110   28.6870   44.4570 C   0  0  0  0  0  2  0  0  0  0  0  0
  1 22  1  0  0  0  0
  1  2  2  0  0  0  0
  2  6  1  0  0  0  0
  3  7  1  0  0  0  0
  3  2  1  0  0  0  0
  4  3  2  0  0  0  0
  5  4  1  0  0  0  0
  5  1  1  0  0  0  0
  8 17  1  0  0  0  0
  9  8  1  0  0  0  0
  9  4  1  0  0  0  0
 10  9  2  0  0  0  0
 11 15  2  0  0  0  0
 11 10  1  0  0  0  0
 12 11  1  0  0  0  0
 13 12  1  0  0  0  0
 13 14  2  0  0  0  0
 14 15  1  0  0  0  0
 15 16  1  0  0  0  0
 16 21  1  0  0  0  0
 16  8  2  0  0  0  0
 18 10  1  0  0  0  0
 19 12  1  0  0  0  0
 20 14  1  0  0  0  0
 22 23  2  0  0  0  0
 24 30  1  0  0  0  0
 24 29  1  0  0  0  0
 25 24  2  0  0  0  0
 26 25  1  0  0  0  0
 26 27  2  0  0  0  0
 27 28  1  0  0  0  0
 28 29  2  0  0  0  0
 28 22  1  0  0  0  0
 31 25  1  0  0  0  0
 32 26  1  0  0  0  0
 33 34  1  0  0  0  0
 33 32  1  0  0  0  0
 35 33  1  0  0  0  0
 36 35  1  0  0  0  0
 37 35  1  0  0  0  0
 37 38  1  0  0  0  0
 38 39  1  0  0  0  0
 39 32  1  0  0  0  0
M  END
>  <minimizedAffinity>
-6.02168941

>  <minimizedRMSD>
2.54158926

$$$$
