
 OpenBabel03262522503D

 32 35  0  0  0  0  0  0  0  0999 V2000
   36.0950   30.1420   48.8810 C   0  0  0  0  0  0  0  0  0  0  0  0
   36.0350   29.1720   49.7920 C   0  0  0  0  0  0  0  0  0  0  0  0
   34.9650   28.2970   49.7710 C   0  0  0  0  0  0  0  0  0  0  0  0
   34.0400   28.5030   48.7970 C   0  0  0  0  0  0  0  0  0  0  0  0
   34.6920   29.9460   47.9070 S   0  0  0  0  0  0  0  0  0  0  0  0
   36.8360   29.0800   50.5490 H   0  0  0  0  0  0  0  0  0  0  0  0
   34.8250   27.4770   50.4670 H   0  0  0  0  0  0  0  0  0  0  0  0
   32.8110   27.7540   48.5160 C   0  0  0  0  0  0  0  0  0  0  0  0
   32.8410   26.7460   47.5960 C   0  0  0  0  0  0  0  0  0  0  0  0
   31.6590   26.0760   47.3720 C   0  0  0  0  0  0  0  0  0  0  0  0
   30.5120   26.3980   48.0310 N   0  0  0  0  0  0  0  0  0  0  0  0
   30.5940   27.4220   48.9290 C   0  0  0  0  0  0  0  0  0  0  0  0
   31.7150   28.1170   49.1950 N   0  0  0  0  0  0  0  0  0  0  0  0
   33.7350   26.4680   47.0590 H   0  0  0  0  0  0  0  0  0  0  0  0
   31.5770   25.2620   46.6650 H   0  0  0  0  0  0  0  0  0  0  0  0
   29.3810   27.7380   49.6040 N   0  0  0  0  0  0  0  0  0  0  0  0
   28.4770   28.7190   49.0340 C   0  0  0  0  0  0  0  0  0  0  0  0
   27.9940   28.2150   48.1550 H   0  0  0  0  0  0  0  0  0  0  0  0
   27.4110   29.0260   50.0620 C   0  0  0  0  0  0  0  0  0  0  0  0
   27.9040   29.3990   50.9920 H   0  0  0  0  0  0  0  0  0  0  0  0
   26.7950   27.7830   50.3260 O   0  0  0  0  0  0  0  0  0  0  0  0
   27.6150   27.1320   51.2140 C   0  0  0  0  0  0  0  0  0  0  0  0
   29.0580   27.0790   50.8550 C   0  0  0  0  0  0  0  0  0  0  0  0
   38.0560   33.1650   49.4240 C   0  0  0  0  0  0  0  0  0  0  0  0
   39.0000   33.1430   48.4050 C   0  0  0  0  0  0  0  0  0  0  0  0
   38.9590   32.0660   47.5130 C   0  0  0  0  0  0  0  0  0  0  0  0
   38.0040   31.0950   47.6820 N   0  0  0  0  0  0  0  0  0  0  0  0
   37.1210   31.1840   48.6960 C   0  0  0  0  0  0  0  0  0  0  0  0
   37.1180   32.1900   49.5720 N   0  0  0  0  0  0  0  0  0  0  0  0
   38.0180   33.9670   50.1610 H   0  0  0  0  0  0  0  0  0  0  0  0
   39.7210   33.9460   48.3370 H   0  0  0  0  0  0  0  0  0  0  0  0
   39.6750   32.0200   46.7130 H   0  0  0  0  0  0  0  0  0  0  0  0
  1  2  2  0  0  0  0
  2  6  1  0  0  0  0
  3  2  1  0  0  0  0
  3  7  1  0  0  0  0
  4  3  2  0  0  0  0
  5  4  1  0  0  0  0
  5  1  1  0  0  0  0
  8  4  1  0  0  0  0
  8 13  1  0  0  0  0
  9  8  2  0  0  0  0
 10  9  1  0  0  0  0
 10 11  2  0  0  0  0
 11 12  1  0  0  0  0
 12 13  2  0  0  0  0
 12 16  1  0  0  0  0
 14  9  1  0  0  0  0
 15 10  1  0  0  0  0
 16 23  1  0  0  0  0
 17 16  1  0  0  0  0
 17 19  1  0  0  0  0
 18 17  1  0  0  0  0
 19 21  1  0  0  0  0
 19 20  1  0  0  0  0
 21 22  1  0  0  0  0
 23 22  1  0  0  0  0
 24 29  1  0  0  0  0
 24 30  1  0  0  0  0
 25 24  2  0  0  0  0
 26 27  2  0  0  0  0
 26 25  1  0  0  0  0
 27 28  1  0  0  0  0
 28  1  1  0  0  0  0
 28 29  2  0  0  0  0
 31 25  1  0  0  0  0
 32 26  1  0  0  0  0
M  END
>  <minimizedAffinity>
-7.3066597

>  <minimizedRMSD>
0.675812602

$$$$
