
 OpenBabel03272508003D

 38 41  0  0  1  0  0  0  0  0999 V2000
   36.7140   27.0630   31.1320 C   0  0  0  0  0  0  0  0  0  0  0  0
   35.6690   26.3370   30.5760 C   0  0  0  0  0  0  0  0  0  0  0  0
   35.4470   25.0340   31.0330 C   0  0  0  0  0  0  0  0  0  0  0  0
   36.2510   24.4830   32.0180 C   0  0  0  0  0  0  0  0  0  0  0  0
   37.2800   25.2400   32.5450 C   0  0  0  0  0  0  0  0  0  0  0  0
   37.4650   26.4810   32.0870 N   0  0  0  0  0  0  0  0  0  0  0  0
   34.9170   26.5480   29.8290 H   0  0  0  0  0  0  0  0  0  0  0  0
   34.6840   24.3440   30.7050 H   0  0  0  0  0  0  0  0  0  0  0  0
   36.1500   23.4900   32.4250 H   0  0  0  0  0  0  0  0  0  0  0  0
   36.4440   30.7780   30.6680 C   0  0  0  0  0  0  0  0  0  0  0  0
   36.3240   29.4850   31.2550 C   0  0  0  0  0  0  0  0  0  0  0  0
   36.8240   28.3800   30.5610 C   0  0  0  0  0  0  0  0  0  0  0  0
   37.4030   28.6120   29.3500 N   0  0  0  0  0  0  0  0  0  0  0  0
   37.4990   29.8650   28.8220 C   0  0  0  0  0  0  0  0  0  0  0  0
   37.0260   30.9320   29.4720 N   0  0  0  0  0  0  0  0  0  0  0  0
   38.1420   29.8370   27.5510 N   0  0  0  0  0  0  0  0  0  0  0  0
   36.0610   31.6420   31.1940 H   0  0  0  0  0  0  0  0  0  0  0  0
   38.8700   30.5900   27.4660 H   0  0  0  0  0  0  0  0  0  0  0  0
   37.8830   29.1270   26.8160 H   0  0  0  0  0  0  0  0  0  0  0  0
   35.6690   29.3780   32.5780 C   0  0  0  0  0  0  0  0  0  0  0  0
   35.3270   30.6400   33.0810 F   0  0  0  0  0  0  0  0  0  0  0  0
   34.5370   28.6510   32.4770 F   0  0  0  0  0  0  0  0  0  0  0  0
   36.4780   28.7850   33.5460 F   0  0  0  0  0  0  0  0  0  0  0  0
   38.1670   24.7430   33.5870 C   0  0  0  0  0  0  0  0  0  0  0  0
   39.2940   25.3670   34.0690 C   0  0  0  0  0  0  0  0  0  0  0  0
   39.8720   24.5850   35.0600 C   0  0  0  0  0  0  0  0  0  0  0  0
   39.0610   23.5010   35.1410 N   0  0  0  0  0  0  0  0  0  0  0  0
   38.0650   23.5950   34.2800 N   0  0  0  0  0  0  0  0  0  0  0  0
   39.7120   26.3240   33.7590 H   0  0  0  0  0  0  0  0  0  0  0  0
   40.7440   24.7390   35.6540 H   0  0  0  0  0  0  0  0  0  0  0  0
   38.0440   20.8170   36.7240 H   0  0  0  0  0  0  0  0  0  0  0  0
   37.9560   21.7580   36.3330 N   0  0  0  0  0  0  0  0  0  0  0  0
   39.2260   22.3830   36.0270 C   0  0  2  0  0  3  0  0  0  0  0  0
   39.8800   22.7520   37.3290 C   0  0  0  0  0  3  0  0  0  0  0  0
   40.1000   21.8050   37.8750 H   0  0  0  0  0  0  0  0  0  0  0  0
   39.0860   23.5060   38.1600 O   0  0  0  0  0  0  0  0  0  0  0  0
   37.8280   23.8050   37.6820 C   0  0  0  0  0  2  0  0  0  0  0  0
   37.0930   22.6640   37.0480 C   0  0  0  0  0  2  0  0  0  0  0  0
  1  6  1  0  0  0  0
  2  3  1  0  0  0  0
  2  1  2  0  0  0  0
  3  4  2  0  0  0  0
  4  9  1  0  0  0  0
  4  5  1  0  0  0  0
  5 24  1  0  0  0  0
  6  5  2  0  0  0  0
  7  2  1  0  0  0  0
  8  3  1  0  0  0  0
 10 17  1  0  0  0  0
 10 11  1  0  0  0  0
 11 20  1  0  0  0  0
 12  1  1  0  0  0  0
 12 11  2  0  0  0  0
 13 12  1  0  0  0  0
 14 13  2  0  0  0  0
 14 15  1  0  0  0  0
 15 10  2  0  0  0  0
 16 14  1  0  0  0  0
 18 16  1  0  0  0  0
 19 16  1  0  0  0  0
 20 21  1  0  0  0  0
 20 23  1  0  0  0  0
 22 20  1  0  0  0  0
 24 25  1  0  0  0  0
 24 28  2  0  0  0  0
 25 26  2  0  0  0  0
 26 27  1  0  0  0  0
 26 30  1  0  0  0  0
 28 27  1  0  0  0  0
 29 25  1  0  0  0  0
 32 31  1  0  0  0  0
 32 38  1  0  0  0  0
 33 27  1  6  0  0  0
 33 32  1  0  0  0  0
 33 34  1  0  0  0  0
 34 35  1  0  0  0  0
 34 36  1  0  0  0  0
 37 36  1  0  0  0  0
 38 37  1  0  0  0  0
M  END
>  <minimizedAffinity>
-6.25871754

$$$$

 OpenBabel03272508003D

 38 41  0  0  1  0  0  0  0  0999 V2000
   35.1860   29.1070   34.0500 C   0  0  0  0  0  0  0  0  0  0  0  0
   35.1920   29.4670   32.7090 C   0  0  0  0  0  0  0  0  0  0  0  0
   36.1570   28.8990   31.8710 C   0  0  0  0  0  0  0  0  0  0  0  0
   37.0830   27.9960   32.3690 C   0  0  0  0  0  0  0  0  0  0  0  0
   37.0430   27.6640   33.7100 C   0  0  0  0  0  0  0  0  0  0  0  0
   36.1090   28.2250   34.4830 N   0  0  0  0  0  0  0  0  0  0  0  0
   34.5810   30.1180   32.0990 H   0  0  0  0  0  0  0  0  0  0  0  0
   36.2940   29.0730   30.8150 H   0  0  0  0  0  0  0  0  0  0  0  0
   37.8580   27.5140   31.7950 H   0  0  0  0  0  0  0  0  0  0  0  0
   33.3880   31.5820   36.2250 C   0  0  0  0  0  0  0  0  0  0  0  0
   34.4350   30.9400   35.5010 C   0  0  0  0  0  0  0  0  0  0  0  0
   34.1460   29.7740   34.7870 C   0  0  0  0  0  0  0  0  0  0  0  0
   32.8620   29.3180   34.8280 N   0  0  0  0  0  0  0  0  0  0  0  0
   31.8890   29.9610   35.5330 C   0  0  0  0  0  0  0  0  0  0  0  0
   32.1480   31.0760   36.2210 N   0  0  0  0  0  0  0  0  0  0  0  0
   30.6410   29.2830   35.4150 N   0  0  0  0  0  0  0  0  0  0  0  0
   33.5970   32.4840   36.7820 H   0  0  0  0  0  0  0  0  0  0  0  0
   29.8530   29.9500   35.2180 H   0  0  0  0  0  0  0  0  0  0  0  0
   30.5670   28.2370   35.5210 H   0  0  0  0  0  0  0  0  0  0  0  0
   35.7850   31.5450   35.5460 C   0  0  0  0  0  0  0  0  0  0  0  0
   35.8220   32.6460   36.4110 F   0  0  0  0  0  0  0  0  0  0  0  0
   36.6830   30.6400   35.9870 F   0  0  0  0  0  0  0  0  0  0  0  0
   36.2180   32.0150   34.3070 F   0  0  0  0  0  0  0  0  0  0  0  0
   37.9720   26.7200   34.3140 C   0  0  0  0  0  0  0  0  0  0  0  0
   39.0940   27.0310   35.0480 C   0  0  0  0  0  0  0  0  0  0  0  0
   39.7210   25.8630   35.4580 C   0  0  0  0  0  0  0  0  0  0  0  0
   38.9440   24.8740   34.9490 N   0  0  0  0  0  0  0  0  0  0  0  0
   37.9220   25.3780   34.2810 N   0  0  0  0  0  0  0  0  0  0  0  0
   39.4750   28.0200   35.2980 H   0  0  0  0  0  0  0  0  0  0  0  0
   40.6040   25.7080   36.0350 H   0  0  0  0  0  0  0  0  0  0  0  0
   37.9890   21.7490   35.1900 H   0  0  0  0  0  0  0  0  0  0  0  0
   37.9290   22.7560   35.3520 N   0  0  0  0  0  0  0  0  0  0  0  0
   39.1650   23.4620   35.0930 C   0  0  2  0  0  3  0  0  0  0  0  0
   40.1270   23.1250   36.1990 C   0  0  0  0  0  3  0  0  0  0  0  0
   40.3470   22.0340   36.1300 H   0  0  0  0  0  0  0  0  0  0  0  0
   39.6270   23.3440   37.4600 O   0  0  0  0  0  0  0  0  0  0  0  0
   38.3380   23.8310   37.5210 C   0  0  0  0  0  2  0  0  0  0  0  0
   37.3550   23.1640   36.6100 C   0  0  0  0  0  2  0  0  0  0  0  0
  1  6  1  0  0  0  0
  1 12  1  0  0  0  0
  2  1  2  0  0  0  0
  3  4  2  0  0  0  0
  3  2  1  0  0  0  0
  4  5  1  0  0  0  0
  5 24  1  0  0  0  0
  5  6  2  0  0  0  0
  7  2  1  0  0  0  0
  8  3  1  0  0  0  0
  9  4  1  0  0  0  0
 10 17  1  0  0  0  0
 11 20  1  0  0  0  0
 11 10  2  0  0  0  0
 12 13  2  0  0  0  0
 12 11  1  0  0  0  0
 13 14  1  0  0  0  0
 14 15  2  0  0  0  0
 15 10  1  0  0  0  0
 16 19  1  0  0  0  0
 16 14  1  0  0  0  0
 18 16  1  0  0  0  0
 20 22  1  0  0  0  0
 20 21  1  0  0  0  0
 23 20  1  0  0  0  0
 24 25  1  0  0  0  0
 25 29  1  0  0  0  0
 25 26  2  0  0  0  0
 26 30  1  0  0  0  0
 27 26  1  0  0  0  0
 28 24  2  0  0  0  0
 28 27  1  0  0  0  0
 31 32  1  0  0  0  0
 32 38  1  0  0  0  0
 33 27  1  1  0  0  0
 33 32  1  0  0  0  0
 33 34  1  0  0  0  0
 34 36  1  0  0  0  0
 35 34  1  0  0  0  0
 36 37  1  0  0  0  0
 38 37  1  0  0  0  0
M  END
>  <minimizedAffinity>
-6.21337652

$$$$

 OpenBabel03272508003D

 38 41  0  0  1  0  0  0  0  0999 V2000
   35.3210   29.0180   33.9710 C   0  0  0  0  0  0  0  0  0  0  0  0
   35.4280   29.3610   32.6300 C   0  0  0  0  0  0  0  0  0  0  0  0
   36.4510   28.7800   31.8730 C   0  0  0  0  0  0  0  0  0  0  0  0
   37.3340   27.8820   32.4490 C   0  0  0  0  0  0  0  0  0  0  0  0
   37.1930   27.5660   33.7870 C   0  0  0  0  0  0  0  0  0  0  0  0
   36.2060   28.1390   34.4820 N   0  0  0  0  0  0  0  0  0  0  0  0
   34.8670   30.0060   31.9680 H   0  0  0  0  0  0  0  0  0  0  0  0
   36.6670   28.9410   30.8280 H   0  0  0  0  0  0  0  0  0  0  0  0
   38.1480   27.3900   31.9410 H   0  0  0  0  0  0  0  0  0  0  0  0
   33.3750   31.5240   35.9750 C   0  0  0  0  0  0  0  0  0  0  0  0
   34.4700   30.8720   35.3390 C   0  0  0  0  0  0  0  0  0  0  0  0
   34.2310   29.6970   34.6200 C   0  0  0  0  0  0  0  0  0  0  0  0
   32.9470   29.2430   34.5720 N   0  0  0  0  0  0  0  0  0  0  0  0
   31.9260   29.8970   35.1950 C   0  0  0  0  0  0  0  0  0  0  0  0
   32.1370   31.0210   35.8860 N   0  0  0  0  0  0  0  0  0  0  0  0
   30.6880   29.2210   34.9940 N   0  0  0  0  0  0  0  0  0  0  0  0
   33.5450   32.4340   36.5330 H   0  0  0  0  0  0  0  0  0  0  0  0
   29.9190   29.8860   34.7310 H   0  0  0  0  0  0  0  0  0  0  0  0
   30.6040   28.1760   35.1080 H   0  0  0  0  0  0  0  0  0  0  0  0
   35.8150   31.4740   35.4750 C   0  0  0  0  0  0  0  0  0  0  0  0
   35.7980   32.5650   36.3530 F   0  0  0  0  0  0  0  0  0  0  0  0
   36.6830   30.5640   35.9610 F   0  0  0  0  0  0  0  0  0  0  0  0
   36.3250   31.9580   34.2710 F   0  0  0  0  0  0  0  0  0  0  0  0
   38.0720   26.6280   34.4700 C   0  0  0  0  0  0  0  0  0  0  0  0
   39.4200   26.4600   34.2510 C   0  0  0  0  0  0  0  0  0  0  0  0
   39.9100   25.4750   35.0970 C   0  0  0  0  0  0  0  0  0  0  0  0
   38.8240   25.0770   35.8060 N   0  0  0  0  0  0  0  0  0  0  0  0
   37.7510   25.7530   35.4390 N   0  0  0  0  0  0  0  0  0  0  0  0
   40.0520   26.9900   33.5390 H   0  0  0  0  0  0  0  0  0  0  0  0
   40.8930   25.0760   35.2130 H   0  0  0  0  0  0  0  0  0  0  0  0
   40.0550   22.5330   37.4660 H   0  0  0  0  0  0  0  0  0  0  0  0
   39.8610   23.0980   36.6360 N   0  0  0  0  0  0  0  0  0  0  0  0
   38.8010   24.0650   36.8250 C   0  0  2  0  0  3  0  0  0  0  0  0
   37.5000   23.3140   36.8820 C   0  0  0  0  0  3  0  0  0  0  0  0
   37.5250   22.6680   37.7900 H   0  0  0  0  0  0  0  0  0  0  0  0
   37.2910   22.4770   35.8120 O   0  0  0  0  0  0  0  0  0  0  0  0
   38.2900   22.4510   34.8630 C   0  0  0  0  0  2  0  0  0  0  0  0
   39.6860   22.3750   35.4020 C   0  0  0  0  0  2  0  0  0  0  0  0
  1  6  1  0  0  0  0
  1 12  1  0  0  0  0
  2  1  2  0  0  0  0
  3  4  2  0  0  0  0
  3  2  1  0  0  0  0
  4  5  1  0  0  0  0
  5 24  1  0  0  0  0
  5  6  2  0  0  0  0
  7  2  1  0  0  0  0
  8  3  1  0  0  0  0
  9  4  1  0  0  0  0
 10 17  1  0  0  0  0
 11 20  1  0  0  0  0
 11 10  2  0  0  0  0
 12 11  1  0  0  0  0
 13 12  2  0  0  0  0
 13 14  1  0  0  0  0
 14 15  2  0  0  0  0
 15 10  1  0  0  0  0
 16 19  1  0  0  0  0
 16 14  1  0  0  0  0
 18 16  1  0  0  0  0
 20 22  1  0  0  0  0
 20 21  1  0  0  0  0
 23 20  1  0  0  0  0
 24 28  2  0  0  0  0
 25 24  1  0  0  0  0
 25 26  2  0  0  0  0
 26 30  1  0  0  0  0
 26 27  1  0  0  0  0
 28 27  1  0  0  0  0
 29 25  1  0  0  0  0
 32 33  1  0  0  0  0
 32 31  1  0  0  0  0
 33 27  1  6  0  0  0
 33 34  1  0  0  0  0
 34 35  1  0  0  0  0
 36 34  1  0  0  0  0
 37 38  1  0  0  0  0
 37 36  1  0  0  0  0
 38 32  1  0  0  0  0
M  END
>  <minimizedAffinity>
-6.20465374

$$$$

 OpenBabel03272508003D

 38 41  0  0  1  0  0  0  0  0999 V2000
   37.7580   26.4070   32.9750 C   0  0  0  0  0  0  0  0  0  0  0  0
   38.8470   26.5280   32.1220 C   0  0  0  0  0  0  0  0  0  0  0  0
   38.8370   27.5530   31.1700 C   0  0  0  0  0  0  0  0  0  0  0  0
   37.7650   28.4270   31.0840 C   0  0  0  0  0  0  0  0  0  0  0  0
   36.7010   28.2730   31.9520 C   0  0  0  0  0  0  0  0  0  0  0  0
   36.7410   27.2830   32.8490 N   0  0  0  0  0  0  0  0  0  0  0  0
   39.7800   25.9940   32.0090 H   0  0  0  0  0  0  0  0  0  0  0  0
   39.6000   27.7790   30.4410 H   0  0  0  0  0  0  0  0  0  0  0  0
   37.6770   29.2410   30.3830 H   0  0  0  0  0  0  0  0  0  0  0  0
   38.3010   24.4500   36.1310 C   0  0  0  0  0  0  0  0  0  0  0  0
   38.1570   25.5550   35.2440 C   0  0  0  0  0  0  0  0  0  0  0  0
   37.9050   25.3070   33.8920 C   0  0  0  0  0  0  0  0  0  0  0  0
   37.8120   24.0050   33.5010 N   0  0  0  0  0  0  0  0  0  0  0  0
   37.9560   22.9750   34.3820 C   0  0  0  0  0  0  0  0  0  0  0  0
   38.1970   23.1940   35.6780 N   0  0  0  0  0  0  0  0  0  0  0  0
   37.8160   21.7170   33.7260 N   0  0  0  0  0  0  0  0  0  0  0  0
   38.4960   24.6270   37.1790 H   0  0  0  0  0  0  0  0  0  0  0  0
   37.1930   21.0650   34.2640 H   0  0  0  0  0  0  0  0  0  0  0  0
   38.2990   21.5140   32.8110 H   0  0  0  0  0  0  0  0  0  0  0  0
   38.2850   26.9200   35.8030 C   0  0  0  0  0  0  0  0  0  0  0  0
   38.3460   26.8930   37.2020 F   0  0  0  0  0  0  0  0  0  0  0  0
   39.4140   27.5020   35.3490 F   0  0  0  0  0  0  0  0  0  0  0  0
   37.2110   27.7480   35.4810 F   0  0  0  0  0  0  0  0  0  0  0  0
   35.5400   29.1500   31.9350 C   0  0  0  0  0  0  0  0  0  0  0  0
   35.4320   30.3550   31.2790 C   0  0  0  0  0  0  0  0  0  0  0  0
   34.1720   30.8930   31.4970 C   0  0  0  0  0  0  0  0  0  0  0  0
   33.5550   29.9820   32.2900 N   0  0  0  0  0  0  0  0  0  0  0  0
   34.3560   28.9630   32.5440 N   0  0  0  0  0  0  0  0  0  0  0  0
   36.1860   30.8530   30.6700 H   0  0  0  0  0  0  0  0  0  0  0  0
   33.7300   31.8020   31.1560 H   0  0  0  0  0  0  0  0  0  0  0  0
   30.9080   31.5910   33.3570 H   0  0  0  0  0  0  0  0  0  0  0  0
   31.9080   31.4150   33.2450 N   0  0  0  0  0  0  0  0  0  0  0  0
   32.2170   30.0710   32.8030 C   0  0  2  0  0  3  0  0  0  0  0  0
   31.9630   29.1400   33.9550 C   0  0  0  0  0  3  0  0  0  0  0  0
   30.8710   29.1730   34.1780 H   0  0  0  0  0  0  0  0  0  0  0  0
   32.6090   29.4960   35.1150 O   0  0  0  0  0  0  0  0  0  0  0  0
   33.3810   30.6360   35.0480 C   0  0  0  0  0  2  0  0  0  0  0  0
   32.7490   31.8010   34.3500 C   0  0  0  0  0  2  0  0  0  0  0  0
  1 12  1  0  0  0  0
  2  1  2  0  0  0  0
  3  2  1  0  0  0  0
  4  3  2  0  0  0  0
  4  5  1  0  0  0  0
  5  6  2  0  0  0  0
  6  1  1  0  0  0  0
  7  2  1  0  0  0  0
  8  3  1  0  0  0  0
  9  4  1  0  0  0  0
 10 17  1  0  0  0  0
 11 20  1  0  0  0  0
 11 10  2  0  0  0  0
 12 11  1  0  0  0  0
 13 12  2  0  0  0  0
 13 14  1  0  0  0  0
 14 15  2  0  0  0  0
 15 10  1  0  0  0  0
 16 18  1  0  0  0  0
 16 14  1  0  0  0  0
 19 16  1  0  0  0  0
 20 21  1  0  0  0  0
 22 20  1  0  0  0  0
 23 20  1  0  0  0  0
 24  5  1  0  0  0  0
 24 28  2  0  0  0  0
 25 26  2  0  0  0  0
 25 24  1  0  0  0  0
 26 27  1  0  0  0  0
 27 28  1  0  0  0  0
 29 25  1  0  0  0  0
 30 26  1  0  0  0  0
 32 31  1  0  0  0  0
 32 38  1  0  0  0  0
 33 27  1  1  0  0  0
 33 32  1  0  0  0  0
 33 34  1  0  0  0  0
 34 35  1  0  0  0  0
 34 36  1  0  0  0  0
 37 36  1  0  0  0  0
 38 37  1  0  0  0  0
M  END
>  <minimizedAffinity>
-6.09977531

$$$$

 OpenBabel03272508003D

 38 41  0  0  1  0  0  0  0  0999 V2000
   35.9880   27.3130   31.9180 C   0  0  0  0  0  0  0  0  0  0  0  0
   35.3570   26.5240   30.9660 C   0  0  0  0  0  0  0  0  0  0  0  0
   35.6390   25.1540   30.9440 C   0  0  0  0  0  0  0  0  0  0  0  0
   36.5270   24.6000   31.8520 C   0  0  0  0  0  0  0  0  0  0  0  0
   37.1330   25.4200   32.7840 C   0  0  0  0  0  0  0  0  0  0  0  0
   36.8420   26.7250   32.7790 N   0  0  0  0  0  0  0  0  0  0  0  0
   34.6360   26.7160   30.1840 H   0  0  0  0  0  0  0  0  0  0  0  0
   35.2360   24.4120   30.2720 H   0  0  0  0  0  0  0  0  0  0  0  0
   36.8000   23.5580   31.9040 H   0  0  0  0  0  0  0  0  0  0  0  0
   35.9410   30.9300   30.9150 C   0  0  0  0  0  0  0  0  0  0  0  0
   36.3370   29.5640   30.9980 C   0  0  0  0  0  0  0  0  0  0  0  0
   35.6060   28.6980   31.8160 C   0  0  0  0  0  0  0  0  0  0  0  0
   34.5450   29.2210   32.4910 N   0  0  0  0  0  0  0  0  0  0  0  0
   34.1980   30.5350   32.3840 C   0  0  0  0  0  0  0  0  0  0  0  0
   34.8860   31.3770   31.6080 N   0  0  0  0  0  0  0  0  0  0  0  0
   33.0580   30.8300   33.1880 N   0  0  0  0  0  0  0  0  0  0  0  0
   36.4970   31.6110   30.2870 H   0  0  0  0  0  0  0  0  0  0  0  0
   32.3510   31.4050   32.6650 H   0  0  0  0  0  0  0  0  0  0  0  0
   32.9800   30.4880   34.1820 H   0  0  0  0  0  0  0  0  0  0  0  0
   37.5130   29.1300   30.2110 C   0  0  0  0  0  0  0  0  0  0  0  0
   37.1330   28.3280   29.1270 F   0  0  0  0  0  0  0  0  0  0  0  0
   38.1660   30.2050   29.7220 F   0  0  0  0  0  0  0  0  0  0  0  0
   38.4200   28.3720   30.9500 F   0  0  0  0  0  0  0  0  0  0  0  0
   38.0710   24.9210   33.7790 C   0  0  0  0  0  0  0  0  0  0  0  0
   39.1720   25.5830   34.2710 C   0  0  0  0  0  0  0  0  0  0  0  0
   39.8170   24.7840   35.2060 C   0  0  0  0  0  0  0  0  0  0  0  0
   39.0700   23.6520   35.2450 N   0  0  0  0  0  0  0  0  0  0  0  0
   38.0500   23.7350   34.4100 N   0  0  0  0  0  0  0  0  0  0  0  0
   39.5280   26.5770   34.0040 H   0  0  0  0  0  0  0  0  0  0  0  0
   40.6930   24.9570   35.7890 H   0  0  0  0  0  0  0  0  0  0  0  0
   38.2600   20.8100   36.6610 H   0  0  0  0  0  0  0  0  0  0  0  0
   38.1010   21.7620   36.3250 N   0  0  0  0  0  0  0  0  0  0  0  0
   39.3190   22.5000   36.0650 C   0  0  2  0  0  3  0  0  0  0  0  0
   39.9390   22.8420   37.3910 C   0  0  0  0  0  3  0  0  0  0  0  0
   40.2300   21.8840   37.8820 H   0  0  0  0  0  0  0  0  0  0  0  0
   39.0870   23.4820   38.2590 O   0  0  0  0  0  0  0  0  0  0  0  0
   37.8100   23.7110   37.7900 C   0  0  0  0  0  2  0  0  0  0  0  0
   37.1680   22.5560   37.0850 C   0  0  0  0  0  2  0  0  0  0  0  0
  1  6  1  0  0  0  0
  2  1  2  0  0  0  0
  3  2  1  0  0  0  0
  3  4  2  0  0  0  0
  4  9  1  0  0  0  0
  4  5  1  0  0  0  0
  5 24  1  0  0  0  0
  6  5  2  0  0  0  0
  7  2  1  0  0  0  0
  8  3  1  0  0  0  0
 10 11  2  0  0  0  0
 10 15  1  0  0  0  0
 11 12  1  0  0  0  0
 12  1  1  0  0  0  0
 12 13  2  0  0  0  0
 14 13  1  0  0  0  0
 14 16  1  0  0  0  0
 15 14  2  0  0  0  0
 16 19  1  0  0  0  0
 17 10  1  0  0  0  0
 18 16  1  0  0  0  0
 20 23  1  0  0  0  0
 20 11  1  0  0  0  0
 21 20  1  0  0  0  0
 22 20  1  0  0  0  0
 24 25  1  0  0  0  0
 24 28  2  0  0  0  0
 25 26  2  0  0  0  0
 26 27  1  0  0  0  0
 26 30  1  0  0  0  0
 28 27  1  0  0  0  0
 29 25  1  0  0  0  0
 32 31  1  0  0  0  0
 32 38  1  0  0  0  0
 33 27  1  1  0  0  0
 33 32  1  0  0  0  0
 33 34  1  0  0  0  0
 34 35  1  0  0  0  0
 34 36  1  0  0  0  0
 37 36  1  0  0  0  0
 38 37  1  0  0  0  0
M  END
>  <minimizedAffinity>
-6.02187586

$$$$

 OpenBabel03272508003D

 38 41  0  0  1  0  0  0  0  0999 V2000
   34.6260   29.8090   34.2140 C   0  0  0  0  0  0  0  0  0  0  0  0
   34.3140   30.3480   32.9730 C   0  0  0  0  0  0  0  0  0  0  0  0
   34.9470   29.8220   31.8410 C   0  0  0  0  0  0  0  0  0  0  0  0
   35.8600   28.7870   31.9580 C   0  0  0  0  0  0  0  0  0  0  0  0
   36.1420   28.2780   33.2110 C   0  0  0  0  0  0  0  0  0  0  0  0
   35.5210   28.8030   34.2720 N   0  0  0  0  0  0  0  0  0  0  0  0
   33.6430   31.1240   32.6340 H   0  0  0  0  0  0  0  0  0  0  0  0
   34.8150   30.1280   30.8150 H   0  0  0  0  0  0  0  0  0  0  0  0
   36.3910   28.3260   31.1410 H   0  0  0  0  0  0  0  0  0  0  0  0
   33.7540   32.1400   37.0240 C   0  0  0  0  0  0  0  0  0  0  0  0
   34.4860   31.5210   35.9690 C   0  0  0  0  0  0  0  0  0  0  0  0
   33.9060   30.4520   35.2820 C   0  0  0  0  0  0  0  0  0  0  0  0
   32.6580   30.0630   35.6680 N   0  0  0  0  0  0  0  0  0  0  0  0
   31.9900   30.6810   36.6830 C   0  0  0  0  0  0  0  0  0  0  0  0
   32.5310   31.7050   37.3510 N   0  0  0  0  0  0  0  0  0  0  0  0
   30.7120   30.0880   36.8900 N   0  0  0  0  0  0  0  0  0  0  0  0
   34.1910   32.9680   37.5640 H   0  0  0  0  0  0  0  0  0  0  0  0
   29.9580   30.8120   36.9940 H   0  0  0  0  0  0  0  0  0  0  0  0
   30.5870   29.0410   36.9270 H   0  0  0  0  0  0  0  0  0  0  0  0
   35.8350   32.0440   35.6560 C   0  0  0  0  0  0  0  0  0  0  0  0
   36.0910   33.2380   36.3430 F   0  0  0  0  0  0  0  0  0  0  0  0
   36.7750   31.1480   36.0180 F   0  0  0  0  0  0  0  0  0  0  0  0
   36.0110   32.3350   34.3040 F   0  0  0  0  0  0  0  0  0  0  0  0
   37.0820   27.1880   33.4240 C   0  0  0  0  0  0  0  0  0  0  0  0
   37.0060   25.9240   32.8860 C   0  0  0  0  0  0  0  0  0  0  0  0
   38.0860   25.1670   33.3170 C   0  0  0  0  0  0  0  0  0  0  0  0
   38.7860   26.0140   34.1130 N   0  0  0  0  0  0  0  0  0  0  0  0
   38.1970   27.1940   34.1740 N   0  0  0  0  0  0  0  0  0  0  0  0
   36.2400   25.5270   32.2200 H   0  0  0  0  0  0  0  0  0  0  0  0
   38.3600   24.1570   33.1120 H   0  0  0  0  0  0  0  0  0  0  0  0
   41.6230   26.7780   35.5640 H   0  0  0  0  0  0  0  0  0  0  0  0
   40.8870   26.8550   34.8590 N   0  0  0  0  0  0  0  0  0  0  0  0
   40.0030   25.7100   34.8120 C   0  0  2  0  0  3  0  0  0  0  0  0
   40.7650   24.5670   34.2010 C   0  0  0  0  0  3  0  0  0  0  0  0
   41.6010   24.3130   34.8940 H   0  0  0  0  0  0  0  0  0  0  0  0
   41.3400   24.8640   32.9880 O   0  0  0  0  0  0  0  0  0  0  0  0
   41.1350   26.1450   32.5210 C   0  0  0  0  0  2  0  0  0  0  0  0
   41.3130   27.2340   33.5350 C   0  0  0  0  0  2  0  0  0  0  0  0
  1  6  1  0  0  0  0
  1 12  1  0  0  0  0
  2  1  2  0  0  0  0
  3  4  2  0  0  0  0
  3  2  1  0  0  0  0
  4  5  1  0  0  0  0
  5 24  1  0  0  0  0
  5  6  2  0  0  0  0
  7  2  1  0  0  0  0
  8  3  1  0  0  0  0
  9  4  1  0  0  0  0
 10 15  1  0  0  0  0
 10 17  1  0  0  0  0
 11 10  2  0  0  0  0
 12 13  2  0  0  0  0
 12 11  1  0  0  0  0
 13 14  1  0  0  0  0
 14 16  1  0  0  0  0
 14 15  2  0  0  0  0
 16 19  1  0  0  0  0
 16 18  1  0  0  0  0
 20 11  1  0  0  0  0
 20 22  1  0  0  0  0
 20 21  1  0  0  0  0
 23 20  1  0  0  0  0
 24 28  2  0  0  0  0
 25 26  2  0  0  0  0
 25 24  1  0  0  0  0
 26 27  1  0  0  0  0
 27 28  1  0  0  0  0
 29 25  1  0  0  0  0
 30 26  1  0  0  0  0
 32 31  1  0  0  0  0
 33 27  1  6  0  0  0
 33 32  1  0  0  0  0
 34 33  1  0  0  0  0
 34 35  1  0  0  0  0
 36 34  1  0  0  0  0
 37 36  1  0  0  0  0
 37 38  1  0  0  0  0
 38 32  1  0  0  0  0
M  END
>  <minimizedAffinity>
-6.00416088

$$$$

 OpenBabel03272508003D

 38 41  0  0  1  0  0  0  0  0999 V2000
   34.9900   29.7230   33.0240 C   0  0  0  0  0  0  0  0  0  0  0  0
   35.5750   30.6140   32.1350 C   0  0  0  0  0  0  0  0  0  0  0  0
   36.3190   30.0980   31.0680 C   0  0  0  0  0  0  0  0  0  0  0  0
   36.4640   28.7300   30.9030 C   0  0  0  0  0  0  0  0  0  0  0  0
   35.8650   27.8770   31.8100 C   0  0  0  0  0  0  0  0  0  0  0  0
   35.1620   28.4020   32.8180 N   0  0  0  0  0  0  0  0  0  0  0  0
   35.5910   31.6910   32.0460 H   0  0  0  0  0  0  0  0  0  0  0  0
   36.8320   30.6530   30.2970 H   0  0  0  0  0  0  0  0  0  0  0  0
   37.0180   28.2510   30.1120 H   0  0  0  0  0  0  0  0  0  0  0  0
   32.1810   31.1900   35.0350 C   0  0  0  0  0  0  0  0  0  0  0  0
   32.8750   30.5180   33.9880 C   0  0  0  0  0  0  0  0  0  0  0  0
   34.2650   30.3960   34.0700 C   0  0  0  0  0  0  0  0  0  0  0  0
   34.8780   30.9350   35.1610 N   0  0  0  0  0  0  0  0  0  0  0  0
   34.1770   31.5700   36.1420 C   0  0  0  0  0  0  0  0  0  0  0  0
   32.8480   31.6960   36.0800 N   0  0  0  0  0  0  0  0  0  0  0  0
   35.0460   32.0430   37.1680 N   0  0  0  0  0  0  0  0  0  0  0  0
   31.1060   31.2920   34.9850 H   0  0  0  0  0  0  0  0  0  0  0  0
   34.6770   31.8190   38.1260 H   0  0  0  0  0  0  0  0  0  0  0  0
   35.9430   32.5500   36.9420 H   0  0  0  0  0  0  0  0  0  0  0  0
   32.0840   29.9810   32.8580 C   0  0  0  0  0  0  0  0  0  0  0  0
   30.7180   30.2500   33.0200 F   0  0  0  0  0  0  0  0  0  0  0  0
   32.4840   30.5490   31.7020 F   0  0  0  0  0  0  0  0  0  0  0  0
   32.1890   28.5990   32.7210 F   0  0  0  0  0  0  0  0  0  0  0  0
   35.9600   26.4290   31.7080 C   0  0  0  0  0  0  0  0  0  0  0  0
   35.1640   25.6070   30.9430 C   0  0  0  0  0  0  0  0  0  0  0  0
   35.5630   24.2880   31.1060 C   0  0  0  0  0  0  0  0  0  0  0  0
   36.6020   24.3610   31.9760 N   0  0  0  0  0  0  0  0  0  0  0  0
   36.8320   25.6130   32.3260 N   0  0  0  0  0  0  0  0  0  0  0  0
   34.3370   25.8940   30.2950 H   0  0  0  0  0  0  0  0  0  0  0  0
   35.1880   23.3850   30.6800 H   0  0  0  0  0  0  0  0  0  0  0  0
   39.2600   22.9790   33.3030 H   0  0  0  0  0  0  0  0  0  0  0  0
   38.7500   23.6310   32.7040 N   0  0  0  0  0  0  0  0  0  0  0  0
   37.3720   23.2560   32.4730 C   0  0  2  0  0  3  0  0  0  0  0  0
   37.3680   22.0700   31.5480 C   0  0  0  0  0  3  0  0  0  0  0  0
   37.8570   21.2240   32.0860 H   0  0  0  0  0  0  0  0  0  0  0  0
   38.0830   22.2630   30.3900 O   0  0  0  0  0  0  0  0  0  0  0  0
   38.6880   23.4950   30.2530 C   0  0  0  0  0  2  0  0  0  0  0  0
   39.3980   24.0010   31.4710 C   0  0  0  0  0  2  0  0  0  0  0  0
  1 12  1  0  0  0  0
  2  1  2  0  0  0  0
  3  2  1  0  0  0  0
  4  3  2  0  0  0  0
  4  5  1  0  0  0  0
  5  6  2  0  0  0  0
  6  1  1  0  0  0  0
  7  2  1  0  0  0  0
  8  3  1  0  0  0  0
  9  4  1  0  0  0  0
 10 15  1  0  0  0  0
 11 12  1  0  0  0  0
 11 10  2  0  0  0  0
 12 13  2  0  0  0  0
 13 14  1  0  0  0  0
 14 16  1  0  0  0  0
 15 14  2  0  0  0  0
 16 18  1  0  0  0  0
 17 10  1  0  0  0  0
 19 16  1  0  0  0  0
 20 21  1  0  0  0  0
 20 11  1  0  0  0  0
 22 20  1  0  0  0  0
 23 20  1  0  0  0  0
 24  5  1  0  0  0  0
 24 28  2  0  0  0  0
 25 26  2  0  0  0  0
 25 24  1  0  0  0  0
 26 27  1  0  0  0  0
 27 28  1  0  0  0  0
 29 25  1  0  0  0  0
 30 26  1  0  0  0  0
 32 31  1  0  0  0  0
 33 27  1  6  0  0  0
 33 32  1  0  0  0  0
 34 35  1  0  0  0  0
 34 33  1  0  0  0  0
 36 34  1  0  0  0  0
 37 36  1  0  0  0  0
 37 38  1  0  0  0  0
 38 32  1  0  0  0  0
M  END
>  <minimizedAffinity>
-5.84282112

$$$$

 OpenBabel03272508003D

 38 41  0  0  1  0  0  0  0  0999 V2000
   34.5970   29.7450   33.9370 C   0  0  0  0  0  0  0  0  0  0  0  0
   34.3820   30.4320   32.7500 C   0  0  0  0  0  0  0  0  0  0  0  0
   35.0880   30.0300   31.6110 C   0  0  0  0  0  0  0  0  0  0  0  0
   35.9790   28.9700   31.6680 C   0  0  0  0  0  0  0  0  0  0  0  0
   36.1630   28.3120   32.8690 C   0  0  0  0  0  0  0  0  0  0  0  0
   35.4740   28.7210   33.9380 N   0  0  0  0  0  0  0  0  0  0  0  0
   33.7470   31.2560   32.4590 H   0  0  0  0  0  0  0  0  0  0  0  0
   35.0350   30.4570   30.6210 H   0  0  0  0  0  0  0  0  0  0  0  0
   36.5620   28.5970   30.8410 H   0  0  0  0  0  0  0  0  0  0  0  0
   33.5490   31.7580   36.9260 C   0  0  0  0  0  0  0  0  0  0  0  0
   34.3480   31.2530   35.8600 C   0  0  0  0  0  0  0  0  0  0  0  0
   33.8100   30.2730   35.0200 C   0  0  0  0  0  0  0  0  0  0  0  0
   32.5380   29.8570   35.2770 N   0  0  0  0  0  0  0  0  0  0  0  0
   31.8070   30.3660   36.3090 C   0  0  0  0  0  0  0  0  0  0  0  0
   32.3050   31.3030   37.1210 N   0  0  0  0  0  0  0  0  0  0  0  0
   30.5150   29.7670   36.3640 N   0  0  0  0  0  0  0  0  0  0  0  0
   33.9520   32.5150   37.5840 H   0  0  0  0  0  0  0  0  0  0  0  0
   29.7580   30.4840   36.4980 H   0  0  0  0  0  0  0  0  0  0  0  0
   30.3850   28.7240   36.2750 H   0  0  0  0  0  0  0  0  0  0  0  0
   35.7160   31.7930   35.6960 C   0  0  0  0  0  0  0  0  0  0  0  0
   35.9450   32.8690   36.5630 F   0  0  0  0  0  0  0  0  0  0  0  0
   36.6270   30.8370   35.9710 F   0  0  0  0  0  0  0  0  0  0  0  0
   35.9670   32.2730   34.4130 F   0  0  0  0  0  0  0  0  0  0  0  0
   37.0730   27.1860   33.0160 C   0  0  0  0  0  0  0  0  0  0  0  0
   38.4040   27.2470   33.3610 C   0  0  0  0  0  0  0  0  0  0  0  0
   38.9330   25.9650   33.4030 C   0  0  0  0  0  0  0  0  0  0  0  0
   37.8890   25.1640   33.0760 N   0  0  0  0  0  0  0  0  0  0  0  0
   36.8020   25.8800   32.8510 N   0  0  0  0  0  0  0  0  0  0  0  0
   38.9970   28.1340   33.5790 H   0  0  0  0  0  0  0  0  0  0  0  0
   39.9170   25.6200   33.6300 H   0  0  0  0  0  0  0  0  0  0  0  0
   39.3430   22.2690   32.5840 H   0  0  0  0  0  0  0  0  0  0  0  0
   39.1670   23.2630   32.4210 N   0  0  0  0  0  0  0  0  0  0  0  0
   37.9160   23.7310   32.9780 C   0  0  2  0  0  3  0  0  0  0  0  0
   36.8020   23.1760   32.1340 C   0  0  0  0  0  3  0  0  0  0  0  0
   36.8190   22.0670   32.2440 H   0  0  0  0  0  0  0  0  0  0  0  0
   36.9350   23.4370   30.7910 O   0  0  0  0  0  0  0  0  0  0  0  0
   38.0530   24.1570   30.4250 C   0  0  0  0  0  2  0  0  0  0  0  0
   39.3350   23.7240   31.0660 C   0  0  0  0  0  2  0  0  0  0  0  0
  1  6  1  0  0  0  0
  1 12  1  0  0  0  0
  2  1  2  0  0  0  0
  3  4  2  0  0  0  0
  3  2  1  0  0  0  0
  4  5  1  0  0  0  0
  5 24  1  0  0  0  0
  5  6  2  0  0  0  0
  7  2  1  0  0  0  0
  8  3  1  0  0  0  0
  9  4  1  0  0  0  0
 10 15  1  0  0  0  0
 10 17  1  0  0  0  0
 11 10  2  0  0  0  0
 12 13  2  0  0  0  0
 12 11  1  0  0  0  0
 13 14  1  0  0  0  0
 14 16  1  0  0  0  0
 14 15  2  0  0  0  0
 16 18  1  0  0  0  0
 19 16  1  0  0  0  0
 20 11  1  0  0  0  0
 20 22  1  0  0  0  0
 20 21  1  0  0  0  0
 23 20  1  0  0  0  0
 24 25  1  0  0  0  0
 25 26  2  0  0  0  0
 25 29  1  0  0  0  0
 26 30  1  0  0  0  0
 27 26  1  0  0  0  0
 28 24  2  0  0  0  0
 28 27  1  0  0  0  0
 32 31  1  0  0  0  0
 32 33  1  0  0  0  0
 33 27  1  6  0  0  0
 34 35  1  0  0  0  0
 34 33  1  0  0  0  0
 36 34  1  0  0  0  0
 37 36  1  0  0  0  0
 37 38  1  0  0  0  0
 38 32  1  0  0  0  0
M  END
>  <minimizedAffinity>
-5.81442833

$$$$

 OpenBabel03272508003D

 38 41  0  0  1  0  0  0  0  0999 V2000
   36.9980   27.4700   34.2120 C   0  0  0  0  0  0  0  0  0  0  0  0
   37.7500   28.0130   35.2450 C   0  0  0  0  0  0  0  0  0  0  0  0
   38.6280   27.1760   35.9410 C   0  0  0  0  0  0  0  0  0  0  0  0
   38.7430   25.8360   35.6060 C   0  0  0  0  0  0  0  0  0  0  0  0
   37.9770   25.3350   34.5710 C   0  0  0  0  0  0  0  0  0  0  0  0
   37.1480   26.1610   33.9260 N   0  0  0  0  0  0  0  0  0  0  0  0
   37.8450   29.0020   35.6710 H   0  0  0  0  0  0  0  0  0  0  0  0
   39.2770   27.4410   36.7620 H   0  0  0  0  0  0  0  0  0  0  0  0
   39.3920   25.1240   36.0890 H   0  0  0  0  0  0  0  0  0  0  0  0
   35.4600   29.7560   31.6640 C   0  0  0  0  0  0  0  0  0  0  0  0
   36.3230   28.7870   32.2520 C   0  0  0  0  0  0  0  0  0  0  0  0
   36.1390   28.4450   33.5950 C   0  0  0  0  0  0  0  0  0  0  0  0
   35.1310   29.0700   34.2660 N   0  0  0  0  0  0  0  0  0  0  0  0
   34.3260   29.9930   33.6670 C   0  0  0  0  0  0  0  0  0  0  0  0
   34.4890   30.3310   32.3850 N   0  0  0  0  0  0  0  0  0  0  0  0
   33.3560   30.4960   34.5810 N   0  0  0  0  0  0  0  0  0  0  0  0
   35.5920   30.0300   30.6270 H   0  0  0  0  0  0  0  0  0  0  0  0
   32.3970   30.5280   34.1530 H   0  0  0  0  0  0  0  0  0  0  0  0
   33.6180   30.7880   35.5600 H   0  0  0  0  0  0  0  0  0  0  0  0
   37.3790   28.1880   31.4050 C   0  0  0  0  0  0  0  0  0  0  0  0
   37.0210   26.9040   30.9750 F   0  0  0  0  0  0  0  0  0  0  0  0
   37.5830   28.9500   30.3110 F   0  0  0  0  0  0  0  0  0  0  0  0
   38.5980   28.0450   32.0660 F   0  0  0  0  0  0  0  0  0  0  0  0
   38.0410   23.9440   34.1480 C   0  0  0  0  0  0  0  0  0  0  0  0
   38.3780   22.8640   34.9320 C   0  0  0  0  0  0  0  0  0  0  0  0
   38.3230   21.7030   34.1740 C   0  0  0  0  0  0  0  0  0  0  0  0
   37.9500   22.1290   32.9410 N   0  0  0  0  0  0  0  0  0  0  0  0
   37.7860   23.4390   32.9290 N   0  0  0  0  0  0  0  0  0  0  0  0
   38.6520   22.8640   35.9860 H   0  0  0  0  0  0  0  0  0  0  0  0
   38.5160   20.6860   34.4340 H   0  0  0  0  0  0  0  0  0  0  0  0
   36.7420   21.4620   29.9700 H   0  0  0  0  0  0  0  0  0  0  0  0
   36.7270   21.8480   30.9160 N   0  0  0  0  0  0  0  0  0  0  0  0
   37.7500   21.3040   31.7830 C   0  0  2  0  0  3  0  0  0  0  0  0
   37.3600   19.8930   32.1230 C   0  0  0  0  0  3  0  0  0  0  0  0
   37.3790   19.3030   31.1770 H   0  0  0  0  0  0  0  0  0  0  0  0
   36.0900   19.7720   32.6330 O   0  0  0  0  0  0  0  0  0  0  0  0
   35.3750   20.9440   32.7550 C   0  0  0  0  0  2  0  0  0  0  0  0
   35.4460   21.8650   31.5760 C   0  0  0  0  0  2  0  0  0  0  0  0
  1  2  1  0  0  0  0
  2  7  1  0  0  0  0
  2  3  2  0  0  0  0
  3  8  1  0  0  0  0
  4  3  1  0  0  0  0
  4  9  1  0  0  0  0
  5  4  2  0  0  0  0
  6  1  2  0  0  0  0
  6  5  1  0  0  0  0
 10 11  2  0  0  0  0
 10 15  1  0  0  0  0
 11 12  1  0  0  0  0
 12  1  1  0  0  0  0
 12 13  2  0  0  0  0
 14 13  1  0  0  0  0
 14 16  1  0  0  0  0
 15 14  2  0  0  0  0
 16 19  1  0  0  0  0
 17 10  1  0  0  0  0
 18 16  1  0  0  0  0
 20 23  1  0  0  0  0
 20 11  1  0  0  0  0
 21 20  1  0  0  0  0
 22 20  1  0  0  0  0
 24  5  1  0  0  0  0
 24 25  1  0  0  0  0
 25 29  1  0  0  0  0
 26 30  1  0  0  0  0
 26 25  2  0  0  0  0
 27 26  1  0  0  0  0
 28 27  1  0  0  0  0
 28 24  2  0  0  0  0
 31 32  1  0  0  0  0
 32 38  1  0  0  0  0
 32 33  1  0  0  0  0
 33 34  1  0  0  0  0
 33 27  1  1  0  0  0
 34 36  1  0  0  0  0
 35 34  1  0  0  0  0
 36 37  1  0  0  0  0
 38 37  1  0  0  0  0
M  END
>  <minimizedAffinity>
-5.76754332

$$$$
