
 OpenBabel03272510243D

 31 34  0  0  1  0  0  0  0  0999 V2000
   36.6360   30.5360   45.4820 C   0  0  0  0  0  0  0  0  0  0  0  0
   37.6640   31.1870   46.1410 C   0  0  0  0  0  0  0  0  0  0  0  0
   38.7570   31.6900   45.4360 C   0  0  0  0  0  0  0  0  0  0  0  0
   38.7540   31.5030   44.0600 C   0  0  0  0  0  0  0  0  0  0  0  0
   39.7050   31.9030   43.1610 N   0  0  0  0  0  0  0  0  0  0  0  0
   39.2640   31.4990   41.9530 C   0  0  0  0  0  0  0  0  0  0  0  0
   38.0970   30.8730   42.0550 N   0  0  0  0  0  0  0  0  0  0  0  0
   37.7520   30.8620   43.3660 C   0  0  0  0  0  0  0  0  0  0  0  0
   36.6680   30.3670   44.1030 C   0  0  0  0  0  0  0  0  0  0  0  0
   35.7780   30.1370   46.0050 H   0  0  0  0  0  0  0  0  0  0  0  0
   39.5490   32.1920   45.9330 H   0  0  0  0  0  0  0  0  0  0  0  0
   40.5910   32.4160   43.3690 H   0  0  0  0  0  0  0  0  0  0  0  0
   35.8740   29.8600   43.5630 H   0  0  0  0  0  0  0  0  0  0  0  0
   38.3140   31.9330   49.7690 C   0  0  0  0  0  0  0  0  0  0  0  0
   38.5500   31.8600   48.3980 C   0  0  0  0  0  0  0  0  0  0  0  0
   37.5730   31.3320   47.5790 C   0  0  0  0  0  0  0  0  0  0  0  0
   36.4160   30.9050   48.1780 N   0  0  0  0  0  0  0  0  0  0  0  0
   36.1980   30.9790   49.5060 C   0  0  0  0  0  0  0  0  0  0  0  0
   37.1380   31.4870   50.2850 N   0  0  0  0  0  0  0  0  0  0  0  0
   39.1440   32.3650   50.3270 H   0  0  0  0  0  0  0  0  0  0  0  0
   39.4480   32.1880   47.9020 H   0  0  0  0  0  0  0  0  0  0  0  0
   35.2610   30.6220   49.8960 H   0  0  0  0  0  0  0  0  0  0  0  0
   40.0110   31.7510   40.7870 O   0  0  0  0  0  0  0  0  0  0  0  0
   41.3740   30.2190   42.1600 H   0  0  0  0  0  0  0  0  0  0  0  0
   40.8870   29.7150   41.3840 N   0  0  0  0  0  0  0  0  0  0  0  0
   40.8380   30.7050   40.2980 C   0  0  1  0  0  3  0  0  0  0  0  0
   40.1260   30.0160   39.1590 C   0  0  0  0  0  3  0  0  0  0  0  0
   39.1640   29.6160   39.5500 H   0  0  0  0  0  0  0  0  0  0  0  0
   40.9320   28.9880   38.6750 O   0  0  0  0  0  0  0  0  0  0  0  0
   41.3000   28.0600   39.6200 C   0  0  0  0  0  2  0  0  0  0  0  0
   41.7850   28.6790   40.9090 C   0  0  0  0  0  2  0  0  0  0  0  0
  1 10  1  0  0  0  0
  1  2  1  0  0  0  0
  2 16  1  0  0  0  0
  3 11  1  0  0  0  0
  3  2  2  0  0  0  0
  4  3  1  0  0  0  0
  5 12  1  0  0  0  0
  5  4  1  0  0  0  0
  6  7  2  0  0  0  0
  6  5  1  0  0  0  0
  7  8  1  0  0  0  0
  8  4  2  0  0  0  0
  8  9  1  0  0  0  0
  9  1  2  0  0  0  0
 13  9  1  0  0  0  0
 14 19  1  0  0  0  0
 14 20  1  0  0  0  0
 15 14  2  0  0  0  0
 16 17  2  0  0  0  0
 16 15  1  0  0  0  0
 17 18  1  0  0  0  0
 18 22  1  0  0  0  0
 18 19  2  0  0  0  0
 21 15  1  0  0  0  0
 23  6  1  0  0  0  0
 25 24  1  0  0  0  0
 26 23  1  1  0  0  0
 26 25  1  0  0  0  0
 27 28  1  0  0  0  0
 27 26  1  0  0  0  0
 29 27  1  0  0  0  0
 29 30  1  0  0  0  0
 30 31  1  0  0  0  0
 31 25  1  0  0  0  0
M  END
>  <minimizedAffinity>
-4.78640556

>  <minimizedRMSD>
3.69506145

$$$$
