
 OpenBabel03272506593D

 27 29  0  0  0  0  0  0  0  0999 V2000
   37.7170   24.7890   33.5430 C   0  0  0  0  0  0  0  0  0  0  0  0
   37.6030   24.0490   32.3930 C   0  0  0  0  0  0  0  0  0  0  0  0
   37.1710   24.5200   31.1680 C   0  0  0  0  0  0  0  0  0  0  0  0
   36.8360   25.8320   31.1240 N   0  0  0  0  0  0  0  0  0  0  0  0
   36.9380   26.5900   32.2440 C   0  0  0  0  0  0  0  0  0  0  0  0
   37.3650   26.0860   33.4210 N   0  0  0  0  0  0  0  0  0  0  0  0
   37.8660   23.0010   32.4100 H   0  0  0  0  0  0  0  0  0  0  0  0
   37.1050   23.8850   30.3050 H   0  0  0  0  0  0  0  0  0  0  0  0
   36.5930   27.9650   32.2260 N   0  0  0  0  0  0  0  0  0  0  0  0
   35.7950   28.6310   33.2380 C   0  0  0  0  0  3  0  0  0  0  0  0
   36.3590   29.4110   33.7730 H   0  0  0  0  0  0  0  0  0  0  0  0
   34.6780   29.3140   32.4380 C   0  0  0  0  0  3  0  0  0  0  0  0
   33.9110   29.6740   33.1360 H   0  0  0  0  0  0  0  0  0  0  0  0
   35.1510   30.2240   31.5330 O   0  0  0  0  0  0  0  0  0  0  0  0
   36.5160   30.2190   31.3260 C   0  0  0  0  0  2  0  0  0  0  0  0
   37.0580   28.8100   31.1220 C   0  0  0  0  0  2  0  0  0  0  0  0
   38.2800   24.3240   37.1030 C   0  0  0  0  0  0  0  0  0  0  0  0
   39.0300   23.1590   37.2020 C   0  0  0  0  0  0  0  0  0  0  0  0
   39.3430   22.5290   35.9910 C   0  0  0  0  0  0  0  0  0  0  0  0
   38.9140   23.0620   34.8200 N   0  0  0  0  0  0  0  0  0  0  0  0
   38.1860   24.2020   34.7960 C   0  0  0  0  0  0  0  0  0  0  0  0
   37.8460   24.8680   35.9360 N   0  0  0  0  0  0  0  0  0  0  0  0
   37.9970   24.8710   37.9960 H   0  0  0  0  0  0  0  0  0  0  0  0
   39.9260   21.6190   36.0220 H   0  0  0  0  0  0  0  0  0  0  0  0
   39.4420   22.6630   38.4690 N   0  0  0  0  0  0  0  0  0  0  0  0
   40.4700   22.4400   38.4400 H   0  0  0  0  0  0  0  0  0  0  0  0
   38.8450   22.5310   39.3090 H   0  0  0  0  0  0  0  0  0  0  0  0
  1 21  1  0  0  0  0
  2  7  1  0  0  0  0
  2  1  2  0  0  0  0
  3  2  1  0  0  0  0
  4  3  2  0  0  0  0
  4  5  1  0  0  0  0
  5  6  2  0  0  0  0
  6  1  1  0  0  0  0
  8  3  1  0  0  0  0
  9  5  1  0  0  0  0
  9 10  1  0  0  0  0
 10 11  1  0  0  0  0
 12 13  1  0  0  0  0
 12 10  1  0  0  0  0
 14 12  1  0  0  0  0
 15 14  1  0  0  0  0
 16 15  1  0  0  0  0
 16  9  1  0  0  0  0
 17 18  1  0  0  0  0
 17 23  1  0  0  0  0
 18 25  1  0  0  0  0
 19 24  1  0  0  0  0
 19 18  2  0  0  0  0
 20 19  1  0  0  0  0
 21 20  2  0  0  0  0
 21 22  1  0  0  0  0
 22 17  2  0  0  0  0
 25 27  1  0  0  0  0
 26 25  1  0  0  0  0
M  END
>  <minimizedAffinity>
-5.13154078

$$$$

 OpenBabel03272506593D

 27 29  0  0  0  0  0  0  0  0999 V2000
   36.2920   23.6090   31.5710 C   0  0  0  0  0  0  0  0  0  0  0  0
   35.3910   24.5400   31.1180 C   0  0  0  0  0  0  0  0  0  0  0  0
   35.5970   25.9040   31.0610 C   0  0  0  0  0  0  0  0  0  0  0  0
   36.8050   26.3380   31.4970 N   0  0  0  0  0  0  0  0  0  0  0  0
   37.7170   25.4430   31.9500 C   0  0  0  0  0  0  0  0  0  0  0  0
   37.4710   24.1160   31.9880 N   0  0  0  0  0  0  0  0  0  0  0  0
   34.4220   24.2100   30.7670 H   0  0  0  0  0  0  0  0  0  0  0  0
   34.8470   26.5780   30.6940 H   0  0  0  0  0  0  0  0  0  0  0  0
   38.9880   25.8700   32.4120 N   0  0  0  0  0  0  0  0  0  0  0  0
   39.6280   25.3980   33.6250 C   0  0  0  0  0  3  0  0  0  0  0  0
   40.5660   24.8580   33.4240 H   0  0  0  0  0  0  0  0  0  0  0  0
   39.9720   26.6850   34.3870 C   0  0  0  0  0  3  0  0  0  0  0  0
   40.2770   26.4230   35.4080 H   0  0  0  0  0  0  0  0  0  0  0  0
   40.8190   27.5040   33.6920 O   0  0  0  0  0  0  0  0  0  0  0  0
   41.0400   27.1670   32.3710 C   0  0  0  0  0  2  0  0  0  0  0  0
   39.7410   26.8580   31.6360 C   0  0  0  0  0  2  0  0  0  0  0  0
   34.6890   20.4690   32.4520 C   0  0  0  0  0  0  0  0  0  0  0  0
   35.3400   19.5040   31.6950 C   0  0  0  0  0  0  0  0  0  0  0  0
   36.3630   19.9720   30.8590 C   0  0  0  0  0  0  0  0  0  0  0  0
   36.6590   21.2950   30.8270 N   0  0  0  0  0  0  0  0  0  0  0  0
   35.9830   22.1810   31.5940 C   0  0  0  0  0  0  0  0  0  0  0  0
   34.9780   21.7960   32.4300 N   0  0  0  0  0  0  0  0  0  0  0  0
   33.8850   20.1870   33.1250 H   0  0  0  0  0  0  0  0  0  0  0  0
   36.8960   19.2540   30.2510 H   0  0  0  0  0  0  0  0  0  0  0  0
   34.9700   18.1350   31.7830 N   0  0  0  0  0  0  0  0  0  0  0  0
   35.8330   17.5470   31.9160 H   0  0  0  0  0  0  0  0  0  0  0  0
   34.0080   17.7460   31.7300 H   0  0  0  0  0  0  0  0  0  0  0  0
  1 21  1  0  0  0  0
  1  6  1  0  0  0  0
  2  1  2  0  0  0  0
  3  2  1  0  0  0  0
  3  4  2  0  0  0  0
  4  5  1  0  0  0  0
  5  6  2  0  0  0  0
  5  9  1  0  0  0  0
  7  2  1  0  0  0  0
  8  3  1  0  0  0  0
  9 10  1  0  0  0  0
 10 12  1  0  0  0  0
 11 10  1  0  0  0  0
 12 13  1  0  0  0  0
 14 12  1  0  0  0  0
 15 14  1  0  0  0  0
 16 15  1  0  0  0  0
 16  9  1  0  0  0  0
 17 23  1  0  0  0  0
 18 25  1  0  0  0  0
 18 17  2  0  0  0  0
 19 18  1  0  0  0  0
 20 19  2  0  0  0  0
 20 21  1  0  0  0  0
 21 22  2  0  0  0  0
 22 17  1  0  0  0  0
 24 19  1  0  0  0  0
 25 26  1  0  0  0  0
 27 25  1  0  0  0  0
M  END
>  <minimizedAffinity>
-4.93905687

$$$$

 OpenBabel03272506593D

 27 29  0  0  0  0  0  0  0  0999 V2000
   37.3320   23.1500   32.7030 C   0  0  0  0  0  0  0  0  0  0  0  0
   38.5800   23.2140   33.2690 C   0  0  0  0  0  0  0  0  0  0  0  0
   39.2960   24.3680   33.5210 C   0  0  0  0  0  0  0  0  0  0  0  0
   38.6900   25.5280   33.1680 N   0  0  0  0  0  0  0  0  0  0  0  0
   37.4570   25.4980   32.6050 C   0  0  0  0  0  0  0  0  0  0  0  0
   36.7940   24.3440   32.3780 N   0  0  0  0  0  0  0  0  0  0  0  0
   39.0770   22.2980   33.5560 H   0  0  0  0  0  0  0  0  0  0  0  0
   40.2710   24.3470   33.9680 H   0  0  0  0  0  0  0  0  0  0  0  0
   36.8010   26.6970   32.2270 N   0  0  0  0  0  0  0  0  0  0  0  0
   36.1080   26.8980   30.9680 C   0  0  0  0  0  3  0  0  0  0  0  0
   35.0300   27.0760   31.1050 H   0  0  0  0  0  0  0  0  0  0  0  0
   36.7350   28.1780   30.4010 C   0  0  0  0  0  3  0  0  0  0  0  0
   36.4160   28.2970   29.3570 H   0  0  0  0  0  0  0  0  0  0  0  0
   36.5600   29.2630   31.2160 O   0  0  0  0  0  0  0  0  0  0  0  0
   36.0690   28.9980   32.4790 C   0  0  0  0  0  2  0  0  0  0  0  0
   36.8000   27.8390   33.1450 C   0  0  0  0  0  2  0  0  0  0  0  0
   35.5700   20.0440   33.3760 C   0  0  0  0  0  0  0  0  0  0  0  0
   35.3540   19.4720   32.1290 C   0  0  0  0  0  0  0  0  0  0  0  0
   35.8390   20.1970   31.0330 C   0  0  0  0  0  0  0  0  0  0  0  0
   36.4730   21.3790   31.2300 N   0  0  0  0  0  0  0  0  0  0  0  0
   36.6500   21.8780   32.4740 C   0  0  0  0  0  0  0  0  0  0  0  0
   36.2050   21.2260   33.5860 N   0  0  0  0  0  0  0  0  0  0  0  0
   35.2250   19.5440   34.2750 H   0  0  0  0  0  0  0  0  0  0  0  0
   35.6920   19.7880   30.0430 H   0  0  0  0  0  0  0  0  0  0  0  0
   34.6790   18.2280   32.0050 N   0  0  0  0  0  0  0  0  0  0  0  0
   35.2330   17.5900   31.3760 H   0  0  0  0  0  0  0  0  0  0  0  0
   33.7810   17.9600   32.4520 H   0  0  0  0  0  0  0  0  0  0  0  0
  1  2  1  0  0  0  0
  2  3  2  0  0  0  0
  2  7  1  0  0  0  0
  3  8  1  0  0  0  0
  4  3  1  0  0  0  0
  5  4  2  0  0  0  0
  6  5  1  0  0  0  0
  6  1  2  0  0  0  0
  9  5  1  0  0  0  0
  9 16  1  0  0  0  0
 10 11  1  0  0  0  0
 10  9  1  0  0  0  0
 12 10  1  0  0  0  0
 12 14  1  0  0  0  0
 13 12  1  0  0  0  0
 14 15  1  0  0  0  0
 15 16  1  0  0  0  0
 17 22  1  0  0  0  0
 17 23  1  0  0  0  0
 18 17  2  0  0  0  0
 19 20  2  0  0  0  0
 19 18  1  0  0  0  0
 20 21  1  0  0  0  0
 21  1  1  0  0  0  0
 21 22  2  0  0  0  0
 24 19  1  0  0  0  0
 25 18  1  0  0  0  0
 25 27  1  0  0  0  0
 26 25  1  0  0  0  0
M  END
>  <minimizedAffinity>
-4.90277719

$$$$

 OpenBabel03272506593D

 27 29  0  0  0  0  0  0  0  0999 V2000
   38.7630   25.6230   33.3310 C   0  0  0  0  0  0  0  0  0  0  0  0
   39.5630   26.7290   33.4750 C   0  0  0  0  0  0  0  0  0  0  0  0
   40.6930   26.8120   34.2640 C   0  0  0  0  0  0  0  0  0  0  0  0
   41.0200   25.6890   34.9490 N   0  0  0  0  0  0  0  0  0  0  0  0
   40.2490   24.5800   34.8280 C   0  0  0  0  0  0  0  0  0  0  0  0
   39.1510   24.5450   34.0430 N   0  0  0  0  0  0  0  0  0  0  0  0
   39.3160   27.6330   32.9350 H   0  0  0  0  0  0  0  0  0  0  0  0
   41.2760   27.7100   34.3300 H   0  0  0  0  0  0  0  0  0  0  0  0
   40.5680   23.3920   35.5330 N   0  0  0  0  0  0  0  0  0  0  0  0
   39.6100   22.5760   36.2550 C   0  0  0  0  0  3  0  0  0  0  0  0
   39.5120   21.5660   35.8290 H   0  0  0  0  0  0  0  0  0  0  0  0
   40.2180   22.4460   37.6580 C   0  0  0  0  0  3  0  0  0  0  0  0
   39.4660   22.0150   38.3320 H   0  0  0  0  0  0  0  0  0  0  0  0
   41.4460   21.8410   37.6520 O   0  0  0  0  0  0  0  0  0  0  0  0
   42.0250   21.6600   36.4120 C   0  0  0  0  0  2  0  0  0  0  0  0
   41.9560   22.9200   35.5590 C   0  0  0  0  0  2  0  0  0  0  0  0
   35.9980   24.4110   31.3080 C   0  0  0  0  0  0  0  0  0  0  0  0
   35.3580   25.5540   30.8460 C   0  0  0  0  0  0  0  0  0  0  0  0
   35.9150   26.7730   31.2560 C   0  0  0  0  0  0  0  0  0  0  0  0
   37.0090   26.7820   32.0560 N   0  0  0  0  0  0  0  0  0  0  0  0
   37.5820   25.6290   32.4700 C   0  0  0  0  0  0  0  0  0  0  0  0
   37.0950   24.4080   32.1090 N   0  0  0  0  0  0  0  0  0  0  0  0
   35.6290   23.4280   31.0350 H   0  0  0  0  0  0  0  0  0  0  0  0
   35.4480   27.6880   30.9190 H   0  0  0  0  0  0  0  0  0  0  0  0
   34.2130   25.4610   30.0100 N   0  0  0  0  0  0  0  0  0  0  0  0
   34.3360   26.0930   29.1770 H   0  0  0  0  0  0  0  0  0  0  0  0
   33.3730   24.8710   30.1690 H   0  0  0  0  0  0  0  0  0  0  0  0
  1  2  2  0  0  0  0
  1  6  1  0  0  0  0
  2  3  1  0  0  0  0
  3  8  1  0  0  0  0
  3  4  2  0  0  0  0
  5  4  1  0  0  0  0
  5  9  1  0  0  0  0
  6  5  2  0  0  0  0
  7  2  1  0  0  0  0
  9 16  1  0  0  0  0
  9 10  1  0  0  0  0
 10 12  1  0  0  0  0
 11 10  1  0  0  0  0
 12 13  1  0  0  0  0
 14 12  1  0  0  0  0
 15 14  1  0  0  0  0
 16 15  1  0  0  0  0
 17 22  1  0  0  0  0
 18 19  1  0  0  0  0
 18 17  2  0  0  0  0
 19 20  2  0  0  0  0
 20 21  1  0  0  0  0
 21  1  1  0  0  0  0
 22 21  2  0  0  0  0
 23 17  1  0  0  0  0
 24 19  1  0  0  0  0
 25 27  1  0  0  0  0
 25 18  1  0  0  0  0
 26 25  1  0  0  0  0
M  END
>  <minimizedAffinity>
-4.84253311

$$$$

 OpenBabel03272506593D

 27 29  0  0  0  0  0  0  0  0999 V2000
   38.3670   23.9490   33.1220 C   0  0  0  0  0  0  0  0  0  0  0  0
   38.1910   22.9730   32.1740 C   0  0  0  0  0  0  0  0  0  0  0  0
   37.9780   23.1830   30.8260 C   0  0  0  0  0  0  0  0  0  0  0  0
   37.9440   24.4790   30.4280 N   0  0  0  0  0  0  0  0  0  0  0  0
   38.1150   25.4670   31.3420 C   0  0  0  0  0  0  0  0  0  0  0  0
   38.3210   25.2130   32.6510 N   0  0  0  0  0  0  0  0  0  0  0  0
   38.2150   21.9340   32.4740 H   0  0  0  0  0  0  0  0  0  0  0  0
   37.8480   22.3720   30.1360 H   0  0  0  0  0  0  0  0  0  0  0  0
   38.0840   26.8300   30.9530 N   0  0  0  0  0  0  0  0  0  0  0  0
   37.3690   27.8750   31.6610 C   0  0  0  0  0  3  0  0  0  0  0  0
   38.0420   28.6440   32.0690 H   0  0  0  0  0  0  0  0  0  0  0  0
   36.5000   28.5280   30.5770 C   0  0  0  0  0  3  0  0  0  0  0  0
   35.7750   29.1970   31.0590 H   0  0  0  0  0  0  0  0  0  0  0  0
   37.2370   29.0650   29.5570 O   0  0  0  0  0  0  0  0  0  0  0  0
   38.5800   28.7460   29.5460 C   0  0  0  0  0  2  0  0  0  0  0  0
   38.8150   27.2550   29.7560 C   0  0  0  0  0  2  0  0  0  0  0  0
   38.2630   24.2040   36.7460 C   0  0  0  0  0  0  0  0  0  0  0  0
   38.9590   23.0940   37.2080 C   0  0  0  0  0  0  0  0  0  0  0  0
   39.4740   22.2430   36.2220 C   0  0  0  0  0  0  0  0  0  0  0  0
   39.2770   22.5280   34.9100 N   0  0  0  0  0  0  0  0  0  0  0  0
   38.5880   23.6280   34.5310 C   0  0  0  0  0  0  0  0  0  0  0  0
   38.0590   24.5000   35.4360 N   0  0  0  0  0  0  0  0  0  0  0  0
   37.8330   24.9120   37.4470 H   0  0  0  0  0  0  0  0  0  0  0  0
   40.0240   21.3670   36.5370 H   0  0  0  0  0  0  0  0  0  0  0  0
   39.1230   22.8640   38.6000 N   0  0  0  0  0  0  0  0  0  0  0  0
   40.1350   22.6570   38.8040 H   0  0  0  0  0  0  0  0  0  0  0  0
   38.3800   22.8900   39.3270 H   0  0  0  0  0  0  0  0  0  0  0  0
  1 21  1  0  0  0  0
  2  7  1  0  0  0  0
  2  1  2  0  0  0  0
  3  2  1  0  0  0  0
  4  3  2  0  0  0  0
  4  5  1  0  0  0  0
  5  6  2  0  0  0  0
  6  1  1  0  0  0  0
  8  3  1  0  0  0  0
  9  5  1  0  0  0  0
  9 10  1  0  0  0  0
 10 11  1  0  0  0  0
 12 13  1  0  0  0  0
 12 10  1  0  0  0  0
 14 12  1  0  0  0  0
 15 14  1  0  0  0  0
 15 16  1  0  0  0  0
 16  9  1  0  0  0  0
 17 18  1  0  0  0  0
 17 23  1  0  0  0  0
 18 25  1  0  0  0  0
 19 24  1  0  0  0  0
 19 18  2  0  0  0  0
 20 19  1  0  0  0  0
 21 20  2  0  0  0  0
 21 22  1  0  0  0  0
 22 17  2  0  0  0  0
 25 26  1  0  0  0  0
 25 27  1  0  0  0  0
M  END
>  <minimizedAffinity>
-4.82085514

$$$$

 OpenBabel03272506593D

 27 29  0  0  0  0  0  0  0  0999 V2000
   35.7440   29.1840   34.2210 C   0  0  0  0  0  0  0  0  0  0  0  0
   35.4120   28.9990   32.9030 C   0  0  0  0  0  0  0  0  0  0  0  0
   35.9420   28.0410   32.0620 C   0  0  0  0  0  0  0  0  0  0  0  0
   36.8720   27.2220   32.6110 N   0  0  0  0  0  0  0  0  0  0  0  0
   37.2220   27.3790   33.9110 C   0  0  0  0  0  0  0  0  0  0  0  0
   36.6760   28.3310   34.6970 N   0  0  0  0  0  0  0  0  0  0  0  0
   34.6720   29.6440   32.4490 H   0  0  0  0  0  0  0  0  0  0  0  0
   35.6370   27.9510   31.0370 H   0  0  0  0  0  0  0  0  0  0  0  0
   38.1920   26.5360   34.5110 N   0  0  0  0  0  0  0  0  0  0  0  0
   39.2740   26.9950   35.3610 C   0  0  0  0  0  3  0  0  0  0  0  0
   39.1970   26.6060   36.3880 H   0  0  0  0  0  0  0  0  0  0  0  0
   40.5310   26.3960   34.7160 C   0  0  0  0  0  3  0  0  0  0  0  0
   41.4170   26.8550   35.1740 H   0  0  0  0  0  0  0  0  0  0  0  0
   40.5080   25.0290   34.6760 O   0  0  0  0  0  0  0  0  0  0  0  0
   39.3040   24.4340   34.9970 C   0  0  0  0  0  2  0  0  0  0  0  0
   38.1320   25.0900   34.2790 C   0  0  0  0  0  2  0  0  0  0  0  0
   33.1870   31.2240   35.8050 C   0  0  0  0  0  0  0  0  0  0  0  0
   33.8850   32.1680   36.5480 C   0  0  0  0  0  0  0  0  0  0  0  0
   35.2820   32.0810   36.4870 C   0  0  0  0  0  0  0  0  0  0  0  0
   35.8680   31.1160   35.7350 N   0  0  0  0  0  0  0  0  0  0  0  0
   35.1260   30.2280   35.0350 C   0  0  0  0  0  0  0  0  0  0  0  0
   33.7630   30.2540   35.0480 N   0  0  0  0  0  0  0  0  0  0  0  0
   32.1020   31.2250   35.7990 H   0  0  0  0  0  0  0  0  0  0  0  0
   35.8650   32.7970   37.0500 H   0  0  0  0  0  0  0  0  0  0  0  0
   33.1970   33.1480   37.3120 N   0  0  0  0  0  0  0  0  0  0  0  0
   33.6030   34.0980   37.1090 H   0  0  0  0  0  0  0  0  0  0  0  0
   32.4130   32.9840   37.9740 H   0  0  0  0  0  0  0  0  0  0  0  0
  1  6  1  0  0  0  0
  1 21  1  0  0  0  0
  2  1  2  0  0  0  0
  3  4  2  0  0  0  0
  3  2  1  0  0  0  0
  4  5  1  0  0  0  0
  5  9  1  0  0  0  0
  5  6  2  0  0  0  0
  7  2  1  0  0  0  0
  8  3  1  0  0  0  0
  9 10  1  0  0  0  0
 10 11  1  0  0  0  0
 12 13  1  0  0  0  0
 12 10  1  0  0  0  0
 14 12  1  0  0  0  0
 14 15  1  0  0  0  0
 16  9  1  0  0  0  0
 16 15  1  0  0  0  0
 17 18  1  0  0  0  0
 18 25  1  0  0  0  0
 19 18  2  0  0  0  0
 19 24  1  0  0  0  0
 20 19  1  0  0  0  0
 21 22  1  0  0  0  0
 21 20  2  0  0  0  0
 22 17  2  0  0  0  0
 23 17  1  0  0  0  0
 25 27  1  0  0  0  0
 26 25  1  0  0  0  0
M  END
>  <minimizedAffinity>
-4.78021622

$$$$

 OpenBabel03272506593D

 27 29  0  0  0  0  0  0  0  0999 V2000
   35.6350   30.2570   33.0840 C   0  0  0  0  0  0  0  0  0  0  0  0
   35.7840   30.8660   31.8630 C   0  0  0  0  0  0  0  0  0  0  0  0
   36.0630   30.2290   30.6700 C   0  0  0  0  0  0  0  0  0  0  0  0
   36.1980   28.8810   30.7370 N   0  0  0  0  0  0  0  0  0  0  0  0
   36.0560   28.2500   31.9290 C   0  0  0  0  0  0  0  0  0  0  0  0
   35.7830   28.9150   33.0710 N   0  0  0  0  0  0  0  0  0  0  0  0
   35.6800   31.9390   31.7930 H   0  0  0  0  0  0  0  0  0  0  0  0
   36.1670   30.7670   29.7480 H   0  0  0  0  0  0  0  0  0  0  0  0
   36.1920   26.8420   32.0270 N   0  0  0  0  0  0  0  0  0  0  0  0
   36.9460   26.1540   33.0580 C   0  0  0  0  0  3  0  0  0  0  0  0
   36.3080   25.5200   33.6930 H   0  0  0  0  0  0  0  0  0  0  0  0
   37.8970   25.2410   32.2730 C   0  0  0  0  0  3  0  0  0  0  0  0
   38.6460   24.8310   32.9650 H   0  0  0  0  0  0  0  0  0  0  0  0
   37.2380   24.3370   31.4860 O   0  0  0  0  0  0  0  0  0  0  0  0
   35.8790   24.5320   31.3470 C   0  0  0  0  0  2  0  0  0  0  0  0
   35.5390   25.9840   31.0340 C   0  0  0  0  0  2  0  0  0  0  0  0
   33.9650   31.3230   36.1310 C   0  0  0  0  0  0  0  0  0  0  0  0
   34.7120   32.3980   36.5960 C   0  0  0  0  0  0  0  0  0  0  0  0
   35.8220   32.7520   35.8190 C   0  0  0  0  0  0  0  0  0  0  0  0
   36.1100   32.0550   34.6910 N   0  0  0  0  0  0  0  0  0  0  0  0
   35.3380   31.0170   34.2960 C   0  0  0  0  0  0  0  0  0  0  0  0
   34.2430   30.6180   35.0030 N   0  0  0  0  0  0  0  0  0  0  0  0
   33.0890   30.9870   36.6760 H   0  0  0  0  0  0  0  0  0  0  0  0
   36.4310   33.5840   36.1440 H   0  0  0  0  0  0  0  0  0  0  0  0
   34.3460   33.0780   37.7890 N   0  0  0  0  0  0  0  0  0  0  0  0
   34.3390   34.1160   37.6120 H   0  0  0  0  0  0  0  0  0  0  0  0
   34.1150   32.6460   38.7050 H   0  0  0  0  0  0  0  0  0  0  0  0
  1 21  1  0  0  0  0
  2  1  2  0  0  0  0
  3  4  2  0  0  0  0
  3  2  1  0  0  0  0
  4  5  1  0  0  0  0
  5  9  1  0  0  0  0
  5  6  2  0  0  0  0
  6  1  1  0  0  0  0
  7  2  1  0  0  0  0
  8  3  1  0  0  0  0
  9 10  1  0  0  0  0
 10 11  1  0  0  0  0
 12 13  1  0  0  0  0
 12 10  1  0  0  0  0
 14 12  1  0  0  0  0
 15 14  1  0  0  0  0
 16 15  1  0  0  0  0
 16  9  1  0  0  0  0
 17 18  1  0  0  0  0
 17 23  1  0  0  0  0
 18 25  1  0  0  0  0
 19 24  1  0  0  0  0
 19 18  2  0  0  0  0
 20 19  1  0  0  0  0
 21 20  2  0  0  0  0
 21 22  1  0  0  0  0
 22 17  2  0  0  0  0
 25 27  1  0  0  0  0
 26 25  1  0  0  0  0
M  END
>  <minimizedAffinity>
-4.78019762

$$$$

 OpenBabel03272506593D

 27 29  0  0  0  0  0  0  0  0999 V2000
   36.8450   25.7650   32.1980 C   0  0  0  0  0  0  0  0  0  0  0  0
   36.4110   24.6560   31.5150 C   0  0  0  0  0  0  0  0  0  0  0  0
   36.6480   23.3430   31.8710 C   0  0  0  0  0  0  0  0  0  0  0  0
   37.3780   23.1590   32.9980 N   0  0  0  0  0  0  0  0  0  0  0  0
   37.8220   24.2340   33.6950 C   0  0  0  0  0  0  0  0  0  0  0  0
   37.5640   25.5020   33.3090 N   0  0  0  0  0  0  0  0  0  0  0  0
   35.8280   24.7860   30.6140 H   0  0  0  0  0  0  0  0  0  0  0  0
   36.2780   22.5200   31.2900 H   0  0  0  0  0  0  0  0  0  0  0  0
   38.5870   24.0700   34.8770 N   0  0  0  0  0  0  0  0  0  0  0  0
   39.7900   24.8160   35.1940 C   0  0  0  0  0  3  0  0  0  0  0  0
   39.6730   25.4430   36.0910 H   0  0  0  0  0  0  0  0  0  0  0  0
   40.8280   23.7290   35.5020 C   0  0  0  0  0  3  0  0  0  0  0  0
   41.8220   24.1930   35.5560 H   0  0  0  0  0  0  0  0  0  0  0  0
   40.4710   22.9360   36.5590 O   0  0  0  0  0  0  0  0  0  0  0  0
   39.1770   23.0840   37.0160 C   0  0  0  0  0  2  0  0  0  0  0  0
   38.1650   23.0850   35.8770 C   0  0  0  0  0  2  0  0  0  0  0  0
   36.7390   28.7220   30.0880 C   0  0  0  0  0  0  0  0  0  0  0  0
   36.0150   29.6600   30.8140 C   0  0  0  0  0  0  0  0  0  0  0  0
   35.5580   29.2390   32.0700 C   0  0  0  0  0  0  0  0  0  0  0  0
   35.8310   27.9830   32.5040 N   0  0  0  0  0  0  0  0  0  0  0  0
   36.5430   27.1200   31.7430 C   0  0  0  0  0  0  0  0  0  0  0  0
   37.0190   27.4630   30.5130 N   0  0  0  0  0  0  0  0  0  0  0  0
   37.1280   28.9710   29.1070 H   0  0  0  0  0  0  0  0  0  0  0  0
   34.9900   29.9370   32.6690 H   0  0  0  0  0  0  0  0  0  0  0  0
   35.7700   30.9570   30.2890 N   0  0  0  0  0  0  0  0  0  0  0  0
   36.0130   31.6800   31.0160 H   0  0  0  0  0  0  0  0  0  0  0  0
   35.4100   31.1870   29.3430 H   0  0  0  0  0  0  0  0  0  0  0  0
  1  6  1  0  0  0  0
  2  3  1  0  0  0  0
  2  1  2  0  0  0  0
  3  4  2  0  0  0  0
  4  5  1  0  0  0  0
  5  9  1  0  0  0  0
  6  5  2  0  0  0  0
  7  2  1  0  0  0  0
  8  3  1  0  0  0  0
  9 10  1  0  0  0  0
  9 16  1  0  0  0  0
 10 12  1  0  0  0  0
 10 11  1  0  0  0  0
 12 13  1  0  0  0  0
 12 14  1  0  0  0  0
 14 15  1  0  0  0  0
 16 15  1  0  0  0  0
 17 22  2  0  0  0  0
 17 18  1  0  0  0  0
 18 19  2  0  0  0  0
 19 20  1  0  0  0  0
 19 24  1  0  0  0  0
 21  1  1  0  0  0  0
 21 20  2  0  0  0  0
 22 21  1  0  0  0  0
 23 17  1  0  0  0  0
 25 18  1  0  0  0  0
 25 26  1  0  0  0  0
 27 25  1  0  0  0  0
M  END
>  <minimizedAffinity>
-4.70462513

$$$$

 OpenBabel03272506593D

 27 29  0  0  0  0  0  0  0  0999 V2000
   41.0550   24.8200   34.9320 C   0  0  0  0  0  0  0  0  0  0  0  0
   41.9630   25.8220   34.7000 C   0  0  0  0  0  0  0  0  0  0  0  0
   41.7360   26.9630   33.9570 C   0  0  0  0  0  0  0  0  0  0  0  0
   40.4980   27.0820   33.4190 N   0  0  0  0  0  0  0  0  0  0  0  0
   39.5780   26.1090   33.6300 C   0  0  0  0  0  0  0  0  0  0  0  0
   39.8440   25.0090   34.3650 N   0  0  0  0  0  0  0  0  0  0  0  0
   42.9560   25.7430   35.1220 H   0  0  0  0  0  0  0  0  0  0  0  0
   42.4940   27.7100   33.8150 H   0  0  0  0  0  0  0  0  0  0  0  0
   38.2740   26.2080   33.0790 N   0  0  0  0  0  0  0  0  0  0  0  0
   37.5750   25.1260   32.4130 C   0  0  0  0  0  3  0  0  0  0  0  0
   36.6590   24.8250   32.9460 H   0  0  0  0  0  0  0  0  0  0  0  0
   37.1640   25.7280   31.0620 C   0  0  0  0  0  3  0  0  0  0  0  0
   36.8060   24.9210   30.4090 H   0  0  0  0  0  0  0  0  0  0  0  0
   36.3440   26.8150   31.1910 O   0  0  0  0  0  0  0  0  0  0  0  0
   36.2060   27.3210   32.4670 C   0  0  0  0  0  2  0  0  0  0  0  0
   37.5490   27.4780   33.1690 C   0  0  0  0  0  2  0  0  0  0  0  0
   40.6670   21.9930   37.1830 C   0  0  0  0  0  0  0  0  0  0  0  0
   41.9310   21.4250   37.2730 C   0  0  0  0  0  0  0  0  0  0  0  0
   42.9360   22.0530   36.5260 C   0  0  0  0  0  0  0  0  0  0  0  0
   42.6420   23.1440   35.7760 N   0  0  0  0  0  0  0  0  0  0  0  0
   41.3870   23.6450   35.7350 C   0  0  0  0  0  0  0  0  0  0  0  0
   40.3600   23.0860   36.4370 N   0  0  0  0  0  0  0  0  0  0  0  0
   39.8340   21.5670   37.7320 H   0  0  0  0  0  0  0  0  0  0  0  0
   43.9360   21.6430   36.5670 H   0  0  0  0  0  0  0  0  0  0  0  0
   42.1590   20.2790   38.0810 N   0  0  0  0  0  0  0  0  0  0  0  0
   43.0030   20.4430   38.6890 H   0  0  0  0  0  0  0  0  0  0  0  0
   41.5990   19.4050   38.0930 H   0  0  0  0  0  0  0  0  0  0  0  0
  1 21  1  0  0  0  0
  2  1  1  0  0  0  0
  2  7  1  0  0  0  0
  3  2  2  0  0  0  0
  4  5  2  0  0  0  0
  4  3  1  0  0  0  0
  5  6  1  0  0  0  0
  6  1  2  0  0  0  0
  8  3  1  0  0  0  0
  9 16  1  0  0  0  0
  9  5  1  0  0  0  0
 10 11  1  0  0  0  0
 10  9  1  0  0  0  0
 12 14  1  0  0  0  0
 12 10  1  0  0  0  0
 13 12  1  0  0  0  0
 14 15  1  0  0  0  0
 15 16  1  0  0  0  0
 17 18  1  0  0  0  0
 17 23  1  0  0  0  0
 18 25  1  0  0  0  0
 19 24  1  0  0  0  0
 19 18  2  0  0  0  0
 20 19  1  0  0  0  0
 21 20  2  0  0  0  0
 21 22  1  0  0  0  0
 22 17  2  0  0  0  0
 25 27  1  0  0  0  0
 25 26  1  0  0  0  0
M  END
>  <minimizedAffinity>
-4.70248365

$$$$
