
 OpenBabel03272510183D

 35 38  0  0  0  0  0  0  0  0999 V2000
   37.4340   29.1770   50.8180 Br  0  0  0  0  0  0  0  0  0  0  0  0
   36.0210   29.2870   49.5460 C   0  0  0  0  0  0  0  0  0  0  0  0
   36.0090   30.3040   48.5790 C   0  0  0  0  0  0  0  0  0  0  0  0
   34.9590   30.3220   47.6950 C   0  0  0  0  0  0  0  0  0  0  0  0
   33.9270   29.3940   47.7160 C   0  0  0  0  0  0  0  0  0  0  0  0
   33.9710   28.4150   48.6720 C   0  0  0  0  0  0  0  0  0  0  0  0
   35.0120   28.3760   49.5700 C   0  0  0  0  0  0  0  0  0  0  0  0
   34.9020   31.0860   46.9280 H   0  0  0  0  0  0  0  0  0  0  0  0
   33.1840   27.6700   48.7240 H   0  0  0  0  0  0  0  0  0  0  0  0
   35.0420   27.6000   50.3250 H   0  0  0  0  0  0  0  0  0  0  0  0
   32.8170   29.4140   46.7800 C   0  0  0  0  0  0  0  0  0  0  0  0
   31.8890   28.4100   46.6340 C   0  0  0  0  0  0  0  0  0  0  0  0
   30.8460   28.4720   45.7280 C   0  0  0  0  0  0  0  0  0  0  0  0
   30.7170   29.5590   44.9410 N   0  0  0  0  0  0  0  0  0  0  0  0
   31.6180   30.5370   45.0810 C   0  0  0  0  0  0  0  0  0  0  0  0
   32.6150   30.4640   45.9570 N   0  0  0  0  0  0  0  0  0  0  0  0
   31.9900   27.5250   47.2680 H   0  0  0  0  0  0  0  0  0  0  0  0
   30.1550   27.6270   45.6780 H   0  0  0  0  0  0  0  0  0  0  0  0
   31.4970   31.6900   44.2630 N   0  0  0  0  0  0  0  0  0  0  0  0
   30.4980   32.7160   44.4830 C   0  0  0  0  0  3  0  0  0  0  0  0
   31.0210   33.6310   44.8710 H   0  0  0  0  0  0  0  0  0  0  0  0
   29.7680   33.0410   43.1750 C   0  0  0  0  0  3  0  0  0  0  0  0
   29.0190   32.2560   42.9910 H   0  0  0  0  0  0  0  0  0  0  0  0
   30.6430   33.1880   42.1200 O   0  0  0  0  0  0  0  0  0  0  0  0
   31.4370   32.0790   41.9270 C   0  0  0  0  0  2  0  0  0  0  0  0
   32.3650   31.9430   43.1300 C   0  0  0  0  0  2  0  0  0  0  0  0
   38.0280   33.2000   49.4800 C   0  0  0  0  0  0  0  0  0  0  0  0
   39.0650   33.1890   48.4830 C   0  0  0  0  0  0  0  0  0  0  0  0
   39.0360   32.1890   47.5340 C   0  0  0  0  0  0  0  0  0  0  0  0
   38.0340   31.2540   47.5770 N   0  0  0  0  0  0  0  0  0  0  0  0
   37.0670   31.2860   48.5280 C   0  0  0  0  0  0  0  0  0  0  0  0
   37.0810   32.2630   49.4690 N   0  0  0  0  0  0  0  0  0  0  0  0
   38.0060   33.9620   50.2460 H   0  0  0  0  0  0  0  0  0  0  0  0
   39.8230   33.9610   48.5130 H   0  0  0  0  0  0  0  0  0  0  0  0
   39.8000   32.1460   46.7650 H   0  0  0  0  0  0  0  0  0  0  0  0
  2  7  1  0  0  0  0
  2  1  1  0  0  0  0
  3  2  2  0  0  0  0
  4  5  2  0  0  0  0
  4  3  1  0  0  0  0
  5  6  1  0  0  0  0
  6  9  1  0  0  0  0
  6  7  2  0  0  0  0
  7 10  1  0  0  0  0
  8  4  1  0  0  0  0
 11  5  1  0  0  0  0
 12 11  1  0  0  0  0
 12 17  1  0  0  0  0
 13 12  2  0  0  0  0
 14 15  2  0  0  0  0
 14 13  1  0  0  0  0
 15 16  1  0  0  0  0
 16 11  2  0  0  0  0
 18 13  1  0  0  0  0
 19 20  1  0  0  0  0
 19 15  1  0  0  0  0
 20 21  1  0  0  0  0
 22 20  1  0  0  0  0
 23 22  1  0  0  0  0
 24 22  1  0  0  0  0
 25 24  1  0  0  0  0
 25 26  1  0  0  0  0
 26 19  1  0  0  0  0
 27 33  1  0  0  0  0
 28 34  1  0  0  0  0
 28 27  2  0  0  0  0
 29 30  2  0  0  0  0
 29 28  1  0  0  0  0
 30 31  1  0  0  0  0
 31  3  1  0  0  0  0
 31 32  2  0  0  0  0
 32 27  1  0  0  0  0
 35 29  1  0  0  0  0
M  END
>  <minimizedAffinity>
-6.59682512

>  <minimizedRMSD>
0.458649725

$$$$
