
 OpenBabel03262522123D

 29 31  0  0  1  0  0  0  0  0999 V2000
   38.0110   25.0840   35.6450 C   0  0  0  0  0  0  0  0  0  0  0  0
   38.4380   26.2380   36.2850 C   0  0  0  0  0  0  0  0  0  0  0  0
   38.3410   27.4560   35.6310 C   0  0  0  0  0  0  0  0  0  0  0  0
   37.8100   27.4160   34.3580 C   0  0  0  0  0  0  0  0  0  0  0  0
   37.3890   26.2680   33.7310 C   0  0  0  0  0  0  0  0  0  0  0  0
   37.4910   25.0810   34.3880 N   0  0  0  0  0  0  0  0  0  0  0  0
   38.8470   26.1910   37.2920 H   0  0  0  0  0  0  0  0  0  0  0  0
   38.6690   28.3660   36.1140 H   0  0  0  0  0  0  0  0  0  0  0  0
   37.7300   28.3640   33.8360 H   0  0  0  0  0  0  0  0  0  0  0  0
   38.1470   23.8420   36.3960 C   0  0  0  0  0  0  0  0  0  0  0  0
   37.2180   23.4100   37.0830 O   0  0  0  0  0  0  0  0  0  0  0  0
   39.9670   22.6490   37.5740 C   0  0  0  0  0  0  0  0  0  0  0  0
   39.3810   23.0510   36.3730 C   0  0  0  0  0  0  0  0  0  0  0  0
   40.0080   22.6740   35.1870 C   0  0  0  0  0  0  0  0  0  0  0  0
   41.1540   21.9390   35.2200 N   0  0  0  0  0  0  0  0  0  0  0  0
   41.6850   21.5710   36.4350 C   0  0  0  0  0  0  0  0  0  0  0  0
   41.1110   21.9160   37.5640 N   0  0  0  0  0  0  0  0  0  0  0  0
   39.4930   22.9340   38.4980 H   0  0  0  0  0  0  0  0  0  0  0  0
   39.5360   22.9950   34.2700 H   0  0  0  0  0  0  0  0  0  0  0  0
   42.5970   20.9860   36.3790 H   0  0  0  0  0  0  0  0  0  0  0  0
   36.7120   26.2320   32.0870 S   0  0  0  0  0  0  0  0  0  0  0  0
   37.1540   26.8300   29.3590 H   0  0  0  0  0  0  0  0  0  0  0  0
   36.6610   27.6530   29.7720 N   0  0  0  0  0  0  0  0  0  0  0  0
   36.8730   27.7800   31.2040 C   0  0  1  0  0  3  0  0  0  0  0  0
   35.9360   28.8530   31.6990 C   0  0  0  0  0  3  0  0  0  0  0  0
   34.9730   28.4580   32.0420 H   0  0  0  0  0  0  0  0  0  0  0  0
   35.6730   29.8030   30.7020 O   0  0  0  0  0  0  0  0  0  0  0  0
   36.8920   30.0690   30.0500 C   0  0  0  0  0  2  0  0  0  0  0  0
   37.2470   28.8650   29.1900 C   0  0  0  0  0  2  0  0  0  0  0  0
  1  2  1  0  0  0  0
  1 10  1  0  0  0  0
  2  7  1  0  0  0  0
  3  8  1  0  0  0  0
  3  2  2  0  0  0  0
  4  3  1  0  0  0  0
  5  4  2  0  0  0  0
  5  6  1  0  0  0  0
  6  1  2  0  0  0  0
  9  4  1  0  0  0  0
 10 11  2  0  0  0  0
 12 18  1  0  0  0  0
 13 10  1  0  0  0  0
 13 12  2  0  0  0  0
 14 15  2  0  0  0  0
 14 13  1  0  0  0  0
 15 16  1  0  0  0  0
 16 17  2  0  0  0  0
 17 12  1  0  0  0  0
 19 14  1  0  0  0  0
 20 16  1  0  0  0  0
 21  5  1  0  0  0  0
 22 23  1  0  0  0  0
 23 24  1  0  0  0  0
 24 25  1  0  0  0  0
 24 21  1  1  0  0  0
 25 26  1  0  0  0  0
 27 25  1  0  0  0  0
 28 27  1  0  0  0  0
 29 23  1  0  0  0  0
 29 28  1  0  0  0  0
M  END
>  <minimizedAffinity>
-5.3832159

$$$$

 OpenBabel03262522123D

 29 31  0  0  1  0  0  0  0  0999 V2000
   36.9380   24.8880   31.8890 C   0  0  0  0  0  0  0  0  0  0  0  0
   35.8820   24.3280   31.1860 C   0  0  0  0  0  0  0  0  0  0  0  0
   35.5940   22.9820   31.3460 C   0  0  0  0  0  0  0  0  0  0  0  0
   36.4080   22.2900   32.2180 C   0  0  0  0  0  0  0  0  0  0  0  0
   37.4530   22.8530   32.9120 C   0  0  0  0  0  0  0  0  0  0  0  0
   37.7220   24.1770   32.7440 N   0  0  0  0  0  0  0  0  0  0  0  0
   35.2830   24.9380   30.5130 H   0  0  0  0  0  0  0  0  0  0  0  0
   34.7750   22.5290   30.8050 H   0  0  0  0  0  0  0  0  0  0  0  0
   36.1920   21.2360   32.3510 H   0  0  0  0  0  0  0  0  0  0  0  0
   37.1810   26.3090   31.6680 C   0  0  0  0  0  0  0  0  0  0  0  0
   37.9400   26.6920   30.7750 O   0  0  0  0  0  0  0  0  0  0  0  0
   36.9630   27.5420   33.8020 C   0  0  0  0  0  0  0  0  0  0  0  0
   36.5410   27.3430   32.4870 C   0  0  0  0  0  0  0  0  0  0  0  0
   35.5140   28.1510   32.0050 C   0  0  0  0  0  0  0  0  0  0  0  0
   34.9530   29.0990   32.8070 N   0  0  0  0  0  0  0  0  0  0  0  0
   35.4110   29.2490   34.0960 C   0  0  0  0  0  0  0  0  0  0  0  0
   36.3780   28.4980   34.5690 N   0  0  0  0  0  0  0  0  0  0  0  0
   37.7560   26.9240   34.1860 H   0  0  0  0  0  0  0  0  0  0  0  0
   35.2050   27.9800   30.9850 H   0  0  0  0  0  0  0  0  0  0  0  0
   34.9160   30.0240   34.6720 H   0  0  0  0  0  0  0  0  0  0  0  0
   38.4970   21.9470   34.0300 S   0  0  0  0  0  0  0  0  0  0  0  0
   36.6290   22.1240   36.1460 H   0  0  0  0  0  0  0  0  0  0  0  0
   37.5790   22.1630   36.5790 N   0  0  0  0  0  0  0  0  0  0  0  0
   38.5960   22.6610   35.6680 C   0  0  1  0  0  3  0  0  0  0  0  0
   39.9330   22.4490   36.3350 C   0  0  0  0  0  3  0  0  0  0  0  0
   40.3970   21.4920   36.0690 H   0  0  0  0  0  0  0  0  0  0  0  0
   39.8210   22.4940   37.7310 O   0  0  0  0  0  0  0  0  0  0  0  0
   38.9510   23.5550   38.0450 C   0  0  0  0  0  2  0  0  0  0  0  0
   37.5360   23.1380   37.6730 C   0  0  0  0  0  2  0  0  0  0  0  0
  1  6  1  0  0  0  0
  2  3  1  0  0  0  0
  2  1  2  0  0  0  0
  3  4  2  0  0  0  0
  4  9  1  0  0  0  0
  4  5  1  0  0  0  0
  5 21  1  0  0  0  0
  6  5  2  0  0  0  0
  7  2  1  0  0  0  0
  8  3  1  0  0  0  0
 10  1  1  0  0  0  0
 10 13  1  0  0  0  0
 11 10  2  0  0  0  0
 12 18  1  0  0  0  0
 12 17  1  0  0  0  0
 13 12  2  0  0  0  0
 14 13  1  0  0  0  0
 14 15  2  0  0  0  0
 15 16  1  0  0  0  0
 16 17  2  0  0  0  0
 16 20  1  0  0  0  0
 19 14  1  0  0  0  0
 22 23  1  0  0  0  0
 23 29  1  0  0  0  0
 24 21  1  6  0  0  0
 24 25  1  0  0  0  0
 24 23  1  0  0  0  0
 25 27  1  0  0  0  0
 26 25  1  0  0  0  0
 27 28  1  0  0  0  0
 29 28  1  0  0  0  0
M  END
>  <minimizedAffinity>
-5.16995811

$$$$

 OpenBabel03262522123D

 29 31  0  0  1  0  0  0  0  0999 V2000
   36.8470   25.2130   31.9950 C   0  0  0  0  0  0  0  0  0  0  0  0
   35.8290   24.6830   31.2160 C   0  0  0  0  0  0  0  0  0  0  0  0
   35.5900   23.3180   31.2430 C   0  0  0  0  0  0  0  0  0  0  0  0
   36.4110   22.5780   32.0680 C   0  0  0  0  0  0  0  0  0  0  0  0
   37.4170   23.1110   32.8380 C   0  0  0  0  0  0  0  0  0  0  0  0
   37.6380   24.4530   32.8000 N   0  0  0  0  0  0  0  0  0  0  0  0
   35.2220   25.3310   30.5880 H   0  0  0  0  0  0  0  0  0  0  0  0
   34.8010   22.8880   30.6420 H   0  0  0  0  0  0  0  0  0  0  0  0
   36.2330   21.5080   32.0970 H   0  0  0  0  0  0  0  0  0  0  0  0
   37.0400   26.6560   31.9120 C   0  0  0  0  0  0  0  0  0  0  0  0
   36.7750   27.3880   32.8690 O   0  0  0  0  0  0  0  0  0  0  0  0
   38.7690   26.8900   30.1590 C   0  0  0  0  0  0  0  0  0  0  0  0
   37.5520   27.3030   30.7010 C   0  0  0  0  0  0  0  0  0  0  0  0
   36.8680   28.3290   30.0530 C   0  0  0  0  0  0  0  0  0  0  0  0
   37.3870   28.8980   28.9290 N   0  0  0  0  0  0  0  0  0  0  0  0
   38.5920   28.4480   28.4410 C   0  0  0  0  0  0  0  0  0  0  0  0
   39.2530   27.4830   29.0360 N   0  0  0  0  0  0  0  0  0  0  0  0
   39.3080   26.0980   30.6500 H   0  0  0  0  0  0  0  0  0  0  0  0
   35.9270   28.6310   30.4900 H   0  0  0  0  0  0  0  0  0  0  0  0
   38.9390   28.9480   27.5430 H   0  0  0  0  0  0  0  0  0  0  0  0
   38.4700   22.1430   33.8940 S   0  0  0  0  0  0  0  0  0  0  0  0
   36.6030   22.2060   36.0170 H   0  0  0  0  0  0  0  0  0  0  0  0
   37.5540   22.2110   36.4510 N   0  0  0  0  0  0  0  0  0  0  0  0
   38.5740   22.7560   35.5720 C   0  0  1  0  0  3  0  0  0  0  0  0
   39.9090   22.4940   36.2240 C   0  0  0  0  0  3  0  0  0  0  0  0
   40.3670   21.5510   35.9020 H   0  0  0  0  0  0  0  0  0  0  0  0
   39.7970   22.4550   37.6210 O   0  0  0  0  0  0  0  0  0  0  0  0
   38.9350   23.5020   37.9980 C   0  0  0  0  0  2  0  0  0  0  0  0
   37.5170   23.1180   37.6020 C   0  0  0  0  0  2  0  0  0  0  0  0
  1  6  1  0  0  0  0
  2  3  1  0  0  0  0
  2  1  2  0  0  0  0
  3  4  2  0  0  0  0
  4  9  1  0  0  0  0
  4  5  1  0  0  0  0
  5 21  1  0  0  0  0
  6  5  2  0  0  0  0
  7  2  1  0  0  0  0
  8  3  1  0  0  0  0
 10  1  1  0  0  0  0
 10 11  2  0  0  0  0
 12 18  1  0  0  0  0
 12 13  1  0  0  0  0
 13 10  1  0  0  0  0
 14 19  1  0  0  0  0
 14 13  2  0  0  0  0
 15 14  1  0  0  0  0
 16 15  2  0  0  0  0
 16 17  1  0  0  0  0
 17 12  2  0  0  0  0
 20 16  1  0  0  0  0
 22 23  1  0  0  0  0
 23 29  1  0  0  0  0
 24 21  1  6  0  0  0
 24 25  1  0  0  0  0
 24 23  1  0  0  0  0
 25 27  1  0  0  0  0
 26 25  1  0  0  0  0
 27 28  1  0  0  0  0
 29 28  1  0  0  0  0
M  END
>  <minimizedAffinity>
-5.02805996

$$$$

 OpenBabel03262522123D

 29 31  0  0  1  0  0  0  0  0999 V2000
   37.6820   22.2050   33.4580 C   0  0  0  0  0  0  0  0  0  0  0  0
   36.8320   21.1090   33.4830 C   0  0  0  0  0  0  0  0  0  0  0  0
   35.6800   21.1220   32.7130 C   0  0  0  0  0  0  0  0  0  0  0  0
   35.4680   22.2610   31.9630 C   0  0  0  0  0  0  0  0  0  0  0  0
   36.3160   23.3420   31.9440 C   0  0  0  0  0  0  0  0  0  0  0  0
   37.4440   23.3130   32.7050 N   0  0  0  0  0  0  0  0  0  0  0  0
   37.0660   20.2450   34.1010 H   0  0  0  0  0  0  0  0  0  0  0  0
   35.0060   20.2770   32.7210 H   0  0  0  0  0  0  0  0  0  0  0  0
   34.5690   22.2820   31.3570 H   0  0  0  0  0  0  0  0  0  0  0  0
   38.8730   22.1180   34.2950 C   0  0  0  0  0  0  0  0  0  0  0  0
   39.9360   21.6840   33.8440 O   0  0  0  0  0  0  0  0  0  0  0  0
   39.9800   22.2820   36.5020 C   0  0  0  0  0  0  0  0  0  0  0  0
   38.8670   22.5380   35.6990 C   0  0  0  0  0  0  0  0  0  0  0  0
   37.7850   23.1930   36.2810 C   0  0  0  0  0  0  0  0  0  0  0  0
   37.8290   23.5630   37.5910 N   0  0  0  0  0  0  0  0  0  0  0  0
   38.9540   23.2830   38.3330 C   0  0  0  0  0  0  0  0  0  0  0  0
   39.9850   22.6670   37.8040 N   0  0  0  0  0  0  0  0  0  0  0  0
   40.8230   21.7760   36.0640 H   0  0  0  0  0  0  0  0  0  0  0  0
   36.9360   23.3820   35.6410 H   0  0  0  0  0  0  0  0  0  0  0  0
   38.9150   23.6100   39.3670 H   0  0  0  0  0  0  0  0  0  0  0  0
   36.0270   24.8050   30.9740 S   0  0  0  0  0  0  0  0  0  0  0  0
   37.3020   25.4650   33.4110 H   0  0  0  0  0  0  0  0  0  0  0  0
   37.2150   26.3520   32.8660 N   0  0  0  0  0  0  0  0  0  0  0  0
   36.1190   26.3250   31.9130 C   0  0  1  0  0  3  0  0  0  0  0  0
   36.2500   27.5560   31.0500 C   0  0  0  0  0  3  0  0  0  0  0  0
   36.8320   27.3800   30.1370 H   0  0  0  0  0  0  0  0  0  0  0  0
   36.8630   28.6070   31.7460 O   0  0  0  0  0  0  0  0  0  0  0  0
   36.3190   28.6180   33.0440 C   0  0  0  0  0  2  0  0  0  0  0  0
   36.8780   27.4260   33.8060 C   0  0  0  0  0  2  0  0  0  0  0  0
  1  2  1  0  0  0  0
  1 10  1  0  0  0  0
  2  7  1  0  0  0  0
  3  8  1  0  0  0  0
  3  2  2  0  0  0  0
  4  3  1  0  0  0  0
  5  4  2  0  0  0  0
  5  6  1  0  0  0  0
  6  1  2  0  0  0  0
  9  4  1  0  0  0  0
 10 13  1  0  0  0  0
 11 10  2  0  0  0  0
 12 17  1  0  0  0  0
 13 14  1  0  0  0  0
 13 12  2  0  0  0  0
 14 15  2  0  0  0  0
 15 16  1  0  0  0  0
 16 20  1  0  0  0  0
 17 16  2  0  0  0  0
 18 12  1  0  0  0  0
 19 14  1  0  0  0  0
 21  5  1  0  0  0  0
 23 22  1  0  0  0  0
 23 29  1  0  0  0  0
 24 21  1  6  0  0  0
 24 23  1  0  0  0  0
 25 27  1  0  0  0  0
 25 24  1  0  0  0  0
 26 25  1  0  0  0  0
 27 28  1  0  0  0  0
 28 29  1  0  0  0  0
M  END
>  <minimizedAffinity>
-5.00452566

$$$$

 OpenBabel03262522123D

 29 31  0  0  1  0  0  0  0  0999 V2000
   37.4810   26.0880   33.8800 C   0  0  0  0  0  0  0  0  0  0  0  0
   37.7340   27.3540   34.3860 C   0  0  0  0  0  0  0  0  0  0  0  0
   38.2220   27.4870   35.6760 C   0  0  0  0  0  0  0  0  0  0  0  0
   38.4220   26.3110   36.3700 C   0  0  0  0  0  0  0  0  0  0  0  0
   38.1690   25.0600   35.8600 C   0  0  0  0  0  0  0  0  0  0  0  0
   37.6910   24.9470   34.5910 N   0  0  0  0  0  0  0  0  0  0  0  0
   37.5510   28.2370   33.7780 H   0  0  0  0  0  0  0  0  0  0  0  0
   38.4240   28.4660   36.0880 H   0  0  0  0  0  0  0  0  0  0  0  0
   38.8030   26.4030   37.3810 H   0  0  0  0  0  0  0  0  0  0  0  0
   36.9680   26.0280   32.5160 C   0  0  0  0  0  0  0  0  0  0  0  0
   36.3490   25.0400   32.1130 O   0  0  0  0  0  0  0  0  0  0  0  0
   36.1160   28.0230   31.3260 C   0  0  0  0  0  0  0  0  0  0  0  0
   37.1590   27.1270   31.5650 C   0  0  0  0  0  0  0  0  0  0  0  0
   38.3540   27.3240   30.8770 C   0  0  0  0  0  0  0  0  0  0  0  0
   38.4810   28.3620   30.0050 N   0  0  0  0  0  0  0  0  0  0  0  0
   37.4170   29.2130   29.8100 C   0  0  0  0  0  0  0  0  0  0  0  0
   36.2830   29.0450   30.4480 N   0  0  0  0  0  0  0  0  0  0  0  0
   35.1870   27.8820   31.8510 H   0  0  0  0  0  0  0  0  0  0  0  0
   39.1470   26.6190   31.0800 H   0  0  0  0  0  0  0  0  0  0  0  0
   37.5950   30.0150   29.1010 H   0  0  0  0  0  0  0  0  0  0  0  0
   38.4280   23.5530   36.7690 S   0  0  0  0  0  0  0  0  0  0  0  0
   39.6750   21.2600   37.8560 H   0  0  0  0  0  0  0  0  0  0  0  0
   40.2770   21.5850   37.0660 N   0  0  0  0  0  0  0  0  0  0  0  0
   40.1300   23.0030   36.7900 C   0  0  1  0  0  3  0  0  0  0  0  0
   40.8660   23.2830   35.5030 C   0  0  0  0  0  3  0  0  0  0  0  0
   40.2250   23.2110   34.6170 H   0  0  0  0  0  0  0  0  0  0  0  0
   41.9380   22.3980   35.3230 O   0  0  0  0  0  0  0  0  0  0  0  0
   42.5730   22.2550   36.5710 C   0  0  0  0  0  2  0  0  0  0  0  0
   41.6770   21.4160   37.4690 C   0  0  0  0  0  2  0  0  0  0  0  0
  1  2  2  0  0  0  0
  1  6  1  0  0  0  0
  2  3  1  0  0  0  0
  3  8  1  0  0  0  0
  3  4  2  0  0  0  0
  4  9  1  0  0  0  0
  5  4  1  0  0  0  0
  5 21  1  0  0  0  0
  6  5  2  0  0  0  0
  7  2  1  0  0  0  0
 10  1  1  0  0  0  0
 11 10  2  0  0  0  0
 12 13  1  0  0  0  0
 12 18  1  0  0  0  0
 13 10  1  0  0  0  0
 14 19  1  0  0  0  0
 14 13  2  0  0  0  0
 15 14  1  0  0  0  0
 16 15  2  0  0  0  0
 16 17  1  0  0  0  0
 17 12  2  0  0  0  0
 20 16  1  0  0  0  0
 23 29  1  0  0  0  0
 23 22  1  0  0  0  0
 24 21  1  6  0  0  0
 24 23  1  0  0  0  0
 25 24  1  0  0  0  0
 26 25  1  0  0  0  0
 27 25  1  0  0  0  0
 27 28  1  0  0  0  0
 28 29  1  0  0  0  0
M  END
>  <minimizedAffinity>
-5.00132465

$$$$

 OpenBabel03262522123D

 29 31  0  0  1  0  0  0  0  0999 V2000
   38.1820   25.1880   35.5260 C   0  0  0  0  0  0  0  0  0  0  0  0
   38.2400   26.4540   36.0910 C   0  0  0  0  0  0  0  0  0  0  0  0
   38.0050   27.5650   35.2980 C   0  0  0  0  0  0  0  0  0  0  0  0
   37.7230   27.3120   33.9710 C   0  0  0  0  0  0  0  0  0  0  0  0
   37.6660   26.0540   33.4200 C   0  0  0  0  0  0  0  0  0  0  0  0
   37.8990   24.9730   34.2130 N   0  0  0  0  0  0  0  0  0  0  0  0
   38.4700   26.5760   37.1470 H   0  0  0  0  0  0  0  0  0  0  0  0
   38.0470   28.5590   35.7210 H   0  0  0  0  0  0  0  0  0  0  0  0
   37.5370   28.1750   33.3410 H   0  0  0  0  0  0  0  0  0  0  0  0
   38.4430   24.0680   36.4230 C   0  0  0  0  0  0  0  0  0  0  0  0
   37.5630   23.6340   37.1700 O   0  0  0  0  0  0  0  0  0  0  0  0
   39.9790   22.4090   37.4280 C   0  0  0  0  0  0  0  0  0  0  0  0
   39.7500   23.4080   36.4810 C   0  0  0  0  0  0  0  0  0  0  0  0
   40.7940   23.7370   35.6190 C   0  0  0  0  0  0  0  0  0  0  0  0
   41.9910   23.0930   35.7140 N   0  0  0  0  0  0  0  0  0  0  0  0
   42.1580   22.1160   36.6690 C   0  0  0  0  0  0  0  0  0  0  0  0
   41.1870   21.7920   37.4900 N   0  0  0  0  0  0  0  0  0  0  0  0
   39.1800   22.1460   38.1010 H   0  0  0  0  0  0  0  0  0  0  0  0
   40.5940   24.5110   34.8930 H   0  0  0  0  0  0  0  0  0  0  0  0
   43.1370   21.6490   36.6810 H   0  0  0  0  0  0  0  0  0  0  0  0
   37.3050   25.7430   31.7070 S   0  0  0  0  0  0  0  0  0  0  0  0
   38.7850   23.3450   31.9480 H   0  0  0  0  0  0  0  0  0  0  0  0
   37.7750   23.0840   32.0120 N   0  0  0  0  0  0  0  0  0  0  0  0
   36.9010   24.0370   31.3500 C   0  0  1  0  0  3  0  0  0  0  0  0
   35.4840   23.6670   31.7130 C   0  0  0  0  0  3  0  0  0  0  0  0
   35.1170   24.1970   32.6000 H   0  0  0  0  0  0  0  0  0  0  0  0
   35.3600   22.2930   31.9580 O   0  0  0  0  0  0  0  0  0  0  0  0
   36.1140   21.6260   30.9730 C   0  0  0  0  0  2  0  0  0  0  0  0
   37.5890   21.8240   31.2860 C   0  0  0  0  0  2  0  0  0  0  0  0
  1  2  1  0  0  0  0
  1 10  1  0  0  0  0
  2  7  1  0  0  0  0
  3  8  1  0  0  0  0
  3  2  2  0  0  0  0
  4  3  1  0  0  0  0
  5  4  2  0  0  0  0
  5  6  1  0  0  0  0
  6  1  2  0  0  0  0
  9  4  1  0  0  0  0
 10 13  1  0  0  0  0
 10 11  2  0  0  0  0
 12 17  1  0  0  0  0
 12 18  1  0  0  0  0
 13 12  2  0  0  0  0
 14 15  2  0  0  0  0
 14 13  1  0  0  0  0
 15 16  1  0  0  0  0
 16 20  1  0  0  0  0
 16 17  2  0  0  0  0
 19 14  1  0  0  0  0
 21  5  1  0  0  0  0
 22 23  1  0  0  0  0
 24 21  1  1  0  0  0
 24 25  1  0  0  0  0
 24 23  1  0  0  0  0
 25 27  1  0  0  0  0
 25 26  1  0  0  0  0
 28 29  1  0  0  0  0
 28 27  1  0  0  0  0
 29 23  1  0  0  0  0
M  END
>  <minimizedAffinity>
-4.92131281

$$$$

 OpenBabel03262522123D

 29 31  0  0  1  0  0  0  0  0999 V2000
   38.1140   24.2100   33.4020 C   0  0  0  0  0  0  0  0  0  0  0  0
   37.6320   22.9290   33.1750 C   0  0  0  0  0  0  0  0  0  0  0  0
   36.6030   22.7400   32.2650 C   0  0  0  0  0  0  0  0  0  0  0  0
   36.1300   23.8760   31.6430 C   0  0  0  0  0  0  0  0  0  0  0  0
   36.6140   25.1420   31.8730 C   0  0  0  0  0  0  0  0  0  0  0  0
   37.6250   25.3110   32.7690 N   0  0  0  0  0  0  0  0  0  0  0  0
   38.0560   22.0790   33.7050 H   0  0  0  0  0  0  0  0  0  0  0  0
   36.2150   21.7480   32.0770 H   0  0  0  0  0  0  0  0  0  0  0  0
   35.3250   23.7390   30.9290 H   0  0  0  0  0  0  0  0  0  0  0  0
   39.1940   24.3310   34.3730 C   0  0  0  0  0  0  0  0  0  0  0  0
   40.3130   24.7240   34.0330 O   0  0  0  0  0  0  0  0  0  0  0  0
   37.9370   24.5430   36.4930 C   0  0  0  0  0  0  0  0  0  0  0  0
   39.0090   23.9950   35.7870 C   0  0  0  0  0  0  0  0  0  0  0  0
   39.8660   23.1370   36.4730 C   0  0  0  0  0  0  0  0  0  0  0  0
   39.6490   22.8560   37.7880 N   0  0  0  0  0  0  0  0  0  0  0  0
   38.5750   23.4270   38.4310 C   0  0  0  0  0  0  0  0  0  0  0  0
   37.7550   24.2370   37.8040 N   0  0  0  0  0  0  0  0  0  0  0  0
   37.2660   25.2070   35.9750 H   0  0  0  0  0  0  0  0  0  0  0  0
   40.6880   22.7240   35.9060 H   0  0  0  0  0  0  0  0  0  0  0  0
   38.4680   23.1540   39.4760 H   0  0  0  0  0  0  0  0  0  0  0  0
   35.9910   26.5990   31.0660 S   0  0  0  0  0  0  0  0  0  0  0  0
   36.7290   27.0740   33.7540 H   0  0  0  0  0  0  0  0  0  0  0  0
   36.5860   28.0100   33.3100 N   0  0  0  0  0  0  0  0  0  0  0  0
   35.6770   27.9650   32.1770 C   0  0  1  0  0  3  0  0  0  0  0  0
   35.7410   29.3130   31.5030 C   0  0  0  0  0  3  0  0  0  0  0  0
   36.4830   29.3550   30.6970 H   0  0  0  0  0  0  0  0  0  0  0  0
   36.0510   30.3290   32.4180 O   0  0  0  0  0  0  0  0  0  0  0  0
   35.3100   30.0740   33.5880 C   0  0  0  0  0  2  0  0  0  0  0  0
   35.9290   28.8770   34.2930 C   0  0  0  0  0  2  0  0  0  0  0  0
  1 10  1  0  0  0  0
  2  1  1  0  0  0  0
  2  7  1  0  0  0  0
  3  2  2  0  0  0  0
  4  5  2  0  0  0  0
  4  3  1  0  0  0  0
  5  6  1  0  0  0  0
  6  1  2  0  0  0  0
  8  3  1  0  0  0  0
  9  4  1  0  0  0  0
 10 13  1  0  0  0  0
 11 10  2  0  0  0  0
 12 17  1  0  0  0  0
 13 14  1  0  0  0  0
 13 12  2  0  0  0  0
 14 15  2  0  0  0  0
 15 16  1  0  0  0  0
 16 20  1  0  0  0  0
 17 16  2  0  0  0  0
 18 12  1  0  0  0  0
 19 14  1  0  0  0  0
 21  5  1  0  0  0  0
 23 22  1  0  0  0  0
 23 29  1  0  0  0  0
 24 21  1  6  0  0  0
 24 23  1  0  0  0  0
 25 24  1  0  0  0  0
 25 27  1  0  0  0  0
 26 25  1  0  0  0  0
 27 28  1  0  0  0  0
 28 29  1  0  0  0  0
M  END
>  <minimizedAffinity>
-4.85657978

$$$$

 OpenBabel03262522123D

 29 31  0  0  1  0  0  0  0  0999 V2000
   35.6550   29.2360   33.6350 C   0  0  0  0  0  0  0  0  0  0  0  0
   35.5710   28.6910   32.3620 C   0  0  0  0  0  0  0  0  0  0  0  0
   36.2720   27.5310   32.0710 C   0  0  0  0  0  0  0  0  0  0  0  0
   37.0170   27.0000   33.1030 C   0  0  0  0  0  0  0  0  0  0  0  0
   37.0940   27.5470   34.3620 C   0  0  0  0  0  0  0  0  0  0  0  0
   36.3990   28.6860   34.6320 N   0  0  0  0  0  0  0  0  0  0  0  0
   34.9620   29.1670   31.5980 H   0  0  0  0  0  0  0  0  0  0  0  0
   36.2190   27.0930   31.0840 H   0  0  0  0  0  0  0  0  0  0  0  0
   37.5700   26.0930   32.8860 H   0  0  0  0  0  0  0  0  0  0  0  0
   34.8920   30.4570   33.8660 C   0  0  0  0  0  0  0  0  0  0  0  0
   34.8950   31.3740   33.0410 O   0  0  0  0  0  0  0  0  0  0  0  0
   34.5150   31.5640   36.0460 C   0  0  0  0  0  0  0  0  0  0  0  0
   34.0900   30.6540   35.0770 C   0  0  0  0  0  0  0  0  0  0  0  0
   32.9030   29.9650   35.3110 C   0  0  0  0  0  0  0  0  0  0  0  0
   32.1940   30.1850   36.4540 N   0  0  0  0  0  0  0  0  0  0  0  0
   32.6630   31.0950   37.3730 C   0  0  0  0  0  0  0  0  0  0  0  0
   33.7800   31.7550   37.1720 N   0  0  0  0  0  0  0  0  0  0  0  0
   35.4310   32.1040   35.8780 H   0  0  0  0  0  0  0  0  0  0  0  0
   32.5930   29.2670   34.5470 H   0  0  0  0  0  0  0  0  0  0  0  0
   32.0440   31.2160   38.2560 H   0  0  0  0  0  0  0  0  0  0  0  0
   38.0630   26.8530   35.6820 S   0  0  0  0  0  0  0  0  0  0  0  0
   39.3160   24.8780   34.0920 H   0  0  0  0  0  0  0  0  0  0  0  0
   39.1400   24.4460   35.0280 N   0  0  0  0  0  0  0  0  0  0  0  0
   38.0350   25.0650   35.7380 C   0  0  1  0  0  3  0  0  0  0  0  0
   38.0410   24.5090   37.1410 C   0  0  0  0  0  3  0  0  0  0  0  0
   38.6200   25.1220   37.8420 H   0  0  0  0  0  0  0  0  0  0  0  0
   38.5690   23.2110   37.1750 O   0  0  0  0  0  0  0  0  0  0  0  0
   38.0490   22.5220   36.0630 C   0  0  0  0  0  2  0  0  0  0  0  0
   38.7260   23.0570   34.8100 C   0  0  0  0  0  2  0  0  0  0  0  0
  1 10  1  0  0  0  0
  1  6  1  0  0  0  0
  2  1  2  0  0  0  0
  3  2  1  0  0  0  0
  3  4  2  0  0  0  0
  4  5  1  0  0  0  0
  5  6  2  0  0  0  0
  5 21  1  0  0  0  0
  7  2  1  0  0  0  0
  8  3  1  0  0  0  0
  9  4  1  0  0  0  0
 10 13  1  0  0  0  0
 11 10  2  0  0  0  0
 12 17  1  0  0  0  0
 13 14  1  0  0  0  0
 13 12  2  0  0  0  0
 14 15  2  0  0  0  0
 15 16  1  0  0  0  0
 16 20  1  0  0  0  0
 17 16  2  0  0  0  0
 18 12  1  0  0  0  0
 19 14  1  0  0  0  0
 22 23  1  0  0  0  0
 23 24  1  0  0  0  0
 24 21  1  1  0  0  0
 24 25  1  0  0  0  0
 25 27  1  0  0  0  0
 25 26  1  0  0  0  0
 28 27  1  0  0  0  0
 29 23  1  0  0  0  0
 29 28  1  0  0  0  0
M  END
>  <minimizedAffinity>
-4.83184958

$$$$

 OpenBabel03262522123D

 29 31  0  0  1  0  0  0  0  0999 V2000
   37.4000   26.5590   33.8840 C   0  0  0  0  0  0  0  0  0  0  0  0
   36.9660   27.8140   33.4830 C   0  0  0  0  0  0  0  0  0  0  0  0
   36.2320   27.9410   32.3150 C   0  0  0  0  0  0  0  0  0  0  0  0
   35.9870   26.7710   31.6260 C   0  0  0  0  0  0  0  0  0  0  0  0
   36.4200   25.5310   32.0310 C   0  0  0  0  0  0  0  0  0  0  0  0
   37.1390   25.4240   33.1810 N   0  0  0  0  0  0  0  0  0  0  0  0
   37.2000   28.6940   34.0790 H   0  0  0  0  0  0  0  0  0  0  0  0
   35.8870   28.9120   31.9870 H   0  0  0  0  0  0  0  0  0  0  0  0
   35.4130   26.8580   30.7100 H   0  0  0  0  0  0  0  0  0  0  0  0
   38.1680   26.5060   35.1220 C   0  0  0  0  0  0  0  0  0  0  0  0
   38.4910   27.5380   35.7150 O   0  0  0  0  0  0  0  0  0  0  0  0
   39.8150   24.6720   35.3490 C   0  0  0  0  0  0  0  0  0  0  0  0
   38.5920   25.2360   35.7180 C   0  0  0  0  0  0  0  0  0  0  0  0
   37.8190   24.5520   36.6540 C   0  0  0  0  0  0  0  0  0  0  0  0
   38.2590   23.3740   37.1790 N   0  0  0  0  0  0  0  0  0  0  0  0
   39.4740   22.8680   36.7760 C   0  0  0  0  0  0  0  0  0  0  0  0
   40.2170   23.4960   35.8960 N   0  0  0  0  0  0  0  0  0  0  0  0
   40.4220   25.1910   34.6270 H   0  0  0  0  0  0  0  0  0  0  0  0
   36.8780   25.0070   36.9260 H   0  0  0  0  0  0  0  0  0  0  0  0
   39.7550   21.9280   37.2400 H   0  0  0  0  0  0  0  0  0  0  0  0
   36.0990   24.0310   31.1300 S   0  0  0  0  0  0  0  0  0  0  0  0
   37.4320   23.4290   33.5500 H   0  0  0  0  0  0  0  0  0  0  0  0
   37.2500   22.5190   33.0710 N   0  0  0  0  0  0  0  0  0  0  0  0
   37.1230   22.6530   31.6300 C   0  0  1  0  0  3  0  0  0  0  0  0
   36.6410   21.3240   31.1010 C   0  0  0  0  0  3  0  0  0  0  0  0
   35.5490   21.2630   31.0270 H   0  0  0  0  0  0  0  0  0  0  0  0
   37.0710   20.2640   31.9110 O   0  0  0  0  0  0  0  0  0  0  0  0
   38.4080   20.5260   32.2630 C   0  0  0  0  0  2  0  0  0  0  0  0
   38.4220   21.6620   33.2750 C   0  0  0  0  0  2  0  0  0  0  0  0
  1 10  1  0  0  0  0
  2  1  1  0  0  0  0
  2  7  1  0  0  0  0
  3  2  2  0  0  0  0
  4  5  2  0  0  0  0
  4  3  1  0  0  0  0
  5  6  1  0  0  0  0
  6  1  2  0  0  0  0
  8  3  1  0  0  0  0
  9  4  1  0  0  0  0
 10 11  2  0  0  0  0
 10 13  1  0  0  0  0
 12 13  2  0  0  0  0
 12 17  1  0  0  0  0
 13 14  1  0  0  0  0
 14 19  1  0  0  0  0
 14 15  2  0  0  0  0
 16 15  1  0  0  0  0
 16 20  1  0  0  0  0
 17 16  2  0  0  0  0
 18 12  1  0  0  0  0
 21  5  1  0  0  0  0
 23 29  1  0  0  0  0
 23 22  1  0  0  0  0
 24 21  1  1  0  0  0
 24 23  1  0  0  0  0
 25 24  1  0  0  0  0
 25 27  1  0  0  0  0
 26 25  1  0  0  0  0
 27 28  1  0  0  0  0
 28 29  1  0  0  0  0
M  END
>  <minimizedAffinity>
-4.80167723

$$$$
