
 OpenBabel03272510193D

 35 38  0  0  0  0  0  0  0  0999 V2000
   37.3400   29.1970   50.8260 Br  0  0  0  0  0  0  0  0  0  0  0  0
   35.9600   29.3050   49.5190 C   0  0  0  0  0  0  0  0  0  0  0  0
   35.9770   30.3130   48.5440 C   0  0  0  0  0  0  0  0  0  0  0  0
   34.9490   30.3300   47.6340 C   0  0  0  0  0  0  0  0  0  0  0  0
   33.9120   29.4080   47.6370 C   0  0  0  0  0  0  0  0  0  0  0  0
   33.9260   28.4380   48.6020 C   0  0  0  0  0  0  0  0  0  0  0  0
   34.9450   28.4000   49.5260 C   0  0  0  0  0  0  0  0  0  0  0  0
   34.9160   31.0880   46.8590 H   0  0  0  0  0  0  0  0  0  0  0  0
   33.1340   27.6970   48.6400 H   0  0  0  0  0  0  0  0  0  0  0  0
   34.9520   27.6300   50.2880 H   0  0  0  0  0  0  0  0  0  0  0  0
   32.8250   29.4270   46.6740 C   0  0  0  0  0  0  0  0  0  0  0  0
   31.9160   28.4130   46.4900 C   0  0  0  0  0  0  0  0  0  0  0  0
   30.8950   28.4730   45.5590 C   0  0  0  0  0  0  0  0  0  0  0  0
   30.7690   29.5700   44.7850 N   0  0  0  0  0  0  0  0  0  0  0  0
   31.6530   30.5580   44.9630 C   0  0  0  0  0  0  0  0  0  0  0  0
   32.6290   30.4860   45.8620 N   0  0  0  0  0  0  0  0  0  0  0  0
   32.0130   27.5200   47.1140 H   0  0  0  0  0  0  0  0  0  0  0  0
   30.2170   27.6200   45.4790 H   0  0  0  0  0  0  0  0  0  0  0  0
   31.5360   31.7210   44.1580 N   0  0  0  0  0  0  0  0  0  0  0  0
   32.1990   31.8690   42.8780 C   0  0  0  0  0  0  0  0  0  0  0  0
   31.4170   31.8130   42.0740 H   0  0  0  0  0  0  0  0  0  0  0  0
   32.9340   33.2120   42.8070 C   0  0  0  0  0  0  0  0  0  0  0  0
   33.8780   33.1200   43.3640 H   0  0  0  0  0  0  0  0  0  0  0  0
   32.1530   34.2500   43.2690 O   0  0  0  0  0  0  0  0  0  0  0  0
   31.7070   34.0500   44.5560 C   0  0  0  0  0  0  0  0  0  0  0  0
   30.7400   32.8690   44.5480 C   0  0  0  0  0  0  0  0  0  0  0  0
   38.0100   33.1850   49.4910 C   0  0  0  0  0  0  0  0  0  0  0  0
   39.0530   33.1790   48.5000 C   0  0  0  0  0  0  0  0  0  0  0  0
   39.0230   32.1900   47.5390 C   0  0  0  0  0  0  0  0  0  0  0  0
   38.0150   31.2610   47.5650 N   0  0  0  0  0  0  0  0  0  0  0  0
   37.0420   31.2890   48.5110 C   0  0  0  0  0  0  0  0  0  0  0  0
   37.0570   32.2550   49.4630 N   0  0  0  0  0  0  0  0  0  0  0  0
   37.9880   33.9380   50.2650 H   0  0  0  0  0  0  0  0  0  0  0  0
   39.8160   33.9450   48.5440 H   0  0  0  0  0  0  0  0  0  0  0  0
   39.7920   32.1510   46.7740 H   0  0  0  0  0  0  0  0  0  0  0  0
  2  7  1  0  0  0  0
  2  1  1  0  0  0  0
  3  2  2  0  0  0  0
  4  5  2  0  0  0  0
  4  3  1  0  0  0  0
  5  6  1  0  0  0  0
  6  9  1  0  0  0  0
  6  7  2  0  0  0  0
  7 10  1  0  0  0  0
  8  4  1  0  0  0  0
 11  5  1  0  0  0  0
 12 11  1  0  0  0  0
 12 17  1  0  0  0  0
 13 12  2  0  0  0  0
 14 15  2  0  0  0  0
 14 13  1  0  0  0  0
 15 16  1  0  0  0  0
 16 11  2  0  0  0  0
 18 13  1  0  0  0  0
 19 26  1  0  0  0  0
 19 15  1  0  0  0  0
 20 19  1  0  0  0  0
 21 20  1  0  0  0  0
 22 20  1  0  0  0  0
 22 24  1  0  0  0  0
 22 23  1  0  0  0  0
 24 25  1  0  0  0  0
 26 25  1  0  0  0  0
 27 33  1  0  0  0  0
 28 34  1  0  0  0  0
 28 27  2  0  0  0  0
 29 30  2  0  0  0  0
 29 28  1  0  0  0  0
 30 31  1  0  0  0  0
 31  3  1  0  0  0  0
 31 32  2  0  0  0  0
 32 27  1  0  0  0  0
 35 29  1  0  0  0  0
M  END
>  <minimizedAffinity>
-6.87257195

>  <minimizedRMSD>
0.585801899

$$$$
