
 OpenBabel03272510253D

 31 34  0  0  1  0  0  0  0  0999 V2000
   35.7580   28.7320   32.7930 C   0  0  0  0  0  0  0  0  0  0  0  0
   35.9880   29.0120   34.1280 C   0  0  0  0  0  0  0  0  0  0  0  0
   36.6860   28.1130   34.9350 C   0  0  0  0  0  0  0  0  0  0  0  0
   37.1290   26.9440   34.3310 C   0  0  0  0  0  0  0  0  0  0  0  0
   37.8290   25.9200   34.9090 N   0  0  0  0  0  0  0  0  0  0  0  0
   38.0280   25.0120   33.9310 C   0  0  0  0  0  0  0  0  0  0  0  0
   37.4920   25.4180   32.7850 N   0  0  0  0  0  0  0  0  0  0  0  0
   36.9210   26.6280   33.0070 C   0  0  0  0  0  0  0  0  0  0  0  0
   36.2160   27.5510   32.2230 C   0  0  0  0  0  0  0  0  0  0  0  0
   35.2190   29.4110   32.1470 H   0  0  0  0  0  0  0  0  0  0  0  0
   36.8680   28.3200   35.9600 H   0  0  0  0  0  0  0  0  0  0  0  0
   38.1430   25.8540   35.9020 H   0  0  0  0  0  0  0  0  0  0  0  0
   36.0480   27.3080   31.1780 H   0  0  0  0  0  0  0  0  0  0  0  0
   35.4640   32.1820   36.0820 C   0  0  0  0  0  0  0  0  0  0  0  0
   36.0700   30.9960   35.6740 C   0  0  0  0  0  0  0  0  0  0  0  0
   35.4850   30.2590   34.6640 C   0  0  0  0  0  0  0  0  0  0  0  0
   34.3270   30.7510   34.1200 N   0  0  0  0  0  0  0  0  0  0  0  0
   33.7480   31.9010   34.5220 C   0  0  0  0  0  0  0  0  0  0  0  0
   34.3140   32.6010   35.4910 N   0  0  0  0  0  0  0  0  0  0  0  0
   36.0020   32.6880   36.8830 H   0  0  0  0  0  0  0  0  0  0  0  0
   36.9780   30.5870   36.0840 H   0  0  0  0  0  0  0  0  0  0  0  0
   32.8390   32.2160   34.0420 H   0  0  0  0  0  0  0  0  0  0  0  0
   38.7260   23.8170   34.1840 O   0  0  0  0  0  0  0  0  0  0  0  0
   37.7790   23.8990   36.4610 H   0  0  0  0  0  0  0  0  0  0  0  0
   38.5200   23.1640   36.3750 N   0  0  0  0  0  0  0  0  0  0  0  0
   39.4620   23.7280   35.3950 C   0  0  1  0  0  3  0  0  0  0  0  0
   40.5410   22.6850   35.2330 C   0  0  0  0  0  3  0  0  0  0  0  0
   40.0470   21.7170   34.9910 H   0  0  0  0  0  0  0  0  0  0  0  0
   41.2650   22.5930   36.4190 O   0  0  0  0  0  0  0  0  0  0  0  0
   40.5060   22.3030   37.5290 C   0  0  0  0  0  2  0  0  0  0  0  0
   39.2500   23.1370   37.6280 C   0  0  0  0  0  2  0  0  0  0  0  0
  1  2  1  0  0  0  0
  2 16  1  0  0  0  0
  2  3  2  0  0  0  0
  3 11  1  0  0  0  0
  4  5  1  0  0  0  0
  4  3  1  0  0  0  0
  5 12  1  0  0  0  0
  6 23  1  0  0  0  0
  6  5  1  0  0  0  0
  7  8  1  0  0  0  0
  7  6  2  0  0  0  0
  8  4  2  0  0  0  0
  9  1  2  0  0  0  0
  9  8  1  0  0  0  0
 10  1  1  0  0  0  0
 13  9  1  0  0  0  0
 14 20  1  0  0  0  0
 15 14  1  0  0  0  0
 15 21  1  0  0  0  0
 16 15  2  0  0  0  0
 17 18  2  0  0  0  0
 17 16  1  0  0  0  0
 18 19  1  0  0  0  0
 19 14  2  0  0  0  0
 22 18  1  0  0  0  0
 25 24  1  0  0  0  0
 25 31  1  0  0  0  0
 26 23  1  6  0  0  0
 26 25  1  0  0  0  0
 27 26  1  0  0  0  0
 27 29  1  0  0  0  0
 28 27  1  0  0  0  0
 29 30  1  0  0  0  0
 30 31  1  0  0  0  0
M  END
>  <minimizedAffinity>
-5.29399109

$$$$

 OpenBabel03272510253D

 31 34  0  0  1  0  0  0  0  0999 V2000
   38.0730   26.5850   36.0370 C   0  0  0  0  0  0  0  0  0  0  0  0
   38.4720   25.3940   35.4580 C   0  0  0  0  0  0  0  0  0  0  0  0
   38.3480   25.1910   34.0840 C   0  0  0  0  0  0  0  0  0  0  0  0
   37.8120   26.2350   33.3440 C   0  0  0  0  0  0  0  0  0  0  0  0
   37.5930   26.2750   31.9930 N   0  0  0  0  0  0  0  0  0  0  0  0
   37.0600   27.4890   31.7420 C   0  0  0  0  0  0  0  0  0  0  0  0
   36.9380   28.1980   32.8580 N   0  0  0  0  0  0  0  0  0  0  0  0
   37.4020   27.4360   33.8790 C   0  0  0  0  0  0  0  0  0  0  0  0
   37.5390   27.6090   35.2630 C   0  0  0  0  0  0  0  0  0  0  0  0
   38.1580   26.7670   37.0990 H   0  0  0  0  0  0  0  0  0  0  0  0
   38.6530   24.2800   33.6330 H   0  0  0  0  0  0  0  0  0  0  0  0
   37.7970   25.5210   31.3010 H   0  0  0  0  0  0  0  0  0  0  0  0
   37.2190   28.5530   35.6920 H   0  0  0  0  0  0  0  0  0  0  0  0
   39.1630   22.9840   38.2610 C   0  0  0  0  0  0  0  0  0  0  0  0
   38.5230   23.9960   37.5510 C   0  0  0  0  0  0  0  0  0  0  0  0
   39.0200   24.3650   36.3170 C   0  0  0  0  0  0  0  0  0  0  0  0
   40.1310   23.7000   35.8660 N   0  0  0  0  0  0  0  0  0  0  0  0
   40.7440   22.7210   36.5610 C   0  0  0  0  0  0  0  0  0  0  0  0
   40.2610   22.3730   37.7420 N   0  0  0  0  0  0  0  0  0  0  0  0
   38.6950   22.7660   39.2210 H   0  0  0  0  0  0  0  0  0  0  0  0
   37.6500   24.5340   37.8820 H   0  0  0  0  0  0  0  0  0  0  0  0
   41.6110   22.2500   36.1340 H   0  0  0  0  0  0  0  0  0  0  0  0
   36.7100   27.8680   30.4330 O   0  0  0  0  0  0  0  0  0  0  0  0
   38.1270   27.7160   28.4180 H   0  0  0  0  0  0  0  0  0  0  0  0
   37.5430   28.5840   28.4170 N   0  0  0  0  0  0  0  0  0  0  0  0
   37.4340   28.9370   29.8410 C   0  0  1  0  0  3  0  0  0  0  0  0
   36.5820   30.1820   29.8810 C   0  0  0  0  0  3  0  0  0  0  0  0
   35.6440   29.9720   29.3180 H   0  0  0  0  0  0  0  0  0  0  0  0
   37.2860   31.2340   29.3010 O   0  0  0  0  0  0  0  0  0  0  0  0
   37.7010   30.9990   28.0110 C   0  0  0  0  0  2  0  0  0  0  0  0
   38.3400   29.6420   27.8260 C   0  0  0  0  0  2  0  0  0  0  0  0
  1 10  1  0  0  0  0
  2  1  1  0  0  0  0
  2 16  1  0  0  0  0
  3  2  2  0  0  0  0
  4  8  2  0  0  0  0
  4  3  1  0  0  0  0
  5  4  1  0  0  0  0
  6  5  1  0  0  0  0
  6  7  2  0  0  0  0
  7  8  1  0  0  0  0
  8  9  1  0  0  0  0
  9 13  1  0  0  0  0
  9  1  2  0  0  0  0
 11  3  1  0  0  0  0
 12  5  1  0  0  0  0
 14 20  1  0  0  0  0
 15 21  1  0  0  0  0
 15 14  2  0  0  0  0
 16 15  1  0  0  0  0
 17 16  2  0  0  0  0
 17 18  1  0  0  0  0
 18 19  2  0  0  0  0
 19 14  1  0  0  0  0
 22 18  1  0  0  0  0
 23  6  1  0  0  0  0
 25 24  1  0  0  0  0
 25 26  1  0  0  0  0
 26 27  1  0  0  0  0
 26 23  1  1  0  0  0
 28 27  1  0  0  0  0
 29 27  1  0  0  0  0
 30 29  1  0  0  0  0
 31 30  1  0  0  0  0
 31 25  1  0  0  0  0
M  END
>  <minimizedAffinity>
-5.26503086

$$$$

 OpenBabel03272510253D

 31 34  0  0  1  0  0  0  0  0999 V2000
   37.5860   27.8410   35.0890 C   0  0  0  0  0  0  0  0  0  0  0  0
   37.1970   27.3300   33.8640 C   0  0  0  0  0  0  0  0  0  0  0  0
   37.3530   25.9750   33.5740 C   0  0  0  0  0  0  0  0  0  0  0  0
   37.9110   25.1830   34.5690 C   0  0  0  0  0  0  0  0  0  0  0  0
   38.1620   23.8390   34.5230 N   0  0  0  0  0  0  0  0  0  0  0  0
   38.7040   23.5240   35.7170 C   0  0  0  0  0  0  0  0  0  0  0  0
   38.8020   24.5950   36.4950 N   0  0  0  0  0  0  0  0  0  0  0  0
   38.3110   25.6510   35.8010 C   0  0  0  0  0  0  0  0  0  0  0  0
   38.1420   27.0180   36.0610 C   0  0  0  0  0  0  0  0  0  0  0  0
   37.4760   28.8870   35.3380 H   0  0  0  0  0  0  0  0  0  0  0  0
   37.0560   25.5750   32.6370 H   0  0  0  0  0  0  0  0  0  0  0  0
   37.9720   23.1900   33.7270 H   0  0  0  0  0  0  0  0  0  0  0  0
   38.4540   27.3940   37.0300 H   0  0  0  0  0  0  0  0  0  0  0  0
   35.2070   29.9940   32.1070 C   0  0  0  0  0  0  0  0  0  0  0  0
   35.6590   29.1900   33.1510 C   0  0  0  0  0  0  0  0  0  0  0  0
   36.6250   28.2390   32.8930 C   0  0  0  0  0  0  0  0  0  0  0  0
   37.0820   28.1450   31.6040 N   0  0  0  0  0  0  0  0  0  0  0  0
   36.6370   28.9280   30.6000 C   0  0  0  0  0  0  0  0  0  0  0  0
   35.7120   29.8370   30.8550 N   0  0  0  0  0  0  0  0  0  0  0  0
   34.4470   30.7120   32.4130 H   0  0  0  0  0  0  0  0  0  0  0  0
   35.3170   29.2430   34.1710 H   0  0  0  0  0  0  0  0  0  0  0  0
   37.0500   28.7880   29.6160 H   0  0  0  0  0  0  0  0  0  0  0  0
   39.0880   22.2020   36.0120 O   0  0  0  0  0  0  0  0  0  0  0  0
   40.6680   23.1120   34.3480 H   0  0  0  0  0  0  0  0  0  0  0  0
   41.0940   23.0640   35.3030 N   0  0  0  0  0  0  0  0  0  0  0  0
   40.4670   21.8790   35.9090 C   0  0  1  0  0  3  0  0  0  0  0  0
   41.0490   21.7860   37.2990 C   0  0  0  0  0  3  0  0  0  0  0  0
   40.9030   22.7710   37.7980 H   0  0  0  0  0  0  0  0  0  0  0  0
   42.4020   21.4710   37.2050 O   0  0  0  0  0  0  0  0  0  0  0  0
   43.1420   22.3530   36.4530 C   0  0  0  0  0  2  0  0  0  0  0  0
   42.4900   22.7080   35.1370 C   0  0  0  0  0  2  0  0  0  0  0  0
  1 10  1  0  0  0  0
  1  9  1  0  0  0  0
  2  1  2  0  0  0  0
  3  2  1  0  0  0  0
  3  4  2  0  0  0  0
  4  8  1  0  0  0  0
  5  4  1  0  0  0  0
  5  6  1  0  0  0  0
  6 23  1  0  0  0  0
  6  7  2  0  0  0  0
  8  9  2  0  0  0  0
  8  7  1  0  0  0  0
  9 13  1  0  0  0  0
 11  3  1  0  0  0  0
 12  5  1  0  0  0  0
 14 20  1  0  0  0  0
 14 15  1  0  0  0  0
 15 21  1  0  0  0  0
 16 15  2  0  0  0  0
 16  2  1  0  0  0  0
 17 16  1  0  0  0  0
 18 19  1  0  0  0  0
 18 17  2  0  0  0  0
 19 14  2  0  0  0  0
 22 18  1  0  0  0  0
 24 25  1  0  0  0  0
 25 26  1  0  0  0  0
 26 23  1  1  0  0  0
 26 27  1  0  0  0  0
 27 28  1  0  0  0  0
 29 27  1  0  0  0  0
 30 29  1  0  0  0  0
 31 25  1  0  0  0  0
 31 30  1  0  0  0  0
M  END
>  <minimizedAffinity>
-5.20746374

$$$$

 OpenBabel03272510253D

 31 34  0  0  1  0  0  0  0  0999 V2000
   35.5370   28.6690   32.2390 C   0  0  0  0  0  0  0  0  0  0  0  0
   35.7470   29.2420   33.4800 C   0  0  0  0  0  0  0  0  0  0  0  0
   36.4470   28.5570   34.4730 C   0  0  0  0  0  0  0  0  0  0  0  0
   36.9130   27.2900   34.1480 C   0  0  0  0  0  0  0  0  0  0  0  0
   37.6200   26.4310   34.9450 N   0  0  0  0  0  0  0  0  0  0  0  0
   37.8450   25.3320   34.1950 C   0  0  0  0  0  0  0  0  0  0  0  0
   37.3170   25.4650   32.9830 N   0  0  0  0  0  0  0  0  0  0  0  0
   36.7270   26.6840   32.9250 C   0  0  0  0  0  0  0  0  0  0  0  0
   36.0190   27.3980   31.9490 C   0  0  0  0  0  0  0  0  0  0  0  0
   34.9980   29.1790   31.4530 H   0  0  0  0  0  0  0  0  0  0  0  0
   36.6130   28.9890   35.4280 H   0  0  0  0  0  0  0  0  0  0  0  0
   37.9230   26.5930   35.9310 H   0  0  0  0  0  0  0  0  0  0  0  0
   35.8680   26.9270   30.9830 H   0  0  0  0  0  0  0  0  0  0  0  0
   33.7820   32.2100   34.6940 C   0  0  0  0  0  0  0  0  0  0  0  0
   34.1760   30.8800   34.5680 C   0  0  0  0  0  0  0  0  0  0  0  0
   35.2200   30.5690   33.7210 C   0  0  0  0  0  0  0  0  0  0  0  0
   35.8100   31.6070   33.0460 N   0  0  0  0  0  0  0  0  0  0  0  0
   35.4210   32.8910   33.1750 C   0  0  0  0  0  0  0  0  0  0  0  0
   34.4200   33.1810   33.9890 N   0  0  0  0  0  0  0  0  0  0  0  0
   32.9530   32.3510   35.3860 H   0  0  0  0  0  0  0  0  0  0  0  0
   33.7310   30.0470   35.0850 H   0  0  0  0  0  0  0  0  0  0  0  0
   35.9380   33.6460   32.6090 H   0  0  0  0  0  0  0  0  0  0  0  0
   38.5560   24.2340   34.7140 O   0  0  0  0  0  0  0  0  0  0  0  0
   37.1170   25.0910   36.5260 H   0  0  0  0  0  0  0  0  0  0  0  0
   37.5870   24.1950   36.7950 N   0  0  0  0  0  0  0  0  0  0  0  0
   38.8810   24.2550   36.0960 C   0  0  1  0  0  3  0  0  0  0  0  0
   39.5840   22.9670   36.4480 C   0  0  0  0  0  3  0  0  0  0  0  0
   38.8960   22.1240   36.2090 H   0  0  0  0  0  0  0  0  0  0  0  0
   39.9040   22.9800   37.8040 O   0  0  0  0  0  0  0  0  0  0  0  0
   38.8290   23.1620   38.6420 C   0  0  0  0  0  2  0  0  0  0  0  0
   37.9150   24.2840   38.2050 C   0  0  0  0  0  2  0  0  0  0  0  0
  1  2  1  0  0  0  0
  2 16  1  0  0  0  0
  2  3  2  0  0  0  0
  3 11  1  0  0  0  0
  4  3  1  0  0  0  0
  4  5  1  0  0  0  0
  5 12  1  0  0  0  0
  6 23  1  0  0  0  0
  6  5  1  0  0  0  0
  7  6  2  0  0  0  0
  8  7  1  0  0  0  0
  8  4  2  0  0  0  0
  9  1  2  0  0  0  0
  9  8  1  0  0  0  0
 10  1  1  0  0  0  0
 13  9  1  0  0  0  0
 14 20  1  0  0  0  0
 15 14  1  0  0  0  0
 15 21  1  0  0  0  0
 16 15  2  0  0  0  0
 17 18  2  0  0  0  0
 17 16  1  0  0  0  0
 18 19  1  0  0  0  0
 19 14  2  0  0  0  0
 22 18  1  0  0  0  0
 24 25  1  0  0  0  0
 25 31  1  0  0  0  0
 26 23  1  6  0  0  0
 26 27  1  0  0  0  0
 26 25  1  0  0  0  0
 27 29  1  0  0  0  0
 28 27  1  0  0  0  0
 29 30  1  0  0  0  0
 31 30  1  0  0  0  0
M  END
>  <minimizedAffinity>
-5.16942787

$$$$

 OpenBabel03272510253D

 31 34  0  0  1  0  0  0  0  0999 V2000
   35.7020   29.8280   32.6080 C   0  0  0  0  0  0  0  0  0  0  0  0
   35.7670   29.4460   33.9360 C   0  0  0  0  0  0  0  0  0  0  0  0
   36.3530   28.2350   34.3030 C   0  0  0  0  0  0  0  0  0  0  0  0
   36.8590   27.4500   33.2760 C   0  0  0  0  0  0  0  0  0  0  0  0
   37.4760   26.2330   33.3830 N   0  0  0  0  0  0  0  0  0  0  0  0
   37.7890   25.8660   32.1230 C   0  0  0  0  0  0  0  0  0  0  0  0
   37.4020   26.7870   31.2470 N   0  0  0  0  0  0  0  0  0  0  0  0
   36.8160   27.7920   31.9430 C   0  0  0  0  0  0  0  0  0  0  0  0
   36.2190   29.0150   31.6070 C   0  0  0  0  0  0  0  0  0  0  0  0
   35.2530   30.7610   32.2980 H   0  0  0  0  0  0  0  0  0  0  0  0
   36.4070   27.9350   35.3190 H   0  0  0  0  0  0  0  0  0  0  0  0
   37.6640   25.6970   34.2590 H   0  0  0  0  0  0  0  0  0  0  0  0
   36.1820   29.2920   30.5580 H   0  0  0  0  0  0  0  0  0  0  0  0
   35.2410   32.0290   36.6180 C   0  0  0  0  0  0  0  0  0  0  0  0
   35.9220   31.2380   35.6960 C   0  0  0  0  0  0  0  0  0  0  0  0
   35.2090   30.3360   34.9330 C   0  0  0  0  0  0  0  0  0  0  0  0
   33.8550   30.2770   35.1360 N   0  0  0  0  0  0  0  0  0  0  0  0
   33.2040   31.0480   36.0310 C   0  0  0  0  0  0  0  0  0  0  0  0
   33.8940   31.9090   36.7590 N   0  0  0  0  0  0  0  0  0  0  0  0
   35.8920   32.7080   37.1690 H   0  0  0  0  0  0  0  0  0  0  0  0
   36.9840   31.2640   35.5170 H   0  0  0  0  0  0  0  0  0  0  0  0
   32.1380   30.9380   36.1270 H   0  0  0  0  0  0  0  0  0  0  0  0
   38.4430   24.6470   31.8640 O   0  0  0  0  0  0  0  0  0  0  0  0
   36.0560   24.5090   32.4760 H   0  0  0  0  0  0  0  0  0  0  0  0
   36.2950   23.8550   31.6940 N   0  0  0  0  0  0  0  0  0  0  0  0
   37.6810   23.4540   31.9830 C   0  0  1  0  0  3  0  0  0  0  0  0
   38.0670   22.5190   30.8630 C   0  0  0  0  0  3  0  0  0  0  0  0
   37.8590   23.0350   29.8980 H   0  0  0  0  0  0  0  0  0  0  0  0
   37.3220   21.3470   30.9720 O   0  0  0  0  0  0  0  0  0  0  0  0
   35.9600   21.5360   30.9670 C   0  0  0  0  0  2  0  0  0  0  0  0
   35.5080   22.6510   31.8800 C   0  0  0  0  0  2  0  0  0  0  0  0
  1  2  1  0  0  0  0
  2  3  2  0  0  0  0
  2 16  1  0  0  0  0
  3 11  1  0  0  0  0
  4  5  1  0  0  0  0
  4  3  1  0  0  0  0
  5 12  1  0  0  0  0
  6  5  1  0  0  0  0
  7  8  1  0  0  0  0
  7  6  2  0  0  0  0
  8  4  2  0  0  0  0
  9  8  1  0  0  0  0
  9  1  2  0  0  0  0
 10  1  1  0  0  0  0
 13  9  1  0  0  0  0
 14 19  1  0  0  0  0
 14 20  1  0  0  0  0
 15 14  2  0  0  0  0
 16 17  2  0  0  0  0
 16 15  1  0  0  0  0
 17 18  1  0  0  0  0
 18 22  1  0  0  0  0
 18 19  2  0  0  0  0
 21 15  1  0  0  0  0
 23  6  1  0  0  0  0
 25 31  1  0  0  0  0
 25 26  1  0  0  0  0
 25 24  1  0  0  0  0
 26 23  1  6  0  0  0
 27 29  1  0  0  0  0
 27 26  1  0  0  0  0
 28 27  1  0  0  0  0
 30 29  1  0  0  0  0
 30 31  1  0  0  0  0
M  END
>  <minimizedAffinity>
-5.11875916

$$$$

 OpenBabel03272510253D

 31 34  0  0  1  0  0  0  0  0999 V2000
   37.8230   25.0320   33.6420 C   0  0  0  0  0  0  0  0  0  0  0  0
   37.8670   25.4770   34.9500 C   0  0  0  0  0  0  0  0  0  0  0  0
   37.3820   26.7400   35.2910 C   0  0  0  0  0  0  0  0  0  0  0  0
   36.8610   27.5090   34.2600 C   0  0  0  0  0  0  0  0  0  0  0  0
   36.3290   28.7670   34.3430 N   0  0  0  0  0  0  0  0  0  0  0  0
   35.9600   29.0950   33.0870 C   0  0  0  0  0  0  0  0  0  0  0  0
   36.2320   28.1120   32.2360 N   0  0  0  0  0  0  0  0  0  0  0  0
   36.7980   27.1030   32.9450 C   0  0  0  0  0  0  0  0  0  0  0  0
   37.2950   25.8300   32.6340 C   0  0  0  0  0  0  0  0  0  0  0  0
   38.1930   24.0580   33.3520 H   0  0  0  0  0  0  0  0  0  0  0  0
   37.4110   27.0890   36.2930 H   0  0  0  0  0  0  0  0  0  0  0  0
   36.2310   29.3530   35.2010 H   0  0  0  0  0  0  0  0  0  0  0  0
   37.2480   25.5040   31.6000 H   0  0  0  0  0  0  0  0  0  0  0  0
   39.9520   22.9900   36.8500 C   0  0  0  0  0  0  0  0  0  0  0  0
   39.5280   23.7800   35.7850 C   0  0  0  0  0  0  0  0  0  0  0  0
   38.4300   24.5990   35.9550 C   0  0  0  0  0  0  0  0  0  0  0  0
   37.8190   24.5800   37.1810 N   0  0  0  0  0  0  0  0  0  0  0  0
   38.2370   23.8100   38.2070 C   0  0  0  0  0  0  0  0  0  0  0  0
   39.2890   23.0290   38.0360 N   0  0  0  0  0  0  0  0  0  0  0  0
   40.8250   22.3810   36.6160 H   0  0  0  0  0  0  0  0  0  0  0  0
   39.9890   23.8150   34.8120 H   0  0  0  0  0  0  0  0  0  0  0  0
   37.6990   23.8560   39.1380 H   0  0  0  0  0  0  0  0  0  0  0  0
   35.3680   30.3410   32.8090 O   0  0  0  0  0  0  0  0  0  0  0  0
   33.7700   28.5670   32.1850 H   0  0  0  0  0  0  0  0  0  0  0  0
   33.4920   29.0450   33.0740 N   0  0  0  0  0  0  0  0  0  0  0  0
   33.9530   30.4290   32.8870 C   0  0  1  0  0  3  0  0  0  0  0  0
   33.5820   31.1490   34.1610 C   0  0  0  0  0  3  0  0  0  0  0  0
   33.9960   30.5690   35.0160 H   0  0  0  0  0  0  0  0  0  0  0  0
   32.1940   31.2380   34.2440 O   0  0  0  0  0  0  0  0  0  0  0  0
   31.5410   30.0290   34.1910 C   0  0  0  0  0  2  0  0  0  0  0  0
   32.0440   29.1280   33.0870 C   0  0  0  0  0  2  0  0  0  0  0  0
  1  2  1  0  0  0  0
  2  3  2  0  0  0  0
  2 16  1  0  0  0  0
  3 11  1  0  0  0  0
  4  5  1  0  0  0  0
  4  3  1  0  0  0  0
  5 12  1  0  0  0  0
  6  5  1  0  0  0  0
  7  8  1  0  0  0  0
  7  6  2  0  0  0  0
  8  4  2  0  0  0  0
  9  8  1  0  0  0  0
  9  1  2  0  0  0  0
 10  1  1  0  0  0  0
 13  9  1  0  0  0  0
 14 19  1  0  0  0  0
 15 16  1  0  0  0  0
 15 14  2  0  0  0  0
 16 17  2  0  0  0  0
 17 18  1  0  0  0  0
 18 22  1  0  0  0  0
 19 18  2  0  0  0  0
 20 14  1  0  0  0  0
 21 15  1  0  0  0  0
 23  6  1  0  0  0  0
 24 25  1  0  0  0  0
 25 31  1  0  0  0  0
 26 23  1  1  0  0  0
 26 25  1  0  0  0  0
 26 27  1  0  0  0  0
 27 29  1  0  0  0  0
 27 28  1  0  0  0  0
 30 29  1  0  0  0  0
 31 30  1  0  0  0  0
M  END
>  <minimizedAffinity>
-5.11754847

$$$$

 OpenBabel03272510253D

 31 34  0  0  1  0  0  0  0  0999 V2000
   36.9950   27.5250   33.6960 C   0  0  0  0  0  0  0  0  0  0  0  0
   36.2650   27.8980   32.5820 C   0  0  0  0  0  0  0  0  0  0  0  0
   36.0420   26.9970   31.5410 C   0  0  0  0  0  0  0  0  0  0  0  0
   36.5830   25.7270   31.6860 C   0  0  0  0  0  0  0  0  0  0  0  0
   36.5000   24.6790   30.8110 N   0  0  0  0  0  0  0  0  0  0  0  0
   37.1780   23.6630   31.3850 C   0  0  0  0  0  0  0  0  0  0  0  0
   37.6730   24.0250   32.5630 N   0  0  0  0  0  0  0  0  0  0  0  0
   37.3150   25.3150   32.7780 C   0  0  0  0  0  0  0  0  0  0  0  0
   37.5230   26.2450   33.8060 C   0  0  0  0  0  0  0  0  0  0  0  0
   37.1830   28.2050   34.5160 H   0  0  0  0  0  0  0  0  0  0  0  0
   35.4820   27.2740   30.6830 H   0  0  0  0  0  0  0  0  0  0  0  0
   36.0130   24.6670   29.8880 H   0  0  0  0  0  0  0  0  0  0  0  0
   38.0990   25.9270   34.6700 H   0  0  0  0  0  0  0  0  0  0  0  0
   34.9740   31.3350   33.3960 C   0  0  0  0  0  0  0  0  0  0  0  0
   35.4780   30.0550   33.6120 C   0  0  0  0  0  0  0  0  0  0  0  0
   35.7420   29.2470   32.5250 C   0  0  0  0  0  0  0  0  0  0  0  0
   35.4850   29.7650   31.2830 N   0  0  0  0  0  0  0  0  0  0  0  0
   34.9960   31.0060   31.0830 C   0  0  0  0  0  0  0  0  0  0  0  0
   34.7460   31.7750   32.1300 N   0  0  0  0  0  0  0  0  0  0  0  0
   34.8010   31.8920   34.3160 H   0  0  0  0  0  0  0  0  0  0  0  0
   35.6890   29.6230   34.5770 H   0  0  0  0  0  0  0  0  0  0  0  0
   34.8230   31.3360   30.0740 H   0  0  0  0  0  0  0  0  0  0  0  0
   37.2930   22.4160   30.7450 O   0  0  0  0  0  0  0  0  0  0  0  0
   36.0770   22.4250   32.8920 H   0  0  0  0  0  0  0  0  0  0  0  0
   35.6750   21.7290   32.2210 N   0  0  0  0  0  0  0  0  0  0  0  0
   36.8420   21.2700   31.4510 C   0  0  1  0  0  3  0  0  0  0  0  0
   36.2970   20.2710   30.4590 C   0  0  0  0  0  3  0  0  0  0  0  0
   35.4620   20.7580   29.9070 H   0  0  0  0  0  0  0  0  0  0  0  0
   35.8510   19.1450   31.1460 O   0  0  0  0  0  0  0  0  0  0  0  0
   34.9040   19.4020   32.1090 C   0  0  0  0  0  2  0  0  0  0  0  0
   35.2560   20.5750   32.9940 C   0  0  0  0  0  2  0  0  0  0  0  0
  1  9  1  0  0  0  0
  1 10  1  0  0  0  0
  2  1  2  0  0  0  0
  3  4  2  0  0  0  0
  3  2  1  0  0  0  0
  4  8  1  0  0  0  0
  5  6  1  0  0  0  0
  5  4  1  0  0  0  0
  6  7  2  0  0  0  0
  7  8  1  0  0  0  0
  8  9  2  0  0  0  0
  9 13  1  0  0  0  0
 11  3  1  0  0  0  0
 12  5  1  0  0  0  0
 14 15  1  0  0  0  0
 14 20  1  0  0  0  0
 15 21  1  0  0  0  0
 16  2  1  0  0  0  0
 16 15  2  0  0  0  0
 17 16  1  0  0  0  0
 18 17  2  0  0  0  0
 18 19  1  0  0  0  0
 19 14  2  0  0  0  0
 22 18  1  0  0  0  0
 23  6  1  0  0  0  0
 25 24  1  0  0  0  0
 25 31  1  0  0  0  0
 26 23  1  6  0  0  0
 26 25  1  0  0  0  0
 27 29  1  0  0  0  0
 27 26  1  0  0  0  0
 28 27  1  0  0  0  0
 29 30  1  0  0  0  0
 30 31  1  0  0  0  0
M  END
>  <minimizedAffinity>
-4.96781826

$$$$

 OpenBabel03272510253D

 31 34  0  0  1  0  0  0  0  0999 V2000
   35.5260   28.8880   32.8470 C   0  0  0  0  0  0  0  0  0  0  0  0
   35.9260   29.0500   34.1610 C   0  0  0  0  0  0  0  0  0  0  0  0
   36.8900   28.2130   34.7220 C   0  0  0  0  0  0  0  0  0  0  0  0
   37.4150   27.2250   33.9000 C   0  0  0  0  0  0  0  0  0  0  0  0
   38.3640   26.2920   34.2180 N   0  0  0  0  0  0  0  0  0  0  0  0
   38.5470   25.5560   33.1020 C   0  0  0  0  0  0  0  0  0  0  0  0
   37.7670   25.9830   32.1150 N   0  0  0  0  0  0  0  0  0  0  0  0
   37.0460   27.0300   32.5880 C   0  0  0  0  0  0  0  0  0  0  0  0
   36.0750   27.8870   32.0540 C   0  0  0  0  0  0  0  0  0  0  0  0
   34.7820   29.5230   32.3890 H   0  0  0  0  0  0  0  0  0  0  0  0
   37.2030   28.3310   35.7290 H   0  0  0  0  0  0  0  0  0  0  0  0
   38.8470   26.1730   35.1360 H   0  0  0  0  0  0  0  0  0  0  0  0
   35.7780   27.7400   31.0200 H   0  0  0  0  0  0  0  0  0  0  0  0
   35.2670   32.0180   36.3740 C   0  0  0  0  0  0  0  0  0  0  0  0
   35.9950   31.0570   35.6790 C   0  0  0  0  0  0  0  0  0  0  0  0
   35.3180   30.1110   34.9360 C   0  0  0  0  0  0  0  0  0  0  0  0
   33.9490   30.1810   34.9330 N   0  0  0  0  0  0  0  0  0  0  0  0
   33.2520   31.1160   35.6100 C   0  0  0  0  0  0  0  0  0  0  0  0
   33.9090   32.0180   36.3190 N   0  0  0  0  0  0  0  0  0  0  0  0
   35.8920   32.7180   36.9280 H   0  0  0  0  0  0  0  0  0  0  0  0
   37.0700   30.9790   35.6640 H   0  0  0  0  0  0  0  0  0  0  0  0
   32.1780   31.1000   35.5540 H   0  0  0  0  0  0  0  0  0  0  0  0
   39.4680   24.4930   33.0780 O   0  0  0  0  0  0  0  0  0  0  0  0
   40.1110   23.9080   35.3880 H   0  0  0  0  0  0  0  0  0  0  0  0
   39.1120   23.6660   35.1900 N   0  0  0  0  0  0  0  0  0  0  0  0
   39.1150   23.3010   33.7650 C   0  0  1  0  0  3  0  0  0  0  0  0
   37.6810   22.9590   33.4370 C   0  0  0  0  0  3  0  0  0  0  0  0
   37.0440   23.8130   33.7590 H   0  0  0  0  0  0  0  0  0  0  0  0
   37.3280   21.7920   34.1090 O   0  0  0  0  0  0  0  0  0  0  0  0
   37.4880   21.8480   35.4730 C   0  0  0  0  0  2  0  0  0  0  0  0
   38.8160   22.4340   35.8950 C   0  0  0  0  0  2  0  0  0  0  0  0
  1  2  1  0  0  0  0
  2  3  2  0  0  0  0
  2 16  1  0  0  0  0
  3 11  1  0  0  0  0
  4  5  1  0  0  0  0
  4  3  1  0  0  0  0
  5 12  1  0  0  0  0
  6  5  1  0  0  0  0
  7  8  1  0  0  0  0
  7  6  2  0  0  0  0
  8  4  2  0  0  0  0
  9  8  1  0  0  0  0
  9  1  2  0  0  0  0
 10  1  1  0  0  0  0
 13  9  1  0  0  0  0
 14 20  1  0  0  0  0
 15 14  2  0  0  0  0
 16 15  1  0  0  0  0
 17 16  2  0  0  0  0
 17 18  1  0  0  0  0
 18 19  2  0  0  0  0
 19 14  1  0  0  0  0
 21 15  1  0  0  0  0
 22 18  1  0  0  0  0
 23  6  1  0  0  0  0
 25 24  1  0  0  0  0
 25 31  1  0  0  0  0
 26 23  1  6  0  0  0
 26 25  1  0  0  0  0
 27 28  1  0  0  0  0
 27 26  1  0  0  0  0
 27 29  1  0  0  0  0
 29 30  1  0  0  0  0
 30 31  1  0  0  0  0
M  END
>  <minimizedAffinity>
-4.96526432

$$$$

 OpenBabel03272510253D

 31 34  0  0  1  0  0  0  0  0999 V2000
   36.7840   27.0130   32.4770 C   0  0  0  0  0  0  0  0  0  0  0  0
   36.6520   27.8050   33.6040 C   0  0  0  0  0  0  0  0  0  0  0  0
   37.0100   27.3200   34.8620 C   0  0  0  0  0  0  0  0  0  0  0  0
   37.4990   26.0220   34.9160 C   0  0  0  0  0  0  0  0  0  0  0  0
   37.9130   25.3320   36.0220 N   0  0  0  0  0  0  0  0  0  0  0  0
   38.2990   24.1180   35.5770 C   0  0  0  0  0  0  0  0  0  0  0  0
   38.1470   24.0210   34.2610 N   0  0  0  0  0  0  0  0  0  0  0  0
   37.6470   25.2020   33.8190 C   0  0  0  0  0  0  0  0  0  0  0  0
   37.2770   25.7170   32.5700 C   0  0  0  0  0  0  0  0  0  0  0  0
   36.5130   27.3640   31.4910 H   0  0  0  0  0  0  0  0  0  0  0  0
   36.9130   27.9210   35.7310 H   0  0  0  0  0  0  0  0  0  0  0  0
   37.9270   25.6740   37.0090 H   0  0  0  0  0  0  0  0  0  0  0  0
   37.3910   25.0770   31.7010 H   0  0  0  0  0  0  0  0  0  0  0  0
   35.4840   31.1130   32.2510 C   0  0  0  0  0  0  0  0  0  0  0  0
   36.0040   29.8220   32.2450 C   0  0  0  0  0  0  0  0  0  0  0  0
   36.1320   29.1460   33.4420 C   0  0  0  0  0  0  0  0  0  0  0  0
   35.7320   29.8020   34.5770 N   0  0  0  0  0  0  0  0  0  0  0  0
   35.2290   31.0530   34.5730 C   0  0  0  0  0  0  0  0  0  0  0  0
   35.1100   31.6940   33.4220 N   0  0  0  0  0  0  0  0  0  0  0  0
   35.4230   31.5600   31.2590 H   0  0  0  0  0  0  0  0  0  0  0  0
   36.3260   29.2840   31.3690 H   0  0  0  0  0  0  0  0  0  0  0  0
   34.9380   31.4960   35.5090 H   0  0  0  0  0  0  0  0  0  0  0  0
   38.7880   23.1430   36.4660 O   0  0  0  0  0  0  0  0  0  0  0  0
   40.4150   23.9900   34.8160 H   0  0  0  0  0  0  0  0  0  0  0  0
   40.8800   23.7070   35.7100 N   0  0  0  0  0  0  0  0  0  0  0  0
   40.0630   22.5820   36.1910 C   0  0  1  0  0  3  0  0  0  0  0  0
   40.6970   22.1560   37.4930 C   0  0  0  0  0  3  0  0  0  0  0  0
   40.7850   23.0570   38.1420 H   0  0  0  0  0  0  0  0  0  0  0  0
   41.9500   21.6070   37.2300 O   0  0  0  0  0  0  0  0  0  0  0  0
   42.8070   22.4410   36.5510 C   0  0  0  0  0  2  0  0  0  0  0  0
   42.1620   23.1220   35.3660 C   0  0  0  0  0  2  0  0  0  0  0  0
  1  9  2  0  0  0  0
  1  2  1  0  0  0  0
  2  3  2  0  0  0  0
  3  4  1  0  0  0  0
  3 11  1  0  0  0  0
  4  5  1  0  0  0  0
  5 12  1  0  0  0  0
  6  5  1  0  0  0  0
  6 23  1  0  0  0  0
  7  6  2  0  0  0  0
  8  7  1  0  0  0  0
  8  4  2  0  0  0  0
  9  8  1  0  0  0  0
 10  1  1  0  0  0  0
 13  9  1  0  0  0  0
 14 19  1  0  0  0  0
 15 14  2  0  0  0  0
 15 16  1  0  0  0  0
 16  2  1  0  0  0  0
 16 17  2  0  0  0  0
 18 17  1  0  0  0  0
 18 22  1  0  0  0  0
 19 18  2  0  0  0  0
 20 14  1  0  0  0  0
 21 15  1  0  0  0  0
 24 25  1  0  0  0  0
 25 26  1  0  0  0  0
 26 23  1  1  0  0  0
 26 27  1  0  0  0  0
 27 28  1  0  0  0  0
 29 27  1  0  0  0  0
 30 29  1  0  0  0  0
 31 25  1  0  0  0  0
 31 30  1  0  0  0  0
M  END
>  <minimizedAffinity>
-4.94970131

$$$$
