
 OpenBabel03272501413D

 44 48  0  0  1  0  0  0  0  0999 V2000
   35.9900   29.5160   31.3300 C   0  0  0  0  0  0  0  0  0  0  0  0
   36.4220   28.2540   31.6720 C   0  0  0  0  0  0  0  0  0  0  0  0
   36.5100   27.8210   33.0020 C   0  0  0  0  0  0  0  0  0  0  0  0
   36.1580   28.6690   33.9260 N   0  0  0  0  0  0  0  0  0  0  0  0
   35.7290   29.9260   33.5770 C   0  0  0  0  0  0  0  0  0  0  0  0
   35.6500   30.3370   32.3160 N   0  0  0  0  0  0  0  0  0  0  0  0
   35.9330   29.8270   30.3000 H   0  0  0  0  0  0  0  0  0  0  0  0
   36.6940   27.6070   30.8250 H   0  0  0  0  0  0  0  0  0  0  0  0
   35.3100   30.8850   34.5960 C   0  0  0  0  0  0  0  0  0  0  0  0
   35.8990   31.2830   35.7680 C   0  0  0  0  0  0  0  0  0  0  0  0
   35.3210   32.2070   36.5520 C   0  0  0  0  0  0  0  0  0  0  0  0
   34.0880   32.7180   36.0770 C   0  0  0  0  0  0  0  0  0  0  0  0
   33.8130   31.8250   34.4940 S   0  0  0  0  0  0  0  0  0  0  0  0
   36.8440   30.8130   36.0130 H   0  0  0  0  0  0  0  0  0  0  0  0
   35.6830   32.5920   37.4760 H   0  0  0  0  0  0  0  0  0  0  0  0
   33.2080   33.6710   36.6080 N   0  0  0  0  0  0  0  0  0  0  0  0
   31.9440   34.1010   36.0380 C   0  0  0  0  0  3  0  0  0  0  0  0
   31.4740   33.3610   35.3760 H   0  0  0  0  0  0  0  0  0  0  0  0
   31.0230   34.2900   37.2500 C   0  0  0  0  0  3  0  0  0  0  0  0
   31.2290   33.4400   37.9280 H   0  0  0  0  0  0  0  0  0  0  0  0
   31.4640   35.4450   37.8550 O   0  0  0  0  0  0  0  0  0  0  0  0
   32.7400   35.3820   38.3420 C   0  0  0  0  0  2  0  0  0  0  0  0
   33.6010   34.2840   37.8460 C   0  0  0  0  0  2  0  0  0  0  0  0
   37.0770   26.5120   33.1820 C   0  0  1  0  0  0  0  0  0  0  0  0
   38.0830   26.6890   32.6210 H   0  0  0  0  0  0  0  0  0  0  0  0
   37.4610   26.1360   34.5990 C   0  0  2  0  0  0  0  0  0  0  0  0
   38.9500   26.4510   34.7460 C   0  0  0  0  0  0  0  0  0  0  0  0
   38.4030   25.0710   34.8410 C   0  0  1  0  0  0  0  0  0  0  0  0
   36.7710   26.5170   35.3550 H   0  0  0  0  0  0  0  0  0  0  0  0
   39.1860   27.0010   35.6800 H   0  0  0  0  0  0  0  0  0  0  0  0
   39.6260   26.6270   33.9200 H   0  0  0  0  0  0  0  0  0  0  0  0
   38.4960   24.3470   34.0060 H   0  0  0  0  0  0  0  0  0  0  0  0
   38.6450   24.4270   36.1390 C   0  0  0  0  0  0  0  0  0  0  0  0
   37.8680   24.8120   37.2000 C   0  0  0  0  0  0  0  0  0  0  0  0
   38.0980   24.1740   38.3930 C   0  0  0  0  0  0  0  0  0  0  0  0
   39.0500   23.1960   38.5620 C   0  0  0  0  0  0  0  0  0  0  0  0
   39.8180   22.8330   37.4670 C   0  0  0  0  0  0  0  0  0  0  0  0
   39.6030   23.4490   36.2900 N   0  0  0  0  0  0  0  0  0  0  0  0
   37.1090   25.5740   37.1230 H   0  0  0  0  0  0  0  0  0  0  0  0
   37.5110   24.4410   39.2630 H   0  0  0  0  0  0  0  0  0  0  0  0
   39.2810   22.6580   39.4650 H   0  0  0  0  0  0  0  0  0  0  0  0
   40.6010   22.0820   37.4420 H   0  0  0  0  0  0  0  0  0  0  0  0
   36.7200   25.4960   32.4500 O   0  0  0  0  0  0  0  0  0  0  0  0
   35.7660   25.2760   32.3760 H   0  0  0  0  0  0  0  0  0  0  0  0
  1  2  2  0  0  0  0
  1  6  1  0  0  0  0
  2  3  1  0  0  0  0
  3 24  1  0  0  0  0
  3  4  2  0  0  0  0
  5  4  1  0  0  0  0
  5  9  1  0  0  0  0
  6  5  2  0  0  0  0
  7  1  1  0  0  0  0
  8  2  1  0  0  0  0
  9 10  2  0  0  0  0
 10 14  1  0  0  0  0
 10 11  1  0  0  0  0
 11 15  1  0  0  0  0
 12 11  2  0  0  0  0
 12 16  1  0  0  0  0
 13  9  1  0  0  0  0
 13 12  1  0  0  0  0
 16 23  1  0  0  0  0
 17 16  1  0  0  0  0
 17 19  1  0  0  0  0
 18 17  1  0  0  0  0
 19 21  1  0  0  0  0
 19 20  1  0  0  0  0
 21 22  1  0  0  0  0
 23 22  1  0  0  0  0
 24 25  1  6  0  0  0
 24 26  1  0  0  0  0
 26 27  1  0  0  0  0
 26 28  1  0  0  0  0
 26 29  1  1  0  0  0
 27 28  1  0  0  0  0
 27 30  1  0  0  0  0
 28 32  1  6  0  0  0
 28 33  1  0  0  0  0
 31 27  1  0  0  0  0
 33 38  2  0  0  0  0
 33 34  1  0  0  0  0
 34 35  2  0  0  0  0
 35 36  1  0  0  0  0
 35 40  1  0  0  0  0
 36 41  1  0  0  0  0
 37 36  2  0  0  0  0
 38 37  1  0  0  0  0
 39 34  1  0  0  0  0
 42 37  1  0  0  0  0
 43 24  1  0  0  0  0
 44 43  1  0  0  0  0
M  END
>  <minimizedAffinity>
-6.35527802

$$$$

 OpenBabel03272501413D

 44 48  0  0  1  0  0  0  0  0999 V2000
   36.2820   29.5030   31.1510 C   0  0  0  0  0  0  0  0  0  0  0  0
   37.0170   28.4050   31.5410 C   0  0  0  0  0  0  0  0  0  0  0  0
   36.9460   27.8690   32.8340 C   0  0  0  0  0  0  0  0  0  0  0  0
   36.1400   28.4530   33.6740 N   0  0  0  0  0  0  0  0  0  0  0  0
   35.4110   29.5470   33.2780 C   0  0  0  0  0  0  0  0  0  0  0  0
   35.4820   30.0570   32.0540 N   0  0  0  0  0  0  0  0  0  0  0  0
   36.3550   29.8980   30.1520 H   0  0  0  0  0  0  0  0  0  0  0  0
   37.6670   27.9760   30.7630 H   0  0  0  0  0  0  0  0  0  0  0  0
   34.4860   30.2050   34.1990 C   0  0  0  0  0  0  0  0  0  0  0  0
   33.3350   29.7660   34.8000 C   0  0  0  0  0  0  0  0  0  0  0  0
   32.6460   30.5600   35.6340 C   0  0  0  0  0  0  0  0  0  0  0  0
   33.1950   31.8510   35.8310 C   0  0  0  0  0  0  0  0  0  0  0  0
   34.7070   31.8600   34.7860 S   0  0  0  0  0  0  0  0  0  0  0  0
   33.0260   28.7540   34.5620 H   0  0  0  0  0  0  0  0  0  0  0  0
   31.7470   30.3300   36.1540 H   0  0  0  0  0  0  0  0  0  0  0  0
   32.7690   32.9360   36.6110 N   0  0  0  0  0  0  0  0  0  0  0  0
   33.5480   33.6540   37.6030 C   0  0  0  0  0  3  0  0  0  0  0  0
   34.6340   33.5980   37.4480 H   0  0  0  0  0  0  0  0  0  0  0  0
   33.1290   35.1200   37.4300 C   0  0  0  0  0  3  0  0  0  0  0  0
   33.0590   35.2930   36.3400 H   0  0  0  0  0  0  0  0  0  0  0  0
   31.8630   35.1920   37.9640 O   0  0  0  0  0  0  0  0  0  0  0  0
   30.9250   34.4400   37.3110 C   0  0  0  0  0  2  0  0  0  0  0  0
   31.4200   33.3820   36.4020 C   0  0  0  0  0  2  0  0  0  0  0  0
   37.8560   26.7870   33.0970 C   0  0  1  0  0  0  0  0  0  0  0  0
   38.8540   27.3630   32.9170 H   0  0  0  0  0  0  0  0  0  0  0  0
   37.9210   26.2990   34.5300 C   0  0  2  0  0  0  0  0  0  0  0  0
   39.2750   26.7440   35.0840 C   0  0  0  0  0  0  0  0  0  0  0  0
   38.8990   25.3150   34.9220 C   0  0  1  0  0  0  0  0  0  0  0  0
   37.0220   26.5230   35.1100 H   0  0  0  0  0  0  0  0  0  0  0  0
   39.2000   27.2100   36.0880 H   0  0  0  0  0  0  0  0  0  0  0  0
   40.1070   27.0780   34.4770 H   0  0  0  0  0  0  0  0  0  0  0  0
   39.2870   24.6990   34.0850 H   0  0  0  0  0  0  0  0  0  0  0  0
   38.8910   24.5600   36.1830 C   0  0  0  0  0  0  0  0  0  0  0  0
   39.7770   23.5220   36.3130 C   0  0  0  0  0  0  0  0  0  0  0  0
   39.7660   22.8520   37.5100 C   0  0  0  0  0  0  0  0  0  0  0  0
   38.9270   23.1700   38.5530 C   0  0  0  0  0  0  0  0  0  0  0  0
   38.0440   24.2250   38.3850 C   0  0  0  0  0  0  0  0  0  0  0  0
   38.0430   24.8920   37.2160 N   0  0  0  0  0  0  0  0  0  0  0  0
   40.4560   23.2310   35.5270 H   0  0  0  0  0  0  0  0  0  0  0  0
   40.4460   22.0250   37.6640 H   0  0  0  0  0  0  0  0  0  0  0  0
   38.8670   22.6890   39.5130 H   0  0  0  0  0  0  0  0  0  0  0  0
   37.3250   24.5930   39.1100 H   0  0  0  0  0  0  0  0  0  0  0  0
   38.1040   25.8590   32.2170 O   0  0  0  0  0  0  0  0  0  0  0  0
   37.3510   25.3740   31.8140 H   0  0  0  0  0  0  0  0  0  0  0  0
  1  2  2  0  0  0  0
  1  6  1  0  0  0  0
  2  3  1  0  0  0  0
  3 24  1  0  0  0  0
  3  4  2  0  0  0  0
  5  4  1  0  0  0  0
  5  9  1  0  0  0  0
  6  5  2  0  0  0  0
  7  1  1  0  0  0  0
  8  2  1  0  0  0  0
  9 13  1  0  0  0  0
  9 10  2  0  0  0  0
 10 11  1  0  0  0  0
 11 12  2  0  0  0  0
 11 15  1  0  0  0  0
 12 16  1  0  0  0  0
 13 12  1  0  0  0  0
 14 10  1  0  0  0  0
 16 17  1  0  0  0  0
 18 17  1  0  0  0  0
 19 17  1  0  0  0  0
 19 21  1  0  0  0  0
 20 19  1  0  0  0  0
 22 21  1  0  0  0  0
 23 16  1  0  0  0  0
 23 22  1  0  0  0  0
 24 25  1  6  0  0  0
 24 26  1  0  0  0  0
 26 28  1  0  0  0  0
 26 27  1  0  0  0  0
 26 29  1  1  0  0  0
 27 30  1  0  0  0  0
 28 32  1  6  0  0  0
 28 27  1  0  0  0  0
 28 33  1  0  0  0  0
 31 27  1  0  0  0  0
 33 34  2  0  0  0  0
 33 38  1  0  0  0  0
 34 35  1  0  0  0  0
 35 40  1  0  0  0  0
 35 36  2  0  0  0  0
 36 41  1  0  0  0  0
 37 36  1  0  0  0  0
 37 42  1  0  0  0  0
 38 37  2  0  0  0  0
 39 34  1  0  0  0  0
 43 24  1  0  0  0  0
 44 43  1  0  0  0  0
M  END
>  <minimizedAffinity>
-5.92190409

$$$$

 OpenBabel03272501413D

 44 48  0  0  1  0  0  0  0  0999 V2000
   37.6880   26.9860   34.7990 C   0  0  0  0  0  0  0  0  0  0  0  0
   37.4760   26.2680   33.6440 C   0  0  0  0  0  0  0  0  0  0  0  0
   36.6110   26.7050   32.6310 C   0  0  0  0  0  0  0  0  0  0  0  0
   36.0030   27.8410   32.8210 N   0  0  0  0  0  0  0  0  0  0  0  0
   36.2190   28.5510   33.9760 C   0  0  0  0  0  0  0  0  0  0  0  0
   37.0370   28.1340   34.9370 N   0  0  0  0  0  0  0  0  0  0  0  0
   38.3570   26.6300   35.5640 H   0  0  0  0  0  0  0  0  0  0  0  0
   38.0360   25.3230   33.5700 H   0  0  0  0  0  0  0  0  0  0  0  0
   35.5630   29.8370   34.1990 C   0  0  0  0  0  0  0  0  0  0  0  0
   34.5940   30.5000   33.4900 C   0  0  0  0  0  0  0  0  0  0  0  0
   34.1280   31.6890   33.9040 C   0  0  0  0  0  0  0  0  0  0  0  0
   34.7070   32.1830   35.0990 C   0  0  0  0  0  0  0  0  0  0  0  0
   35.9200   30.8880   35.5790 S   0  0  0  0  0  0  0  0  0  0  0  0
   34.2360   30.0080   32.5930 H   0  0  0  0  0  0  0  0  0  0  0  0
   33.3830   32.2900   33.4400 H   0  0  0  0  0  0  0  0  0  0  0  0
   34.4850   33.3620   35.8240 N   0  0  0  0  0  0  0  0  0  0  0  0
   33.3090   33.6950   36.6060 C   0  0  0  0  0  3  0  0  0  0  0  0
   32.7480   32.8220   36.9670 H   0  0  0  0  0  0  0  0  0  0  0  0
   33.8620   34.4300   37.8350 C   0  0  0  0  0  3  0  0  0  0  0  0
   34.7700   33.8760   38.1400 H   0  0  0  0  0  0  0  0  0  0  0  0
   34.2450   35.6660   37.3660 O   0  0  0  0  0  0  0  0  0  0  0  0
   35.2520   35.6390   36.4410 C   0  0  0  0  0  2  0  0  0  0  0  0
   35.5350   34.3410   35.7860 C   0  0  0  0  0  2  0  0  0  0  0  0
   36.4310   25.7830   31.5430 C   0  0  1  0  0  0  0  0  0  0  0  0
   37.3870   26.0540   30.9350 H   0  0  0  0  0  0  0  0  0  0  0  0
   36.5670   24.3110   31.8810 C   0  0  2  0  0  0  0  0  0  0  0  0
   37.5200   23.7120   30.8460 C   0  0  0  0  0  0  0  0  0  0  0  0
   36.0950   23.3050   30.9630 C   0  0  1  0  0  0  0  0  0  0  0  0
   36.7610   24.1210   32.9390 H   0  0  0  0  0  0  0  0  0  0  0  0
   38.3010   23.0680   31.3000 H   0  0  0  0  0  0  0  0  0  0  0  0
   37.7930   24.1880   29.9140 H   0  0  0  0  0  0  0  0  0  0  0  0
   35.3240   23.6650   30.2500 H   0  0  0  0  0  0  0  0  0  0  0  0
   35.9090   21.8820   31.2780 C   0  0  0  0  0  0  0  0  0  0  0  0
   35.1100   21.5620   32.3440 C   0  0  0  0  0  0  0  0  0  0  0  0
   34.9330   20.2250   32.5990 C   0  0  0  0  0  0  0  0  0  0  0  0
   35.5100   19.2250   31.8510 C   0  0  0  0  0  0  0  0  0  0  0  0
   36.3130   19.5870   30.7810 C   0  0  0  0  0  0  0  0  0  0  0  0
   36.4950   20.8940   30.5180 N   0  0  0  0  0  0  0  0  0  0  0  0
   34.6340   22.3060   32.9630 H   0  0  0  0  0  0  0  0  0  0  0  0
   34.3100   19.9180   33.4300 H   0  0  0  0  0  0  0  0  0  0  0  0
   35.4130   18.1630   31.9960 H   0  0  0  0  0  0  0  0  0  0  0  0
   36.8320   18.9180   30.1030 H   0  0  0  0  0  0  0  0  0  0  0  0
   35.6060   26.0190   30.5630 O   0  0  0  0  0  0  0  0  0  0  0  0
   34.6730   26.2450   30.7720 H   0  0  0  0  0  0  0  0  0  0  0  0
  1  6  1  0  0  0  0
  1  7  1  0  0  0  0
  2  1  2  0  0  0  0
  3  4  2  0  0  0  0
  3  2  1  0  0  0  0
  4  5  1  0  0  0  0
  5  9  1  0  0  0  0
  5  6  2  0  0  0  0
  8  2  1  0  0  0  0
  9 13  1  0  0  0  0
 10 11  1  0  0  0  0
 10  9  2  0  0  0  0
 11 12  2  0  0  0  0
 12 13  1  0  0  0  0
 12 16  1  0  0  0  0
 14 10  1  0  0  0  0
 15 11  1  0  0  0  0
 16 17  1  0  0  0  0
 17 18  1  0  0  0  0
 17 19  1  0  0  0  0
 19 20  1  0  0  0  0
 21 19  1  0  0  0  0
 22 21  1  0  0  0  0
 23 16  1  0  0  0  0
 23 22  1  0  0  0  0
 24 25  1  6  0  0  0
 24 26  1  0  0  0  0
 24  3  1  0  0  0  0
 26 29  1  1  0  0  0
 27 28  1  0  0  0  0
 27 30  1  0  0  0  0
 27 26  1  0  0  0  0
 28 32  1  6  0  0  0
 28 33  1  0  0  0  0
 28 26  1  0  0  0  0
 31 27  1  0  0  0  0
 33 34  1  0  0  0  0
 34 35  2  0  0  0  0
 34 39  1  0  0  0  0
 35 40  1  0  0  0  0
 36 41  1  0  0  0  0
 36 35  1  0  0  0  0
 37 36  2  0  0  0  0
 38 37  1  0  0  0  0
 38 33  2  0  0  0  0
 42 37  1  0  0  0  0
 43 44  1  0  0  0  0
 43 24  1  0  0  0  0
M  END
>  <minimizedAffinity>
-5.78108931

$$$$

 OpenBabel03272501413D

 44 48  0  0  1  0  0  0  0  0999 V2000
   38.7440   26.0770   30.3520 C   0  0  0  0  0  0  0  0  0  0  0  0
   38.3460   24.8150   30.7340 C   0  0  0  0  0  0  0  0  0  0  0  0
   37.3750   24.5960   31.7220 C   0  0  0  0  0  0  0  0  0  0  0  0
   36.8460   25.6490   32.2760 N   0  0  0  0  0  0  0  0  0  0  0  0
   37.2480   26.9040   31.8900 C   0  0  0  0  0  0  0  0  0  0  0  0
   38.1710   27.1100   30.9570 N   0  0  0  0  0  0  0  0  0  0  0  0
   39.4930   26.2200   29.5910 H   0  0  0  0  0  0  0  0  0  0  0  0
   38.8450   23.9870   30.2080 H   0  0  0  0  0  0  0  0  0  0  0  0
   36.6520   28.0980   32.4840 C   0  0  0  0  0  0  0  0  0  0  0  0
   36.2080   29.2680   31.9240 C   0  0  0  0  0  0  0  0  0  0  0  0
   35.6760   30.2390   32.6840 C   0  0  0  0  0  0  0  0  0  0  0  0
   35.6180   29.9570   34.0720 C   0  0  0  0  0  0  0  0  0  0  0  0
   36.3460   28.2750   34.2190 S   0  0  0  0  0  0  0  0  0  0  0  0
   36.3100   29.3540   30.8490 H   0  0  0  0  0  0  0  0  0  0  0  0
   35.3000   31.1810   32.3640 H   0  0  0  0  0  0  0  0  0  0  0  0
   35.1430   30.7070   35.1560 N   0  0  0  0  0  0  0  0  0  0  0  0
   35.9250   31.5560   36.0360 C   0  0  0  0  0  3  0  0  0  0  0  0
   36.8530   31.9350   35.5880 H   0  0  0  0  0  0  0  0  0  0  0  0
   35.0170   32.7620   36.3120 C   0  0  0  0  0  3  0  0  0  0  0  0
   34.5370   33.0120   35.3460 H   0  0  0  0  0  0  0  0  0  0  0  0
   34.0490   32.2890   37.1670 O   0  0  0  0  0  0  0  0  0  0  0  0
   33.2500   31.3110   36.6410 C   0  0  0  0  0  2  0  0  0  0  0  0
   33.7340   30.6260   35.4210 C   0  0  0  0  0  2  0  0  0  0  0  0
   37.1570   23.2180   32.0680 C   0  0  1  0  0  0  0  0  0  0  0  0
   37.4570   22.7410   31.0480 H   0  0  0  0  0  0  0  0  0  0  0  0
   38.1060   22.6240   33.0900 C   0  0  2  0  0  0  0  0  0  0  0  0
   37.2480   21.8140   34.0630 C   0  0  0  0  0  0  0  0  0  0  0  0
   38.0240   23.0140   34.4750 C   0  0  1  0  0  0  0  0  0  0  0  0
   38.9830   22.1460   32.6470 H   0  0  0  0  0  0  0  0  0  0  0  0
   37.6650   20.8080   34.2730 H   0  0  0  0  0  0  0  0  0  0  0  0
   36.1740   21.9010   34.1540 H   0  0  0  0  0  0  0  0  0  0  0  0
   37.5350   23.9960   34.6430 H   0  0  0  0  0  0  0  0  0  0  0  0
   39.0400   22.7390   35.5000 C   0  0  0  0  0  0  0  0  0  0  0  0
   40.2300   22.1970   35.0920 C   0  0  0  0  0  0  0  0  0  0  0  0
   41.1700   21.9760   36.0670 C   0  0  0  0  0  0  0  0  0  0  0  0
   40.9700   22.2660   37.3960 C   0  0  0  0  0  0  0  0  0  0  0  0
   39.7540   22.8130   37.7730 C   0  0  0  0  0  0  0  0  0  0  0  0
   38.8220   23.0360   36.8270 N   0  0  0  0  0  0  0  0  0  0  0  0
   40.4380   21.9500   34.0630 H   0  0  0  0  0  0  0  0  0  0  0  0
   42.1280   21.5490   35.7970 H   0  0  0  0  0  0  0  0  0  0  0  0
   41.6620   22.1190   38.2080 H   0  0  0  0  0  0  0  0  0  0  0  0
   39.4500   23.0940   38.7760 H   0  0  0  0  0  0  0  0  0  0  0  0
   35.9670   22.6890   32.0910 O   0  0  0  0  0  0  0  0  0  0  0  0
   35.2630   23.1260   32.6180 H   0  0  0  0  0  0  0  0  0  0  0  0
  1  2  2  0  0  0  0
  1  6  1  0  0  0  0
  2  3  1  0  0  0  0
  3 24  1  0  0  0  0
  3  4  2  0  0  0  0
  5  4  1  0  0  0  0
  5  9  1  0  0  0  0
  6  5  2  0  0  0  0
  7  1  1  0  0  0  0
  8  2  1  0  0  0  0
  9 13  1  0  0  0  0
 10  9  2  0  0  0  0
 10 11  1  0  0  0  0
 11 12  2  0  0  0  0
 12 13  1  0  0  0  0
 12 16  1  0  0  0  0
 14 10  1  0  0  0  0
 15 11  1  0  0  0  0
 16 23  1  0  0  0  0
 16 17  1  0  0  0  0
 17 19  1  0  0  0  0
 18 17  1  0  0  0  0
 19 21  1  0  0  0  0
 20 19  1  0  0  0  0
 22 21  1  0  0  0  0
 23 22  1  0  0  0  0
 24 25  1  6  0  0  0
 24 43  1  0  0  0  0
 24 26  1  0  0  0  0
 26 29  1  6  0  0  0
 26 27  1  0  0  0  0
 26 28  1  0  0  0  0
 27 31  1  0  0  0  0
 27 30  1  0  0  0  0
 27 28  1  0  0  0  0
 28 32  1  1  0  0  0
 28 33  1  0  0  0  0
 33 38  1  0  0  0  0
 34 33  2  0  0  0  0
 34 35  1  0  0  0  0
 35 36  2  0  0  0  0
 36 37  1  0  0  0  0
 36 41  1  0  0  0  0
 37 42  1  0  0  0  0
 38 37  2  0  0  0  0
 39 34  1  0  0  0  0
 40 35  1  0  0  0  0
 43 44  1  0  0  0  0
M  END
>  <minimizedAffinity>
-5.7805438

$$$$

 OpenBabel03272501413D

 44 48  0  0  1  0  0  0  0  0999 V2000
   36.1800   25.2280   31.3140 C   0  0  0  0  0  0  0  0  0  0  0  0
   35.9480   26.5800   31.4410 C   0  0  0  0  0  0  0  0  0  0  0  0
   36.4610   27.3370   32.5030 C   0  0  0  0  0  0  0  0  0  0  0  0
   37.1850   26.7070   33.3840 N   0  0  0  0  0  0  0  0  0  0  0  0
   37.4120   25.3600   33.2500 C   0  0  0  0  0  0  0  0  0  0  0  0
   36.9210   24.6420   32.2450 N   0  0  0  0  0  0  0  0  0  0  0  0
   35.7730   24.6670   30.4890 H   0  0  0  0  0  0  0  0  0  0  0  0
   35.3290   27.0260   30.6480 H   0  0  0  0  0  0  0  0  0  0  0  0
   38.2380   24.6380   34.2150 C   0  0  0  0  0  0  0  0  0  0  0  0
   38.1580   24.5290   35.5790 C   0  0  0  0  0  0  0  0  0  0  0  0
   39.0400   23.7860   36.2650 C   0  0  0  0  0  0  0  0  0  0  0  0
   40.0310   23.1450   35.4800 C   0  0  0  0  0  0  0  0  0  0  0  0
   39.6370   23.6540   33.7590 S   0  0  0  0  0  0  0  0  0  0  0  0
   37.3500   25.0710   36.0570 H   0  0  0  0  0  0  0  0  0  0  0  0
   39.0770   23.6270   37.3170 H   0  0  0  0  0  0  0  0  0  0  0  0
   41.0990   22.3070   35.8290 N   0  0  0  0  0  0  0  0  0  0  0  0
   42.1870   21.8790   34.9700 C   0  0  0  0  0  3  0  0  0  0  0  0
   42.3930   22.5600   34.1330 H   0  0  0  0  0  0  0  0  0  0  0  0
   43.4200   21.8800   35.8830 C   0  0  0  0  0  3  0  0  0  0  0  0
   43.3400   22.7920   36.5050 H   0  0  0  0  0  0  0  0  0  0  0  0
   43.2590   20.7830   36.6970 O   0  0  0  0  0  0  0  0  0  0  0  0
   42.1670   20.8360   37.5180 C   0  0  0  0  0  2  0  0  0  0  0  0
   41.1150   21.8230   37.1810 C   0  0  0  0  0  2  0  0  0  0  0  0
   36.0360   28.7100   32.5360 C   0  0  1  0  0  0  0  0  0  0  0  0
   35.1400   28.6240   31.7950 H   0  0  0  0  0  0  0  0  0  0  0  0
   35.4400   29.1970   33.8410 C   0  0  2  0  0  0  0  0  0  0  0  0
   33.9420   29.3870   33.5940 C   0  0  0  0  0  0  0  0  0  0  0  0
   34.8550   30.5110   33.9310 C   0  0  1  0  0  0  0  0  0  0  0  0
   35.7540   28.6140   34.7100 H   0  0  0  0  0  0  0  0  0  0  0  0
   33.3120   28.9470   34.3940 H   0  0  0  0  0  0  0  0  0  0  0  0
   33.4830   29.4370   32.6160 H   0  0  0  0  0  0  0  0  0  0  0  0
   35.2140   31.2230   33.1590 H   0  0  0  0  0  0  0  0  0  0  0  0
   34.5030   31.2050   35.1770 C   0  0  0  0  0  0  0  0  0  0  0  0
   35.3550   32.1790   35.6300 C   0  0  0  0  0  0  0  0  0  0  0  0
   34.9870   32.8280   36.7810 C   0  0  0  0  0  0  0  0  0  0  0  0
   33.8340   32.5490   37.4780 C   0  0  0  0  0  0  0  0  0  0  0  0
   32.9970   31.5580   36.9910 C   0  0  0  0  0  0  0  0  0  0  0  0
   33.3440   30.9120   35.8620 N   0  0  0  0  0  0  0  0  0  0  0  0
   36.2700   32.4370   35.1230 H   0  0  0  0  0  0  0  0  0  0  0  0
   35.6250   33.6060   37.1820 H   0  0  0  0  0  0  0  0  0  0  0  0
   33.4880   33.0180   38.3830 H   0  0  0  0  0  0  0  0  0  0  0  0
   32.0600   31.2270   37.4250 H   0  0  0  0  0  0  0  0  0  0  0  0
   36.6470   29.6410   31.8610 O   0  0  0  0  0  0  0  0  0  0  0  0
   37.6180   29.7450   31.9680 H   0  0  0  0  0  0  0  0  0  0  0  0
  1  2  2  0  0  0  0
  1  6  1  0  0  0  0
  2  3  1  0  0  0  0
  3 24  1  0  0  0  0
  3  4  2  0  0  0  0
  5  4  1  0  0  0  0
  5  9  1  0  0  0  0
  6  5  2  0  0  0  0
  7  1  1  0  0  0  0
  8  2  1  0  0  0  0
  9 10  2  0  0  0  0
 10 14  1  0  0  0  0
 10 11  1  0  0  0  0
 11 15  1  0  0  0  0
 12 16  1  0  0  0  0
 12 11  2  0  0  0  0
 13  9  1  0  0  0  0
 13 12  1  0  0  0  0
 16 23  1  0  0  0  0
 17 16  1  0  0  0  0
 17 19  1  0  0  0  0
 18 17  1  0  0  0  0
 19 20  1  0  0  0  0
 19 21  1  0  0  0  0
 21 22  1  0  0  0  0
 23 22  1  0  0  0  0
 24 25  1  6  0  0  0
 24 26  1  0  0  0  0
 26 28  1  0  0  0  0
 26 29  1  1  0  0  0
 27 26  1  0  0  0  0
 27 28  1  0  0  0  0
 27 30  1  0  0  0  0
 28 32  1  6  0  0  0
 28 33  1  0  0  0  0
 31 27  1  0  0  0  0
 33 34  2  0  0  0  0
 33 38  1  0  0  0  0
 34 35  1  0  0  0  0
 35 40  1  0  0  0  0
 35 36  2  0  0  0  0
 36 41  1  0  0  0  0
 37 42  1  0  0  0  0
 37 36  1  0  0  0  0
 38 37  2  0  0  0  0
 39 34  1  0  0  0  0
 43 44  1  0  0  0  0
 43 24  1  0  0  0  0
M  END
>  <minimizedAffinity>
-5.76648331

$$$$

 OpenBabel03272501413D

 44 48  0  0  1  0  0  0  0  0999 V2000
   37.5330   28.2120   29.7470 C   0  0  0  0  0  0  0  0  0  0  0  0
   36.6440   29.1630   30.1980 C   0  0  0  0  0  0  0  0  0  0  0  0
   36.1000   29.1340   31.4890 C   0  0  0  0  0  0  0  0  0  0  0  0
   36.4730   28.1600   32.2690 N   0  0  0  0  0  0  0  0  0  0  0  0
   37.3600   27.2160   31.8110 C   0  0  0  0  0  0  0  0  0  0  0  0
   37.8720   27.2420   30.5860 N   0  0  0  0  0  0  0  0  0  0  0  0
   37.9370   28.2540   28.7490 H   0  0  0  0  0  0  0  0  0  0  0  0
   36.3900   29.9490   29.4710 H   0  0  0  0  0  0  0  0  0  0  0  0
   37.8080   26.1270   32.6760 C   0  0  0  0  0  0  0  0  0  0  0  0
   38.4490   24.9480   32.3960 C   0  0  0  0  0  0  0  0  0  0  0  0
   38.7780   24.0920   33.3760 C   0  0  0  0  0  0  0  0  0  0  0  0
   38.4140   24.4990   34.6830 C   0  0  0  0  0  0  0  0  0  0  0  0
   37.5990   26.1290   34.4340 S   0  0  0  0  0  0  0  0  0  0  0  0
   38.6710   24.7590   31.3520 H   0  0  0  0  0  0  0  0  0  0  0  0
   39.2730   23.1550   33.2800 H   0  0  0  0  0  0  0  0  0  0  0  0
   38.5830   23.8860   35.9330 N   0  0  0  0  0  0  0  0  0  0  0  0
   39.2000   22.5990   36.1940 C   0  0  0  0  0  3  0  0  0  0  0  0
   39.9180   22.2810   35.4260 H   0  0  0  0  0  0  0  0  0  0  0  0
   39.9800   22.8070   37.4990 C   0  0  0  0  0  3  0  0  0  0  0  0
   40.4520   23.8040   37.4190 H   0  0  0  0  0  0  0  0  0  0  0  0
   39.0180   22.8600   38.4820 O   0  0  0  0  0  0  0  0  0  0  0  0
   38.1500   23.9110   38.3750 C   0  0  0  0  0  2  0  0  0  0  0  0
   38.0910   24.6100   37.0710 C   0  0  0  0  0  2  0  0  0  0  0  0
   35.1120   30.1430   31.7570 C   0  0  1  0  0  0  0  0  0  0  0  0
   34.1600   29.5030   31.5530 H   0  0  0  0  0  0  0  0  0  0  0  0
   34.9930   30.6010   33.1970 C   0  0  2  0  0  0  0  0  0  0  0  0
   33.6850   30.0190   33.7350 C   0  0  0  0  0  0  0  0  0  0  0  0
   33.9230   31.4810   33.5980 C   0  0  1  0  0  0  0  0  0  0  0  0
   35.9060   30.4550   33.7800 H   0  0  0  0  0  0  0  0  0  0  0  0
   33.7980   29.5470   34.7320 H   0  0  0  0  0  0  0  0  0  0  0  0
   32.8920   29.6180   33.1180 H   0  0  0  0  0  0  0  0  0  0  0  0
   33.4830   32.0700   32.7670 H   0  0  0  0  0  0  0  0  0  0  0  0
   33.8520   32.2130   34.8700 C   0  0  0  0  0  0  0  0  0  0  0  0
   34.6910   31.8220   35.8810 C   0  0  0  0  0  0  0  0  0  0  0  0
   34.6220   32.5410   37.0480 C   0  0  0  0  0  0  0  0  0  0  0  0
   33.7710   33.6040   37.2370 C   0  0  0  0  0  0  0  0  0  0  0  0
   32.9360   33.9700   36.1930 C   0  0  0  0  0  0  0  0  0  0  0  0
   32.9930   33.2750   35.0420 N   0  0  0  0  0  0  0  0  0  0  0  0
   35.3770   30.9960   35.7850 H   0  0  0  0  0  0  0  0  0  0  0  0
   35.2640   32.2730   37.8770 H   0  0  0  0  0  0  0  0  0  0  0  0
   33.6670   34.2080   38.1220 H   0  0  0  0  0  0  0  0  0  0  0  0
   32.2160   34.7820   36.1910 H   0  0  0  0  0  0  0  0  0  0  0  0
   34.8110   31.0670   30.8900 O   0  0  0  0  0  0  0  0  0  0  0  0
   35.5330   31.6110   30.5060 H   0  0  0  0  0  0  0  0  0  0  0  0
  1  2  2  0  0  0  0
  1  6  1  0  0  0  0
  2  3  1  0  0  0  0
  3 24  1  0  0  0  0
  3  4  2  0  0  0  0
  5  4  1  0  0  0  0
  5  9  1  0  0  0  0
  6  5  2  0  0  0  0
  7  1  1  0  0  0  0
  8  2  1  0  0  0  0
  9 13  1  0  0  0  0
 10  9  2  0  0  0  0
 10 11  1  0  0  0  0
 11 12  2  0  0  0  0
 12 16  1  0  0  0  0
 13 12  1  0  0  0  0
 14 10  1  0  0  0  0
 15 11  1  0  0  0  0
 16 17  1  0  0  0  0
 16 23  1  0  0  0  0
 17 19  1  0  0  0  0
 18 17  1  0  0  0  0
 19 21  1  0  0  0  0
 20 19  1  0  0  0  0
 22 21  1  0  0  0  0
 23 22  1  0  0  0  0
 24 25  1  6  0  0  0
 24 26  1  0  0  0  0
 26 28  1  0  0  0  0
 26 27  1  0  0  0  0
 26 29  1  1  0  0  0
 27 30  1  0  0  0  0
 28 32  1  6  0  0  0
 28 27  1  0  0  0  0
 28 33  1  0  0  0  0
 31 27  1  0  0  0  0
 33 38  2  0  0  0  0
 33 34  1  0  0  0  0
 34 35  2  0  0  0  0
 35 36  1  0  0  0  0
 35 40  1  0  0  0  0
 36 41  1  0  0  0  0
 37 36  2  0  0  0  0
 38 37  1  0  0  0  0
 39 34  1  0  0  0  0
 42 37  1  0  0  0  0
 43 24  1  0  0  0  0
 44 43  1  0  0  0  0
M  END
>  <minimizedAffinity>
-5.71677303

$$$$

 OpenBabel03272501413D

 44 48  0  0  1  0  0  0  0  0999 V2000
   38.1670   26.9660   34.7210 C   0  0  0  0  0  0  0  0  0  0  0  0
   37.8790   26.2590   33.5740 C   0  0  0  0  0  0  0  0  0  0  0  0
   36.8110   26.5930   32.7310 C   0  0  0  0  0  0  0  0  0  0  0  0
   36.0850   27.6200   33.0710 N   0  0  0  0  0  0  0  0  0  0  0  0
   36.3790   28.3190   34.2150 C   0  0  0  0  0  0  0  0  0  0  0  0
   37.3890   28.0000   35.0160 N   0  0  0  0  0  0  0  0  0  0  0  0
   38.9930   26.6900   35.3540 H   0  0  0  0  0  0  0  0  0  0  0  0
   38.5490   25.4110   33.3670 H   0  0  0  0  0  0  0  0  0  0  0  0
   35.5900   29.4870   34.6040 C   0  0  0  0  0  0  0  0  0  0  0  0
   35.9440   30.6590   35.2200 C   0  0  0  0  0  0  0  0  0  0  0  0
   35.0300   31.6100   35.4690 C   0  0  0  0  0  0  0  0  0  0  0  0
   33.7100   31.3050   35.0530 C   0  0  0  0  0  0  0  0  0  0  0  0
   33.8510   29.6300   34.3090 S   0  0  0  0  0  0  0  0  0  0  0  0
   36.9890   30.7650   35.4850 H   0  0  0  0  0  0  0  0  0  0  0  0
   35.1860   32.5530   35.9370 H   0  0  0  0  0  0  0  0  0  0  0  0
   32.5140   32.0310   35.1410 N   0  0  0  0  0  0  0  0  0  0  0  0
   31.8660   32.7730   34.0760 C   0  0  0  0  0  3  0  0  0  0  0  0
   32.1150   32.4210   33.0660 H   0  0  0  0  0  0  0  0  0  0  0  0
   30.3670   32.5280   34.2960 C   0  0  0  0  0  3  0  0  0  0  0  0
   30.2670   31.4590   34.5620 H   0  0  0  0  0  0  0  0  0  0  0  0
   30.0430   33.2830   35.4000 O   0  0  0  0  0  0  0  0  0  0  0  0
   30.6730   32.9060   36.5540 C   0  0  0  0  0  2  0  0  0  0  0  0
   31.8640   32.0370   36.4220 C   0  0  0  0  0  2  0  0  0  0  0  0
   36.5920   25.6870   31.6360 C   0  0  1  0  0  0  0  0  0  0  0  0
   37.5620   25.9200   31.0320 H   0  0  0  0  0  0  0  0  0  0  0  0
   36.6620   24.2090   31.9630 C   0  0  2  0  0  0  0  0  0  0  0  0
   37.6480   23.5880   30.9720 C   0  0  0  0  0  0  0  0  0  0  0  0
   36.2050   23.2280   31.0110 C   0  0  1  0  0  0  0  0  0  0  0  0
   36.7950   24.0020   33.0280 H   0  0  0  0  0  0  0  0  0  0  0  0
   38.3830   22.9140   31.4580 H   0  0  0  0  0  0  0  0  0  0  0  0
   37.9840   24.0630   30.0610 H   0  0  0  0  0  0  0  0  0  0  0  0
   35.4850   23.6200   30.2630 H   0  0  0  0  0  0  0  0  0  0  0  0
   35.9580   21.8090   31.3000 C   0  0  0  0  0  0  0  0  0  0  0  0
   35.1310   21.5050   32.3510 C   0  0  0  0  0  0  0  0  0  0  0  0
   34.8960   20.1730   32.5810 C   0  0  0  0  0  0  0  0  0  0  0  0
   35.4410   19.1620   31.8240 C   0  0  0  0  0  0  0  0  0  0  0  0
   36.2730   19.5070   30.7710 C   0  0  0  0  0  0  0  0  0  0  0  0
   36.5120   20.8100   30.5320 N   0  0  0  0  0  0  0  0  0  0  0  0
   34.6780   22.2590   32.9750 H   0  0  0  0  0  0  0  0  0  0  0  0
   34.2500   19.8790   33.3980 H   0  0  0  0  0  0  0  0  0  0  0  0
   35.2990   18.1030   31.9500 H   0  0  0  0  0  0  0  0  0  0  0  0
   36.7730   18.8280   30.0880 H   0  0  0  0  0  0  0  0  0  0  0  0
   35.7820   25.9670   30.6550 O   0  0  0  0  0  0  0  0  0  0  0  0
   34.8590   26.2330   30.8630 H   0  0  0  0  0  0  0  0  0  0  0  0
  1  6  1  0  0  0  0
  1  7  1  0  0  0  0
  2  1  2  0  0  0  0
  3  4  2  0  0  0  0
  3  2  1  0  0  0  0
  4  5  1  0  0  0  0
  5  9  1  0  0  0  0
  5  6  2  0  0  0  0
  8  2  1  0  0  0  0
  9 10  2  0  0  0  0
 10 11  1  0  0  0  0
 10 14  1  0  0  0  0
 11 15  1  0  0  0  0
 12 16  1  0  0  0  0
 12 11  2  0  0  0  0
 13  9  1  0  0  0  0
 13 12  1  0  0  0  0
 16 23  1  0  0  0  0
 17 19  1  0  0  0  0
 17 16  1  0  0  0  0
 18 17  1  0  0  0  0
 19 20  1  0  0  0  0
 19 21  1  0  0  0  0
 21 22  1  0  0  0  0
 23 22  1  0  0  0  0
 24 25  1  6  0  0  0
 24 26  1  0  0  0  0
 24  3  1  0  0  0  0
 26 29  1  1  0  0  0
 27 28  1  0  0  0  0
 27 30  1  0  0  0  0
 27 26  1  0  0  0  0
 28 32  1  6  0  0  0
 28 33  1  0  0  0  0
 28 26  1  0  0  0  0
 31 27  1  0  0  0  0
 33 34  1  0  0  0  0
 34 35  2  0  0  0  0
 34 39  1  0  0  0  0
 35 40  1  0  0  0  0
 36 41  1  0  0  0  0
 36 35  1  0  0  0  0
 37 36  2  0  0  0  0
 38 37  1  0  0  0  0
 38 33  2  0  0  0  0
 42 37  1  0  0  0  0
 43 44  1  0  0  0  0
 43 24  1  0  0  0  0
M  END
>  <minimizedAffinity>
-5.69870377

$$$$

 OpenBabel03272501413D

 44 48  0  0  1  0  0  0  0  0999 V2000
   38.3740   28.7000   29.8310 C   0  0  0  0  0  0  0  0  0  0  0  0
   37.3770   29.4600   30.4020 C   0  0  0  0  0  0  0  0  0  0  0  0
   36.3470   28.8980   31.1690 C   0  0  0  0  0  0  0  0  0  0  0  0
   36.3650   27.6060   31.3310 N   0  0  0  0  0  0  0  0  0  0  0  0
   37.3630   26.8570   30.7590 C   0  0  0  0  0  0  0  0  0  0  0  0
   38.3370   27.3890   30.0290 N   0  0  0  0  0  0  0  0  0  0  0  0
   39.1550   29.1540   29.2440 H   0  0  0  0  0  0  0  0  0  0  0  0
   37.4460   30.5410   30.2130 H   0  0  0  0  0  0  0  0  0  0  0  0
   37.4140   25.4080   30.9460 C   0  0  0  0  0  0  0  0  0  0  0  0
   38.4320   24.5050   30.7820 C   0  0  0  0  0  0  0  0  0  0  0  0
   38.2430   23.1990   31.0310 C   0  0  0  0  0  0  0  0  0  0  0  0
   36.9410   22.8480   31.4640 C   0  0  0  0  0  0  0  0  0  0  0  0
   36.0320   24.4460   31.4920 S   0  0  0  0  0  0  0  0  0  0  0  0
   39.3800   24.9070   30.4460 H   0  0  0  0  0  0  0  0  0  0  0  0
   38.9530   22.4120   30.9400 H   0  0  0  0  0  0  0  0  0  0  0  0
   36.3740   21.6140   31.8110 N   0  0  0  0  0  0  0  0  0  0  0  0
   35.8880   20.5930   30.9020 C   0  0  0  0  0  3  0  0  0  0  0  0
   36.3500   20.6220   29.9050 H   0  0  0  0  0  0  0  0  0  0  0  0
   36.2940   19.2680   31.5620 C   0  0  0  0  0  3  0  0  0  0  0  0
   37.3170   19.4220   31.9560 H   0  0  0  0  0  0  0  0  0  0  0  0
   35.4350   19.1250   32.6270 O   0  0  0  0  0  0  0  0  0  0  0  0
   35.5520   20.0910   33.5880 C   0  0  0  0  0  2  0  0  0  0  0  0
   36.2660   21.3340   33.2150 C   0  0  0  0  0  2  0  0  0  0  0  0
   35.3350   29.8240   31.6010 C   0  0  1  0  0  0  0  0  0  0  0  0
   34.4260   29.0940   31.5880 H   0  0  0  0  0  0  0  0  0  0  0  0
   35.4420   30.3140   33.0320 C   0  0  2  0  0  0  0  0  0  0  0  0
   34.4880   29.4530   33.8610 C   0  0  0  0  0  0  0  0  0  0  0  0
   34.3060   30.9180   33.6830 C   0  0  1  0  0  0  0  0  0  0  0  0
   36.4710   30.4320   33.3790 H   0  0  0  0  0  0  0  0  0  0  0  0
   34.9480   29.0790   34.7990 H   0  0  0  0  0  0  0  0  0  0  0  0
   33.7040   28.8330   33.4480 H   0  0  0  0  0  0  0  0  0  0  0  0
   33.5480   31.3320   32.9860 H   0  0  0  0  0  0  0  0  0  0  0  0
   34.3480   31.6760   34.9410 C   0  0  0  0  0  0  0  0  0  0  0  0
   33.5490   31.2520   35.9700 C   0  0  0  0  0  0  0  0  0  0  0  0
   33.6290   31.9620   37.1420 C   0  0  0  0  0  0  0  0  0  0  0  0
   34.4520   33.0510   37.3170 C   0  0  0  0  0  0  0  0  0  0  0  0
   35.2440   33.4520   36.2530 C   0  0  0  0  0  0  0  0  0  0  0  0
   35.1780   32.7640   35.0980 N   0  0  0  0  0  0  0  0  0  0  0  0
   32.8860   30.4050   35.8860 H   0  0  0  0  0  0  0  0  0  0  0  0
   33.0190   31.6690   37.9860 H   0  0  0  0  0  0  0  0  0  0  0  0
   34.5620   33.6500   38.2040 H   0  0  0  0  0  0  0  0  0  0  0  0
   35.9400   34.2850   36.2380 H   0  0  0  0  0  0  0  0  0  0  0  0
   34.7950   30.6890   30.7920 O   0  0  0  0  0  0  0  0  0  0  0  0
   35.3800   31.2830   30.2730 H   0  0  0  0  0  0  0  0  0  0  0  0
  1  6  2  0  0  0  0
  1  2  1  0  0  0  0
  2  3  2  0  0  0  0
  3  4  1  0  0  0  0
  3 24  1  0  0  0  0
  5  9  1  0  0  0  0
  5  4  2  0  0  0  0
  6  5  1  0  0  0  0
  7  1  1  0  0  0  0
  8  2  1  0  0  0  0
  9 13  1  0  0  0  0
 10  9  2  0  0  0  0
 10 11  1  0  0  0  0
 11 12  2  0  0  0  0
 12 13  1  0  0  0  0
 12 16  1  0  0  0  0
 14 10  1  0  0  0  0
 15 11  1  0  0  0  0
 16 23  1  0  0  0  0
 17 19  1  0  0  0  0
 17 16  1  0  0  0  0
 18 17  1  0  0  0  0
 19 20  1  0  0  0  0
 19 21  1  0  0  0  0
 21 22  1  0  0  0  0
 23 22  1  0  0  0  0
 24 25  1  1  0  0  0
 24 26  1  0  0  0  0
 26 29  1  1  0  0  0
 26 28  1  0  0  0  0
 26 27  1  0  0  0  0
 27 30  1  0  0  0  0
 28 32  1  6  0  0  0
 28 27  1  0  0  0  0
 28 33  1  0  0  0  0
 31 27  1  0  0  0  0
 33 38  2  0  0  0  0
 33 34  1  0  0  0  0
 34 35  2  0  0  0  0
 35 36  1  0  0  0  0
 35 40  1  0  0  0  0
 36 41  1  0  0  0  0
 37 36  2  0  0  0  0
 38 37  1  0  0  0  0
 39 34  1  0  0  0  0
 42 37  1  0  0  0  0
 43 24  1  0  0  0  0
 44 43  1  0  0  0  0
M  END
>  <minimizedAffinity>
-5.65848446

$$$$

 OpenBabel03272501413D

 44 48  0  0  1  0  0  0  0  0999 V2000
   36.9410   28.5090   29.8710 C   0  0  0  0  0  0  0  0  0  0  0  0
   36.4550   29.6600   30.4500 C   0  0  0  0  0  0  0  0  0  0  0  0
   36.2540   29.7820   31.8320 C   0  0  0  0  0  0  0  0  0  0  0  0
   36.5530   28.7490   32.5680 N   0  0  0  0  0  0  0  0  0  0  0  0
   37.0370   27.6060   31.9830 C   0  0  0  0  0  0  0  0  0  0  0  0
   37.2230   27.4890   30.6720 N   0  0  0  0  0  0  0  0  0  0  0  0
   37.0860   28.4380   28.8060 H   0  0  0  0  0  0  0  0  0  0  0  0
   36.2350   30.4790   29.7500 H   0  0  0  0  0  0  0  0  0  0  0  0
   37.3980   26.4440   32.7920 C   0  0  0  0  0  0  0  0  0  0  0  0
   37.7090   25.1550   32.4450 C   0  0  0  0  0  0  0  0  0  0  0  0
   38.0260   24.2450   33.3800 C   0  0  0  0  0  0  0  0  0  0  0  0
   38.0100   24.7200   34.7150 C   0  0  0  0  0  0  0  0  0  0  0  0
   37.5290   26.4870   34.5570 S   0  0  0  0  0  0  0  0  0  0  0  0
   37.6840   24.9240   31.3860 H   0  0  0  0  0  0  0  0  0  0  0  0
   38.2840   23.2240   33.2310 H   0  0  0  0  0  0  0  0  0  0  0  0
   38.2770   24.0820   35.9350 N   0  0  0  0  0  0  0  0  0  0  0  0
   38.8340   22.7550   36.1200 C   0  0  0  0  0  3  0  0  0  0  0  0
   39.4390   22.4000   35.2750 H   0  0  0  0  0  0  0  0  0  0  0  0
   39.7660   22.8970   37.3300 C   0  0  0  0  0  3  0  0  0  0  0  0
   40.2910   23.8630   37.2020 H   0  0  0  0  0  0  0  0  0  0  0  0
   38.9260   23.0010   38.4150 O   0  0  0  0  0  0  0  0  0  0  0  0
   38.1220   24.1070   38.4100 C   0  0  0  0  0  2  0  0  0  0  0  0
   37.9640   24.8240   37.1240 C   0  0  0  0  0  2  0  0  0  0  0  0
   35.6440   31.0140   32.2530 C   0  0  1  0  0  0  0  0  0  0  0  0
   35.5300   31.5090   31.2050 H   0  0  0  0  0  0  0  0  0  0  0  0
   34.2380   30.9110   32.8100 C   0  0  2  0  0  0  0  0  0  0  0  0
   34.2730   31.5390   34.2040 C   0  0  0  0  0  0  0  0  0  0  0  0
   33.9710   30.1010   33.9730 C   0  0  1  0  0  0  0  0  0  0  0  0
   33.4650   31.2380   32.1110 H   0  0  0  0  0  0  0  0  0  0  0  0
   33.4340   32.2420   34.3820 H   0  0  0  0  0  0  0  0  0  0  0  0
   35.1760   31.7400   34.7650 H   0  0  0  0  0  0  0  0  0  0  0  0
   34.7250   29.3090   34.1590 H   0  0  0  0  0  0  0  0  0  0  0  0
   32.6390   29.6940   34.4410 C   0  0  0  0  0  0  0  0  0  0  0  0
   31.5530   30.0940   33.7070 C   0  0  0  0  0  0  0  0  0  0  0  0
   30.3240   29.6770   34.1520 C   0  0  0  0  0  0  0  0  0  0  0  0
   30.1450   28.8980   35.2710 C   0  0  0  0  0  0  0  0  0  0  0  0
   31.2660   28.5130   35.9890 C   0  0  0  0  0  0  0  0  0  0  0  0
   32.4780   28.9140   35.5640 N   0  0  0  0  0  0  0  0  0  0  0  0
   31.6380   30.7050   32.8220 H   0  0  0  0  0  0  0  0  0  0  0  0
   29.4340   29.9650   33.6080 H   0  0  0  0  0  0  0  0  0  0  0  0
   29.2130   28.5370   35.6740 H   0  0  0  0  0  0  0  0  0  0  0  0
   31.2860   27.9030   36.8860 H   0  0  0  0  0  0  0  0  0  0  0  0
   36.3370   31.9910   32.7630 O   0  0  0  0  0  0  0  0  0  0  0  0
   36.9290   31.8070   33.5250 H   0  0  0  0  0  0  0  0  0  0  0  0
  1  2  2  0  0  0  0
  1  6  1  0  0  0  0
  2  3  1  0  0  0  0
  3 24  1  0  0  0  0
  3  4  2  0  0  0  0
  5  4  1  0  0  0  0
  5  9  1  0  0  0  0
  6  5  2  0  0  0  0
  7  1  1  0  0  0  0
  8  2  1  0  0  0  0
  9 13  1  0  0  0  0
 10  9  2  0  0  0  0
 10 11  1  0  0  0  0
 11 12  2  0  0  0  0
 12 16  1  0  0  0  0
 13 12  1  0  0  0  0
 14 10  1  0  0  0  0
 15 11  1  0  0  0  0
 16 17  1  0  0  0  0
 16 23  1  0  0  0  0
 17 19  1  0  0  0  0
 18 17  1  0  0  0  0
 19 21  1  0  0  0  0
 20 19  1  0  0  0  0
 22 21  1  0  0  0  0
 23 22  1  0  0  0  0
 24 25  1  6  0  0  0
 24 43  1  0  0  0  0
 24 26  1  0  0  0  0
 26 29  1  6  0  0  0
 26 28  1  0  0  0  0
 26 27  1  0  0  0  0
 27 30  1  0  0  0  0
 27 31  1  0  0  0  0
 28 32  1  1  0  0  0
 28 27  1  0  0  0  0
 28 33  1  0  0  0  0
 33 38  1  0  0  0  0
 34 35  1  0  0  0  0
 34 33  2  0  0  0  0
 35 36  2  0  0  0  0
 36 41  1  0  0  0  0
 36 37  1  0  0  0  0
 37 42  1  0  0  0  0
 38 37  2  0  0  0  0
 39 34  1  0  0  0  0
 40 35  1  0  0  0  0
 43 44  1  0  0  0  0
M  END
>  <minimizedAffinity>
-5.6157198

$$$$
