
 OpenBabel03272510193D

 35 38  0  0  0  0  0  0  0  0999 V2000
   37.4190   29.1770   50.8300 Br  0  0  0  0  0  0  0  0  0  0  0  0
   36.0120   29.2740   49.5500 C   0  0  0  0  0  0  0  0  0  0  0  0
   36.0010   30.2840   48.5760 C   0  0  0  0  0  0  0  0  0  0  0  0
   34.9560   30.2930   47.6870 C   0  0  0  0  0  0  0  0  0  0  0  0
   33.9270   29.3630   47.7090 C   0  0  0  0  0  0  0  0  0  0  0  0
   33.9690   28.3900   48.6710 C   0  0  0  0  0  0  0  0  0  0  0  0
   35.0060   28.3610   49.5750 C   0  0  0  0  0  0  0  0  0  0  0  0
   34.9000   31.0530   46.9140 H   0  0  0  0  0  0  0  0  0  0  0  0
   33.1840   27.6430   48.7240 H   0  0  0  0  0  0  0  0  0  0  0  0
   35.0350   27.5890   50.3350 H   0  0  0  0  0  0  0  0  0  0  0  0
   32.8210   29.3730   46.7670 C   0  0  0  0  0  0  0  0  0  0  0  0
   31.9570   28.3250   46.5530 C   0  0  0  0  0  0  0  0  0  0  0  0
   30.9150   28.3790   45.6450 C   0  0  0  0  0  0  0  0  0  0  0  0
   30.7240   29.5020   44.9240 N   0  0  0  0  0  0  0  0  0  0  0  0
   31.5630   30.5230   45.1310 C   0  0  0  0  0  0  0  0  0  0  0  0
   32.5600   30.4560   46.0080 N   0  0  0  0  0  0  0  0  0  0  0  0
   32.1090   27.4110   47.1340 H   0  0  0  0  0  0  0  0  0  0  0  0
   30.2770   27.4990   45.5380 H   0  0  0  0  0  0  0  0  0  0  0  0
   31.3760   31.7140   44.3830 N   0  0  0  0  0  0  0  0  0  0  0  0
   30.1590   32.5000   44.4360 C   0  0  0  0  0  3  0  0  0  0  0  0
   30.3840   33.4490   44.9920 H   0  0  0  0  0  0  0  0  0  0  0  0
   29.6680   32.8210   43.0200 C   0  0  0  0  0  3  0  0  0  0  0  0
   29.1590   31.9320   42.6200 H   0  0  0  0  0  0  0  0  0  0  0  0
   30.6940   33.2470   42.2030 O   0  0  0  0  0  0  0  0  0  0  0  0
   31.7270   32.3390   42.1240 C   0  0  0  0  0  2  0  0  0  0  0  0
   32.3890   32.2520   43.4960 C   0  0  0  0  0  2  0  0  0  0  0  0
   38.0130   33.1860   49.4750 C   0  0  0  0  0  0  0  0  0  0  0  0
   39.0490   33.1790   48.4770 C   0  0  0  0  0  0  0  0  0  0  0  0
   39.0210   32.1790   47.5270 C   0  0  0  0  0  0  0  0  0  0  0  0
   38.0220   31.2410   47.5720 N   0  0  0  0  0  0  0  0  0  0  0  0
   37.0570   31.2700   48.5240 C   0  0  0  0  0  0  0  0  0  0  0  0
   37.0690   32.2470   49.4650 N   0  0  0  0  0  0  0  0  0  0  0  0
   37.9900   33.9480   50.2410 H   0  0  0  0  0  0  0  0  0  0  0  0
   39.8050   33.9530   48.5060 H   0  0  0  0  0  0  0  0  0  0  0  0
   39.7850   32.1380   46.7570 H   0  0  0  0  0  0  0  0  0  0  0  0
  2  7  1  0  0  0  0
  2  1  1  0  0  0  0
  3  2  2  0  0  0  0
  4  5  2  0  0  0  0
  4  3  1  0  0  0  0
  5  6  1  0  0  0  0
  6  9  1  0  0  0  0
  6  7  2  0  0  0  0
  7 10  1  0  0  0  0
  8  4  1  0  0  0  0
 11  5  1  0  0  0  0
 12 11  1  0  0  0  0
 12 17  1  0  0  0  0
 13 12  2  0  0  0  0
 14 15  2  0  0  0  0
 14 13  1  0  0  0  0
 15 16  1  0  0  0  0
 16 11  2  0  0  0  0
 18 13  1  0  0  0  0
 19 20  1  0  0  0  0
 19 15  1  0  0  0  0
 20 21  1  0  0  0  0
 22 20  1  0  0  0  0
 23 22  1  0  0  0  0
 24 22  1  0  0  0  0
 25 24  1  0  0  0  0
 25 26  1  0  0  0  0
 26 19  1  0  0  0  0
 27 33  1  0  0  0  0
 28 34  1  0  0  0  0
 28 27  2  0  0  0  0
 29 30  2  0  0  0  0
 29 28  1  0  0  0  0
 30 31  1  0  0  0  0
 31  3  1  0  0  0  0
 31 32  2  0  0  0  0
 32 27  1  0  0  0  0
 35 29  1  0  0  0  0
M  END
>  <minimizedAffinity>
-6.62705326

>  <minimizedRMSD>
0.33741203

$$$$
