
 OpenBabel03272510243D

 31 34  0  0  1  0  0  0  0  0999 V2000
   35.9290   30.0720   46.9930 C   0  0  0  0  0  0  0  0  0  0  0  0
   36.8650   30.6320   47.8430 C   0  0  0  0  0  0  0  0  0  0  0  0
   37.8390   31.5040   47.3580 C   0  0  0  0  0  0  0  0  0  0  0  0
   37.8140   31.7740   45.9960 C   0  0  0  0  0  0  0  0  0  0  0  0
   38.6560   32.5910   45.2910 N   0  0  0  0  0  0  0  0  0  0  0  0
   38.2380   32.5330   44.0100 C   0  0  0  0  0  0  0  0  0  0  0  0
   37.1890   31.7290   43.8850 N   0  0  0  0  0  0  0  0  0  0  0  0
   36.9000   31.2390   45.1160 C   0  0  0  0  0  0  0  0  0  0  0  0
   35.9350   30.3650   45.6340 C   0  0  0  0  0  0  0  0  0  0  0  0
   35.1650   29.3930   47.3440 H   0  0  0  0  0  0  0  0  0  0  0  0
   38.5600   31.9380   48.0040 H   0  0  0  0  0  0  0  0  0  0  0  0
   39.4570   33.1440   45.6680 H   0  0  0  0  0  0  0  0  0  0  0  0
   35.2110   29.9400   44.9460 H   0  0  0  0  0  0  0  0  0  0  0  0
   37.5800   30.1640   51.5050 C   0  0  0  0  0  0  0  0  0  0  0  0
   37.7820   30.5610   50.1860 C   0  0  0  0  0  0  0  0  0  0  0  0
   36.8070   30.2870   49.2480 C   0  0  0  0  0  0  0  0  0  0  0  0
   35.6860   29.6290   49.6850 N   0  0  0  0  0  0  0  0  0  0  0  0
   35.5000   29.2490   50.9650 C   0  0  0  0  0  0  0  0  0  0  0  0
   36.4380   29.5160   51.8570 N   0  0  0  0  0  0  0  0  0  0  0  0
   38.4050   30.4280   52.1670 H   0  0  0  0  0  0  0  0  0  0  0  0
   38.6520   31.0780   49.8170 H   0  0  0  0  0  0  0  0  0  0  0  0
   34.5900   28.7370   51.2240 H   0  0  0  0  0  0  0  0  0  0  0  0
   38.8930   33.2650   43.0020 O   0  0  0  0  0  0  0  0  0  0  0  0
   40.3130   31.3120   43.5100 H   0  0  0  0  0  0  0  0  0  0  0  0
   39.7760   31.1810   42.6210 N   0  0  0  0  0  0  0  0  0  0  0  0
   39.6780   32.5400   42.0670 C   0  0  1  0  0  3  0  0  0  0  0  0
   38.8930   32.3930   40.7860 C   0  0  0  0  0  3  0  0  0  0  0  0
   37.9490   31.8510   41.0220 H   0  0  0  0  0  0  0  0  0  0  0  0
   39.6570   31.6810   39.8640 O   0  0  0  0  0  0  0  0  0  0  0  0
   40.0660   30.4430   40.3000 C   0  0  0  0  0  2  0  0  0  0  0  0
   40.6330   30.4600   41.7010 C   0  0  0  0  0  2  0  0  0  0  0  0
  1 10  1  0  0  0  0
  1  2  1  0  0  0  0
  2 16  1  0  0  0  0
  3  2  2  0  0  0  0
  3 11  1  0  0  0  0
  4  3  1  0  0  0  0
  5 12  1  0  0  0  0
  5  4  1  0  0  0  0
  6  5  1  0  0  0  0
  7  6  2  0  0  0  0
  7  8  1  0  0  0  0
  8  9  1  0  0  0  0
  8  4  2  0  0  0  0
  9  1  2  0  0  0  0
 13  9  1  0  0  0  0
 14 19  1  0  0  0  0
 14 20  1  0  0  0  0
 15 14  2  0  0  0  0
 16 17  2  0  0  0  0
 16 15  1  0  0  0  0
 17 18  1  0  0  0  0
 18 22  1  0  0  0  0
 18 19  2  0  0  0  0
 21 15  1  0  0  0  0
 23  6  1  0  0  0  0
 25 24  1  0  0  0  0
 26 25  1  0  0  0  0
 26 23  1  1  0  0  0
 27 28  1  0  0  0  0
 27 26  1  0  0  0  0
 29 30  1  0  0  0  0
 29 27  1  0  0  0  0
 30 31  1  0  0  0  0
 31 25  1  0  0  0  0
M  END
>  <minimizedAffinity>
-5.2975378

>  <minimizedRMSD>
2.19600606

$$$$
