
 OpenBabel03272510243D

 31 34  0  0  1  0  0  0  0  0999 V2000
   35.8590   29.9450   47.0820 C   0  0  0  0  0  0  0  0  0  0  0  0
   36.8030   30.5660   47.8800 C   0  0  0  0  0  0  0  0  0  0  0  0
   37.7180   31.4660   47.3350 C   0  0  0  0  0  0  0  0  0  0  0  0
   37.6280   31.6990   45.9700 C   0  0  0  0  0  0  0  0  0  0  0  0
   38.4050   32.5320   45.2120 N   0  0  0  0  0  0  0  0  0  0  0  0
   37.9410   32.4230   43.9500 C   0  0  0  0  0  0  0  0  0  0  0  0
   36.9230   31.5730   43.8870 N   0  0  0  0  0  0  0  0  0  0  0  0
   36.7040   31.1030   45.1400 C   0  0  0  0  0  0  0  0  0  0  0  0
   35.7990   30.2030   45.7180 C   0  0  0  0  0  0  0  0  0  0  0  0
   35.1390   29.2440   47.4800 H   0  0  0  0  0  0  0  0  0  0  0  0
   38.4450   31.9460   47.9410 H   0  0  0  0  0  0  0  0  0  0  0  0
   39.1960   33.1280   45.5420 H   0  0  0  0  0  0  0  0  0  0  0  0
   35.0670   29.7300   45.0700 H   0  0  0  0  0  0  0  0  0  0  0  0
   37.6980   30.1890   51.5130 C   0  0  0  0  0  0  0  0  0  0  0  0
   37.8330   30.5540   50.1760 C   0  0  0  0  0  0  0  0  0  0  0  0
   36.8150   30.2550   49.2950 C   0  0  0  0  0  0  0  0  0  0  0  0
   35.7180   29.6070   49.8010 N   0  0  0  0  0  0  0  0  0  0  0  0
   35.5970   29.2570   51.0980 C   0  0  0  0  0  0  0  0  0  0  0  0
   36.5770   29.5470   51.9370 N   0  0  0  0  0  0  0  0  0  0  0  0
   38.5540   30.4700   52.1270 H   0  0  0  0  0  0  0  0  0  0  0  0
   38.6830   31.0630   49.7520 H   0  0  0  0  0  0  0  0  0  0  0  0
   34.7020   28.7500   51.4140 H   0  0  0  0  0  0  0  0  0  0  0  0
   38.5230   33.1560   42.8990 O   0  0  0  0  0  0  0  0  0  0  0  0
   36.0890   33.0150   42.5230 H   0  0  0  0  0  0  0  0  0  0  0  0
   36.5430   33.6960   41.8720 N   0  0  0  0  0  0  0  0  0  0  0  0
   37.8760   33.1210   41.6350 C   0  0  1  0  0  3  0  0  0  0  0  0
   38.5700   34.0890   40.7090 C   0  0  0  0  0  3  0  0  0  0  0  0
   38.5080   35.1020   41.1630 H   0  0  0  0  0  0  0  0  0  0  0  0
   37.9390   34.0620   39.4670 O   0  0  0  0  0  0  0  0  0  0  0  0
   36.5940   34.3420   39.5050 C   0  0  0  0  0  2  0  0  0  0  0  0
   35.8590   33.5990   40.5960 C   0  0  0  0  0  2  0  0  0  0  0  0
  1 10  1  0  0  0  0
  1  2  1  0  0  0  0
  2 16  1  0  0  0  0
  3  2  2  0  0  0  0
  3 11  1  0  0  0  0
  4  3  1  0  0  0  0
  5 12  1  0  0  0  0
  5  4  1  0  0  0  0
  6  5  1  0  0  0  0
  7  6  2  0  0  0  0
  7  8  1  0  0  0  0
  8  9  1  0  0  0  0
  8  4  2  0  0  0  0
  9  1  2  0  0  0  0
 13  9  1  0  0  0  0
 14 19  1  0  0  0  0
 14 20  1  0  0  0  0
 15 14  2  0  0  0  0
 16 17  2  0  0  0  0
 16 15  1  0  0  0  0
 17 18  1  0  0  0  0
 18 22  1  0  0  0  0
 18 19  2  0  0  0  0
 21 15  1  0  0  0  0
 23  6  1  0  0  0  0
 25 24  1  0  0  0  0
 26 25  1  0  0  0  0
 26 23  1  1  0  0  0
 27 28  1  0  0  0  0
 27 26  1  0  0  0  0
 29 30  1  0  0  0  0
 29 27  1  0  0  0  0
 30 31  1  0  0  0  0
 31 25  1  0  0  0  0
M  END
>  <minimizedAffinity>
-5.18780565

>  <minimizedRMSD>
2.00599933

$$$$
