
 OpenBabel03262520403D

 45 48  0  0  1  0  0  0  0  0999 V2000
   37.0800   31.0120   45.5190 C   0  0  2  0  0  0  0  0  0  0  0  0
   37.6980   30.5090   44.2650 C   0  0  0  0  0  0  0  0  0  0  0  0
   38.9140   29.6230   44.5290 C   0  0  0  0  0  0  0  0  0  0  0  0
   39.9710   30.3890   45.2910 C   0  0  0  0  0  0  0  0  0  0  0  0
   39.4110   31.2080   46.4230 C   0  0  0  0  0  0  0  0  0  0  0  0
   37.9800   30.8170   46.7250 C   0  0  1  0  0  0  0  0  0  0  0  0
   36.8750   32.1220   45.5030 H   0  0  0  0  0  0  0  0  0  0  0  0
   37.1600   30.0390   43.5000 H   0  0  0  0  0  0  0  0  0  0  0  0
   38.1790   31.4360   43.7770 H   0  0  0  0  0  0  0  0  0  0  0  0
   39.3200   29.3870   43.5170 H   0  0  0  0  0  0  0  0  0  0  0  0
   38.6310   28.6970   45.0520 H   0  0  0  0  0  0  0  0  0  0  0  0
   40.5170   31.0240   44.5490 H   0  0  0  0  0  0  0  0  0  0  0  0
   40.7060   29.6500   45.6490 H   0  0  0  0  0  0  0  0  0  0  0  0
   40.0000   31.2160   47.3360 H   0  0  0  0  0  0  0  0  0  0  0  0
   39.3550   32.2590   46.0350 H   0  0  0  0  0  0  0  0  0  0  0  0
   38.0040   29.7410   46.9890 H   0  0  0  0  0  0  0  0  0  0  0  0
   37.4830   31.5570   47.8340 N   0  0  2  0  0  0  0  0  0  0  0  0
   38.1220   32.8400   48.0730 C   0  0  0  0  0  0  0  0  0  0  0  0
   37.5660   33.2070   49.4540 C   0  0  0  0  0  0  0  0  0  0  0  0
   36.9010   31.9390   49.9950 C   0  0  0  0  0  0  0  0  0  0  0  0
   37.6100   30.9310   49.0930 C   0  0  1  0  0  0  0  0  0  0  0  0
   39.2220   32.7210   48.2030 H   0  0  0  0  0  0  0  0  0  0  0  0
   37.8740   33.6010   47.3150 H   0  0  0  0  0  0  0  0  0  0  0  0
   36.8440   34.0270   49.2960 H   0  0  0  0  0  0  0  0  0  0  0  0
   38.3630   33.5720   50.1230 H   0  0  0  0  0  0  0  0  0  0  0  0
   37.2010   31.8710   51.0450 H   0  0  0  0  0  0  0  0  0  0  0  0
   35.8430   32.0640   49.7850 H   0  0  0  0  0  0  0  0  0  0  0  0
   38.7200   31.0890   49.4400 H   0  0  0  0  0  0  0  0  0  0  0  0
   37.3690   29.5900   49.2770 N   0  0  1  0  0  0  0  0  0  0  0  0
   38.1930   28.9870   50.3370 C   0  0  0  0  0  0  0  0  0  0  0  0
   38.5260   28.0080   49.9400 H   0  0  0  0  0  0  0  0  0  0  0  0
   37.3070   28.6910   51.5390 C   0  0  0  0  0  0  0  0  0  0  0  0
   36.8230   27.6980   51.4430 H   0  0  0  0  0  0  0  0  0  0  0  0
   36.2930   29.6340   51.6680 O   0  0  0  0  0  0  0  0  0  0  0  0
   35.3530   29.3620   50.6470 C   0  0  0  0  0  0  0  0  0  0  0  0
   36.0960   29.0070   49.3690 C   0  0  0  0  0  0  0  0  0  0  0  0
   35.7820   30.3800   45.8270 C   0  0  0  0  0  0  0  0  0  0  0  0
   35.4150   29.3280   44.9580 C   0  0  0  0  0  0  0  0  0  0  0  0
   34.2460   28.6640   45.2290 C   0  0  0  0  0  0  0  0  0  0  0  0
   33.4870   29.0350   46.3070 N   0  0  0  0  0  0  0  0  0  0  0  0
   33.8640   30.0580   47.1290 C   0  0  0  0  0  0  0  0  0  0  0  0
   35.0070   30.7110   46.8710 N   0  0  0  0  0  0  0  0  0  0  0  0
   35.8260   28.8710   44.0880 H   0  0  0  0  0  0  0  0  0  0  0  0
   33.7690   27.8420   44.7180 H   0  0  0  0  0  0  0  0  0  0  0  0
   33.2030   30.2970   47.9710 H   0  0  0  0  0  0  0  0  0  0  0  0
  1  7  1  6  0  0  0
  1 37  1  0  0  0  0
  1  6  1  0  0  0  0
  2  3  1  0  0  0  0
  2  1  1  0  0  0  0
  3 11  1  0  0  0  0
  3  4  1  0  0  0  0
  4 13  1  0  0  0  0
  4  5  1  0  0  0  0
  5  6  1  0  0  0  0
  5 14  1  0  0  0  0
  6 16  1  1  0  0  0
  6 17  1  0  0  0  0
  8  2  1  0  0  0  0
  9  2  1  0  0  0  0
 10  3  1  0  0  0  0
 12  4  1  0  0  0  0
 15  5  1  0  0  0  0
 17 18  1  1  0  0  0
 17 21  1  0  0  0  0
 18 22  1  0  0  0  0
 18 19  1  0  0  0  0
 19 20  1  0  0  0  0
 19 25  1  0  0  0  0
 20 26  1  0  0  0  0
 21 29  1  0  0  0  0
 21 28  1  1  0  0  0
 21 20  1  0  0  0  0
 23 18  1  0  0  0  0
 24 19  1  0  0  0  0
 27 20  1  0  0  0  0
 29 36  1  1  0  0  0
 29 30  1  0  0  0  0
 30 32  1  0  0  0  0
 31 30  1  0  0  0  0
 32 34  1  0  0  0  0
 33 32  1  0  0  0  0
 35 34  1  0  0  0  0
 36 35  1  0  0  0  0
 37 42  1  0  0  0  0
 38 39  1  0  0  0  0
 38 37  2  0  0  0  0
 39 40  2  0  0  0  0
 40 41  1  0  0  0  0
 41 45  1  0  0  0  0
 42 41  2  0  0  0  0
 43 38  1  0  0  0  0
 44 39  1  0  0  0  0
M  END
>  <minimizedAffinity>
-4.27036905

>  <minimizedRMSD>
0.832696378

$$$$
