
 OpenBabel03272510183D

 35 38  0  0  0  0  0  0  0  0999 V2000
   37.3330   29.2390   50.8710 Br  0  0  0  0  0  0  0  0  0  0  0  0
   35.9480   29.2840   49.5640 C   0  0  0  0  0  0  0  0  0  0  0  0
   35.9540   30.2530   48.5500 C   0  0  0  0  0  0  0  0  0  0  0  0
   34.9240   30.2250   47.6440 C   0  0  0  0  0  0  0  0  0  0  0  0
   33.8950   29.2960   47.6860 C   0  0  0  0  0  0  0  0  0  0  0  0
   33.9190   28.3640   48.6880 C   0  0  0  0  0  0  0  0  0  0  0  0
   34.9410   28.3720   49.6100 C   0  0  0  0  0  0  0  0  0  0  0  0
   34.8820   30.9520   46.8390 H   0  0  0  0  0  0  0  0  0  0  0  0
   33.1330   27.6190   48.7580 H   0  0  0  0  0  0  0  0  0  0  0  0
   34.9560   27.6320   50.4020 H   0  0  0  0  0  0  0  0  0  0  0  0
   32.8050   29.2670   46.7260 C   0  0  0  0  0  0  0  0  0  0  0  0
   32.0050   28.1780   46.4710 C   0  0  0  0  0  0  0  0  0  0  0  0
   30.9770   28.1960   45.5470 C   0  0  0  0  0  0  0  0  0  0  0  0
   30.7330   29.3250   44.8510 N   0  0  0  0  0  0  0  0  0  0  0  0
   31.5090   30.3850   45.0970 C   0  0  0  0  0  0  0  0  0  0  0  0
   32.4940   30.3530   45.9900 N   0  0  0  0  0  0  0  0  0  0  0  0
   32.2000   27.2600   47.0320 H   0  0  0  0  0  0  0  0  0  0  0  0
   30.3910   27.2840   45.4070 H   0  0  0  0  0  0  0  0  0  0  0  0
   31.2650   31.5830   44.3760 N   0  0  0  0  0  0  0  0  0  0  0  0
   30.7240   31.6020   43.0320 C   0  0  0  0  0  3  0  0  0  0  0  0
   29.6690   31.9840   43.0880 H   0  0  0  0  0  0  0  0  0  0  0  0
   31.5660   32.5090   42.1280 C   0  0  0  0  0  3  0  0  0  0  0  0
   32.4710   31.9580   41.8300 H   0  0  0  0  0  0  0  0  0  0  0  0
   31.8620   33.7100   42.7370 O   0  0  0  0  0  0  0  0  0  0  0  0
   32.5100   33.5520   43.9420 C   0  0  0  0  0  2  0  0  0  0  0  0
   31.5390   32.8980   44.9220 C   0  0  0  0  0  2  0  0  0  0  0  0
   37.9930   33.1490   49.4050 C   0  0  0  0  0  0  0  0  0  0  0  0
   39.0070   33.1390   48.3850 C   0  0  0  0  0  0  0  0  0  0  0  0
   38.9570   32.1380   47.4370 C   0  0  0  0  0  0  0  0  0  0  0  0
   37.9560   31.2030   47.5030 N   0  0  0  0  0  0  0  0  0  0  0  0
   37.0110   31.2350   48.4750 C   0  0  0  0  0  0  0  0  0  0  0  0
   37.0460   32.2120   49.4150 N   0  0  0  0  0  0  0  0  0  0  0  0
   37.9870   33.9120   50.1710 H   0  0  0  0  0  0  0  0  0  0  0  0
   39.7660   33.9100   48.3980 H   0  0  0  0  0  0  0  0  0  0  0  0
   39.7040   32.0950   46.6510 H   0  0  0  0  0  0  0  0  0  0  0  0
  2  7  1  0  0  0  0
  2  1  1  0  0  0  0
  3  2  2  0  0  0  0
  4  5  2  0  0  0  0
  4  3  1  0  0  0  0
  5  6  1  0  0  0  0
  6  9  1  0  0  0  0
  6  7  2  0  0  0  0
  7 10  1  0  0  0  0
  8  4  1  0  0  0  0
 11  5  1  0  0  0  0
 12 11  1  0  0  0  0
 12 17  1  0  0  0  0
 13 12  2  0  0  0  0
 14 15  2  0  0  0  0
 14 13  1  0  0  0  0
 15 16  1  0  0  0  0
 16 11  2  0  0  0  0
 18 13  1  0  0  0  0
 19 26  1  0  0  0  0
 19 15  1  0  0  0  0
 20 21  1  0  0  0  0
 20 19  1  0  0  0  0
 22 24  1  0  0  0  0
 22 20  1  0  0  0  0
 23 22  1  0  0  0  0
 24 25  1  0  0  0  0
 25 26  1  0  0  0  0
 27 32  1  0  0  0  0
 27 33  1  0  0  0  0
 28 34  1  0  0  0  0
 28 27  2  0  0  0  0
 29 30  2  0  0  0  0
 29 28  1  0  0  0  0
 30 31  1  0  0  0  0
 31  3  1  0  0  0  0
 31 32  2  0  0  0  0
 35 29  1  0  0  0  0
M  END
>  <minimizedAffinity>
-6.54594374

>  <minimizedRMSD>
0.284470081

$$$$
