
 OpenBabel03272510183D

 35 38  0  0  0  0  0  0  0  0999 V2000
   37.4530   29.2150   50.8760 Br  0  0  0  0  0  0  0  0  0  0  0  0
   36.0330   29.2670   49.6090 C   0  0  0  0  0  0  0  0  0  0  0  0
   36.0030   30.2520   48.6100 C   0  0  0  0  0  0  0  0  0  0  0  0
   34.9480   30.2280   47.7320 C   0  0  0  0  0  0  0  0  0  0  0  0
   33.9290   29.2890   47.7880 C   0  0  0  0  0  0  0  0  0  0  0  0
   33.9900   28.3420   48.7740 C   0  0  0  0  0  0  0  0  0  0  0  0
   35.0360   28.3450   49.6670 C   0  0  0  0  0  0  0  0  0  0  0  0
   34.8780   30.9670   46.9410 H   0  0  0  0  0  0  0  0  0  0  0  0
   33.2120   27.5890   48.8530 H   0  0  0  0  0  0  0  0  0  0  0  0
   35.0790   27.5930   50.4460 H   0  0  0  0  0  0  0  0  0  0  0  0
   32.8140   29.2650   46.8570 C   0  0  0  0  0  0  0  0  0  0  0  0
   31.8630   28.2750   46.7900 C   0  0  0  0  0  0  0  0  0  0  0  0
   30.8160   28.2930   45.8860 C   0  0  0  0  0  0  0  0  0  0  0  0
   30.7070   29.3220   45.0220 N   0  0  0  0  0  0  0  0  0  0  0  0
   31.6300   30.2870   45.0860 C   0  0  0  0  0  0  0  0  0  0  0  0
   32.6310   30.2560   45.9600 N   0  0  0  0  0  0  0  0  0  0  0  0
   31.9480   27.4370   47.4870 H   0  0  0  0  0  0  0  0  0  0  0  0
   30.1050   27.4630   45.9010 H   0  0  0  0  0  0  0  0  0  0  0  0
   31.5300   31.3780   44.1840 N   0  0  0  0  0  0  0  0  0  0  0  0
   32.0000   32.7120   44.5010 C   0  0  0  0  0  3  0  0  0  0  0  0
   32.9210   32.9100   43.8920 H   0  0  0  0  0  0  0  0  0  0  0  0
   30.9190   33.7510   44.1760 C   0  0  0  0  0  3  0  0  0  0  0  0
   30.1760   33.7440   44.9880 H   0  0  0  0  0  0  0  0  0  0  0  0
   30.3480   33.5280   42.9410 O   0  0  0  0  0  0  0  0  0  0  0  0
   29.8070   32.2660   42.8220 C   0  0  0  0  0  2  0  0  0  0  0  0
   30.9490   31.2550   42.8620 C   0  0  0  0  0  2  0  0  0  0  0  0
   38.0110   33.1800   49.4300 C   0  0  0  0  0  0  0  0  0  0  0  0
   39.0220   33.1700   48.4080 C   0  0  0  0  0  0  0  0  0  0  0  0
   38.9810   32.1590   47.4700 C   0  0  0  0  0  0  0  0  0  0  0  0
   37.9910   31.2140   47.5480 N   0  0  0  0  0  0  0  0  0  0  0  0
   37.0480   31.2450   48.5230 C   0  0  0  0  0  0  0  0  0  0  0  0
   37.0740   32.2330   49.4520 N   0  0  0  0  0  0  0  0  0  0  0  0
   37.9980   33.9500   50.1880 H   0  0  0  0  0  0  0  0  0  0  0  0
   39.7720   33.9510   48.4110 H   0  0  0  0  0  0  0  0  0  0  0  0
   39.7260   32.1170   46.6830 H   0  0  0  0  0  0  0  0  0  0  0  0
  2  7  1  0  0  0  0
  2  1  1  0  0  0  0
  3  2  2  0  0  0  0
  4  5  2  0  0  0  0
  4  3  1  0  0  0  0
  5  6  1  0  0  0  0
  6  9  1  0  0  0  0
  6  7  2  0  0  0  0
  7 10  1  0  0  0  0
  8  4  1  0  0  0  0
 11  5  1  0  0  0  0
 12 11  1  0  0  0  0
 12 17  1  0  0  0  0
 13 18  1  0  0  0  0
 13 12  2  0  0  0  0
 14 15  2  0  0  0  0
 14 13  1  0  0  0  0
 15 16  1  0  0  0  0
 16 11  2  0  0  0  0
 19 20  1  0  0  0  0
 19 15  1  0  0  0  0
 21 20  1  0  0  0  0
 22 20  1  0  0  0  0
 22 23  1  0  0  0  0
 24 22  1  0  0  0  0
 25 26  1  0  0  0  0
 25 24  1  0  0  0  0
 26 19  1  0  0  0  0
 27 32  1  0  0  0  0
 27 33  1  0  0  0  0
 28 34  1  0  0  0  0
 28 27  2  0  0  0  0
 29 30  2  0  0  0  0
 29 28  1  0  0  0  0
 30 31  1  0  0  0  0
 31  3  1  0  0  0  0
 31 32  2  0  0  0  0
 35 29  1  0  0  0  0
M  END
>  <minimizedAffinity>
-6.61894369

>  <minimizedRMSD>
0.560567796

$$$$
