
 OpenBabel03272502083D

 38 41  0  0  0  0  0  0  0  0999 V2000
   36.1230   28.1110   35.0900 F   0  0  0  0  0  0  0  0  0  0  0  0
   36.2110   28.6850   33.8460 C   0  0  0  0  0  0  0  0  0  0  0  0
   36.8860   28.0780   32.7990 C   0  0  0  0  0  0  0  0  0  0  0  0
   36.9160   28.7070   31.5740 C   0  0  0  0  0  0  0  0  0  0  0  0
   36.2790   29.9380   31.3880 C   0  0  0  0  0  0  0  0  0  0  0  0
   35.6250   30.4880   32.4740 C   0  0  0  0  0  0  0  0  0  0  0  0
   35.5690   29.9100   33.6870 C   0  0  0  0  0  0  0  0  0  0  0  0
   37.4540   28.1960   30.7900 H   0  0  0  0  0  0  0  0  0  0  0  0
   36.3260   30.3930   30.4230 H   0  0  0  0  0  0  0  0  0  0  0  0
   35.1560   31.4370   32.2560 H   0  0  0  0  0  0  0  0  0  0  0  0
   38.6770   26.8470   33.8340 C   0  0  0  0  0  0  0  0  0  0  0  0
   37.4950   26.8180   33.1240 C   0  0  0  0  0  0  0  0  0  0  0  0
   36.9690   25.5730   32.7790 C   0  0  0  0  0  0  0  0  0  0  0  0
   37.6220   24.4410   33.1460 N   0  0  0  0  0  0  0  0  0  0  0  0
   38.7650   24.5130   33.8340 C   0  0  0  0  0  0  0  0  0  0  0  0
   39.2860   25.6810   34.1740 N   0  0  0  0  0  0  0  0  0  0  0  0
   39.1600   27.7650   34.1450 H   0  0  0  0  0  0  0  0  0  0  0  0
   36.0410   25.6340   32.2230 H   0  0  0  0  0  0  0  0  0  0  0  0
   39.4240   23.3030   34.2020 N   0  0  0  0  0  0  0  0  0  0  0  0
   38.9230   22.4700   35.2820 C   0  0  0  0  0  3  0  0  0  0  0  0
   38.0810   22.9690   35.8210 H   0  0  0  0  0  0  0  0  0  0  0  0
   40.0490   22.0990   36.1930 C   0  0  0  0  0  3  0  0  0  0  0  0
   39.7900   22.4710   37.2120 H   0  0  0  0  0  0  0  0  0  0  0  0
   41.2210   22.7450   35.8360 O   0  0  0  0  0  0  0  0  0  0  0  0
   41.6280   22.4340   34.5380 C   0  0  0  0  0  2  0  0  0  0  0  0
   40.6230   22.8530   33.5180 C   0  0  0  0  0  2  0  0  0  0  0  0
   32.4910   29.4020   33.9620 Br  0  0  0  0  0  0  0  0  0  0  0  0
   33.5520   30.4610   35.1340 C   0  0  0  0  0  0  0  0  0  0  0  0
   34.8740   30.5510   34.7860 C   0  0  0  0  0  0  0  0  0  0  0  0
   35.7130   31.3460   35.5880 C   0  0  0  0  0  0  0  0  0  0  0  0
   35.2220   32.0000   36.6720 C   0  0  0  0  0  0  0  0  0  0  0  0
   33.8830   31.8640   36.9670 C   0  0  0  0  0  0  0  0  0  0  0  0
   33.0160   31.0860   36.1990 C   0  0  0  0  0  0  0  0  0  0  0  0
   36.7670   31.4750   35.3860 H   0  0  0  0  0  0  0  0  0  0  0  0
   35.8140   32.6270   37.3270 H   0  0  0  0  0  0  0  0  0  0  0  0
   33.4470   32.3720   37.8300 H   0  0  0  0  0  0  0  0  0  0  0  0
   31.6870   30.9010   36.4260 O   0  0  0  0  0  0  0  0  0  0  0  0
   31.0830   31.4770   36.9790 H   0  0  0  0  0  0  0  0  0  0  0  0
  2  1  1  0  0  0  0
  3 12  1  0  0  0  0
  3  2  2  0  0  0  0
  4  3  1  0  0  0  0
  5  4  2  0  0  0  0
  5  6  1  0  0  0  0
  6  7  2  0  0  0  0
  7  2  1  0  0  0  0
  7 29  1  0  0  0  0
  8  4  1  0  0  0  0
  9  5  1  0  0  0  0
 10  6  1  0  0  0  0
 11 17  1  0  0  0  0
 11 16  1  0  0  0  0
 12 11  2  0  0  0  0
 13 12  1  0  0  0  0
 13 14  2  0  0  0  0
 14 15  1  0  0  0  0
 15 16  2  0  0  0  0
 15 19  1  0  0  0  0
 18 13  1  0  0  0  0
 19 20  1  0  0  0  0
 20 21  1  0  0  0  0
 20 22  1  0  0  0  0
 22 23  1  0  0  0  0
 24 22  1  0  0  0  0
 25 24  1  0  0  0  0
 26 19  1  0  0  0  0
 26 25  1  0  0  0  0
 27 28  1  0  0  0  0
 28 33  1  0  0  0  0
 29 28  2  0  0  0  0
 29 30  1  0  0  0  0
 30 31  2  0  0  0  0
 31 32  1  0  0  0  0
 31 35  1  0  0  0  0
 32 36  1  0  0  0  0
 33 37  1  0  0  0  0
 33 32  2  0  0  0  0
 34 30  1  0  0  0  0
 37 38  1  0  0  0  0
M  END
>  <minimizedAffinity>
-6.50515795

$$$$

 OpenBabel03272502083D

 38 41  0  0  0  0  0  0  0  0999 V2000
   35.7120   28.2490   34.3670 F   0  0  0  0  0  0  0  0  0  0  0  0
   35.9120   29.0320   33.2570 C   0  0  0  0  0  0  0  0  0  0  0  0
   36.4590   28.5280   32.0870 C   0  0  0  0  0  0  0  0  0  0  0  0
   36.6140   29.3700   31.0090 C   0  0  0  0  0  0  0  0  0  0  0  0
   36.2290   30.7120   31.0910 C   0  0  0  0  0  0  0  0  0  0  0  0
   35.6920   31.1500   32.2860 C   0  0  0  0  0  0  0  0  0  0  0  0
   35.5210   30.3640   33.3640 C   0  0  0  0  0  0  0  0  0  0  0  0
   37.0440   28.9320   30.1210 H   0  0  0  0  0  0  0  0  0  0  0  0
   36.3660   31.3320   30.2320 H   0  0  0  0  0  0  0  0  0  0  0  0
   35.4170   32.1950   32.2750 H   0  0  0  0  0  0  0  0  0  0  0  0
   35.8770   26.2260   31.6920 C   0  0  0  0  0  0  0  0  0  0  0  0
   36.8110   27.1350   32.1380 C   0  0  0  0  0  0  0  0  0  0  0  0
   38.0330   26.6450   32.6000 C   0  0  0  0  0  0  0  0  0  0  0  0
   38.2670   25.3090   32.5960 N   0  0  0  0  0  0  0  0  0  0  0  0
   37.3350   24.4600   32.1530 C   0  0  0  0  0  0  0  0  0  0  0  0
   36.1670   24.8980   31.7110 N   0  0  0  0  0  0  0  0  0  0  0  0
   34.9020   26.5120   31.3160 H   0  0  0  0  0  0  0  0  0  0  0  0
   38.7130   27.4210   32.9330 H   0  0  0  0  0  0  0  0  0  0  0  0
   37.6150   23.0620   32.1640 N   0  0  0  0  0  0  0  0  0  0  0  0
   38.5050   22.4640   31.1840 C   0  0  0  0  0  3  0  0  0  0  0  0
   38.7990   23.2040   30.4000 H   0  0  0  0  0  0  0  0  0  0  0  0
   37.8670   21.2400   30.6080 C   0  0  0  0  0  3  0  0  0  0  0  0
   37.7880   21.3920   29.5060 H   0  0  0  0  0  0  0  0  0  0  0  0
   36.5700   21.0840   31.0670 O   0  0  0  0  0  0  0  0  0  0  0  0
   36.5060   20.9630   32.4560 C   0  0  0  0  0  2  0  0  0  0  0  0
   37.0240   22.1770   33.1500 C   0  0  0  0  0  2  0  0  0  0  0  0
   32.5100   29.7590   33.9750 Br  0  0  0  0  0  0  0  0  0  0  0  0
   33.6960   30.7430   35.0930 C   0  0  0  0  0  0  0  0  0  0  0  0
   34.9620   30.8940   34.5920 C   0  0  0  0  0  0  0  0  0  0  0  0
   35.8830   31.6410   35.3480 C   0  0  0  0  0  0  0  0  0  0  0  0
   35.5240   32.1900   36.5360 C   0  0  0  0  0  0  0  0  0  0  0  0
   34.2350   31.9970   36.9830 C   0  0  0  0  0  0  0  0  0  0  0  0
   33.2890   31.2640   36.2650 C   0  0  0  0  0  0  0  0  0  0  0  0
   36.9020   31.8120   35.0280 H   0  0  0  0  0  0  0  0  0  0  0  0
   36.1850   32.7750   37.1630 H   0  0  0  0  0  0  0  0  0  0  0  0
   33.9040   32.4210   37.9340 H   0  0  0  0  0  0  0  0  0  0  0  0
   32.0020   31.0280   36.6390 O   0  0  0  0  0  0  0  0  0  0  0  0
   31.4640   31.5410   37.3100 H   0  0  0  0  0  0  0  0  0  0  0  0
  2  7  1  0  0  0  0
  2  1  1  0  0  0  0
  3 12  1  0  0  0  0
  3  2  2  0  0  0  0
  4  5  2  0  0  0  0
  4  3  1  0  0  0  0
  5  6  1  0  0  0  0
  6  7  2  0  0  0  0
  7 29  1  0  0  0  0
  8  4  1  0  0  0  0
  9  5  1  0  0  0  0
 10  6  1  0  0  0  0
 11 16  2  0  0  0  0
 11 12  1  0  0  0  0
 12 13  2  0  0  0  0
 13 18  1  0  0  0  0
 14 13  1  0  0  0  0
 15 19  1  0  0  0  0
 15 14  2  0  0  0  0
 16 15  1  0  0  0  0
 17 11  1  0  0  0  0
 19 26  1  0  0  0  0
 20 19  1  0  0  0  0
 21 20  1  0  0  0  0
 22 24  1  0  0  0  0
 22 20  1  0  0  0  0
 23 22  1  0  0  0  0
 24 25  1  0  0  0  0
 25 26  1  0  0  0  0
 27 28  1  0  0  0  0
 28 33  1  0  0  0  0
 29 28  2  0  0  0  0
 29 30  1  0  0  0  0
 30 31  2  0  0  0  0
 31 32  1  0  0  0  0
 31 35  1  0  0  0  0
 32 36  1  0  0  0  0
 33 37  1  0  0  0  0
 33 32  2  0  0  0  0
 34 30  1  0  0  0  0
 37 38  1  0  0  0  0
M  END
>  <minimizedAffinity>
-6.43838024

$$$$

 OpenBabel03272502083D

 38 41  0  0  0  0  0  0  0  0999 V2000
   35.7050   28.0190   35.1080 F   0  0  0  0  0  0  0  0  0  0  0  0
   35.8270   28.7050   33.9250 C   0  0  0  0  0  0  0  0  0  0  0  0
   36.6460   28.2650   32.8970 C   0  0  0  0  0  0  0  0  0  0  0  0
   36.7050   28.9970   31.7330 C   0  0  0  0  0  0  0  0  0  0  0  0
   35.9510   30.1670   31.5870 C   0  0  0  0  0  0  0  0  0  0  0  0
   35.1560   30.5500   32.6500 C   0  0  0  0  0  0  0  0  0  0  0  0
   35.0680   29.8660   33.8040 C   0  0  0  0  0  0  0  0  0  0  0  0
   37.3570   28.6150   30.9620 H   0  0  0  0  0  0  0  0  0  0  0  0
   36.0250   30.7060   30.6680 H   0  0  0  0  0  0  0  0  0  0  0  0
   34.6040   31.4600   32.4660 H   0  0  0  0  0  0  0  0  0  0  0  0
   38.4590   27.1370   34.0100 C   0  0  0  0  0  0  0  0  0  0  0  0
   37.3640   27.0510   33.1760 C   0  0  0  0  0  0  0  0  0  0  0  0
   37.0240   25.7970   32.6700 C   0  0  0  0  0  0  0  0  0  0  0  0
   37.7650   24.7120   33.0050 N   0  0  0  0  0  0  0  0  0  0  0  0
   38.8190   24.8370   33.8180 C   0  0  0  0  0  0  0  0  0  0  0  0
   39.1640   26.0150   34.3110 N   0  0  0  0  0  0  0  0  0  0  0  0
   38.7990   28.0660   34.4500 H   0  0  0  0  0  0  0  0  0  0  0  0
   36.1530   25.8120   32.0240 H   0  0  0  0  0  0  0  0  0  0  0  0
   39.5750   23.6750   34.1490 N   0  0  0  0  0  0  0  0  0  0  0  0
   39.0720   22.6900   35.0910 C   0  0  0  0  0  3  0  0  0  0  0  0
   38.1280   23.0410   35.5770 H   0  0  0  0  0  0  0  0  0  0  0  0
   40.1390   22.3540   36.0840 C   0  0  0  0  0  3  0  0  0  0  0  0
   39.7400   22.5950   37.0970 H   0  0  0  0  0  0  0  0  0  0  0  0
   41.2560   23.1540   35.9130 O   0  0  0  0  0  0  0  0  0  0  0  0
   41.8220   23.0180   34.6440 C   0  0  0  0  0  2  0  0  0  0  0  0
   40.8790   23.4250   33.5620 C   0  0  0  0  0  2  0  0  0  0  0  0
   36.2740   31.9520   35.8060 Br  0  0  0  0  0  0  0  0  0  0  0  0
   34.5030   31.2560   35.8570 C   0  0  0  0  0  0  0  0  0  0  0  0
   34.2210   30.3340   34.8850 C   0  0  0  0  0  0  0  0  0  0  0  0
   32.9410   29.7500   34.8820 C   0  0  0  0  0  0  0  0  0  0  0  0
   32.0190   30.0950   35.8160 C   0  0  0  0  0  0  0  0  0  0  0  0
   32.3680   31.0320   36.7650 C   0  0  0  0  0  0  0  0  0  0  0  0
   33.6240   31.6340   36.8040 C   0  0  0  0  0  0  0  0  0  0  0  0
   32.6340   29.0130   34.1530 H   0  0  0  0  0  0  0  0  0  0  0  0
   31.0190   29.6820   35.8680 H   0  0  0  0  0  0  0  0  0  0  0  0
   31.6550   31.3380   37.5350 H   0  0  0  0  0  0  0  0  0  0  0  0
   34.0410   32.5650   37.7050 O   0  0  0  0  0  0  0  0  0  0  0  0
   33.6440   32.7560   38.6050 H   0  0  0  0  0  0  0  0  0  0  0  0
  2  1  1  0  0  0  0
  3 12  1  0  0  0  0
  3  2  2  0  0  0  0
  4  3  1  0  0  0  0
  5  4  2  0  0  0  0
  5  6  1  0  0  0  0
  6  7  2  0  0  0  0
  7  2  1  0  0  0  0
  7 29  1  0  0  0  0
  8  4  1  0  0  0  0
  9  5  1  0  0  0  0
 10  6  1  0  0  0  0
 11 16  1  0  0  0  0
 11 17  1  0  0  0  0
 12 11  2  0  0  0  0
 13 14  2  0  0  0  0
 13 12  1  0  0  0  0
 14 15  1  0  0  0  0
 15 19  1  0  0  0  0
 15 16  2  0  0  0  0
 18 13  1  0  0  0  0
 19 20  1  0  0  0  0
 20 21  1  0  0  0  0
 20 22  1  0  0  0  0
 22 23  1  0  0  0  0
 24 22  1  0  0  0  0
 25 24  1  0  0  0  0
 26 19  1  0  0  0  0
 26 25  1  0  0  0  0
 27 28  1  0  0  0  0
 28 33  1  0  0  0  0
 29 28  2  0  0  0  0
 30 29  1  0  0  0  0
 30 31  2  0  0  0  0
 31 35  1  0  0  0  0
 31 32  1  0  0  0  0
 32 33  2  0  0  0  0
 32 36  1  0  0  0  0
 33 37  1  0  0  0  0
 34 30  1  0  0  0  0
 37 38  1  0  0  0  0
M  END
>  <minimizedAffinity>
-6.33179998

$$$$

 OpenBabel03272502083D

 38 41  0  0  0  0  0  0  0  0999 V2000
   35.7600   28.2630   34.7980 F   0  0  0  0  0  0  0  0  0  0  0  0
   35.6150   28.9790   33.6350 C   0  0  0  0  0  0  0  0  0  0  0  0
   36.2250   28.5950   32.4510 C   0  0  0  0  0  0  0  0  0  0  0  0
   36.0200   29.3530   31.3210 C   0  0  0  0  0  0  0  0  0  0  0  0
   35.2110   30.4940   31.3640 C   0  0  0  0  0  0  0  0  0  0  0  0
   34.6350   30.8210   32.5760 C   0  0  0  0  0  0  0  0  0  0  0  0
   34.8060   30.1100   33.7040 C   0  0  0  0  0  0  0  0  0  0  0  0
   36.5160   29.0140   30.4240 H   0  0  0  0  0  0  0  0  0  0  0  0
   35.0780   31.0560   30.4650 H   0  0  0  0  0  0  0  0  0  0  0  0
   34.0240   31.7120   32.5330 H   0  0  0  0  0  0  0  0  0  0  0  0
   36.4270   26.2060   32.2280 C   0  0  0  0  0  0  0  0  0  0  0  0
   37.0270   27.4060   32.5450 C   0  0  0  0  0  0  0  0  0  0  0  0
   38.3690   27.3860   32.9260 C   0  0  0  0  0  0  0  0  0  0  0  0
   39.0380   26.2070   32.9730 N   0  0  0  0  0  0  0  0  0  0  0  0
   38.4200   25.0650   32.6560 C   0  0  0  0  0  0  0  0  0  0  0  0
   37.1470   25.0560   32.2930 N   0  0  0  0  0  0  0  0  0  0  0  0
   35.3910   26.1230   31.9230 H   0  0  0  0  0  0  0  0  0  0  0  0
   38.7680   28.3670   33.1590 H   0  0  0  0  0  0  0  0  0  0  0  0
   39.1540   23.8440   32.7170 N   0  0  0  0  0  0  0  0  0  0  0  0
   40.1300   23.5000   31.6970 C   0  0  0  0  0  3  0  0  0  0  0  0
   40.1090   24.2320   30.8530 H   0  0  0  0  0  0  0  0  0  0  0  0
   39.9070   22.0930   31.2430 C   0  0  0  0  0  3  0  0  0  0  0  0
   39.7130   22.1240   30.1460 H   0  0  0  0  0  0  0  0  0  0  0  0
   38.7690   21.5530   31.8180 O   0  0  0  0  0  0  0  0  0  0  0  0
   38.8360   21.5260   33.2120 C   0  0  0  0  0  2  0  0  0  0  0  0
   38.9580   22.8930   33.7950 C   0  0  0  0  0  2  0  0  0  0  0  0
   36.2660   32.2770   35.4310 Br  0  0  0  0  0  0  0  0  0  0  0  0
   34.5990   31.4610   35.8490 C   0  0  0  0  0  0  0  0  0  0  0  0
   34.1790   30.5200   34.9460 C   0  0  0  0  0  0  0  0  0  0  0  0
   32.9710   29.8490   35.2080 C   0  0  0  0  0  0  0  0  0  0  0  0
   32.2480   30.1310   36.3210 C   0  0  0  0  0  0  0  0  0  0  0  0
   32.7260   31.0910   37.1870 C   0  0  0  0  0  0  0  0  0  0  0  0
   33.9180   31.7790   36.9660 C   0  0  0  0  0  0  0  0  0  0  0  0
   32.5660   29.0910   34.5510 H   0  0  0  0  0  0  0  0  0  0  0  0
   31.3120   29.6500   36.5790 H   0  0  0  0  0  0  0  0  0  0  0  0
   32.1740   31.3480   38.0940 H   0  0  0  0  0  0  0  0  0  0  0  0
   34.4540   32.7380   37.7700 O   0  0  0  0  0  0  0  0  0  0  0  0
   34.2450   32.9020   38.7350 H   0  0  0  0  0  0  0  0  0  0  0  0
  2  7  1  0  0  0  0
  2  1  1  0  0  0  0
  3 12  1  0  0  0  0
  3  2  2  0  0  0  0
  4  5  2  0  0  0  0
  4  3  1  0  0  0  0
  5  6  1  0  0  0  0
  6  7  2  0  0  0  0
  7 29  1  0  0  0  0
  8  4  1  0  0  0  0
  9  5  1  0  0  0  0
 10  6  1  0  0  0  0
 11 16  2  0  0  0  0
 11 12  1  0  0  0  0
 12 13  2  0  0  0  0
 13 14  1  0  0  0  0
 13 18  1  0  0  0  0
 15 19  1  0  0  0  0
 15 14  2  0  0  0  0
 16 15  1  0  0  0  0
 17 11  1  0  0  0  0
 19 26  1  0  0  0  0
 20 19  1  0  0  0  0
 21 20  1  0  0  0  0
 22 20  1  0  0  0  0
 22 24  1  0  0  0  0
 23 22  1  0  0  0  0
 24 25  1  0  0  0  0
 25 26  1  0  0  0  0
 27 28  1  0  0  0  0
 28 33  1  0  0  0  0
 29 30  1  0  0  0  0
 29 28  2  0  0  0  0
 30 31  2  0  0  0  0
 31 35  1  0  0  0  0
 31 32  1  0  0  0  0
 32 36  1  0  0  0  0
 33 32  2  0  0  0  0
 33 37  1  0  0  0  0
 34 30  1  0  0  0  0
 37 38  1  0  0  0  0
M  END
>  <minimizedAffinity>
-6.29261589

$$$$

 OpenBabel03272502083D

 38 41  0  0  0  0  0  0  0  0999 V2000
   36.2510   23.5100   31.5970 F   0  0  0  0  0  0  0  0  0  0  0  0
   37.3820   23.3870   32.3650 C   0  0  0  0  0  0  0  0  0  0  0  0
   37.9690   24.4730   32.9950 C   0  0  0  0  0  0  0  0  0  0  0  0
   39.0930   24.2690   33.7630 C   0  0  0  0  0  0  0  0  0  0  0  0
   39.6350   22.9880   33.9080 C   0  0  0  0  0  0  0  0  0  0  0  0
   39.0010   21.9490   33.2540 C   0  0  0  0  0  0  0  0  0  0  0  0
   37.9030   22.1020   32.4940 C   0  0  0  0  0  0  0  0  0  0  0  0
   39.5140   25.1450   34.2330 H   0  0  0  0  0  0  0  0  0  0  0  0
   40.5080   22.8720   34.5130 H   0  0  0  0  0  0  0  0  0  0  0  0
   39.4750   20.9910   33.4120 H   0  0  0  0  0  0  0  0  0  0  0  0
   37.1180   26.5570   33.8490 C   0  0  0  0  0  0  0  0  0  0  0  0
   37.3130   25.7310   32.7630 C   0  0  0  0  0  0  0  0  0  0  0  0
   36.8680   26.1730   31.5170 C   0  0  0  0  0  0  0  0  0  0  0  0
   36.2680   27.3840   31.4070 N   0  0  0  0  0  0  0  0  0  0  0  0
   36.0990   28.1560   32.4850 C   0  0  0  0  0  0  0  0  0  0  0  0
   36.5100   27.7600   33.6800 N   0  0  0  0  0  0  0  0  0  0  0  0
   37.4280   26.2980   34.8550 H   0  0  0  0  0  0  0  0  0  0  0  0
   37.0570   25.4690   30.7150 H   0  0  0  0  0  0  0  0  0  0  0  0
   35.4630   29.4230   32.3330 N   0  0  0  0  0  0  0  0  0  0  0  0
   36.1610   30.5500   31.7400 C   0  0  0  0  0  3  0  0  0  0  0  0
   37.2390   30.3120   31.5630 H   0  0  0  0  0  0  0  0  0  0  0  0
   35.9740   31.7630   32.5940 C   0  0  0  0  0  3  0  0  0  0  0  0
   36.9860   32.1140   32.9030 H   0  0  0  0  0  0  0  0  0  0  0  0
   35.3020   31.4560   33.7650 O   0  0  0  0  0  0  0  0  0  0  0  0
   34.0330   30.9230   33.5290 C   0  0  0  0  0  2  0  0  0  0  0  0
   34.0950   29.6430   32.7650 C   0  0  0  0  0  2  0  0  0  0  0  0
   35.5990   20.5910   33.9840 Br  0  0  0  0  0  0  0  0  0  0  0  0
   36.2630   20.1740   32.2500 C   0  0  0  0  0  0  0  0  0  0  0  0
   37.2950   20.9680   31.8250 C   0  0  0  0  0  0  0  0  0  0  0  0
   37.8600   20.6950   30.5660 C   0  0  0  0  0  0  0  0  0  0  0  0
   37.3910   19.6760   29.8010 C   0  0  0  0  0  0  0  0  0  0  0  0
   36.3490   18.9180   30.2880 C   0  0  0  0  0  0  0  0  0  0  0  0
   35.7600   19.1540   31.5300 C   0  0  0  0  0  0  0  0  0  0  0  0
   38.6780   21.2680   30.1530 H   0  0  0  0  0  0  0  0  0  0  0  0
   37.7840   19.4150   28.8250 H   0  0  0  0  0  0  0  0  0  0  0  0
   35.9420   18.0890   29.7040 H   0  0  0  0  0  0  0  0  0  0  0  0
   34.7300   18.4530   32.0770 O   0  0  0  0  0  0  0  0  0  0  0  0
   34.4240   17.5330   31.8260 H   0  0  0  0  0  0  0  0  0  0  0  0
  1  2  1  0  0  0  0
  2  7  2  0  0  0  0
  2  3  1  0  0  0  0
  3  4  2  0  0  0  0
  4  5  1  0  0  0  0
  4  8  1  0  0  0  0
  5  9  1  0  0  0  0
  6 10  1  0  0  0  0
  6  5  2  0  0  0  0
  7  6  1  0  0  0  0
 11 17  1  0  0  0  0
 12  3  1  0  0  0  0
 12 11  2  0  0  0  0
 13 12  1  0  0  0  0
 14 13  2  0  0  0  0
 14 15  1  0  0  0  0
 15 16  2  0  0  0  0
 16 11  1  0  0  0  0
 18 13  1  0  0  0  0
 19 15  1  0  0  0  0
 19 26  1  0  0  0  0
 20 19  1  0  0  0  0
 20 22  1  0  0  0  0
 21 20  1  0  0  0  0
 22 23  1  0  0  0  0
 22 24  1  0  0  0  0
 25 24  1  0  0  0  0
 26 25  1  0  0  0  0
 28 27  1  0  0  0  0
 29 28  1  0  0  0  0
 29  7  1  0  0  0  0
 30 29  2  0  0  0  0
 31 32  2  0  0  0  0
 31 30  1  0  0  0  0
 32 33  1  0  0  0  0
 33 37  1  0  0  0  0
 33 28  2  0  0  0  0
 34 30  1  0  0  0  0
 35 31  1  0  0  0  0
 36 32  1  0  0  0  0
 38 37  1  0  0  0  0
M  END
>  <minimizedAffinity>
-6.00890398

$$$$

 OpenBabel03272502083D

 38 41  0  0  0  0  0  0  0  0999 V2000
   36.2070   28.7920   34.8340 F   0  0  0  0  0  0  0  0  0  0  0  0
   35.8680   29.3250   33.6150 C   0  0  0  0  0  0  0  0  0  0  0  0
   36.3100   28.7770   32.4210 C   0  0  0  0  0  0  0  0  0  0  0  0
   35.9140   29.3560   31.2370 C   0  0  0  0  0  0  0  0  0  0  0  0
   35.0810   30.4800   31.2360 C   0  0  0  0  0  0  0  0  0  0  0  0
   34.6790   30.9760   32.4610 C   0  0  0  0  0  0  0  0  0  0  0  0
   35.0390   30.4430   33.6410 C   0  0  0  0  0  0  0  0  0  0  0  0
   36.2840   28.8940   30.3340 H   0  0  0  0  0  0  0  0  0  0  0  0
   34.7970   30.9000   30.2950 H   0  0  0  0  0  0  0  0  0  0  0  0
   34.0380   31.8430   32.3810 H   0  0  0  0  0  0  0  0  0  0  0  0
   38.3680   27.6400   31.9040 C   0  0  0  0  0  0  0  0  0  0  0  0
   37.1580   27.6250   32.5640 C   0  0  0  0  0  0  0  0  0  0  0  0
   36.8450   26.5020   33.3300 C   0  0  0  0  0  0  0  0  0  0  0  0
   37.7230   25.4720   33.4050 N   0  0  0  0  0  0  0  0  0  0  0  0
   38.8870   25.5260   32.7500 C   0  0  0  0  0  0  0  0  0  0  0  0
   39.2100   26.5790   32.0170 N   0  0  0  0  0  0  0  0  0  0  0  0
   38.6980   28.4670   31.2870 H   0  0  0  0  0  0  0  0  0  0  0  0
   35.8780   26.5660   33.8160 H   0  0  0  0  0  0  0  0  0  0  0  0
   39.7870   24.4250   32.8520 N   0  0  0  0  0  0  0  0  0  0  0  0
   40.5700   24.1990   34.0550 C   0  0  0  0  0  3  0  0  0  0  0  0
   40.4580   25.0450   34.7750 H   0  0  0  0  0  0  0  0  0  0  0  0
   41.9960   23.9440   33.6840 C   0  0  0  0  0  3  0  0  0  0  0  0
   42.6160   24.7200   34.1910 H   0  0  0  0  0  0  0  0  0  0  0  0
   42.2030   24.1150   32.3260 O   0  0  0  0  0  0  0  0  0  0  0  0
   41.4210   23.2540   31.5540 C   0  0  0  0  0  2  0  0  0  0  0  0
   39.9620   23.4840   31.7610 C   0  0  0  0  0  2  0  0  0  0  0  0
   32.2630   29.5220   34.7600 Br  0  0  0  0  0  0  0  0  0  0  0  0
   33.4410   30.7640   35.5920 C   0  0  0  0  0  0  0  0  0  0  0  0
   34.5880   31.0240   34.8900 C   0  0  0  0  0  0  0  0  0  0  0  0
   35.4900   31.9600   35.4280 C   0  0  0  0  0  0  0  0  0  0  0  0
   35.2260   32.5820   36.6050 C   0  0  0  0  0  0  0  0  0  0  0  0
   34.0550   32.2720   37.2610 C   0  0  0  0  0  0  0  0  0  0  0  0
   33.1330   31.3510   36.7640 C   0  0  0  0  0  0  0  0  0  0  0  0
   36.4180   32.2270   34.9410 H   0  0  0  0  0  0  0  0  0  0  0  0
   35.8790   33.3110   37.0700 H   0  0  0  0  0  0  0  0  0  0  0  0
   33.8040   32.7490   38.2110 H   0  0  0  0  0  0  0  0  0  0  0  0
   31.9590   30.9920   37.3510 O   0  0  0  0  0  0  0  0  0  0  0  0
   31.4530   31.4990   38.0500 H   0  0  0  0  0  0  0  0  0  0  0  0
  2  7  1  0  0  0  0
  2  1  1  0  0  0  0
  3 12  1  0  0  0  0
  3  2  2  0  0  0  0
  4  3  1  0  0  0  0
  5  4  2  0  0  0  0
  5  6  1  0  0  0  0
  6  7  2  0  0  0  0
  7 29  1  0  0  0  0
  8  4  1  0  0  0  0
  9  5  1  0  0  0  0
 10  6  1  0  0  0  0
 11 16  2  0  0  0  0
 11 12  1  0  0  0  0
 12 13  2  0  0  0  0
 13 14  1  0  0  0  0
 13 18  1  0  0  0  0
 15 19  1  0  0  0  0
 15 14  2  0  0  0  0
 16 15  1  0  0  0  0
 17 11  1  0  0  0  0
 19 20  1  0  0  0  0
 20 21  1  0  0  0  0
 22 20  1  0  0  0  0
 22 23  1  0  0  0  0
 24 22  1  0  0  0  0
 25 26  1  0  0  0  0
 25 24  1  0  0  0  0
 26 19  1  0  0  0  0
 27 28  1  0  0  0  0
 28 33  1  0  0  0  0
 29 30  1  0  0  0  0
 29 28  2  0  0  0  0
 30 31  2  0  0  0  0
 31 35  1  0  0  0  0
 31 32  1  0  0  0  0
 32 36  1  0  0  0  0
 33 32  2  0  0  0  0
 33 37  1  0  0  0  0
 34 30  1  0  0  0  0
 37 38  1  0  0  0  0
M  END
>  <minimizedAffinity>
-5.99556494

$$$$

 OpenBabel03272502083D

 38 41  0  0  0  0  0  0  0  0999 V2000
   38.5670   26.4480   34.9370 F   0  0  0  0  0  0  0  0  0  0  0  0
   38.0640   25.5930   33.9880 C   0  0  0  0  0  0  0  0  0  0  0  0
   37.1060   25.9910   33.0690 C   0  0  0  0  0  0  0  0  0  0  0  0
   36.6610   25.0830   32.1360 C   0  0  0  0  0  0  0  0  0  0  0  0
   37.1640   23.7780   32.1140 C   0  0  0  0  0  0  0  0  0  0  0  0
   38.1160   23.4460   33.0590 C   0  0  0  0  0  0  0  0  0  0  0  0
   38.5800   24.3000   33.9880 C   0  0  0  0  0  0  0  0  0  0  0  0
   35.9150   25.4400   31.4420 H   0  0  0  0  0  0  0  0  0  0  0  0
   36.7920   23.1030   31.3730 H   0  0  0  0  0  0  0  0  0  0  0  0
   38.4580   22.4230   32.9800 H   0  0  0  0  0  0  0  0  0  0  0  0
   36.3350   27.7970   34.4630 C   0  0  0  0  0  0  0  0  0  0  0  0
   36.6750   27.3560   33.2020 C   0  0  0  0  0  0  0  0  0  0  0  0
   36.5860   28.2640   32.1450 C   0  0  0  0  0  0  0  0  0  0  0  0
   36.1760   29.5340   32.3830 N   0  0  0  0  0  0  0  0  0  0  0  0
   35.8560   29.9220   33.6210 C   0  0  0  0  0  0  0  0  0  0  0  0
   35.9300   29.0820   34.6410 N   0  0  0  0  0  0  0  0  0  0  0  0
   36.3720   27.1650   35.3420 H   0  0  0  0  0  0  0  0  0  0  0  0
   36.8690   27.8420   31.1880 H   0  0  0  0  0  0  0  0  0  0  0  0
   35.4280   31.2660   33.8330 N   0  0  0  0  0  0  0  0  0  0  0  0
   36.3740   32.3690   33.8220 C   0  0  0  0  0  3  0  0  0  0  0  0
   37.4260   31.9990   33.7600 H   0  0  0  0  0  0  0  0  0  0  0  0
   36.1400   33.2420   35.0130 C   0  0  0  0  0  3  0  0  0  0  0  0
   37.0880   33.2690   35.5990 H   0  0  0  0  0  0  0  0  0  0  0  0
   35.1840   32.7000   35.8560 O   0  0  0  0  0  0  0  0  0  0  0  0
   33.9500   32.5310   35.2260 C   0  0  0  0  0  2  0  0  0  0  0  0
   34.0340   31.5900   34.0710 C   0  0  0  0  0  2  0  0  0  0  0  0
   37.5580   23.0550   36.6740 Br  0  0  0  0  0  0  0  0  0  0  0  0
   39.3810   23.2850   36.1770 C   0  0  0  0  0  0  0  0  0  0  0  0
   39.5720   23.8790   34.9580 C   0  0  0  0  0  0  0  0  0  0  0  0
   40.8950   24.1130   34.5400 C   0  0  0  0  0  0  0  0  0  0  0  0
   41.9440   23.7580   35.3240 C   0  0  0  0  0  0  0  0  0  0  0  0
   41.6810   23.1620   36.5390 C   0  0  0  0  0  0  0  0  0  0  0  0
   40.3860   22.9120   36.9910 C   0  0  0  0  0  0  0  0  0  0  0  0
   41.1380   24.5780   33.5940 H   0  0  0  0  0  0  0  0  0  0  0  0
   42.9830   23.9120   35.0600 H   0  0  0  0  0  0  0  0  0  0  0  0
   42.4960   22.8610   37.2000 H   0  0  0  0  0  0  0  0  0  0  0  0
   40.0460   22.3280   38.1730 O   0  0  0  0  0  0  0  0  0  0  0  0
   40.6180   22.2410   38.9900 H   0  0  0  0  0  0  0  0  0  0  0  0
  2  7  1  0  0  0  0
  2  1  1  0  0  0  0
  3 12  1  0  0  0  0
  3  2  2  0  0  0  0
  4  3  1  0  0  0  0
  5  4  2  0  0  0  0
  5  6  1  0  0  0  0
  6  7  2  0  0  0  0
  7 29  1  0  0  0  0
  8  4  1  0  0  0  0
  9  5  1  0  0  0  0
 10  6  1  0  0  0  0
 11 16  1  0  0  0  0
 11 17  1  0  0  0  0
 12 11  2  0  0  0  0
 13 14  2  0  0  0  0
 13 12  1  0  0  0  0
 14 15  1  0  0  0  0
 15 19  1  0  0  0  0
 15 16  2  0  0  0  0
 18 13  1  0  0  0  0
 19 26  1  0  0  0  0
 20 19  1  0  0  0  0
 20 22  1  0  0  0  0
 21 20  1  0  0  0  0
 22 23  1  0  0  0  0
 22 24  1  0  0  0  0
 25 24  1  0  0  0  0
 26 25  1  0  0  0  0
 28 27  1  0  0  0  0
 28 33  1  0  0  0  0
 29 28  2  0  0  0  0
 30 29  1  0  0  0  0
 30 31  2  0  0  0  0
 31 32  1  0  0  0  0
 32 33  2  0  0  0  0
 32 36  1  0  0  0  0
 33 37  1  0  0  0  0
 34 30  1  0  0  0  0
 35 31  1  0  0  0  0
 37 38  1  0  0  0  0
M  END
>  <minimizedAffinity>
-5.92485571

$$$$

 OpenBabel03272502083D

 38 41  0  0  0  0  0  0  0  0999 V2000
   35.9840   27.9090   35.1010 F   0  0  0  0  0  0  0  0  0  0  0  0
   36.1620   28.3080   33.8000 C   0  0  0  0  0  0  0  0  0  0  0  0
   37.2090   27.8430   33.0210 C   0  0  0  0  0  0  0  0  0  0  0  0
   37.3130   28.2760   31.7180 C   0  0  0  0  0  0  0  0  0  0  0  0
   36.3780   29.1710   31.1870 C   0  0  0  0  0  0  0  0  0  0  0  0
   35.3590   29.5960   32.0180 C   0  0  0  0  0  0  0  0  0  0  0  0
   35.2190   29.2000   33.2950 C   0  0  0  0  0  0  0  0  0  0  0  0
   38.1450   27.8860   31.1520 H   0  0  0  0  0  0  0  0  0  0  0  0
   36.4950   29.4820   30.1720 H   0  0  0  0  0  0  0  0  0  0  0  0
   34.6770   30.2840   31.5390 H   0  0  0  0  0  0  0  0  0  0  0  0
   37.9040   25.5820   33.4710 C   0  0  0  0  0  0  0  0  0  0  0  0
   38.0960   26.9290   33.6880 C   0  0  0  0  0  0  0  0  0  0  0  0
   39.1390   27.3140   34.5320 C   0  0  0  0  0  0  0  0  0  0  0  0
   39.9250   26.3680   35.1050 N   0  0  0  0  0  0  0  0  0  0  0  0
   39.7060   25.0710   34.8670 C   0  0  0  0  0  0  0  0  0  0  0  0
   38.7230   24.6790   34.0720 N   0  0  0  0  0  0  0  0  0  0  0  0
   37.1210   25.1890   32.8330 H   0  0  0  0  0  0  0  0  0  0  0  0
   39.2250   28.3880   34.6530 H   0  0  0  0  0  0  0  0  0  0  0  0
   40.5510   24.1050   35.4860 N   0  0  0  0  0  0  0  0  0  0  0  0
   41.9060   23.8760   35.0160 C   0  0  0  0  0  3  0  0  0  0  0  0
   42.1090   24.4440   34.0740 H   0  0  0  0  0  0  0  0  0  0  0  0
   42.1440   22.4080   34.8640 C   0  0  0  0  0  3  0  0  0  0  0  0
   42.4210   22.2230   33.8000 H   0  0  0  0  0  0  0  0  0  0  0  0
   40.9850   21.6840   35.0890 O   0  0  0  0  0  0  0  0  0  0  0  0
   40.4700   21.8830   36.3710 C   0  0  0  0  0  2  0  0  0  0  0  0
   40.0960   23.3070   36.6100 C   0  0  0  0  0  2  0  0  0  0  0  0
   35.8990   31.3230   35.4940 Br  0  0  0  0  0  0  0  0  0  0  0  0
   34.1660   30.6400   35.1070 C   0  0  0  0  0  0  0  0  0  0  0  0
   34.1300   29.6970   34.1130 C   0  0  0  0  0  0  0  0  0  0  0  0
   32.8860   29.1220   33.7970 C   0  0  0  0  0  0  0  0  0  0  0  0
   31.7610   29.4940   34.4580 C   0  0  0  0  0  0  0  0  0  0  0  0
   31.8670   30.4490   35.4450 C   0  0  0  0  0  0  0  0  0  0  0  0
   33.0800   31.0450   35.7910 C   0  0  0  0  0  0  0  0  0  0  0  0
   32.7660   28.3700   33.0290 H   0  0  0  0  0  0  0  0  0  0  0  0
   30.7760   29.0880   34.2620 H   0  0  0  0  0  0  0  0  0  0  0  0
   30.9850   30.7770   36.0010 H   0  0  0  0  0  0  0  0  0  0  0  0
   33.2640   31.9940   36.7490 O   0  0  0  0  0  0  0  0  0  0  0  0
   32.6540   32.2080   37.5130 H   0  0  0  0  0  0  0  0  0  0  0  0
  2  1  1  0  0  0  0
  3 12  1  0  0  0  0
  3  2  2  0  0  0  0
  4  3  1  0  0  0  0
  5  4  2  0  0  0  0
  5  6  1  0  0  0  0
  6  7  2  0  0  0  0
  7  2  1  0  0  0  0
  7 29  1  0  0  0  0
  8  4  1  0  0  0  0
  9  5  1  0  0  0  0
 10  6  1  0  0  0  0
 11 12  2  0  0  0  0
 11 16  1  0  0  0  0
 12 13  1  0  0  0  0
 13 18  1  0  0  0  0
 13 14  2  0  0  0  0
 15 14  1  0  0  0  0
 15 19  1  0  0  0  0
 16 15  2  0  0  0  0
 17 11  1  0  0  0  0
 19 26  1  0  0  0  0
 20 19  1  0  0  0  0
 21 20  1  0  0  0  0
 22 20  1  0  0  0  0
 22 24  1  0  0  0  0
 23 22  1  0  0  0  0
 24 25  1  0  0  0  0
 25 26  1  0  0  0  0
 28 27  1  0  0  0  0
 28 33  1  0  0  0  0
 29 28  2  0  0  0  0
 30 29  1  0  0  0  0
 30 31  2  0  0  0  0
 31 32  1  0  0  0  0
 32 33  2  0  0  0  0
 32 36  1  0  0  0  0
 33 37  1  0  0  0  0
 34 30  1  0  0  0  0
 35 31  1  0  0  0  0
 37 38  1  0  0  0  0
M  END
>  <minimizedAffinity>
-5.87004662

$$$$

 OpenBabel03272502083D

 38 41  0  0  0  0  0  0  0  0999 V2000
   36.5610   29.6460   35.3030 F   0  0  0  0  0  0  0  0  0  0  0  0
   35.8160   29.7560   34.1560 C   0  0  0  0  0  0  0  0  0  0  0  0
   35.9230   28.8470   33.1150 C   0  0  0  0  0  0  0  0  0  0  0  0
   35.1300   29.0120   32.0020 C   0  0  0  0  0  0  0  0  0  0  0  0
   34.2300   30.0800   31.9190 C   0  0  0  0  0  0  0  0  0  0  0  0
   34.1740   30.9510   32.9910 C   0  0  0  0  0  0  0  0  0  0  0  0
   34.9280   30.8280   34.0970 C   0  0  0  0  0  0  0  0  0  0  0  0
   35.2500   28.2790   31.2190 H   0  0  0  0  0  0  0  0  0  0  0  0
   33.6330   30.1730   31.0380 H   0  0  0  0  0  0  0  0  0  0  0  0
   33.4580   31.7490   32.8560 H   0  0  0  0  0  0  0  0  0  0  0  0
   36.6830   26.9600   34.4040 C   0  0  0  0  0  0  0  0  0  0  0  0
   36.8830   27.7980   33.3290 C   0  0  0  0  0  0  0  0  0  0  0  0
   37.9960   27.5690   32.5190 C   0  0  0  0  0  0  0  0  0  0  0  0
   38.8360   26.5430   32.8040 N   0  0  0  0  0  0  0  0  0  0  0  0
   38.6050   25.7520   33.8570 C   0  0  0  0  0  0  0  0  0  0  0  0
   37.5580   25.9490   34.6420 N   0  0  0  0  0  0  0  0  0  0  0  0
   35.8480   27.0610   35.0880 H   0  0  0  0  0  0  0  0  0  0  0  0
   38.0840   28.2690   31.6960 H   0  0  0  0  0  0  0  0  0  0  0  0
   39.5100   24.6840   34.1270 N   0  0  0  0  0  0  0  0  0  0  0  0
   39.5100   23.4740   33.3240 C   0  0  0  0  0  3  0  0  0  0  0  0
   38.6560   23.4670   32.6030 H   0  0  0  0  0  0  0  0  0  0  0  0
   39.5150   22.2770   34.2200 C   0  0  0  0  0  3  0  0  0  0  0  0
   38.6060   21.6760   33.9800 H   0  0  0  0  0  0  0  0  0  0  0  0
   39.3930   22.6420   35.5500 O   0  0  0  0  0  0  0  0  0  0  0  0
   40.4310   23.4730   35.9730 C   0  0  0  0  0  2  0  0  0  0  0  0
   40.4670   24.7570   35.2160 C   0  0  0  0  0  2  0  0  0  0  0  0
   36.6640   33.4290   33.9120 Br  0  0  0  0  0  0  0  0  0  0  0  0
   35.4500   32.9990   35.3130 C   0  0  0  0  0  0  0  0  0  0  0  0
   34.8250   31.7870   35.1790 C   0  0  0  0  0  0  0  0  0  0  0  0
   33.9390   31.3870   36.1960 C   0  0  0  0  0  0  0  0  0  0  0  0
   33.7140   32.1820   37.2730 C   0  0  0  0  0  0  0  0  0  0  0  0
   34.3730   33.3900   37.3440 C   0  0  0  0  0  0  0  0  0  0  0  0
   35.2590   33.8250   36.3590 C   0  0  0  0  0  0  0  0  0  0  0  0
   33.4060   30.4470   36.1730 H   0  0  0  0  0  0  0  0  0  0  0  0
   33.0460   31.9310   38.0880 H   0  0  0  0  0  0  0  0  0  0  0  0
   34.2200   34.0600   38.1930 H   0  0  0  0  0  0  0  0  0  0  0  0
   35.9440   35.0010   36.3570 O   0  0  0  0  0  0  0  0  0  0  0  0
   36.1360   35.5900   37.1430 H   0  0  0  0  0  0  0  0  0  0  0  0
  2  1  1  0  0  0  0
  3 12  1  0  0  0  0
  3  2  2  0  0  0  0
  4  3  1  0  0  0  0
  5  4  2  0  0  0  0
  5  6  1  0  0  0  0
  6  7  2  0  0  0  0
  7  2  1  0  0  0  0
  7 29  1  0  0  0  0
  8  4  1  0  0  0  0
  9  5  1  0  0  0  0
 10  6  1  0  0  0  0
 11 16  1  0  0  0  0
 11 17  1  0  0  0  0
 12 11  2  0  0  0  0
 13 14  2  0  0  0  0
 13 12  1  0  0  0  0
 14 15  1  0  0  0  0
 15 19  1  0  0  0  0
 15 16  2  0  0  0  0
 18 13  1  0  0  0  0
 19 26  1  0  0  0  0
 20 19  1  0  0  0  0
 20 22  1  0  0  0  0
 21 20  1  0  0  0  0
 22 24  1  0  0  0  0
 23 22  1  0  0  0  0
 24 25  1  0  0  0  0
 26 25  1  0  0  0  0
 27 28  1  0  0  0  0
 28 33  1  0  0  0  0
 29 28  2  0  0  0  0
 29 30  1  0  0  0  0
 30 31  2  0  0  0  0
 31 32  1  0  0  0  0
 31 35  1  0  0  0  0
 32 36  1  0  0  0  0
 33 32  2  0  0  0  0
 34 30  1  0  0  0  0
 37 33  1  0  0  0  0
 37 38  1  0  0  0  0
M  END
>  <minimizedAffinity>
-5.86153889

$$$$
