
 OpenBabel03272510223D

 35 38  0  0  0  0  0  0  0  0999 V2000
   35.1130   31.3550   32.0380 Br  0  0  0  0  0  0  0  0  0  0  0  0
   35.8720   29.7590   32.7450 C   0  0  0  0  0  0  0  0  0  0  0  0
   35.7680   29.4630   34.1120 C   0  0  0  0  0  0  0  0  0  0  0  0
   36.3400   28.2960   34.5510 C   0  0  0  0  0  0  0  0  0  0  0  0
   37.0060   27.4100   33.7160 C   0  0  0  0  0  0  0  0  0  0  0  0
   37.0890   27.7290   32.3880 C   0  0  0  0  0  0  0  0  0  0  0  0
   36.5240   28.8940   31.9230 C   0  0  0  0  0  0  0  0  0  0  0  0
   36.2870   28.0200   35.5990 H   0  0  0  0  0  0  0  0  0  0  0  0
   37.6010   27.0640   31.7000 H   0  0  0  0  0  0  0  0  0  0  0  0
   36.5930   29.1420   30.8700 H   0  0  0  0  0  0  0  0  0  0  0  0
   37.6100   26.1740   34.1820 C   0  0  0  0  0  0  0  0  0  0  0  0
   38.2680   26.0200   35.3790 C   0  0  0  0  0  0  0  0  0  0  0  0
   38.8300   24.8220   35.7840 C   0  0  0  0  0  0  0  0  0  0  0  0
   38.7390   23.7450   34.9790 N   0  0  0  0  0  0  0  0  0  0  0  0
   38.0990   23.8920   33.8140 C   0  0  0  0  0  0  0  0  0  0  0  0
   37.5640   25.0500   33.4390 N   0  0  0  0  0  0  0  0  0  0  0  0
   38.3460   26.8910   36.0350 H   0  0  0  0  0  0  0  0  0  0  0  0
   39.3350   24.7890   36.7520 H   0  0  0  0  0  0  0  0  0  0  0  0
   37.9920   22.7680   32.9550 N   0  0  0  0  0  0  0  0  0  0  0  0
   38.9770   22.4500   31.9400 C   0  0  0  0  0  3  0  0  0  0  0  0
   39.5400   21.5390   32.2780 H   0  0  0  0  0  0  0  0  0  0  0  0
   38.2920   22.1790   30.5950 C   0  0  0  0  0  3  0  0  0  0  0  0
   38.0310   23.1460   30.1390 H   0  0  0  0  0  0  0  0  0  0  0  0
   37.1970   21.3530   30.7340 O   0  0  0  0  0  0  0  0  0  0  0  0
   36.2650   21.8460   31.6200 C   0  0  0  0  0  2  0  0  0  0  0  0
   36.8830   21.8360   33.0150 C   0  0  0  0  0  2  0  0  0  0  0  0
   35.2520   32.1110   36.5620 C   0  0  0  0  0  0  0  0  0  0  0  0
   33.8250   32.1070   36.7410 C   0  0  0  0  0  0  0  0  0  0  0  0
   33.0870   31.1950   36.0150 C   0  0  0  0  0  0  0  0  0  0  0  0
   33.7330   30.3390   35.1610 N   0  0  0  0  0  0  0  0  0  0  0  0
   35.0810   30.3630   35.0110 C   0  0  0  0  0  0  0  0  0  0  0  0
   35.8210   31.2530   35.7170 N   0  0  0  0  0  0  0  0  0  0  0  0
   35.8750   32.8050   37.1070 H   0  0  0  0  0  0  0  0  0  0  0  0
   33.3860   32.8130   37.4330 H   0  0  0  0  0  0  0  0  0  0  0  0
   32.0080   31.1610   36.1220 H   0  0  0  0  0  0  0  0  0  0  0  0
  1  2  1  0  0  0  0
  2  3  1  0  0  0  0
  3  4  2  0  0  0  0
  3 31  1  0  0  0  0
  4  8  1  0  0  0  0
  5 11  1  0  0  0  0
  5  4  1  0  0  0  0
  6  5  2  0  0  0  0
  7  6  1  0  0  0  0
  7  2  2  0  0  0  0
  9  6  1  0  0  0  0
 10  7  1  0  0  0  0
 11 12  1  0  0  0  0
 12 13  2  0  0  0  0
 12 17  1  0  0  0  0
 13 18  1  0  0  0  0
 14 13  1  0  0  0  0
 15 14  2  0  0  0  0
 16 15  1  0  0  0  0
 16 11  2  0  0  0  0
 19 26  1  0  0  0  0
 19 15  1  0  0  0  0
 20 21  1  0  0  0  0
 20 19  1  0  0  0  0
 22 24  1  0  0  0  0
 22 20  1  0  0  0  0
 23 22  1  0  0  0  0
 24 25  1  0  0  0  0
 25 26  1  0  0  0  0
 27 28  1  0  0  0  0
 27 33  1  0  0  0  0
 28 34  1  0  0  0  0
 29 35  1  0  0  0  0
 29 28  2  0  0  0  0
 30 29  1  0  0  0  0
 31 30  2  0  0  0  0
 31 32  1  0  0  0  0
 32 27  2  0  0  0  0
M  END
>  <minimizedAffinity>
-6.01416206

$$$$

 OpenBabel03272510223D

 35 38  0  0  0  0  0  0  0  0999 V2000
   35.6520   32.6140   32.0490 Br  0  0  0  0  0  0  0  0  0  0  0  0
   35.8420   30.7190   32.0730 C   0  0  0  0  0  0  0  0  0  0  0  0
   35.5200   29.9840   33.2240 C   0  0  0  0  0  0  0  0  0  0  0  0
   35.6820   28.6220   33.1690 C   0  0  0  0  0  0  0  0  0  0  0  0
   36.1420   27.9530   32.0440 C   0  0  0  0  0  0  0  0  0  0  0  0
   36.4460   28.7000   30.9390 C   0  0  0  0  0  0  0  0  0  0  0  0
   36.2930   30.0670   30.9690 C   0  0  0  0  0  0  0  0  0  0  0  0
   35.4470   28.0070   34.0310 H   0  0  0  0  0  0  0  0  0  0  0  0
   36.8100   28.2170   30.0380 H   0  0  0  0  0  0  0  0  0  0  0  0
   36.5360   30.6550   30.0920 H   0  0  0  0  0  0  0  0  0  0  0  0
   36.3130   26.5110   31.9870 C   0  0  0  0  0  0  0  0  0  0  0  0
   35.5930   25.6620   31.1800 C   0  0  0  0  0  0  0  0  0  0  0  0
   35.7900   24.2940   31.1580 C   0  0  0  0  0  0  0  0  0  0  0  0
   36.7260   23.7470   31.9600 N   0  0  0  0  0  0  0  0  0  0  0  0
   37.4270   24.5710   32.7450 C   0  0  0  0  0  0  0  0  0  0  0  0
   37.2270   25.8850   32.7550 N   0  0  0  0  0  0  0  0  0  0  0  0
   34.8310   26.1000   30.5290 H   0  0  0  0  0  0  0  0  0  0  0  0
   35.1720   23.6930   30.4860 H   0  0  0  0  0  0  0  0  0  0  0  0
   38.4180   24.0130   33.5950 N   0  0  0  0  0  0  0  0  0  0  0  0
   38.1440   23.5700   34.9470 C   0  0  0  0  0  3  0  0  0  0  0  0
   38.1830   22.4480   34.9580 H   0  0  0  0  0  0  0  0  0  0  0  0
   39.1810   24.1440   35.9200 C   0  0  0  0  0  3  0  0  0  0  0  0
   38.9140   25.1900   36.1340 H   0  0  0  0  0  0  0  0  0  0  0  0
   40.4650   24.0220   35.4320 O   0  0  0  0  0  0  0  0  0  0  0  0
   40.6280   24.6160   34.2010 C   0  0  0  0  0  2  0  0  0  0  0  0
   39.7980   23.8390   33.1830 C   0  0  0  0  0  2  0  0  0  0  0  0
   33.1850   31.3320   35.6750 C   0  0  0  0  0  0  0  0  0  0  0  0
   34.0570   31.9050   36.6650 C   0  0  0  0  0  0  0  0  0  0  0  0
   35.4170   31.8100   36.4590 C   0  0  0  0  0  0  0  0  0  0  0  0
   35.8810   31.1810   35.3320 N   0  0  0  0  0  0  0  0  0  0  0  0
   35.0370   30.6480   34.4130 C   0  0  0  0  0  0  0  0  0  0  0  0
   33.6970   30.7330   34.6010 N   0  0  0  0  0  0  0  0  0  0  0  0
   32.1120   31.3790   35.7900 H   0  0  0  0  0  0  0  0  0  0  0  0
   33.6170   32.3860   37.5290 H   0  0  0  0  0  0  0  0  0  0  0  0
   36.1080   32.2300   37.1820 H   0  0  0  0  0  0  0  0  0  0  0  0
  1  2  1  0  0  0  0
  2  3  1  0  0  0  0
  3 31  1  0  0  0  0
  4  3  2  0  0  0  0
  4  8  1  0  0  0  0
  5  4  1  0  0  0  0
  6  7  1  0  0  0  0
  6  5  2  0  0  0  0
  7  2  2  0  0  0  0
  9  6  1  0  0  0  0
 10  7  1  0  0  0  0
 11  5  1  0  0  0  0
 11 16  1  0  0  0  0
 12 11  2  0  0  0  0
 13 12  1  0  0  0  0
 13 14  2  0  0  0  0
 14 15  1  0  0  0  0
 15 16  2  0  0  0  0
 15 19  1  0  0  0  0
 17 12  1  0  0  0  0
 18 13  1  0  0  0  0
 19 20  1  0  0  0  0
 20 21  1  0  0  0  0
 20 22  1  0  0  0  0
 22 23  1  0  0  0  0
 24 22  1  0  0  0  0
 25 24  1  0  0  0  0
 26 19  1  0  0  0  0
 26 25  1  0  0  0  0
 27 33  1  0  0  0  0
 27 28  1  0  0  0  0
 28 34  1  0  0  0  0
 29 28  2  0  0  0  0
 29 35  1  0  0  0  0
 30 29  1  0  0  0  0
 31 32  1  0  0  0  0
 31 30  2  0  0  0  0
 32 27  2  0  0  0  0
M  END
>  <minimizedAffinity>
-5.91612339

$$$$

 OpenBabel03272510223D

 35 38  0  0  0  0  0  0  0  0999 V2000
   37.4210   28.6720   29.3190 Br  0  0  0  0  0  0  0  0  0  0  0  0
   36.7080   29.3030   30.9680 C   0  0  0  0  0  0  0  0  0  0  0  0
   36.2940   28.4010   31.9580 C   0  0  0  0  0  0  0  0  0  0  0  0
   35.7890   28.9270   33.1210 C   0  0  0  0  0  0  0  0  0  0  0  0
   35.6730   30.2900   33.3550 C   0  0  0  0  0  0  0  0  0  0  0  0
   36.0880   31.1420   32.3680 C   0  0  0  0  0  0  0  0  0  0  0  0
   36.5960   30.6400   31.1930 C   0  0  0  0  0  0  0  0  0  0  0  0
   35.4550   28.2720   33.9190 H   0  0  0  0  0  0  0  0  0  0  0  0
   36.0150   32.2160   32.5100 H   0  0  0  0  0  0  0  0  0  0  0  0
   36.9230   31.3180   30.4140 H   0  0  0  0  0  0  0  0  0  0  0  0
   35.1390   30.8450   34.5870 C   0  0  0  0  0  0  0  0  0  0  0  0
   35.7470   31.8210   35.3410 C   0  0  0  0  0  0  0  0  0  0  0  0
   35.2010   32.3220   36.5090 C   0  0  0  0  0  0  0  0  0  0  0  0
   34.0190   31.8430   36.9450 N   0  0  0  0  0  0  0  0  0  0  0  0
   33.4270   30.8930   36.2130 C   0  0  0  0  0  0  0  0  0  0  0  0
   33.9630   30.4220   35.0920 N   0  0  0  0  0  0  0  0  0  0  0  0
   36.7060   32.2130   34.9920 H   0  0  0  0  0  0  0  0  0  0  0  0
   35.7530   33.0970   37.0460 H   0  0  0  0  0  0  0  0  0  0  0  0
   32.1810   30.3780   36.6570 N   0  0  0  0  0  0  0  0  0  0  0  0
   32.0660   29.2350   37.5410 C   0  0  0  0  0  3  0  0  0  0  0  0
   31.7290   29.6070   38.5450 H   0  0  0  0  0  0  0  0  0  0  0  0
   31.0550   28.2260   36.9850 C   0  0  0  0  0  3  0  0  0  0  0  0
   31.5450   27.6480   36.1870 H   0  0  0  0  0  0  0  0  0  0  0  0
   29.9010   28.8430   36.5500 O   0  0  0  0  0  0  0  0  0  0  0  0
   30.1380   29.8100   35.5990 C   0  0  0  0  0  2  0  0  0  0  0  0
   30.9080   30.9500   36.2610 C   0  0  0  0  0  2  0  0  0  0  0  0
   35.3630   25.0090   31.0070 C   0  0  0  0  0  0  0  0  0  0  0  0
   36.5450   24.2520   31.3220 C   0  0  0  0  0  0  0  0  0  0  0  0
   37.6220   24.9320   31.8520 C   0  0  0  0  0  0  0  0  0  0  0  0
   37.5270   26.2850   32.0540 N   0  0  0  0  0  0  0  0  0  0  0  0
   36.4000   26.9750   31.7480 C   0  0  0  0  0  0  0  0  0  0  0  0
   35.3320   26.3220   31.2260 N   0  0  0  0  0  0  0  0  0  0  0  0
   34.4920   24.5240   30.5890 H   0  0  0  0  0  0  0  0  0  0  0  0
   36.5460   23.1870   31.1350 H   0  0  0  0  0  0  0  0  0  0  0  0
   38.5320   24.3970   32.1040 H   0  0  0  0  0  0  0  0  0  0  0  0
  1  2  1  0  0  0  0
  2  7  2  0  0  0  0
  2  3  1  0  0  0  0
  3  4  2  0  0  0  0
  4  5  1  0  0  0  0
  4  8  1  0  0  0  0
  5 11  1  0  0  0  0
  6  9  1  0  0  0  0
  6  5  2  0  0  0  0
  7  6  1  0  0  0  0
 10  7  1  0  0  0  0
 11 16  2  0  0  0  0
 11 12  1  0  0  0  0
 12 13  2  0  0  0  0
 13 14  1  0  0  0  0
 13 18  1  0  0  0  0
 15 19  1  0  0  0  0
 15 14  2  0  0  0  0
 16 15  1  0  0  0  0
 17 12  1  0  0  0  0
 19 20  1  0  0  0  0
 20 21  1  0  0  0  0
 22 20  1  0  0  0  0
 23 22  1  0  0  0  0
 24 22  1  0  0  0  0
 25 26  1  0  0  0  0
 25 24  1  0  0  0  0
 26 19  1  0  0  0  0
 27 32  2  0  0  0  0
 27 28  1  0  0  0  0
 28 29  2  0  0  0  0
 29 30  1  0  0  0  0
 29 35  1  0  0  0  0
 31  3  1  0  0  0  0
 31 30  2  0  0  0  0
 32 31  1  0  0  0  0
 33 27  1  0  0  0  0
 34 28  1  0  0  0  0
M  END
>  <minimizedAffinity>
-5.84925508

$$$$

 OpenBabel03272510223D

 35 38  0  0  0  0  0  0  0  0999 V2000
   34.0140   30.5220   31.9070 Br  0  0  0  0  0  0  0  0  0  0  0  0
   35.3640   29.3840   32.6190 C   0  0  0  0  0  0  0  0  0  0  0  0
   35.5000   29.2170   34.0050 C   0  0  0  0  0  0  0  0  0  0  0  0
   36.4950   28.3820   34.4460 C   0  0  0  0  0  0  0  0  0  0  0  0
   37.3590   27.7080   33.5960 C   0  0  0  0  0  0  0  0  0  0  0  0
   37.1990   27.8920   32.2500 C   0  0  0  0  0  0  0  0  0  0  0  0
   36.2090   28.7250   31.7820 C   0  0  0  0  0  0  0  0  0  0  0  0
   36.6420   28.2180   35.5090 H   0  0  0  0  0  0  0  0  0  0  0  0
   37.8540   27.3840   31.5490 H   0  0  0  0  0  0  0  0  0  0  0  0
   36.0860   28.8680   30.7150 H   0  0  0  0  0  0  0  0  0  0  0  0
   38.4120   26.8230   34.0650 C   0  0  0  0  0  0  0  0  0  0  0  0
   39.7510   27.1340   34.0890 C   0  0  0  0  0  0  0  0  0  0  0  0
   40.7210   26.2600   34.5450 C   0  0  0  0  0  0  0  0  0  0  0  0
   40.3560   25.0410   34.9900 N   0  0  0  0  0  0  0  0  0  0  0  0
   39.0540   24.7370   34.9670 C   0  0  0  0  0  0  0  0  0  0  0  0
   38.1330   25.5870   34.5260 N   0  0  0  0  0  0  0  0  0  0  0  0
   40.0530   28.1210   33.7280 H   0  0  0  0  0  0  0  0  0  0  0  0
   41.7630   26.5890   34.5280 H   0  0  0  0  0  0  0  0  0  0  0  0
   38.6510   23.4580   35.4330 N   0  0  0  0  0  0  0  0  0  0  0  0
   38.5500   22.2970   34.5710 C   0  0  0  0  0  3  0  0  0  0  0  0
   39.3910   21.5990   34.8300 H   0  0  0  0  0  0  0  0  0  0  0  0
   37.2010   21.5960   34.7730 C   0  0  0  0  0  3  0  0  0  0  0  0
   36.4320   22.1590   34.2230 H   0  0  0  0  0  0  0  0  0  0  0  0
   36.8910   21.4560   36.1090 O   0  0  0  0  0  0  0  0  0  0  0  0
   36.8780   22.6560   36.7830 C   0  0  0  0  0  2  0  0  0  0  0  0
   38.3030   23.2000   36.8170 C   0  0  0  0  0  2  0  0  0  0  0  0
   34.3150   31.7020   36.3930 C   0  0  0  0  0  0  0  0  0  0  0  0
   32.9760   31.2600   36.6770 C   0  0  0  0  0  0  0  0  0  0  0  0
   32.5240   30.1230   36.0390 C   0  0  0  0  0  0  0  0  0  0  0  0
   33.3580   29.4660   35.1710 N   0  0  0  0  0  0  0  0  0  0  0  0
   34.6170   29.9040   34.9200 C   0  0  0  0  0  0  0  0  0  0  0  0
   35.0770   31.0200   35.5380 N   0  0  0  0  0  0  0  0  0  0  0  0
   34.7170   32.5870   36.8650 H   0  0  0  0  0  0  0  0  0  0  0  0
   32.3770   31.8300   37.3740 H   0  0  0  0  0  0  0  0  0  0  0  0
   31.5200   29.7570   36.2270 H   0  0  0  0  0  0  0  0  0  0  0  0
  1  2  1  0  0  0  0
  2  3  1  0  0  0  0
  3  4  2  0  0  0  0
  3 31  1  0  0  0  0
  4  8  1  0  0  0  0
  5 11  1  0  0  0  0
  5  4  1  0  0  0  0
  6  5  2  0  0  0  0
  7  6  1  0  0  0  0
  7  2  2  0  0  0  0
  9  6  1  0  0  0  0
 10  7  1  0  0  0  0
 11 12  2  0  0  0  0
 11 16  1  0  0  0  0
 12 13  1  0  0  0  0
 13 14  2  0  0  0  0
 15 14  1  0  0  0  0
 15 19  1  0  0  0  0
 16 15  2  0  0  0  0
 17 12  1  0  0  0  0
 18 13  1  0  0  0  0
 19 26  1  0  0  0  0
 20 22  1  0  0  0  0
 20 21  1  0  0  0  0
 20 19  1  0  0  0  0
 22 24  1  0  0  0  0
 23 22  1  0  0  0  0
 24 25  1  0  0  0  0
 25 26  1  0  0  0  0
 27 28  1  0  0  0  0
 27 33  1  0  0  0  0
 28 34  1  0  0  0  0
 29 35  1  0  0  0  0
 29 28  2  0  0  0  0
 30 29  1  0  0  0  0
 31 30  2  0  0  0  0
 31 32  1  0  0  0  0
 32 27  2  0  0  0  0
M  END
>  <minimizedAffinity>
-5.72206545

$$$$

 OpenBabel03272510223D

 35 38  0  0  0  0  0  0  0  0999 V2000
   37.1080   21.6150   32.5600 Br  0  0  0  0  0  0  0  0  0  0  0  0
   36.8210   23.4760   32.2730 C   0  0  0  0  0  0  0  0  0  0  0  0
   37.5520   24.4310   32.9950 C   0  0  0  0  0  0  0  0  0  0  0  0
   37.2910   25.7530   32.7370 C   0  0  0  0  0  0  0  0  0  0  0  0
   36.3530   26.1790   31.8080 C   0  0  0  0  0  0  0  0  0  0  0  0
   35.6590   25.2220   31.1200 C   0  0  0  0  0  0  0  0  0  0  0  0
   35.9000   23.8890   31.3610 C   0  0  0  0  0  0  0  0  0  0  0  0
   37.8290   26.5310   33.2680 H   0  0  0  0  0  0  0  0  0  0  0  0
   34.9160   25.5120   30.3840 H   0  0  0  0  0  0  0  0  0  0  0  0
   35.3480   23.1350   30.8150 H   0  0  0  0  0  0  0  0  0  0  0  0
   36.0800   27.5800   31.5350 C   0  0  0  0  0  0  0  0  0  0  0  0
   36.6950   28.3290   30.5610 C   0  0  0  0  0  0  0  0  0  0  0  0
   36.4020   29.6620   30.3350 C   0  0  0  0  0  0  0  0  0  0  0  0
   35.4730   30.2730   31.0980 N   0  0  0  0  0  0  0  0  0  0  0  0
   34.8730   29.5460   32.0460 C   0  0  0  0  0  0  0  0  0  0  0  0
   35.1650   28.2650   32.2510 N   0  0  0  0  0  0  0  0  0  0  0  0
   37.4500   27.8390   29.9400 H   0  0  0  0  0  0  0  0  0  0  0  0
   36.9400   30.1820   29.5390 H   0  0  0  0  0  0  0  0  0  0  0  0
   33.8920   30.1720   32.8580 N   0  0  0  0  0  0  0  0  0  0  0  0
   34.2050   30.8440   34.1030 C   0  0  0  0  0  3  0  0  0  0  0  0
   34.0880   31.9480   33.9390 H   0  0  0  0  0  0  0  0  0  0  0  0
   33.2630   30.3730   35.2180 C   0  0  0  0  0  3  0  0  0  0  0  0
   33.6140   29.3940   35.5770 H   0  0  0  0  0  0  0  0  0  0  0  0
   31.9500   30.3360   34.7990 O   0  0  0  0  0  0  0  0  0  0  0  0
   31.7650   29.5420   33.6900 C   0  0  0  0  0  2  0  0  0  0  0  0
   32.4840   30.1930   32.5120 C   0  0  0  0  0  2  0  0  0  0  0  0
   39.0010   23.5170   36.2120 C   0  0  0  0  0  0  0  0  0  0  0  0
   40.3730   23.2430   35.8780 C   0  0  0  0  0  0  0  0  0  0  0  0
   40.7550   23.3810   34.5590 C   0  0  0  0  0  0  0  0  0  0  0  0
   39.8250   23.7690   33.6300 N   0  0  0  0  0  0  0  0  0  0  0  0
   38.5370   24.0220   33.9710 C   0  0  0  0  0  0  0  0  0  0  0  0
   38.1440   23.8910   35.2620 N   0  0  0  0  0  0  0  0  0  0  0  0
   38.6510   23.4240   37.2290 H   0  0  0  0  0  0  0  0  0  0  0  0
   41.0490   22.9410   36.6660 H   0  0  0  0  0  0  0  0  0  0  0  0
   41.7810   23.1830   34.2670 H   0  0  0  0  0  0  0  0  0  0  0  0
  2  1  1  0  0  0  0
  2  3  1  0  0  0  0
  3 31  1  0  0  0  0
  4  3  2  0  0  0  0
  4  8  1  0  0  0  0
  5  4  1  0  0  0  0
  6  7  1  0  0  0  0
  6  5  2  0  0  0  0
  7  2  2  0  0  0  0
  9  6  1  0  0  0  0
 10  7  1  0  0  0  0
 11  5  1  0  0  0  0
 11 16  1  0  0  0  0
 12 11  2  0  0  0  0
 13 12  1  0  0  0  0
 13 14  2  0  0  0  0
 14 15  1  0  0  0  0
 15 16  2  0  0  0  0
 15 19  1  0  0  0  0
 17 12  1  0  0  0  0
 18 13  1  0  0  0  0
 19 20  1  0  0  0  0
 20 22  1  0  0  0  0
 21 20  1  0  0  0  0
 22 23  1  0  0  0  0
 24 22  1  0  0  0  0
 25 24  1  0  0  0  0
 26 19  1  0  0  0  0
 26 25  1  0  0  0  0
 27 33  1  0  0  0  0
 28 27  1  0  0  0  0
 28 34  1  0  0  0  0
 29 28  2  0  0  0  0
 30 31  2  0  0  0  0
 30 29  1  0  0  0  0
 31 32  1  0  0  0  0
 32 27  2  0  0  0  0
 35 29  1  0  0  0  0
M  END
>  <minimizedAffinity>
-5.64878988

$$$$

 OpenBabel03272510223D

 35 38  0  0  0  0  0  0  0  0999 V2000
   41.2830   24.3290   35.2040 Br  0  0  0  0  0  0  0  0  0  0  0  0
   40.0040   25.4710   34.3770 C   0  0  0  0  0  0  0  0  0  0  0  0
   38.6800   25.5130   34.8390 C   0  0  0  0  0  0  0  0  0  0  0  0
   37.8130   26.3590   34.1940 C   0  0  0  0  0  0  0  0  0  0  0  0
   38.1820   27.1610   33.1250 C   0  0  0  0  0  0  0  0  0  0  0  0
   39.4820   27.0980   32.7010 C   0  0  0  0  0  0  0  0  0  0  0  0
   40.3700   26.2560   33.3290 C   0  0  0  0  0  0  0  0  0  0  0  0
   36.7780   26.4290   34.5120 H   0  0  0  0  0  0  0  0  0  0  0  0
   39.8130   27.7090   31.8670 H   0  0  0  0  0  0  0  0  0  0  0  0
   41.3980   26.2090   32.9900 H   0  0  0  0  0  0  0  0  0  0  0  0
   37.2630   28.0570   32.4440 C   0  0  0  0  0  0  0  0  0  0  0  0
   37.3100   28.3690   31.1060 C   0  0  0  0  0  0  0  0  0  0  0  0
   36.4120   29.2280   30.4990 C   0  0  0  0  0  0  0  0  0  0  0  0
   35.4390   29.7980   31.2370 N   0  0  0  0  0  0  0  0  0  0  0  0
   35.3920   29.4960   32.5390 C   0  0  0  0  0  0  0  0  0  0  0  0
   36.2610   28.6680   33.1090 N   0  0  0  0  0  0  0  0  0  0  0  0
   38.0980   27.9100   30.5020 H   0  0  0  0  0  0  0  0  0  0  0  0
   36.5240   29.4200   29.4290 H   0  0  0  0  0  0  0  0  0  0  0  0
   34.3730   30.0860   33.3320 N   0  0  0  0  0  0  0  0  0  0  0  0
   34.5370   31.3510   34.0190 C   0  0  0  0  0  3  0  0  0  0  0  0
   33.9070   32.1160   33.4910 H   0  0  0  0  0  0  0  0  0  0  0  0
   34.0990   31.2270   35.4840 C   0  0  0  0  0  3  0  0  0  0  0  0
   34.9080   30.7370   36.0460 H   0  0  0  0  0  0  0  0  0  0  0  0
   32.8990   30.5600   35.6060 O   0  0  0  0  0  0  0  0  0  0  0  0
   32.9240   29.3060   35.0370 C   0  0  0  0  0  2  0  0  0  0  0  0
   33.0740   29.4710   33.5270 C   0  0  0  0  0  2  0  0  0  0  0  0
   37.9580   24.5130   38.2670 C   0  0  0  0  0  0  0  0  0  0  0  0
   37.4720   23.1680   38.1130 C   0  0  0  0  0  0  0  0  0  0  0  0
   37.4090   22.6480   36.8360 C   0  0  0  0  0  0  0  0  0  0  0  0
   37.8060   23.4240   35.7770 N   0  0  0  0  0  0  0  0  0  0  0  0
   38.2600   24.6900   35.9500 C   0  0  0  0  0  0  0  0  0  0  0  0
   38.3290   25.2160   37.1990 N   0  0  0  0  0  0  0  0  0  0  0  0
   38.0260   24.9660   39.2460 H   0  0  0  0  0  0  0  0  0  0  0  0
   37.1760   22.6170   38.9960 H   0  0  0  0  0  0  0  0  0  0  0  0
   37.0480   21.6380   36.6770 H   0  0  0  0  0  0  0  0  0  0  0  0
  2  3  1  0  0  0  0
  2  1  1  0  0  0  0
  3 31  1  0  0  0  0
  4  8  1  0  0  0  0
  4  3  2  0  0  0  0
  5  4  1  0  0  0  0
  6  5  2  0  0  0  0
  6  7  1  0  0  0  0
  7  2  2  0  0  0  0
  9  6  1  0  0  0  0
 10  7  1  0  0  0  0
 11 16  1  0  0  0  0
 11  5  1  0  0  0  0
 12 11  2  0  0  0  0
 13 12  1  0  0  0  0
 13 14  2  0  0  0  0
 14 15  1  0  0  0  0
 15 16  2  0  0  0  0
 15 19  1  0  0  0  0
 17 12  1  0  0  0  0
 18 13  1  0  0  0  0
 19 26  1  0  0  0  0
 19 20  1  0  0  0  0
 20 22  1  0  0  0  0
 21 20  1  0  0  0  0
 22 24  1  0  0  0  0
 22 23  1  0  0  0  0
 25 24  1  0  0  0  0
 26 25  1  0  0  0  0
 27 33  1  0  0  0  0
 28 27  1  0  0  0  0
 28 34  1  0  0  0  0
 29 28  2  0  0  0  0
 30 31  2  0  0  0  0
 30 29  1  0  0  0  0
 31 32  1  0  0  0  0
 32 27  2  0  0  0  0
 35 29  1  0  0  0  0
M  END
>  <minimizedAffinity>
-5.60842133

$$$$

 OpenBabel03272510223D

 35 38  0  0  0  0  0  0  0  0999 V2000
   39.2300   27.4960   31.1580 Br  0  0  0  0  0  0  0  0  0  0  0  0
   37.5350   28.2130   31.6500 C   0  0  0  0  0  0  0  0  0  0  0  0
   36.9400   27.8650   32.8720 C   0  0  0  0  0  0  0  0  0  0  0  0
   35.7180   28.4190   33.1590 C   0  0  0  0  0  0  0  0  0  0  0  0
   35.0570   29.2930   32.3090 C   0  0  0  0  0  0  0  0  0  0  0  0
   35.6650   29.6120   31.1260 C   0  0  0  0  0  0  0  0  0  0  0  0
   36.8900   29.0690   30.8130 C   0  0  0  0  0  0  0  0  0  0  0  0
   35.2160   28.1830   34.0920 H   0  0  0  0  0  0  0  0  0  0  0  0
   35.1820   30.2920   30.4310 H   0  0  0  0  0  0  0  0  0  0  0  0
   37.3680   29.3240   29.8750 H   0  0  0  0  0  0  0  0  0  0  0  0
   33.7630   29.8790   32.6150 C   0  0  0  0  0  0  0  0  0  0  0  0
   33.1530   30.8700   31.8840 C   0  0  0  0  0  0  0  0  0  0  0  0
   31.9180   31.3990   32.2130 C   0  0  0  0  0  0  0  0  0  0  0  0
   31.2670   30.9350   33.2990 N   0  0  0  0  0  0  0  0  0  0  0  0
   31.8590   29.9710   34.0110 C   0  0  0  0  0  0  0  0  0  0  0  0
   33.0470   29.4720   33.6830 N   0  0  0  0  0  0  0  0  0  0  0  0
   33.6760   31.2510   31.0030 H   0  0  0  0  0  0  0  0  0  0  0  0
   31.5060   32.1860   31.5760 H   0  0  0  0  0  0  0  0  0  0  0  0
   31.1890   29.4690   35.1570 N   0  0  0  0  0  0  0  0  0  0  0  0
   31.3580   30.0290   36.4830 C   0  0  0  0  0  3  0  0  0  0  0  0
   30.4120   30.5700   36.7540 H   0  0  0  0  0  0  0  0  0  0  0  0
   31.6420   28.9190   37.5020 C   0  0  0  0  0  3  0  0  0  0  0  0
   32.7000   28.6300   37.4120 H   0  0  0  0  0  0  0  0  0  0  0  0
   30.7910   27.8460   37.3420 O   0  0  0  0  0  0  0  0  0  0  0  0
   30.8360   27.3130   36.0730 C   0  0  0  0  0  2  0  0  0  0  0  0
   30.2730   28.3460   35.1020 C   0  0  0  0  0  2  0  0  0  0  0  0
   38.9740   26.7050   35.6640 C   0  0  0  0  0  0  0  0  0  0  0  0
   38.8850   25.2740   35.5520 C   0  0  0  0  0  0  0  0  0  0  0  0
   38.1310   24.7550   34.5200 C   0  0  0  0  0  0  0  0  0  0  0  0
   37.5010   25.6110   33.6540 N   0  0  0  0  0  0  0  0  0  0  0  0
   37.6010   26.9580   33.7820 C   0  0  0  0  0  0  0  0  0  0  0  0
   38.3390   27.4850   34.7900 N   0  0  0  0  0  0  0  0  0  0  0  0
   39.5520   27.1630   36.4540 H   0  0  0  0  0  0  0  0  0  0  0  0
   39.4100   24.6620   36.2740 H   0  0  0  0  0  0  0  0  0  0  0  0
   38.0390   23.6800   34.4020 H   0  0  0  0  0  0  0  0  0  0  0  0
  1  2  1  0  0  0  0
  2  3  1  0  0  0  0
  3  4  2  0  0  0  0
  3 31  1  0  0  0  0
  4  8  1  0  0  0  0
  5 11  1  0  0  0  0
  5  4  1  0  0  0  0
  6  5  2  0  0  0  0
  7  6  1  0  0  0  0
  7  2  2  0  0  0  0
  9  6  1  0  0  0  0
 10  7  1  0  0  0  0
 11 16  1  0  0  0  0
 12 13  1  0  0  0  0
 12 11  2  0  0  0  0
 13 14  2  0  0  0  0
 14 15  1  0  0  0  0
 15 19  1  0  0  0  0
 16 15  2  0  0  0  0
 17 12  1  0  0  0  0
 18 13  1  0  0  0  0
 19 20  1  0  0  0  0
 20 21  1  0  0  0  0
 20 22  1  0  0  0  0
 23 22  1  0  0  0  0
 24 22  1  0  0  0  0
 25 24  1  0  0  0  0
 26 19  1  0  0  0  0
 26 25  1  0  0  0  0
 27 33  1  0  0  0  0
 28 27  1  0  0  0  0
 28 34  1  0  0  0  0
 29 28  2  0  0  0  0
 30 31  2  0  0  0  0
 30 29  1  0  0  0  0
 31 32  1  0  0  0  0
 32 27  2  0  0  0  0
 35 29  1  0  0  0  0
M  END
>  <minimizedAffinity>
-5.5719018

$$$$

 OpenBabel03272510223D

 35 38  0  0  0  0  0  0  0  0999 V2000
   39.7050   23.9290   36.0200 Br  0  0  0  0  0  0  0  0  0  0  0  0
   38.6300   25.2780   35.2130 C   0  0  0  0  0  0  0  0  0  0  0  0
   38.0140   25.0540   33.9730 C   0  0  0  0  0  0  0  0  0  0  0  0
   37.2550   26.0710   33.4520 C   0  0  0  0  0  0  0  0  0  0  0  0
   37.0730   27.2910   34.0860 C   0  0  0  0  0  0  0  0  0  0  0  0
   37.6880   27.4770   35.2950 C   0  0  0  0  0  0  0  0  0  0  0  0
   38.4550   26.4730   35.8390 C   0  0  0  0  0  0  0  0  0  0  0  0
   36.7560   25.9480   32.4960 H   0  0  0  0  0  0  0  0  0  0  0  0
   37.5720   28.4160   35.8260 H   0  0  0  0  0  0  0  0  0  0  0  0
   38.9400   26.6240   36.7960 H   0  0  0  0  0  0  0  0  0  0  0  0
   36.2690   28.3670   33.5340 C   0  0  0  0  0  0  0  0  0  0  0  0
   36.3150   28.7970   32.2290 C   0  0  0  0  0  0  0  0  0  0  0  0
   35.5290   29.8270   31.7440 C   0  0  0  0  0  0  0  0  0  0  0  0
   34.6720   30.4520   32.5760 N   0  0  0  0  0  0  0  0  0  0  0  0
   34.6250   30.0350   33.8460 C   0  0  0  0  0  0  0  0  0  0  0  0
   35.3870   29.0430   34.2970 N   0  0  0  0  0  0  0  0  0  0  0  0
   37.0100   28.2950   31.5500 H   0  0  0  0  0  0  0  0  0  0  0  0
   35.6320   30.1050   30.6930 H   0  0  0  0  0  0  0  0  0  0  0  0
   33.7270   30.6800   34.7360 N   0  0  0  0  0  0  0  0  0  0  0  0
   34.0920   31.8380   35.5270 C   0  0  0  0  0  3  0  0  0  0  0  0
   33.5600   32.7300   35.1010 H   0  0  0  0  0  0  0  0  0  0  0  0
   33.6890   31.6340   36.9930 C   0  0  0  0  0  3  0  0  0  0  0  0
   34.4380   30.9850   37.4700 H   0  0  0  0  0  0  0  0  0  0  0  0
   32.4110   31.1310   37.1090 O   0  0  0  0  0  0  0  0  0  0  0  0
   32.2390   29.9470   36.4270 C   0  0  0  0  0  2  0  0  0  0  0  0
   32.3620   30.2350   34.9330 C   0  0  0  0  0  2  0  0  0  0  0  0
   37.5000   21.5630   33.0610 C   0  0  0  0  0  0  0  0  0  0  0  0
   38.4540   21.3660   32.0030 C   0  0  0  0  0  0  0  0  0  0  0  0
   39.2420   22.4370   31.6370 C   0  0  0  0  0  0  0  0  0  0  0  0
   39.0880   23.6340   32.2880 N   0  0  0  0  0  0  0  0  0  0  0  0
   38.1810   23.7950   33.2840 C   0  0  0  0  0  0  0  0  0  0  0  0
   37.3980   22.7510   33.6550 N   0  0  0  0  0  0  0  0  0  0  0  0
   36.8590   20.7560   33.3850 H   0  0  0  0  0  0  0  0  0  0  0  0
   38.5180   20.3920   31.5360 H   0  0  0  0  0  0  0  0  0  0  0  0
   39.9730   22.3290   30.8430 H   0  0  0  0  0  0  0  0  0  0  0  0
  2  7  1  0  0  0  0
  2  1  1  0  0  0  0
  3  2  2  0  0  0  0
  4  3  1  0  0  0  0
  4  5  2  0  0  0  0
  5  6  1  0  0  0  0
  6  9  1  0  0  0  0
  6  7  2  0  0  0  0
  7 10  1  0  0  0  0
  8  4  1  0  0  0  0
 11  5  1  0  0  0  0
 11 16  1  0  0  0  0
 12 11  2  0  0  0  0
 13 12  1  0  0  0  0
 13 14  2  0  0  0  0
 14 15  1  0  0  0  0
 15 16  2  0  0  0  0
 15 19  1  0  0  0  0
 17 12  1  0  0  0  0
 18 13  1  0  0  0  0
 19 26  1  0  0  0  0
 19 20  1  0  0  0  0
 20 22  1  0  0  0  0
 21 20  1  0  0  0  0
 22 24  1  0  0  0  0
 22 23  1  0  0  0  0
 25 24  1  0  0  0  0
 26 25  1  0  0  0  0
 27 33  1  0  0  0  0
 27 32  1  0  0  0  0
 28 27  2  0  0  0  0
 29 28  1  0  0  0  0
 29 30  2  0  0  0  0
 30 31  1  0  0  0  0
 31 32  2  0  0  0  0
 31  3  1  0  0  0  0
 34 28  1  0  0  0  0
 35 29  1  0  0  0  0
M  END
>  <minimizedAffinity>
-5.56570911

$$$$

 OpenBabel03272510223D

 35 38  0  0  0  0  0  0  0  0999 V2000
   39.3190   24.0270   35.5040 Br  0  0  0  0  0  0  0  0  0  0  0  0
   38.2950   25.4760   34.8120 C   0  0  0  0  0  0  0  0  0  0  0  0
   37.7140   25.3950   33.5380 C   0  0  0  0  0  0  0  0  0  0  0  0
   36.9900   26.4770   33.1040 C   0  0  0  0  0  0  0  0  0  0  0  0
   36.8110   27.6280   33.8580 C   0  0  0  0  0  0  0  0  0  0  0  0
   37.3900   27.6730   35.0970 C   0  0  0  0  0  0  0  0  0  0  0  0
   38.1210   26.6020   35.5540 C   0  0  0  0  0  0  0  0  0  0  0  0
   36.5200   26.4660   32.1260 H   0  0  0  0  0  0  0  0  0  0  0  0
   37.2750   28.5540   35.7200 H   0  0  0  0  0  0  0  0  0  0  0  0
   38.5790   26.6420   36.5360 H   0  0  0  0  0  0  0  0  0  0  0  0
   36.0440   28.7730   33.3980 C   0  0  0  0  0  0  0  0  0  0  0  0
   35.9060   29.1540   32.0840 C   0  0  0  0  0  0  0  0  0  0  0  0
   35.1640   30.2530   31.6910 C   0  0  0  0  0  0  0  0  0  0  0  0
   34.5410   30.9980   32.6250 N   0  0  0  0  0  0  0  0  0  0  0  0
   34.6740   30.6300   33.9030 C   0  0  0  0  0  0  0  0  0  0  0  0
   35.3900   29.5700   34.2660 N   0  0  0  0  0  0  0  0  0  0  0  0
   36.4100   28.5530   31.3220 H   0  0  0  0  0  0  0  0  0  0  0  0
   35.1080   30.4840   30.6240 H   0  0  0  0  0  0  0  0  0  0  0  0
   34.0230   31.4020   34.9000 N   0  0  0  0  0  0  0  0  0  0  0  0
   34.6460   32.5340   35.5570 C   0  0  0  0  0  3  0  0  0  0  0  0
   34.1480   33.4680   35.1840 H   0  0  0  0  0  0  0  0  0  0  0  0
   34.4890   32.4240   37.0780 C   0  0  0  0  0  3  0  0  0  0  0  0
   35.2360   31.7070   37.4520 H   0  0  0  0  0  0  0  0  0  0  0  0
   33.2050   32.0770   37.4380 O   0  0  0  0  0  0  0  0  0  0  0  0
   32.7870   30.9000   36.8580 C   0  0  0  0  0  2  0  0  0  0  0  0
   32.6740   31.1250   35.3530 C   0  0  0  0  0  2  0  0  0  0  0  0
   39.1520   23.0980   31.1020 C   0  0  0  0  0  0  0  0  0  0  0  0
   38.2510   21.9770   31.1490 C   0  0  0  0  0  0  0  0  0  0  0  0
   37.1800   22.0480   32.0150 C   0  0  0  0  0  0  0  0  0  0  0  0
   37.0170   23.1680   32.7880 N   0  0  0  0  0  0  0  0  0  0  0  0
   37.8810   24.2120   32.7250 C   0  0  0  0  0  0  0  0  0  0  0  0
   38.9390   24.1590   31.8790 N   0  0  0  0  0  0  0  0  0  0  0  0
   40.0060   23.0920   30.4410 H   0  0  0  0  0  0  0  0  0  0  0  0
   38.4450   21.1270   30.5080 H   0  0  0  0  0  0  0  0  0  0  0  0
   36.4780   21.2230   32.0800 H   0  0  0  0  0  0  0  0  0  0  0  0
  2  1  1  0  0  0  0
  2  7  1  0  0  0  0
  3  2  2  0  0  0  0
  4  3  1  0  0  0  0
  4  5  2  0  0  0  0
  5  6  1  0  0  0  0
  6  7  2  0  0  0  0
  6  9  1  0  0  0  0
  7 10  1  0  0  0  0
  8  4  1  0  0  0  0
 11  5  1  0  0  0  0
 11 16  1  0  0  0  0
 12 11  2  0  0  0  0
 13 12  1  0  0  0  0
 13 14  2  0  0  0  0
 14 15  1  0  0  0  0
 15 16  2  0  0  0  0
 15 19  1  0  0  0  0
 17 12  1  0  0  0  0
 18 13  1  0  0  0  0
 19 26  1  0  0  0  0
 19 20  1  0  0  0  0
 20 22  1  0  0  0  0
 21 20  1  0  0  0  0
 22 24  1  0  0  0  0
 22 23  1  0  0  0  0
 25 24  1  0  0  0  0
 26 25  1  0  0  0  0
 27 28  2  0  0  0  0
 27 32  1  0  0  0  0
 28 29  1  0  0  0  0
 29 35  1  0  0  0  0
 29 30  2  0  0  0  0
 31 30  1  0  0  0  0
 31  3  1  0  0  0  0
 32 31  2  0  0  0  0
 33 27  1  0  0  0  0
 34 28  1  0  0  0  0
M  END
>  <minimizedAffinity>
-5.56146193

$$$$
