
 OpenBabel03272509483D

 32 34  0  0  0  0  0  0  0  0999 V2000
   34.8590   28.1650   49.5870 O   0  0  0  0  0  0  0  0  0  0  0  0
   37.2930   30.2600   51.2510 C   0  0  0  0  0  0  0  0  0  0  0  0
   37.9160   30.8640   50.1290 C   0  0  0  0  0  0  0  0  0  0  0  0
   37.4410   30.4940   48.8890 C   0  0  0  0  0  0  0  0  0  0  0  0
   36.4260   29.5940   48.8010 N   0  0  0  0  0  0  0  0  0  0  0  0
   35.8580   29.0410   49.8920 C   0  0  0  0  0  0  0  0  0  0  0  0
   36.3000   29.3810   51.1320 N   0  0  0  0  0  0  0  0  0  0  0  0
   37.5810   30.4720   52.2750 H   0  0  0  0  0  0  0  0  0  0  0  0
   38.7140   31.5660   50.3180 H   0  0  0  0  0  0  0  0  0  0  0  0
   38.0420   31.0790   47.7410 N   0  0  0  0  0  0  0  0  0  0  0  0
   38.8700   32.2490   47.9480 C   0  0  0  0  0  0  0  0  0  0  0  0
   38.2370   33.1290   48.1990 H   0  0  0  0  0  0  0  0  0  0  0  0
   39.5210   32.5360   46.5900 C   0  0  0  0  0  0  0  0  0  0  0  0
   40.0360   33.5210   46.7300 H   0  0  0  0  0  0  0  0  0  0  0  0
   38.5680   32.7300   45.6200 O   0  0  0  0  0  0  0  0  0  0  0  0
   37.7620   31.6430   45.3730 C   0  0  0  0  0  0  0  0  0  0  0  0
   37.8620   30.5600   46.3980 C   0  0  0  0  0  0  0  0  0  0  0  0
   33.7830   28.6340   48.7680 C   0  0  0  0  0  0  0  0  0  0  0  0
   33.2470   29.4090   49.3510 H   0  0  0  0  0  0  0  0  0  0  0  0
   34.2640   29.1070   47.8890 H   0  0  0  0  0  0  0  0  0  0  0  0
   32.9010   27.4800   48.3690 C   0  0  0  0  0  0  0  0  0  0  0  0
   33.1910   27.1640   47.3370 H   0  0  0  0  0  0  0  0  0  0  0  0
   33.0130   26.6100   49.0330 H   0  0  0  0  0  0  0  0  0  0  0  0
   31.4700   27.8820   48.2830 C   0  0  0  0  0  0  0  0  0  0  0  0
   30.6980   27.7260   49.4290 C   0  0  0  0  0  0  0  0  0  0  0  0
   29.3640   28.0640   49.4680 C   0  0  0  0  0  0  0  0  0  0  0  0
   28.7930   28.5610   48.3620 N   0  0  0  0  0  0  0  0  0  0  0  0
   29.5480   28.7110   47.2440 C   0  0  0  0  0  0  0  0  0  0  0  0
   30.8580   28.3840   47.1920 N   0  0  0  0  0  0  0  0  0  0  0  0
   31.1490   27.3260   50.3340 H   0  0  0  0  0  0  0  0  0  0  0  0
   28.7990   27.9270   50.3800 H   0  0  0  0  0  0  0  0  0  0  0  0
   29.0880   29.1120   46.3490 H   0  0  0  0  0  0  0  0  0  0  0  0
  1  6  1  0  0  0  0
  2  8  1  0  0  0  0
  3  9  1  0  0  0  0
  3  2  2  0  0  0  0
  4  3  1  0  0  0  0
  5  4  2  0  0  0  0
  5  6  1  0  0  0  0
  6  7  2  0  0  0  0
  7  2  1  0  0  0  0
 10 11  1  0  0  0  0
 10  4  1  0  0  0  0
 11 12  1  0  0  0  0
 13 14  1  0  0  0  0
 13 11  1  0  0  0  0
 15 13  1  0  0  0  0
 16 15  1  0  0  0  0
 16 17  1  0  0  0  0
 17 10  1  0  0  0  0
 18 19  1  0  0  0  0
 18  1  1  0  0  0  0
 20 18  1  0  0  0  0
 21 18  1  0  0  0  0
 21 23  1  0  0  0  0
 22 21  1  0  0  0  0
 24 21  1  0  0  0  0
 24 25  1  0  0  0  0
 25 26  2  0  0  0  0
 25 30  1  0  0  0  0
 26 31  1  0  0  0  0
 27 26  1  0  0  0  0
 28 27  2  0  0  0  0
 29 28  1  0  0  0  0
 29 24  2  0  0  0  0
 32 28  1  0  0  0  0
M  END
>  <minimizedAffinity>
-5.86714792

>  <minimizedRMSD>
0.364259332

$$$$
