
 OpenBabel03272510243D

 31 34  0  0  1  0  0  0  0  0999 V2000
   35.0090   29.4000   47.5280 C   0  0  0  0  0  0  0  0  0  0  0  0
   36.1480   30.1160   47.8490 C   0  0  0  0  0  0  0  0  0  0  0  0
   36.8160   30.8650   46.8800 C   0  0  0  0  0  0  0  0  0  0  0  0
   36.2810   30.8510   45.6000 C   0  0  0  0  0  0  0  0  0  0  0  0
   36.7510   31.5020   44.4920 N   0  0  0  0  0  0  0  0  0  0  0  0
   35.9030   31.1860   43.4910 C   0  0  0  0  0  0  0  0  0  0  0  0
   34.9380   30.3800   43.9180 N   0  0  0  0  0  0  0  0  0  0  0  0
   35.1490   30.1530   45.2390 C   0  0  0  0  0  0  0  0  0  0  0  0
   34.5010   29.4100   46.2340 C   0  0  0  0  0  0  0  0  0  0  0  0
   34.4730   28.8120   48.2590 H   0  0  0  0  0  0  0  0  0  0  0  0
   37.6910   31.4170   47.1180 H   0  0  0  0  0  0  0  0  0  0  0  0
   37.5940   32.1150   44.4320 H   0  0  0  0  0  0  0  0  0  0  0  0
   33.6090   28.8580   45.9570 H   0  0  0  0  0  0  0  0  0  0  0  0
   38.1680   30.4090   51.0070 C   0  0  0  0  0  0  0  0  0  0  0  0
   37.8490   30.5280   49.6570 C   0  0  0  0  0  0  0  0  0  0  0  0
   36.6270   30.0650   49.2140 C   0  0  0  0  0  0  0  0  0  0  0  0
   35.7930   29.5080   50.1490 N   0  0  0  0  0  0  0  0  0  0  0  0
   36.1110   29.3960   51.4540 C   0  0  0  0  0  0  0  0  0  0  0  0
   37.2840   29.8430   51.8700 N   0  0  0  0  0  0  0  0  0  0  0  0
   39.1530   30.8040   51.2550 H   0  0  0  0  0  0  0  0  0  0  0  0
   38.4850   30.9610   48.9020 H   0  0  0  0  0  0  0  0  0  0  0  0
   35.3980   28.9460   52.1220 H   0  0  0  0  0  0  0  0  0  0  0  0
   36.0950   31.6930   42.1920 O   0  0  0  0  0  0  0  0  0  0  0  0
   34.2760   32.7130   43.5120 H   0  0  0  0  0  0  0  0  0  0  0  0
   34.8550   33.4360   43.0260 N   0  0  0  0  0  0  0  0  0  0  0  0
   35.2710   32.7740   41.7800 C   0  0  1  0  0  3  0  0  0  0  0  0
   36.1260   33.7860   41.0570 C   0  0  0  0  0  3  0  0  0  0  0  0
   36.9180   34.1300   41.7590 H   0  0  0  0  0  0  0  0  0  0  0  0
   35.3240   34.8500   40.6510 O   0  0  0  0  0  0  0  0  0  0  0  0
   34.6390   35.4680   41.6700 C   0  0  0  0  0  2  0  0  0  0  0  0
   33.9610   34.4980   42.6090 C   0  0  0  0  0  2  0  0  0  0  0  0
  1  2  1  0  0  0  0
  1 10  1  0  0  0  0
  2 16  1  0  0  0  0
  3 11  1  0  0  0  0
  3  2  2  0  0  0  0
  4  3  1  0  0  0  0
  5  4  1  0  0  0  0
  6  7  2  0  0  0  0
  6  5  1  0  0  0  0
  7  8  1  0  0  0  0
  8  4  2  0  0  0  0
  8  9  1  0  0  0  0
  9  1  2  0  0  0  0
 12  5  1  0  0  0  0
 13  9  1  0  0  0  0
 14 20  1  0  0  0  0
 14 19  1  0  0  0  0
 15 14  2  0  0  0  0
 16 15  1  0  0  0  0
 16 17  2  0  0  0  0
 17 18  1  0  0  0  0
 18 19  2  0  0  0  0
 18 22  1  0  0  0  0
 21 15  1  0  0  0  0
 23  6  1  0  0  0  0
 25 24  1  0  0  0  0
 26 23  1  1  0  0  0
 26 25  1  0  0  0  0
 27 28  1  0  0  0  0
 27 26  1  0  0  0  0
 29 27  1  0  0  0  0
 29 30  1  0  0  0  0
 30 31  1  0  0  0  0
 31 25  1  0  0  0  0
M  END
>  <minimizedAffinity>
-5.22775936

>  <minimizedRMSD>
3.6509521

$$$$
