
 OpenBabel03272504183D

 25 26  0  0  1  0  0  0  0  0999 V2000
   38.7270   27.5960   35.8490 O   0  0  0  0  0  0  0  0  0  0  0  0
   39.3640   26.6810   34.8240 P   0  0  1  0  0  0  0  0  0  0  0  0
   41.0320   26.6050   34.9780 O   0  0  0  0  0  0  0  0  0  0  0  0
   41.4730   26.6440   34.0990 H   0  0  0  0  0  0  0  0  0  0  0  0
   38.7660   25.0610   34.9680 O   0  0  0  0  0  0  0  0  0  0  0  0
   38.9050   24.3360   36.1490 C   0  0  0  0  0  0  0  0  0  0  0  0
   39.9480   23.4740   36.4770 C   0  0  0  0  0  0  0  0  0  0  0  0
   39.9200   22.8340   37.7040 C   0  0  0  0  0  0  0  0  0  0  0  0
   38.8820   23.0630   38.5500 N   0  0  0  0  0  0  0  0  0  0  0  0
   37.8760   23.9110   38.2030 C   0  0  0  0  0  0  0  0  0  0  0  0
   37.8840   24.5540   36.9980 N   0  0  0  0  0  0  0  0  0  0  0  0
   40.7480   22.1730   37.9170 H   0  0  0  0  0  0  0  0  0  0  0  0
   37.0800   24.0500   38.9240 H   0  0  0  0  0  0  0  0  0  0  0  0
   40.9400   23.3500   35.4860 N   0  0  0  0  0  0  0  0  0  0  0  0
   40.8020   23.1960   34.4750 H   0  0  0  0  0  0  0  0  0  0  0  0
   41.8590   23.4490   36.0020 H   0  0  0  0  0  0  0  0  0  0  0  0
   38.8840   27.2910   33.3120 O   0  0  0  0  0  0  0  0  0  0  0  0
   38.1640   25.9080   31.3680 H   0  0  0  0  0  0  0  0  0  0  0  0
   37.6680   25.6750   32.2700 N   0  0  0  0  0  0  0  0  0  0  0  0
   37.5940   26.9310   32.9970 C   0  0  2  0  0  3  0  0  0  0  0  0
   36.9990   27.9860   32.0920 C   0  0  0  0  0  3  0  0  0  0  0  0
   36.8050   28.9170   32.6980 H   0  0  0  0  0  0  0  0  0  0  0  0
   35.7850   27.6190   31.5540 O   0  0  0  0  0  0  0  0  0  0  0  0
   35.7460   26.3770   30.9780 C   0  0  0  0  0  2  0  0  0  0  0  0
   36.3160   25.3110   31.8950 C   0  0  0  0  0  2  0  0  0  0  0  0
  2  5  1  0  0  0  0
  2  3  1  0  0  0  0
  2  1  2  1  0  0  0
  4  3  1  0  0  0  0
  5  6  1  0  0  0  0
  6  7  2  0  0  0  0
  6 11  1  0  0  0  0
  7  8  1  0  0  0  0
  8 12  1  0  0  0  0
  8  9  2  0  0  0  0
 10  9  1  0  0  0  0
 10 13  1  0  0  0  0
 11 10  2  0  0  0  0
 14 16  1  0  0  0  0
 14  7  1  0  0  0  0
 15 14  1  0  0  0  0
 17  2  1  0  0  0  0
 18 19  1  0  0  0  0
 19 20  1  0  0  0  0
 20 17  1  6  0  0  0
 21 22  1  0  0  0  0
 21 20  1  0  0  0  0
 23 21  1  0  0  0  0
 24 23  1  0  0  0  0
 24 25  1  0  0  0  0
 25 19  1  0  0  0  0
M  END
>  <minimizedAffinity>
-4.51925659

$$$$

 OpenBabel03272504183D

 25 26  0  0  1  0  0  0  0  0999 V2000
   36.7630   27.5400   34.6710 O   0  0  0  0  0  0  0  0  0  0  0  0
   37.9220   26.7390   35.2270 P   0  0  1  0  0  0  0  0  0  0  0  0
   38.7690   27.5690   36.4120 O   0  0  0  0  0  0  0  0  0  0  0  0
   39.7410   27.4640   36.2950 H   0  0  0  0  0  0  0  0  0  0  0  0
   37.3790   25.2540   35.9370 O   0  0  0  0  0  0  0  0  0  0  0  0
   38.2750   24.2640   36.3310 C   0  0  0  0  0  0  0  0  0  0  0  0
   38.6130   23.9230   37.6380 C   0  0  0  0  0  0  0  0  0  0  0  0
   39.5300   22.9060   37.8430 C   0  0  0  0  0  0  0  0  0  0  0  0
   40.0710   22.2720   36.7690 N   0  0  0  0  0  0  0  0  0  0  0  0
   39.7220   22.6270   35.5030 C   0  0  0  0  0  0  0  0  0  0  0  0
   38.8190   23.6270   35.2790 N   0  0  0  0  0  0  0  0  0  0  0  0
   39.7640   22.6740   38.8720 H   0  0  0  0  0  0  0  0  0  0  0  0
   40.1900   22.0820   34.6940 H   0  0  0  0  0  0  0  0  0  0  0  0
   37.9610   24.6790   38.6290 N   0  0  0  0  0  0  0  0  0  0  0  0
   37.8500   25.7050   38.6640 H   0  0  0  0  0  0  0  0  0  0  0  0
   37.6110   23.9700   39.3320 H   0  0  0  0  0  0  0  0  0  0  0  0
   38.8950   26.3600   33.8850 O   0  0  0  0  0  0  0  0  0  0  0  0
   37.7780   24.2470   33.1780 H   0  0  0  0  0  0  0  0  0  0  0  0
   37.1940   25.1140   33.0310 N   0  0  0  0  0  0  0  0  0  0  0  0
   38.1500   26.1700   32.7450 C   0  0  2  0  0  3  0  0  0  0  0  0
   39.0660   25.7130   31.6320 C   0  0  0  0  0  3  0  0  0  0  0  0
   39.7080   26.5820   31.3100 H   0  0  0  0  0  0  0  0  0  0  0  0
   38.3890   25.2990   30.5050 O   0  0  0  0  0  0  0  0  0  0  0  0
   37.3720   24.4070   30.7230 C   0  0  0  0  0  2  0  0  0  0  0  0
   36.4340   24.8770   31.8200 C   0  0  0  0  0  2  0  0  0  0  0  0
  2  1  2  6  0  0  0
  2  5  1  0  0  0  0
  2  3  1  0  0  0  0
  4  3  1  0  0  0  0
  5  6  1  0  0  0  0
  6  7  1  0  0  0  0
  7  8  2  0  0  0  0
  7 14  1  0  0  0  0
  8 12  1  0  0  0  0
  9  8  1  0  0  0  0
 10  9  2  0  0  0  0
 11 10  1  0  0  0  0
 11  6  2  0  0  0  0
 13 10  1  0  0  0  0
 14 15  1  0  0  0  0
 14 16  1  0  0  0  0
 17  2  1  0  0  0  0
 19 18  1  0  0  0  0
 20 19  1  0  0  0  0
 20 17  1  1  0  0  0
 21 20  1  0  0  0  0
 22 21  1  0  0  0  0
 23 24  1  0  0  0  0
 23 21  1  0  0  0  0
 24 25  1  0  0  0  0
 25 19  1  0  0  0  0
M  END
>  <minimizedAffinity>
-4.46250105

$$$$

 OpenBabel03272504183D

 25 26  0  0  1  0  0  0  0  0999 V2000
   39.1060   27.2730   35.4810 O   0  0  0  0  0  0  0  0  0  0  0  0
   37.8710   26.6300   34.8850 P   0  0  1  0  0  0  0  0  0  0  0  0
   36.6000   27.7120   34.7170 O   0  0  0  0  0  0  0  0  0  0  0  0
   35.7480   27.3070   34.9970 H   0  0  0  0  0  0  0  0  0  0  0  0
   38.1960   25.9800   33.3120 O   0  0  0  0  0  0  0  0  0  0  0  0
   37.1790   25.4670   32.5120 C   0  0  0  0  0  0  0  0  0  0  0  0
   36.8940   24.1220   32.2920 C   0  0  0  0  0  0  0  0  0  0  0  0
   35.8370   23.7940   31.4600 C   0  0  0  0  0  0  0  0  0  0  0  0
   35.1110   24.7880   30.8840 N   0  0  0  0  0  0  0  0  0  0  0  0
   35.4130   26.0940   31.1170 C   0  0  0  0  0  0  0  0  0  0  0  0
   36.4510   26.4390   31.9350 N   0  0  0  0  0  0  0  0  0  0  0  0
   35.6510   22.7390   31.3160 H   0  0  0  0  0  0  0  0  0  0  0  0
   34.7940   26.8350   30.6280 H   0  0  0  0  0  0  0  0  0  0  0  0
   37.7440   23.2240   32.9640 N   0  0  0  0  0  0  0  0  0  0  0  0
   38.7750   23.2520   33.0120 H   0  0  0  0  0  0  0  0  0  0  0  0
   37.0990   22.5130   33.4090 H   0  0  0  0  0  0  0  0  0  0  0  0
   37.4850   25.3400   35.9230 O   0  0  0  0  0  0  0  0  0  0  0  0
   38.7110   23.3530   35.0530 H   0  0  0  0  0  0  0  0  0  0  0  0
   39.3380   24.1340   35.3860 N   0  0  0  0  0  0  0  0  0  0  0  0
   38.6090   24.7670   36.4720 C   0  0  2  0  0  3  0  0  0  0  0  0
   38.1830   23.7040   37.4590 C   0  0  0  0  0  3  0  0  0  0  0  0
   37.7500   24.2090   38.3710 H   0  0  0  0  0  0  0  0  0  0  0  0
   39.2300   22.9310   37.9120 O   0  0  0  0  0  0  0  0  0  0  0  0
   40.0480   22.4190   36.9390 C   0  0  0  0  0  2  0  0  0  0  0  0
   40.5010   23.4890   35.9620 C   0  0  0  0  0  2  0  0  0  0  0  0
  2  1  2  1  0  0  0
  2 17  1  0  0  0  0
  3  2  1  0  0  0  0
  3  4  1  0  0  0  0
  5  2  1  0  0  0  0
  6  5  1  0  0  0  0
  7  6  1  0  0  0  0
  7 14  1  0  0  0  0
  8  7  2  0  0  0  0
  9 10  2  0  0  0  0
  9  8  1  0  0  0  0
 10 11  1  0  0  0  0
 11  6  2  0  0  0  0
 12  8  1  0  0  0  0
 13 10  1  0  0  0  0
 14 15  1  0  0  0  0
 14 16  1  0  0  0  0
 18 19  1  0  0  0  0
 19 25  1  0  0  0  0
 19 20  1  0  0  0  0
 20 17  1  6  0  0  0
 20 21  1  0  0  0  0
 21 23  1  0  0  0  0
 21 22  1  0  0  0  0
 24 23  1  0  0  0  0
 25 24  1  0  0  0  0
M  END
>  <minimizedAffinity>
-4.40228939

$$$$

 OpenBabel03272504183D

 25 26  0  0  1  0  0  0  0  0999 V2000
   40.1860   27.3980   33.6530 O   0  0  0  0  0  0  0  0  0  0  0  0
   39.3260   26.7220   34.7000 P   0  0  1  0  0  0  0  0  0  0  0  0
   39.0220   27.7110   36.0200 O   0  0  0  0  0  0  0  0  0  0  0  0
   39.1090   27.2140   36.8650 H   0  0  0  0  0  0  0  0  0  0  0  0
   37.7880   26.2580   34.0490 O   0  0  0  0  0  0  0  0  0  0  0  0
   36.8980   27.2010   33.5400 C   0  0  0  0  0  0  0  0  0  0  0  0
   36.4590   27.3030   32.2230 C   0  0  0  0  0  0  0  0  0  0  0  0
   35.5680   28.3100   31.8960 C   0  0  0  0  0  0  0  0  0  0  0  0
   35.1480   29.1670   32.8640 N   0  0  0  0  0  0  0  0  0  0  0  0
   35.5940   29.0430   34.1440 C   0  0  0  0  0  0  0  0  0  0  0  0
   36.4740   28.0560   34.4870 N   0  0  0  0  0  0  0  0  0  0  0  0
   35.2530   28.3530   30.8630 H   0  0  0  0  0  0  0  0  0  0  0  0
   35.2200   29.7580   34.8650 H   0  0  0  0  0  0  0  0  0  0  0  0
   36.9930   26.3370   31.3500 N   0  0  0  0  0  0  0  0  0  0  0  0
   37.9810   26.0510   31.2580 H   0  0  0  0  0  0  0  0  0  0  0  0
   36.1630   25.9670   30.8070 H   0  0  0  0  0  0  0  0  0  0  0  0
   40.1650   25.3090   35.1340 O   0  0  0  0  0  0  0  0  0  0  0  0
   38.9970   25.4030   37.3330 H   0  0  0  0  0  0  0  0  0  0  0  0
   38.4010   25.0350   36.5440 N   0  0  0  0  0  0  0  0  0  0  0  0
   39.3270   24.3510   35.6570 C   0  0  2  0  0  3  0  0  0  0  0  0
   40.1480   23.3730   36.4670 C   0  0  0  0  0  3  0  0  0  0  0  0
   40.7590   22.7400   35.7610 H   0  0  0  0  0  0  0  0  0  0  0  0
   39.3810   22.4950   37.2000 O   0  0  0  0  0  0  0  0  0  0  0  0
   38.3870   23.0660   37.9510 C   0  0  0  0  0  2  0  0  0  0  0  0
   37.5430   24.0270   37.1350 C   0  0  0  0  0  2  0  0  0  0  0  0
  2  1  2  6  0  0  0
  2 17  1  0  0  0  0
  2  3  1  0  0  0  0
  3  4  1  0  0  0  0
  5  2  1  0  0  0  0
  6  5  1  0  0  0  0
  6 11  1  0  0  0  0
  7  6  2  0  0  0  0
  8  7  1  0  0  0  0
  8  9  2  0  0  0  0
  9 10  1  0  0  0  0
 10 11  2  0  0  0  0
 10 13  1  0  0  0  0
 12  8  1  0  0  0  0
 14  7  1  0  0  0  0
 15 14  1  0  0  0  0
 16 14  1  0  0  0  0
 19 25  1  0  0  0  0
 19 18  1  0  0  0  0
 20 17  1  1  0  0  0
 20 21  1  0  0  0  0
 20 19  1  0  0  0  0
 21 23  1  0  0  0  0
 22 21  1  0  0  0  0
 23 24  1  0  0  0  0
 25 24  1  0  0  0  0
M  END
>  <minimizedAffinity>
-4.37744427

$$$$

 OpenBabel03272504183D

 25 26  0  0  1  0  0  0  0  0999 V2000
   36.9490   27.8190   34.5300 O   0  0  0  0  0  0  0  0  0  0  0  0
   38.0920   27.0190   35.1200 P   0  0  1  0  0  0  0  0  0  0  0  0
   38.5610   27.5840   36.6280 O   0  0  0  0  0  0  0  0  0  0  0  0
   39.5410   27.6110   36.7090 H   0  0  0  0  0  0  0  0  0  0  0  0
   37.6590   25.3520   35.3140 O   0  0  0  0  0  0  0  0  0  0  0  0
   38.4060   24.4950   36.1180 C   0  0  0  0  0  0  0  0  0  0  0  0
   39.5360   23.7750   35.7390 C   0  0  0  0  0  0  0  0  0  0  0  0
   40.1540   22.9660   36.6770 C   0  0  0  0  0  0  0  0  0  0  0  0
   39.6440   22.8980   37.9360 N   0  0  0  0  0  0  0  0  0  0  0  0
   38.5380   23.6130   38.2780 C   0  0  0  0  0  0  0  0  0  0  0  0
   37.9140   24.4180   37.3670 N   0  0  0  0  0  0  0  0  0  0  0  0
   41.0270   22.4250   36.3410 H   0  0  0  0  0  0  0  0  0  0  0  0
   38.1850   23.5140   39.2960 H   0  0  0  0  0  0  0  0  0  0  0  0
   39.9280   23.9600   34.4000 N   0  0  0  0  0  0  0  0  0  0  0  0
   39.3270   23.9340   33.5610 H   0  0  0  0  0  0  0  0  0  0  0  0
   40.9710   24.1300   34.4390 H   0  0  0  0  0  0  0  0  0  0  0  0
   39.3480   27.1110   33.9790 O   0  0  0  0  0  0  0  0  0  0  0  0
   38.9420   25.0470   32.6420 H   0  0  0  0  0  0  0  0  0  0  0  0
   38.1880   25.7800   32.5440 N   0  0  0  0  0  0  0  0  0  0  0  0
   38.8760   27.0510   32.6870 C   0  0  2  0  0  3  0  0  0  0  0  0
   40.0510   27.0830   31.7360 C   0  0  0  0  0  3  0  0  0  0  0  0
   40.4940   28.1200   31.7400 H   0  0  0  0  0  0  0  0  0  0  0  0
   39.7000   26.8220   30.4290 O   0  0  0  0  0  0  0  0  0  0  0  0
   38.9230   25.7100   30.2380 C   0  0  0  0  0  2  0  0  0  0  0  0
   37.7270   25.6890   31.1720 C   0  0  0  0  0  2  0  0  0  0  0  0
  2  1  2  6  0  0  0
  2  5  1  0  0  0  0
  2  3  1  0  0  0  0
  3  4  1  0  0  0  0
  5  6  1  0  0  0  0
  6 11  1  0  0  0  0
  7  6  2  0  0  0  0
  7  8  1  0  0  0  0
  8  9  2  0  0  0  0
  9 10  1  0  0  0  0
 10 13  1  0  0  0  0
 11 10  2  0  0  0  0
 12  8  1  0  0  0  0
 14 16  1  0  0  0  0
 14  7  1  0  0  0  0
 15 14  1  0  0  0  0
 17  2  1  0  0  0  0
 19 18  1  0  0  0  0
 19 20  1  0  0  0  0
 20 17  1  1  0  0  0
 21 22  1  0  0  0  0
 21 20  1  0  0  0  0
 23 21  1  0  0  0  0
 24 23  1  0  0  0  0
 24 25  1  0  0  0  0
 25 19  1  0  0  0  0
M  END
>  <minimizedAffinity>
-4.34012699

$$$$

 OpenBabel03272504183D

 25 26  0  0  1  0  0  0  0  0999 V2000
   37.4480   24.2380   37.0160 O   0  0  0  0  0  0  0  0  0  0  0  0
   38.2500   23.1230   36.3790 P   0  0  1  0  0  0  0  0  0  0  0  0
   37.3520   21.7220   36.1700 O   0  0  0  0  0  0  0  0  0  0  0  0
   37.8720   20.9250   36.4210 H   0  0  0  0  0  0  0  0  0  0  0  0
   38.8410   23.5850   34.8160 O   0  0  0  0  0  0  0  0  0  0  0  0
   37.9750   23.8270   33.7530 C   0  0  0  0  0  0  0  0  0  0  0  0
   37.4510   22.8800   32.8770 C   0  0  0  0  0  0  0  0  0  0  0  0
   36.6000   23.3050   31.8720 C   0  0  0  0  0  0  0  0  0  0  0  0
   36.3000   24.6260   31.7680 N   0  0  0  0  0  0  0  0  0  0  0  0
   36.8270   25.5290   32.6380 C   0  0  0  0  0  0  0  0  0  0  0  0
   37.6690   25.1310   33.6380 N   0  0  0  0  0  0  0  0  0  0  0  0
   36.2160   22.5370   31.2140 H   0  0  0  0  0  0  0  0  0  0  0  0
   36.5470   26.5650   32.5000 H   0  0  0  0  0  0  0  0  0  0  0  0
   37.8640   21.5580   33.1260 N   0  0  0  0  0  0  0  0  0  0  0  0
   38.8250   21.2230   33.3040 H   0  0  0  0  0  0  0  0  0  0  0  0
   36.9790   20.9800   33.0910 H   0  0  0  0  0  0  0  0  0  0  0  0
   39.5870   22.8850   37.4010 O   0  0  0  0  0  0  0  0  0  0  0  0
   41.6160   21.9330   38.4900 H   0  0  0  0  0  0  0  0  0  0  0  0
   41.1610   21.2890   37.7900 N   0  0  0  0  0  0  0  0  0  0  0  0
   40.5870   22.1670   36.7850 C   0  0  2  0  0  3  0  0  0  0  0  0
   41.6530   23.1260   36.3060 C   0  0  0  0  0  3  0  0  0  0  0  0
   41.2510   23.7060   35.4260 H   0  0  0  0  0  0  0  0  0  0  0  0
   42.7920   22.4940   35.8580 O   0  0  0  0  0  0  0  0  0  0  0  0
   43.3070   21.5420   36.6990 C   0  0  0  0  0  2  0  0  0  0  0  0
   42.2450   20.5610   37.1600 C   0  0  0  0  0  2  0  0  0  0  0  0
  2  1  2  1  0  0  0
  2 17  1  0  0  0  0
  3  2  1  0  0  0  0
  3  4  1  0  0  0  0
  5  2  1  0  0  0  0
  6  5  1  0  0  0  0
  7 14  1  0  0  0  0
  7  6  2  0  0  0  0
  8  7  1  0  0  0  0
  9  8  2  0  0  0  0
  9 10  1  0  0  0  0
 10 11  2  0  0  0  0
 11  6  1  0  0  0  0
 12  8  1  0  0  0  0
 13 10  1  0  0  0  0
 14 15  1  0  0  0  0
 16 14  1  0  0  0  0
 19 18  1  0  0  0  0
 20 17  1  1  0  0  0
 20 19  1  0  0  0  0
 21 20  1  0  0  0  0
 22 21  1  0  0  0  0
 23 21  1  0  0  0  0
 23 24  1  0  0  0  0
 24 25  1  0  0  0  0
 25 19  1  0  0  0  0
M  END
>  <minimizedAffinity>
-4.32208443

$$$$

 OpenBabel03272504183D

 25 26  0  0  1  0  0  0  0  0999 V2000
   37.7770   24.7160   33.9480 O   0  0  0  0  0  0  0  0  0  0  0  0
   38.5710   23.4740   34.2970 P   0  0  1  0  0  0  0  0  0  0  0  0
   39.5200   22.9390   33.0220 O   0  0  0  0  0  0  0  0  0  0  0  0
   39.4730   21.9600   32.9300 H   0  0  0  0  0  0  0  0  0  0  0  0
   39.6330   23.7610   35.6360 O   0  0  0  0  0  0  0  0  0  0  0  0
   40.5890   22.8250   36.0200 C   0  0  0  0  0  0  0  0  0  0  0  0
   40.6660   22.1720   37.2470 C   0  0  0  0  0  0  0  0  0  0  0  0
   41.6920   21.2670   37.4550 C   0  0  0  0  0  0  0  0  0  0  0  0
   42.5910   21.0410   36.4610 N   0  0  0  0  0  0  0  0  0  0  0  0
   42.4910   21.6940   35.2710 C   0  0  0  0  0  0  0  0  0  0  0  0
   41.4860   22.5910   35.0460 N   0  0  0  0  0  0  0  0  0  0  0  0
   41.7150   20.7830   38.4210 H   0  0  0  0  0  0  0  0  0  0  0  0
   43.2400   21.4680   34.5230 H   0  0  0  0  0  0  0  0  0  0  0  0
   39.6570   22.5230   38.1630 N   0  0  0  0  0  0  0  0  0  0  0  0
   39.3350   23.4730   38.4100 H   0  0  0  0  0  0  0  0  0  0  0  0
   39.2980   21.6040   38.5450 H   0  0  0  0  0  0  0  0  0  0  0  0
   37.4190   22.3180   34.7720 O   0  0  0  0  0  0  0  0  0  0  0  0
   35.8320   22.9170   32.9470 H   0  0  0  0  0  0  0  0  0  0  0  0
   36.6850   22.3890   32.6200 N   0  0  0  0  0  0  0  0  0  0  0  0
   37.0340   21.5120   33.7250 C   0  0  2  0  0  3  0  0  0  0  0  0
   35.8070   20.7300   34.1360 C   0  0  0  0  0  3  0  0  0  0  0  0
   36.1110   19.9470   34.8890 H   0  0  0  0  0  0  0  0  0  0  0  0
   35.2220   20.0480   33.0910 O   0  0  0  0  0  0  0  0  0  0  0  0
   34.9980   20.7850   31.9580 C   0  0  0  0  0  2  0  0  0  0  0  0
   36.2350   21.5490   31.5270 C   0  0  0  0  0  2  0  0  0  0  0  0
  2  1  2  6  0  0  0
  2 17  1  0  0  0  0
  2  5  1  0  0  0  0
  3  2  1  0  0  0  0
  4  3  1  0  0  0  0
  5  6  1  0  0  0  0
  6  7  1  0  0  0  0
  7  8  2  0  0  0  0
  7 14  1  0  0  0  0
  8 12  1  0  0  0  0
  9  8  1  0  0  0  0
 10  9  2  0  0  0  0
 11 10  1  0  0  0  0
 11  6  2  0  0  0  0
 13 10  1  0  0  0  0
 14 15  1  0  0  0  0
 14 16  1  0  0  0  0
 19 18  1  0  0  0  0
 19 20  1  0  0  0  0
 20 21  1  0  0  0  0
 20 17  1  1  0  0  0
 21 22  1  0  0  0  0
 23 21  1  0  0  0  0
 24 23  1  0  0  0  0
 25 24  1  0  0  0  0
 25 19  1  0  0  0  0
M  END
>  <minimizedAffinity>
-4.12627172

$$$$

 OpenBabel03272504183D

 25 26  0  0  1  0  0  0  0  0999 V2000
   37.3960   27.5650   35.2950 O   0  0  0  0  0  0  0  0  0  0  0  0
   38.3640   26.4720   34.8910 P   0  0  1  0  0  0  0  0  0  0  0  0
   39.9520   26.8390   35.2870 O   0  0  0  0  0  0  0  0  0  0  0  0
   40.5650   26.6040   34.5540 H   0  0  0  0  0  0  0  0  0  0  0  0
   37.9800   24.9720   35.6700 O   0  0  0  0  0  0  0  0  0  0  0  0
   38.9750   24.1290   36.1580 C   0  0  0  0  0  0  0  0  0  0  0  0
   38.9860   23.4830   37.3910 C   0  0  0  0  0  0  0  0  0  0  0  0
   40.0660   22.6780   37.7100 C   0  0  0  0  0  0  0  0  0  0  0  0
   41.0800   22.5410   36.8160 N   0  0  0  0  0  0  0  0  0  0  0  0
   41.0430   23.1850   35.6180 C   0  0  0  0  0  0  0  0  0  0  0  0
   39.9860   23.9830   35.2830 N   0  0  0  0  0  0  0  0  0  0  0  0
   40.0330   22.1960   38.6770 H   0  0  0  0  0  0  0  0  0  0  0  0
   41.8820   23.0320   34.9530 H   0  0  0  0  0  0  0  0  0  0  0  0
   37.8580   23.7350   38.1950 N   0  0  0  0  0  0  0  0  0  0  0  0
   37.4250   24.6490   38.4010 H   0  0  0  0  0  0  0  0  0  0  0  0
   37.5500   22.7850   38.5450 H   0  0  0  0  0  0  0  0  0  0  0  0
   38.1480   26.2700   33.2170 O   0  0  0  0  0  0  0  0  0  0  0  0
   36.1180   26.7300   31.8470 H   0  0  0  0  0  0  0  0  0  0  0  0
   36.3850   27.5150   32.4990 N   0  0  0  0  0  0  0  0  0  0  0  0
   37.8340   27.4540   32.5910 C   0  0  2  0  0  3  0  0  0  0  0  0
   38.4130   27.4380   31.1950 C   0  0  0  0  0  3  0  0  0  0  0  0
   39.5340   27.5400   31.2660 H   0  0  0  0  0  0  0  0  0  0  0  0
   37.9830   28.4880   30.4140 O   0  0  0  0  0  0  0  0  0  0  0  0
   36.6280   28.6940   30.3990 C   0  0  0  0  0  2  0  0  0  0  0  0
   36.0470   28.7400   31.8000 C   0  0  0  0  0  2  0  0  0  0  0  0
  2  3  1  0  0  0  0
  2  1  2  1  0  0  0
  2  5  1  0  0  0  0
  4  3  1  0  0  0  0
  5  6  1  0  0  0  0
  6  7  1  0  0  0  0
  7  8  2  0  0  0  0
  7 14  1  0  0  0  0
  8 12  1  0  0  0  0
  9  8  1  0  0  0  0
 10  9  2  0  0  0  0
 11 10  1  0  0  0  0
 11  6  2  0  0  0  0
 13 10  1  0  0  0  0
 14 15  1  0  0  0  0
 14 16  1  0  0  0  0
 17  2  1  0  0  0  0
 18 19  1  0  0  0  0
 19 20  1  0  0  0  0
 20 17  1  6  0  0  0
 21 22  1  0  0  0  0
 21 20  1  0  0  0  0
 23 21  1  0  0  0  0
 24 23  1  0  0  0  0
 24 25  1  0  0  0  0
 25 19  1  0  0  0  0
M  END
>  <minimizedAffinity>
-4.04275751

$$$$

 OpenBabel03272504183D

 25 26  0  0  1  0  0  0  0  0999 V2000
   39.1200   21.4940   33.5280 O   0  0  0  0  0  0  0  0  0  0  0  0
   38.9330   22.9960   33.5950 P   0  0  1  0  0  0  0  0  0  0  0  0
   40.3830   23.8170   33.7760 O   0  0  0  0  0  0  0  0  0  0  0  0
   40.3030   24.5410   34.4390 H   0  0  0  0  0  0  0  0  0  0  0  0
   38.1810   23.6020   32.1550 O   0  0  0  0  0  0  0  0  0  0  0  0
   37.6610   24.8920   32.0930 C   0  0  0  0  0  0  0  0  0  0  0  0
   36.3990   25.2570   31.6340 C   0  0  0  0  0  0  0  0  0  0  0  0
   36.0500   26.5970   31.6460 C   0  0  0  0  0  0  0  0  0  0  0  0
   36.9440   27.5130   32.1020 N   0  0  0  0  0  0  0  0  0  0  0  0
   38.1710   27.1270   32.5450 C   0  0  0  0  0  0  0  0  0  0  0  0
   38.5350   25.8100   32.5430 N   0  0  0  0  0  0  0  0  0  0  0  0
   35.0620   26.8360   31.2800 H   0  0  0  0  0  0  0  0  0  0  0  0
   38.8340   27.9070   32.8960 H   0  0  0  0  0  0  0  0  0  0  0  0
   35.6000   24.1840   31.1970 N   0  0  0  0  0  0  0  0  0  0  0  0
   35.8760   23.4110   30.5700 H   0  0  0  0  0  0  0  0  0  0  0  0
   34.6560   24.3410   31.6480 H   0  0  0  0  0  0  0  0  0  0  0  0
   37.8740   23.2630   34.8980 O   0  0  0  0  0  0  0  0  0  0  0  0
   38.4300   21.8050   36.8410 H   0  0  0  0  0  0  0  0  0  0  0  0
   39.2100   22.4540   36.5520 N   0  0  0  0  0  0  0  0  0  0  0  0
   38.5440   23.6390   36.0390 C   0  0  2  0  0  3  0  0  0  0  0  0
   37.5390   24.1180   37.0610 C   0  0  0  0  0  3  0  0  0  0  0  0
   37.1320   25.1170   36.7300 H   0  0  0  0  0  0  0  0  0  0  0  0
   38.0880   24.3250   38.3080 O   0  0  0  0  0  0  0  0  0  0  0  0
   38.8530   23.2970   38.7930 C   0  0  0  0  0  2  0  0  0  0  0  0
   39.8820   22.8320   37.7790 C   0  0  0  0  0  2  0  0  0  0  0  0
  2  1  2  6  0  0  0
  2  3  1  0  0  0  0
  2 17  1  0  0  0  0
  3  4  1  0  0  0  0
  5  2  1  0  0  0  0
  6  5  1  0  0  0  0
  6 11  1  0  0  0  0
  7  8  1  0  0  0  0
  7  6  2  0  0  0  0
  8  9  2  0  0  0  0
  9 10  1  0  0  0  0
 10 13  1  0  0  0  0
 11 10  2  0  0  0  0
 12  8  1  0  0  0  0
 14  7  1  0  0  0  0
 14 16  1  0  0  0  0
 15 14  1  0  0  0  0
 19 18  1  0  0  0  0
 19 25  1  0  0  0  0
 20 17  1  6  0  0  0
 20 19  1  0  0  0  0
 20 21  1  0  0  0  0
 21 23  1  0  0  0  0
 22 21  1  0  0  0  0
 23 24  1  0  0  0  0
 25 24  1  0  0  0  0
M  END
>  <minimizedAffinity>
-4.01688862

$$$$
