
 OpenBabel03272510183D

 35 38  0  0  0  0  0  0  0  0999 V2000
   37.4480   29.2270   50.8980 Br  0  0  0  0  0  0  0  0  0  0  0  0
   36.0380   29.2800   49.6190 C   0  0  0  0  0  0  0  0  0  0  0  0
   36.0160   30.2660   48.6200 C   0  0  0  0  0  0  0  0  0  0  0  0
   34.9690   30.2430   47.7340 C   0  0  0  0  0  0  0  0  0  0  0  0
   33.9490   29.3050   47.7800 C   0  0  0  0  0  0  0  0  0  0  0  0
   34.0000   28.3580   48.7660 C   0  0  0  0  0  0  0  0  0  0  0  0
   35.0390   28.3590   49.6680 C   0  0  0  0  0  0  0  0  0  0  0  0
   34.9060   30.9830   46.9420 H   0  0  0  0  0  0  0  0  0  0  0  0
   33.2220   27.6050   48.8390 H   0  0  0  0  0  0  0  0  0  0  0  0
   35.0760   27.6070   50.4480 H   0  0  0  0  0  0  0  0  0  0  0  0
   32.8410   29.2830   46.8410 C   0  0  0  0  0  0  0  0  0  0  0  0
   31.8750   28.3060   46.7820 C   0  0  0  0  0  0  0  0  0  0  0  0
   30.8370   28.3250   45.8690 C   0  0  0  0  0  0  0  0  0  0  0  0
   30.7500   29.3400   44.9860 N   0  0  0  0  0  0  0  0  0  0  0  0
   31.6890   30.2920   45.0420 C   0  0  0  0  0  0  0  0  0  0  0  0
   32.6810   30.2600   45.9250 N   0  0  0  0  0  0  0  0  0  0  0  0
   31.9410   27.4790   47.4940 H   0  0  0  0  0  0  0  0  0  0  0  0
   30.1130   27.5070   45.8920 H   0  0  0  0  0  0  0  0  0  0  0  0
   31.6130   31.3690   44.1210 N   0  0  0  0  0  0  0  0  0  0  0  0
   31.1750   32.7000   44.4930 C   0  0  0  0  0  3  0  0  0  0  0  0
   32.0700   33.3770   44.4810 H   0  0  0  0  0  0  0  0  0  0  0  0
   30.1150   33.2080   43.5090 C   0  0  0  0  0  3  0  0  0  0  0  0
   29.1520   32.7430   43.7650 H   0  0  0  0  0  0  0  0  0  0  0  0
   30.4770   32.9750   42.1980 O   0  0  0  0  0  0  0  0  0  0  0  0
   30.7250   31.6440   41.9430 C   0  0  0  0  0  2  0  0  0  0  0  0
   31.9720   31.2340   42.7230 C   0  0  0  0  0  2  0  0  0  0  0  0
   38.0160   33.1950   49.4540 C   0  0  0  0  0  0  0  0  0  0  0  0
   39.0400   33.1820   48.4430 C   0  0  0  0  0  0  0  0  0  0  0  0
   39.0090   32.1670   47.5090 C   0  0  0  0  0  0  0  0  0  0  0  0
   38.0180   31.2230   47.5780 N   0  0  0  0  0  0  0  0  0  0  0  0
   37.0630   31.2580   48.5420 C   0  0  0  0  0  0  0  0  0  0  0  0
   37.0790   32.2490   49.4680 N   0  0  0  0  0  0  0  0  0  0  0  0
   37.9960   33.9680   50.2090 H   0  0  0  0  0  0  0  0  0  0  0  0
   39.7900   33.9610   48.4530 H   0  0  0  0  0  0  0  0  0  0  0  0
   39.7630   32.1220   46.7300 H   0  0  0  0  0  0  0  0  0  0  0  0
  2  7  1  0  0  0  0
  2  1  1  0  0  0  0
  3  2  2  0  0  0  0
  4  5  2  0  0  0  0
  4  3  1  0  0  0  0
  5  6  1  0  0  0  0
  6  9  1  0  0  0  0
  6  7  2  0  0  0  0
  7 10  1  0  0  0  0
  8  4  1  0  0  0  0
 11  5  1  0  0  0  0
 12 11  1  0  0  0  0
 12 17  1  0  0  0  0
 13 18  1  0  0  0  0
 13 12  2  0  0  0  0
 14 15  2  0  0  0  0
 14 13  1  0  0  0  0
 15 16  1  0  0  0  0
 16 11  2  0  0  0  0
 19 20  1  0  0  0  0
 19 15  1  0  0  0  0
 21 20  1  0  0  0  0
 22 23  1  0  0  0  0
 22 20  1  0  0  0  0
 24 22  1  0  0  0  0
 25 24  1  0  0  0  0
 25 26  1  0  0  0  0
 26 19  1  0  0  0  0
 27 32  1  0  0  0  0
 27 33  1  0  0  0  0
 28 34  1  0  0  0  0
 28 27  2  0  0  0  0
 29 30  2  0  0  0  0
 29 28  1  0  0  0  0
 30 31  1  0  0  0  0
 31  3  1  0  0  0  0
 31 32  2  0  0  0  0
 35 29  1  0  0  0  0
M  END
>  <minimizedAffinity>
-6.55990791

>  <minimizedRMSD>
0.587900043

$$$$
