
 OpenBabel03262523033D

 25 27  0  0  0  0  0  0  0  0999 V2000
   38.1840   24.5780   34.6870 C   0  0  0  0  0  0  0  0  0  0  0  0
   38.3870   23.8160   33.5930 C   0  0  0  0  0  0  0  0  0  0  0  0
   38.0890   24.2960   32.3510 C   0  0  0  0  0  0  0  0  0  0  0  0
   37.5830   25.5580   32.2330 N   0  0  0  0  0  0  0  0  0  0  0  0
   37.3910   26.2930   33.3300 C   0  0  0  0  0  0  0  0  0  0  0  0
   37.6820   25.8280   34.5690 N   0  0  0  0  0  0  0  0  0  0  0  0
   38.7960   22.8050   33.7210 H   0  0  0  0  0  0  0  0  0  0  0  0
   38.2520   23.6850   31.4710 H   0  0  0  0  0  0  0  0  0  0  0  0
   36.8590   27.6250   33.2370 N   0  0  0  0  0  0  0  0  0  0  0  0
   36.3420   28.3250   34.3980 C   0  0  0  0  0  3  0  0  0  0  0  0
   35.5590   27.6710   34.8580 H   0  0  0  0  0  0  0  0  0  0  0  0
   35.6370   29.5600   33.9150 C   0  0  0  0  0  3  0  0  0  0  0  0
   34.9690   29.9360   34.7330 H   0  0  0  0  0  0  0  0  0  0  0  0
   34.8180   29.2250   32.8540 O   0  0  0  0  0  0  0  0  0  0  0  0
   35.5520   29.0080   31.6790 C   0  0  0  0  0  2  0  0  0  0  0  0
   36.8390   28.2900   31.9420 C   0  0  0  0  0  2  0  0  0  0  0  0
   39.7720   22.8450   37.5140 C   0  0  0  0  0  0  0  0  0  0  0  0
   38.9950   23.2580   38.6150 C   0  0  0  0  0  0  0  0  0  0  0  0
   37.9270   24.1360   38.3560 C   0  0  0  0  0  0  0  0  0  0  0  0
   37.7130   24.5280   37.0680 N   0  0  0  0  0  0  0  0  0  0  0  0
   38.4890   24.1040   36.0390 C   0  0  0  0  0  0  0  0  0  0  0  0
   39.5120   23.2650   36.2780 N   0  0  0  0  0  0  0  0  0  0  0  0
   40.6080   22.1640   37.6860 H   0  0  0  0  0  0  0  0  0  0  0  0
   39.2060   22.9210   39.6030 H   0  0  0  0  0  0  0  0  0  0  0  0
   37.2890   24.4910   39.1650 H   0  0  0  0  0  0  0  0  0  0  0  0
  1 21  1  0  0  0  0
  2  7  1  0  0  0  0
  2  1  2  0  0  0  0
  3  2  1  0  0  0  0
  4  3  2  0  0  0  0
  4  5  1  0  0  0  0
  5  6  2  0  0  0  0
  6  1  1  0  0  0  0
  8  3  1  0  0  0  0
  9  5  1  0  0  0  0
  9 10  1  0  0  0  0
 10 11  1  0  0  0  0
 12 10  1  0  0  0  0
 12 13  1  0  0  0  0
 14 12  1  0  0  0  0
 15 16  1  0  0  0  0
 15 14  1  0  0  0  0
 16  9  1  0  0  0  0
 17 23  1  0  0  0  0
 17 18  1  0  0  0  0
 18 24  1  0  0  0  0
 19 18  2  0  0  0  0
 19 25  1  0  0  0  0
 20 19  1  0  0  0  0
 21 22  1  0  0  0  0
 21 20  2  0  0  0  0
 22 17  2  0  0  0  0
M  END
>  <minimizedAffinity>
-4.92694664

$$$$

 OpenBabel03262523033D

 25 27  0  0  0  0  0  0  0  0999 V2000
   38.3110   26.7240   33.6660 C   0  0  0  0  0  0  0  0  0  0  0  0
   39.4690   26.6810   32.9750 C   0  0  0  0  0  0  0  0  0  0  0  0
   40.4350   25.7740   33.3010 C   0  0  0  0  0  0  0  0  0  0  0  0
   40.2130   24.9130   34.3360 N   0  0  0  0  0  0  0  0  0  0  0  0
   39.0600   24.9750   35.0050 C   0  0  0  0  0  0  0  0  0  0  0  0
   38.0920   25.8710   34.6920 N   0  0  0  0  0  0  0  0  0  0  0  0
   39.6160   27.3870   32.1480 H   0  0  0  0  0  0  0  0  0  0  0  0
   41.3640   25.7380   32.7470 H   0  0  0  0  0  0  0  0  0  0  0  0
   38.7970   24.0810   36.1000 N   0  0  0  0  0  0  0  0  0  0  0  0
   37.7190   24.3200   37.0410 C   0  0  0  0  0  3  0  0  0  0  0  0
   37.8670   25.3470   37.4600 H   0  0  0  0  0  0  0  0  0  0  0  0
   37.8870   23.3630   38.1860 C   0  0  0  0  0  3  0  0  0  0  0  0
   37.2810   23.7310   39.0540 H   0  0  0  0  0  0  0  0  0  0  0  0
   39.2080   23.3710   38.5890 O   0  0  0  0  0  0  0  0  0  0  0  0
   40.0300   22.6710   37.6930 C   0  0  0  0  0  2  0  0  0  0  0  0
   39.6370   22.9040   36.2680 C   0  0  0  0  0  2  0  0  0  0  0  0
   36.0460   28.9610   31.8280 C   0  0  0  0  0  0  0  0  0  0  0  0
   35.2210   29.4830   32.8470 C   0  0  0  0  0  0  0  0  0  0  0  0
   35.4680   29.0470   34.1610 C   0  0  0  0  0  0  0  0  0  0  0  0
   36.4790   28.1560   34.3650 N   0  0  0  0  0  0  0  0  0  0  0  0
   37.2460   27.6800   33.3530 C   0  0  0  0  0  0  0  0  0  0  0  0
   37.0170   28.0910   32.0930 N   0  0  0  0  0  0  0  0  0  0  0  0
   35.8760   29.2820   30.7990 H   0  0  0  0  0  0  0  0  0  0  0  0
   34.4440   30.1790   32.6310 H   0  0  0  0  0  0  0  0  0  0  0  0
   34.8660   29.4140   34.9910 H   0  0  0  0  0  0  0  0  0  0  0  0
  1  6  1  0  0  0  0
  2  3  1  0  0  0  0
  2  1  2  0  0  0  0
  3  4  2  0  0  0  0
  4  5  1  0  0  0  0
  5  9  1  0  0  0  0
  6  5  2  0  0  0  0
  7  2  1  0  0  0  0
  8  3  1  0  0  0  0
  9 16  1  0  0  0  0
  9 10  1  0  0  0  0
 10 11  1  0  0  0  0
 10 12  1  0  0  0  0
 12 14  1  0  0  0  0
 12 13  1  0  0  0  0
 15 14  1  0  0  0  0
 16 15  1  0  0  0  0
 17 22  2  0  0  0  0
 17 18  1  0  0  0  0
 18 19  2  0  0  0  0
 19 20  1  0  0  0  0
 19 25  1  0  0  0  0
 21  1  1  0  0  0  0
 21 20  2  0  0  0  0
 22 21  1  0  0  0  0
 23 17  1  0  0  0  0
 24 18  1  0  0  0  0
M  END
>  <minimizedAffinity>
-4.78507376

$$$$

 OpenBabel03262523033D

 25 27  0  0  0  0  0  0  0  0999 V2000
   37.7700   26.3470   33.4670 C   0  0  0  0  0  0  0  0  0  0  0  0
   38.6140   26.0510   32.4570 C   0  0  0  0  0  0  0  0  0  0  0  0
   39.4790   25.0010   32.5630 C   0  0  0  0  0  0  0  0  0  0  0  0
   39.4770   24.2550   33.7050 N   0  0  0  0  0  0  0  0  0  0  0  0
   38.6330   24.5670   34.6910 C   0  0  0  0  0  0  0  0  0  0  0  0
   37.7700   25.6070   34.5990 N   0  0  0  0  0  0  0  0  0  0  0  0
   38.5910   26.6700   31.5500 H   0  0  0  0  0  0  0  0  0  0  0  0
   40.1560   24.7620   31.7530 H   0  0  0  0  0  0  0  0  0  0  0  0
   38.6080   23.7990   35.9070 N   0  0  0  0  0  0  0  0  0  0  0  0
   37.9510   24.2860   37.1050 C   0  0  0  0  0  3  0  0  0  0  0  0
   38.3880   25.2890   37.3380 H   0  0  0  0  0  0  0  0  0  0  0  0
   38.3330   23.3800   38.2400 C   0  0  0  0  0  3  0  0  0  0  0  0
   38.1130   23.9020   39.2070 H   0  0  0  0  0  0  0  0  0  0  0  0
   39.6980   23.1650   38.2050 O   0  0  0  0  0  0  0  0  0  0  0  0
   40.0580   22.2770   37.1810 C   0  0  0  0  0  2  0  0  0  0  0  0
   39.2600   22.4980   35.9350 C   0  0  0  0  0  2  0  0  0  0  0  0
   35.6900   29.2330   34.3910 C   0  0  0  0  0  0  0  0  0  0  0  0
   35.0370   29.5530   33.1820 C   0  0  0  0  0  0  0  0  0  0  0  0
   35.3330   28.7570   32.0610 C   0  0  0  0  0  0  0  0  0  0  0  0
   36.2230   27.7350   32.2130 N   0  0  0  0  0  0  0  0  0  0  0  0
   36.8270   27.4650   33.3970 C   0  0  0  0  0  0  0  0  0  0  0  0
   36.5510   28.2220   34.4740 N   0  0  0  0  0  0  0  0  0  0  0  0
   35.4790   29.8350   35.2770 H   0  0  0  0  0  0  0  0  0  0  0  0
   34.3490   30.3630   33.1190 H   0  0  0  0  0  0  0  0  0  0  0  0
   34.8610   28.9530   31.0990 H   0  0  0  0  0  0  0  0  0  0  0  0
  1  6  1  0  0  0  0
  2  3  1  0  0  0  0
  2  1  2  0  0  0  0
  3  4  2  0  0  0  0
  4  5  1  0  0  0  0
  5  9  1  0  0  0  0
  6  5  2  0  0  0  0
  7  2  1  0  0  0  0
  8  3  1  0  0  0  0
  9 16  1  0  0  0  0
  9 10  1  0  0  0  0
 10 11  1  0  0  0  0
 10 12  1  0  0  0  0
 12 13  1  0  0  0  0
 14 12  1  0  0  0  0
 15 14  1  0  0  0  0
 16 15  1  0  0  0  0
 17 22  1  0  0  0  0
 17 23  1  0  0  0  0
 18 17  2  0  0  0  0
 19 20  2  0  0  0  0
 19 18  1  0  0  0  0
 20 21  1  0  0  0  0
 21  1  1  0  0  0  0
 21 22  2  0  0  0  0
 24 18  1  0  0  0  0
 25 19  1  0  0  0  0
M  END
>  <minimizedAffinity>
-4.68517351

$$$$

 OpenBabel03262523033D

 25 27  0  0  0  0  0  0  0  0999 V2000
   35.5860   29.8080   34.0300 C   0  0  0  0  0  0  0  0  0  0  0  0
   35.6870   30.2710   32.7670 C   0  0  0  0  0  0  0  0  0  0  0  0
   36.2930   29.5210   31.8020 C   0  0  0  0  0  0  0  0  0  0  0  0
   36.7950   28.2960   32.1330 N   0  0  0  0  0  0  0  0  0  0  0  0
   36.6820   27.8590   33.3890 C   0  0  0  0  0  0  0  0  0  0  0  0
   36.0840   28.5950   34.3570 N   0  0  0  0  0  0  0  0  0  0  0  0
   35.2730   31.2610   32.5320 H   0  0  0  0  0  0  0  0  0  0  0  0
   36.3740   29.8910   30.7870 H   0  0  0  0  0  0  0  0  0  0  0  0
   37.2010   26.5730   33.7680 N   0  0  0  0  0  0  0  0  0  0  0  0
   37.3870   26.2030   35.1590 C   0  0  0  0  0  3  0  0  0  0  0  0
   38.0320   26.9880   35.6270 H   0  0  0  0  0  0  0  0  0  0  0  0
   38.1770   24.9250   35.1930 C   0  0  0  0  0  3  0  0  0  0  0  0
   38.6020   24.7940   36.2220 H   0  0  0  0  0  0  0  0  0  0  0  0
   39.2490   25.0360   34.3290 O   0  0  0  0  0  0  0  0  0  0  0  0
   38.8510   24.9240   32.9890 C   0  0  0  0  0  2  0  0  0  0  0  0
   37.5500   25.6170   32.7270 C   0  0  0  0  0  2  0  0  0  0  0  0
   35.0450   32.1210   36.8350 C   0  0  0  0  0  0  0  0  0  0  0  0
   33.6630   31.9940   37.0890 C   0  0  0  0  0  0  0  0  0  0  0  0
   32.9400   31.1030   36.2760 C   0  0  0  0  0  0  0  0  0  0  0  0
   33.6140   30.4230   35.3050 N   0  0  0  0  0  0  0  0  0  0  0  0
   34.9450   30.5790   35.0980 C   0  0  0  0  0  0  0  0  0  0  0  0
   35.6450   31.4300   35.8690 N   0  0  0  0  0  0  0  0  0  0  0  0
   35.6310   32.8060   37.4510 H   0  0  0  0  0  0  0  0  0  0  0  0
   33.1860   32.5490   37.8620 H   0  0  0  0  0  0  0  0  0  0  0  0
   31.8690   30.9590   36.4230 H   0  0  0  0  0  0  0  0  0  0  0  0
  1  6  1  0  0  0  0
  1 21  1  0  0  0  0
  2  1  2  0  0  0  0
  3  4  2  0  0  0  0
  3  2  1  0  0  0  0
  4  5  1  0  0  0  0
  5  9  1  0  0  0  0
  5  6  2  0  0  0  0
  7  2  1  0  0  0  0
  8  3  1  0  0  0  0
  9 10  1  0  0  0  0
 10 12  1  0  0  0  0
 10 11  1  0  0  0  0
 12 13  1  0  0  0  0
 14 12  1  0  0  0  0
 15 14  1  0  0  0  0
 16 15  1  0  0  0  0
 16  9  1  0  0  0  0
 17 18  1  0  0  0  0
 17 23  1  0  0  0  0
 18 24  1  0  0  0  0
 19 25  1  0  0  0  0
 19 18  2  0  0  0  0
 20 19  1  0  0  0  0
 21 20  2  0  0  0  0
 21 22  1  0  0  0  0
 22 17  2  0  0  0  0
M  END
>  <minimizedAffinity>
-4.67372227

$$$$

 OpenBabel03262523033D

 25 27  0  0  0  0  0  0  0  0999 V2000
   38.6150   24.5880   36.1390 C   0  0  0  0  0  0  0  0  0  0  0  0
   38.0820   24.3070   37.3460 C   0  0  0  0  0  0  0  0  0  0  0  0
   38.6650   23.3810   38.1610 C   0  0  0  0  0  0  0  0  0  0  0  0
   39.7940   22.7430   37.7370 N   0  0  0  0  0  0  0  0  0  0  0  0
   40.3030   23.0380   36.5380 C   0  0  0  0  0  0  0  0  0  0  0  0
   39.7340   23.9550   35.7190 N   0  0  0  0  0  0  0  0  0  0  0  0
   37.1730   24.8380   37.6590 H   0  0  0  0  0  0  0  0  0  0  0  0
   38.2380   23.1550   39.1300 H   0  0  0  0  0  0  0  0  0  0  0  0
   41.4920   22.3820   36.0640 N   0  0  0  0  0  0  0  0  0  0  0  0
   41.8880   22.4330   34.6690 C   0  0  0  0  0  3  0  0  0  0  0  0
   41.0230   22.0600   34.0660 H   0  0  0  0  0  0  0  0  0  0  0  0
   43.0030   21.4460   34.4720 C   0  0  0  0  0  3  0  0  0  0  0  0
   43.1050   21.2330   33.3760 H   0  0  0  0  0  0  0  0  0  0  0  0
   42.6610   20.2530   35.0800 O   0  0  0  0  0  0  0  0  0  0  0  0
   42.7790   20.3280   36.4750 C   0  0  0  0  0  2  0  0  0  0  0  0
   42.3190   21.6480   37.0100 C   0  0  0  0  0  2  0  0  0  0  0  0
   37.1960   27.7030   34.7990 C   0  0  0  0  0  0  0  0  0  0  0  0
   36.9100   27.3700   33.4590 C   0  0  0  0  0  0  0  0  0  0  0  0
   37.2170   26.0630   33.0420 C   0  0  0  0  0  0  0  0  0  0  0  0
   37.7650   25.2080   33.9520 N   0  0  0  0  0  0  0  0  0  0  0  0
   38.0230   25.5740   35.2320 C   0  0  0  0  0  0  0  0  0  0  0  0
   37.7340   26.8220   35.6390 N   0  0  0  0  0  0  0  0  0  0  0  0
   36.9680   28.7120   35.1500 H   0  0  0  0  0  0  0  0  0  0  0  0
   36.4800   28.0780   32.7900 H   0  0  0  0  0  0  0  0  0  0  0  0
   37.0190   25.7440   32.0190 H   0  0  0  0  0  0  0  0  0  0  0  0
  1  2  1  0  0  0  0
  2  7  1  0  0  0  0
  2  3  2  0  0  0  0
  3  8  1  0  0  0  0
  4  3  1  0  0  0  0
  5  4  2  0  0  0  0
  6  1  2  0  0  0  0
  6  5  1  0  0  0  0
  9  5  1  0  0  0  0
  9 16  1  0  0  0  0
 10  9  1  0  0  0  0
 11 10  1  0  0  0  0
 12 10  1  0  0  0  0
 12 14  1  0  0  0  0
 13 12  1  0  0  0  0
 14 15  1  0  0  0  0
 15 16  1  0  0  0  0
 17 23  1  0  0  0  0
 17 22  1  0  0  0  0
 18 17  2  0  0  0  0
 19 18  1  0  0  0  0
 19 20  2  0  0  0  0
 20 21  1  0  0  0  0
 21 22  2  0  0  0  0
 21  1  1  0  0  0  0
 24 18  1  0  0  0  0
 25 19  1  0  0  0  0
M  END
>  <minimizedAffinity>
-4.58442068

$$$$

 OpenBabel03262523033D

 25 27  0  0  0  0  0  0  0  0999 V2000
   36.1260   23.3050   31.7120 C   0  0  0  0  0  0  0  0  0  0  0  0
   35.4490   24.1780   30.9390 C   0  0  0  0  0  0  0  0  0  0  0  0
   35.5790   25.5220   31.1360 C   0  0  0  0  0  0  0  0  0  0  0  0
   36.4040   25.9690   32.1270 N   0  0  0  0  0  0  0  0  0  0  0  0
   37.0650   25.0850   32.8790 C   0  0  0  0  0  0  0  0  0  0  0  0
   36.9440   23.7480   32.6940 N   0  0  0  0  0  0  0  0  0  0  0  0
   34.7930   23.7860   30.1500 H   0  0  0  0  0  0  0  0  0  0  0  0
   35.0360   26.2230   30.5160 H   0  0  0  0  0  0  0  0  0  0  0  0
   37.9410   25.5260   33.9290 N   0  0  0  0  0  0  0  0  0  0  0  0
   38.4170   24.6210   34.9580 C   0  0  0  0  0  3  0  0  0  0  0  0
   37.5170   24.1540   35.4310 H   0  0  0  0  0  0  0  0  0  0  0  0
   39.0820   25.4440   36.0250 C   0  0  0  0  0  3  0  0  0  0  0  0
   39.1660   24.8260   36.9560 H   0  0  0  0  0  0  0  0  0  0  0  0
   38.2710   26.5200   36.3320 O   0  0  0  0  0  0  0  0  0  0  0  0
   38.3170   27.5070   35.3370 C   0  0  0  0  0  2  0  0  0  0  0  0
   38.3620   26.9200   33.9620 C   0  0  0  0  0  2  0  0  0  0  0  0
   34.9390   19.8330   31.9340 C   0  0  0  0  0  0  0  0  0  0  0  0
   35.8820   19.1260   31.1590 C   0  0  0  0  0  0  0  0  0  0  0  0
   36.9190   19.8710   30.5700 C   0  0  0  0  0  0  0  0  0  0  0  0
   36.9470   21.2170   30.7840 N   0  0  0  0  0  0  0  0  0  0  0  0
   36.0170   21.8540   31.5380 C   0  0  0  0  0  0  0  0  0  0  0  0
   35.0210   21.1500   32.1040 N   0  0  0  0  0  0  0  0  0  0  0  0
   34.1230   19.2790   32.4030 H   0  0  0  0  0  0  0  0  0  0  0  0
   35.8130   18.0720   31.0250 H   0  0  0  0  0  0  0  0  0  0  0  0
   37.6790   19.3820   29.9600 H   0  0  0  0  0  0  0  0  0  0  0  0
  1  6  1  0  0  0  0
  2  3  1  0  0  0  0
  2  1  2  0  0  0  0
  3  4  2  0  0  0  0
  4  5  1  0  0  0  0
  5  9  1  0  0  0  0
  6  5  2  0  0  0  0
  7  2  1  0  0  0  0
  8  3  1  0  0  0  0
  9 16  1  0  0  0  0
  9 10  1  0  0  0  0
 10 11  1  0  0  0  0
 10 12  1  0  0  0  0
 12 14  1  0  0  0  0
 12 13  1  0  0  0  0
 15 14  1  0  0  0  0
 16 15  1  0  0  0  0
 17 22  1  0  0  0  0
 17 23  1  0  0  0  0
 18 17  2  0  0  0  0
 19 20  2  0  0  0  0
 19 18  1  0  0  0  0
 20 21  1  0  0  0  0
 21  1  1  0  0  0  0
 21 22  2  0  0  0  0
 24 18  1  0  0  0  0
 25 19  1  0  0  0  0
M  END
>  <minimizedAffinity>
-4.55037594

$$$$

 OpenBabel03262523033D

 25 27  0  0  0  0  0  0  0  0999 V2000
   38.0380   24.7350   32.4600 C   0  0  0  0  0  0  0  0  0  0  0  0
   38.5860   24.9590   31.2480 C   0  0  0  0  0  0  0  0  0  0  0  0
   38.4230   24.0560   30.2390 C   0  0  0  0  0  0  0  0  0  0  0  0
   37.7000   22.9230   30.4730 N   0  0  0  0  0  0  0  0  0  0  0  0
   37.1680   22.7230   31.6810 C   0  0  0  0  0  0  0  0  0  0  0  0
   37.3220   23.6120   32.6930 N   0  0  0  0  0  0  0  0  0  0  0  0
   39.1620   25.8800   31.0910 H   0  0  0  0  0  0  0  0  0  0  0  0
   38.8620   24.2350   29.2650 H   0  0  0  0  0  0  0  0  0  0  0  0
   36.4010   21.5390   31.9590 N   0  0  0  0  0  0  0  0  0  0  0  0
   36.0840   21.1340   33.3160 C   0  0  0  0  0  3  0  0  0  0  0  0
   37.0510   21.0580   33.8730 H   0  0  0  0  0  0  0  0  0  0  0  0
   35.5140   19.7460   33.2600 C   0  0  0  0  0  3  0  0  0  0  0  0
   35.5630   19.2950   34.2850 H   0  0  0  0  0  0  0  0  0  0  0  0
   36.3090   18.9650   32.4430 O   0  0  0  0  0  0  0  0  0  0  0  0
   36.1080   19.2590   31.0860 C   0  0  0  0  0  2  0  0  0  0  0  0
   35.9290   20.7260   30.8480 C   0  0  0  0  0  2  0  0  0  0  0  0
   37.2900   27.1960   35.0860 C   0  0  0  0  0  0  0  0  0  0  0  0
   38.5530   27.4290   35.6710 C   0  0  0  0  0  0  0  0  0  0  0  0
   39.6470   26.7240   35.1400 C   0  0  0  0  0  0  0  0  0  0  0  0
   39.4200   25.8680   34.1030 N   0  0  0  0  0  0  0  0  0  0  0  0
   38.1870   25.6760   33.5730 C   0  0  0  0  0  0  0  0  0  0  0  0
   37.1350   26.3450   34.0750 N   0  0  0  0  0  0  0  0  0  0  0  0
   36.4230   27.7310   35.4790 H   0  0  0  0  0  0  0  0  0  0  0  0
   38.6730   28.1110   36.4800 H   0  0  0  0  0  0  0  0  0  0  0  0
   40.6490   26.8610   35.5480 H   0  0  0  0  0  0  0  0  0  0  0  0
  1  6  1  0  0  0  0
  1 21  1  0  0  0  0
  2  1  2  0  0  0  0
  3  4  2  0  0  0  0
  3  2  1  0  0  0  0
  4  5  1  0  0  0  0
  5  9  1  0  0  0  0
  5  6  2  0  0  0  0
  7  2  1  0  0  0  0
  8  3  1  0  0  0  0
  9 10  1  0  0  0  0
 10 11  1  0  0  0  0
 12 10  1  0  0  0  0
 12 13  1  0  0  0  0
 14 12  1  0  0  0  0
 15 14  1  0  0  0  0
 16 15  1  0  0  0  0
 16  9  1  0  0  0  0
 17 23  1  0  0  0  0
 17 18  1  0  0  0  0
 18 24  1  0  0  0  0
 19 25  1  0  0  0  0
 19 18  2  0  0  0  0
 20 19  1  0  0  0  0
 21 22  1  0  0  0  0
 21 20  2  0  0  0  0
 22 17  2  0  0  0  0
M  END
>  <minimizedAffinity>
-4.46209812

$$$$

 OpenBabel03262523033D

 25 27  0  0  0  0  0  0  0  0999 V2000
   37.2610   26.2290   32.2820 C   0  0  0  0  0  0  0  0  0  0  0  0
   37.6520   25.5460   31.1870 C   0  0  0  0  0  0  0  0  0  0  0  0
   38.1970   24.3010   31.3070 C   0  0  0  0  0  0  0  0  0  0  0  0
   38.3410   23.7570   32.5500 N   0  0  0  0  0  0  0  0  0  0  0  0
   37.9460   24.4530   33.6190 C   0  0  0  0  0  0  0  0  0  0  0  0
   37.4050   25.6900   33.5140 N   0  0  0  0  0  0  0  0  0  0  0  0
   37.5230   26.0100   30.2000 H   0  0  0  0  0  0  0  0  0  0  0  0
   38.5110   23.7510   30.4280 H   0  0  0  0  0  0  0  0  0  0  0  0
   38.0850   23.9060   34.9420 N   0  0  0  0  0  0  0  0  0  0  0  0
   37.9730   24.7360   36.1270 C   0  0  0  0  0  3  0  0  0  0  0  0
   38.7100   25.5700   36.0180 H   0  0  0  0  0  0  0  0  0  0  0  0
   38.4230   23.9190   37.3040 C   0  0  0  0  0  3  0  0  0  0  0  0
   38.6510   24.6110   38.1560 H   0  0  0  0  0  0  0  0  0  0  0  0
   39.6060   23.2800   36.9830 O   0  0  0  0  0  0  0  0  0  0  0  0
   39.3920   22.1920   36.1240 C   0  0  0  0  0  2  0  0  0  0  0  0
   38.3450   22.4820   35.0950 C   0  0  0  0  0  2  0  0  0  0  0  0
   35.9980   29.4240   30.9750 C   0  0  0  0  0  0  0  0  0  0  0  0
   35.5540   30.0880   32.1370 C   0  0  0  0  0  0  0  0  0  0  0  0
   35.7020   29.4120   33.3610 C   0  0  0  0  0  0  0  0  0  0  0  0
   36.2610   28.1680   33.3460 N   0  0  0  0  0  0  0  0  0  0  0  0
   36.6730   27.5680   32.2020 C   0  0  0  0  0  0  0  0  0  0  0  0
   36.5340   28.2070   31.0270 N   0  0  0  0  0  0  0  0  0  0  0  0
   35.8950   29.9260   30.0110 H   0  0  0  0  0  0  0  0  0  0  0  0
   35.1240   31.0620   32.0920 H   0  0  0  0  0  0  0  0  0  0  0  0
   35.3790   29.8720   34.2950 H   0  0  0  0  0  0  0  0  0  0  0  0
  1  6  1  0  0  0  0
  2  3  1  0  0  0  0
  2  1  2  0  0  0  0
  3  4  2  0  0  0  0
  4  5  1  0  0  0  0
  5  9  1  0  0  0  0
  6  5  2  0  0  0  0
  7  2  1  0  0  0  0
  8  3  1  0  0  0  0
  9 16  1  0  0  0  0
  9 10  1  0  0  0  0
 10 12  1  0  0  0  0
 11 10  1  0  0  0  0
 12 13  1  0  0  0  0
 14 12  1  0  0  0  0
 15 14  1  0  0  0  0
 16 15  1  0  0  0  0
 17 22  2  0  0  0  0
 17 18  1  0  0  0  0
 18 19  2  0  0  0  0
 19 25  1  0  0  0  0
 20 19  1  0  0  0  0
 21  1  1  0  0  0  0
 21 20  2  0  0  0  0
 22 21  1  0  0  0  0
 23 17  1  0  0  0  0
 24 18  1  0  0  0  0
M  END
>  <minimizedAffinity>
-4.38704157

$$$$

 OpenBabel03262523033D

 25 27  0  0  0  0  0  0  0  0999 V2000
   36.1680   26.1610   31.6380 C   0  0  0  0  0  0  0  0  0  0  0  0
   35.4590   25.2460   30.9450 C   0  0  0  0  0  0  0  0  0  0  0  0
   35.6340   23.9140   31.1790 C   0  0  0  0  0  0  0  0  0  0  0  0
   36.5380   23.5200   32.1210 N   0  0  0  0  0  0  0  0  0  0  0  0
   37.2280   24.4430   32.7940 C   0  0  0  0  0  0  0  0  0  0  0  0
   37.0640   25.7700   32.5720 N   0  0  0  0  0  0  0  0  0  0  0  0
   34.7390   25.5960   30.1930 H   0  0  0  0  0  0  0  0  0  0  0  0
   35.0640   23.1790   30.6230 H   0  0  0  0  0  0  0  0  0  0  0  0
   38.1880   24.0580   33.7940 N   0  0  0  0  0  0  0  0  0  0  0  0
   39.1720   24.9920   34.3080 C   0  0  0  0  0  3  0  0  0  0  0  0
   39.7320   25.4010   33.4300 H   0  0  0  0  0  0  0  0  0  0  0  0
   40.1640   24.2130   35.1230 C   0  0  0  0  0  3  0  0  0  0  0  0
   41.0870   24.8350   35.2570 H   0  0  0  0  0  0  0  0  0  0  0  0
   40.5420   23.0870   34.4150 O   0  0  0  0  0  0  0  0  0  0  0  0
   39.5410   22.1060   34.4270 C   0  0  0  0  0  2  0  0  0  0  0  0
   38.1710   22.6940   34.3020 C   0  0  0  0  0  2  0  0  0  0  0  0
   35.0950   29.6590   31.9940 C   0  0  0  0  0  0  0  0  0  0  0  0
   35.7780   30.3080   30.9450 C   0  0  0  0  0  0  0  0  0  0  0  0
   36.6040   29.5150   30.1270 C   0  0  0  0  0  0  0  0  0  0  0  0
   36.6900   28.1820   30.3990 N   0  0  0  0  0  0  0  0  0  0  0  0
   36.0140   27.6010   31.4210 C   0  0  0  0  0  0  0  0  0  0  0  0
   35.2230   28.3510   32.2080 N   0  0  0  0  0  0  0  0  0  0  0  0
   34.4480   30.2500   32.6440 H   0  0  0  0  0  0  0  0  0  0  0  0
   35.6740   31.3540   30.7770 H   0  0  0  0  0  0  0  0  0  0  0  0
   37.1570   29.9580   29.2990 H   0  0  0  0  0  0  0  0  0  0  0  0
  1  6  1  0  0  0  0
  2  3  1  0  0  0  0
  2  1  2  0  0  0  0
  3  4  2  0  0  0  0
  4  5  1  0  0  0  0
  5  9  1  0  0  0  0
  6  5  2  0  0  0  0
  7  2  1  0  0  0  0
  8  3  1  0  0  0  0
  9 16  1  0  0  0  0
  9 10  1  0  0  0  0
 10 12  1  0  0  0  0
 11 10  1  0  0  0  0
 12 13  1  0  0  0  0
 14 15  1  0  0  0  0
 14 12  1  0  0  0  0
 16 15  1  0  0  0  0
 17 22  1  0  0  0  0
 17 23  1  0  0  0  0
 18 17  2  0  0  0  0
 19 20  2  0  0  0  0
 19 18  1  0  0  0  0
 20 21  1  0  0  0  0
 21  1  1  0  0  0  0
 21 22  2  0  0  0  0
 24 18  1  0  0  0  0
 25 19  1  0  0  0  0
M  END
>  <minimizedAffinity>
-4.38441324

$$$$
