
 OpenBabel03272510003D

 20 21  0  0  0  0  0  0  0  0999 V2000
   38.3760   31.5530   50.0100 C   0  0  0  0  0  0  0  0  0  0  0  0
   38.5010   31.7480   48.6270 C   0  0  0  0  0  0  0  0  0  0  0  0
   37.5450   31.1860   47.7930 C   0  0  0  0  0  0  0  0  0  0  0  0
   36.5330   30.4720   48.3680 N   0  0  0  0  0  0  0  0  0  0  0  0
   36.4350   30.2990   49.6990 C   0  0  0  0  0  0  0  0  0  0  0  0
   37.3530   30.8380   50.5020 N   0  0  0  0  0  0  0  0  0  0  0  0
   39.1520   32.0150   50.6060 H   0  0  0  0  0  0  0  0  0  0  0  0
   39.2990   32.3100   48.1740 H   0  0  0  0  0  0  0  0  0  0  0  0
   37.5430   31.3000   46.3770 N   0  0  0  0  0  0  0  0  0  0  0  0
   38.3340   32.3050   45.6620 C   0  0  0  0  0  3  0  0  0  0  0  0
   37.7630   33.2290   45.5640 H   0  0  0  0  0  0  0  0  0  0  0  0
   38.6230   31.6790   44.3040 C   0  0  0  0  0  3  0  0  0  0  0  0
   39.3530   32.2610   43.7070 H   0  0  0  0  0  0  0  0  0  0  0  0
   37.4470   31.6400   43.5760 O   0  0  0  0  0  0  0  0  0  0  0  0
   36.3700   31.1580   44.2880 C   0  0  0  0  0  2  0  0  0  0  0  0
   36.7590   30.4320   45.5500 C   0  0  0  0  0  2  0  0  0  0  0  0
   35.2990   29.5070   50.2290 C   0  0  0  0  0  0  0  0  0  0  0  0
   35.4300   29.2000   51.5720 F   0  0  0  0  0  0  0  0  0  0  0  0
   34.0990   30.1890   50.0800 F   0  0  0  0  0  0  0  0  0  0  0  0
   35.1260   28.3080   49.5660 F   0  0  0  0  0  0  0  0  0  0  0  0
  1  6  1  0  0  0  0
  1  7  1  0  0  0  0
  2  1  2  0  0  0  0
  3  4  2  0  0  0  0
  3  2  1  0  0  0  0
  4  5  1  0  0  0  0
  5 17  1  0  0  0  0
  5  6  2  0  0  0  0
  8  2  1  0  0  0  0
  9  3  1  0  0  0  0
 10  9  1  0  0  0  0
 11 10  1  0  0  0  0
 12 10  1  0  0  0  0
 13 12  1  0  0  0  0
 14 15  1  0  0  0  0
 14 12  1  0  0  0  0
 15 16  1  0  0  0  0
 16  9  1  0  0  0  0
 17 18  1  0  0  0  0
 19 17  1  0  0  0  0
 20 17  1  0  0  0  0
M  END
>  <minimizedAffinity>
-4.96245956

>  <minimizedRMSD>
0.764421344

$$$$
