
 OpenBabel03272510003D

 20 21  0  0  0  0  0  0  0  0999 V2000
   38.3760   31.5530   50.0080 C   0  0  0  0  0  0  0  0  0  0  0  0
   38.5000   31.7480   48.6250 C   0  0  0  0  0  0  0  0  0  0  0  0
   37.5430   31.1870   47.7910 C   0  0  0  0  0  0  0  0  0  0  0  0
   36.5310   30.4730   48.3660 N   0  0  0  0  0  0  0  0  0  0  0  0
   36.4340   30.2990   49.6980 C   0  0  0  0  0  0  0  0  0  0  0  0
   37.3530   30.8390   50.5000 N   0  0  0  0  0  0  0  0  0  0  0  0
   39.1510   32.0150   50.6030 H   0  0  0  0  0  0  0  0  0  0  0  0
   39.2980   32.3100   48.1710 H   0  0  0  0  0  0  0  0  0  0  0  0
   37.5400   31.3000   46.3750 N   0  0  0  0  0  0  0  0  0  0  0  0
   38.3320   32.3040   45.6590 C   0  0  0  0  0  3  0  0  0  0  0  0
   37.7610   33.2290   45.5610 H   0  0  0  0  0  0  0  0  0  0  0  0
   38.6220   31.6790   44.3020 C   0  0  0  0  0  3  0  0  0  0  0  0
   39.3510   32.2610   43.7050 H   0  0  0  0  0  0  0  0  0  0  0  0
   37.4450   31.6390   43.5740 O   0  0  0  0  0  0  0  0  0  0  0  0
   36.3690   31.1560   44.2850 C   0  0  0  0  0  2  0  0  0  0  0  0
   36.7560   30.4310   45.5480 C   0  0  0  0  0  2  0  0  0  0  0  0
   35.2980   29.5080   50.2290 C   0  0  0  0  0  0  0  0  0  0  0  0
   35.4310   29.1990   51.5710 F   0  0  0  0  0  0  0  0  0  0  0  0
   34.0990   30.1910   50.0820 F   0  0  0  0  0  0  0  0  0  0  0  0
   35.1230   28.3100   49.5640 F   0  0  0  0  0  0  0  0  0  0  0  0
  1  6  1  0  0  0  0
  1  7  1  0  0  0  0
  2  1  2  0  0  0  0
  3  4  2  0  0  0  0
  3  2  1  0  0  0  0
  4  5  1  0  0  0  0
  5 17  1  0  0  0  0
  5  6  2  0  0  0  0
  8  2  1  0  0  0  0
  9  3  1  0  0  0  0
 10  9  1  0  0  0  0
 11 10  1  0  0  0  0
 12 10  1  0  0  0  0
 13 12  1  0  0  0  0
 14 15  1  0  0  0  0
 14 12  1  0  0  0  0
 15 16  1  0  0  0  0
 16  9  1  0  0  0  0
 17 18  1  0  0  0  0
 19 17  1  0  0  0  0
 20 17  1  0  0  0  0
M  END
>  <minimizedAffinity>
-4.96418715

>  <minimizedRMSD>
0.681604147

$$$$
