
 OpenBabel03262522543D

 27 29  0  0  0  0  0  0  0  0999 V2000
   35.4260   28.5640   32.0560 C   0  0  0  0  0  0  0  0  0  0  0  0
   35.0480   29.5950   32.9220 C   0  0  0  0  0  0  0  0  0  0  0  0
   35.5550   29.7070   34.2110 C   0  0  0  0  0  0  0  0  0  0  0  0
   36.4390   28.7520   34.5750 N   0  0  0  0  0  0  0  0  0  0  0  0
   36.8110   27.7580   33.7560 C   0  0  0  0  0  0  0  0  0  0  0  0
   36.3070   27.6690   32.5100 N   0  0  0  0  0  0  0  0  0  0  0  0
   35.0290   28.4820   31.0540 H   0  0  0  0  0  0  0  0  0  0  0  0
   34.3400   30.3190   32.5630 H   0  0  0  0  0  0  0  0  0  0  0  0
   37.7550   26.7610   34.1790 N   0  0  0  0  0  0  0  0  0  0  0  0
   39.0100   26.5710   33.4770 C   0  0  0  0  0  3  0  0  0  0  0  0
   39.7730   27.1980   34.0180 H   0  0  0  0  0  0  0  0  0  0  0  0
   39.4830   25.1450   33.5070 C   0  0  0  0  0  3  0  0  0  0  0  0
   39.5140   24.7750   32.4520 H   0  0  0  0  0  0  0  0  0  0  0  0
   38.6540   24.3010   34.2060 O   0  0  0  0  0  0  0  0  0  0  0  0
   38.3410   24.7790   35.4760 C   0  0  0  0  0  2  0  0  0  0  0  0
   37.4240   25.9450   35.3320 C   0  0  0  0  0  2  0  0  0  0  0  0
   32.8360   29.3700   35.3110 Cl  0  0  0  0  0  0  0  0  0  0  0  0
   33.8990   30.7090   35.6800 C   0  0  0  0  0  0  0  0  0  0  0  0
   35.1630   30.7760   35.1090 C   0  0  0  0  0  0  0  0  0  0  0  0
   35.9450   31.8640   35.4480 C   0  0  0  0  0  0  0  0  0  0  0  0
   35.5180   32.8490   36.3080 C   0  0  0  0  0  0  0  0  0  0  0  0
   34.2380   32.7340   36.8550 C   0  0  0  0  0  0  0  0  0  0  0  0
   33.7140   34.0000   37.9480 Cl  0  0  0  0  0  0  0  0  0  0  0  0
   33.4150   31.6750   36.5540 C   0  0  0  0  0  0  0  0  0  0  0  0
   36.9290   31.9130   35.0020 H   0  0  0  0  0  0  0  0  0  0  0  0
   36.2100   33.6550   36.5040 H   0  0  0  0  0  0  0  0  0  0  0  0
   32.4230   31.6040   36.9910 H   0  0  0  0  0  0  0  0  0  0  0  0
  1  6  2  0  0  0  0
  1  2  1  0  0  0  0
  2  3  2  0  0  0  0
  3  4  1  0  0  0  0
  3 19  1  0  0  0  0
  5  9  1  0  0  0  0
  5  4  2  0  0  0  0
  6  5  1  0  0  0  0
  7  1  1  0  0  0  0
  8  2  1  0  0  0  0
  9 16  1  0  0  0  0
 10 12  1  0  0  0  0
 10 11  1  0  0  0  0
 10  9  1  0  0  0  0
 12 14  1  0  0  0  0
 13 12  1  0  0  0  0
 14 15  1  0  0  0  0
 16 15  1  0  0  0  0
 17 18  1  0  0  0  0
 18 24  1  0  0  0  0
 19 20  1  0  0  0  0
 19 18  2  0  0  0  0
 20 21  2  0  0  0  0
 21 26  1  0  0  0  0
 21 22  1  0  0  0  0
 22 23  1  0  0  0  0
 24 22  2  0  0  0  0
 24 27  1  0  0  0  0
 25 20  1  0  0  0  0
M  END
>  <minimizedAffinity>
-5.22346115

$$$$

 OpenBabel03262522543D

 27 29  0  0  0  0  0  0  0  0999 V2000
   36.5240   29.7140   30.3380 C   0  0  0  0  0  0  0  0  0  0  0  0
   35.9510   30.2840   31.4800 C   0  0  0  0  0  0  0  0  0  0  0  0
   35.7460   29.5610   32.6490 C   0  0  0  0  0  0  0  0  0  0  0  0
   36.1370   28.2680   32.6100 N   0  0  0  0  0  0  0  0  0  0  0  0
   36.6880   27.7080   31.5230 C   0  0  0  0  0  0  0  0  0  0  0  0
   36.8770   28.4270   30.4010 N   0  0  0  0  0  0  0  0  0  0  0  0
   36.6810   30.2810   29.4310 H   0  0  0  0  0  0  0  0  0  0  0  0
   35.6650   31.3190   31.4360 H   0  0  0  0  0  0  0  0  0  0  0  0
   37.0900   26.3290   31.5220 N   0  0  0  0  0  0  0  0  0  0  0  0
   38.4710   25.9520   31.2820 C   0  0  0  0  0  3  0  0  0  0  0  0
   38.9530   25.8570   32.2960 H   0  0  0  0  0  0  0  0  0  0  0  0
   38.5990   24.6260   30.5880 C   0  0  0  0  0  3  0  0  0  0  0  0
   39.0930   24.8080   29.6000 H   0  0  0  0  0  0  0  0  0  0  0  0
   37.3940   24.0170   30.3300 O   0  0  0  0  0  0  0  0  0  0  0  0
   36.5730   23.9460   31.4520 C   0  0  0  0  0  2  0  0  0  0  0  0
   36.0820   25.3160   31.7680 C   0  0  0  0  0  2  0  0  0  0  0  0
   32.8400   29.0860   32.8590 Cl  0  0  0  0  0  0  0  0  0  0  0  0
   33.7880   29.9830   34.0220 C   0  0  0  0  0  0  0  0  0  0  0  0
   35.1530   30.1520   33.8330 C   0  0  0  0  0  0  0  0  0  0  0  0
   35.8340   30.8730   34.7950 C   0  0  0  0  0  0  0  0  0  0  0  0
   35.2150   31.4100   35.8990 C   0  0  0  0  0  0  0  0  0  0  0  0
   33.8400   31.2120   36.0430 C   0  0  0  0  0  0  0  0  0  0  0  0
   33.0720   31.9050   37.4580 Cl  0  0  0  0  0  0  0  0  0  0  0  0
   33.1100   30.5040   35.1180 C   0  0  0  0  0  0  0  0  0  0  0  0
   36.8970   31.0020   34.6430 H   0  0  0  0  0  0  0  0  0  0  0  0
   35.8420   31.9560   36.5880 H   0  0  0  0  0  0  0  0  0  0  0  0
   32.0420   30.3610   35.2500 H   0  0  0  0  0  0  0  0  0  0  0  0
  1  6  2  0  0  0  0
  1  2  1  0  0  0  0
  2  3  2  0  0  0  0
  3 19  1  0  0  0  0
  4  3  1  0  0  0  0
  5  4  2  0  0  0  0
  6  5  1  0  0  0  0
  7  1  1  0  0  0  0
  8  2  1  0  0  0  0
  9  5  1  0  0  0  0
  9 16  1  0  0  0  0
 10  9  1  0  0  0  0
 10 11  1  0  0  0  0
 12 10  1  0  0  0  0
 13 12  1  0  0  0  0
 14 12  1  0  0  0  0
 14 15  1  0  0  0  0
 15 16  1  0  0  0  0
 17 18  1  0  0  0  0
 18 24  1  0  0  0  0
 19 18  2  0  0  0  0
 19 20  1  0  0  0  0
 20 21  2  0  0  0  0
 21 22  1  0  0  0  0
 21 26  1  0  0  0  0
 22 23  1  0  0  0  0
 24 27  1  0  0  0  0
 24 22  2  0  0  0  0
 25 20  1  0  0  0  0
M  END
>  <minimizedAffinity>
-5.17188549

$$$$

 OpenBabel03262522543D

 27 29  0  0  0  0  0  0  0  0999 V2000
   36.7560   28.6040   31.9180 C   0  0  0  0  0  0  0  0  0  0  0  0
   35.6870   29.2450   32.5540 C   0  0  0  0  0  0  0  0  0  0  0  0
   35.4270   29.0880   33.9100 C   0  0  0  0  0  0  0  0  0  0  0  0
   36.2750   28.2740   34.5760 N   0  0  0  0  0  0  0  0  0  0  0  0
   37.3030   27.6530   33.9810 C   0  0  0  0  0  0  0  0  0  0  0  0
   37.5380   27.8190   32.6650 N   0  0  0  0  0  0  0  0  0  0  0  0
   36.9540   28.7300   30.8630 H   0  0  0  0  0  0  0  0  0  0  0  0
   35.0550   29.8780   31.9600 H   0  0  0  0  0  0  0  0  0  0  0  0
   38.1840   26.7940   34.7240 N   0  0  0  0  0  0  0  0  0  0  0  0
   39.6040   27.0760   34.8150 C   0  0  0  0  0  3  0  0  0  0  0  0
   39.7490   27.6670   35.7630 H   0  0  0  0  0  0  0  0  0  0  0  0
   40.4380   25.8310   34.9200 C   0  0  0  0  0  3  0  0  0  0  0  0
   41.1020   25.7910   34.0200 H   0  0  0  0  0  0  0  0  0  0  0  0
   39.7010   24.6700   34.9280 O   0  0  0  0  0  0  0  0  0  0  0  0
   38.6690   24.6920   35.8620 C   0  0  0  0  0  2  0  0  0  0  0  0
   37.6180   25.6340   35.3850 C   0  0  0  0  0  2  0  0  0  0  0  0
   36.2740   31.3010   35.6700 Cl  0  0  0  0  0  0  0  0  0  0  0  0
   34.6140   30.8090   35.4200 C   0  0  0  0  0  0  0  0  0  0  0  0
   34.3190   29.7520   34.5690 C   0  0  0  0  0  0  0  0  0  0  0  0
   32.9850   29.4210   34.4230 C   0  0  0  0  0  0  0  0  0  0  0  0
   31.9760   30.0900   35.0750 C   0  0  0  0  0  0  0  0  0  0  0  0
   32.3270   31.1460   35.9200 C   0  0  0  0  0  0  0  0  0  0  0  0
   31.0250   31.9840   36.7420 Cl  0  0  0  0  0  0  0  0  0  0  0  0
   33.6370   31.5200   36.1060 C   0  0  0  0  0  0  0  0  0  0  0  0
   32.7600   28.5980   33.7590 H   0  0  0  0  0  0  0  0  0  0  0  0
   30.9690   29.7490   34.8900 H   0  0  0  0  0  0  0  0  0  0  0  0
   33.8880   32.3440   36.7660 H   0  0  0  0  0  0  0  0  0  0  0  0
  1  2  2  0  0  0  0
  1  6  1  0  0  0  0
  2  3  1  0  0  0  0
  3 19  1  0  0  0  0
  3  4  2  0  0  0  0
  5  4  1  0  0  0  0
  5  9  1  0  0  0  0
  6  5  2  0  0  0  0
  7  1  1  0  0  0  0
  8  2  1  0  0  0  0
  9 10  1  0  0  0  0
  9 16  1  0  0  0  0
 10 12  1  0  0  0  0
 10 11  1  0  0  0  0
 12 14  1  0  0  0  0
 13 12  1  0  0  0  0
 14 15  1  0  0  0  0
 16 15  1  0  0  0  0
 18 17  1  0  0  0  0
 18 24  1  0  0  0  0
 19 18  2  0  0  0  0
 20 19  1  0  0  0  0
 20 21  2  0  0  0  0
 21 22  1  0  0  0  0
 22 24  2  0  0  0  0
 22 23  1  0  0  0  0
 24 27  1  0  0  0  0
 25 20  1  0  0  0  0
 26 21  1  0  0  0  0
M  END
>  <minimizedAffinity>
-5.07640409

$$$$

 OpenBabel03262522543D

 27 29  0  0  0  0  0  0  0  0999 V2000
   37.5200   22.7960   32.7690 C   0  0  0  0  0  0  0  0  0  0  0  0
   37.3180   24.0110   32.1050 C   0  0  0  0  0  0  0  0  0  0  0  0
   37.5410   25.2380   32.7170 C   0  0  0  0  0  0  0  0  0  0  0  0
   37.9660   25.1820   33.9970 N   0  0  0  0  0  0  0  0  0  0  0  0
   38.1640   24.0260   34.6470 C   0  0  0  0  0  0  0  0  0  0  0  0
   37.9420   22.8480   34.0350 N   0  0  0  0  0  0  0  0  0  0  0  0
   37.3450   21.8440   32.2880 H   0  0  0  0  0  0  0  0  0  0  0  0
   36.9790   23.9760   31.0860 H   0  0  0  0  0  0  0  0  0  0  0  0
   38.6180   24.0090   36.0110 N   0  0  0  0  0  0  0  0  0  0  0  0
   39.8640   23.3630   36.3770 C   0  0  0  0  0  3  0  0  0  0  0  0
   40.6530   24.1670   36.3630 H   0  0  0  0  0  0  0  0  0  0  0  0
   39.8310   22.7780   37.7600 C   0  0  0  0  0  3  0  0  0  0  0  0
   39.9690   21.6710   37.6630 H   0  0  0  0  0  0  0  0  0  0  0  0
   38.6420   22.9800   38.4190 O   0  0  0  0  0  0  0  0  0  0  0  0
   38.2330   24.3110   38.4000 C   0  0  0  0  0  2  0  0  0  0  0  0
   37.7980   24.6550   37.0170 C   0  0  0  0  0  2  0  0  0  0  0  0
   39.9270   26.1810   31.2560 Cl  0  0  0  0  0  0  0  0  0  0  0  0
   38.3960   27.0250   31.3110 C   0  0  0  0  0  0  0  0  0  0  0  0
   37.3310   26.4980   32.0280 C   0  0  0  0  0  0  0  0  0  0  0  0
   36.1550   27.2220   32.0250 C   0  0  0  0  0  0  0  0  0  0  0  0
   36.0160   28.4130   31.3520 C   0  0  0  0  0  0  0  0  0  0  0  0
   37.1170   28.9010   30.6450 C   0  0  0  0  0  0  0  0  0  0  0  0
   36.9180   30.4200   29.7940 Cl  0  0  0  0  0  0  0  0  0  0  0  0
   38.3140   28.2240   30.6130 C   0  0  0  0  0  0  0  0  0  0  0  0
   35.3280   26.8070   32.5850 H   0  0  0  0  0  0  0  0  0  0  0  0
   35.0530   28.8970   31.4160 H   0  0  0  0  0  0  0  0  0  0  0  0
   39.1580   28.6210   30.0570 H   0  0  0  0  0  0  0  0  0  0  0  0
  1  6  1  0  0  0  0
  2  3  1  0  0  0  0
  2  1  2  0  0  0  0
  3  4  2  0  0  0  0
  4  5  1  0  0  0  0
  5  9  1  0  0  0  0
  6  5  2  0  0  0  0
  7  1  1  0  0  0  0
  8  2  1  0  0  0  0
  9 10  1  0  0  0  0
  9 16  1  0  0  0  0
 10 12  1  0  0  0  0
 11 10  1  0  0  0  0
 12 14  1  0  0  0  0
 13 12  1  0  0  0  0
 15 14  1  0  0  0  0
 16 15  1  0  0  0  0
 17 18  1  0  0  0  0
 18 19  1  0  0  0  0
 19  3  1  0  0  0  0
 20 19  2  0  0  0  0
 20 25  1  0  0  0  0
 21 26  1  0  0  0  0
 21 20  1  0  0  0  0
 22 21  2  0  0  0  0
 23 22  1  0  0  0  0
 24 22  1  0  0  0  0
 24 18  2  0  0  0  0
 27 24  1  0  0  0  0
M  END
>  <minimizedAffinity>
-5.01108789

$$$$

 OpenBabel03262522543D

 27 29  0  0  0  0  0  0  0  0999 V2000
   36.6870   30.0240   30.5090 C   0  0  0  0  0  0  0  0  0  0  0  0
   36.6600   28.6250   30.5260 C   0  0  0  0  0  0  0  0  0  0  0  0
   36.1510   27.9050   31.6000 C   0  0  0  0  0  0  0  0  0  0  0  0
   35.6840   28.6440   32.6290 N   0  0  0  0  0  0  0  0  0  0  0  0
   35.7030   29.9860   32.6280 C   0  0  0  0  0  0  0  0  0  0  0  0
   36.2010   30.6640   31.5760 N   0  0  0  0  0  0  0  0  0  0  0  0
   37.0830   30.5790   29.6700 H   0  0  0  0  0  0  0  0  0  0  0  0
   37.0490   28.1040   29.6710 H   0  0  0  0  0  0  0  0  0  0  0  0
   35.1970   30.7370   33.7420 N   0  0  0  0  0  0  0  0  0  0  0  0
   34.0990   31.6710   33.5780 C   0  0  0  0  0  3  0  0  0  0  0  0
   33.1590   31.1010   33.8260 H   0  0  0  0  0  0  0  0  0  0  0  0
   34.1860   32.8410   34.5170 C   0  0  0  0  0  3  0  0  0  0  0  0
   34.2920   33.7660   33.8960 H   0  0  0  0  0  0  0  0  0  0  0  0
   35.2710   32.7960   35.3590 O   0  0  0  0  0  0  0  0  0  0  0  0
   35.3890   31.5780   36.0240 C   0  0  0  0  0  2  0  0  0  0  0  0
   35.8100   30.5400   35.0410 C   0  0  0  0  0  2  0  0  0  0  0  0
   38.4660   26.7090   32.9890 Cl  0  0  0  0  0  0  0  0  0  0  0  0
   37.1700   25.7970   32.2490 C   0  0  0  0  0  0  0  0  0  0  0  0
   36.1230   26.4550   31.6180 C   0  0  0  0  0  0  0  0  0  0  0  0
   35.1360   25.6660   31.0570 C   0  0  0  0  0  0  0  0  0  0  0  0
   35.1630   24.2920   31.1070 C   0  0  0  0  0  0  0  0  0  0  0  0
   36.2390   23.6790   31.7530 C   0  0  0  0  0  0  0  0  0  0  0  0
   36.2540   21.9270   31.8040 Cl  0  0  0  0  0  0  0  0  0  0  0  0
   37.2500   24.4110   32.3290 C   0  0  0  0  0  0  0  0  0  0  0  0
   34.3230   26.1830   30.5660 H   0  0  0  0  0  0  0  0  0  0  0  0
   34.3420   23.7740   30.6350 H   0  0  0  0  0  0  0  0  0  0  0  0
   38.0770   23.9150   32.8280 H   0  0  0  0  0  0  0  0  0  0  0  0
  1  2  2  0  0  0  0
  1  6  1  0  0  0  0
  2  3  1  0  0  0  0
  3 19  1  0  0  0  0
  3  4  2  0  0  0  0
  5  4  1  0  0  0  0
  5  9  1  0  0  0  0
  6  5  2  0  0  0  0
  7  1  1  0  0  0  0
  8  2  1  0  0  0  0
  9 16  1  0  0  0  0
 10  9  1  0  0  0  0
 10 11  1  0  0  0  0
 10 12  1  0  0  0  0
 12 14  1  0  0  0  0
 13 12  1  0  0  0  0
 14 15  1  0  0  0  0
 16 15  1  0  0  0  0
 18 24  1  0  0  0  0
 18 17  1  0  0  0  0
 19 18  2  0  0  0  0
 20 21  2  0  0  0  0
 20 19  1  0  0  0  0
 21 22  1  0  0  0  0
 22 23  1  0  0  0  0
 22 24  2  0  0  0  0
 24 27  1  0  0  0  0
 25 20  1  0  0  0  0
 26 21  1  0  0  0  0
M  END
>  <minimizedAffinity>
-5.00485754

$$$$

 OpenBabel03262522543D

 27 29  0  0  0  0  0  0  0  0999 V2000
   38.1190   27.2210   35.7310 C   0  0  0  0  0  0  0  0  0  0  0  0
   38.9680   26.1950   36.1620 C   0  0  0  0  0  0  0  0  0  0  0  0
   39.2580   25.0890   35.3730 C   0  0  0  0  0  0  0  0  0  0  0  0
   38.6660   25.0690   34.1590 N   0  0  0  0  0  0  0  0  0  0  0  0
   37.8500   26.0440   33.7320 C   0  0  0  0  0  0  0  0  0  0  0  0
   37.5830   27.1070   34.5140 N   0  0  0  0  0  0  0  0  0  0  0  0
   37.8970   28.0790   36.3500 H   0  0  0  0  0  0  0  0  0  0  0  0
   39.4030   26.2810   37.1410 H   0  0  0  0  0  0  0  0  0  0  0  0
   37.2390   25.9850   32.4330 N   0  0  0  0  0  0  0  0  0  0  0  0
   37.4810   27.0180   31.4440 C   0  0  0  0  0  3  0  0  0  0  0  0
   38.3370   26.6520   30.8080 H   0  0  0  0  0  0  0  0  0  0  0  0
   36.3030   27.2450   30.5400 C   0  0  0  0  0  3  0  0  0  0  0  0
   35.9560   28.2980   30.6940 H   0  0  0  0  0  0  0  0  0  0  0  0
   35.2340   26.4250   30.8070 O   0  0  0  0  0  0  0  0  0  0  0  0
   35.5880   25.0810   30.8810 C   0  0  0  0  0  2  0  0  0  0  0  0
   36.3700   24.8640   32.1310 C   0  0  0  0  0  2  0  0  0  0  0  0
   37.9010   23.0820   37.0590 Cl  0  0  0  0  0  0  0  0  0  0  0  0
   39.5930   23.0310   36.6190 C   0  0  0  0  0  0  0  0  0  0  0  0
   40.1380   24.0260   35.8190 C   0  0  0  0  0  0  0  0  0  0  0  0
   41.4820   23.9190   35.5150 C   0  0  0  0  0  0  0  0  0  0  0  0
   42.2670   22.8850   35.9680 C   0  0  0  0  0  0  0  0  0  0  0  0
   41.6700   21.9090   36.7700 C   0  0  0  0  0  0  0  0  0  0  0  0
   42.6890   20.6010   37.3370 Cl  0  0  0  0  0  0  0  0  0  0  0  0
   40.3380   21.9640   37.1060 C   0  0  0  0  0  0  0  0  0  0  0  0
   41.9020   24.6960   34.8910 H   0  0  0  0  0  0  0  0  0  0  0  0
   43.3050   22.8980   35.6700 H   0  0  0  0  0  0  0  0  0  0  0  0
   39.8940   21.1950   37.7310 H   0  0  0  0  0  0  0  0  0  0  0  0
  1  2  1  0  0  0  0
  1  7  1  0  0  0  0
  2  8  1  0  0  0  0
  3 19  1  0  0  0  0
  3  2  2  0  0  0  0
  4  3  1  0  0  0  0
  5  4  2  0  0  0  0
  5  6  1  0  0  0  0
  6  1  2  0  0  0  0
  9  5  1  0  0  0  0
 10  9  1  0  0  0  0
 11 10  1  0  0  0  0
 12 13  1  0  0  0  0
 12 14  1  0  0  0  0
 12 10  1  0  0  0  0
 14 15  1  0  0  0  0
 15 16  1  0  0  0  0
 16  9  1  0  0  0  0
 18 17  1  0  0  0  0
 18 24  1  0  0  0  0
 19 18  2  0  0  0  0
 20 19  1  0  0  0  0
 20 21  2  0  0  0  0
 21 22  1  0  0  0  0
 22 24  2  0  0  0  0
 22 23  1  0  0  0  0
 24 27  1  0  0  0  0
 25 20  1  0  0  0  0
 26 21  1  0  0  0  0
M  END
>  <minimizedAffinity>
-4.99722672

$$$$

 OpenBabel03262522543D

 27 29  0  0  0  0  0  0  0  0999 V2000
   38.3950   23.3730   37.4660 C   0  0  0  0  0  0  0  0  0  0  0  0
   37.7790   24.3760   36.7090 C   0  0  0  0  0  0  0  0  0  0  0  0
   38.3930   24.9590   35.6080 C   0  0  0  0  0  0  0  0  0  0  0  0
   39.6270   24.4930   35.3140 N   0  0  0  0  0  0  0  0  0  0  0  0
   40.2300   23.5320   36.0300 C   0  0  0  0  0  0  0  0  0  0  0  0
   39.6160   22.9810   37.0940 N   0  0  0  0  0  0  0  0  0  0  0  0
   37.9110   22.9220   38.3220 H   0  0  0  0  0  0  0  0  0  0  0  0
   36.7960   24.6950   37.0020 H   0  0  0  0  0  0  0  0  0  0  0  0
   41.5440   23.0630   35.6860 N   0  0  0  0  0  0  0  0  0  0  0  0
   41.7770   21.6730   35.3440 C   0  0  0  0  0  3  0  0  0  0  0  0
   41.7060   21.6070   34.2210 H   0  0  0  0  0  0  0  0  0  0  0  0
   43.1440   21.1970   35.7450 C   0  0  0  0  0  3  0  0  0  0  0  0
   43.0110   20.3790   36.4970 H   0  0  0  0  0  0  0  0  0  0  0  0
   43.9160   22.1670   36.3390 O   0  0  0  0  0  0  0  0  0  0  0  0
   43.9650   23.3460   35.6000 C   0  0  0  0  0  2  0  0  0  0  0  0
   42.6370   24.0160   35.6860 C   0  0  0  0  0  2  0  0  0  0  0  0
   37.6470   24.0780   32.8910 Cl  0  0  0  0  0  0  0  0  0  0  0  0
   37.3660   25.6820   33.5290 C   0  0  0  0  0  0  0  0  0  0  0  0
   37.7550   25.9980   34.8230 C   0  0  0  0  0  0  0  0  0  0  0  0
   37.5010   27.2860   35.2560 C   0  0  0  0  0  0  0  0  0  0  0  0
   36.8900   28.2300   34.4650 C   0  0  0  0  0  0  0  0  0  0  0  0
   36.5180   27.8610   33.1700 C   0  0  0  0  0  0  0  0  0  0  0  0
   35.7420   29.0800   32.1780 Cl  0  0  0  0  0  0  0  0  0  0  0  0
   36.7460   26.5960   32.6840 C   0  0  0  0  0  0  0  0  0  0  0  0
   37.8050   27.5270   36.2650 H   0  0  0  0  0  0  0  0  0  0  0  0
   36.7390   29.2050   34.9030 H   0  0  0  0  0  0  0  0  0  0  0  0
   36.4480   26.3290   31.6740 H   0  0  0  0  0  0  0  0  0  0  0  0
  1  7  1  0  0  0  0
  2  8  1  0  0  0  0
  2  1  2  0  0  0  0
  3  2  1  0  0  0  0
  4  3  2  0  0  0  0
  4  5  1  0  0  0  0
  5  6  2  0  0  0  0
  6  1  1  0  0  0  0
  9 16  1  0  0  0  0
  9  5  1  0  0  0  0
 10  9  1  0  0  0  0
 10 12  1  0  0  0  0
 11 10  1  0  0  0  0
 12 14  1  0  0  0  0
 12 13  1  0  0  0  0
 15 16  1  0  0  0  0
 15 14  1  0  0  0  0
 17 18  1  0  0  0  0
 18 19  1  0  0  0  0
 19 20  2  0  0  0  0
 19  3  1  0  0  0  0
 20 25  1  0  0  0  0
 21 26  1  0  0  0  0
 21 20  1  0  0  0  0
 22 21  2  0  0  0  0
 23 22  1  0  0  0  0
 24 22  1  0  0  0  0
 24 18  2  0  0  0  0
 27 24  1  0  0  0  0
M  END
>  <minimizedAffinity>
-4.95115948

$$$$

 OpenBabel03262522543D

 27 29  0  0  0  0  0  0  0  0999 V2000
   39.5640   25.8000   32.4150 C   0  0  0  0  0  0  0  0  0  0  0  0
   38.7980   26.9460   32.6570 C   0  0  0  0  0  0  0  0  0  0  0  0
   37.4170   26.9000   32.8000 C   0  0  0  0  0  0  0  0  0  0  0  0
   36.8600   25.6740   32.6900 N   0  0  0  0  0  0  0  0  0  0  0  0
   37.5800   24.5670   32.4590 C   0  0  0  0  0  0  0  0  0  0  0  0
   38.9180   24.6340   32.3240 N   0  0  0  0  0  0  0  0  0  0  0  0
   40.6380   25.8410   32.3050 H   0  0  0  0  0  0  0  0  0  0  0  0
   39.3110   27.8860   32.7320 H   0  0  0  0  0  0  0  0  0  0  0  0
   36.9500   23.2800   32.3500 N   0  0  0  0  0  0  0  0  0  0  0  0
   37.2900   22.2000   33.2560 C   0  0  0  0  0  3  0  0  0  0  0  0
   36.5400   22.2440   34.0960 H   0  0  0  0  0  0  0  0  0  0  0  0
   37.1810   20.8460   32.6140 C   0  0  0  0  0  3  0  0  0  0  0  0
   38.2010   20.3850   32.6200 H   0  0  0  0  0  0  0  0  0  0  0  0
   36.7640   20.8860   31.3050 O   0  0  0  0  0  0  0  0  0  0  0  0
   35.6120   21.6470   31.1270 C   0  0  0  0  0  2  0  0  0  0  0  0
   35.9610   23.0850   31.3080 C   0  0  0  0  0  2  0  0  0  0  0  0
   36.6110   28.3070   30.3330 Cl  0  0  0  0  0  0  0  0  0  0  0  0
   36.1940   28.8200   31.9520 C   0  0  0  0  0  0  0  0  0  0  0  0
   36.6230   28.0880   33.0500 C   0  0  0  0  0  0  0  0  0  0  0  0
   36.2550   28.5560   34.2970 C   0  0  0  0  0  0  0  0  0  0  0  0
   35.4980   29.6910   34.4720 C   0  0  0  0  0  0  0  0  0  0  0  0
   35.0920   30.3920   33.3350 C   0  0  0  0  0  0  0  0  0  0  0  0
   34.1300   31.8360   33.5810 Cl  0  0  0  0  0  0  0  0  0  0  0  0
   35.4290   29.9750   32.0690 C   0  0  0  0  0  0  0  0  0  0  0  0
   36.5910   27.9820   35.1500 H   0  0  0  0  0  0  0  0  0  0  0  0
   35.2680   29.9680   35.4900 H   0  0  0  0  0  0  0  0  0  0  0  0
   35.1030   30.5350   31.1970 H   0  0  0  0  0  0  0  0  0  0  0  0
  1  2  1  0  0  0  0
  2  8  1  0  0  0  0
  2  3  2  0  0  0  0
  3 19  1  0  0  0  0
  4  3  1  0  0  0  0
  5  4  2  0  0  0  0
  6  1  2  0  0  0  0
  6  5  1  0  0  0  0
  7  1  1  0  0  0  0
  9  5  1  0  0  0  0
  9 10  1  0  0  0  0
 10 11  1  0  0  0  0
 12 13  1  0  0  0  0
 12 10  1  0  0  0  0
 14 12  1  0  0  0  0
 15 14  1  0  0  0  0
 15 16  1  0  0  0  0
 16  9  1  0  0  0  0
 17 18  1  0  0  0  0
 18 24  2  0  0  0  0
 18 19  1  0  0  0  0
 19 20  2  0  0  0  0
 20 21  1  0  0  0  0
 20 25  1  0  0  0  0
 21 26  1  0  0  0  0
 22 23  1  0  0  0  0
 22 21  2  0  0  0  0
 24 22  1  0  0  0  0
 27 24  1  0  0  0  0
M  END
>  <minimizedAffinity>
-4.94688272

$$$$

 OpenBabel03262522543D

 27 29  0  0  0  0  0  0  0  0999 V2000
   36.1050   28.0490   32.0170 C   0  0  0  0  0  0  0  0  0  0  0  0
   36.9140   27.0870   32.6320 C   0  0  0  0  0  0  0  0  0  0  0  0
   37.1860   27.1060   33.9950 C   0  0  0  0  0  0  0  0  0  0  0  0
   36.6170   28.1150   34.6890 N   0  0  0  0  0  0  0  0  0  0  0  0
   35.8390   29.0440   34.1140 C   0  0  0  0  0  0  0  0  0  0  0  0
   35.5890   29.0070   32.7910 N   0  0  0  0  0  0  0  0  0  0  0  0
   35.8970   28.0300   30.9560 H   0  0  0  0  0  0  0  0  0  0  0  0
   37.3330   26.3140   32.0150 H   0  0  0  0  0  0  0  0  0  0  0  0
   35.2510   30.1030   34.8870 N   0  0  0  0  0  0  0  0  0  0  0  0
   33.8110   30.2680   34.9580 C   0  0  0  0  0  3  0  0  0  0  0  0
   33.4750   29.7140   35.8800 H   0  0  0  0  0  0  0  0  0  0  0  0
   33.3980   31.7040   35.1090 C   0  0  0  0  0  3  0  0  0  0  0  0
   32.7940   31.9800   34.2080 H   0  0  0  0  0  0  0  0  0  0  0  0
   34.4540   32.5810   35.1700 O   0  0  0  0  0  0  0  0  0  0  0  0
   35.4130   32.2080   36.1080 C   0  0  0  0  0  2  0  0  0  0  0  0
   36.1330   31.0070   35.5990 C   0  0  0  0  0  2  0  0  0  0  0  0
   40.0100   27.2410   33.1470 Cl  0  0  0  0  0  0  0  0  0  0  0  0
   39.3720   26.0910   34.2990 C   0  0  0  0  0  0  0  0  0  0  0  0
   38.0240   26.1090   34.6320 C   0  0  0  0  0  0  0  0  0  0  0  0
   37.5940   25.1690   35.5490 C   0  0  0  0  0  0  0  0  0  0  0  0
   38.4380   24.2470   36.1220 C   0  0  0  0  0  0  0  0  0  0  0  0
   39.7850   24.2710   35.7530 C   0  0  0  0  0  0  0  0  0  0  0  0
   40.8440   23.0870   36.4950 Cl  0  0  0  0  0  0  0  0  0  0  0  0
   40.2710   25.1820   34.8450 C   0  0  0  0  0  0  0  0  0  0  0  0
   36.5440   25.1870   35.8060 H   0  0  0  0  0  0  0  0  0  0  0  0
   37.9980   23.5580   36.8270 H   0  0  0  0  0  0  0  0  0  0  0  0
   41.3220   25.1840   34.5720 H   0  0  0  0  0  0  0  0  0  0  0  0
  1  2  2  0  0  0  0
  1  6  1  0  0  0  0
  2  3  1  0  0  0  0
  3 19  1  0  0  0  0
  3  4  2  0  0  0  0
  5  4  1  0  0  0  0
  5  9  1  0  0  0  0
  6  5  2  0  0  0  0
  7  1  1  0  0  0  0
  8  2  1  0  0  0  0
  9 10  1  0  0  0  0
  9 16  1  0  0  0  0
 10 12  1  0  0  0  0
 10 11  1  0  0  0  0
 12 14  1  0  0  0  0
 13 12  1  0  0  0  0
 14 15  1  0  0  0  0
 16 15  1  0  0  0  0
 17 18  1  0  0  0  0
 18 19  2  0  0  0  0
 18 24  1  0  0  0  0
 19 20  1  0  0  0  0
 20 25  1  0  0  0  0
 20 21  2  0  0  0  0
 21 26  1  0  0  0  0
 22 21  1  0  0  0  0
 22 23  1  0  0  0  0
 24 22  2  0  0  0  0
 27 24  1  0  0  0  0
M  END
>  <minimizedAffinity>
-4.94468212

$$$$
