
 OpenBabel03272501183D

 29 31  0  0  1  0  0  0  0  0999 V2000
   37.8060   31.1320   47.8790 C   0  0  0  0  0  0  0  0  0  0  0  0
   36.7960   31.0970   48.8190 C   0  0  0  0  0  0  0  0  0  0  0  0
   36.8340   32.1300   49.7490 C   0  0  0  0  0  0  0  0  0  0  0  0
   37.8320   33.1100   49.7050 C   0  0  0  0  0  0  0  0  0  0  0  0
   38.8040   33.0580   48.7210 C   0  0  0  0  0  0  0  0  0  0  0  0
   38.8020   32.0540   47.7820 C   0  0  0  0  0  0  0  0  0  0  0  0
   36.0610   32.1400   50.5030 H   0  0  0  0  0  0  0  0  0  0  0  0
   37.7470   33.8490   50.4790 H   0  0  0  0  0  0  0  0  0  0  0  0
   39.4870   33.8790   48.8310 H   0  0  0  0  0  0  0  0  0  0  0  0
   34.6670   30.1700   47.9980 C   0  0  0  0  0  0  0  0  0  0  0  0
   35.7760   30.0950   48.8600 C   0  0  0  0  0  0  0  0  0  0  0  0
   35.8150   29.0130   49.7300 C   0  0  0  0  0  0  0  0  0  0  0  0
   34.8090   28.0990   49.7130 N   0  0  0  0  0  0  0  0  0  0  0  0
   33.7570   28.2240   48.8540 C   0  0  0  0  0  0  0  0  0  0  0  0
   33.6810   29.2700   47.9850 N   0  0  0  0  0  0  0  0  0  0  0  0
   34.6530   31.0220   47.3250 H   0  0  0  0  0  0  0  0  0  0  0  0
   36.6270   28.9010   50.4050 H   0  0  0  0  0  0  0  0  0  0  0  0
   32.9620   27.5160   48.8290 H   0  0  0  0  0  0  0  0  0  0  0  0
   37.8460   30.1230   46.8970 O   0  0  0  0  0  0  0  0  0  0  0  0
   37.3100   30.2200   46.0360 H   0  0  0  0  0  0  0  0  0  0  0  0
   39.7740   32.0290   46.8200 O   0  0  0  0  0  0  0  0  0  0  0  0
   41.3420   33.2110   44.3470 H   0  0  0  0  0  0  0  0  0  0  0  0
   41.0430   32.4480   44.9660 N   0  0  0  0  0  0  0  0  0  0  0  0
   39.8700   32.8860   45.7510 C   0  0  1  0  0  0  0  0  0  0  0  0
   38.6590   32.7770   44.8410 C   0  0  0  0  0  0  0  0  0  0  0  0
   38.1000   31.8320   44.9840 H   0  0  0  0  0  0  0  0  0  0  0  0
   39.0950   32.9550   43.5360 O   0  0  0  0  0  0  0  0  0  0  0  0
   39.7680   31.8390   43.0490 C   0  0  0  0  0  0  0  0  0  0  0  0
   40.6420   31.3140   44.1800 C   0  0  0  0  0  0  0  0  0  0  0  0
  1  2  1  0  0  0  0
  2 11  1  0  0  0  0
  2  3  2  0  0  0  0
  3  7  1  0  0  0  0
  4  3  1  0  0  0  0
  4  8  1  0  0  0  0
  5  9  1  0  0  0  0
  5  4  2  0  0  0  0
  6  1  2  0  0  0  0
  6  5  1  0  0  0  0
 10 11  1  0  0  0  0
 11 12  2  0  0  0  0
 12 17  1  0  0  0  0
 13 12  1  0  0  0  0
 14 13  2  0  0  0  0
 15 10  2  0  0  0  0
 15 14  1  0  0  0  0
 16 10  1  0  0  0  0
 18 14  1  0  0  0  0
 19  1  1  0  0  0  0
 20 19  1  0  0  0  0
 21  6  1  0  0  0  0
 22 23  1  0  0  0  0
 23 24  1  0  0  0  0
 24 21  1  1  0  0  0
 25 26  1  0  0  0  0
 25 24  1  0  0  0  0
 27 25  1  0  0  0  0
 28 27  1  0  0  0  0
 28 29  1  0  0  0  0
 29 23  1  0  0  0  0
M  END
>  <minimizedAffinity>
-6.25971889

>  <minimizedRMSD>
2.09190011

$$$$
