
 OpenBabel03262522543D

 27 29  0  0  0  0  0  0  0  0999 V2000
   35.4610   29.1520   51.0420 C   0  0  0  0  0  0  0  0  0  0  0  0
   36.3940   29.8880   50.3030 C   0  0  0  0  0  0  0  0  0  0  0  0
   36.3690   29.9390   48.9150 C   0  0  0  0  0  0  0  0  0  0  0  0
   35.3830   29.2290   48.3230 N   0  0  0  0  0  0  0  0  0  0  0  0
   34.4820   28.5190   49.0180 C   0  0  0  0  0  0  0  0  0  0  0  0
   34.5240   28.4840   50.3640 N   0  0  0  0  0  0  0  0  0  0  0  0
   35.4850   29.1170   52.1220 H   0  0  0  0  0  0  0  0  0  0  0  0
   37.1490   30.4290   50.8430 H   0  0  0  0  0  0  0  0  0  0  0  0
   33.4480   27.7770   48.3520 N   0  0  0  0  0  0  0  0  0  0  0  0
   32.0460   28.0600   48.5970 C   0  0  0  0  0  0  0  0  0  0  0  0
   31.7260   28.7870   47.7970 H   0  0  0  0  0  0  0  0  0  0  0  0
   31.1780   26.8400   48.4810 C   0  0  0  0  0  0  0  0  0  0  0  0
   30.7100   26.6610   49.4820 H   0  0  0  0  0  0  0  0  0  0  0  0
   31.8670   25.6980   48.1500 O   0  0  0  0  0  0  0  0  0  0  0  0
   32.6890   25.8670   47.0380 C   0  0  0  0  0  0  0  0  0  0  0  0
   33.8380   26.7330   47.4240 C   0  0  0  0  0  0  0  0  0  0  0  0
   36.9830   32.5710   50.1010 Cl  0  0  0  0  0  0  0  0  0  0  0  0
   37.6910   31.9560   48.6250 C   0  0  0  0  0  0  0  0  0  0  0  0
   37.3350   30.7010   48.1480 C   0  0  0  0  0  0  0  0  0  0  0  0
   37.9360   30.2840   46.9760 C   0  0  0  0  0  0  0  0  0  0  0  0
   38.8480   31.0530   46.2920 C   0  0  0  0  0  0  0  0  0  0  0  0
   39.1720   32.3080   46.8140 C   0  0  0  0  0  0  0  0  0  0  0  0
   40.3370   33.2720   45.9270 Cl  0  0  0  0  0  0  0  0  0  0  0  0
   38.6060   32.7770   47.9760 C   0  0  0  0  0  0  0  0  0  0  0  0
   37.6560   29.3070   46.6080 H   0  0  0  0  0  0  0  0  0  0  0  0
   39.2570   30.6310   45.3860 H   0  0  0  0  0  0  0  0  0  0  0  0
   38.8720   33.7550   48.3650 H   0  0  0  0  0  0  0  0  0  0  0  0
  1  7  1  0  0  0  0
  2  8  1  0  0  0  0
  2  1  2  0  0  0  0
  3  2  1  0  0  0  0
  4  3  2  0  0  0  0
  4  5  1  0  0  0  0
  5  6  2  0  0  0  0
  6  1  1  0  0  0  0
  9 10  1  0  0  0  0
  9  5  1  0  0  0  0
 11 10  1  0  0  0  0
 12 10  1  0  0  0  0
 12 13  1  0  0  0  0
 14 12  1  0  0  0  0
 15 16  1  0  0  0  0
 15 14  1  0  0  0  0
 16  9  1  0  0  0  0
 18 17  1  0  0  0  0
 19 18  1  0  0  0  0
 19  3  1  0  0  0  0
 20 19  2  0  0  0  0
 21 22  2  0  0  0  0
 21 20  1  0  0  0  0
 22 24  1  0  0  0  0
 23 22  1  0  0  0  0
 24 27  1  0  0  0  0
 24 18  2  0  0  0  0
 25 20  1  0  0  0  0
 26 21  1  0  0  0  0
M  END
>  <minimizedAffinity>
-6.10916471

>  <minimizedRMSD>
2.22980118

$$$$
