
 OpenBabel03262523013D

 25 27  0  0  0  0  0  0  0  0999 V2000
   35.9050   30.1930   48.6550 C   0  0  0  0  0  0  0  0  0  0  0  0
   35.9070   29.2350   49.6040 C   0  0  0  0  0  0  0  0  0  0  0  0
   34.9150   28.2990   49.6440 C   0  0  0  0  0  0  0  0  0  0  0  0
   33.9220   28.3470   48.7100 N   0  0  0  0  0  0  0  0  0  0  0  0
   33.9410   29.3040   47.7800 C   0  0  0  0  0  0  0  0  0  0  0  0
   34.9190   30.2400   47.7300 N   0  0  0  0  0  0  0  0  0  0  0  0
   36.7210   29.2240   50.3410 H   0  0  0  0  0  0  0  0  0  0  0  0
   34.9160   27.5290   50.4050 H   0  0  0  0  0  0  0  0  0  0  0  0
   32.9070   29.3800   46.7830 N   0  0  0  0  0  0  0  0  0  0  0  0
   32.7150   30.5660   45.9710 C   0  0  0  0  0  0  0  0  0  0  0  0
   32.5850   31.4300   46.6710 H   0  0  0  0  0  0  0  0  0  0  0  0
   31.4140   30.4140   45.2350 C   0  0  0  0  0  0  0  0  0  0  0  0
   31.0900   31.4210   44.8650 H   0  0  0  0  0  0  0  0  0  0  0  0
   30.4440   29.9830   46.1200 O   0  0  0  0  0  0  0  0  0  0  0  0
   30.5940   28.6240   46.4330 C   0  0  0  0  0  0  0  0  0  0  0  0
   32.0310   28.2350   46.5850 C   0  0  0  0  0  0  0  0  0  0  0  0
   38.0580   33.0650   49.4470 C   0  0  0  0  0  0  0  0  0  0  0  0
   38.9370   33.1160   48.3450 C   0  0  0  0  0  0  0  0  0  0  0  0
   38.7660   32.1460   47.3410 C   0  0  0  0  0  0  0  0  0  0  0  0
   37.7690   31.2280   47.4950 N   0  0  0  0  0  0  0  0  0  0  0  0
   36.9480   31.2190   48.5740 C   0  0  0  0  0  0  0  0  0  0  0  0
   37.1050   32.1410   49.5390 N   0  0  0  0  0  0  0  0  0  0  0  0
   38.1680   33.8060   50.2410 H   0  0  0  0  0  0  0  0  0  0  0  0
   39.6990   33.8560   48.2750 H   0  0  0  0  0  0  0  0  0  0  0  0
   39.4130   32.1320   46.4640 H   0  0  0  0  0  0  0  0  0  0  0  0
  1  2  1  0  0  0  0
  2  3  2  0  0  0  0
  2  7  1  0  0  0  0
  3  8  1  0  0  0  0
  4  3  1  0  0  0  0
  5  4  2  0  0  0  0
  6  5  1  0  0  0  0
  6  1  2  0  0  0  0
  9  5  1  0  0  0  0
 10 11  1  0  0  0  0
 10  9  1  0  0  0  0
 12 10  1  0  0  0  0
 12 14  1  0  0  0  0
 13 12  1  0  0  0  0
 14 15  1  0  0  0  0
 15 16  1  0  0  0  0
 16  9  1  0  0  0  0
 17 22  1  0  0  0  0
 17 23  1  0  0  0  0
 18 17  2  0  0  0  0
 19 20  2  0  0  0  0
 19 18  1  0  0  0  0
 20 21  1  0  0  0  0
 21  1  1  0  0  0  0
 21 22  2  0  0  0  0
 24 18  1  0  0  0  0
 25 19  1  0  0  0  0
M  END
>  <minimizedAffinity>
-5.37751722

>  <minimizedRMSD>
0.131011724

$$$$
