
 OpenBabel03272510003D

 20 21  0  0  0  0  0  0  0  0999 V2000
   38.4470   32.9840   49.3660 C   0  0  0  0  0  0  0  0  0  0  0  0
   39.0920   33.0360   48.1230 C   0  0  0  0  0  0  0  0  0  0  0  0
   38.6330   32.2110   47.1050 C   0  0  0  0  0  0  0  0  0  0  0  0
   37.5740   31.3910   47.3740 N   0  0  0  0  0  0  0  0  0  0  0  0
   36.9710   31.3600   48.5780 C   0  0  0  0  0  0  0  0  0  0  0  0
   37.4120   32.1520   49.5550 N   0  0  0  0  0  0  0  0  0  0  0  0
   38.8510   33.6500   50.1160 H   0  0  0  0  0  0  0  0  0  0  0  0
   39.9270   33.6810   47.9110 H   0  0  0  0  0  0  0  0  0  0  0  0
   39.1860   32.1560   45.7990 N   0  0  0  0  0  0  0  0  0  0  0  0
   38.4630   32.6160   44.6110 C   0  0  0  0  0  3  0  0  0  0  0  0
   37.8610   31.8030   44.2020 H   0  0  0  0  0  0  0  0  0  0  0  0
   39.5470   33.0550   43.6380 C   0  0  0  0  0  3  0  0  0  0  0  0
   39.1430   33.5780   42.7480 H   0  0  0  0  0  0  0  0  0  0  0  0
   40.2080   31.9300   43.1770 O   0  0  0  0  0  0  0  0  0  0  0  0
   40.5610   31.0460   44.1740 C   0  0  0  0  0  2  0  0  0  0  0  0
   40.5030   31.6440   45.5560 C   0  0  0  0  0  2  0  0  0  0  0  0
   35.8270   30.4360   48.7730 C   0  0  0  0  0  0  0  0  0  0  0  0
   35.0550   30.7530   49.8760 F   0  0  0  0  0  0  0  0  0  0  0  0
   34.9860   30.4380   47.6700 F   0  0  0  0  0  0  0  0  0  0  0  0
   36.2220   29.1220   48.9330 F   0  0  0  0  0  0  0  0  0  0  0  0
  1  6  1  0  0  0  0
  1  7  1  0  0  0  0
  2  1  2  0  0  0  0
  3  4  2  0  0  0  0
  3  2  1  0  0  0  0
  4  5  1  0  0  0  0
  5 17  1  0  0  0  0
  5  6  2  0  0  0  0
  8  2  1  0  0  0  0
  9  3  1  0  0  0  0
 10  9  1  0  0  0  0
 11 10  1  0  0  0  0
 12 10  1  0  0  0  0
 13 12  1  0  0  0  0
 14 12  1  0  0  0  0
 14 15  1  0  0  0  0
 15 16  1  0  0  0  0
 16  9  1  0  0  0  0
 17 20  1  0  0  0  0
 17 18  1  0  0  0  0
 19 17  1  0  0  0  0
M  END
>  <minimizedAffinity>
-5.44200659

>  <minimizedRMSD>
2.50827742

$$$$
