
 OpenBabel03272510003D

 20 21  0  0  0  0  0  0  0  0999 V2000
   38.2570   31.4240   50.2270 C   0  0  0  0  0  0  0  0  0  0  0  0
   38.5440   31.4490   48.8550 C   0  0  0  0  0  0  0  0  0  0  0  0
   37.7000   30.7640   47.9920 C   0  0  0  0  0  0  0  0  0  0  0  0
   36.6350   30.1000   48.5300 N   0  0  0  0  0  0  0  0  0  0  0  0
   36.3810   30.0910   49.8520 C   0  0  0  0  0  0  0  0  0  0  0  0
   37.1900   30.7500   50.6820 N   0  0  0  0  0  0  0  0  0  0  0  0
   38.9500   31.9770   50.8460 H   0  0  0  0  0  0  0  0  0  0  0  0
   39.3840   31.9710   48.4310 H   0  0  0  0  0  0  0  0  0  0  0  0
   37.8660   30.7000   46.5830 N   0  0  0  0  0  0  0  0  0  0  0  0
   39.1800   30.7480   45.9360 C   0  0  0  0  0  3  0  0  0  0  0  0
   39.4680   31.7830   45.7500 H   0  0  0  0  0  0  0  0  0  0  0  0
   39.0050   29.9730   44.6380 C   0  0  0  0  0  3  0  0  0  0  0  0
   39.9630   29.7870   44.1130 H   0  0  0  0  0  0  0  0  0  0  0  0
   38.2150   30.7200   43.7820 O   0  0  0  0  0  0  0  0  0  0  0  0
   37.0840   31.2360   44.3770 C   0  0  0  0  0  2  0  0  0  0  0  0
   36.7480   30.5860   45.6940 C   0  0  0  0  0  2  0  0  0  0  0  0
   35.1980   29.3420   50.3410 C   0  0  0  0  0  0  0  0  0  0  0  0
   35.2460   29.0770   51.6980 F   0  0  0  0  0  0  0  0  0  0  0  0
   34.0250   30.0440   50.1020 F   0  0  0  0  0  0  0  0  0  0  0  0
   35.0350   28.1260   49.7070 F   0  0  0  0  0  0  0  0  0  0  0  0
  1  6  1  0  0  0  0
  1  7  1  0  0  0  0
  2  1  2  0  0  0  0
  3  4  2  0  0  0  0
  3  2  1  0  0  0  0
  4  5  1  0  0  0  0
  5 17  1  0  0  0  0
  5  6  2  0  0  0  0
  8  2  1  0  0  0  0
  9  3  1  0  0  0  0
 10  9  1  0  0  0  0
 11 10  1  0  0  0  0
 12 10  1  0  0  0  0
 13 12  1  0  0  0  0
 14 15  1  0  0  0  0
 14 12  1  0  0  0  0
 15 16  1  0  0  0  0
 16  9  1  0  0  0  0
 17 18  1  0  0  0  0
 19 17  1  0  0  0  0
 20 17  1  0  0  0  0
M  END
>  <minimizedAffinity>
-5.1269207

>  <minimizedRMSD>
1.12092662

$$$$
