
 OpenBabel03272510293D

 27 29  0  0  0  0  0  0  0  0999 V2000
   37.1520   31.2860   49.2450 C   0  0  0  0  0  0  0  0  0  0  0  0
   37.3700   32.5410   49.8330 C   0  0  0  0  0  0  0  0  0  0  0  0
   38.2970   33.3640   49.2100 C   0  0  0  0  0  0  0  0  0  0  0  0
   38.9300   32.9210   48.0890 N   0  0  0  0  0  0  0  0  0  0  0  0
   38.6860   31.6980   47.5550 C   0  0  0  0  0  0  0  0  0  0  0  0
   37.7750   30.8560   48.1450 N   0  0  0  0  0  0  0  0  0  0  0  0
   36.8790   32.8930   50.7070 H   0  0  0  0  0  0  0  0  0  0  0  0
   38.5710   34.3530   49.5430 H   0  0  0  0  0  0  0  0  0  0  0  0
   36.1290   30.3960   49.8740 C   0  0  0  0  0  0  0  0  0  0  0  0
   36.0860   28.9700   49.6690 C   0  0  0  0  0  0  0  0  0  0  0  0
   36.7100   29.4720   50.9530 C   0  0  0  0  0  0  0  0  0  0  0  0
   35.2060   30.9470   50.1590 H   0  0  0  0  0  0  0  0  0  0  0  0
   36.8450   28.4940   48.9860 H   0  0  0  0  0  0  0  0  0  0  0  0
   35.1340   28.4300   49.6920 H   0  0  0  0  0  0  0  0  0  0  0  0
   36.1510   29.5120   51.8920 H   0  0  0  0  0  0  0  0  0  0  0  0
   37.8100   29.4450   51.0710 H   0  0  0  0  0  0  0  0  0  0  0  0
   39.3420   31.2340   46.3420 C   0  0  0  0  0  0  0  0  0  0  0  0
   40.4640   31.2410   46.4110 H   0  0  0  0  0  0  0  0  0  0  0  0
   39.0190   30.2140   46.1000 H   0  0  0  0  0  0  0  0  0  0  0  0
   38.9970   32.1890   45.2970 N   0  0  0  0  0  0  0  0  0  0  0  0
   40.0330   32.3680   44.3350 C   0  0  0  0  0  3  0  0  0  0  0  0
   40.6950   33.1880   44.7000 H   0  0  0  0  0  0  0  0  0  0  0  0
   39.5510   32.7810   42.9750 C   0  0  0  0  0  3  0  0  0  0  0  0
   40.3520   32.5550   42.2410 H   0  0  0  0  0  0  0  0  0  0  0  0
   38.4010   32.1150   42.5580 O   0  0  0  0  0  0  0  0  0  0  0  0
   37.3920   32.4820   43.4580 C   0  0  0  0  0  2  0  0  0  0  0  0
   37.7210   31.8190   44.7730 C   0  0  0  0  0  2  0  0  0  0  0  0
  1  2  1  0  0  0  0
  1  9  1  0  0  0  0
  2  7  1  0  0  0  0
  3  8  1  0  0  0  0
  3  2  2  0  0  0  0
  4  3  1  0  0  0  0
  5  4  2  0  0  0  0
  5  6  1  0  0  0  0
  6  1  2  0  0  0  0
  9 12  1  0  0  0  0
  9 11  1  0  0  0  0
 10 14  1  0  0  0  0
 10  9  1  0  0  0  0
 10 11  1  0  0  0  0
 11 16  1  0  0  0  0
 11 15  1  0  0  0  0
 13 10  1  0  0  0  0
 17 18  1  0  0  0  0
 17  5  1  0  0  0  0
 19 17  1  0  0  0  0
 20 17  1  0  0  0  0
 21 22  1  0  0  0  0
 21 20  1  0  0  0  0
 23 21  1  0  0  0  0
 24 23  1  0  0  0  0
 25 23  1  0  0  0  0
 25 26  1  0  0  0  0
 26 27  1  0  0  0  0
 27 20  1  0  0  0  0
M  END
>  <minimizedAffinity>
-5.2750206

>  <minimizedRMSD>
1.77676451

$$$$
