
 OpenBabel03272510293D

 27 29  0  0  0  0  0  0  0  0999 V2000
   37.4750   31.4050   48.7350 C   0  0  0  0  0  0  0  0  0  0  0  0
   37.6400   32.6940   49.2640 C   0  0  0  0  0  0  0  0  0  0  0  0
   38.6500   33.4660   48.7080 C   0  0  0  0  0  0  0  0  0  0  0  0
   39.4070   32.9460   47.7040 N   0  0  0  0  0  0  0  0  0  0  0  0
   39.2110   31.6930   47.2240 C   0  0  0  0  0  0  0  0  0  0  0  0
   38.2210   30.8980   47.7500 N   0  0  0  0  0  0  0  0  0  0  0  0
   37.0520   33.1060   50.0460 H   0  0  0  0  0  0  0  0  0  0  0  0
   38.8970   34.4730   49.0080 H   0  0  0  0  0  0  0  0  0  0  0  0
   36.3690   30.5660   49.2890 C   0  0  0  0  0  0  0  0  0  0  0  0
   36.4370   29.1300   49.3890 C   0  0  0  0  0  0  0  0  0  0  0  0
   36.7100   29.9310   50.6440 C   0  0  0  0  0  0  0  0  0  0  0  0
   35.3820   31.0750   49.2320 H   0  0  0  0  0  0  0  0  0  0  0  0
   37.3580   28.6000   49.0150 H   0  0  0  0  0  0  0  0  0  0  0  0
   35.5310   28.5200   49.3090 H   0  0  0  0  0  0  0  0  0  0  0  0
   35.9390   30.1030   51.4000 H   0  0  0  0  0  0  0  0  0  0  0  0
   37.7480   30.0280   51.0130 H   0  0  0  0  0  0  0  0  0  0  0  0
   40.0020   31.1450   46.1330 C   0  0  0  0  0  0  0  0  0  0  0  0
   40.9250   31.7450   45.9060 H   0  0  0  0  0  0  0  0  0  0  0  0
   40.3100   30.1160   46.3620 H   0  0  0  0  0  0  0  0  0  0  0  0
   39.1680   31.2210   44.9400 N   0  0  0  0  0  0  0  0  0  0  0  0
   38.5040   29.9960   44.6400 C   0  0  0  0  0  3  0  0  0  0  0  0
   39.1790   29.3980   43.9850 H   0  0  0  0  0  0  0  0  0  0  0  0
   37.2140   30.1600   43.8910 C   0  0  0  0  0  3  0  0  0  0  0  0
   36.6220   29.2290   44.0140 H   0  0  0  0  0  0  0  0  0  0  0  0
   36.4300   31.2180   44.3410 O   0  0  0  0  0  0  0  0  0  0  0  0
   37.1710   32.3810   44.1010 C   0  0  0  0  0  2  0  0  0  0  0  0
   38.3280   32.3680   45.0690 C   0  0  0  0  0  2  0  0  0  0  0  0
  1  2  1  0  0  0  0
  1  9  1  0  0  0  0
  2  7  1  0  0  0  0
  3  8  1  0  0  0  0
  3  2  2  0  0  0  0
  4  3  1  0  0  0  0
  5  4  2  0  0  0  0
  5  6  1  0  0  0  0
  6  1  2  0  0  0  0
  9 10  1  0  0  0  0
  9 11  1  0  0  0  0
 10 11  1  0  0  0  0
 11 16  1  0  0  0  0
 11 15  1  0  0  0  0
 12  9  1  0  0  0  0
 13 10  1  0  0  0  0
 14 10  1  0  0  0  0
 17 19  1  0  0  0  0
 17  5  1  0  0  0  0
 18 17  1  0  0  0  0
 20 27  1  0  0  0  0
 20 17  1  0  0  0  0
 21 20  1  0  0  0  0
 22 21  1  0  0  0  0
 23 24  1  0  0  0  0
 23 25  1  0  0  0  0
 23 21  1  0  0  0  0
 26 25  1  0  0  0  0
 26 27  1  0  0  0  0
M  END
>  <minimizedAffinity>
-4.70369101

>  <minimizedRMSD>
0.793402553

$$$$
