
 OpenBabel03272510293D

 27 29  0  0  0  0  0  0  0  0999 V2000
   37.5980   31.3330   48.8090 C   0  0  0  0  0  0  0  0  0  0  0  0
   37.7840   32.6840   49.1350 C   0  0  0  0  0  0  0  0  0  0  0  0
   38.7080   33.3840   48.3720 C   0  0  0  0  0  0  0  0  0  0  0  0
   39.3670   32.7380   47.3720 N   0  0  0  0  0  0  0  0  0  0  0  0
   39.1550   31.4280   47.0920 C   0  0  0  0  0  0  0  0  0  0  0  0
   38.2480   30.7020   47.8270 N   0  0  0  0  0  0  0  0  0  0  0  0
   37.2710   33.1950   49.9130 H   0  0  0  0  0  0  0  0  0  0  0  0
   38.9580   34.4250   48.5020 H   0  0  0  0  0  0  0  0  0  0  0  0
   36.5800   30.5660   49.5900 C   0  0  0  0  0  0  0  0  0  0  0  0
   36.5700   29.1280   49.6830 C   0  0  0  0  0  0  0  0  0  0  0  0
   37.1560   29.8990   50.8460 C   0  0  0  0  0  0  0  0  0  0  0  0
   35.6400   31.1410   49.7390 H   0  0  0  0  0  0  0  0  0  0  0  0
   37.3540   28.5400   49.1260 H   0  0  0  0  0  0  0  0  0  0  0  0
   35.6290   28.5810   49.8000 H   0  0  0  0  0  0  0  0  0  0  0  0
   36.5760   30.1170   51.7470 H   0  0  0  0  0  0  0  0  0  0  0  0
   38.2530   29.9230   50.9860 H   0  0  0  0  0  0  0  0  0  0  0  0
   39.8400   30.7430   46.0070 C   0  0  0  0  0  0  0  0  0  0  0  0
   40.8380   31.1930   45.7550 H   0  0  0  0  0  0  0  0  0  0  0  0
   39.9940   29.6860   46.2590 H   0  0  0  0  0  0  0  0  0  0  0  0
   39.0090   30.9160   44.8220 N   0  0  0  0  0  0  0  0  0  0  0  0
   37.6220   30.7080   45.0740 C   0  0  0  0  0  3  0  0  0  0  0  0
   37.4100   29.6240   44.9190 H   0  0  0  0  0  0  0  0  0  0  0  0
   36.7080   31.4590   44.1510 C   0  0  0  0  0  3  0  0  0  0  0  0
   35.7070   31.5160   44.6280 H   0  0  0  0  0  0  0  0  0  0  0  0
   37.1200   32.7610   43.8850 O   0  0  0  0  0  0  0  0  0  0  0  0
   38.3450   32.6510   43.2140 C   0  0  0  0  0  2  0  0  0  0  0  0
   39.3520   32.1680   44.2280 C   0  0  0  0  0  2  0  0  0  0  0  0
  1  2  1  0  0  0  0
  1  9  1  0  0  0  0
  2  7  1  0  0  0  0
  3  8  1  0  0  0  0
  3  2  2  0  0  0  0
  4  3  1  0  0  0  0
  5  4  2  0  0  0  0
  5  6  1  0  0  0  0
  6  1  2  0  0  0  0
  9 10  1  0  0  0  0
  9 12  1  0  0  0  0
  9 11  1  0  0  0  0
 10 14  1  0  0  0  0
 10 11  1  0  0  0  0
 11 16  1  0  0  0  0
 11 15  1  0  0  0  0
 13 10  1  0  0  0  0
 17 19  1  0  0  0  0
 17  5  1  0  0  0  0
 18 17  1  0  0  0  0
 20 21  1  0  0  0  0
 20 17  1  0  0  0  0
 22 21  1  0  0  0  0
 23 24  1  0  0  0  0
 23 21  1  0  0  0  0
 25 23  1  0  0  0  0
 26 25  1  0  0  0  0
 26 27  1  0  0  0  0
 27 20  1  0  0  0  0
M  END
>  <minimizedAffinity>
-4.54284191

>  <minimizedRMSD>
0.700453043

$$$$
