
 OpenBabel03272510293D

 27 29  0  0  0  0  0  0  0  0999 V2000
   37.1530   31.2870   49.2470 C   0  0  0  0  0  0  0  0  0  0  0  0
   37.3700   32.5420   49.8330 C   0  0  0  0  0  0  0  0  0  0  0  0
   38.2960   33.3650   49.2090 C   0  0  0  0  0  0  0  0  0  0  0  0
   38.9280   32.9220   48.0880 N   0  0  0  0  0  0  0  0  0  0  0  0
   38.6860   31.6990   47.5560 C   0  0  0  0  0  0  0  0  0  0  0  0
   37.7760   30.8560   48.1470 N   0  0  0  0  0  0  0  0  0  0  0  0
   36.8790   32.8950   50.7080 H   0  0  0  0  0  0  0  0  0  0  0  0
   38.5690   34.3550   49.5410 H   0  0  0  0  0  0  0  0  0  0  0  0
   36.1310   30.3960   49.8770 C   0  0  0  0  0  0  0  0  0  0  0  0
   36.0870   28.9710   49.6710 C   0  0  0  0  0  0  0  0  0  0  0  0
   36.7150   29.4710   50.9530 C   0  0  0  0  0  0  0  0  0  0  0  0
   35.2090   30.9470   50.1660 H   0  0  0  0  0  0  0  0  0  0  0  0
   36.8440   28.4950   48.9840 H   0  0  0  0  0  0  0  0  0  0  0  0
   35.1340   28.4310   49.6950 H   0  0  0  0  0  0  0  0  0  0  0  0
   36.1590   29.5090   51.8940 H   0  0  0  0  0  0  0  0  0  0  0  0
   37.8150   29.4420   51.0680 H   0  0  0  0  0  0  0  0  0  0  0  0
   39.3420   31.2340   46.3430 C   0  0  0  0  0  0  0  0  0  0  0  0
   40.4630   31.2400   46.4120 H   0  0  0  0  0  0  0  0  0  0  0  0
   39.0180   30.2140   46.1000 H   0  0  0  0  0  0  0  0  0  0  0  0
   38.9970   32.1890   45.2970 N   0  0  0  0  0  0  0  0  0  0  0  0
   40.0340   32.3680   44.3360 C   0  0  0  0  0  3  0  0  0  0  0  0
   40.6950   33.1880   44.7010 H   0  0  0  0  0  0  0  0  0  0  0  0
   39.5510   32.7800   42.9770 C   0  0  0  0  0  3  0  0  0  0  0  0
   40.3510   32.5540   42.2420 H   0  0  0  0  0  0  0  0  0  0  0  0
   38.4020   32.1150   42.5580 O   0  0  0  0  0  0  0  0  0  0  0  0
   37.3920   32.4820   43.4580 C   0  0  0  0  0  2  0  0  0  0  0  0
   37.7210   31.8190   44.7730 C   0  0  0  0  0  2  0  0  0  0  0  0
  1  2  1  0  0  0  0
  1  9  1  0  0  0  0
  2  7  1  0  0  0  0
  3  8  1  0  0  0  0
  3  2  2  0  0  0  0
  4  3  1  0  0  0  0
  5  4  2  0  0  0  0
  5  6  1  0  0  0  0
  6  1  2  0  0  0  0
  9 12  1  0  0  0  0
  9 11  1  0  0  0  0
 10 14  1  0  0  0  0
 10  9  1  0  0  0  0
 10 11  1  0  0  0  0
 11 16  1  0  0  0  0
 11 15  1  0  0  0  0
 13 10  1  0  0  0  0
 17 18  1  0  0  0  0
 17  5  1  0  0  0  0
 19 17  1  0  0  0  0
 20 17  1  0  0  0  0
 21 22  1  0  0  0  0
 21 20  1  0  0  0  0
 23 21  1  0  0  0  0
 24 23  1  0  0  0  0
 25 23  1  0  0  0  0
 25 26  1  0  0  0  0
 26 27  1  0  0  0  0
 27 20  1  0  0  0  0
M  END
>  <minimizedAffinity>
-5.27444839

>  <minimizedRMSD>
1.48416662

$$$$
