
 OpenBabel03272503543D

 43 46  0  0  1  0  0  0  0  0999 V2000
   38.9750   23.0990   33.0570 C   0  0  1  0  0  0  0  0  0  0  0  0
   39.8430   22.4730   31.9310 C   0  0  0  0  0  0  0  0  0  0  0  0
   41.1520   23.2860   31.9990 C   0  0  0  0  0  0  0  0  0  0  0  0
   40.8190   24.6340   31.4510 C   0  0  0  0  0  0  0  0  0  0  0  0
   39.7650   25.2990   32.3040 C   0  0  0  0  0  0  0  0  0  0  0  0
   38.5560   24.4300   32.5070 C   0  0  2  0  0  0  0  0  0  0  0  0
   39.6720   23.1420   33.9080 H   0  0  0  0  0  0  0  0  0  0  0  0
   39.3340   22.6820   30.9690 H   0  0  0  0  0  0  0  0  0  0  0  0
   40.0160   21.4020   32.1070 H   0  0  0  0  0  0  0  0  0  0  0  0
   41.4160   23.3280   33.0830 H   0  0  0  0  0  0  0  0  0  0  0  0
   41.9070   22.7690   31.4040 H   0  0  0  0  0  0  0  0  0  0  0  0
   40.4290   24.4730   30.4200 H   0  0  0  0  0  0  0  0  0  0  0  0
   41.7010   25.2940   31.4710 H   0  0  0  0  0  0  0  0  0  0  0  0
   40.2570   25.6090   33.2320 H   0  0  0  0  0  0  0  0  0  0  0  0
   39.4510   26.1990   31.7360 H   0  0  0  0  0  0  0  0  0  0  0  0
   38.1300   24.2640   31.4840 H   0  0  0  0  0  0  0  0  0  0  0  0
   37.4780   21.9080   34.6820 C   0  0  0  0  0  0  0  0  0  0  0  0
   36.3610   21.1200   34.9240 C   0  0  0  0  0  0  0  0  0  0  0  0
   35.5940   20.6340   33.8570 C   0  0  0  0  0  0  0  0  0  0  0  0
   35.9920   20.9710   32.5760 C   0  0  0  0  0  0  0  0  0  0  0  0
   37.0930   21.7500   32.3280 C   0  0  0  0  0  0  0  0  0  0  0  0
   37.8540   22.2300   33.4140 C   0  0  0  0  0  0  0  0  0  0  0  0
   36.0390   20.8490   35.9230 H   0  0  0  0  0  0  0  0  0  0  0  0
   34.7180   20.0170   34.0140 H   0  0  0  0  0  0  0  0  0  0  0  0
   35.3680   20.5740   31.7680 H   0  0  0  0  0  0  0  0  0  0  0  0
   37.2910   21.9340   31.2850 H   0  0  0  0  0  0  0  0  0  0  0  0
   38.4630   23.4630   37.9800 C   0  0  0  0  0  0  0  0  0  0  0  0
   37.6600   23.1240   36.8730 C   0  0  0  0  0  0  0  0  0  0  0  0
   38.2020   22.3320   35.8640 C   0  0  0  0  0  0  0  0  0  0  0  0
   39.4810   21.9440   36.0290 N   0  0  0  0  0  0  0  0  0  0  0  0
   40.2460   22.2700   37.0870 C   0  0  0  0  0  0  0  0  0  0  0  0
   39.7340   23.0220   38.0490 N   0  0  0  0  0  0  0  0  0  0  0  0
   37.9790   24.0770   38.7220 H   0  0  0  0  0  0  0  0  0  0  0  0
   36.6390   23.4310   36.7380 H   0  0  0  0  0  0  0  0  0  0  0  0
   41.2490   21.8960   37.0970 H   0  0  0  0  0  0  0  0  0  0  0  0
   37.5700   25.0960   33.2760 N   0  0  2  0  0  0  0  0  0  0  0  0
   36.6500   25.8040   32.4500 C   0  0  0  0  0  3  0  0  0  0  0  0
   36.5900   25.4550   31.4210 H   0  0  0  0  0  0  0  0  0  0  0  0
   36.8630   27.2960   32.5500 C   0  0  0  0  0  3  0  0  0  0  0  0
   36.1430   27.7950   31.8590 H   0  0  0  0  0  0  0  0  0  0  0  0
   36.5770   27.7210   33.8410 O   0  0  0  0  0  0  0  0  0  0  0  0
   37.0840   26.9070   34.8290 C   0  0  0  0  0  2  0  0  0  0  0  0
   38.0780   25.8860   34.3610 C   0  0  0  0  0  2  0  0  0  0  0  0
  1 22  1  0  0  0  0
  1  7  1  1  0  0  0
  2  3  1  0  0  0  0
  2  9  1  0  0  0  0
  2  1  1  0  0  0  0
  3 10  1  0  0  0  0
  4 13  1  0  0  0  0
  4  3  1  0  0  0  0
  4  5  1  0  0  0  0
  5  6  1  0  0  0  0
  5 14  1  0  0  0  0
  6 16  1  6  0  0  0
  6  1  1  0  0  0  0
  6 36  1  0  0  0  0
  8  2  1  0  0  0  0
 11  3  1  0  0  0  0
 12  4  1  0  0  0  0
 15  5  1  0  0  0  0
 17 18  1  0  0  0  0
 17 29  1  0  0  0  0
 18 23  1  0  0  0  0
 19 24  1  0  0  0  0
 19 18  2  0  0  0  0
 20 19  1  0  0  0  0
 21 20  2  0  0  0  0
 21 22  1  0  0  0  0
 22 17  2  0  0  0  0
 25 20  1  0  0  0  0
 26 21  1  0  0  0  0
 27 32  1  0  0  0  0
 27 33  1  0  0  0  0
 28 27  2  0  0  0  0
 29 30  2  0  0  0  0
 29 28  1  0  0  0  0
 30 31  1  0  0  0  0
 31 35  1  0  0  0  0
 31 32  2  0  0  0  0
 34 28  1  0  0  0  0
 36 43  1  1  0  0  0
 37 39  1  0  0  0  0
 37 36  1  0  0  0  0
 38 37  1  0  0  0  0
 39 41  1  0  0  0  0
 40 39  1  0  0  0  0
 41 42  1  0  0  0  0
 43 42  1  0  0  0  0
M  END
>  <minimizedAffinity>
-5.34185266

$$$$

 OpenBabel03272503543D

 43 46  0  0  1  0  0  0  0  0999 V2000
   32.6700   29.8500   35.3160 C   0  0  1  0  0  0  0  0  0  0  0  0
   31.9750   29.2070   36.5470 C   0  0  0  0  0  0  0  0  0  0  0  0
   31.2800   27.9650   35.9530 C   0  0  0  0  0  0  0  0  0  0  0  0
   30.1290   28.4870   35.1580 C   0  0  0  0  0  0  0  0  0  0  0  0
   30.6270   29.3730   34.0400 C   0  0  0  0  0  0  0  0  0  0  0  0
   31.5470   30.4560   34.5290 C   0  0  2  0  0  0  0  0  0  0  0  0
   33.1670   28.9910   34.8380 H   0  0  0  0  0  0  0  0  0  0  0  0
   31.2050   29.9220   36.9010 H   0  0  0  0  0  0  0  0  0  0  0  0
   32.7050   28.9360   37.3240 H   0  0  0  0  0  0  0  0  0  0  0  0
   32.0490   27.4780   35.3070 H   0  0  0  0  0  0  0  0  0  0  0  0
   30.9590   27.3250   36.7780 H   0  0  0  0  0  0  0  0  0  0  0  0
   29.4980   29.0780   35.8590 H   0  0  0  0  0  0  0  0  0  0  0  0
   29.5750   27.6630   34.6820 H   0  0  0  0  0  0  0  0  0  0  0  0
   31.0700   28.7130   33.2870 H   0  0  0  0  0  0  0  0  0  0  0  0
   29.7200   29.8540   33.6200 H   0  0  0  0  0  0  0  0  0  0  0  0
   30.9310   31.0800   35.2270 H   0  0  0  0  0  0  0  0  0  0  0  0
   34.9390   30.9160   35.1850 C   0  0  0  0  0  0  0  0  0  0  0  0
   35.8230   31.9030   35.5970 C   0  0  0  0  0  0  0  0  0  0  0  0
   35.4450   32.8230   36.5840 C   0  0  0  0  0  0  0  0  0  0  0  0
   34.1750   32.7030   37.1180 C   0  0  0  0  0  0  0  0  0  0  0  0
   33.2950   31.7320   36.7170 C   0  0  0  0  0  0  0  0  0  0  0  0
   33.6930   30.8140   35.7220 C   0  0  0  0  0  0  0  0  0  0  0  0
   36.8200   32.0070   35.1860 H   0  0  0  0  0  0  0  0  0  0  0  0
   36.1120   33.6050   36.9270 H   0  0  0  0  0  0  0  0  0  0  0  0
   33.9150   33.4390   37.8870 H   0  0  0  0  0  0  0  0  0  0  0  0
   32.3410   31.7510   37.2150 H   0  0  0  0  0  0  0  0  0  0  0  0
   36.4810   27.9780   33.3790 C   0  0  0  0  0  0  0  0  0  0  0  0
   36.0270   28.7730   34.4500 C   0  0  0  0  0  0  0  0  0  0  0  0
   35.4520   30.0110   34.1740 C   0  0  0  0  0  0  0  0  0  0  0  0
   35.3730   30.3600   32.8760 N   0  0  0  0  0  0  0  0  0  0  0  0
   35.8090   29.5980   31.8550 C   0  0  0  0  0  0  0  0  0  0  0  0
   36.3560   28.4200   32.1140 N   0  0  0  0  0  0  0  0  0  0  0  0
   36.9150   27.0340   33.6650 H   0  0  0  0  0  0  0  0  0  0  0  0
   36.0870   28.4990   35.4870 H   0  0  0  0  0  0  0  0  0  0  0  0
   35.6870   29.9920   30.8670 H   0  0  0  0  0  0  0  0  0  0  0  0
   31.9640   31.2920   33.4640 N   0  0  2  0  0  0  0  0  0  0  0  0
   31.2640   32.5340   33.4670 C   0  0  0  0  0  3  0  0  0  0  0  0
   30.8270   32.8150   34.4230 H   0  0  0  0  0  0  0  0  0  0  0  0
   30.2750   32.6050   32.3280 C   0  0  0  0  0  3  0  0  0  0  0  0
   29.7340   33.5790   32.4010 H   0  0  0  0  0  0  0  0  0  0  0  0
   30.9570   32.5890   31.1190 O   0  0  0  0  0  0  0  0  0  0  0  0
   31.9780   31.6670   31.0580 C   0  0  0  0  0  2  0  0  0  0  0  0
   31.9940   30.6650   32.1740 C   0  0  0  0  0  2  0  0  0  0  0  0
  1  7  1  6  0  0  0
  1 22  1  0  0  0  0
  1  2  1  0  0  0  0
  2  8  1  0  0  0  0
  2  9  1  0  0  0  0
  3  2  1  0  0  0  0
  3 11  1  0  0  0  0
  4 12  1  0  0  0  0
  4  3  1  0  0  0  0
  5  6  1  0  0  0  0
  5  4  1  0  0  0  0
  6 16  1  1  0  0  0
  6  1  1  0  0  0  0
 10  3  1  0  0  0  0
 13  4  1  0  0  0  0
 14  5  1  0  0  0  0
 15  5  1  0  0  0  0
 17 18  2  0  0  0  0
 17 22  1  0  0  0  0
 18 19  1  0  0  0  0
 19 24  1  0  0  0  0
 19 20  2  0  0  0  0
 20 25  1  0  0  0  0
 21 20  1  0  0  0  0
 21 26  1  0  0  0  0
 22 21  2  0  0  0  0
 23 18  1  0  0  0  0
 27 33  1  0  0  0  0
 27 28  1  0  0  0  0
 28 34  1  0  0  0  0
 29 28  2  0  0  0  0
 29 17  1  0  0  0  0
 30 29  1  0  0  0  0
 31 32  1  0  0  0  0
 31 30  2  0  0  0  0
 32 27  2  0  0  0  0
 35 31  1  0  0  0  0
 36 43  1  6  0  0  0
 36 37  1  0  0  0  0
 36  6  1  0  0  0  0
 37 38  1  0  0  0  0
 39 40  1  0  0  0  0
 39 37  1  0  0  0  0
 41 39  1  0  0  0  0
 42 41  1  0  0  0  0
 42 43  1  0  0  0  0
M  END
>  <minimizedAffinity>
-5.32961798

$$$$

 OpenBabel03272503543D

 43 46  0  0  1  0  0  0  0  0999 V2000
   38.1380   26.4170   33.1390 C   0  0  1  0  0  0  0  0  0  0  0  0
   38.2260   25.9450   34.6170 C   0  0  0  0  0  0  0  0  0  0  0  0
   39.0460   27.0600   35.2970 C   0  0  0  0  0  0  0  0  0  0  0  0
   40.4460   26.8870   34.8090 C   0  0  0  0  0  0  0  0  0  0  0  0
   40.5010   27.0600   33.3100 C   0  0  0  0  0  0  0  0  0  0  0  0
   39.5140   26.1840   32.5920 C   0  0  2  0  0  0  0  0  0  0  0  0
   37.8450   27.4740   33.2370 H   0  0  0  0  0  0  0  0  0  0  0  0
   38.8120   25.0040   34.6270 H   0  0  0  0  0  0  0  0  0  0  0  0
   37.2270   25.8380   35.0640 H   0  0  0  0  0  0  0  0  0  0  0  0
   38.5930   28.0160   34.9410 H   0  0  0  0  0  0  0  0  0  0  0  0
   38.9630   26.9340   36.3780 H   0  0  0  0  0  0  0  0  0  0  0  0
   40.7550   25.8530   35.0850 H   0  0  0  0  0  0  0  0  0  0  0  0
   41.1080   27.6550   35.2390 H   0  0  0  0  0  0  0  0  0  0  0  0
   40.3820   28.1300   33.1100 H   0  0  0  0  0  0  0  0  0  0  0  0
   41.5230   26.7430   33.0150 H   0  0  0  0  0  0  0  0  0  0  0  0
   39.8120   25.1320   32.8380 H   0  0  0  0  0  0  0  0  0  0  0  0
   36.1420   26.2860   31.6220 C   0  0  0  0  0  0  0  0  0  0  0  0
   35.2180   25.5230   30.9240 C   0  0  0  0  0  0  0  0  0  0  0  0
   35.2380   24.1250   31.0220 C   0  0  0  0  0  0  0  0  0  0  0  0
   36.2050   23.5530   31.8300 C   0  0  0  0  0  0  0  0  0  0  0  0
   37.1220   24.3000   32.5220 C   0  0  0  0  0  0  0  0  0  0  0  0
   37.0860   25.7060   32.4120 C   0  0  0  0  0  0  0  0  0  0  0  0
   34.4570   25.9580   30.2880 H   0  0  0  0  0  0  0  0  0  0  0  0
   34.5300   23.5010   30.4890 H   0  0  0  0  0  0  0  0  0  0  0  0
   36.1900   22.4590   31.8810 H   0  0  0  0  0  0  0  0  0  0  0  0
   37.8160   23.7290   33.1150 H   0  0  0  0  0  0  0  0  0  0  0  0
   35.2190   29.9240   32.0500 C   0  0  0  0  0  0  0  0  0  0  0  0
   35.2670   28.5400   32.3080 C   0  0  0  0  0  0  0  0  0  0  0  0
   36.0070   27.7210   31.4590 C   0  0  0  0  0  0  0  0  0  0  0  0
   36.6320   28.3300   30.4330 N   0  0  0  0  0  0  0  0  0  0  0  0
   36.5830   29.6520   30.1880 C   0  0  0  0  0  0  0  0  0  0  0  0
   35.8810   30.4340   30.9940 N   0  0  0  0  0  0  0  0  0  0  0  0
   34.6290   30.4970   32.7470 H   0  0  0  0  0  0  0  0  0  0  0  0
   34.7710   28.0500   33.1250 H   0  0  0  0  0  0  0  0  0  0  0  0
   37.1260   30.0110   29.3380 H   0  0  0  0  0  0  0  0  0  0  0  0
   39.6180   26.3400   31.1880 N   0  0  2  0  0  0  0  0  0  0  0  0
   40.2740   25.2280   30.5840 C   0  0  0  0  0  3  0  0  0  0  0  0
   40.2590   24.3100   31.1680 H   0  0  0  0  0  0  0  0  0  0  0  0
   41.6610   25.6000   30.1150 C   0  0  0  0  0  3  0  0  0  0  0  0
   42.1370   24.6860   29.6860 H   0  0  0  0  0  0  0  0  0  0  0  0
   41.5710   26.5470   29.1040 O   0  0  0  0  0  0  0  0  0  0  0  0
   40.6580   27.5490   29.3480 C   0  0  0  0  0  2  0  0  0  0  0  0
   40.1380   27.6050   30.7540 C   0  0  0  0  0  2  0  0  0  0  0  0
  1  7  1  6  0  0  0
  1  2  1  0  0  0  0
  2  8  1  0  0  0  0
  2  9  1  0  0  0  0
  2  3  1  0  0  0  0
  3 11  1  0  0  0  0
  4 12  1  0  0  0  0
  4 13  1  0  0  0  0
  4  3  1  0  0  0  0
  5  4  1  0  0  0  0
  6 16  1  1  0  0  0
  6  1  1  0  0  0  0
  6  5  1  0  0  0  0
 10  3  1  0  0  0  0
 14  5  1  0  0  0  0
 15  5  1  0  0  0  0
 17 22  1  0  0  0  0
 18 19  1  0  0  0  0
 18 17  2  0  0  0  0
 19 20  2  0  0  0  0
 20 25  1  0  0  0  0
 20 21  1  0  0  0  0
 21 26  1  0  0  0  0
 22 21  2  0  0  0  0
 22  1  1  0  0  0  0
 23 18  1  0  0  0  0
 24 19  1  0  0  0  0
 27 28  1  0  0  0  0
 27 33  1  0  0  0  0
 28 34  1  0  0  0  0
 29 17  1  0  0  0  0
 29 28  2  0  0  0  0
 30 29  1  0  0  0  0
 31 30  2  0  0  0  0
 31 32  1  0  0  0  0
 32 27  2  0  0  0  0
 35 31  1  0  0  0  0
 36 43  1  1  0  0  0
 36  6  1  0  0  0  0
 37 38  1  0  0  0  0
 37 36  1  0  0  0  0
 39 37  1  0  0  0  0
 40 39  1  0  0  0  0
 41 42  1  0  0  0  0
 41 39  1  0  0  0  0
 42 43  1  0  0  0  0
M  END
>  <minimizedAffinity>
-5.32516861

$$$$

 OpenBabel03272503543D

 43 46  0  0  1  0  0  0  0  0999 V2000
   40.1150   24.7300   34.0740 C   0  0  1  0  0  0  0  0  0  0  0  0
   41.5270   24.5290   33.4590 C   0  0  0  0  0  0  0  0  0  0  0  0
   42.3830   25.5910   34.1790 C   0  0  0  0  0  0  0  0  0  0  0  0
   41.9580   26.9050   33.6120 C   0  0  0  0  0  0  0  0  0  0  0  0
   40.4960   27.1500   33.9010 C   0  0  0  0  0  0  0  0  0  0  0  0
   39.6230   26.0080   33.4630 C   0  0  2  0  0  0  0  0  0  0  0  0
   40.3240   24.7770   35.1540 H   0  0  0  0  0  0  0  0  0  0  0  0
   41.4570   24.7860   32.3830 H   0  0  0  0  0  0  0  0  0  0  0  0
   41.9010   23.5110   33.6380 H   0  0  0  0  0  0  0  0  0  0  0  0
   42.1200   25.4970   35.2590 H   0  0  0  0  0  0  0  0  0  0  0  0
   43.4340   25.3740   33.9830 H   0  0  0  0  0  0  0  0  0  0  0  0
   42.1240   26.8470   32.5120 H   0  0  0  0  0  0  0  0  0  0  0  0
   42.5130   27.7320   34.0800 H   0  0  0  0  0  0  0  0  0  0  0  0
   40.4200   27.3920   34.9660 H   0  0  0  0  0  0  0  0  0  0  0  0
   40.2230   28.0430   33.3010 H   0  0  0  0  0  0  0  0  0  0  0  0
   39.7560   25.9360   32.3530 H   0  0  0  0  0  0  0  0  0  0  0  0
   38.5300   22.9060   34.7520 C   0  0  0  0  0  0  0  0  0  0  0  0
   37.6880   21.8600   34.4010 C   0  0  0  0  0  0  0  0  0  0  0  0
   37.5640   21.4740   33.0590 C   0  0  0  0  0  0  0  0  0  0  0  0
   38.3040   22.1700   32.1210 C   0  0  0  0  0  0  0  0  0  0  0  0
   39.1360   23.2050   32.4590 C   0  0  0  0  0  0  0  0  0  0  0  0
   39.2500   23.5800   33.8140 C   0  0  0  0  0  0  0  0  0  0  0  0
   37.1040   21.3080   35.1260 H   0  0  0  0  0  0  0  0  0  0  0  0
   36.9150   20.6620   32.7530 H   0  0  0  0  0  0  0  0  0  0  0  0
   38.1800   21.8410   31.0830 H   0  0  0  0  0  0  0  0  0  0  0  0
   39.6540   23.6590   31.6310 H   0  0  0  0  0  0  0  0  0  0  0  0
   37.8410   24.2130   38.2280 C   0  0  0  0  0  0  0  0  0  0  0  0
   37.6810   24.0110   36.8430 C   0  0  0  0  0  0  0  0  0  0  0  0
   38.5910   23.1990   36.1710 C   0  0  0  0  0  0  0  0  0  0  0  0
   39.5750   22.6580   36.9140 N   0  0  0  0  0  0  0  0  0  0  0  0
   39.7260   22.8540   38.2370 C   0  0  0  0  0  0  0  0  0  0  0  0
   38.8620   23.6250   38.8800 N   0  0  0  0  0  0  0  0  0  0  0  0
   37.1020   24.8520   38.6830 H   0  0  0  0  0  0  0  0  0  0  0  0
   36.8980   24.4400   36.2460 H   0  0  0  0  0  0  0  0  0  0  0  0
   40.5520   22.3650   38.7110 H   0  0  0  0  0  0  0  0  0  0  0  0
   38.2560   26.2850   33.7120 N   0  0  2  0  0  0  0  0  0  0  0  0
   37.5440   26.5380   32.5040 C   0  0  0  0  0  3  0  0  0  0  0  0
   38.0040   26.1370   31.6030 H   0  0  0  0  0  0  0  0  0  0  0  0
   37.1870   28.0000   32.3760 C   0  0  0  0  0  3  0  0  0  0  0  0
   36.6660   28.1440   31.4000 H   0  0  0  0  0  0  0  0  0  0  0  0
   36.3030   28.3530   33.3860 O   0  0  0  0  0  0  0  0  0  0  0  0
   36.6320   27.8530   34.6260 C   0  0  0  0  0  2  0  0  0  0  0  0
   38.0100   27.2680   34.7280 C   0  0  0  0  0  2  0  0  0  0  0  0
  1  7  1  1  0  0  0
  2  9  1  0  0  0  0
  2  1  1  0  0  0  0
  2  3  1  0  0  0  0
  3 10  1  0  0  0  0
  4  5  1  0  0  0  0
  4 13  1  0  0  0  0
  4  3  1  0  0  0  0
  5 14  1  0  0  0  0
  6 16  1  6  0  0  0
  6 36  1  0  0  0  0
  6  5  1  0  0  0  0
  6  1  1  0  0  0  0
  8  2  1  0  0  0  0
 11  3  1  0  0  0  0
 12  4  1  0  0  0  0
 15  5  1  0  0  0  0
 17 29  1  0  0  0  0
 18 17  1  0  0  0  0
 18 23  1  0  0  0  0
 19 18  2  0  0  0  0
 20 21  2  0  0  0  0
 20 19  1  0  0  0  0
 21 22  1  0  0  0  0
 22  1  1  0  0  0  0
 22 17  2  0  0  0  0
 24 19  1  0  0  0  0
 25 20  1  0  0  0  0
 26 21  1  0  0  0  0
 27 33  1  0  0  0  0
 27 32  1  0  0  0  0
 28 27  2  0  0  0  0
 29 28  1  0  0  0  0
 29 30  2  0  0  0  0
 30 31  1  0  0  0  0
 31 35  1  0  0  0  0
 31 32  2  0  0  0  0
 34 28  1  0  0  0  0
 36 43  1  1  0  0  0
 37 36  1  0  0  0  0
 38 37  1  0  0  0  0
 39 37  1  0  0  0  0
 39 41  1  0  0  0  0
 40 39  1  0  0  0  0
 41 42  1  0  0  0  0
 42 43  1  0  0  0  0
M  END
>  <minimizedAffinity>
-5.24806499

$$$$

 OpenBabel03272503543D

 43 46  0  0  1  0  0  0  0  0999 V2000
   38.0330   26.9540   33.4170 C   0  0  1  0  0  0  0  0  0  0  0  0
   37.6790   27.5380   34.8110 C   0  0  0  0  0  0  0  0  0  0  0  0
   38.5760   26.7320   35.7720 C   0  0  0  0  0  0  0  0  0  0  0  0
   37.9840   25.3630   35.8270 C   0  0  0  0  0  0  0  0  0  0  0  0
   38.0110   24.7290   34.4560 C   0  0  0  0  0  0  0  0  0  0  0  0
   37.3860   25.6010   33.4050 C   0  0  2  0  0  0  0  0  0  0  0  0
   39.1350   26.9460   33.4280 H   0  0  0  0  0  0  0  0  0  0  0  0
   36.6160   27.2910   35.0110 H   0  0  0  0  0  0  0  0  0  0  0  0
   37.8890   28.6160   34.8600 H   0  0  0  0  0  0  0  0  0  0  0  0
   39.5870   26.7340   35.3010 H   0  0  0  0  0  0  0  0  0  0  0  0
   38.5670   27.2280   36.7450 H   0  0  0  0  0  0  0  0  0  0  0  0
   36.9320   25.4830   36.1700 H   0  0  0  0  0  0  0  0  0  0  0  0
   38.5720   24.7080   36.4870 H   0  0  0  0  0  0  0  0  0  0  0  0
   39.0520   24.4570   34.2540 H   0  0  0  0  0  0  0  0  0  0  0  0
   37.4010   23.8060   34.5470 H   0  0  0  0  0  0  0  0  0  0  0  0
   36.3160   25.7260   33.7150 H   0  0  0  0  0  0  0  0  0  0  0  0
   38.1890   27.9700   31.1270 C   0  0  0  0  0  0  0  0  0  0  0  0
   37.6540   28.7870   30.1410 C   0  0  0  0  0  0  0  0  0  0  0  0
   36.4680   29.4950   30.3780 C   0  0  0  0  0  0  0  0  0  0  0  0
   35.8670   29.3430   31.6150 C   0  0  0  0  0  0  0  0  0  0  0  0
   36.3880   28.5370   32.5930 C   0  0  0  0  0  0  0  0  0  0  0  0
   37.5830   27.8330   32.3380 C   0  0  0  0  0  0  0  0  0  0  0  0
   38.1150   28.9140   29.1690 H   0  0  0  0  0  0  0  0  0  0  0  0
   36.0250   30.1410   29.6300 H   0  0  0  0  0  0  0  0  0  0  0  0
   34.9420   29.9110   31.7630 H   0  0  0  0  0  0  0  0  0  0  0  0
   35.8210   28.5110   33.5080 H   0  0  0  0  0  0  0  0  0  0  0  0
   41.7640   26.7550   31.0310 C   0  0  0  0  0  0  0  0  0  0  0  0
   40.6260   27.4610   31.4680 C   0  0  0  0  0  0  0  0  0  0  0  0
   39.4290   27.3070   30.7730 C   0  0  0  0  0  0  0  0  0  0  0  0
   39.4540   26.4770   29.7130 N   0  0  0  0  0  0  0  0  0  0  0  0
   40.5430   25.8050   29.2970 C   0  0  0  0  0  0  0  0  0  0  0  0
   41.6830   25.9480   29.9560 N   0  0  0  0  0  0  0  0  0  0  0  0
   42.6550   26.9220   31.6150 H   0  0  0  0  0  0  0  0  0  0  0  0
   40.6020   28.1240   32.3130 H   0  0  0  0  0  0  0  0  0  0  0  0
   40.4300   25.1750   28.4390 H   0  0  0  0  0  0  0  0  0  0  0  0
   37.3900   24.9620   32.1400 N   0  0  2  0  0  0  0  0  0  0  0  0
   36.0770   24.5840   31.7380 C   0  0  0  0  0  3  0  0  0  0  0  0
   35.2700   25.1330   32.2210 H   0  0  0  0  0  0  0  0  0  0  0  0
   35.8920   23.0870   31.8140 C   0  0  0  0  0  3  0  0  0  0  0  0
   34.8400   22.8540   31.5230 H   0  0  0  0  0  0  0  0  0  0  0  0
   36.7320   22.4690   30.8970 O   0  0  0  0  0  0  0  0  0  0  0  0
   38.0090   22.9820   30.8650 C   0  0  0  0  0  2  0  0  0  0  0  0
   38.3500   23.9050   31.9980 C   0  0  0  0  0  2  0  0  0  0  0  0
  1  7  1  6  0  0  0
  1  2  1  0  0  0  0
  2  9  1  0  0  0  0
  2  8  1  0  0  0  0
  2  3  1  0  0  0  0
  3  4  1  0  0  0  0
  3 11  1  0  0  0  0
  4 12  1  0  0  0  0
  4 13  1  0  0  0  0
  5 15  1  0  0  0  0
  5  4  1  0  0  0  0
  6  1  1  0  0  0  0
  6 16  1  1  0  0  0
  6  5  1  0  0  0  0
 10  3  1  0  0  0  0
 14  5  1  0  0  0  0
 17 22  1  0  0  0  0
 18 19  1  0  0  0  0
 18 17  2  0  0  0  0
 19 20  2  0  0  0  0
 20 25  1  0  0  0  0
 20 21  1  0  0  0  0
 21 26  1  0  0  0  0
 22 21  2  0  0  0  0
 22  1  1  0  0  0  0
 23 18  1  0  0  0  0
 24 19  1  0  0  0  0
 27 28  1  0  0  0  0
 27 33  1  0  0  0  0
 28 34  1  0  0  0  0
 29 17  1  0  0  0  0
 29 28  2  0  0  0  0
 30 29  1  0  0  0  0
 31 30  2  0  0  0  0
 31 32  1  0  0  0  0
 32 27  2  0  0  0  0
 35 31  1  0  0  0  0
 36 43  1  1  0  0  0
 36  6  1  0  0  0  0
 37 39  1  0  0  0  0
 37 36  1  0  0  0  0
 37 38  1  0  0  0  0
 40 39  1  0  0  0  0
 41 39  1  0  0  0  0
 42 41  1  0  0  0  0
 42 43  1  0  0  0  0
M  END
>  <minimizedAffinity>
-5.23019981

$$$$

 OpenBabel03272503543D

 43 46  0  0  1  0  0  0  0  0999 V2000
   38.2550   22.7050   31.2780 C   0  0  1  0  0  0  0  0  0  0  0  0
   38.6900   21.9600   29.9870 C   0  0  0  0  0  0  0  0  0  0  0  0
   39.9440   22.7350   29.5350 C   0  0  0  0  0  0  0  0  0  0  0  0
   39.4460   24.0420   29.0120 C   0  0  0  0  0  0  0  0  0  0  0  0
   38.7440   24.8080   30.1080 C   0  0  0  0  0  0  0  0  0  0  0  0
   37.6760   23.9960   30.7850 C   0  0  2  0  0  0  0  0  0  0  0  0
   39.2000   22.7980   31.8360 H   0  0  0  0  0  0  0  0  0  0  0  0
   37.8840   22.1020   29.2380 H   0  0  0  0  0  0  0  0  0  0  0  0
   38.9120   20.9020   30.1890 H   0  0  0  0  0  0  0  0  0  0  0  0
   40.5600   22.8600   30.4570 H   0  0  0  0  0  0  0  0  0  0  0  0
   40.4520   22.1460   28.7680 H   0  0  0  0  0  0  0  0  0  0  0  0
   38.7300   23.8060   28.1930 H   0  0  0  0  0  0  0  0  0  0  0  0
   40.2820   24.6730   28.6740 H   0  0  0  0  0  0  0  0  0  0  0  0
   39.5220   25.1800   30.7830 H   0  0  0  0  0  0  0  0  0  0  0  0
   38.2570   25.6660   29.6010 H   0  0  0  0  0  0  0  0  0  0  0  0
   36.9280   23.7590   29.9850 H   0  0  0  0  0  0  0  0  0  0  0  0
   37.3440   21.7750   33.4240 C   0  0  0  0  0  0  0  0  0  0  0  0
   36.3790   21.0370   34.0950 C   0  0  0  0  0  0  0  0  0  0  0  0
   35.3530   20.4030   33.3810 C   0  0  0  0  0  0  0  0  0  0  0  0
   35.3480   20.5440   32.0050 C   0  0  0  0  0  0  0  0  0  0  0  0
   36.2970   21.2720   31.3350 C   0  0  0  0  0  0  0  0  0  0  0  0
   37.3220   21.9040   32.0700 C   0  0  0  0  0  0  0  0  0  0  0  0
   36.3720   20.9200   35.1720 H   0  0  0  0  0  0  0  0  0  0  0  0
   34.5850   19.8200   33.8750 H   0  0  0  0  0  0  0  0  0  0  0  0
   34.5320   20.0350   31.4820 H   0  0  0  0  0  0  0  0  0  0  0  0
   36.1750   21.2980   30.2660 H   0  0  0  0  0  0  0  0  0  0  0  0
   40.5990   22.6190   35.1460 C   0  0  0  0  0  0  0  0  0  0  0  0
   39.6970   21.9600   34.2870 C   0  0  0  0  0  0  0  0  0  0  0  0
   38.3650   22.3670   34.2680 C   0  0  0  0  0  0  0  0  0  0  0  0
   38.0360   23.3810   35.0900 N   0  0  0  0  0  0  0  0  0  0  0  0
   38.9000   24.0080   35.9100 C   0  0  0  0  0  0  0  0  0  0  0  0
   40.1670   23.6250   35.9310 N   0  0  0  0  0  0  0  0  0  0  0  0
   41.6120   22.2530   35.1090 H   0  0  0  0  0  0  0  0  0  0  0  0
   39.9560   21.1510   33.6290 H   0  0  0  0  0  0  0  0  0  0  0  0
   38.5100   24.8010   36.5140 H   0  0  0  0  0  0  0  0  0  0  0  0
   37.0090   24.7550   31.7790 N   0  0  2  0  0  0  0  0  0  0  0  0
   35.7640   25.2620   31.3060 C   0  0  0  0  0  3  0  0  0  0  0  0
   35.3390   24.7250   30.4600 H   0  0  0  0  0  0  0  0  0  0  0  0
   35.8320   26.7530   31.0790 C   0  0  0  0  0  3  0  0  0  0  0  0
   34.8450   27.0860   30.6770 H   0  0  0  0  0  0  0  0  0  0  0  0
   36.0370   27.3990   32.2900 O   0  0  0  0  0  0  0  0  0  0  0  0
   36.9820   26.8040   33.0950 C   0  0  0  0  0  2  0  0  0  0  0  0
   37.8150   25.7520   32.4240 C   0  0  0  0  0  2  0  0  0  0  0  0
  1  7  1  1  0  0  0
  1 22  1  0  0  0  0
  2  9  1  0  0  0  0
  2  1  1  0  0  0  0
  3  2  1  0  0  0  0
  3 10  1  0  0  0  0
  4  3  1  0  0  0  0
  4  5  1  0  0  0  0
  5 14  1  0  0  0  0
  5  6  1  0  0  0  0
  6 16  1  6  0  0  0
  6  1  1  0  0  0  0
  6 36  1  0  0  0  0
  8  2  1  0  0  0  0
 11  3  1  0  0  0  0
 12  4  1  0  0  0  0
 13  4  1  0  0  0  0
 15  5  1  0  0  0  0
 17 18  1  0  0  0  0
 17 29  1  0  0  0  0
 18 23  1  0  0  0  0
 19 24  1  0  0  0  0
 19 18  2  0  0  0  0
 20 19  1  0  0  0  0
 21 20  2  0  0  0  0
 21 22  1  0  0  0  0
 22 17  2  0  0  0  0
 25 20  1  0  0  0  0
 26 21  1  0  0  0  0
 27 32  1  0  0  0  0
 28 27  2  0  0  0  0
 29 28  1  0  0  0  0
 29 30  2  0  0  0  0
 30 31  1  0  0  0  0
 31 32  2  0  0  0  0
 31 35  1  0  0  0  0
 33 27  1  0  0  0  0
 34 28  1  0  0  0  0
 36 43  1  6  0  0  0
 37 36  1  0  0  0  0
 38 37  1  0  0  0  0
 39 37  1  0  0  0  0
 39 41  1  0  0  0  0
 40 39  1  0  0  0  0
 41 42  1  0  0  0  0
 43 42  1  0  0  0  0
M  END
>  <minimizedAffinity>
-5.19641161

$$$$

 OpenBabel03272503543D

 43 46  0  0  1  0  0  0  0  0999 V2000
   39.9700   22.9560   34.6690 C   0  0  1  0  0  0  0  0  0  0  0  0
   41.2520   22.1850   35.0870 C   0  0  0  0  0  0  0  0  0  0  0  0
   41.9990   21.9890   33.7520 C   0  0  0  0  0  0  0  0  0  0  0  0
   41.2220   20.9580   33.0020 C   0  0  0  0  0  0  0  0  0  0  0  0
   39.8220   21.4560   32.7310 C   0  0  0  0  0  0  0  0  0  0  0  0
   39.1270   21.9280   33.9770 C   0  0  2  0  0  0  0  0  0  0  0  0
   40.3650   23.7530   34.0200 H   0  0  0  0  0  0  0  0  0  0  0  0
   40.9300   21.1970   35.4740 H   0  0  0  0  0  0  0  0  0  0  0  0
   41.8480   22.7600   35.8100 H   0  0  0  0  0  0  0  0  0  0  0  0
   41.9690   22.9840   33.2490 H   0  0  0  0  0  0  0  0  0  0  0  0
   43.0170   21.6620   33.9750 H   0  0  0  0  0  0  0  0  0  0  0  0
   41.1850   20.0520   33.6480 H   0  0  0  0  0  0  0  0  0  0  0  0
   41.6790   20.7590   32.0210 H   0  0  0  0  0  0  0  0  0  0  0  0
   39.9010   22.2140   31.9460 H   0  0  0  0  0  0  0  0  0  0  0  0
   39.2680   20.5770   32.3390 H   0  0  0  0  0  0  0  0  0  0  0  0
   39.0600   21.0290   34.6430 H   0  0  0  0  0  0  0  0  0  0  0  0
   38.6850   24.7790   35.8200 C   0  0  0  0  0  0  0  0  0  0  0  0
   38.0430   25.2590   36.9530 C   0  0  0  0  0  0  0  0  0  0  0  0
   38.0340   24.5040   38.1340 C   0  0  0  0  0  0  0  0  0  0  0  0
   38.6830   23.2830   38.1170 C   0  0  0  0  0  0  0  0  0  0  0  0
   39.3200   22.8010   37.0030 C   0  0  0  0  0  0  0  0  0  0  0  0
   39.3180   23.5750   35.8230 C   0  0  0  0  0  0  0  0  0  0  0  0
   37.5310   26.2140   36.9780 H   0  0  0  0  0  0  0  0  0  0  0  0
   37.5420   24.8510   39.0340 H   0  0  0  0  0  0  0  0  0  0  0  0
   38.6550   22.7220   39.0570 H   0  0  0  0  0  0  0  0  0  0  0  0
   39.7850   21.8380   37.1280 H   0  0  0  0  0  0  0  0  0  0  0  0
   39.5880   27.1430   33.0150 C   0  0  0  0  0  0  0  0  0  0  0  0
   39.7530   26.3200   34.1470 C   0  0  0  0  0  0  0  0  0  0  0  0
   38.6440   25.6590   34.6680 C   0  0  0  0  0  0  0  0  0  0  0  0
   37.4730   25.8630   34.0360 N   0  0  0  0  0  0  0  0  0  0  0  0
   37.3170   26.6500   32.9550 C   0  0  0  0  0  0  0  0  0  0  0  0
   38.3700   27.2800   32.4560 N   0  0  0  0  0  0  0  0  0  0  0  0
   40.4870   27.6230   32.6660 H   0  0  0  0  0  0  0  0  0  0  0  0
   40.6860   26.1540   34.6540 H   0  0  0  0  0  0  0  0  0  0  0  0
   36.3310   26.7280   32.5460 H   0  0  0  0  0  0  0  0  0  0  0  0
   37.8040   22.3500   33.6970 N   0  0  2  0  0  0  0  0  0  0  0  0
   36.8410   21.4290   34.2020 C   0  0  0  0  0  3  0  0  0  0  0  0
   37.1940   20.7860   35.0050 H   0  0  0  0  0  0  0  0  0  0  0  0
   36.1820   20.6590   33.0820 C   0  0  0  0  0  3  0  0  0  0  0  0
   35.4680   19.9320   33.5370 H   0  0  0  0  0  0  0  0  0  0  0  0
   35.4510   21.5300   32.2860 O   0  0  0  0  0  0  0  0  0  0  0  0
   36.1020   22.7080   31.9920 C   0  0  0  0  0  2  0  0  0  0  0  0
   37.5630   22.7270   32.3330 C   0  0  0  0  0  2  0  0  0  0  0  0
  1  7  1  6  0  0  0
  1  2  1  0  0  0  0
  1 22  1  0  0  0  0
  2  8  1  0  0  0  0
  2  9  1  0  0  0  0
  3 11  1  0  0  0  0
  3  2  1  0  0  0  0
  4 12  1  0  0  0  0
  4  3  1  0  0  0  0
  5  4  1  0  0  0  0
  5  6  1  0  0  0  0
  6 16  1  1  0  0  0
  6  1  1  0  0  0  0
 10  3  1  0  0  0  0
 13  4  1  0  0  0  0
 14  5  1  0  0  0  0
 15  5  1  0  0  0  0
 17 22  2  0  0  0  0
 17 18  1  0  0  0  0
 18 23  1  0  0  0  0
 18 19  2  0  0  0  0
 19 24  1  0  0  0  0
 20 19  1  0  0  0  0
 20 25  1  0  0  0  0
 21 26  1  0  0  0  0
 21 20  2  0  0  0  0
 22 21  1  0  0  0  0
 27 28  1  0  0  0  0
 28 34  1  0  0  0  0
 28 29  2  0  0  0  0
 29 17  1  0  0  0  0
 30 29  1  0  0  0  0
 31 30  2  0  0  0  0
 32 31  1  0  0  0  0
 32 27  2  0  0  0  0
 33 27  1  0  0  0  0
 35 31  1  0  0  0  0
 36 43  1  6  0  0  0
 36  6  1  0  0  0  0
 36 37  1  0  0  0  0
 37 38  1  0  0  0  0
 39 40  1  0  0  0  0
 39 37  1  0  0  0  0
 41 39  1  0  0  0  0
 42 41  1  0  0  0  0
 42 43  1  0  0  0  0
M  END
>  <minimizedAffinity>
-5.1770072

$$$$

 OpenBabel03272503543D

 43 46  0  0  1  0  0  0  0  0999 V2000
   38.7150   23.1660   32.2680 C   0  0  1  0  0  0  0  0  0  0  0  0
   39.9310   23.5230   31.3690 C   0  0  0  0  0  0  0  0  0  0  0  0
   40.9800   22.4590   31.7530 C   0  0  0  0  0  0  0  0  0  0  0  0
   41.4550   22.8340   33.1170 C   0  0  0  0  0  0  0  0  0  0  0  0
   40.3090   22.7920   34.0990 C   0  0  0  0  0  0  0  0  0  0  0  0
   39.1290   23.6020   33.6420 C   0  0  2  0  0  0  0  0  0  0  0  0
   38.6210   22.0780   32.1310 H   0  0  0  0  0  0  0  0  0  0  0  0
   40.2920   24.5220   31.6860 H   0  0  0  0  0  0  0  0  0  0  0  0
   39.6680   23.4750   30.3030 H   0  0  0  0  0  0  0  0  0  0  0  0
   40.4280   21.4900   31.7530 H   0  0  0  0  0  0  0  0  0  0  0  0
   41.7810   22.4860   31.0110 H   0  0  0  0  0  0  0  0  0  0  0  0
   41.8550   23.8710   33.0430 H   0  0  0  0  0  0  0  0  0  0  0  0
   42.2070   22.1160   33.4810 H   0  0  0  0  0  0  0  0  0  0  0  0
   40.0860   21.7350   34.2800 H   0  0  0  0  0  0  0  0  0  0  0  0
   40.7020   23.2500   35.0300 H   0  0  0  0  0  0  0  0  0  0  0  0
   39.4980   24.6580   33.5750 H   0  0  0  0  0  0  0  0  0  0  0  0
   36.2900   23.1870   31.6220 C   0  0  0  0  0  0  0  0  0  0  0  0
   35.1650   23.8920   31.2180 C   0  0  0  0  0  0  0  0  0  0  0  0
   35.2450   25.2690   30.9710 C   0  0  0  0  0  0  0  0  0  0  0  0
   36.4740   25.8810   31.1470 C   0  0  0  0  0  0  0  0  0  0  0  0
   37.5890   25.1920   31.5470 C   0  0  0  0  0  0  0  0  0  0  0  0
   37.4900   23.8070   31.7900 C   0  0  0  0  0  0  0  0  0  0  0  0
   34.1980   23.4240   31.0770 H   0  0  0  0  0  0  0  0  0  0  0  0
   34.3860   25.8470   30.6550 H   0  0  0  0  0  0  0  0  0  0  0  0
   36.4980   26.9570   30.9450 H   0  0  0  0  0  0  0  0  0  0  0  0
   38.4800   25.7900   31.6430 H   0  0  0  0  0  0  0  0  0  0  0  0
   35.4930   19.8020   33.0960 C   0  0  0  0  0  0  0  0  0  0  0  0
   35.6630   21.1980   33.0250 C   0  0  0  0  0  0  0  0  0  0  0  0
   36.0870   21.7660   31.8250 C   0  0  0  0  0  0  0  0  0  0  0  0
   36.3080   20.9150   30.8050 N   0  0  0  0  0  0  0  0  0  0  0  0
   36.1450   19.5810   30.8770 C   0  0  0  0  0  0  0  0  0  0  0  0
   35.7420   19.0380   32.0150 N   0  0  0  0  0  0  0  0  0  0  0  0
   35.1630   19.4320   34.0540 H   0  0  0  0  0  0  0  0  0  0  0  0
   35.4880   21.8810   33.8360 H   0  0  0  0  0  0  0  0  0  0  0  0
   36.3550   19.0160   29.9920 H   0  0  0  0  0  0  0  0  0  0  0  0
   38.0870   23.5750   34.6020 N   0  0  2  0  0  0  0  0  0  0  0  0
   37.9460   24.8320   35.2590 C   0  0  0  0  0  3  0  0  0  0  0  0
   38.3500   25.6840   34.7170 H   0  0  0  0  0  0  0  0  0  0  0  0
   38.4360   24.7600   36.6860 C   0  0  0  0  0  3  0  0  0  0  0  0
   38.3350   25.7760   37.1370 H   0  0  0  0  0  0  0  0  0  0  0  0
   37.6310   23.8920   37.4110 O   0  0  0  0  0  0  0  0  0  0  0  0
   37.3240   22.7220   36.7510 C   0  0  0  0  0  2  0  0  0  0  0  0
   38.1260   22.4650   35.5100 C   0  0  0  0  0  2  0  0  0  0  0  0
  1  7  1  6  0  0  0
  1  6  1  0  0  0  0
  2  8  1  0  0  0  0
  2  3  1  0  0  0  0
  2  1  1  0  0  0  0
  3  4  1  0  0  0  0
  4 13  1  0  0  0  0
  4  5  1  0  0  0  0
  5 14  1  0  0  0  0
  5 15  1  0  0  0  0
  6 16  1  6  0  0  0
  6  5  1  0  0  0  0
  6 36  1  0  0  0  0
  9  2  1  0  0  0  0
 10  3  1  0  0  0  0
 11  3  1  0  0  0  0
 12  4  1  0  0  0  0
 17 22  1  0  0  0  0
 17 29  1  0  0  0  0
 18 17  2  0  0  0  0
 19 20  2  0  0  0  0
 19 18  1  0  0  0  0
 20 21  1  0  0  0  0
 21 26  1  0  0  0  0
 21 22  2  0  0  0  0
 22  1  1  0  0  0  0
 23 18  1  0  0  0  0
 24 19  1  0  0  0  0
 25 20  1  0  0  0  0
 27 33  1  0  0  0  0
 28 27  1  0  0  0  0
 28 34  1  0  0  0  0
 29 28  2  0  0  0  0
 30 31  2  0  0  0  0
 30 29  1  0  0  0  0
 31 32  1  0  0  0  0
 32 27  2  0  0  0  0
 35 31  1  0  0  0  0
 36 37  1  0  0  0  0
 36 43  1  1  0  0  0
 37 39  1  0  0  0  0
 38 37  1  0  0  0  0
 39 40  1  0  0  0  0
 39 41  1  0  0  0  0
 42 41  1  0  0  0  0
 43 42  1  0  0  0  0
M  END
>  <minimizedAffinity>
-5.12345695

$$$$

 OpenBabel03272503543D

 43 46  0  0  1  0  0  0  0  0999 V2000
   39.9030   26.0000   33.9160 C   0  0  1  0  0  0  0  0  0  0  0  0
   41.0460   26.9050   34.4500 C   0  0  0  0  0  0  0  0  0  0  0  0
   42.3050   26.0340   34.2650 C   0  0  0  0  0  0  0  0  0  0  0  0
   42.2140   24.9650   35.3030 C   0  0  0  0  0  0  0  0  0  0  0  0
   40.9790   24.1250   35.0810 C   0  0  0  0  0  0  0  0  0  0  0  0
   39.7300   24.9540   34.9760 C   0  0  2  0  0  0  0  0  0  0  0  0
   40.3080   25.6340   32.9590 H   0  0  0  0  0  0  0  0  0  0  0  0
   40.8650   27.0580   35.5340 H   0  0  0  0  0  0  0  0  0  0  0  0
   41.1100   27.8450   33.8850 H   0  0  0  0  0  0  0  0  0  0  0  0
   42.2270   25.6210   33.2310 H   0  0  0  0  0  0  0  0  0  0  0  0
   43.1830   26.6690   34.3970 H   0  0  0  0  0  0  0  0  0  0  0  0
   42.1520   25.4810   36.2880 H   0  0  0  0  0  0  0  0  0  0  0  0
   43.0750   24.2810   35.2390 H   0  0  0  0  0  0  0  0  0  0  0  0
   41.1770   23.4960   34.2070 H   0  0  0  0  0  0  0  0  0  0  0  0
   40.8930   23.4840   35.9830 H   0  0  0  0  0  0  0  0  0  0  0  0
   39.6300   25.4730   35.9630 H   0  0  0  0  0  0  0  0  0  0  0  0
   38.0440   26.8340   32.4500 C   0  0  0  0  0  0  0  0  0  0  0  0
   36.8630   27.5490   32.3050 C   0  0  0  0  0  0  0  0  0  0  0  0
   36.3110   28.2300   33.3980 C   0  0  0  0  0  0  0  0  0  0  0  0
   36.9830   28.1560   34.6050 C   0  0  0  0  0  0  0  0  0  0  0  0
   38.1480   27.4510   34.7570 C   0  0  0  0  0  0  0  0  0  0  0  0
   38.6900   26.7720   33.6460 C   0  0  0  0  0  0  0  0  0  0  0  0
   36.3280   27.6140   31.3650 H   0  0  0  0  0  0  0  0  0  0  0  0
   35.3910   28.7970   33.3170 H   0  0  0  0  0  0  0  0  0  0  0  0
   36.5210   28.7000   35.4360 H   0  0  0  0  0  0  0  0  0  0  0  0
   38.5670   27.4780   35.7490 H   0  0  0  0  0  0  0  0  0  0  0  0
   39.7330   26.0850   29.1550 C   0  0  0  0  0  0  0  0  0  0  0  0
   39.3160   26.8200   30.2830 C   0  0  0  0  0  0  0  0  0  0  0  0
   38.5280   26.1910   31.2440 C   0  0  0  0  0  0  0  0  0  0  0  0
   38.2190   24.9010   31.0150 N   0  0  0  0  0  0  0  0  0  0  0  0
   38.6180   24.2020   29.9360 C   0  0  0  0  0  0  0  0  0  0  0  0
   39.3670   24.7960   29.0200 N   0  0  0  0  0  0  0  0  0  0  0  0
   40.3390   26.6340   28.4530 H   0  0  0  0  0  0  0  0  0  0  0  0
   39.5600   27.8490   30.4700 H   0  0  0  0  0  0  0  0  0  0  0  0
   38.3030   23.1800   29.8730 H   0  0  0  0  0  0  0  0  0  0  0  0
   38.5860   24.1350   34.8080 N   0  0  2  0  0  0  0  0  0  0  0  0
   37.8520   24.0030   36.0230 C   0  0  0  0  0  3  0  0  0  0  0  0
   38.0250   24.7890   36.7550 H   0  0  0  0  0  0  0  0  0  0  0  0
   38.0060   22.6180   36.6050 C   0  0  0  0  0  3  0  0  0  0  0  0
   37.4420   22.5840   37.5680 H   0  0  0  0  0  0  0  0  0  0  0  0
   37.4360   21.6870   35.7470 O   0  0  0  0  0  0  0  0  0  0  0  0
   37.7320   21.8880   34.4170 C   0  0  0  0  0  2  0  0  0  0  0  0
   38.8270   22.8800   34.1550 C   0  0  0  0  0  2  0  0  0  0  0  0
  1  7  1  6  0  0  0
  1  2  1  0  0  0  0
  1  6  1  0  0  0  0
  2  8  1  0  0  0  0
  3 11  1  0  0  0  0
  3  2  1  0  0  0  0
  3  4  1  0  0  0  0
  4 12  1  0  0  0  0
  5  4  1  0  0  0  0
  5 15  1  0  0  0  0
  6  5  1  0  0  0  0
  6 16  1  1  0  0  0
  9  2  1  0  0  0  0
 10  3  1  0  0  0  0
 13  4  1  0  0  0  0
 14  5  1  0  0  0  0
 17 22  1  0  0  0  0
 18 17  2  0  0  0  0
 18 19  1  0  0  0  0
 19 20  2  0  0  0  0
 20 21  1  0  0  0  0
 20 25  1  0  0  0  0
 21 26  1  0  0  0  0
 22  1  1  0  0  0  0
 22 21  2  0  0  0  0
 23 18  1  0  0  0  0
 24 19  1  0  0  0  0
 27 28  1  0  0  0  0
 28 34  1  0  0  0  0
 28 29  2  0  0  0  0
 29 17  1  0  0  0  0
 30 29  1  0  0  0  0
 31 30  2  0  0  0  0
 32 27  2  0  0  0  0
 32 31  1  0  0  0  0
 33 27  1  0  0  0  0
 35 31  1  0  0  0  0
 36 43  1  1  0  0  0
 36  6  1  0  0  0  0
 36 37  1  0  0  0  0
 37 39  1  0  0  0  0
 37 38  1  0  0  0  0
 39 40  1  0  0  0  0
 41 39  1  0  0  0  0
 42 41  1  0  0  0  0
 43 42  1  0  0  0  0
M  END
>  <minimizedAffinity>
-5.10224771

$$$$
