
 OpenBabel03272503533D

 43 46  0  0  1  0  0  0  0  0999 V2000
   36.3230   30.1040   45.9600 C   0  0  1  0  0  0  0  0  0  0  0  0
   34.9290   30.1460   45.2760 C   0  0  0  0  0  0  0  0  0  0  0  0
   35.1440   29.3340   43.9830 C   0  0  0  0  0  0  0  0  0  0  0  0
   35.9760   30.2000   43.0950 C   0  0  0  0  0  0  0  0  0  0  0  0
   37.3100   30.4820   43.7440 C   0  0  0  0  0  0  0  0  0  0  0  0
   37.1690   31.0280   45.1370 C   0  0  2  0  0  0  0  0  0  0  0  0
   36.5940   29.0380   45.8970 H   0  0  0  0  0  0  0  0  0  0  0  0
   34.7240   31.2040   45.0130 H   0  0  0  0  0  0  0  0  0  0  0  0
   34.1540   29.7010   45.9160 H   0  0  0  0  0  0  0  0  0  0  0  0
   35.6890   28.4140   44.3010 H   0  0  0  0  0  0  0  0  0  0  0  0
   34.1650   29.1140   43.5510 H   0  0  0  0  0  0  0  0  0  0  0  0
   35.4120   31.1500   42.9550 H   0  0  0  0  0  0  0  0  0  0  0  0
   36.1910   29.6920   42.1420 H   0  0  0  0  0  0  0  0  0  0  0  0
   37.8950   29.5590   43.6790 H   0  0  0  0  0  0  0  0  0  0  0  0
   37.7840   31.2630   43.1140 H   0  0  0  0  0  0  0  0  0  0  0  0
   36.6190   31.9970   45.0260 H   0  0  0  0  0  0  0  0  0  0  0  0
   35.3660   29.9600   48.2760 C   0  0  0  0  0  0  0  0  0  0  0  0
   35.3990   30.3400   49.6110 C   0  0  0  0  0  0  0  0  0  0  0  0
   36.3410   31.2790   50.0550 C   0  0  0  0  0  0  0  0  0  0  0  0
   37.2180   31.7980   49.1190 C   0  0  0  0  0  0  0  0  0  0  0  0
   37.1920   31.4270   47.8000 C   0  0  0  0  0  0  0  0  0  0  0  0
   36.2380   30.4810   47.3710 C   0  0  0  0  0  0  0  0  0  0  0  0
   34.7180   29.9410   50.3520 H   0  0  0  0  0  0  0  0  0  0  0  0
   36.3920   31.5960   51.0890 H   0  0  0  0  0  0  0  0  0  0  0  0
   37.9390   32.5270   49.5030 H   0  0  0  0  0  0  0  0  0  0  0  0
   37.9300   31.9090   47.1800 H   0  0  0  0  0  0  0  0  0  0  0  0
   33.3770   26.7920   47.7520 C   0  0  0  0  0  0  0  0  0  0  0  0
   34.4550   27.6240   48.1160 C   0  0  0  0  0  0  0  0  0  0  0  0
   34.3350   29.0000   47.9340 C   0  0  0  0  0  0  0  0  0  0  0  0
   33.1730   29.4370   47.4130 N   0  0  0  0  0  0  0  0  0  0  0  0
   32.1460   28.6390   47.0660 C   0  0  0  0  0  0  0  0  0  0  0  0
   32.2560   27.3300   47.2370 N   0  0  0  0  0  0  0  0  0  0  0  0
   33.5390   25.7390   47.9200 H   0  0  0  0  0  0  0  0  0  0  0  0
   35.3830   27.2800   48.5320 H   0  0  0  0  0  0  0  0  0  0  0  0
   31.2760   29.1130   46.6610 H   0  0  0  0  0  0  0  0  0  0  0  0
   38.4350   31.3200   45.7030 N   0  0  2  0  0  0  0  0  0  0  0  0
   38.7640   32.7000   45.5680 C   0  0  0  0  0  3  0  0  0  0  0  0
   37.9150   33.3640   45.4190 H   0  0  0  0  0  0  0  0  0  0  0  0
   39.8540   32.9030   44.5430 C   0  0  0  0  0  3  0  0  0  0  0  0
   40.0440   34.0000   44.4550 H   0  0  0  0  0  0  0  0  0  0  0  0
   41.0260   32.3050   44.9850 O   0  0  0  0  0  0  0  0  0  0  0  0
   40.8490   31.0520   45.5310 C   0  0  0  0  0  2  0  0  0  0  0  0
   39.4980   30.4450   45.2980 C   0  0  0  0  0  2  0  0  0  0  0  0
  1  7  1  6  0  0  0
  1 22  1  0  0  0  0
  2  9  1  0  0  0  0
  2  1  1  0  0  0  0
  3 10  1  0  0  0  0
  3  2  1  0  0  0  0
  4  5  1  0  0  0  0
  4  3  1  0  0  0  0
  5  6  1  0  0  0  0
  6 16  1  6  0  0  0
  6 36  1  0  0  0  0
  6  1  1  0  0  0  0
  8  2  1  0  0  0  0
 11  3  1  0  0  0  0
 12  4  1  0  0  0  0
 13  4  1  0  0  0  0
 14  5  1  0  0  0  0
 15  5  1  0  0  0  0
 17 18  1  0  0  0  0
 18 19  2  0  0  0  0
 18 23  1  0  0  0  0
 19 24  1  0  0  0  0
 20 25  1  0  0  0  0
 20 19  1  0  0  0  0
 21 20  2  0  0  0  0
 22 21  1  0  0  0  0
 22 17  2  0  0  0  0
 26 21  1  0  0  0  0
 27 33  1  0  0  0  0
 27 28  1  0  0  0  0
 28 34  1  0  0  0  0
 29 28  2  0  0  0  0
 29 17  1  0  0  0  0
 30 29  1  0  0  0  0
 31 32  1  0  0  0  0
 31 30  2  0  0  0  0
 32 27  2  0  0  0  0
 35 31  1  0  0  0  0
 36 43  1  6  0  0  0
 37 36  1  0  0  0  0
 38 37  1  0  0  0  0
 39 41  1  0  0  0  0
 39 37  1  0  0  0  0
 40 39  1  0  0  0  0
 41 42  1  0  0  0  0
 43 42  1  0  0  0  0
M  END
>  <minimizedAffinity>
-5.77165079

>  <minimizedRMSD>
3.63378263

$$$$
