
 OpenBabel03272508293D

 41 44  0  0  1  0  0  0  0  0999 V2000
   37.5170   26.2320   33.6030 C   0  0  2  0  0  0  0  0  0  0  0  0
   36.7460   25.8010   32.3750 C   0  0  2  0  0  0  0  0  0  0  0  0
   37.5580   24.9290   31.7190 O   0  0  0  0  0  0  0  0  0  0  0  0
   38.4610   24.3700   32.5850 C   0  0  0  0  0  0  0  0  0  0  0  0
   38.1730   24.9060   33.9730 C   0  0  1  0  0  0  0  0  0  0  0  0
   38.2960   26.9780   33.3650 H   0  0  0  0  0  0  0  0  0  0  0  0
   35.8340   25.2910   32.7270 H   0  0  0  0  0  0  0  0  0  0  0  0
   39.5080   24.7060   32.3280 H   0  0  0  0  0  0  0  0  0  0  0  0
   38.4780   23.2720   32.5830 H   0  0  0  0  0  0  0  0  0  0  0  0
   37.4720   24.2320   34.4680 H   0  0  0  0  0  0  0  0  0  0  0  0
   37.1380   28.2960   31.7910 C   0  0  1  0  0  0  0  0  0  0  0  0
   36.4840   27.0300   31.5580 C   0  0  1  0  0  0  0  0  0  0  0  0
   37.4400   27.5000   30.5110 C   0  0  0  0  0  0  0  0  0  0  0  0
   38.1030   28.4710   32.3310 H   0  0  0  0  0  0  0  0  0  0  0  0
   35.3860   27.1120   31.3020 H   0  0  0  0  0  0  0  0  0  0  0  0
   37.0040   27.8490   29.5540 H   0  0  0  0  0  0  0  0  0  0  0  0
   38.4030   27.0110   30.3790 H   0  0  0  0  0  0  0  0  0  0  0  0
   36.4310   29.6080   31.4820 C   0  0  0  0  0  0  0  0  0  0  0  0
   35.1090   29.7320   31.9110 C   0  0  0  0  0  0  0  0  0  0  0  0
   34.4980   30.9390   31.5760 C   0  0  0  0  0  0  0  0  0  0  0  0
   35.1740   31.9040   30.8790 N   0  0  0  0  0  0  0  0  0  0  0  0
   36.4560   31.7340   30.4860 C   0  0  0  0  0  0  0  0  0  0  0  0
   37.0910   30.5740   30.7910 N   0  0  0  0  0  0  0  0  0  0  0  0
   34.5940   28.9780   32.4510 H   0  0  0  0  0  0  0  0  0  0  0  0
   33.4700   31.1530   31.8550 H   0  0  0  0  0  0  0  0  0  0  0  0
   37.0080   32.4810   29.9350 H   0  0  0  0  0  0  0  0  0  0  0  0
   36.7050   26.6950   34.6280 O   0  0  0  0  0  0  0  0  0  0  0  0
   36.2240   25.9200   34.9940 H   0  0  0  0  0  0  0  0  0  0  0  0
   39.2990   25.0700   34.7370 O   0  0  0  0  0  0  0  0  0  0  0  0
   39.9460   23.1420   35.9880 C   0  0  2  0  0  3  0  0  0  0  0  0
   39.1930   24.4540   35.9760 C   0  0  2  0  0  3  0  0  0  0  0  0
   37.8660   24.1920   36.3160 O   0  0  0  0  0  0  0  0  0  0  0  0
   37.7890   24.1220   37.7090 C   0  0  0  0  0  2  0  0  0  0  0  0
   38.9160   23.2940   38.2840 C   0  0  2  0  0  3  0  0  0  0  0  0
   39.5340   22.3900   37.2390 C   0  0  2  0  0  3  0  0  0  0  0  0
   41.3050   23.4410   36.0810 O   0  0  0  0  0  0  0  0  0  0  0  0
   41.5690   23.4090   37.0410 H   0  0  0  0  0  0  0  0  0  0  0  0
   38.3710   22.4730   39.2700 O   0  0  0  0  0  0  0  0  0  0  0  0
   39.0510   21.8730   39.6760 H   0  0  0  0  0  0  0  0  0  0  0  0
   40.6070   21.7280   37.8350 O   0  0  0  0  0  0  0  0  0  0  0  0
   41.2200   21.3810   37.1210 H   0  0  0  0  0  0  0  0  0  0  0  0
  1  6  1  6  0  0  0
  1  5  1  0  0  0  0
  1 27  1  0  0  0  0
  2  7  1  1  0  0  0
  2  1  1  0  0  0  0
  3  2  1  0  0  0  0
  3  4  1  0  0  0  0
  4  5  1  0  0  0  0
  5 10  1  1  0  0  0
  5 29  1  0  0  0  0
  8  4  1  0  0  0  0
  9  4  1  0  0  0  0
 11 14  1  1  0  0  0
 12 15  1  6  0  0  0
 12 11  1  0  0  0  0
 12  2  1  0  0  0  0
 13 12  1  0  0  0  0
 13 11  1  0  0  0  0
 16 13  1  0  0  0  0
 17 13  1  0  0  0  0
 18 11  1  0  0  0  0
 18 19  1  0  0  0  0
 19 24  1  0  0  0  0
 20 25  1  0  0  0  0
 20 19  2  0  0  0  0
 21 20  1  0  0  0  0
 22 23  1  0  0  0  0
 22 21  2  0  0  0  0
 23 18  2  0  0  0  0
 26 22  1  0  0  0  0
 27 28  1  0  0  0  0
 30 36  1  1  0  0  0
 30 35  1  0  0  0  0
 31 29  1  6  0  0  0
 31 30  1  0  0  0  0
 31 32  1  0  0  0  0
 32 33  1  0  0  0  0
 33 34  1  0  0  0  0
 34 38  1  1  0  0  0
 35 40  1  1  0  0  0
 35 34  1  0  0  0  0
 36 37  1  0  0  0  0
 38 39  1  0  0  0  0
 41 40  1  0  0  0  0
M  END
>  <minimizedAffinity>
-5.83133793

$$$$

 OpenBabel03272508293D

 41 44  0  0  1  0  0  0  0  0999 V2000
   37.3550   25.9930   33.5460 C   0  0  2  0  0  0  0  0  0  0  0  0
   37.4580   27.5000   33.4610 C   0  0  2  0  0  0  0  0  0  0  0  0
   37.4240   27.9430   34.7470 O   0  0  0  0  0  0  0  0  0  0  0  0
   37.8310   26.9560   35.6050 C   0  0  0  0  0  0  0  0  0  0  0  0
   38.2170   25.7460   34.7800 C   0  0  1  0  0  0  0  0  0  0  0  0
   36.3210   25.6570   33.7420 H   0  0  0  0  0  0  0  0  0  0  0  0
   38.4310   27.7320   32.9970 H   0  0  0  0  0  0  0  0  0  0  0  0
   36.9700   26.6300   36.2610 H   0  0  0  0  0  0  0  0  0  0  0  0
   38.6440   27.2460   36.2830 H   0  0  0  0  0  0  0  0  0  0  0  0
   39.2820   25.8080   34.5480 H   0  0  0  0  0  0  0  0  0  0  0  0
   36.0450   29.3750   32.3620 C   0  0  1  0  0  0  0  0  0  0  0  0
   36.2740   27.9850   32.6800 C   0  0  1  0  0  0  0  0  0  0  0  0
   36.3840   28.3770   31.2440 C   0  0  0  0  0  0  0  0  0  0  0  0
   36.8030   30.1980   32.3400 H   0  0  0  0  0  0  0  0  0  0  0  0
   35.3440   27.4130   32.9710 H   0  0  0  0  0  0  0  0  0  0  0  0
   35.5730   28.0410   30.5680 H   0  0  0  0  0  0  0  0  0  0  0  0
   37.3530   28.4090   30.7500 H   0  0  0  0  0  0  0  0  0  0  0  0
   34.6310   29.9190   32.2190 C   0  0  0  0  0  0  0  0  0  0  0  0
   33.6410   29.3250   33.0010 C   0  0  0  0  0  0  0  0  0  0  0  0
   32.3600   29.8390   32.8090 C   0  0  0  0  0  0  0  0  0  0  0  0
   32.1290   30.8490   31.9140 N   0  0  0  0  0  0  0  0  0  0  0  0
   33.1270   31.3910   31.1800 C   0  0  0  0  0  0  0  0  0  0  0  0
   34.3910   30.9220   31.3340 N   0  0  0  0  0  0  0  0  0  0  0  0
   33.8290   28.5430   33.6930 H   0  0  0  0  0  0  0  0  0  0  0  0
   31.5040   29.4580   33.3610 H   0  0  0  0  0  0  0  0  0  0  0  0
   32.9680   32.1870   30.4670 H   0  0  0  0  0  0  0  0  0  0  0  0
   37.8690   25.3420   32.4340 O   0  0  0  0  0  0  0  0  0  0  0  0
   38.8460   25.4460   32.4590 H   0  0  0  0  0  0  0  0  0  0  0  0
   37.9290   24.5540   35.3930 O   0  0  0  0  0  0  0  0  0  0  0  0
   39.2150   23.3140   36.9790 C   0  0  2  0  0  3  0  0  0  0  0  0
   39.0510   23.7490   35.5380 C   0  0  2  0  0  3  0  0  0  0  0  0
   40.2180   24.4060   35.1510 O   0  0  0  0  0  0  0  0  0  0  0  0
   41.1530   23.4340   34.7870 C   0  0  0  0  0  2  0  0  0  0  0  0
   41.1950   22.3030   35.7890 C   0  0  2  0  0  3  0  0  0  0  0  0
   40.6010   22.7150   37.1190 C   0  0  2  0  0  3  0  0  0  0  0  0
   38.2740   22.3130   37.2220 O   0  0  0  0  0  0  0  0  0  0  0  0
   38.7120   21.4300   37.0810 H   0  0  0  0  0  0  0  0  0  0  0  0
   42.5350   21.9920   36.0140 O   0  0  0  0  0  0  0  0  0  0  0  0
   42.6440   21.2730   36.6900 H   0  0  0  0  0  0  0  0  0  0  0  0
   40.6090   21.5940   37.9500 O   0  0  0  0  0  0  0  0  0  0  0  0
   39.9540   21.7300   38.6970 H   0  0  0  0  0  0  0  0  0  0  0  0
  1  6  1  1  0  0  0
  1  5  1  0  0  0  0
  2  7  1  6  0  0  0
  2  1  1  0  0  0  0
  2  3  1  0  0  0  0
  3  4  1  0  0  0  0
  4  8  1  0  0  0  0
  4  9  1  0  0  0  0
  5 10  1  6  0  0  0
  5 29  1  0  0  0  0
  5  4  1  0  0  0  0
 11 14  1  1  0  0  0
 11 12  1  0  0  0  0
 12 15  1  1  0  0  0
 12  2  1  0  0  0  0
 13 11  1  0  0  0  0
 13 12  1  0  0  0  0
 16 13  1  0  0  0  0
 17 13  1  0  0  0  0
 18 11  1  0  0  0  0
 18 19  1  0  0  0  0
 19 24  1  0  0  0  0
 20 19  2  0  0  0  0
 20 25  1  0  0  0  0
 21 20  1  0  0  0  0
 22 23  1  0  0  0  0
 22 21  2  0  0  0  0
 23 18  2  0  0  0  0
 26 22  1  0  0  0  0
 27 28  1  0  0  0  0
 27  1  1  0  0  0  0
 30 35  1  0  0  0  0
 30 36  1  6  0  0  0
 31 29  1  1  0  0  0
 31 30  1  0  0  0  0
 32 31  1  0  0  0  0
 33 32  1  0  0  0  0
 33 34  1  0  0  0  0
 34 38  1  1  0  0  0
 34 35  1  0  0  0  0
 35 40  1  1  0  0  0
 37 36  1  0  0  0  0
 38 39  1  0  0  0  0
 40 41  1  0  0  0  0
M  END
>  <minimizedAffinity>
-5.7929306

$$$$

 OpenBabel03272508293D

 41 44  0  0  1  0  0  0  0  0999 V2000
   37.1520   26.6430   33.5230 C   0  0  2  0  0  0  0  0  0  0  0  0
   37.2210   28.0490   34.0760 C   0  0  2  0  0  0  0  0  0  0  0  0
   37.6940   27.9230   35.3450 O   0  0  0  0  0  0  0  0  0  0  0  0
   38.4000   26.7560   35.4800 C   0  0  0  0  0  0  0  0  0  0  0  0
   38.4270   26.0660   34.1310 C   0  0  1  0  0  0  0  0  0  0  0  0
   36.2760   26.0890   33.9040 H   0  0  0  0  0  0  0  0  0  0  0  0
   37.9360   28.6090   33.4490 H   0  0  0  0  0  0  0  0  0  0  0  0
   37.8620   26.0540   36.1830 H   0  0  0  0  0  0  0  0  0  0  0  0
   39.4140   26.8780   35.8800 H   0  0  0  0  0  0  0  0  0  0  0  0
   39.3170   26.3930   33.5900 H   0  0  0  0  0  0  0  0  0  0  0  0
   35.4970   29.9380   34.5030 C   0  0  1  0  0  0  0  0  0  0  0  0
   35.8280   28.6040   34.0600 C   0  0  1  0  0  0  0  0  0  0  0  0
   35.3760   29.5700   33.0160 C   0  0  0  0  0  0  0  0  0  0  0  0
   36.1890   30.8120   34.5940 H   0  0  0  0  0  0  0  0  0  0  0  0
   35.0810   27.8120   34.3630 H   0  0  0  0  0  0  0  0  0  0  0  0
   34.3660   29.4120   32.5890 H   0  0  0  0  0  0  0  0  0  0  0  0
   36.0800   29.9710   32.2890 H   0  0  0  0  0  0  0  0  0  0  0  0
   34.1380   30.2400   35.1190 C   0  0  0  0  0  0  0  0  0  0  0  0
   34.0060   31.4480   35.8020 C   0  0  0  0  0  0  0  0  0  0  0  0
   32.7530   31.6610   36.3730 C   0  0  0  0  0  0  0  0  0  0  0  0
   31.7530   30.7330   36.2520 N   0  0  0  0  0  0  0  0  0  0  0  0
   31.9340   29.5760   35.5770 C   0  0  0  0  0  0  0  0  0  0  0  0
   33.1380   29.3260   35.0040 N   0  0  0  0  0  0  0  0  0  0  0  0
   34.7870   32.1610   35.8910 H   0  0  0  0  0  0  0  0  0  0  0  0
   32.5270   32.5660   36.9310 H   0  0  0  0  0  0  0  0  0  0  0  0
   31.1600   28.8300   35.4690 H   0  0  0  0  0  0  0  0  0  0  0  0
   37.1880   26.5930   32.1380 O   0  0  0  0  0  0  0  0  0  0  0  0
   38.0970   26.8390   31.8590 H   0  0  0  0  0  0  0  0  0  0  0  0
   38.3960   24.6980   34.2190 O   0  0  0  0  0  0  0  0  0  0  0  0
   39.7890   23.3450   35.6100 C   0  0  2  0  0  3  0  0  0  0  0  0
   38.5770   24.2470   35.5190 C   0  0  2  0  0  3  0  0  0  0  0  0
   37.4720   23.5320   35.9810 O   0  0  0  0  0  0  0  0  0  0  0  0
   37.4680   23.6100   37.3760 C   0  0  0  0  0  2  0  0  0  0  0  0
   38.8460   23.3650   37.9480 C   0  0  2  0  0  3  0  0  0  0  0  0
   39.7420   22.6530   36.9580 C   0  0  2  0  0  3  0  0  0  0  0  0
   40.9190   24.1610   35.5710 O   0  0  0  0  0  0  0  0  0  0  0  0
   41.2010   24.3520   36.5070 H   0  0  0  0  0  0  0  0  0  0  0  0
   38.6980   22.5250   39.0500 O   0  0  0  0  0  0  0  0  0  0  0  0
   39.5710   22.2930   39.4640 H   0  0  0  0  0  0  0  0  0  0  0  0
   41.0060   22.5410   37.5370 O   0  0  0  0  0  0  0  0  0  0  0  0
   41.6870   22.3750   36.8190 H   0  0  0  0  0  0  0  0  0  0  0  0
  1  6  1  1  0  0  0
  1  2  1  0  0  0  0
  1  5  1  0  0  0  0
  2  7  1  6  0  0  0
  2  3  1  0  0  0  0
  3  4  1  0  0  0  0
  4  9  1  0  0  0  0
  4  8  1  0  0  0  0
  5 10  1  6  0  0  0
  5 29  1  0  0  0  0
  5  4  1  0  0  0  0
 11 14  1  1  0  0  0
 11 18  1  0  0  0  0
 12  2  1  0  0  0  0
 12 15  1  1  0  0  0
 12 11  1  0  0  0  0
 13 12  1  0  0  0  0
 13 11  1  0  0  0  0
 16 13  1  0  0  0  0
 17 13  1  0  0  0  0
 18 19  1  0  0  0  0
 19 24  1  0  0  0  0
 19 20  2  0  0  0  0
 20 25  1  0  0  0  0
 21 20  1  0  0  0  0
 22 21  2  0  0  0  0
 23 18  2  0  0  0  0
 23 22  1  0  0  0  0
 26 22  1  0  0  0  0
 27  1  1  0  0  0  0
 28 27  1  0  0  0  0
 30 36  1  1  0  0  0
 30 35  1  0  0  0  0
 31 29  1  6  0  0  0
 31 30  1  0  0  0  0
 31 32  1  0  0  0  0
 32 33  1  0  0  0  0
 33 34  1  0  0  0  0
 34 38  1  1  0  0  0
 35 40  1  1  0  0  0
 35 34  1  0  0  0  0
 36 37  1  0  0  0  0
 38 39  1  0  0  0  0
 41 40  1  0  0  0  0
M  END
>  <minimizedAffinity>
-5.7869792

$$$$

 OpenBabel03272508293D

 41 44  0  0  1  0  0  0  0  0999 V2000
   36.9190   27.8280   34.5270 C   0  0  2  0  0  0  0  0  0  0  0  0
   38.0020   27.3310   33.5950 C   0  0  2  0  0  0  0  0  0  0  0  0
   37.4050   27.1880   32.3810 O   0  0  0  0  0  0  0  0  0  0  0  0
   36.2960   27.9870   32.2940 C   0  0  0  0  0  0  0  0  0  0  0  0
   36.1830   28.7750   33.5840 C   0  0  1  0  0  0  0  0  0  0  0  0
   36.2390   27.0170   34.8430 H   0  0  0  0  0  0  0  0  0  0  0  0
   38.7780   28.1140   33.5540 H   0  0  0  0  0  0  0  0  0  0  0  0
   35.3630   27.3520   32.2300 H   0  0  0  0  0  0  0  0  0  0  0  0
   36.2780   28.6530   31.4230 H   0  0  0  0  0  0  0  0  0  0  0  0
   36.7170   29.7190   33.4620 H   0  0  0  0  0  0  0  0  0  0  0  0
   37.7960   25.2750   35.1600 C   0  0  1  0  0  0  0  0  0  0  0  0
   38.4850   26.0170   34.1300 C   0  0  1  0  0  0  0  0  0  0  0  0
   37.8580   24.7230   33.7270 C   0  0  0  0  0  0  0  0  0  0  0  0
   36.7210   25.3660   35.4550 H   0  0  0  0  0  0  0  0  0  0  0  0
   39.6110   26.0160   34.2270 H   0  0  0  0  0  0  0  0  0  0  0  0
   38.5430   23.8790   33.5130 H   0  0  0  0  0  0  0  0  0  0  0  0
   36.9680   24.7100   33.1020 H   0  0  0  0  0  0  0  0  0  0  0  0
   38.5670   24.3960   36.1340 C   0  0  0  0  0  0  0  0  0  0  0  0
   39.7990   23.9030   35.7060 C   0  0  0  0  0  0  0  0  0  0  0  0
   40.4480   23.0790   36.6230 C   0  0  0  0  0  0  0  0  0  0  0  0
   39.8890   22.7960   37.8400 N   0  0  0  0  0  0  0  0  0  0  0  0
   38.6890   23.3010   38.2070 C   0  0  0  0  0  0  0  0  0  0  0  0
   38.0210   24.1090   37.3450 N   0  0  0  0  0  0  0  0  0  0  0  0
   40.2250   24.1280   34.7600 H   0  0  0  0  0  0  0  0  0  0  0  0
   41.4150   22.6340   36.4040 H   0  0  0  0  0  0  0  0  0  0  0  0
   38.2290   23.0900   39.1610 H   0  0  0  0  0  0  0  0  0  0  0  0
   37.4110   28.5020   35.6340 O   0  0  0  0  0  0  0  0  0  0  0  0
   37.7690   29.3620   35.3190 H   0  0  0  0  0  0  0  0  0  0  0  0
   34.8880   29.0030   33.9710 O   0  0  0  0  0  0  0  0  0  0  0  0
   33.3780   30.4570   35.1160 C   0  0  2  0  0  3  0  0  0  0  0  0
   34.7980   29.9480   34.9840 C   0  0  2  0  0  3  0  0  0  0  0  0
   35.6280   31.0440   34.7490 O   0  0  0  0  0  0  0  0  0  0  0  0
   35.9170   31.6300   35.9840 C   0  0  0  0  0  2  0  0  0  0  0  0
   34.6760   31.7650   36.8370 C   0  0  2  0  0  3  0  0  0  0  0  0
   33.4150   31.6860   36.0040 C   0  0  2  0  0  3  0  0  0  0  0  0
   32.6390   29.4670   35.7630 O   0  0  0  0  0  0  0  0  0  0  0  0
   32.6240   29.6720   36.7380 H   0  0  0  0  0  0  0  0  0  0  0  0
   34.7060   33.0290   37.4230 O   0  0  0  0  0  0  0  0  0  0  0  0
   33.9010   33.2030   37.9790 H   0  0  0  0  0  0  0  0  0  0  0  0
   32.3280   31.7390   36.8760 O   0  0  0  0  0  0  0  0  0  0  0  0
   31.5150   31.3760   36.4150 H   0  0  0  0  0  0  0  0  0  0  0  0
  1  6  1  1  0  0  0
  1 27  1  0  0  0  0
  2  7  1  6  0  0  0
  2 12  1  0  0  0  0
  2  1  1  0  0  0  0
  3  2  1  0  0  0  0
  4  3  1  0  0  0  0
  4  5  1  0  0  0  0
  5 10  1  6  0  0  0
  5 29  1  0  0  0  0
  5  1  1  0  0  0  0
  8  4  1  0  0  0  0
  9  4  1  0  0  0  0
 11 14  1  1  0  0  0
 11 18  1  0  0  0  0
 12 15  1  1  0  0  0
 12 11  1  0  0  0  0
 13 12  1  0  0  0  0
 13 11  1  0  0  0  0
 16 13  1  0  0  0  0
 17 13  1  0  0  0  0
 18 23  1  0  0  0  0
 19 18  2  0  0  0  0
 19 20  1  0  0  0  0
 20 21  2  0  0  0  0
 21 22  1  0  0  0  0
 22 26  1  0  0  0  0
 23 22  2  0  0  0  0
 24 19  1  0  0  0  0
 25 20  1  0  0  0  0
 28 27  1  0  0  0  0
 30 36  1  1  0  0  0
 30 35  1  0  0  0  0
 31 29  1  6  0  0  0
 31 30  1  0  0  0  0
 32 31  1  0  0  0  0
 32 33  1  0  0  0  0
 33 34  1  0  0  0  0
 34 38  1  6  0  0  0
 35 34  1  0  0  0  0
 35 40  1  1  0  0  0
 36 37  1  0  0  0  0
 38 39  1  0  0  0  0
 41 40  1  0  0  0  0
M  END
>  <minimizedAffinity>
-5.70706177

$$$$

 OpenBabel03272508293D

 41 44  0  0  1  0  0  0  0  0999 V2000
   38.7720   25.1750   32.2340 C   0  0  2  0  0  0  0  0  0  0  0  0
   37.8360   25.5550   31.1080 C   0  0  2  0  0  0  0  0  0  0  0  0
   37.1280   26.6230   31.5630 O   0  0  0  0  0  0  0  0  0  0  0  0
   37.8170   27.2680   32.5560 C   0  0  0  0  0  0  0  0  0  0  0  0
   39.1480   26.5660   32.7360 C   0  0  1  0  0  0  0  0  0  0  0  0
   38.2540   24.6190   33.0350 H   0  0  0  0  0  0  0  0  0  0  0  0
   38.4650   25.8450   30.2480 H   0  0  0  0  0  0  0  0  0  0  0  0
   37.2710   27.1660   33.5400 H   0  0  0  0  0  0  0  0  0  0  0  0
   37.9590   28.3440   32.3900 H   0  0  0  0  0  0  0  0  0  0  0  0
   39.8850   27.0440   32.0870 H   0  0  0  0  0  0  0  0  0  0  0  0
   36.4030   23.5420   31.8920 C   0  0  1  0  0  0  0  0  0  0  0  0
   36.9490   24.3760   30.8470 C   0  0  1  0  0  0  0  0  0  0  0  0
   35.4720   24.4380   31.0600 C   0  0  0  0  0  0  0  0  0  0  0  0
   36.2740   23.8090   32.9720 H   0  0  0  0  0  0  0  0  0  0  0  0
   37.2970   23.8100   29.9320 H   0  0  0  0  0  0  0  0  0  0  0  0
   34.8330   23.9660   30.2870 H   0  0  0  0  0  0  0  0  0  0  0  0
   35.0120   25.3190   31.5030 H   0  0  0  0  0  0  0  0  0  0  0  0
   36.1280   22.0660   31.6480 C   0  0  0  0  0  0  0  0  0  0  0  0
   35.0640   21.4950   32.3470 C   0  0  0  0  0  0  0  0  0  0  0  0
   34.8750   20.1340   32.1110 C   0  0  0  0  0  0  0  0  0  0  0  0
   35.6900   19.4440   31.2540 N   0  0  0  0  0  0  0  0  0  0  0  0
   36.7080   20.0470   30.6000 C   0  0  0  0  0  0  0  0  0  0  0  0
   36.9300   21.3710   30.7990 N   0  0  0  0  0  0  0  0  0  0  0  0
   34.4390   22.0370   33.0100 H   0  0  0  0  0  0  0  0  0  0  0  0
   34.0790   19.5770   32.5980 H   0  0  0  0  0  0  0  0  0  0  0  0
   37.3630   19.5230   29.9190 H   0  0  0  0  0  0  0  0  0  0  0  0
   39.8910   24.4740   31.8080 O   0  0  0  0  0  0  0  0  0  0  0  0
   40.4630   25.1050   31.3190 H   0  0  0  0  0  0  0  0  0  0  0  0
   39.5870   26.5560   34.0340 O   0  0  0  0  0  0  0  0  0  0  0  0
   38.5380   25.5550   35.9320 C   0  0  2  0  0  3  0  0  0  0  0  0
   39.3410   25.3450   34.6670 C   0  0  2  0  0  3  0  0  0  0  0  0
   40.5220   24.6870   35.0100 O   0  0  0  0  0  0  0  0  0  0  0  0
   40.2370   23.3210   35.0970 C   0  0  0  0  0  2  0  0  0  0  0  0
   38.9580   23.0700   35.8620 C   0  0  2  0  0  3  0  0  0  0  0  0
   38.5780   24.2590   36.7180 C   0  0  2  0  0  3  0  0  0  0  0  0
   37.2190   25.8020   35.5540 O   0  0  0  0  0  0  0  0  0  0  0  0
   36.7180   24.9410   35.5790 H   0  0  0  0  0  0  0  0  0  0  0  0
   39.1890   21.9980   36.7230 O   0  0  0  0  0  0  0  0  0  0  0  0
   38.3960   21.7920   37.2850 H   0  0  0  0  0  0  0  0  0  0  0  0
   37.3530   23.9700   37.3210 O   0  0  0  0  0  0  0  0  0  0  0  0
   36.9240   24.8240   37.6250 H   0  0  0  0  0  0  0  0  0  0  0  0
  1  5  1  0  0  0  0
  1  6  1  1  0  0  0
  2  7  1  6  0  0  0
  2  3  1  0  0  0  0
  2  1  1  0  0  0  0
  3  4  1  0  0  0  0
  4  5  1  0  0  0  0
  4  8  1  0  0  0  0
  5 10  1  6  0  0  0
  5 29  1  0  0  0  0
  9  4  1  0  0  0  0
 11 14  1  1  0  0  0
 12 15  1  6  0  0  0
 12 13  1  0  0  0  0
 12  2  1  0  0  0  0
 12 11  1  0  0  0  0
 13 17  1  0  0  0  0
 13 11  1  0  0  0  0
 16 13  1  0  0  0  0
 18 11  1  0  0  0  0
 18 19  1  0  0  0  0
 19 24  1  0  0  0  0
 20 19  2  0  0  0  0
 20 25  1  0  0  0  0
 21 20  1  0  0  0  0
 22 23  1  0  0  0  0
 22 21  2  0  0  0  0
 23 18  2  0  0  0  0
 26 22  1  0  0  0  0
 27  1  1  0  0  0  0
 28 27  1  0  0  0  0
 30 36  1  6  0  0  0
 30 35  1  0  0  0  0
 31 29  1  1  0  0  0
 31 32  1  0  0  0  0
 31 30  1  0  0  0  0
 32 33  1  0  0  0  0
 33 34  1  0  0  0  0
 34 35  1  0  0  0  0
 34 38  1  1  0  0  0
 35 40  1  6  0  0  0
 36 37  1  0  0  0  0
 38 39  1  0  0  0  0
 40 41  1  0  0  0  0
M  END
>  <minimizedAffinity>
-5.69084024

$$$$

 OpenBabel03272508293D

 41 44  0  0  1  0  0  0  0  0999 V2000
   37.9190   25.6460   32.7860 C   0  0  2  0  0  0  0  0  0  0  0  0
   37.9440   27.1310   33.0790 C   0  0  2  0  0  0  0  0  0  0  0  0
   38.3790   27.2450   34.3630 O   0  0  0  0  0  0  0  0  0  0  0  0
   39.1010   26.1380   34.7250 C   0  0  0  0  0  0  0  0  0  0  0  0
   39.1840   25.2180   33.5230 C   0  0  1  0  0  0  0  0  0  0  0  0
   37.0410   25.1490   33.2350 H   0  0  0  0  0  0  0  0  0  0  0  0
   38.6690   27.5860   32.3830 H   0  0  0  0  0  0  0  0  0  0  0  0
   38.5530   25.5600   35.5270 H   0  0  0  0  0  0  0  0  0  0  0  0
   40.1000   26.3530   35.1250 H   0  0  0  0  0  0  0  0  0  0  0  0
   40.0840   25.4640   32.9580 H   0  0  0  0  0  0  0  0  0  0  0  0
   36.2270   29.0000   32.5540 C   0  0  1  0  0  0  0  0  0  0  0  0
   36.5440   27.6410   32.9240 C   0  0  1  0  0  0  0  0  0  0  0  0
   35.9230   27.8480   31.5820 C   0  0  0  0  0  0  0  0  0  0  0  0
   36.8940   29.7320   32.0330 H   0  0  0  0  0  0  0  0  0  0  0  0
   35.8710   27.2050   33.7210 H   0  0  0  0  0  0  0  0  0  0  0  0
   34.8720   27.5220   31.4590 H   0  0  0  0  0  0  0  0  0  0  0  0
   36.5110   27.7230   30.6750 H   0  0  0  0  0  0  0  0  0  0  0  0
   34.9520   29.6660   33.0500 C   0  0  0  0  0  0  0  0  0  0  0  0
   34.5770   29.4150   34.3700 C   0  0  0  0  0  0  0  0  0  0  0  0
   33.3870   30.0230   34.7630 C   0  0  0  0  0  0  0  0  0  0  0  0
   32.6680   30.8010   33.8950 N   0  0  0  0  0  0  0  0  0  0  0  0
   33.0770   31.0130   32.6240 C   0  0  0  0  0  0  0  0  0  0  0  0
   34.2310   30.4400   32.1970 N   0  0  0  0  0  0  0  0  0  0  0  0
   35.1400   28.8110   35.0350 H   0  0  0  0  0  0  0  0  0  0  0  0
   32.9900   29.9020   35.7680 H   0  0  0  0  0  0  0  0  0  0  0  0
   32.5260   31.6220   31.9220 H   0  0  0  0  0  0  0  0  0  0  0  0
   38.0000   25.3500   31.4340 O   0  0  0  0  0  0  0  0  0  0  0  0
   38.9130   25.5640   31.1410 H   0  0  0  0  0  0  0  0  0  0  0  0
   39.1740   23.8880   33.8550 O   0  0  0  0  0  0  0  0  0  0  0  0
   40.1640   22.7300   35.6940 C   0  0  2  0  0  3  0  0  0  0  0  0
   39.0870   23.6840   35.2250 C   0  0  2  0  0  3  0  0  0  0  0  0
   37.8510   23.1550   35.5950 O   0  0  0  0  0  0  0  0  0  0  0  0
   37.6230   23.5000   36.9300 C   0  0  0  0  0  2  0  0  0  0  0  0
   38.8530   23.2700   37.7790 C   0  0  2  0  0  3  0  0  0  0  0  0
   39.8210   22.3160   37.1120 C   0  0  2  0  0  3  0  0  0  0  0  0
   41.3660   23.4370   35.7200 O   0  0  0  0  0  0  0  0  0  0  0  0
   41.5070   23.7850   36.6430 H   0  0  0  0  0  0  0  0  0  0  0  0
   38.4350   22.6710   38.9670 O   0  0  0  0  0  0  0  0  0  0  0  0
   39.1980   22.4600   39.5680 H   0  0  0  0  0  0  0  0  0  0  0  0
   40.9520   22.2260   37.9240 O   0  0  0  0  0  0  0  0  0  0  0  0
   41.7200   21.8750   37.3840 H   0  0  0  0  0  0  0  0  0  0  0  0
  1  2  1  0  0  0  0
  1  6  1  1  0  0  0
  1  5  1  0  0  0  0
  2  7  1  6  0  0  0
  2  3  1  0  0  0  0
  3  4  1  0  0  0  0
  4  9  1  0  0  0  0
  4  8  1  0  0  0  0
  5 10  1  6  0  0  0
  5 29  1  0  0  0  0
  5  4  1  0  0  0  0
 11 14  1  6  0  0  0
 11 12  1  0  0  0  0
 11 18  1  0  0  0  0
 12  2  1  0  0  0  0
 12 15  1  1  0  0  0
 13 11  1  0  0  0  0
 13 12  1  0  0  0  0
 16 13  1  0  0  0  0
 17 13  1  0  0  0  0
 18 19  1  0  0  0  0
 19 20  2  0  0  0  0
 19 24  1  0  0  0  0
 20 25  1  0  0  0  0
 21 20  1  0  0  0  0
 22 21  2  0  0  0  0
 23 22  1  0  0  0  0
 23 18  2  0  0  0  0
 26 22  1  0  0  0  0
 27  1  1  0  0  0  0
 28 27  1  0  0  0  0
 30 36  1  1  0  0  0
 30 35  1  0  0  0  0
 31 29  1  6  0  0  0
 31 32  1  0  0  0  0
 31 30  1  0  0  0  0
 32 33  1  0  0  0  0
 33 34  1  0  0  0  0
 34 38  1  1  0  0  0
 35 34  1  0  0  0  0
 35 40  1  1  0  0  0
 36 37  1  0  0  0  0
 38 39  1  0  0  0  0
 41 40  1  0  0  0  0
M  END
>  <minimizedAffinity>
-5.6439147

$$$$

 OpenBabel03272508293D

 41 44  0  0  1  0  0  0  0  0999 V2000
   38.2340   27.1170   34.8570 C   0  0  2  0  0  0  0  0  0  0  0  0
   36.8190   27.1770   34.3240 C   0  0  2  0  0  0  0  0  0  0  0  0
   36.7800   26.3010   33.2850 O   0  0  0  0  0  0  0  0  0  0  0  0
   37.7630   25.3560   33.4170 C   0  0  0  0  0  0  0  0  0  0  0  0
   38.4980   25.6220   34.7150 C   0  0  1  0  0  0  0  0  0  0  0  0
   38.9410   27.6810   34.2220 H   0  0  0  0  0  0  0  0  0  0  0  0
   36.1530   26.8440   35.1380 H   0  0  0  0  0  0  0  0  0  0  0  0
   38.5270   25.4710   32.5920 H   0  0  0  0  0  0  0  0  0  0  0  0
   37.4100   24.3180   33.3700 H   0  0  0  0  0  0  0  0  0  0  0  0
   38.0170   25.0490   35.5110 H   0  0  0  0  0  0  0  0  0  0  0  0
   35.3640   29.0030   33.1970 C   0  0  1  0  0  0  0  0  0  0  0  0
   36.5720   28.5830   33.8680 C   0  0  1  0  0  0  0  0  0  0  0  0
   35.6690   29.5080   34.6160 C   0  0  0  0  0  0  0  0  0  0  0  0
   34.3690   28.4920   33.2120 H   0  0  0  0  0  0  0  0  0  0  0  0
   37.5200   29.0400   33.4540 H   0  0  0  0  0  0  0  0  0  0  0  0
   36.0150   30.5530   34.7450 H   0  0  0  0  0  0  0  0  0  0  0  0
   35.0900   29.1510   35.4650 H   0  0  0  0  0  0  0  0  0  0  0  0
   35.3910   30.1350   32.1800 C   0  0  0  0  0  0  0  0  0  0  0  0
   34.2000   30.8330   31.9760 C   0  0  0  0  0  0  0  0  0  0  0  0
   34.2710   31.8380   31.0130 C   0  0  0  0  0  0  0  0  0  0  0  0
   35.4360   32.0930   30.3400 N   0  0  0  0  0  0  0  0  0  0  0  0
   36.5640   31.3860   30.5780 C   0  0  0  0  0  0  0  0  0  0  0  0
   36.5420   30.3980   31.5070 N   0  0  0  0  0  0  0  0  0  0  0  0
   33.3020   30.6280   32.5020 H   0  0  0  0  0  0  0  0  0  0  0  0
   33.4080   32.4500   30.7650 H   0  0  0  0  0  0  0  0  0  0  0  0
   37.4930   31.5690   30.0590 H   0  0  0  0  0  0  0  0  0  0  0  0
   38.3440   27.5250   36.1770 O   0  0  0  0  0  0  0  0  0  0  0  0
   37.9250   26.8320   36.7340 H   0  0  0  0  0  0  0  0  0  0  0  0
   39.8350   25.3270   34.6540 O   0  0  0  0  0  0  0  0  0  0  0  0
   41.4060   23.5870   35.1110 C   0  0  2  0  0  3  0  0  0  0  0  0
   40.2120   24.3800   35.5970 C   0  0  2  0  0  3  0  0  0  0  0  0
   39.1820   23.4820   35.8740 O   0  0  0  0  0  0  0  0  0  0  0  0
   39.4020   22.9640   37.1530 C   0  0  0  0  0  2  0  0  0  0  0  0
   40.8480   22.5720   37.3510 C   0  0  2  0  0  3  0  0  0  0  0  0
   41.5620   22.3890   36.0290 C   0  0  2  0  0  3  0  0  0  0  0  0
   42.5310   24.3990   35.2500 O   0  0  0  0  0  0  0  0  0  0  0  0
   42.9620   24.1930   36.1250 H   0  0  0  0  0  0  0  0  0  0  0  0
   40.8620   21.3390   38.0010 O   0  0  0  0  0  0  0  0  0  0  0  0
   41.7850   21.0000   38.1400 H   0  0  0  0  0  0  0  0  0  0  0  0
   42.9000   22.1090   36.3070 O   0  0  0  0  0  0  0  0  0  0  0  0
   43.4540   22.2960   35.4920 H   0  0  0  0  0  0  0  0  0  0  0  0
  1  6  1  6  0  0  0
  1 27  1  0  0  0  0
  2  1  1  0  0  0  0
  2  7  1  1  0  0  0
  3  4  1  0  0  0  0
  3  2  1  0  0  0  0
  4  5  1  0  0  0  0
  5  1  1  0  0  0  0
  5 10  1  1  0  0  0
  8  4  1  0  0  0  0
  9  4  1  0  0  0  0
 11 14  1  6  0  0  0
 11 12  1  0  0  0  0
 11 13  1  0  0  0  0
 12 15  1  6  0  0  0
 12  2  1  0  0  0  0
 12 13  1  0  0  0  0
 13 16  1  0  0  0  0
 13 17  1  0  0  0  0
 18 11  1  0  0  0  0
 19 18  1  0  0  0  0
 19 24  1  0  0  0  0
 20 19  2  0  0  0  0
 21 22  2  0  0  0  0
 21 20  1  0  0  0  0
 22 23  1  0  0  0  0
 23 18  2  0  0  0  0
 25 20  1  0  0  0  0
 26 22  1  0  0  0  0
 27 28  1  0  0  0  0
 29  5  1  0  0  0  0
 30 36  1  1  0  0  0
 30 31  1  0  0  0  0
 30 35  1  0  0  0  0
 31 29  1  6  0  0  0
 31 32  1  0  0  0  0
 32 33  1  0  0  0  0
 33 34  1  0  0  0  0
 34 38  1  6  0  0  0
 35 40  1  1  0  0  0
 35 34  1  0  0  0  0
 36 37  1  0  0  0  0
 38 39  1  0  0  0  0
 41 40  1  0  0  0  0
M  END
>  <minimizedAffinity>
-5.46166182

$$$$

 OpenBabel03272508293D

 41 44  0  0  1  0  0  0  0  0999 V2000
   36.0770   25.0500   31.4140 C   0  0  2  0  0  0  0  0  0  0  0  0
   37.0480   26.1420   31.0210 C   0  0  2  0  0  0  0  0  0  0  0  0
   38.1680   25.9210   31.7610 O   0  0  0  0  0  0  0  0  0  0  0  0
   38.2370   24.6090   32.1470 C   0  0  0  0  0  0  0  0  0  0  0  0
   37.0480   23.8810   31.5530 C   0  0  1  0  0  0  0  0  0  0  0  0
   35.5970   25.2510   32.3880 H   0  0  0  0  0  0  0  0  0  0  0  0
   37.2620   26.0130   29.9460 H   0  0  0  0  0  0  0  0  0  0  0  0
   38.1290   24.5260   33.2690 H   0  0  0  0  0  0  0  0  0  0  0  0
   39.1770   24.1040   31.8890 H   0  0  0  0  0  0  0  0  0  0  0  0
   37.3370   23.4780   30.5800 H   0  0  0  0  0  0  0  0  0  0  0  0
   36.5100   28.0700   32.6680 C   0  0  1  0  0  0  0  0  0  0  0  0
   36.4100   27.4530   31.3660 C   0  0  1  0  0  0  0  0  0  0  0  0
   37.2000   28.7160   31.4560 C   0  0  0  0  0  0  0  0  0  0  0  0
   37.2860   27.8750   33.4510 H   0  0  0  0  0  0  0  0  0  0  0  0
   35.3890   27.5370   30.8870 H   0  0  0  0  0  0  0  0  0  0  0  0
   36.7490   29.6240   31.0100 H   0  0  0  0  0  0  0  0  0  0  0  0
   38.2840   28.6990   31.3650 H   0  0  0  0  0  0  0  0  0  0  0  0
   35.3860   28.9440   33.2060 C   0  0  0  0  0  0  0  0  0  0  0  0
   35.6460   29.6660   34.3710 C   0  0  0  0  0  0  0  0  0  0  0  0
   34.5740   30.4240   34.8370 C   0  0  0  0  0  0  0  0  0  0  0  0
   33.3740   30.4360   34.1770 N   0  0  0  0  0  0  0  0  0  0  0  0
   33.1760   29.7180   33.0490 C   0  0  0  0  0  0  0  0  0  0  0  0
   34.1920   28.9640   32.5580 N   0  0  0  0  0  0  0  0  0  0  0  0
   36.5790   29.6500   34.8760 H   0  0  0  0  0  0  0  0  0  0  0  0
   34.6530   31.0300   35.7360 H   0  0  0  0  0  0  0  0  0  0  0  0
   32.2380   29.7110   32.5120 H   0  0  0  0  0  0  0  0  0  0  0  0
   35.1160   24.7930   30.4480 O   0  0  0  0  0  0  0  0  0  0  0  0
   35.5680   24.3540   29.6940 H   0  0  0  0  0  0  0  0  0  0  0  0
   36.5610   22.8850   32.3580 O   0  0  0  0  0  0  0  0  0  0  0  0
   35.6230   20.6940   32.5150 C   0  0  2  0  0  3  0  0  0  0  0  0
   36.4070   21.6840   31.6800 C   0  0  2  0  0  3  0  0  0  0  0  0
   37.6350   21.1030   31.3630 O   0  0  0  0  0  0  0  0  0  0  0  0
   37.4400   20.2730   30.2570 C   0  0  0  0  0  2  0  0  0  0  0  0
   36.1970   19.4250   30.4130 C   0  0  2  0  0  3  0  0  0  0  0  0
   35.7630   19.3330   31.8600 C   0  0  2  0  0  3  0  0  0  0  0  0
   34.2820   21.0730   32.4620 O   0  0  0  0  0  0  0  0  0  0  0  0
   33.8370   20.5570   31.7350 H   0  0  0  0  0  0  0  0  0  0  0  0
   36.5160   18.1340   29.9940 O   0  0  0  0  0  0  0  0  0  0  0  0
   35.7510   17.5080   30.0970 H   0  0  0  0  0  0  0  0  0  0  0  0
   34.5740   18.6050   31.8980 O   0  0  0  0  0  0  0  0  0  0  0  0
   34.0990   18.7910   32.7620 H   0  0  0  0  0  0  0  0  0  0  0  0
  1  5  1  0  0  0  0
  1  6  1  1  0  0  0
  2  7  1  6  0  0  0
  2 12  1  0  0  0  0
  2  1  1  0  0  0  0
  2  3  1  0  0  0  0
  3  4  1  0  0  0  0
  4  8  1  0  0  0  0
  5 10  1  6  0  0  0
  5  4  1  0  0  0  0
  5 29  1  0  0  0  0
  9  4  1  0  0  0  0
 11 18  1  0  0  0  0
 11 14  1  1  0  0  0
 12 15  1  6  0  0  0
 12 13  1  0  0  0  0
 12 11  1  0  0  0  0
 13 11  1  0  0  0  0
 16 13  1  0  0  0  0
 17 13  1  0  0  0  0
 18 19  1  0  0  0  0
 19 20  2  0  0  0  0
 19 24  1  0  0  0  0
 20 25  1  0  0  0  0
 21 20  1  0  0  0  0
 22 21  2  0  0  0  0
 23 22  1  0  0  0  0
 23 18  2  0  0  0  0
 26 22  1  0  0  0  0
 27  1  1  0  0  0  0
 28 27  1  0  0  0  0
 30 36  1  6  0  0  0
 31 29  1  1  0  0  0
 31 30  1  0  0  0  0
 32 31  1  0  0  0  0
 33 34  1  0  0  0  0
 33 32  1  0  0  0  0
 34 38  1  1  0  0  0
 34 35  1  0  0  0  0
 35 40  1  6  0  0  0
 35 30  1  0  0  0  0
 37 36  1  0  0  0  0
 38 39  1  0  0  0  0
 40 41  1  0  0  0  0
M  END
>  <minimizedAffinity>
-5.4250536

$$$$

 OpenBabel03272508293D

 41 44  0  0  1  0  0  0  0  0999 V2000
   36.5400   27.6100   33.4450 C   0  0  2  0  0  0  0  0  0  0  0  0
   37.6780   27.4180   32.4670 C   0  0  2  0  0  0  0  0  0  0  0  0
   37.3100   28.0810   31.3390 O   0  0  0  0  0  0  0  0  0  0  0  0
   36.3940   29.0570   31.6340 C   0  0  0  0  0  0  0  0  0  0  0  0
   36.1750   29.0580   33.1330 C   0  0  1  0  0  0  0  0  0  0  0  0
   35.6810   26.9540   33.2180 H   0  0  0  0  0  0  0  0  0  0  0  0
   38.5720   27.8840   32.9160 H   0  0  0  0  0  0  0  0  0  0  0  0
   35.3940   28.8070   31.1690 H   0  0  0  0  0  0  0  0  0  0  0  0
   36.6600   30.0590   31.2740 H   0  0  0  0  0  0  0  0  0  0  0  0
   36.8790   29.7590   33.5870 H   0  0  0  0  0  0  0  0  0  0  0  0
   36.7520   25.1280   31.6830 C   0  0  1  0  0  0  0  0  0  0  0  0
   37.8130   25.9460   32.2210 C   0  0  1  0  0  0  0  0  0  0  0  0
   38.0170   25.3900   30.8510 C   0  0  0  0  0  0  0  0  0  0  0  0
   35.8660   25.4720   31.0920 H   0  0  0  0  0  0  0  0  0  0  0  0
   38.4050   25.4560   33.0510 H   0  0  0  0  0  0  0  0  0  0  0  0
   38.7610   24.5760   30.7450 H   0  0  0  0  0  0  0  0  0  0  0  0
   37.9790   26.0390   29.9780 H   0  0  0  0  0  0  0  0  0  0  0  0
   36.6270   23.6600   32.0660 C   0  0  0  0  0  0  0  0  0  0  0  0
   35.6280   22.9220   31.4330 C   0  0  0  0  0  0  0  0  0  0  0  0
   35.5360   21.5930   31.8430 C   0  0  0  0  0  0  0  0  0  0  0  0
   36.3790   21.0870   32.7970 N   0  0  0  0  0  0  0  0  0  0  0  0
   37.3330   21.8470   33.3800 C   0  0  0  0  0  0  0  0  0  0  0  0
   37.4580   23.1470   33.0110 N   0  0  0  0  0  0  0  0  0  0  0  0
   34.9790   23.3220   30.6950 H   0  0  0  0  0  0  0  0  0  0  0  0
   34.7960   20.9170   31.4230 H   0  0  0  0  0  0  0  0  0  0  0  0
   38.0070   21.4690   34.1340 H   0  0  0  0  0  0  0  0  0  0  0  0
   36.9210   27.4610   34.7700 O   0  0  0  0  0  0  0  0  0  0  0  0
   37.4770   28.2370   35.0050 H   0  0  0  0  0  0  0  0  0  0  0  0
   34.8900   29.3670   33.4960 O   0  0  0  0  0  0  0  0  0  0  0  0
   33.4020   30.4440   35.0230 C   0  0  2  0  0  3  0  0  0  0  0  0
   34.8360   30.1360   34.6500 C   0  0  2  0  0  3  0  0  0  0  0  0
   35.5120   31.3470   34.5010 O   0  0  0  0  0  0  0  0  0  0  0  0
   35.8990   31.7770   35.7730 C   0  0  0  0  0  2  0  0  0  0  0  0
   34.7730   31.6340   36.7720 C   0  0  2  0  0  3  0  0  0  0  0  0
   33.4290   31.5260   36.0850 C   0  0  2  0  0  3  0  0  0  0  0  0
   32.8590   29.2880   35.5830 O   0  0  0  0  0  0  0  0  0  0  0  0
   32.9520   29.3450   36.5730 H   0  0  0  0  0  0  0  0  0  0  0  0
   34.7500   32.7940   37.5450 O   0  0  0  0  0  0  0  0  0  0  0  0
   34.0110   32.7860   38.2090 H   0  0  0  0  0  0  0  0  0  0  0  0
   32.4660   31.3180   37.0730 O   0  0  0  0  0  0  0  0  0  0  0  0
   31.6400   30.9310   36.6550 H   0  0  0  0  0  0  0  0  0  0  0  0
  1  6  1  6  0  0  0
  1 27  1  0  0  0  0
  2  7  1  1  0  0  0
  2  1  1  0  0  0  0
  3  4  1  0  0  0  0
  3  2  1  0  0  0  0
  4  5  1  0  0  0  0
  5  1  1  0  0  0  0
  5 29  1  0  0  0  0
  5 10  1  1  0  0  0
  8  4  1  0  0  0  0
  9  4  1  0  0  0  0
 11 14  1  6  0  0  0
 11 18  1  0  0  0  0
 11 12  1  0  0  0  0
 12  2  1  0  0  0  0
 12 15  1  1  0  0  0
 13 11  1  0  0  0  0
 13 12  1  0  0  0  0
 16 13  1  0  0  0  0
 17 13  1  0  0  0  0
 18 23  1  0  0  0  0
 19 20  1  0  0  0  0
 19 18  2  0  0  0  0
 20 21  2  0  0  0  0
 21 22  1  0  0  0  0
 22 26  1  0  0  0  0
 23 22  2  0  0  0  0
 24 19  1  0  0  0  0
 25 20  1  0  0  0  0
 27 28  1  0  0  0  0
 30 36  1  1  0  0  0
 30 35  1  0  0  0  0
 31 29  1  6  0  0  0
 31 30  1  0  0  0  0
 32 31  1  0  0  0  0
 32 33  1  0  0  0  0
 33 34  1  0  0  0  0
 34 38  1  1  0  0  0
 35 34  1  0  0  0  0
 35 40  1  1  0  0  0
 36 37  1  0  0  0  0
 38 39  1  0  0  0  0
 41 40  1  0  0  0  0
M  END
>  <minimizedAffinity>
-5.36731434

$$$$
