
 OpenBabel03272509433D

 41 43  0  0  1  0  0  0  0  0999 V2000
   37.5900   31.0970   48.8930 C   0  0  0  0  0  0  0  0  0  0  0  0
   37.5090   32.1010   49.8590 C   0  0  0  0  0  0  0  0  0  0  0  0
   38.1520   33.3220   49.7000 C   0  0  0  0  0  0  0  0  0  0  0  0
   38.8990   33.5570   48.5420 C   0  0  0  0  0  0  0  0  0  0  0  0
   38.9680   32.5640   47.6070 C   0  0  0  0  0  0  0  0  0  0  0  0
   38.3140   31.3570   47.8000 C   0  0  0  0  0  0  0  0  0  0  0  0
   36.9190   31.9010   50.7580 H   0  0  0  0  0  0  0  0  0  0  0  0
   38.0210   34.0190   50.5060 H   0  0  0  0  0  0  0  0  0  0  0  0
   39.3570   34.5240   48.5030 H   0  0  0  0  0  0  0  0  0  0  0  0
   39.5840   32.8940   46.7680 H   0  0  0  0  0  0  0  0  0  0  0  0
   36.9530   29.8110   49.0770 C   0  0  2  0  0  0  0  0  0  0  0  0
   37.3930   29.1320   48.2500 H   0  0  0  0  0  0  0  0  0  0  0  0
   33.9230   30.1530   47.1040 C   0  0  0  0  0  0  0  0  0  0  0  0
   33.2260   28.9840   47.3540 C   0  0  0  0  0  0  0  0  0  0  0  0
   33.7630   28.0880   48.2580 C   0  0  0  0  0  0  0  0  0  0  0  0
   34.9610   28.3840   48.8740 N   0  0  0  0  0  0  0  0  0  0  0  0
   35.5770   29.5130   48.5900 C   0  0  0  0  0  0  0  0  0  0  0  0
   35.0680   30.3980   47.7150 N   0  0  0  0  0  0  0  0  0  0  0  0
   33.4750   30.8340   46.3910 H   0  0  0  0  0  0  0  0  0  0  0  0
   32.2840   28.6830   46.9110 H   0  0  0  0  0  0  0  0  0  0  0  0
   33.3250   27.1370   48.5490 H   0  0  0  0  0  0  0  0  0  0  0  0
   37.4330   29.1610   50.0800 O   0  0  0  0  0  0  0  0  0  0  0  0
   37.3660   29.6700   50.9500 H   0  0  0  0  0  0  0  0  0  0  0  0
   38.4940   30.3860   46.7460 C   0  0  0  0  0  0  0  0  0  0  0  0
   39.0130   30.6760   45.5470 C   0  0  0  0  0  0  0  0  0  0  0  0
   39.2810   29.7590   44.4140 C   0  0  0  0  0  0  0  0  0  0  0  0
   39.7920   28.8110   44.7430 H   0  0  0  0  0  0  0  0  0  0  0  0
   38.3250   29.4450   43.9580 H   0  0  0  0  0  0  0  0  0  0  0  0
   40.3260   30.5830   43.2090 S   0  0  0  0  0  0  0  0  0  0  0  0
   41.2090   29.1690   41.1010 C   0  0  1  0  0  0  0  0  0  0  0  0
   40.0540   30.0620   41.5190 C   0  0  2  0  0  0  0  0  0  0  0  0
   39.9000   31.1390   40.6590 O   0  0  0  0  0  0  0  0  0  0  0  0
   39.8950   30.6540   39.3460 C   0  0  0  0  0  0  0  0  0  0  0  0
   41.3450   30.4170   38.9880 C   0  0  1  0  0  0  0  0  0  0  0  0
   42.1530   29.8910   40.1510 C   0  0  2  0  0  0  0  0  0  0  0  0
   41.9740   28.7980   42.2090 O   0  0  0  0  0  0  0  0  0  0  0  0
   41.4680   28.8290   43.0600 H   0  0  0  0  0  0  0  0  0  0  0  0
   41.4290   29.4830   37.9810 O   0  0  0  0  0  0  0  0  0  0  0  0
   40.5690   29.2710   37.5800 H   0  0  0  0  0  0  0  0  0  0  0  0
   43.1120   28.9630   39.7460 O   0  0  0  0  0  0  0  0  0  0  0  0
   42.7160   28.1170   39.4410 H   0  0  0  0  0  0  0  0  0  0  0  0
  1 11  1  0  0  0  0
  1  2  1  0  0  0  0
  2  7  1  0  0  0  0
  3  2  2  0  0  0  0
  3  8  1  0  0  0  0
  4  3  1  0  0  0  0
  5  6  1  0  0  0  0
  5  4  2  0  0  0  0
  6  1  2  0  0  0  0
  9  4  1  0  0  0  0
 10  5  1  0  0  0  0
 11 12  1  6  0  0  0
 11 22  1  0  0  0  0
 13 14  2  0  0  0  0
 13 18  1  0  0  0  0
 14 15  1  0  0  0  0
 15 21  1  0  0  0  0
 15 16  2  0  0  0  0
 17 16  1  0  0  0  0
 17 11  1  0  0  0  0
 18 17  2  0  0  0  0
 19 13  1  0  0  0  0
 20 14  1  0  0  0  0
 22 23  1  0  0  0  0
 24  6  1  0  0  0  0
 25 24  2  0  0  0  0
 26 27  1  0  0  0  0
 26 25  1  0  0  0  0
 28 26  1  0  0  0  0
 29 26  1  0  0  0  0
 30 31  1  0  0  0  0
 30 36  1  1  0  0  0
 31 29  1  1  0  0  0
 32 31  1  0  0  0  0
 33 32  1  0  0  0  0
 34 38  1  6  0  0  0
 34 33  1  0  0  0  0
 34 35  1  0  0  0  0
 35 40  1  6  0  0  0
 35 30  1  0  0  0  0
 36 37  1  0  0  0  0
 39 38  1  0  0  0  0
 41 40  1  0  0  0  0
M  END
>  <minimizedAffinity>
-6.61872339

>  <minimizedRMSD>
1.05845153

$$$$
