
 OpenBabel03272508283D

 41 44  0  0  1  0  0  0  0  0999 V2000
   33.8520   28.8560   47.3310 C   0  0  2  0  0  0  0  0  0  0  0  0
   34.5770   28.1320   48.4440 C   0  0  2  0  0  0  0  0  0  0  0  0
   33.6820   28.0340   49.4640 O   0  0  0  0  0  0  0  0  0  0  0  0
   32.4010   28.1130   48.9860 C   0  0  0  0  0  0  0  0  0  0  0  0
   32.4690   28.2300   47.4770 C   0  0  1  0  0  0  0  0  0  0  0  0
   33.7890   29.9430   47.5150 H   0  0  0  0  0  0  0  0  0  0  0  0
   34.8400   27.1300   48.0620 H   0  0  0  0  0  0  0  0  0  0  0  0
   31.9050   29.0600   49.3540 H   0  0  0  0  0  0  0  0  0  0  0  0
   31.7480   27.2840   49.2870 H   0  0  0  0  0  0  0  0  0  0  0  0
   32.4320   27.2270   47.0480 H   0  0  0  0  0  0  0  0  0  0  0  0
   35.6730   30.3800   49.1250 C   0  0  1  0  0  0  0  0  0  0  0  0
   35.7590   28.9700   48.8270 C   0  0  1  0  0  0  0  0  0  0  0  0
   36.0120   29.3780   50.2410 C   0  0  0  0  0  0  0  0  0  0  0  0
   34.7620   30.9520   49.4320 H   0  0  0  0  0  0  0  0  0  0  0  0
   36.6690   28.6750   48.2240 H   0  0  0  0  0  0  0  0  0  0  0  0
   37.0580   29.3200   50.6020 H   0  0  0  0  0  0  0  0  0  0  0  0
   35.2860   29.1550   51.0200 H   0  0  0  0  0  0  0  0  0  0  0  0
   36.8410   31.3110   48.8340 C   0  0  0  0  0  0  0  0  0  0  0  0
   37.0720   32.3430   49.7440 C   0  0  0  0  0  0  0  0  0  0  0  0
   38.1330   33.1840   49.4140 C   0  0  0  0  0  0  0  0  0  0  0  0
   38.8680   32.9840   48.2770 N   0  0  0  0  0  0  0  0  0  0  0  0
   38.6020   31.9660   47.4270 C   0  0  0  0  0  0  0  0  0  0  0  0
   37.5780   31.1210   47.7080 N   0  0  0  0  0  0  0  0  0  0  0  0
   36.4970   32.4910   50.6230 H   0  0  0  0  0  0  0  0  0  0  0  0
   38.4100   34.0250   50.0450 H   0  0  0  0  0  0  0  0  0  0  0  0
   39.1680   31.7900   46.5240 H   0  0  0  0  0  0  0  0  0  0  0  0
   34.3860   28.6110   46.0750 O   0  0  0  0  0  0  0  0  0  0  0  0
   34.1690   27.6820   45.8400 H   0  0  0  0  0  0  0  0  0  0  0  0
   31.4780   29.0150   46.9460 O   0  0  0  0  0  0  0  0  0  0  0  0
   29.9790   27.1820   46.6270 C   0  0  2  0  0  3  0  0  0  0  0  0
   30.7210   28.3420   45.9960 C   0  0  2  0  0  3  0  0  0  0  0  0
   31.5100   27.8380   44.9630 O   0  0  0  0  0  0  0  0  0  0  0  0
   30.6970   27.7010   43.8350 C   0  0  0  0  0  2  0  0  0  0  0  0
   29.3710   27.0620   44.1820 C   0  0  2  0  0  3  0  0  0  0  0  0
   29.4380   26.3210   45.5010 C   0  0  2  0  0  3  0  0  0  0  0  0
   28.9030   27.7100   47.3360 O   0  0  0  0  0  0  0  0  0  0  0  0
   28.0980   27.6880   46.7480 H   0  0  0  0  0  0  0  0  0  0  0  0
   29.0890   26.1200   43.1940 O   0  0  0  0  0  0  0  0  0  0  0  0
   28.2420   25.6330   43.3720 H   0  0  0  0  0  0  0  0  0  0  0  0
   28.1600   25.8350   45.7780 O   0  0  0  0  0  0  0  0  0  0  0  0
   28.0890   25.6270   46.7570 H   0  0  0  0  0  0  0  0  0  0  0  0
  1  5  1  0  0  0  0
  1  6  1  1  0  0  0
  1  2  1  0  0  0  0
  2  7  1  6  0  0  0
  2 12  1  0  0  0  0
  2  3  1  0  0  0  0
  4  9  1  0  0  0  0
  4  8  1  0  0  0  0
  4  3  1  0  0  0  0
  5 10  1  6  0  0  0
  5  4  1  0  0  0  0
 11 14  1  1  0  0  0
 11 13  1  0  0  0  0
 12 15  1  6  0  0  0
 12 11  1  0  0  0  0
 12 13  1  0  0  0  0
 13 16  1  0  0  0  0
 13 17  1  0  0  0  0
 18 11  1  0  0  0  0
 18 19  1  0  0  0  0
 19 24  1  0  0  0  0
 20 19  2  0  0  0  0
 20 25  1  0  0  0  0
 21 20  1  0  0  0  0
 22 23  1  0  0  0  0
 22 21  2  0  0  0  0
 23 18  2  0  0  0  0
 26 22  1  0  0  0  0
 27  1  1  0  0  0  0
 28 27  1  0  0  0  0
 29  5  1  0  0  0  0
 30 36  1  6  0  0  0
 31 30  1  0  0  0  0
 31 29  1  1  0  0  0
 32 31  1  0  0  0  0
 33 34  1  0  0  0  0
 33 32  1  0  0  0  0
 34 38  1  6  0  0  0
 34 35  1  0  0  0  0
 35 40  1  1  0  0  0
 35 30  1  0  0  0  0
 37 36  1  0  0  0  0
 38 39  1  0  0  0  0
 40 41  1  0  0  0  0
M  END
>  <minimizedAffinity>
-5.08722401

>  <minimizedRMSD>
0.411244571

$$$$
