
 OpenBabel03272502253D

 33 35  0  0  1  0  0  0  0  0999 V2000
   37.3800   30.0610   50.6930 C   0  0  0  0  0  0  0  0  0  0  0  0
   37.8820   30.7080   49.5430 C   0  0  0  0  0  0  0  0  0  0  0  0
   37.2460   30.4530   48.3380 C   0  0  0  0  0  0  0  0  0  0  0  0
   36.1920   29.6100   48.3300 N   0  0  0  0  0  0  0  0  0  0  0  0
   35.7350   29.0070   49.4450 C   0  0  0  0  0  0  0  0  0  0  0  0
   36.3380   29.2410   50.6200 N   0  0  0  0  0  0  0  0  0  0  0  0
   37.9200   30.3010   51.6000 H   0  0  0  0  0  0  0  0  0  0  0  0
   38.7280   31.3880   49.5320 H   0  0  0  0  0  0  0  0  0  0  0  0
   37.6500   31.0450   47.0670 C   0  0  0  0  0  0  0  0  0  0  0  0
   36.9580   30.7960   45.8930 C   0  0  0  0  0  0  0  0  0  0  0  0
   37.3210   31.3430   44.6780 C   0  0  0  0  0  0  0  0  0  0  0  0
   38.4120   32.1660   44.6300 N   0  0  0  0  0  0  0  0  0  0  0  0
   39.0600   32.3900   45.7710 C   0  0  0  0  0  0  0  0  0  0  0  0
   38.7190   31.8670   46.9530 N   0  0  0  0  0  0  0  0  0  0  0  0
   36.1020   30.1380   45.9810 H   0  0  0  0  0  0  0  0  0  0  0  0
   36.7250   31.0960   43.8120 H   0  0  0  0  0  0  0  0  0  0  0  0
   40.2460   33.2820   45.7320 C   0  0  0  0  0  0  0  0  0  0  0  0
   40.3290   33.9390   46.9590 F   0  0  0  0  0  0  0  0  0  0  0  0
   41.4160   32.5590   45.5180 F   0  0  0  0  0  0  0  0  0  0  0  0
   40.1510   34.2470   44.7780 F   0  0  0  0  0  0  0  0  0  0  0  0
   34.6450   28.1650   49.2960 O   0  0  0  0  0  0  0  0  0  0  0  0
   32.2800   27.6790   49.0270 C   0  0  2  0  0  0  0  0  0  0  0  0
   33.4700   28.5160   48.6340 C   0  0  2  0  0  0  0  0  0  0  0  0
   33.7130   28.4090   47.2670 O   0  0  0  0  0  0  0  0  0  0  0  0
   33.7930   27.1050   46.8370 C   0  0  0  0  0  0  0  0  0  0  0  0
   32.3960   26.5220   46.8100 C   0  0  2  0  0  0  0  0  0  0  0  0
   31.5410   27.3010   47.7640 C   0  0  1  0  0  0  0  0  0  0  0  0
   31.3700   28.4650   49.7690 O   0  0  0  0  0  0  0  0  0  0  0  0
   30.5080   27.9750   49.7560 H   0  0  0  0  0  0  0  0  0  0  0  0
   32.4240   25.1650   47.0990 O   0  0  0  0  0  0  0  0  0  0  0  0
   31.6700   24.7510   46.6050 H   0  0  0  0  0  0  0  0  0  0  0  0
   30.3790   26.6350   48.0940 O   0  0  0  0  0  0  0  0  0  0  0  0
   30.3760   25.6810   47.8790 H   0  0  0  0  0  0  0  0  0  0  0  0
  1  7  1  0  0  0  0
  2  1  2  0  0  0  0
  3  2  1  0  0  0  0
  4  3  2  0  0  0  0
  4  5  1  0  0  0  0
  5  6  2  0  0  0  0
  6  1  1  0  0  0  0
  8  2  1  0  0  0  0
  9  3  1  0  0  0  0
 10 15  1  0  0  0  0
 10  9  2  0  0  0  0
 11 10  1  0  0  0  0
 12 11  2  0  0  0  0
 12 13  1  0  0  0  0
 13 14  2  0  0  0  0
 14  9  1  0  0  0  0
 16 11  1  0  0  0  0
 17 13  1  0  0  0  0
 17 18  1  0  0  0  0
 19 17  1  0  0  0  0
 20 17  1  0  0  0  0
 21  5  1  0  0  0  0
 22 28  1  1  0  0  0
 23 22  1  0  0  0  0
 23 21  1  1  0  0  0
 24 23  1  0  0  0  0
 25 24  1  0  0  0  0
 26 25  1  0  0  0  0
 26 30  1  1  0  0  0
 26 27  1  0  0  0  0
 27 32  1  1  0  0  0
 27 22  1  0  0  0  0
 29 28  1  0  0  0  0
 31 30  1  0  0  0  0
 33 32  1  0  0  0  0
M  END
>  <minimizedAffinity>
-6.69671679

>  <minimizedRMSD>
1.4155345

$$$$
