
 OpenBabel03272509453D

 22 23  0  0  1  0  0  0  0  0999 V2000
   38.0350   23.1230   36.6250 C   0  0  2  0  0  3  0  0  0  0  0  0
   38.6670   23.5500   35.3390 C   0  0  1  0  0  3  0  0  0  0  0  0
   39.9680   24.0060   35.4770 O   0  0  0  0  0  0  0  0  0  0  0  0
   40.8030   23.1480   36.1600 C   0  0  0  0  0  2  0  0  0  0  0  0
   40.3590   22.8930   37.5830 C   0  0  1  0  0  3  0  0  0  0  0  0
   38.9510   23.3080   37.8260 C   0  0  2  0  0  3  0  0  0  0  0  0
   37.5600   21.7960   36.5720 O   0  0  0  0  0  0  0  0  0  0  0  0
   38.0580   21.2550   35.9110 H   0  0  0  0  0  0  0  0  0  0  0  0
   40.5180   21.5310   37.9000 O   0  0  0  0  0  0  0  0  0  0  0  0
   40.1190   21.0090   37.1640 H   0  0  0  0  0  0  0  0  0  0  0  0
   38.4630   22.5480   38.8870 O   0  0  0  0  0  0  0  0  0  0  0  0
   37.8880   21.8130   38.5750 H   0  0  0  0  0  0  0  0  0  0  0  0
   38.6210   22.5580   34.3190 O   0  0  0  0  0  0  0  0  0  0  0  0
   36.4710   23.3260   31.4850 C   0  0  0  0  0  0  0  0  0  0  0  0
   35.5380   22.2790   31.5910 C   0  0  0  0  0  0  0  0  0  0  0  0
   35.7050   21.3600   32.6440 C   0  0  0  0  0  0  0  0  0  0  0  0
   36.7710   21.5360   33.5100 N   0  0  0  0  0  0  0  0  0  0  0  0
   37.6300   22.5590   33.3560 C   0  0  0  0  0  0  0  0  0  0  0  0
   37.4880   23.4480   32.3540 N   0  0  0  0  0  0  0  0  0  0  0  0
   36.4120   24.0720   30.7030 H   0  0  0  0  0  0  0  0  0  0  0  0
   34.7350   22.2060   30.8820 H   0  0  0  0  0  0  0  0  0  0  0  0
   35.0220   20.5540   32.7620 H   0  0  0  0  0  0  0  0  0  0  0  0
  1  7  1  6  0  0  0
  1  6  1  0  0  0  0
  2 13  1  6  0  0  0
  2  3  1  0  0  0  0
  2  1  1  0  0  0  0
  3  4  1  0  0  0  0
  4  5  1  0  0  0  0
  5  6  1  0  0  0  0
  5  9  1  6  0  0  0
  6 11  1  1  0  0  0
  8  7  1  0  0  0  0
 10  9  1  0  0  0  0
 12 11  1  0  0  0  0
 14 15  2  0  0  0  0
 14 19  1  0  0  0  0
 15 16  1  0  0  0  0
 16 22  1  0  0  0  0
 16 17  2  0  0  0  0
 18 17  1  0  0  0  0
 18 13  1  0  0  0  0
 19 18  2  0  0  0  0
 20 14  1  0  0  0  0
 21 15  1  0  0  0  0
M  END
>  <minimizedAffinity>
-5.2889266

$$$$

 OpenBabel03272509453D

 22 23  0  0  1  0  0  0  0  0999 V2000
   38.1080   23.2560   36.7690 C   0  0  2  0  0  3  0  0  0  0  0  0
   38.7120   23.6920   35.4740 C   0  0  1  0  0  3  0  0  0  0  0  0
   40.0440   24.0580   35.5700 O   0  0  0  0  0  0  0  0  0  0  0  0
   40.8490   23.1210   36.1820 C   0  0  0  0  0  2  0  0  0  0  0  0
   40.4500   22.8380   37.6130 C   0  0  1  0  0  3  0  0  0  0  0  0
   39.0840   23.3320   37.9350 C   0  0  2  0  0  3  0  0  0  0  0  0
   37.5440   21.9650   36.6890 O   0  0  0  0  0  0  0  0  0  0  0  0
   37.9760   21.4200   35.9860 H   0  0  0  0  0  0  0  0  0  0  0  0
   40.5310   21.4560   37.8710 O   0  0  0  0  0  0  0  0  0  0  0  0
   40.0680   20.9920   37.1350 H   0  0  0  0  0  0  0  0  0  0  0  0
   38.5920   22.5640   38.9870 O   0  0  0  0  0  0  0  0  0  0  0  0
   37.9570   21.8800   38.6740 H   0  0  0  0  0  0  0  0  0  0  0  0
   38.5560   22.7480   34.4200 O   0  0  0  0  0  0  0  0  0  0  0  0
   37.8160   22.9550   30.8630 C   0  0  0  0  0  0  0  0  0  0  0  0
   37.0910   24.1590   30.8310 C   0  0  0  0  0  0  0  0  0  0  0  0
   36.8970   24.8360   32.0490 C   0  0  0  0  0  0  0  0  0  0  0  0
   37.4270   24.2850   33.2020 N   0  0  0  0  0  0  0  0  0  0  0  0
   38.1120   23.1290   33.1680 C   0  0  0  0  0  0  0  0  0  0  0  0
   38.3080   22.4650   32.0130 N   0  0  0  0  0  0  0  0  0  0  0  0
   38.0080   22.3740   29.9690 H   0  0  0  0  0  0  0  0  0  0  0  0
   36.7090   24.5270   29.8970 H   0  0  0  0  0  0  0  0  0  0  0  0
   36.3550   25.7520   32.0700 H   0  0  0  0  0  0  0  0  0  0  0  0
  1  7  1  6  0  0  0
  1  6  1  0  0  0  0
  2 13  1  6  0  0  0
  2  3  1  0  0  0  0
  2  1  1  0  0  0  0
  3  4  1  0  0  0  0
  4  5  1  0  0  0  0
  5  9  1  6  0  0  0
  5  6  1  0  0  0  0
  6 11  1  1  0  0  0
  8  7  1  0  0  0  0
 10  9  1  0  0  0  0
 12 11  1  0  0  0  0
 14 19  1  0  0  0  0
 15 14  2  0  0  0  0
 15 16  1  0  0  0  0
 16 22  1  0  0  0  0
 16 17  2  0  0  0  0
 18 17  1  0  0  0  0
 18 13  1  0  0  0  0
 19 18  2  0  0  0  0
 20 14  1  0  0  0  0
 21 15  1  0  0  0  0
M  END
>  <minimizedAffinity>
-4.97049665

$$$$

 OpenBabel03272509453D

 22 23  0  0  1  0  0  0  0  0999 V2000
   38.9480   24.3670   36.0370 C   0  0  2  0  0  3  0  0  0  0  0  0
   38.6820   24.6730   34.5980 C   0  0  1  0  0  3  0  0  0  0  0  0
   38.6730   23.5560   33.7780 O   0  0  0  0  0  0  0  0  0  0  0  0
   37.8500   22.5380   34.2120 C   0  0  0  0  0  2  0  0  0  0  0  0
   38.2460   21.9890   35.5640 C   0  0  1  0  0  3  0  0  0  0  0  0
   39.1820   22.8860   36.2950 C   0  0  2  0  0  3  0  0  0  0  0  0
   37.9310   24.8560   36.8840 O   0  0  0  0  0  0  0  0  0  0  0  0
   37.0660   24.9320   36.4110 H   0  0  0  0  0  0  0  0  0  0  0  0
   37.0980   21.7580   36.3450 O   0  0  0  0  0  0  0  0  0  0  0  0
   36.5390   22.5680   36.2930 H   0  0  0  0  0  0  0  0  0  0  0  0
   39.0320   22.6360   37.6570 O   0  0  0  0  0  0  0  0  0  0  0  0
   38.4850   23.3260   38.0970 H   0  0  0  0  0  0  0  0  0  0  0  0
   37.4940   25.4270   34.3800 O   0  0  0  0  0  0  0  0  0  0  0  0
   36.2060   26.2630   31.0810 C   0  0  0  0  0  0  0  0  0  0  0  0
   36.9260   27.4430   30.8260 C   0  0  0  0  0  0  0  0  0  0  0  0
   37.8230   27.8870   31.8160 C   0  0  0  0  0  0  0  0  0  0  0  0
   37.9460   27.1430   32.9760 N   0  0  0  0  0  0  0  0  0  0  0  0
   37.2280   26.0210   33.1620 C   0  0  0  0  0  0  0  0  0  0  0  0
   36.3650   25.5800   32.2280 N   0  0  0  0  0  0  0  0  0  0  0  0
   35.4970   25.8560   30.3710 H   0  0  0  0  0  0  0  0  0  0  0  0
   36.7790   27.9690   29.9010 H   0  0  0  0  0  0  0  0  0  0  0  0
   38.3890   28.7750   31.6640 H   0  0  0  0  0  0  0  0  0  0  0  0
  1  6  1  0  0  0  0
  1  7  1  1  0  0  0
  2 13  1  1  0  0  0
  2  1  1  0  0  0  0
  3  4  1  0  0  0  0
  3  2  1  0  0  0  0
  4  5  1  0  0  0  0
  5  6  1  0  0  0  0
  5  9  1  1  0  0  0
  6 11  1  1  0  0  0
  8  7  1  0  0  0  0
 10  9  1  0  0  0  0
 11 12  1  0  0  0  0
 14 19  1  0  0  0  0
 15 14  2  0  0  0  0
 15 16  1  0  0  0  0
 16 17  2  0  0  0  0
 17 18  1  0  0  0  0
 18 13  1  0  0  0  0
 19 18  2  0  0  0  0
 20 14  1  0  0  0  0
 21 15  1  0  0  0  0
 22 16  1  0  0  0  0
M  END
>  <minimizedAffinity>
-4.29802036

$$$$

 OpenBabel03272509453D

 22 23  0  0  1  0  0  0  0  0999 V2000
   38.3630   25.6120   30.9550 C   0  0  2  0  0  3  0  0  0  0  0  0
   37.2930   24.9090   31.7260 C   0  0  1  0  0  3  0  0  0  0  0  0
   36.3500   25.7590   32.2810 O   0  0  0  0  0  0  0  0  0  0  0  0
   35.7910   26.6500   31.3900 C   0  0  0  0  0  2  0  0  0  0  0  0
   36.8040   27.5900   30.7750 C   0  0  1  0  0  3  0  0  0  0  0  0
   38.2060   27.1260   30.9660 C   0  0  2  0  0  3  0  0  0  0  0  0
   38.4640   25.1420   29.6290 O   0  0  0  0  0  0  0  0  0  0  0  0
   37.6070   24.7650   29.3080 H   0  0  0  0  0  0  0  0  0  0  0  0
   36.5380   27.7540   29.4020 O   0  0  0  0  0  0  0  0  0  0  0  0
   36.4110   26.8550   29.0180 H   0  0  0  0  0  0  0  0  0  0  0  0
   38.9750   27.6680   29.9390 O   0  0  0  0  0  0  0  0  0  0  0  0
   39.1580   27.0070   29.2330 H   0  0  0  0  0  0  0  0  0  0  0  0
   36.6310   23.8870   30.9890 O   0  0  0  0  0  0  0  0  0  0  0  0
   35.1260   20.6710   31.7850 C   0  0  0  0  0  0  0  0  0  0  0  0
   35.7830   20.3830   32.9950 C   0  0  0  0  0  0  0  0  0  0  0  0
   36.7150   21.3240   33.4710 C   0  0  0  0  0  0  0  0  0  0  0  0
   36.9320   22.4710   32.7290 N   0  0  0  0  0  0  0  0  0  0  0  0
   36.2730   22.6890   31.5770 C   0  0  0  0  0  0  0  0  0  0  0  0
   35.3780   21.8010   31.1050 N   0  0  0  0  0  0  0  0  0  0  0  0
   34.3960   19.9980   31.3530 H   0  0  0  0  0  0  0  0  0  0  0  0
   35.5620   19.4710   33.5180 H   0  0  0  0  0  0  0  0  0  0  0  0
   37.2330   21.1470   34.3830 H   0  0  0  0  0  0  0  0  0  0  0  0
  1  7  1  6  0  0  0
  1  6  1  0  0  0  0
  1  2  1  0  0  0  0
  2 13  1  6  0  0  0
  2  3  1  0  0  0  0
  4  3  1  0  0  0  0
  5  9  1  6  0  0  0
  5  6  1  0  0  0  0
  5  4  1  0  0  0  0
  6 11  1  6  0  0  0
  8  7  1  0  0  0  0
 10  9  1  0  0  0  0
 12 11  1  0  0  0  0
 13 18  1  0  0  0  0
 14 15  1  0  0  0  0
 15 16  2  0  0  0  0
 15 21  1  0  0  0  0
 16 22  1  0  0  0  0
 17 16  1  0  0  0  0
 18 17  2  0  0  0  0
 19 18  1  0  0  0  0
 19 14  2  0  0  0  0
 20 14  1  0  0  0  0
M  END
>  <minimizedAffinity>
-4.28927708

$$$$

 OpenBabel03272509453D

 22 23  0  0  1  0  0  0  0  0999 V2000
   38.4990   23.8070   32.2500 C   0  0  2  0  0  3  0  0  0  0  0  0
   38.6880   24.2280   33.6720 C   0  0  1  0  0  3  0  0  0  0  0  0
   38.4310   25.5700   33.9000 O   0  0  0  0  0  0  0  0  0  0  0  0
   37.2100   26.0040   33.4300 C   0  0  0  0  0  2  0  0  0  0  0  0
   37.0630   25.8590   31.9320 C   0  0  1  0  0  3  0  0  0  0  0  0
   38.0880   24.9570   31.3400 C   0  0  2  0  0  3  0  0  0  0  0  0
   37.5880   22.7370   32.1250 O   0  0  0  0  0  0  0  0  0  0  0  0
   36.9430   22.7170   32.8740 H   0  0  0  0  0  0  0  0  0  0  0  0
   35.7740   25.3890   31.6170 O   0  0  0  0  0  0  0  0  0  0  0  0
   35.5920   24.6160   32.2020 H   0  0  0  0  0  0  0  0  0  0  0  0
   37.5630   24.4340   30.1610 O   0  0  0  0  0  0  0  0  0  0  0  0
   37.2400   23.5130   30.2820 H   0  0  0  0  0  0  0  0  0  0  0  0
   37.9560   23.4420   34.6060 O   0  0  0  0  0  0  0  0  0  0  0  0
   37.8960   24.0310   38.1960 C   0  0  0  0  0  0  0  0  0  0  0  0
   39.0770   23.3670   38.5750 C   0  0  0  0  0  0  0  0  0  0  0  0
   39.8320   22.7500   37.5620 C   0  0  0  0  0  0  0  0  0  0  0  0
   39.3760   22.8290   36.2570 N   0  0  0  0  0  0  0  0  0  0  0  0
   38.2370   23.4790   35.9580 C   0  0  0  0  0  0  0  0  0  0  0  0
   37.5000   24.0750   36.9130 N   0  0  0  0  0  0  0  0  0  0  0  0
   37.2600   24.5300   38.9160 H   0  0  0  0  0  0  0  0  0  0  0  0
   39.3690   23.3480   39.6080 H   0  0  0  0  0  0  0  0  0  0  0  0
   40.7330   22.2380   37.8040 H   0  0  0  0  0  0  0  0  0  0  0  0
  1  7  1  1  0  0  0
  1  2  1  0  0  0  0
  2  3  1  0  0  0  0
  2 13  1  1  0  0  0
  4  3  1  0  0  0  0
  5  9  1  1  0  0  0
  5  4  1  0  0  0  0
  6 11  1  6  0  0  0
  6  5  1  0  0  0  0
  6  1  1  0  0  0  0
  7  8  1  0  0  0  0
  9 10  1  0  0  0  0
 11 12  1  0  0  0  0
 13 18  1  0  0  0  0
 14 15  1  0  0  0  0
 14 20  1  0  0  0  0
 15 21  1  0  0  0  0
 16 22  1  0  0  0  0
 16 15  2  0  0  0  0
 17 16  1  0  0  0  0
 18 17  2  0  0  0  0
 18 19  1  0  0  0  0
 19 14  2  0  0  0  0
M  END
>  <minimizedAffinity>
-4.25674629

$$$$

 OpenBabel03272509453D

 22 23  0  0  1  0  0  0  0  0999 V2000
   37.8410   25.9320   34.8150 C   0  0  2  0  0  3  0  0  0  0  0  0
   37.8610   25.2870   33.4660 C   0  0  1  0  0  3  0  0  0  0  0  0
   38.6430   25.9530   32.5370 O   0  0  0  0  0  0  0  0  0  0  0  0
   39.9280   26.2200   32.9600 C   0  0  0  0  0  2  0  0  0  0  0  0
   39.9790   27.1130   34.1790 C   0  0  1  0  0  3  0  0  0  0  0  0
   38.6670   27.2090   34.8750 C   0  0  2  0  0  3  0  0  0  0  0  0
   38.2370   25.0460   35.8380 O   0  0  0  0  0  0  0  0  0  0  0  0
   38.8320   24.3340   35.4950 H   0  0  0  0  0  0  0  0  0  0  0  0
   40.9620   26.6510   35.0750 O   0  0  0  0  0  0  0  0  0  0  0  0
   40.8240   25.6810   35.1870 H   0  0  0  0  0  0  0  0  0  0  0  0
   38.9160   27.5240   36.2090 O   0  0  0  0  0  0  0  0  0  0  0  0
   38.8400   26.7330   36.7900 H   0  0  0  0  0  0  0  0  0  0  0  0
   38.2280   23.9120   33.4920 O   0  0  0  0  0  0  0  0  0  0  0  0
   36.2160   20.8820   33.3730 C   0  0  0  0  0  0  0  0  0  0  0  0
   35.4490   21.1390   32.2230 C   0  0  0  0  0  0  0  0  0  0  0  0
   35.6720   22.3540   31.5480 C   0  0  0  0  0  0  0  0  0  0  0  0
   36.6270   23.2210   32.0500 N   0  0  0  0  0  0  0  0  0  0  0  0
   37.3290   22.9190   33.1560 C   0  0  0  0  0  0  0  0  0  0  0  0
   37.1300   21.7620   33.8160 N   0  0  0  0  0  0  0  0  0  0  0  0
   36.1040   19.9710   33.9480 H   0  0  0  0  0  0  0  0  0  0  0  0
   34.7260   20.4180   31.8920 H   0  0  0  0  0  0  0  0  0  0  0  0
   35.1150   22.5880   30.6730 H   0  0  0  0  0  0  0  0  0  0  0  0
  1  6  1  0  0  0  0
  1  7  1  1  0  0  0
  2 13  1  1  0  0  0
  2  1  1  0  0  0  0
  3  4  1  0  0  0  0
  3  2  1  0  0  0  0
  4  5  1  0  0  0  0
  5  6  1  0  0  0  0
  5  9  1  1  0  0  0
  6 11  1  1  0  0  0
  8  7  1  0  0  0  0
  9 10  1  0  0  0  0
 11 12  1  0  0  0  0
 14 19  1  0  0  0  0
 14 20  1  0  0  0  0
 15 14  2  0  0  0  0
 16 17  2  0  0  0  0
 16 15  1  0  0  0  0
 17 18  1  0  0  0  0
 18 13  1  0  0  0  0
 18 19  2  0  0  0  0
 21 15  1  0  0  0  0
 22 16  1  0  0  0  0
M  END
>  <minimizedAffinity>
-4.23322725

$$$$

 OpenBabel03272509453D

 22 23  0  0  1  0  0  0  0  0999 V2000
   36.7800   24.3730   32.4940 C   0  0  2  0  0  3  0  0  0  0  0  0
   37.8030   23.4880   33.1320 C   0  0  1  0  0  3  0  0  0  0  0  0
   38.5220   22.7210   32.2300 O   0  0  0  0  0  0  0  0  0  0  0  0
   39.0860   23.4370   31.1960 C   0  0  0  0  0  2  0  0  0  0  0  0
   38.0630   24.1410   30.3330 C   0  0  1  0  0  3  0  0  0  0  0  0
   36.7260   24.2230   30.9810 C   0  0  2  0  0  3  0  0  0  0  0  0
   36.9530   25.7290   32.8440 O   0  0  0  0  0  0  0  0  0  0  0  0
   37.8920   25.9290   33.0810 H   0  0  0  0  0  0  0  0  0  0  0  0
   38.5160   25.4340   30.0060 O   0  0  0  0  0  0  0  0  0  0  0  0
   38.8230   25.8570   30.8420 H   0  0  0  0  0  0  0  0  0  0  0  0
   36.0600   25.3210   30.4410 O   0  0  0  0  0  0  0  0  0  0  0  0
   36.0810   26.0950   31.0490 H   0  0  0  0  0  0  0  0  0  0  0  0
   38.7050   24.1780   33.9900 O   0  0  0  0  0  0  0  0  0  0  0  0
   39.7870   22.7520   37.1580 C   0  0  0  0  0  0  0  0  0  0  0  0
   38.8550   23.3460   38.0280 C   0  0  0  0  0  0  0  0  0  0  0  0
   37.8980   24.2110   37.4670 C   0  0  0  0  0  0  0  0  0  0  0  0
   37.9260   24.4280   36.1000 N   0  0  0  0  0  0  0  0  0  0  0  0
   38.8440   23.8310   35.3200 C   0  0  0  0  0  0  0  0  0  0  0  0
   39.7690   23.0010   35.8380 N   0  0  0  0  0  0  0  0  0  0  0  0
   40.5560   22.0760   37.5120 H   0  0  0  0  0  0  0  0  0  0  0  0
   38.8930   23.1290   39.0790 H   0  0  0  0  0  0  0  0  0  0  0  0
   37.1730   24.6800   38.0880 H   0  0  0  0  0  0  0  0  0  0  0  0
  1  7  1  6  0  0  0
  1  2  1  0  0  0  0
  2 13  1  6  0  0  0
  3  2  1  0  0  0  0
  4  3  1  0  0  0  0
  5  9  1  1  0  0  0
  5  6  1  0  0  0  0
  5  4  1  0  0  0  0
  6 11  1  6  0  0  0
  6  1  1  0  0  0  0
  7  8  1  0  0  0  0
  9 10  1  0  0  0  0
 11 12  1  0  0  0  0
 13 18  1  0  0  0  0
 14 20  1  0  0  0  0
 14 15  1  0  0  0  0
 15 21  1  0  0  0  0
 16 15  2  0  0  0  0
 16 22  1  0  0  0  0
 17 16  1  0  0  0  0
 18 19  1  0  0  0  0
 18 17  2  0  0  0  0
 19 14  2  0  0  0  0
M  END
>  <minimizedAffinity>
-4.11134434

$$$$

 OpenBabel03272509453D

 22 23  0  0  1  0  0  0  0  0999 V2000
   35.5690   20.5860   32.5030 C   0  0  2  0  0  3  0  0  0  0  0  0
   36.9060   21.2550   32.5170 C   0  0  1  0  0  3  0  0  0  0  0  0
   37.9750   20.3750   32.5310 O   0  0  0  0  0  0  0  0  0  0  0  0
   37.9320   19.4110   31.5470 C   0  0  0  0  0  2  0  0  0  0  0  0
   36.7230   18.5090   31.6500 C   0  0  1  0  0  3  0  0  0  0  0  0
   35.6660   19.0670   32.5370 C   0  0  2  0  0  3  0  0  0  0  0  0
   34.7740   21.0000   31.4140 O   0  0  0  0  0  0  0  0  0  0  0  0
   35.3270   21.3080   30.6540 H   0  0  0  0  0  0  0  0  0  0  0  0
   36.1920   18.2660   30.3690 O   0  0  0  0  0  0  0  0  0  0  0  0
   36.1140   19.1370   29.9130 H   0  0  0  0  0  0  0  0  0  0  0  0
   34.4460   18.5280   32.1340 O   0  0  0  0  0  0  0  0  0  0  0  0
   33.9260   19.1660   31.5950 H   0  0  0  0  0  0  0  0  0  0  0  0
   37.0860   22.2000   31.4670 O   0  0  0  0  0  0  0  0  0  0  0  0
   37.0970   25.6990   32.4650 C   0  0  0  0  0  0  0  0  0  0  0  0
   35.9520   26.1530   31.7870 C   0  0  0  0  0  0  0  0  0  0  0  0
   35.2350   25.2180   31.0180 C   0  0  0  0  0  0  0  0  0  0  0  0
   35.6930   23.9120   30.9720 N   0  0  0  0  0  0  0  0  0  0  0  0
   36.7960   23.5390   31.6430 C   0  0  0  0  0  0  0  0  0  0  0  0
   37.4970   24.4190   32.3830 N   0  0  0  0  0  0  0  0  0  0  0  0
   37.7030   26.3560   33.0760 H   0  0  0  0  0  0  0  0  0  0  0  0
   35.6550   27.1820   31.8700 H   0  0  0  0  0  0  0  0  0  0  0  0
   34.3610   25.5180   30.4900 H   0  0  0  0  0  0  0  0  0  0  0  0
  1  7  1  6  0  0  0
  1  2  1  0  0  0  0
  1  6  1  0  0  0  0
  2 13  1  6  0  0  0
  2  3  1  0  0  0  0
  4  5  1  0  0  0  0
  4  3  1  0  0  0  0
  5  9  1  6  0  0  0
  5  6  1  0  0  0  0
  6 11  1  6  0  0  0
  8  7  1  0  0  0  0
 10  9  1  0  0  0  0
 12 11  1  0  0  0  0
 13 18  1  0  0  0  0
 14 20  1  0  0  0  0
 15 21  1  0  0  0  0
 15 14  2  0  0  0  0
 16 15  1  0  0  0  0
 17 16  2  0  0  0  0
 17 18  1  0  0  0  0
 18 19  2  0  0  0  0
 19 14  1  0  0  0  0
 22 16  1  0  0  0  0
M  END
>  <minimizedAffinity>
-4.08941507

$$$$

 OpenBabel03272509453D

 22 23  0  0  1  0  0  0  0  0999 V2000
   37.2990   20.2200   31.3310 C   0  0  2  0  0  3  0  0  0  0  0  0
   37.1890   21.3910   32.2530 C   0  0  1  0  0  3  0  0  0  0  0  0
   35.8840   21.7670   32.5310 O   0  0  0  0  0  0  0  0  0  0  0  0
   35.0750   20.7390   32.9630 C   0  0  0  0  0  2  0  0  0  0  0  0
   34.9210   19.6330   31.9430 C   0  0  1  0  0  3  0  0  0  0  0  0
   35.9450   19.7020   30.8650 C   0  0  2  0  0  3  0  0  0  0  0  0
   38.0580   19.1700   31.8880 O   0  0  0  0  0  0  0  0  0  0  0  0
   38.0360   19.1870   32.8770 H   0  0  0  0  0  0  0  0  0  0  0  0
   34.9790   18.3790   32.5790 O   0  0  0  0  0  0  0  0  0  0  0  0
   35.7650   18.3870   33.1740 H   0  0  0  0  0  0  0  0  0  0  0  0
   36.1060   18.4170   30.3510 O   0  0  0  0  0  0  0  0  0  0  0  0
   36.9190   17.9840   30.6990 H   0  0  0  0  0  0  0  0  0  0  0  0
   37.9030   21.2300   33.4740 O   0  0  0  0  0  0  0  0  0  0  0  0
   38.7390   24.4050   35.0430 C   0  0  0  0  0  0  0  0  0  0  0  0
   38.2550   24.1740   36.3430 C   0  0  0  0  0  0  0  0  0  0  0  0
   37.6630   22.9250   36.6060 C   0  0  0  0  0  0  0  0  0  0  0  0
   37.5900   22.0000   35.5790 N   0  0  0  0  0  0  0  0  0  0  0  0
   38.0720   22.2810   34.3560 C   0  0  0  0  0  0  0  0  0  0  0  0
   38.6410   23.4700   34.0840 N   0  0  0  0  0  0  0  0  0  0  0  0
   39.2080   25.3400   34.7620 H   0  0  0  0  0  0  0  0  0  0  0  0
   38.3470   24.9390   37.0910 H   0  0  0  0  0  0  0  0  0  0  0  0
   37.2840   22.7070   37.5760 H   0  0  0  0  0  0  0  0  0  0  0  0
  1  7  1  1  0  0  0
  1  2  1  0  0  0  0
  2  3  1  0  0  0  0
  2 13  1  1  0  0  0
  3  4  1  0  0  0  0
  5  9  1  1  0  0  0
  5  4  1  0  0  0  0
  6 11  1  1  0  0  0
  6  1  1  0  0  0  0
  6  5  1  0  0  0  0
  7  8  1  0  0  0  0
  9 10  1  0  0  0  0
 11 12  1  0  0  0  0
 13 18  1  0  0  0  0
 14 15  1  0  0  0  0
 15 16  2  0  0  0  0
 15 21  1  0  0  0  0
 16 22  1  0  0  0  0
 17 16  1  0  0  0  0
 18 17  2  0  0  0  0
 19 18  1  0  0  0  0
 19 14  2  0  0  0  0
 20 14  1  0  0  0  0
M  END
>  <minimizedAffinity>
-4.08931208

$$$$
