
 OpenBabel03272504573D

 36 38  0  0  1  0  0  0  0  0999 V2000
   36.9700   31.5050   48.6480 C   0  0  1  0  0  0  0  0  0  0  0  0
   36.1730   30.9000   47.6090 C   0  0  0  0  0  0  0  0  0  0  0  0
   37.1450   30.0760   48.3900 C   0  0  2  0  0  0  0  0  0  0  0  0
   36.5470   31.7420   49.6870 H   0  0  0  0  0  0  0  0  0  0  0  0
   35.1470   31.1490   47.7960 H   0  0  0  0  0  0  0  0  0  0  0  0
   36.4650   31.1300   46.5620 H   0  0  0  0  0  0  0  0  0  0  0  0
   37.8210   29.5700   47.7290 H   0  0  0  0  0  0  0  0  0  0  0  0
   38.1250   32.4030   48.3110 C   0  0  0  0  0  0  0  0  0  0  0  0
   38.4820   33.3490   49.3070 C   0  0  0  0  0  0  0  0  0  0  0  0
   39.5440   34.1560   48.9640 C   0  0  0  0  0  0  0  0  0  0  0  0
   40.1620   34.0130   47.7540 N   0  0  0  0  0  0  0  0  0  0  0  0
   39.7830   33.0940   46.8350 C   0  0  0  0  0  0  0  0  0  0  0  0
   38.7330   32.2780   47.1480 N   0  0  0  0  0  0  0  0  0  0  0  0
   40.4150   32.9540   45.5960 N   0  0  0  0  0  0  0  0  0  0  0  0
   38.0020   33.4590   50.2470 H   0  0  0  0  0  0  0  0  0  0  0  0
   39.8590   34.8940   49.6840 H   0  0  0  0  0  0  0  0  0  0  0  0
   41.2950   33.5260   45.4380 H   0  0  0  0  0  0  0  0  0  0  0  0
   40.0260   32.3140   44.8710 H   0  0  0  0  0  0  0  0  0  0  0  0
   36.5720   29.2280   49.3520 O   0  0  0  0  0  0  0  0  0  0  0  0
   34.5700   27.6470   49.6920 O   0  0  0  0  0  0  0  0  0  0  0  0
   34.9940   28.8730   48.9500 P   0  0  1  0  0  0  0  0  0  0  0  0
   33.9640   30.1410   49.5290 O   0  0  0  0  0  0  0  0  0  0  0  0
   34.4310   30.6110   50.2730 H   0  0  0  0  0  0  0  0  0  0  0  0
   34.8670   28.7450   47.2820 O   0  0  0  0  0  0  0  0  0  0  0  0
   33.7020   27.0180   46.2330 C   0  0  2  0  0  3  0  0  0  0  0  0
   33.6150   28.3980   46.8390 C   0  0  1  0  0  3  0  0  0  0  0  0
   32.6350   28.5180   47.8170 O   0  0  0  0  0  0  0  0  0  0  0  0
   31.4070   28.3220   47.1410 C   0  0  0  0  0  2  0  0  0  0  0  0
   31.3680   26.8110   46.8840 C   0  0  1  0  0  3  0  0  0  0  0  0
   32.3490   26.6090   45.7240 C   0  0  2  0  0  3  0  0  0  0  0  0
   34.0710   26.0670   47.2020 O   0  0  0  0  0  0  0  0  0  0  0  0
   35.0050   25.8400   47.0350 H   0  0  0  0  0  0  0  0  0  0  0  0
   31.9340   26.1850   47.9920 O   0  0  0  0  0  0  0  0  0  0  0  0
   31.4140   25.3780   48.1790 H   0  0  0  0  0  0  0  0  0  0  0  0
   32.3210   25.2990   45.2770 O   0  0  0  0  0  0  0  0  0  0  0  0
   32.8510   24.7470   45.9250 H   0  0  0  0  0  0  0  0  0  0  0  0
  1  4  1  1  0  0  0
  2  5  1  0  0  0  0
  2  3  1  0  0  0  0
  2  1  1  0  0  0  0
  3  7  1  6  0  0  0
  3  1  1  0  0  0  0
  3 19  1  0  0  0  0
  6  2  1  0  0  0  0
  8  1  1  0  0  0  0
  8  9  1  0  0  0  0
  9 15  1  0  0  0  0
 10  9  2  0  0  0  0
 10 16  1  0  0  0  0
 11 10  1  0  0  0  0
 12 13  1  0  0  0  0
 12 11  2  0  0  0  0
 13  8  2  0  0  0  0
 14 12  1  0  0  0  0
 17 14  1  0  0  0  0
 18 14  1  0  0  0  0
 21 19  1  0  0  0  0
 21 22  1  0  0  0  0
 21 20  2  1  0  0  0
 22 23  1  0  0  0  0
 24 21  1  0  0  0  0
 25 26  1  0  0  0  0
 25 31  1  1  0  0  0
 26 24  1  1  0  0  0
 26 27  1  0  0  0  0
 28 27  1  0  0  0  0
 29 28  1  0  0  0  0
 29 33  1  1  0  0  0
 30 35  1  1  0  0  0
 30 25  1  0  0  0  0
 30 29  1  0  0  0  0
 32 31  1  0  0  0  0
 33 34  1  0  0  0  0
 35 36  1  0  0  0  0
M  END
>  <minimizedAffinity>
-4.85985279

>  <minimizedRMSD>
0.596104801

$$$$
