
 OpenBabel03272508083D

 27 28  0  0  1  0  0  0  0  0999 V2000
   38.8320   32.8290   47.9300 O   0  0  0  0  0  0  0  0  0  0  0  0
   38.5940   31.7100   46.9810 P   0  0  2  0  0  0  0  0  0  0  0  0
   37.5580   32.2100   45.7350 O   0  0  0  0  0  0  0  0  0  0  0  0
   37.1270   33.0720   45.9000 H   0  0  0  0  0  0  0  0  0  0  0  0
   38.0160   30.2860   47.6930 O   0  0  0  0  0  0  0  0  0  0  0  0
   37.3470   30.2430   51.3410 C   0  0  0  0  0  0  0  0  0  0  0  0
   38.0450   30.5390   50.1720 C   0  0  0  0  0  0  0  0  0  0  0  0
   37.5160   30.1130   48.9410 C   0  0  0  0  0  0  0  0  0  0  0  0
   36.3450   29.4300   48.9700 N   0  0  0  0  0  0  0  0  0  0  0  0
   35.6990   29.1630   50.1270 C   0  0  0  0  0  0  0  0  0  0  0  0
   36.2000   29.5690   51.3040 N   0  0  0  0  0  0  0  0  0  0  0  0
   37.8680   30.6300   52.1950 H   0  0  0  0  0  0  0  0  0  0  0  0
   38.9730   31.0730   50.0650 H   0  0  0  0  0  0  0  0  0  0  0  0
   34.7600   28.6130   50.1280 H   0  0  0  0  0  0  0  0  0  0  0  0
   40.0820   31.3560   46.2450 O   0  0  0  0  0  0  0  0  0  0  0  0
   39.7600   30.3850   44.1650 C   0  0  2  0  0  3  0  0  0  0  0  0
   40.0960   31.6760   44.8920 C   0  0  1  0  0  3  0  0  0  0  0  0
   39.0540   32.5660   44.6560 O   0  0  0  0  0  0  0  0  0  0  0  0
   39.0680   33.0650   43.3620 C   0  0  0  0  0  2  0  0  0  0  0  0
   39.7580   32.1420   42.3900 C   0  0  1  0  0  3  0  0  0  0  0  0
   39.5590   30.6920   42.7220 C   0  0  2  0  0  3  0  0  0  0  0  0
   38.5930   29.8680   44.7060 O   0  0  0  0  0  0  0  0  0  0  0  0
   37.9420   30.5860   44.8850 H   0  0  0  0  0  0  0  0  0  0  0  0
   39.1770   32.3430   41.1310 O   0  0  0  0  0  0  0  0  0  0  0  0
   39.6880   31.8930   40.4130 H   0  0  0  0  0  0  0  0  0  0  0  0
   38.3420   30.2190   42.3000 O   0  0  0  0  0  0  0  0  0  0  0  0
   37.8230   30.8720   41.7780 H   0  0  0  0  0  0  0  0  0  0  0  0
  2  5  1  0  0  0  0
  2  1  2  1  0  0  0
  3  4  1  0  0  0  0
  3  2  1  0  0  0  0
  5  8  1  0  0  0  0
  6 12  1  0  0  0  0
  7  6  2  0  0  0  0
  8  9  2  0  0  0  0
  8  7  1  0  0  0  0
  9 10  1  0  0  0  0
 10 14  1  0  0  0  0
 10 11  2  0  0  0  0
 11  6  1  0  0  0  0
 13  7  1  0  0  0  0
 15  2  1  0  0  0  0
 16 22  1  1  0  0  0
 16 17  1  0  0  0  0
 17 15  1  1  0  0  0
 18 17  1  0  0  0  0
 19 18  1  0  0  0  0
 20 24  1  6  0  0  0
 20 21  1  0  0  0  0
 20 19  1  0  0  0  0
 21 26  1  1  0  0  0
 21 16  1  0  0  0  0
 22 23  1  0  0  0  0
 25 24  1  0  0  0  0
 27 26  1  0  0  0  0
M  END
>  <minimizedAffinity>
-5.57615995

>  <minimizedRMSD>
1.85859489

$$$$
