
 OpenBabel03272508273D

 41 44  0  0  1  0  0  0  0  0999 V2000
   33.8140   28.8930   47.2470 C   0  0  2  0  0  0  0  0  0  0  0  0
   34.5340   28.1310   48.3390 C   0  0  2  0  0  0  0  0  0  0  0  0
   33.6310   27.9930   49.3470 O   0  0  0  0  0  0  0  0  0  0  0  0
   32.3530   28.0850   48.8620 C   0  0  0  0  0  0  0  0  0  0  0  0
   32.4320   28.2580   47.3580 C   0  0  1  0  0  0  0  0  0  0  0  0
   33.7450   29.9730   47.4700 H   0  0  0  0  0  0  0  0  0  0  0  0
   34.8030   27.1460   47.9220 H   0  0  0  0  0  0  0  0  0  0  0  0
   31.8500   29.0160   49.2600 H   0  0  0  0  0  0  0  0  0  0  0  0
   31.7000   27.2430   49.1270 H   0  0  0  0  0  0  0  0  0  0  0  0
   32.4030   27.2710   46.8930 H   0  0  0  0  0  0  0  0  0  0  0  0
   35.6270   30.3720   49.0480 C   0  0  1  0  0  0  0  0  0  0  0  0
   35.7090   28.9590   48.7620 C   0  0  1  0  0  0  0  0  0  0  0  0
   35.9110   29.3740   50.1820 C   0  0  0  0  0  0  0  0  0  0  0  0
   34.7110   30.9560   49.3150 H   0  0  0  0  0  0  0  0  0  0  0  0
   36.6380   28.6500   48.1970 H   0  0  0  0  0  0  0  0  0  0  0  0
   36.9410   29.3070   50.5830 H   0  0  0  0  0  0  0  0  0  0  0  0
   35.1540   29.1640   50.9340 H   0  0  0  0  0  0  0  0  0  0  0  0
   36.8160   31.2890   48.7960 C   0  0  0  0  0  0  0  0  0  0  0  0
   37.0540   32.2920   49.7350 C   0  0  0  0  0  0  0  0  0  0  0  0
   38.1340   33.1220   49.4410 C   0  0  0  0  0  0  0  0  0  0  0  0
   38.8810   32.9370   48.3080 N   0  0  0  0  0  0  0  0  0  0  0  0
   38.6070   31.9470   47.4290 C   0  0  0  0  0  0  0  0  0  0  0  0
   37.5640   31.1140   47.6750 N   0  0  0  0  0  0  0  0  0  0  0  0
   36.4690   32.4280   50.6100 H   0  0  0  0  0  0  0  0  0  0  0  0
   38.4180   33.9400   50.0970 H   0  0  0  0  0  0  0  0  0  0  0  0
   39.1820   31.7820   46.5300 H   0  0  0  0  0  0  0  0  0  0  0  0
   34.3590   28.6970   45.9870 O   0  0  0  0  0  0  0  0  0  0  0  0
   34.1480   27.7760   45.7170 H   0  0  0  0  0  0  0  0  0  0  0  0
   31.4430   29.0580   46.8490 O   0  0  0  0  0  0  0  0  0  0  0  0
   29.9290   27.2790   46.3530 C   0  0  2  0  0  3  0  0  0  0  0  0
   30.7400   28.4420   45.8230 C   0  0  2  0  0  3  0  0  0  0  0  0
   31.5870   27.9580   44.8270 O   0  0  0  0  0  0  0  0  0  0  0  0
   30.8530   27.8860   43.6400 C   0  0  0  0  0  2  0  0  0  0  0  0
   29.4910   27.2680   43.8690 C   0  0  2  0  0  3  0  0  0  0  0  0
   29.4480   26.4750   45.1580 C   0  0  2  0  0  3  0  0  0  0  0  0
   28.8160   27.8060   47.0060 O   0  0  0  0  0  0  0  0  0  0  0  0
   28.0550   27.8270   46.3640 H   0  0  0  0  0  0  0  0  0  0  0  0
   29.2580   26.3730   42.8260 O   0  0  0  0  0  0  0  0  0  0  0  0
   28.3900   25.9020   42.9250 H   0  0  0  0  0  0  0  0  0  0  0  0
   28.1440   26.0120   45.3250 O   0  0  0  0  0  0  0  0  0  0  0  0
   27.9990   25.7690   46.2870 H   0  0  0  0  0  0  0  0  0  0  0  0
  1  5  1  0  0  0  0
  1  6  1  1  0  0  0
  1  2  1  0  0  0  0
  2  7  1  6  0  0  0
  2 12  1  0  0  0  0
  2  3  1  0  0  0  0
  4  9  1  0  0  0  0
  4  8  1  0  0  0  0
  4  3  1  0  0  0  0
  5 10  1  6  0  0  0
  5  4  1  0  0  0  0
 11 14  1  6  0  0  0
 11 13  1  0  0  0  0
 12 15  1  6  0  0  0
 12 11  1  0  0  0  0
 12 13  1  0  0  0  0
 13 16  1  0  0  0  0
 13 17  1  0  0  0  0
 18 11  1  0  0  0  0
 18 19  1  0  0  0  0
 19 24  1  0  0  0  0
 20 19  2  0  0  0  0
 20 25  1  0  0  0  0
 21 20  1  0  0  0  0
 22 23  1  0  0  0  0
 22 21  2  0  0  0  0
 23 18  2  0  0  0  0
 26 22  1  0  0  0  0
 27  1  1  0  0  0  0
 28 27  1  0  0  0  0
 29  5  1  0  0  0  0
 30 36  1  6  0  0  0
 31 30  1  0  0  0  0
 31 29  1  1  0  0  0
 32 31  1  0  0  0  0
 33 34  1  0  0  0  0
 33 32  1  0  0  0  0
 34 38  1  6  0  0  0
 34 35  1  0  0  0  0
 35 40  1  1  0  0  0
 35 30  1  0  0  0  0
 37 36  1  0  0  0  0
 38 39  1  0  0  0  0
 40 41  1  0  0  0  0
M  END
>  <minimizedAffinity>
-5.0352807

>  <minimizedRMSD>
0.793700337

$$$$
