
 OpenBabel03262521313D

 46 49  0  0  1  0  0  0  0  0999 V2000
   39.3680   31.8210   43.7360 C   0  0  1  0  0  0  0  0  0  0  0  0
   39.4020   32.0300   45.2180 C   0  0  1  0  0  0  0  0  0  0  0  0
   40.5360   33.0750   45.3240 C   0  0  0  0  0  0  0  0  0  0  0  0
   40.2830   33.8990   44.2350 O   0  0  0  0  0  0  0  0  0  0  0  0
   39.7590   33.1410   43.1920 C   0  0  0  0  0  0  0  0  0  0  0  0
   38.3510   31.4840   43.4590 H   0  0  0  0  0  0  0  0  0  0  0  0
   39.8610   31.1270   45.6890 H   0  0  0  0  0  0  0  0  0  0  0  0
   40.4220   33.6540   46.2550 H   0  0  0  0  0  0  0  0  0  0  0  0
   41.5260   32.6140   45.3310 H   0  0  0  0  0  0  0  0  0  0  0  0
   38.8160   33.6840   42.9090 H   0  0  0  0  0  0  0  0  0  0  0  0
   40.3580   33.1490   42.2700 H   0  0  0  0  0  0  0  0  0  0  0  0
   38.4000   32.6100   45.7890 O   0  0  0  0  0  0  0  0  0  0  0  0
   38.2380   31.1760   47.5850 C   0  0  1  0  0  0  0  0  0  0  0  0
   37.3530   29.9590   47.7800 C   0  0  2  0  0  0  0  0  0  0  0  0
   36.2530   30.1520   46.9310 O   0  0  0  0  0  0  0  0  0  0  0  0
   36.8510   30.7320   45.8410 C   0  0  0  0  0  0  0  0  0  0  0  0
   37.5290   31.9850   46.6280 C   0  0  2  0  0  0  0  0  0  0  0  0
   39.1810   30.7820   47.0290 H   0  0  0  0  0  0  0  0  0  0  0  0
   37.8850   29.0590   47.4440 H   0  0  0  0  0  0  0  0  0  0  0  0
   36.1540   31.1870   45.1810 H   0  0  0  0  0  0  0  0  0  0  0  0
   37.5260   30.0650   45.4290 H   0  0  0  0  0  0  0  0  0  0  0  0
   36.5770   32.4360   46.6870 H   0  0  0  0  0  0  0  0  0  0  0  0
   37.2840   29.5920   51.5150 C   0  0  0  0  0  0  0  0  0  0  0  0
   37.8350   29.7900   50.2120 C   0  0  0  0  0  0  0  0  0  0  0  0
   36.9000   29.7640   49.1620 C   0  0  0  0  0  0  0  0  0  0  0  0
   35.5440   29.5540   49.4150 N   0  0  0  0  0  0  0  0  0  0  0  0
   35.1100   29.3750   50.6770 C   0  0  0  0  0  0  0  0  0  0  0  0
   35.9640   29.3930   51.7110 N   0  0  0  0  0  0  0  0  0  0  0  0
   37.9140   29.5930   52.4000 H   0  0  0  0  0  0  0  0  0  0  0  0
   38.8930   29.9330   50.1040 H   0  0  0  0  0  0  0  0  0  0  0  0
   34.0400   29.2260   50.6970 H   0  0  0  0  0  0  0  0  0  0  0  0
   38.7140   31.7310   48.6990 O   0  0  0  0  0  0  0  0  0  0  0  0
   38.3450   32.6250   48.8980 H   0  0  0  0  0  0  0  0  0  0  0  0
   40.2390   30.7800   43.4580 O   0  0  0  0  0  0  0  0  0  0  0  0
   41.3880   29.2970   42.0720 C   0  0  1  0  0  0  0  0  0  0  0  0
   40.4730   30.5040   42.1400 C   0  0  1  0  0  0  0  0  0  0  0  0
   39.2660   30.3340   41.5090 O   0  0  0  0  0  0  0  0  0  0  0  0
   39.2370   29.4360   40.4660 C   0  0  0  0  0  0  0  0  0  0  0  0
   39.7380   28.0680   40.8250 C   0  0  1  0  0  0  0  0  0  0  0  0
   40.5010   28.0720   42.1430 C   0  0  2  0  0  0  0  0  0  0  0  0
   42.1670   29.3070   40.9190 O   0  0  0  0  0  0  0  0  0  0  0  0
   42.9680   28.7570   41.0220 H   0  0  0  0  0  0  0  0  0  0  0  0
   38.7630   27.0800   40.7870 O   0  0  0  0  0  0  0  0  0  0  0  0
   38.7280   26.6920   41.7170 H   0  0  0  0  0  0  0  0  0  0  0  0
   39.6570   28.2380   43.2400 O   0  0  0  0  0  0  0  0  0  0  0  0
   38.7520   28.4700   42.8810 H   0  0  0  0  0  0  0  0  0  0  0  0
  1  6  1  6  0  0  0
  1  2  1  0  0  0  0
  2  3  1  0  0  0  0
  2  7  1  1  0  0  0
  2 12  1  0  0  0  0
  3  9  1  0  0  0  0
  3  8  1  0  0  0  0
  4  3  1  0  0  0  0
  5  1  1  0  0  0  0
  5  4  1  0  0  0  0
 10  5  1  0  0  0  0
 11  5  1  0  0  0  0
 12 17  1  0  0  0  0
 13 18  1  6  0  0  0
 13 14  1  0  0  0  0
 13 32  1  0  0  0  0
 14 19  1  6  0  0  0
 14 25  1  0  0  0  0
 15 14  1  0  0  0  0
 16 17  1  0  0  0  0
 16 15  1  0  0  0  0
 17 22  1  1  0  0  0
 17 13  1  0  0  0  0
 20 16  1  0  0  0  0
 21 16  1  0  0  0  0
 23 28  1  0  0  0  0
 23 29  1  0  0  0  0
 24 23  2  0  0  0  0
 25 26  2  0  0  0  0
 25 24  1  0  0  0  0
 26 27  1  0  0  0  0
 27 31  1  0  0  0  0
 27 28  2  0  0  0  0
 30 24  1  0  0  0  0
 32 33  1  0  0  0  0
 34  1  1  0  0  0  0
 35 41  1  6  0  0  0
 35 36  1  0  0  0  0
 35 40  1  0  0  0  0
 36 34  1  1  0  0  0
 37 36  1  0  0  0  0
 38 39  1  0  0  0  0
 38 37  1  0  0  0  0
 39 43  1  1  0  0  0
 39 40  1  0  0  0  0
 40 45  1  1  0  0  0
 41 42  1  0  0  0  0
 43 44  1  0  0  0  0
 46 45  1  0  0  0  0
M  END
>  <minimizedAffinity>
-5.91371012

>  <minimizedRMSD>
3.48240852

$$$$
