
 OpenBabel03272503493D

 40 42  0  0  1  0  0  0  0  0999 V2000
   33.2790   27.3140   45.8220 C   0  0  1  0  0  0  0  0  0  0  0  0
   33.9330   27.4530   47.2140 C   0  0  2  0  0  0  0  0  0  0  0  0
   33.7450   26.2270   47.7700 O   0  0  0  0  0  0  0  0  0  0  0  0
   34.0840   25.3280   46.7820 C   0  0  0  0  0  0  0  0  0  0  0  0
   33.6740   25.9050   45.4620 C   0  0  2  0  0  0  0  0  0  0  0  0
   33.7740   28.0660   45.1780 H   0  0  0  0  0  0  0  0  0  0  0  0
   34.9930   27.7580   47.0240 H   0  0  0  0  0  0  0  0  0  0  0  0
   33.4430   24.4190   46.9700 H   0  0  0  0  0  0  0  0  0  0  0  0
   35.1210   24.9640   46.8350 H   0  0  0  0  0  0  0  0  0  0  0  0
   32.8350   25.3680   45.0070 H   0  0  0  0  0  0  0  0  0  0  0  0
   31.9170   27.5300   45.9060 O   0  0  0  0  0  0  0  0  0  0  0  0
   31.4880   26.7470   46.3000 H   0  0  0  0  0  0  0  0  0  0  0  0
   33.2860   28.5040   47.7950 O   0  0  0  0  0  0  0  0  0  0  0  0
   35.3450   29.8130   46.7840 O   0  0  0  0  0  0  0  0  0  0  0  0
   34.0770   29.9790   47.6140 P   0  0  1  0  0  0  0  0  0  0  0  0
   33.1080   31.0490   46.7290 O   0  0  0  0  0  0  0  0  0  0  0  0
   32.1710   30.8620   46.9910 H   0  0  0  0  0  0  0  0  0  0  0  0
   34.3780   30.5800   49.1790 O   0  0  0  0  0  0  0  0  0  0  0  0
   35.6090   30.4740   49.7900 C   0  0  0  0  0  0  0  0  0  0  0  0
   35.9610   29.4600   50.7060 C   0  0  0  0  0  0  0  0  0  0  0  0
   37.2430   29.4840   51.2420 C   0  0  0  0  0  0  0  0  0  0  0  0
   38.0960   30.4870   50.8530 N   0  0  0  0  0  0  0  0  0  0  0  0
   37.7210   31.4480   49.9650 C   0  0  0  0  0  0  0  0  0  0  0  0
   36.4740   31.4470   49.4280 N   0  0  0  0  0  0  0  0  0  0  0  0
   35.1970   28.7570   50.9080 H   0  0  0  0  0  0  0  0  0  0  0  0
   37.5010   28.7180   51.9300 H   0  0  0  0  0  0  0  0  0  0  0  0
   38.4620   32.1990   49.7180 H   0  0  0  0  0  0  0  0  0  0  0  0
   34.7380   25.9310   44.5680 O   0  0  0  0  0  0  0  0  0  0  0  0
   35.4790   24.3560   42.9400 C   0  0  1  0  0  3  0  0  0  0  0  0
   34.4510   25.3950   43.3280 C   0  0  2  0  0  3  0  0  0  0  0  0
   34.5220   26.4700   42.4190 O   0  0  0  0  0  0  0  0  0  0  0  0
   35.8050   27.0300   42.5120 C   0  0  0  0  0  2  0  0  0  0  0  0
   36.8030   26.1000   41.8490 C   0  0  1  0  0  3  0  0  0  0  0  0
   36.1410   24.7540   41.6330 C   0  0  2  0  0  3  0  0  0  0  0  0
   36.5270   24.3040   43.8800 O   0  0  0  0  0  0  0  0  0  0  0  0
   36.6050   25.1350   44.3870 H   0  0  0  0  0  0  0  0  0  0  0  0
   37.1820   26.6040   40.5860 O   0  0  0  0  0  0  0  0  0  0  0  0
   37.6210   25.8540   40.1150 H   0  0  0  0  0  0  0  0  0  0  0  0
   35.2120   24.8650   40.6020 O   0  0  0  0  0  0  0  0  0  0  0  0
   34.5590   24.1400   40.7050 H   0  0  0  0  0  0  0  0  0  0  0  0
  1  6  1  6  0  0  0
  1 11  1  0  0  0  0
  1  2  1  0  0  0  0
  2  7  1  6  0  0  0
  2  3  1  0  0  0  0
  2 13  1  0  0  0  0
  4  9  1  0  0  0  0
  4  8  1  0  0  0  0
  4  3  1  0  0  0  0
  5 10  1  6  0  0  0
  5  1  1  0  0  0  0
  5  4  1  0  0  0  0
 11 12  1  0  0  0  0
 15 14  2  6  0  0  0
 15 13  1  0  0  0  0
 15 18  1  0  0  0  0
 16 17  1  0  0  0  0
 16 15  1  0  0  0  0
 18 19  1  0  0  0  0
 19 20  1  0  0  0  0
 20 25  1  0  0  0  0
 20 21  2  0  0  0  0
 21 26  1  0  0  0  0
 22 21  1  0  0  0  0
 23 22  2  0  0  0  0
 24 19  2  0  0  0  0
 24 23  1  0  0  0  0
 27 23  1  0  0  0  0
 28  5  1  0  0  0  0
 29 30  1  0  0  0  0
 29 35  1  1  0  0  0
 30 28  1  1  0  0  0
 31 32  1  0  0  0  0
 31 30  1  0  0  0  0
 33 37  1  6  0  0  0
 33 32  1  0  0  0  0
 34 39  1  6  0  0  0
 34 33  1  0  0  0  0
 34 29  1  0  0  0  0
 35 36  1  0  0  0  0
 38 37  1  0  0  0  0
 39 40  1  0  0  0  0
M  END
>  <minimizedAffinity>
-4.1587472

>  <minimizedRMSD>
0.915469944

$$$$
