
 OpenBabel03272502263D

 33 35  0  0  1  0  0  0  0  0999 V2000
   37.6840   23.5150   30.8950 C   0  0  0  0  0  0  0  0  0  0  0  0
   37.2880   24.8630   30.7470 C   0  0  0  0  0  0  0  0  0  0  0  0
   37.1300   25.6120   31.9020 C   0  0  0  0  0  0  0  0  0  0  0  0
   37.3600   25.0200   33.0930 N   0  0  0  0  0  0  0  0  0  0  0  0
   37.7360   23.7310   33.2020 C   0  0  0  0  0  0  0  0  0  0  0  0
   37.8940   22.9900   32.0960 N   0  0  0  0  0  0  0  0  0  0  0  0
   37.7890   22.9860   29.9570 H   0  0  0  0  0  0  0  0  0  0  0  0
   37.1000   25.3540   29.7970 H   0  0  0  0  0  0  0  0  0  0  0  0
   36.7260   27.0140   31.9100 C   0  0  0  0  0  0  0  0  0  0  0  0
   36.6490   27.7580   30.7440 C   0  0  0  0  0  0  0  0  0  0  0  0
   36.2710   29.0860   30.7250 C   0  0  0  0  0  0  0  0  0  0  0  0
   35.9580   29.6950   31.9090 N   0  0  0  0  0  0  0  0  0  0  0  0
   36.0390   28.9600   33.0150 C   0  0  0  0  0  0  0  0  0  0  0  0
   36.4040   27.6740   33.0460 N   0  0  0  0  0  0  0  0  0  0  0  0
   36.9070   27.2330   29.8320 H   0  0  0  0  0  0  0  0  0  0  0  0
   36.2380   29.5920   29.7710 H   0  0  0  0  0  0  0  0  0  0  0  0
   35.7020   29.6090   34.3070 C   0  0  0  0  0  0  0  0  0  0  0  0
   35.7900   30.9890   34.1290 F   0  0  0  0  0  0  0  0  0  0  0  0
   34.4140   29.2810   34.7180 F   0  0  0  0  0  0  0  0  0  0  0  0
   36.5720   29.2870   35.3030 F   0  0  0  0  0  0  0  0  0  0  0  0
   37.9390   23.2480   34.4850 O   0  0  0  0  0  0  0  0  0  0  0  0
   39.5390   22.3570   36.0800 C   0  0  2  0  0  3  0  0  0  0  0  0
   39.0650   23.5260   35.2570 C   0  0  2  0  0  3  0  0  0  0  0  0
   38.7510   24.6060   36.0790 O   0  0  0  0  0  0  0  0  0  0  0  0
   37.8950   24.2710   37.1020 C   0  0  0  0  0  2  0  0  0  0  0  0
   38.6710   23.4860   38.1380 C   0  0  2  0  0  3  0  0  0  0  0  0
   39.8590   22.8640   37.4670 C   0  0  1  0  0  3  0  0  0  0  0  0
   40.7670   21.8820   35.5660 O   0  0  0  0  0  0  0  0  0  0  0  0
   41.1690   21.3250   36.2830 H   0  0  0  0  0  0  0  0  0  0  0  0
   37.8540   22.5510   38.7590 O   0  0  0  0  0  0  0  0  0  0  0  0
   38.1940   22.4430   39.6840 H   0  0  0  0  0  0  0  0  0  0  0  0
   40.4110   21.8440   38.2140 O   0  0  0  0  0  0  0  0  0  0  0  0
   39.8380   21.5000   38.9280 H   0  0  0  0  0  0  0  0  0  0  0  0
  1  6  1  0  0  0  0
  2  1  2  0  0  0  0
  2  3  1  0  0  0  0
  3  9  1  0  0  0  0
  3  4  2  0  0  0  0
  4  5  1  0  0  0  0
  5 21  1  0  0  0  0
  6  5  2  0  0  0  0
  7  1  1  0  0  0  0
  8  2  1  0  0  0  0
  9 14  1  0  0  0  0
 10  9  2  0  0  0  0
 11 10  1  0  0  0  0
 11 12  2  0  0  0  0
 12 13  1  0  0  0  0
 13 14  2  0  0  0  0
 13 17  1  0  0  0  0
 15 10  1  0  0  0  0
 16 11  1  0  0  0  0
 17 19  1  0  0  0  0
 17 20  1  0  0  0  0
 18 17  1  0  0  0  0
 22 28  1  6  0  0  0
 22 27  1  0  0  0  0
 23 21  1  1  0  0  0
 23 24  1  0  0  0  0
 23 22  1  0  0  0  0
 24 25  1  0  0  0  0
 25 26  1  0  0  0  0
 26 30  1  6  0  0  0
 27 26  1  0  0  0  0
 27 32  1  1  0  0  0
 28 29  1  0  0  0  0
 30 31  1  0  0  0  0
 32 33  1  0  0  0  0
M  END
>  <minimizedAffinity>
-6.47258472

$$$$

 OpenBabel03272502263D

 33 35  0  0  1  0  0  0  0  0999 V2000
   34.7890   31.9400   34.1230 C   0  0  0  0  0  0  0  0  0  0  0  0
   35.7640   30.9350   33.9430 C   0  0  0  0  0  0  0  0  0  0  0  0
   35.3300   29.6190   33.9290 C   0  0  0  0  0  0  0  0  0  0  0  0
   34.0130   29.3720   34.0870 N   0  0  0  0  0  0  0  0  0  0  0  0
   33.1050   30.3520   34.2580 C   0  0  0  0  0  0  0  0  0  0  0  0
   33.5060   31.6320   34.2750 N   0  0  0  0  0  0  0  0  0  0  0  0
   35.1920   32.9440   34.1250 H   0  0  0  0  0  0  0  0  0  0  0  0
   36.8260   31.1170   33.8130 H   0  0  0  0  0  0  0  0  0  0  0  0
   36.2170   28.4740   33.7530 C   0  0  0  0  0  0  0  0  0  0  0  0
   36.5290   27.9780   32.4980 C   0  0  0  0  0  0  0  0  0  0  0  0
   37.3650   26.8970   32.3050 C   0  0  0  0  0  0  0  0  0  0  0  0
   37.9100   26.2860   33.4010 N   0  0  0  0  0  0  0  0  0  0  0  0
   37.5950   26.7800   34.5960 C   0  0  0  0  0  0  0  0  0  0  0  0
   36.7870   27.8270   34.7960 N   0  0  0  0  0  0  0  0  0  0  0  0
   36.0740   28.4940   31.6610 H   0  0  0  0  0  0  0  0  0  0  0  0
   37.5550   26.5750   31.2920 H   0  0  0  0  0  0  0  0  0  0  0  0
   38.1790   26.1270   35.7940 C   0  0  0  0  0  0  0  0  0  0  0  0
   38.3120   27.0940   36.7890 F   0  0  0  0  0  0  0  0  0  0  0  0
   37.3640   25.0990   36.2590 F   0  0  0  0  0  0  0  0  0  0  0  0
   39.4240   25.6250   35.5680 F   0  0  0  0  0  0  0  0  0  0  0  0
   31.7850   29.9600   34.4090 O   0  0  0  0  0  0  0  0  0  0  0  0
   31.8880   29.5550   36.8020 C   0  0  2  0  0  3  0  0  0  0  0  0
   31.0850   30.0150   35.6140 C   0  0  2  0  0  3  0  0  0  0  0  0
   29.9400   29.2350   35.4670 O   0  0  0  0  0  0  0  0  0  0  0  0
   30.2070   27.8860   35.4600 C   0  0  0  0  0  2  0  0  0  0  0  0
   30.5280   27.4550   36.8760 C   0  0  2  0  0  3  0  0  0  0  0  0
   31.0080   28.6540   37.6370 C   0  0  1  0  0  3  0  0  0  0  0  0
   32.1830   30.6600   37.6320 O   0  0  0  0  0  0  0  0  0  0  0  0
   32.4480   30.2820   38.5100 H   0  0  0  0  0  0  0  0  0  0  0  0
   31.4480   26.4150   36.8750 O   0  0  0  0  0  0  0  0  0  0  0  0
   31.2550   25.8610   37.6740 H   0  0  0  0  0  0  0  0  0  0  0  0
   31.6710   28.3100   38.7970 O   0  0  0  0  0  0  0  0  0  0  0  0
   31.9560   27.3760   38.8470 H   0  0  0  0  0  0  0  0  0  0  0  0
  1  7  1  0  0  0  0
  1  6  1  0  0  0  0
  2  1  2  0  0  0  0
  3  2  1  0  0  0  0
  3  4  2  0  0  0  0
  4  5  1  0  0  0  0
  5  6  2  0  0  0  0
  5 21  1  0  0  0  0
  8  2  1  0  0  0  0
  9  3  1  0  0  0  0
  9 14  1  0  0  0  0
 10  9  2  0  0  0  0
 11 10  1  0  0  0  0
 11 12  2  0  0  0  0
 12 13  1  0  0  0  0
 13 14  2  0  0  0  0
 13 17  1  0  0  0  0
 15 10  1  0  0  0  0
 16 11  1  0  0  0  0
 17 19  1  0  0  0  0
 17 18  1  0  0  0  0
 20 17  1  0  0  0  0
 22 28  1  1  0  0  0
 22 27  1  0  0  0  0
 23 21  1  6  0  0  0
 23 22  1  0  0  0  0
 24 23  1  0  0  0  0
 25 24  1  0  0  0  0
 25 26  1  0  0  0  0
 26 30  1  6  0  0  0
 26 27  1  0  0  0  0
 27 32  1  1  0  0  0
 28 29  1  0  0  0  0
 30 31  1  0  0  0  0
 32 33  1  0  0  0  0
M  END
>  <minimizedAffinity>
-6.43496513

$$$$

 OpenBabel03272502263D

 33 35  0  0  1  0  0  0  0  0999 V2000
   37.4670   27.9850   31.9340 C   0  0  0  0  0  0  0  0  0  0  0  0
   38.1570   26.9290   32.5690 C   0  0  0  0  0  0  0  0  0  0  0  0
   37.8100   26.6360   33.8780 C   0  0  0  0  0  0  0  0  0  0  0  0
   36.8420   27.3680   34.4690 N   0  0  0  0  0  0  0  0  0  0  0  0
   36.2020   28.3710   33.8370 C   0  0  0  0  0  0  0  0  0  0  0  0
   36.5240   28.6700   32.5700 N   0  0  0  0  0  0  0  0  0  0  0  0
   37.7850   28.1640   30.9150 H   0  0  0  0  0  0  0  0  0  0  0  0
   38.9370   26.3310   32.1080 H   0  0  0  0  0  0  0  0  0  0  0  0
   38.4330   25.5760   34.6640 C   0  0  0  0  0  0  0  0  0  0  0  0
   39.4350   24.7740   34.1430 C   0  0  0  0  0  0  0  0  0  0  0  0
   40.0390   23.7640   34.8650 C   0  0  0  0  0  0  0  0  0  0  0  0
   39.6300   23.5440   36.1520 N   0  0  0  0  0  0  0  0  0  0  0  0
   38.6660   24.3270   36.6300 C   0  0  0  0  0  0  0  0  0  0  0  0
   38.0740   25.3080   35.9410 N   0  0  0  0  0  0  0  0  0  0  0  0
   39.7250   24.9860   33.1210 H   0  0  0  0  0  0  0  0  0  0  0  0
   40.8130   23.1860   34.3820 H   0  0  0  0  0  0  0  0  0  0  0  0
   38.2120   24.0990   38.0250 C   0  0  0  0  0  0  0  0  0  0  0  0
   39.2400   23.4500   38.7090 F   0  0  0  0  0  0  0  0  0  0  0  0
   37.9200   25.2990   38.6660 F   0  0  0  0  0  0  0  0  0  0  0  0
   37.1220   23.2880   38.1000 F   0  0  0  0  0  0  0  0  0  0  0  0
   35.2290   29.0420   34.5600 O   0  0  0  0  0  0  0  0  0  0  0  0
   35.4750   30.9170   36.0840 C   0  0  2  0  0  3  0  0  0  0  0  0
   35.1690   30.4280   34.6930 C   0  0  2  0  0  3  0  0  0  0  0  0
   33.8940   30.8300   34.3040 O   0  0  0  0  0  0  0  0  0  0  0  0
   32.9250   30.5070   35.2250 C   0  0  0  0  0  2  0  0  0  0  0  0
   33.0510   31.4500   36.4030 C   0  0  2  0  0  3  0  0  0  0  0  0
   34.4550   31.9730   36.4410 C   0  0  1  0  0  3  0  0  0  0  0  0
   36.7200   31.5860   36.0890 O   0  0  0  0  0  0  0  0  0  0  0  0
   36.7430   32.1210   36.9250 H   0  0  0  0  0  0  0  0  0  0  0  0
   32.6810   30.8150   37.5810 O   0  0  0  0  0  0  0  0  0  0  0  0
   32.3000   31.5120   38.1750 H   0  0  0  0  0  0  0  0  0  0  0  0
   34.7770   32.5290   37.6620 O   0  0  0  0  0  0  0  0  0  0  0  0
   34.1710   32.2960   38.3930 H   0  0  0  0  0  0  0  0  0  0  0  0
  1  2  2  0  0  0  0
  1  6  1  0  0  0  0
  2  3  1  0  0  0  0
  3  4  2  0  0  0  0
  3  9  1  0  0  0  0
  5  4  1  0  0  0  0
  5 21  1  0  0  0  0
  6  5  2  0  0  0  0
  7  1  1  0  0  0  0
  8  2  1  0  0  0  0
  9 14  1  0  0  0  0
 10  9  2  0  0  0  0
 10 11  1  0  0  0  0
 11 12  2  0  0  0  0
 12 13  1  0  0  0  0
 13 17  1  0  0  0  0
 14 13  2  0  0  0  0
 15 10  1  0  0  0  0
 16 11  1  0  0  0  0
 17 20  1  0  0  0  0
 17 19  1  0  0  0  0
 17 18  1  0  0  0  0
 22 28  1  6  0  0  0
 22 27  1  0  0  0  0
 23 21  1  1  0  0  0
 23 22  1  0  0  0  0
 24 23  1  0  0  0  0
 24 25  1  0  0  0  0
 25 26  1  0  0  0  0
 26 27  1  0  0  0  0
 26 30  1  1  0  0  0
 27 32  1  1  0  0  0
 28 29  1  0  0  0  0
 30 31  1  0  0  0  0
 32 33  1  0  0  0  0
M  END
>  <minimizedAffinity>
-6.3570652

$$$$

 OpenBabel03272502263D

 33 35  0  0  1  0  0  0  0  0999 V2000
   36.9380   23.5640   31.5010 C   0  0  0  0  0  0  0  0  0  0  0  0
   37.6160   23.0010   32.6040 C   0  0  0  0  0  0  0  0  0  0  0  0
   37.9500   23.8480   33.6490 C   0  0  0  0  0  0  0  0  0  0  0  0
   37.6120   25.1510   33.5570 N   0  0  0  0  0  0  0  0  0  0  0  0
   36.9640   25.6600   32.4910 C   0  0  0  0  0  0  0  0  0  0  0  0
   36.6330   24.8560   31.4700 N   0  0  0  0  0  0  0  0  0  0  0  0
   36.7070   22.8520   30.7200 H   0  0  0  0  0  0  0  0  0  0  0  0
   37.8950   21.9550   32.6930 H   0  0  0  0  0  0  0  0  0  0  0  0
   38.6510   23.4130   34.8520 C   0  0  0  0  0  0  0  0  0  0  0  0
   39.7990   22.6400   34.7890 C   0  0  0  0  0  0  0  0  0  0  0  0
   40.4790   22.2150   35.9130 C   0  0  0  0  0  0  0  0  0  0  0  0
   40.0010   22.5720   37.1430 N   0  0  0  0  0  0  0  0  0  0  0  0
   38.8970   23.3150   37.1780 C   0  0  0  0  0  0  0  0  0  0  0  0
   38.2290   23.7330   36.0980 N   0  0  0  0  0  0  0  0  0  0  0  0
   40.1400   22.3820   33.7940 H   0  0  0  0  0  0  0  0  0  0  0  0
   41.3660   21.6140   35.7730 H   0  0  0  0  0  0  0  0  0  0  0  0
   38.3670   23.7100   38.5070 C   0  0  0  0  0  0  0  0  0  0  0  0
   37.8940   25.0180   38.4100 F   0  0  0  0  0  0  0  0  0  0  0  0
   37.3270   22.8750   38.9050 F   0  0  0  0  0  0  0  0  0  0  0  0
   39.3210   23.7100   39.4780 F   0  0  0  0  0  0  0  0  0  0  0  0
   36.6770   27.0150   32.5250 O   0  0  0  0  0  0  0  0  0  0  0  0
   36.5690   28.6800   30.7600 C   0  0  2  0  0  3  0  0  0  0  0  0
   35.8510   27.6630   31.6080 C   0  0  2  0  0  3  0  0  0  0  0  0
   34.8220   28.2670   32.3280 O   0  0  0  0  0  0  0  0  0  0  0  0
   35.2360   29.3740   33.0300 C   0  0  0  0  0  2  0  0  0  0  0  0
   35.4510   30.5090   32.0510 C   0  0  2  0  0  3  0  0  0  0  0  0
   35.7100   29.9220   30.6960 C   0  0  1  0  0  3  0  0  0  0  0  0
   36.6480   28.2150   29.4270 O   0  0  0  0  0  0  0  0  0  0  0  0
   36.8590   29.0090   28.8700 H   0  0  0  0  0  0  0  0  0  0  0  0
   36.4750   31.3420   32.4810 O   0  0  0  0  0  0  0  0  0  0  0  0
   36.2600   32.2530   32.1550 H   0  0  0  0  0  0  0  0  0  0  0  0
   36.2790   30.8310   29.8280 O   0  0  0  0  0  0  0  0  0  0  0  0
   36.6590   31.6240   30.2550 H   0  0  0  0  0  0  0  0  0  0  0  0
  1  2  1  0  0  0  0
  2  8  1  0  0  0  0
  2  3  2  0  0  0  0
  3  9  1  0  0  0  0
  4  3  1  0  0  0  0
  5 21  1  0  0  0  0
  5  4  2  0  0  0  0
  6  1  2  0  0  0  0
  6  5  1  0  0  0  0
  7  1  1  0  0  0  0
  9 14  1  0  0  0  0
 10  9  2  0  0  0  0
 10 11  1  0  0  0  0
 11 12  2  0  0  0  0
 12 13  1  0  0  0  0
 13 17  1  0  0  0  0
 14 13  2  0  0  0  0
 15 10  1  0  0  0  0
 16 11  1  0  0  0  0
 17 19  1  0  0  0  0
 17 20  1  0  0  0  0
 18 17  1  0  0  0  0
 22 28  1  6  0  0  0
 22 23  1  0  0  0  0
 23 24  1  0  0  0  0
 23 21  1  1  0  0  0
 24 25  1  0  0  0  0
 26 30  1  1  0  0  0
 26 25  1  0  0  0  0
 27 32  1  6  0  0  0
 27 22  1  0  0  0  0
 27 26  1  0  0  0  0
 29 28  1  0  0  0  0
 31 30  1  0  0  0  0
 32 33  1  0  0  0  0
M  END
>  <minimizedAffinity>
-6.34422874

$$$$

 OpenBabel03272502263D

 33 35  0  0  1  0  0  0  0  0999 V2000
   36.1860   21.5290   32.2150 C   0  0  0  0  0  0  0  0  0  0  0  0
   36.9470   21.4660   33.4030 C   0  0  0  0  0  0  0  0  0  0  0  0
   37.7280   22.5660   33.7190 C   0  0  0  0  0  0  0  0  0  0  0  0
   37.7190   23.6260   32.8850 N   0  0  0  0  0  0  0  0  0  0  0  0
   36.9820   23.6570   31.7580 C   0  0  0  0  0  0  0  0  0  0  0  0
   36.2210   22.6020   31.4340 N   0  0  0  0  0  0  0  0  0  0  0  0
   35.6000   20.6400   32.0250 H   0  0  0  0  0  0  0  0  0  0  0  0
   36.9650   20.6210   34.0840 H   0  0  0  0  0  0  0  0  0  0  0  0
   38.5680   22.6480   34.9100 C   0  0  0  0  0  0  0  0  0  0  0  0
   39.9000   22.2680   34.8920 C   0  0  0  0  0  0  0  0  0  0  0  0
   40.7140   22.3350   36.0060 C   0  0  0  0  0  0  0  0  0  0  0  0
   40.1830   22.7970   37.1790 N   0  0  0  0  0  0  0  0  0  0  0  0
   38.9010   23.1560   37.1710 C   0  0  0  0  0  0  0  0  0  0  0  0
   38.1030   23.0960   36.1000 N   0  0  0  0  0  0  0  0  0  0  0  0
   40.2750   21.9090   33.9420 H   0  0  0  0  0  0  0  0  0  0  0  0
   41.7410   22.0180   35.9040 H   0  0  0  0  0  0  0  0  0  0  0  0
   38.3130   23.6580   38.4380 C   0  0  0  0  0  0  0  0  0  0  0  0
   39.3190   23.6670   39.4040 F   0  0  0  0  0  0  0  0  0  0  0  0
   37.8100   24.9470   38.2860 F   0  0  0  0  0  0  0  0  0  0  0  0
   37.3210   22.8570   38.9140 F   0  0  0  0  0  0  0  0  0  0  0  0
   37.0650   24.8080   30.9900 O   0  0  0  0  0  0  0  0  0  0  0  0
   36.1810   27.0690   30.9300 C   0  0  2  0  0  3  0  0  0  0  0  0
   37.1680   26.0940   31.5170 C   0  0  2  0  0  3  0  0  0  0  0  0
   38.4720   26.5310   31.3020 O   0  0  0  0  0  0  0  0  0  0  0  0
   38.7240   26.8420   29.9860 C   0  0  0  0  0  2  0  0  0  0  0  0
   38.0470   28.1580   29.6670 C   0  0  2  0  0  3  0  0  0  0  0  0
   36.9180   28.3550   30.6340 C   0  0  1  0  0  3  0  0  0  0  0  0
   35.2150   27.4110   31.9040 O   0  0  0  0  0  0  0  0  0  0  0  0
   34.7780   28.2410   31.5790 H   0  0  0  0  0  0  0  0  0  0  0  0
   37.6320   28.1890   28.3420 O   0  0  0  0  0  0  0  0  0  0  0  0
   37.6780   29.1350   28.0500 H   0  0  0  0  0  0  0  0  0  0  0  0
   36.0200   29.3120   30.2070 O   0  0  0  0  0  0  0  0  0  0  0  0
   36.0880   29.5460   29.2600 H   0  0  0  0  0  0  0  0  0  0  0  0
  1  2  1  0  0  0  0
  2  3  2  0  0  0  0
  2  8  1  0  0  0  0
  3  9  1  0  0  0  0
  4  3  1  0  0  0  0
  5  4  2  0  0  0  0
  6  5  1  0  0  0  0
  6  1  2  0  0  0  0
  7  1  1  0  0  0  0
  9 14  1  0  0  0  0
 10  9  2  0  0  0  0
 10 11  1  0  0  0  0
 11 12  2  0  0  0  0
 13 12  1  0  0  0  0
 13 17  1  0  0  0  0
 14 13  2  0  0  0  0
 15 10  1  0  0  0  0
 16 11  1  0  0  0  0
 17 20  1  0  0  0  0
 17 18  1  0  0  0  0
 19 17  1  0  0  0  0
 21  5  1  0  0  0  0
 22 23  1  0  0  0  0
 22 28  1  1  0  0  0
 23 21  1  6  0  0  0
 24 23  1  0  0  0  0
 25 24  1  0  0  0  0
 26 30  1  6  0  0  0
 26 25  1  0  0  0  0
 26 27  1  0  0  0  0
 27 32  1  6  0  0  0
 27 22  1  0  0  0  0
 29 28  1  0  0  0  0
 31 30  1  0  0  0  0
 33 32  1  0  0  0  0
M  END
>  <minimizedAffinity>
-6.33682013

$$$$

 OpenBabel03272502263D

 33 35  0  0  1  0  0  0  0  0999 V2000
   35.9690   23.1820   31.3110 C   0  0  0  0  0  0  0  0  0  0  0  0
   36.8650   22.8620   32.3550 C   0  0  0  0  0  0  0  0  0  0  0  0
   37.4340   23.9160   33.0530 C   0  0  0  0  0  0  0  0  0  0  0  0
   37.1050   25.1760   32.7010 N   0  0  0  0  0  0  0  0  0  0  0  0
   36.2470   25.4500   31.6990 C   0  0  0  0  0  0  0  0  0  0  0  0
   35.6860   24.4440   31.0120 N   0  0  0  0  0  0  0  0  0  0  0  0
   35.5610   22.3160   30.8060 H   0  0  0  0  0  0  0  0  0  0  0  0
   37.1400   21.8540   32.6510 H   0  0  0  0  0  0  0  0  0  0  0  0
   38.3760   23.7440   34.1540 C   0  0  0  0  0  0  0  0  0  0  0  0
   39.7170   23.4770   33.9330 C   0  0  0  0  0  0  0  0  0  0  0  0
   40.6270   23.3090   34.9580 C   0  0  0  0  0  0  0  0  0  0  0  0
   40.1870   23.4100   36.2480 N   0  0  0  0  0  0  0  0  0  0  0  0
   38.8940   23.6670   36.4360 C   0  0  0  0  0  0  0  0  0  0  0  0
   38.0040   23.8310   35.4520 N   0  0  0  0  0  0  0  0  0  0  0  0
   40.0190   23.4060   32.8950 H   0  0  0  0  0  0  0  0  0  0  0  0
   41.6550   23.1030   34.6960 H   0  0  0  0  0  0  0  0  0  0  0  0
   38.4030   23.7790   37.8320 C   0  0  0  0  0  0  0  0  0  0  0  0
   39.4290   23.3670   38.6820 F   0  0  0  0  0  0  0  0  0  0  0  0
   38.0490   25.0880   38.1410 F   0  0  0  0  0  0  0  0  0  0  0  0
   37.3390   22.9690   38.0840 F   0  0  0  0  0  0  0  0  0  0  0  0
   35.9960   26.7880   31.4420 O   0  0  0  0  0  0  0  0  0  0  0  0
   35.5940   28.7080   32.8750 C   0  0  2  0  0  3  0  0  0  0  0  0
   36.5840   27.8430   32.1390 C   0  0  2  0  0  3  0  0  0  0  0  0
   37.3050   28.6000   31.2200 O   0  0  0  0  0  0  0  0  0  0  0  0
   36.5020   29.3440   30.3880 C   0  0  0  0  0  2  0  0  0  0  0  0
   35.9480   30.5120   31.1760 C   0  0  2  0  0  3  0  0  0  0  0  0
   35.9680   30.1520   32.6310 C   0  0  1  0  0  3  0  0  0  0  0  0
   35.7390   28.5160   34.2680 O   0  0  0  0  0  0  0  0  0  0  0  0
   35.2890   29.2880   34.7000 H   0  0  0  0  0  0  0  0  0  0  0  0
   34.6800   30.8520   30.7240 O   0  0  0  0  0  0  0  0  0  0  0  0
   34.5780   31.8280   30.8650 H   0  0  0  0  0  0  0  0  0  0  0  0
   35.1560   30.9710   33.3880 O   0  0  0  0  0  0  0  0  0  0  0  0
   34.5050   31.4910   32.8760 H   0  0  0  0  0  0  0  0  0  0  0  0
  1  2  1  0  0  0  0
  2  8  1  0  0  0  0
  2  3  2  0  0  0  0
  3  9  1  0  0  0  0
  4  3  1  0  0  0  0
  5  4  2  0  0  0  0
  6  1  2  0  0  0  0
  6  5  1  0  0  0  0
  7  1  1  0  0  0  0
  9 14  1  0  0  0  0
 10  9  2  0  0  0  0
 10 11  1  0  0  0  0
 11 12  2  0  0  0  0
 12 13  1  0  0  0  0
 13 17  1  0  0  0  0
 14 13  2  0  0  0  0
 15 10  1  0  0  0  0
 16 11  1  0  0  0  0
 17 20  1  0  0  0  0
 17 19  1  0  0  0  0
 17 18  1  0  0  0  0
 21  5  1  0  0  0  0
 22 28  1  1  0  0  0
 23 21  1  6  0  0  0
 23 22  1  0  0  0  0
 24 23  1  0  0  0  0
 25 26  1  0  0  0  0
 25 24  1  0  0  0  0
 26 30  1  6  0  0  0
 26 27  1  0  0  0  0
 27 22  1  0  0  0  0
 27 32  1  1  0  0  0
 28 29  1  0  0  0  0
 30 31  1  0  0  0  0
 33 32  1  0  0  0  0
M  END
>  <minimizedAffinity>
-6.05690575

$$$$

 OpenBabel03272502263D

 33 35  0  0  1  0  0  0  0  0999 V2000
   37.0430   27.4700   34.1280 C   0  0  0  0  0  0  0  0  0  0  0  0
   37.4140   26.7460   35.2830 C   0  0  0  0  0  0  0  0  0  0  0  0
   38.0390   25.5230   35.0960 C   0  0  0  0  0  0  0  0  0  0  0  0
   38.2580   25.0950   33.8350 N   0  0  0  0  0  0  0  0  0  0  0  0
   37.8920   25.8090   32.7520 C   0  0  0  0  0  0  0  0  0  0  0  0
   37.2860   26.9940   32.9120 N   0  0  0  0  0  0  0  0  0  0  0  0
   36.5600   28.4140   34.3420 H   0  0  0  0  0  0  0  0  0  0  0  0
   37.2460   27.0760   36.3030 H   0  0  0  0  0  0  0  0  0  0  0  0
   38.4790   24.6620   36.1890 C   0  0  0  0  0  0  0  0  0  0  0  0
   37.7930   24.6010   37.3910 C   0  0  0  0  0  0  0  0  0  0  0  0
   38.1900   23.7960   38.4400 C   0  0  0  0  0  0  0  0  0  0  0  0
   39.3090   23.0250   38.2880 N   0  0  0  0  0  0  0  0  0  0  0  0
   39.9500   23.1000   37.1240 C   0  0  0  0  0  0  0  0  0  0  0  0
   39.5770   23.8760   36.1010 N   0  0  0  0  0  0  0  0  0  0  0  0
   36.9140   25.2290   37.4650 H   0  0  0  0  0  0  0  0  0  0  0  0
   37.5970   23.8090   39.3430 H   0  0  0  0  0  0  0  0  0  0  0  0
   41.1670   22.2690   36.9460 C   0  0  0  0  0  0  0  0  0  0  0  0
   41.0160   21.5350   35.7700 F   0  0  0  0  0  0  0  0  0  0  0  0
   42.3100   23.0570   36.8530 F   0  0  0  0  0  0  0  0  0  0  0  0
   41.3410   21.3660   37.9500 F   0  0  0  0  0  0  0  0  0  0  0  0
   38.1760   25.2540   31.5150 O   0  0  0  0  0  0  0  0  0  0  0  0
   36.2400   23.7940   31.6730 C   0  0  2  0  0  3  0  0  0  0  0  0
   37.3050   24.4220   30.8120 C   0  0  2  0  0  3  0  0  0  0  0  0
   38.0750   23.4400   30.1940 O   0  0  0  0  0  0  0  0  0  0  0  0
   38.5640   22.5050   31.0770 C   0  0  0  0  0  2  0  0  0  0  0  0
   37.4250   21.5960   31.4900 C   0  0  2  0  0  3  0  0  0  0  0  0
   36.1350   22.3350   31.2920 C   0  0  1  0  0  3  0  0  0  0  0  0
   34.9820   24.3530   31.3550 O   0  0  0  0  0  0  0  0  0  0  0  0
   34.3030   23.7300   31.7230 H   0  0  0  0  0  0  0  0  0  0  0  0
   37.5970   21.1560   32.7950 O   0  0  0  0  0  0  0  0  0  0  0  0
   37.1880   20.2550   32.8500 H   0  0  0  0  0  0  0  0  0  0  0  0
   35.0860   21.7560   31.9760 O   0  0  0  0  0  0  0  0  0  0  0  0
   35.3490   21.1210   32.6720 H   0  0  0  0  0  0  0  0  0  0  0  0
  1  7  1  0  0  0  0
  1  2  1  0  0  0  0
  2  8  1  0  0  0  0
  3  2  2  0  0  0  0
  3  9  1  0  0  0  0
  4  3  1  0  0  0  0
  5  6  1  0  0  0  0
  5  4  2  0  0  0  0
  6  1  2  0  0  0  0
  9 10  1  0  0  0  0
 10 15  1  0  0  0  0
 10 11  2  0  0  0  0
 11 16  1  0  0  0  0
 12 11  1  0  0  0  0
 13 12  2  0  0  0  0
 14  9  2  0  0  0  0
 14 13  1  0  0  0  0
 17 13  1  0  0  0  0
 17 20  1  0  0  0  0
 18 17  1  0  0  0  0
 19 17  1  0  0  0  0
 21  5  1  0  0  0  0
 22 28  1  6  0  0  0
 23 21  1  1  0  0  0
 23 22  1  0  0  0  0
 24 23  1  0  0  0  0
 24 25  1  0  0  0  0
 25 26  1  0  0  0  0
 26 30  1  1  0  0  0
 27 26  1  0  0  0  0
 27 22  1  0  0  0  0
 27 32  1  1  0  0  0
 28 29  1  0  0  0  0
 30 31  1  0  0  0  0
 32 33  1  0  0  0  0
M  END
>  <minimizedAffinity>
-6.05383682

$$$$

 OpenBabel03272502263D

 33 35  0  0  1  0  0  0  0  0999 V2000
   36.1070   24.4740   31.3270 C   0  0  0  0  0  0  0  0  0  0  0  0
   35.7850   25.8480   31.2770 C   0  0  0  0  0  0  0  0  0  0  0  0
   36.4010   26.6810   32.1980 C   0  0  0  0  0  0  0  0  0  0  0  0
   37.2650   26.1410   33.0820 N   0  0  0  0  0  0  0  0  0  0  0  0
   37.5520   24.8240   33.1060 C   0  0  0  0  0  0  0  0  0  0  0  0
   36.9660   24.0020   32.2230 N   0  0  0  0  0  0  0  0  0  0  0  0
   35.5930   23.8780   30.5840 H   0  0  0  0  0  0  0  0  0  0  0  0
   35.0940   26.2990   30.5720 H   0  0  0  0  0  0  0  0  0  0  0  0
   36.1700   28.1200   32.2700 C   0  0  0  0  0  0  0  0  0  0  0  0
   36.2250   28.9260   31.1450 C   0  0  0  0  0  0  0  0  0  0  0  0
   36.0110   30.2890   31.1880 C   0  0  0  0  0  0  0  0  0  0  0  0
   35.7330   30.8720   32.3930 N   0  0  0  0  0  0  0  0  0  0  0  0
   35.6850   30.0770   33.4600 C   0  0  0  0  0  0  0  0  0  0  0  0
   35.8900   28.7560   33.4320 N   0  0  0  0  0  0  0  0  0  0  0  0
   36.4480   28.4200   30.2130 H   0  0  0  0  0  0  0  0  0  0  0  0
   36.0730   30.8430   30.2620 H   0  0  0  0  0  0  0  0  0  0  0  0
   35.3850   30.6970   34.7750 C   0  0  0  0  0  0  0  0  0  0  0  0
   35.2980   32.0760   34.5900 F   0  0  0  0  0  0  0  0  0  0  0  0
   34.1810   30.2270   35.2930 F   0  0  0  0  0  0  0  0  0  0  0  0
   36.3660   30.4870   35.6950 F   0  0  0  0  0  0  0  0  0  0  0  0
   38.4560   24.4010   34.0660 O   0  0  0  0  0  0  0  0  0  0  0  0
   38.5610   23.8590   36.4310 C   0  0  2  0  0  3  0  0  0  0  0  0
   38.1750   23.4410   35.0370 C   0  0  2  0  0  3  0  0  0  0  0  0
   38.8420   22.2730   34.6750 O   0  0  0  0  0  0  0  0  0  0  0  0
   40.2010   22.3490   34.8680 C   0  0  0  0  0  2  0  0  0  0  0  0
   40.4800   22.2530   36.3530 C   0  0  2  0  0  3  0  0  0  0  0  0
   39.2500   22.6880   37.0930 C   0  0  1  0  0  3  0  0  0  0  0  0
   37.3960   24.0870   37.1990 O   0  0  0  0  0  0  0  0  0  0  0  0
   37.6850   24.0760   38.1480 H   0  0  0  0  0  0  0  0  0  0  0  0
   41.6020   22.9970   36.6920 O   0  0  0  0  0  0  0  0  0  0  0  0
   42.0260   22.5410   37.4630 H   0  0  0  0  0  0  0  0  0  0  0  0
   39.5110   22.9940   38.4130 O   0  0  0  0  0  0  0  0  0  0  0  0
   40.4560   23.1300   38.6250 H   0  0  0  0  0  0  0  0  0  0  0  0
  1  6  1  0  0  0  0
  2  1  2  0  0  0  0
  2  3  1  0  0  0  0
  3  9  1  0  0  0  0
  3  4  2  0  0  0  0
  4  5  1  0  0  0  0
  5 21  1  0  0  0  0
  6  5  2  0  0  0  0
  7  1  1  0  0  0  0
  8  2  1  0  0  0  0
  9 14  1  0  0  0  0
 10 11  1  0  0  0  0
 10  9  2  0  0  0  0
 11 12  2  0  0  0  0
 12 13  1  0  0  0  0
 13 17  1  0  0  0  0
 14 13  2  0  0  0  0
 15 10  1  0  0  0  0
 16 11  1  0  0  0  0
 17 19  1  0  0  0  0
 17 20  1  0  0  0  0
 18 17  1  0  0  0  0
 22 27  1  0  0  0  0
 22 28  1  1  0  0  0
 23 21  1  6  0  0  0
 23 22  1  0  0  0  0
 24 25  1  0  0  0  0
 24 23  1  0  0  0  0
 25 26  1  0  0  0  0
 26 30  1  6  0  0  0
 26 27  1  0  0  0  0
 27 32  1  1  0  0  0
 28 29  1  0  0  0  0
 30 31  1  0  0  0  0
 32 33  1  0  0  0  0
M  END
>  <minimizedAffinity>
-6.04003

$$$$

 OpenBabel03272502263D

 33 35  0  0  1  0  0  0  0  0999 V2000
   38.4240   26.7580   36.1860 C   0  0  0  0  0  0  0  0  0  0  0  0
   37.7430   27.7030   35.3880 C   0  0  0  0  0  0  0  0  0  0  0  0
   37.2680   27.2760   34.1580 C   0  0  0  0  0  0  0  0  0  0  0  0
   37.4780   25.9940   33.7940 N   0  0  0  0  0  0  0  0  0  0  0  0
   38.1320   25.1140   34.5770 C   0  0  0  0  0  0  0  0  0  0  0  0
   38.5990   25.5090   35.7710 N   0  0  0  0  0  0  0  0  0  0  0  0
   38.7700   27.1530   37.1320 H   0  0  0  0  0  0  0  0  0  0  0  0
   37.5660   28.7370   35.6660 H   0  0  0  0  0  0  0  0  0  0  0  0
   36.5480   28.1370   33.2240 C   0  0  0  0  0  0  0  0  0  0  0  0
   37.0160   28.3760   31.9420 C   0  0  0  0  0  0  0  0  0  0  0  0
   36.3540   29.1860   31.0420 C   0  0  0  0  0  0  0  0  0  0  0  0
   35.1850   29.7800   31.4310 N   0  0  0  0  0  0  0  0  0  0  0  0
   34.7560   29.5350   32.6670 C   0  0  0  0  0  0  0  0  0  0  0  0
   35.3880   28.7530   33.5480 N   0  0  0  0  0  0  0  0  0  0  0  0
   37.9450   27.8840   31.6800 H   0  0  0  0  0  0  0  0  0  0  0  0
   36.7890   29.3190   30.0620 H   0  0  0  0  0  0  0  0  0  0  0  0
   33.4890   30.1750   33.1010 C   0  0  0  0  0  0  0  0  0  0  0  0
   32.6280   30.2100   32.0050 F   0  0  0  0  0  0  0  0  0  0  0  0
   32.8890   29.4590   34.1330 F   0  0  0  0  0  0  0  0  0  0  0  0
   33.6590   31.4630   33.5070 F   0  0  0  0  0  0  0  0  0  0  0  0
   38.2790   23.8290   34.0820 O   0  0  0  0  0  0  0  0  0  0  0  0
   38.7790   23.0020   36.3110 C   0  0  2  0  0  3  0  0  0  0  0  0
   38.4230   22.6950   34.8800 C   0  0  2  0  0  3  0  0  0  0  0  0
   39.4010   21.8950   34.2950 O   0  0  0  0  0  0  0  0  0  0  0  0
   40.6710   22.4000   34.4480 C   0  0  0  0  0  2  0  0  0  0  0  0
   41.1040   22.1800   35.8830 C   0  0  2  0  0  3  0  0  0  0  0  0
   39.8750   22.0510   36.7320 C   0  0  1  0  0  3  0  0  0  0  0  0
   37.6810   22.6990   37.1490 O   0  0  0  0  0  0  0  0  0  0  0  0
   38.0450   22.6430   38.0700 H   0  0  0  0  0  0  0  0  0  0  0  0
   41.9440   23.2020   36.3050 O   0  0  0  0  0  0  0  0  0  0  0  0
   42.5650   22.8060   36.9680 H   0  0  0  0  0  0  0  0  0  0  0  0
   40.1420   22.2230   38.0740 O   0  0  0  0  0  0  0  0  0  0  0  0
   41.0050   22.6390   38.2720 H   0  0  0  0  0  0  0  0  0  0  0  0
  1  7  1  0  0  0  0
  2  8  1  0  0  0  0
  2  1  2  0  0  0  0
  3  2  1  0  0  0  0
  4  3  2  0  0  0  0
  4  5  1  0  0  0  0
  5  6  2  0  0  0  0
  6  1  1  0  0  0  0
  9 14  1  0  0  0  0
  9  3  1  0  0  0  0
 10  9  2  0  0  0  0
 11 12  2  0  0  0  0
 11 10  1  0  0  0  0
 12 13  1  0  0  0  0
 13 17  1  0  0  0  0
 13 14  2  0  0  0  0
 15 10  1  0  0  0  0
 16 11  1  0  0  0  0
 17 20  1  0  0  0  0
 17 19  1  0  0  0  0
 18 17  1  0  0  0  0
 21  5  1  0  0  0  0
 22 27  1  0  0  0  0
 22 28  1  1  0  0  0
 23 21  1  6  0  0  0
 23 22  1  0  0  0  0
 24 25  1  0  0  0  0
 24 23  1  0  0  0  0
 25 26  1  0  0  0  0
 26 30  1  1  0  0  0
 26 27  1  0  0  0  0
 27 32  1  1  0  0  0
 28 29  1  0  0  0  0
 30 31  1  0  0  0  0
 32 33  1  0  0  0  0
M  END
>  <minimizedAffinity>
-6.00993919

$$$$
