
 OpenBabel03272506433D

 35 37  0  0  1  0  0  0  0  0999 V2000
   32.3760   28.3380   47.5650 C   0  0  2  0  0  0  0  0  0  0  0  0
   33.6510   28.3530   48.3910 C   0  0  1  0  0  0  0  0  0  0  0  0
   34.1980   27.1000   48.3380 O   0  0  0  0  0  0  0  0  0  0  0  0
   33.5400   26.3420   47.3810 C   0  0  0  0  0  0  0  0  0  0  0  0
   32.7800   27.3450   46.5030 C   0  0  1  0  0  0  0  0  0  0  0  0
   31.5660   27.9530   48.2130 H   0  0  0  0  0  0  0  0  0  0  0  0
   33.3730   28.7050   49.3940 H   0  0  0  0  0  0  0  0  0  0  0  0
   34.3280   25.8120   46.7990 H   0  0  0  0  0  0  0  0  0  0  0  0
   32.7800   25.6710   47.8090 H   0  0  0  0  0  0  0  0  0  0  0  0
   33.4870   27.8250   45.8290 H   0  0  0  0  0  0  0  0  0  0  0  0
   32.0970   29.5930   47.0520 O   0  0  0  0  0  0  0  0  0  0  0  0
   31.5340   29.5620   46.2500 H   0  0  0  0  0  0  0  0  0  0  0  0
   34.7810   29.5100   47.5560 S   0  0  0  0  0  0  0  0  0  0  0  0
   37.3930   29.4840   50.5380 C   0  0  0  0  0  0  0  0  0  0  0  0
   38.0010   30.7400   50.5050 C   0  0  0  0  0  0  0  0  0  0  0  0
   37.5770   31.6380   49.5050 C   0  0  0  0  0  0  0  0  0  0  0  0
   36.6150   31.2420   48.6400 N   0  0  0  0  0  0  0  0  0  0  0  0
   36.0510   30.0200   48.7050 C   0  0  0  0  0  0  0  0  0  0  0  0
   36.4280   29.1390   49.6410 N   0  0  0  0  0  0  0  0  0  0  0  0
   37.6440   28.7190   51.2660 H   0  0  0  0  0  0  0  0  0  0  0  0
   38.7550   30.9760   51.2250 H   0  0  0  0  0  0  0  0  0  0  0  0
   38.0420   32.6130   49.4720 H   0  0  0  0  0  0  0  0  0  0  0  0
   31.6980   26.7200   45.9130 O   0  0  0  0  0  0  0  0  0  0  0  0
   30.2950   27.0230   43.9710 C   0  0  2  0  0  3  0  0  0  0  0  0
   31.6650   27.0800   44.5660 C   0  0  2  0  0  3  0  0  0  0  0  0
   32.6200   26.3650   43.8640 O   0  0  0  0  0  0  0  0  0  0  0  0
   32.2220   25.0690   43.5650 C   0  0  0  0  0  2  0  0  0  0  0  0
   31.1590   25.2330   42.4950 C   0  0  1  0  0  3  0  0  0  0  0  0
   29.9570   25.8070   43.1910 C   0  0  1  0  0  3  0  0  0  0  0  0
   30.0270   28.1440   43.1790 O   0  0  0  0  0  0  0  0  0  0  0  0
   30.7960   28.3250   42.6140 H   0  0  0  0  0  0  0  0  0  0  0  0
   31.6630   26.1870   41.5880 O   0  0  0  0  0  0  0  0  0  0  0  0
   31.1420   26.1870   40.7470 H   0  0  0  0  0  0  0  0  0  0  0  0
   29.4260   24.8040   44.0240 O   0  0  0  0  0  0  0  0  0  0  0  0
   28.4410   24.9700   44.0740 H   0  0  0  0  0  0  0  0  0  0  0  0
  1  6  1  1  0  0  0
  1  2  1  0  0  0  0
  2  7  1  1  0  0  0
  3  2  1  0  0  0  0
  4  9  1  0  0  0  0
  4  3  1  0  0  0  0
  5 10  1  6  0  0  0
  5  4  1  0  0  0  0
  5  1  1  0  0  0  0
  8  4  1  0  0  0  0
 11  1  1  0  0  0  0
 12 11  1  0  0  0  0
 13  2  1  0  0  0  0
 13 18  1  0  0  0  0
 14 20  1  0  0  0  0
 15 14  1  0  0  0  0
 15 21  1  0  0  0  0
 16 15  2  0  0  0  0
 17 18  2  0  0  0  0
 17 16  1  0  0  0  0
 18 19  1  0  0  0  0
 19 14  2  0  0  0  0
 22 16  1  0  0  0  0
 23  5  1  0  0  0  0
 24 30  1  6  0  0  0
 24 25  1  0  0  0  0
 25 23  1  1  0  0  0
 26 25  1  0  0  0  0
 27 26  1  0  0  0  0
 28 32  1  6  0  0  0
 28 29  1  0  0  0  0
 28 27  1  0  0  0  0
 29 24  1  0  0  0  0
 29 34  1  1  0  0  0
 31 30  1  0  0  0  0
 33 32  1  0  0  0  0
 34 35  1  0  0  0  0
M  END
>  <minimizedAffinity>
-3.78989196

>  <minimizedRMSD>
1.06951821

$$$$
