
 OpenBabel03272509583D

 49 52  0  0  1  0  0  0  0  0999 V2000
   33.1210   27.8980   47.4180 C   0  0  0  0  0  0  0  0  0  0  0  0
   33.1370   28.1220   46.3170 H   0  0  0  0  0  0  0  0  0  0  0  0
   33.4670   26.8510   47.5030 H   0  0  0  0  0  0  0  0  0  0  0  0
   31.6970   28.0330   47.8230 C   0  0  0  0  0  0  0  0  0  0  0  0
   31.2970   27.4400   49.0150 C   0  0  0  0  0  0  0  0  0  0  0  0
   30.0070   27.5170   49.4600 C   0  0  0  0  0  0  0  0  0  0  0  0
   29.1090   28.1750   48.7330 N   0  0  0  0  0  0  0  0  0  0  0  0
   29.5040   28.7560   47.5630 C   0  0  0  0  0  0  0  0  0  0  0  0
   30.7630   28.6990   47.1000 N   0  0  0  0  0  0  0  0  0  0  0  0
   31.9950   26.8910   49.6450 H   0  0  0  0  0  0  0  0  0  0  0  0
   29.7110   27.0470   50.3940 H   0  0  0  0  0  0  0  0  0  0  0  0
   28.4640   29.4790   46.7900 C   0  0  0  0  0  0  0  0  0  0  0  0
   27.4910   29.4450   47.3060 H   0  0  0  0  0  0  0  0  0  0  0  0
   28.6880   30.5500   46.6260 H   0  0  0  0  0  0  0  0  0  0  0  0
   27.3790   27.5270   45.6620 C   0  0  2  0  0  3  0  0  0  0  0  0
   28.2690   28.7400   45.4830 C   0  0  1  0  0  3  0  0  0  0  0  0
   27.6680   29.5420   44.5170 O   0  0  0  0  0  0  0  0  0  0  0  0
   28.0450   29.0510   43.2710 C   0  0  0  0  0  2  0  0  0  0  0  0
   28.1180   27.5440   43.2500 C   0  0  1  0  0  3  0  0  0  0  0  0
   27.2090   26.9140   44.2800 C   0  0  1  0  0  3  0  0  0  0  0  0
   26.1460   27.9790   46.1470 O   0  0  0  0  0  0  0  0  0  0  0  0
   25.4530   27.8940   45.4320 H   0  0  0  0  0  0  0  0  0  0  0  0
   27.6680   27.1240   41.9950 O   0  0  0  0  0  0  0  0  0  0  0  0
   28.4300   26.8410   41.4010 H   0  0  0  0  0  0  0  0  0  0  0  0
   27.6100   25.5800   44.3800 O   0  0  0  0  0  0  0  0  0  0  0  0
   26.9680   24.9790   43.9310 H   0  0  0  0  0  0  0  0  0  0  0  0
   34.0120   28.9000   48.0840 C   0  0  0  0  0  0  0  0  0  0  0  0
   33.3560   29.7200   48.4720 H   0  0  0  0  0  0  0  0  0  0  0  0
   34.7160   29.4010   47.3660 H   0  0  0  0  0  0  0  0  0  0  0  0
   34.6990   28.3390   49.1870 O   0  0  0  0  0  0  0  0  0  0  0  0
   36.9630   29.9030   51.5240 C   0  0  0  0  0  0  0  0  0  0  0  0
   37.7670   30.6420   50.6200 C   0  0  0  0  0  0  0  0  0  0  0  0
   37.4780   30.5540   49.2720 C   0  0  0  0  0  0  0  0  0  0  0  0
   36.4300   29.7520   48.9260 N   0  0  0  0  0  0  0  0  0  0  0  0
   35.6790   29.0600   49.7810 C   0  0  0  0  0  0  0  0  0  0  0  0
   35.9570   29.1420   51.1010 N   0  0  0  0  0  0  0  0  0  0  0  0
   37.2440   30.0170   52.5620 H   0  0  0  0  0  0  0  0  0  0  0  0
   38.5880   31.2670   50.9150 H   0  0  0  0  0  0  0  0  0  0  0  0
   38.7100   33.1740   49.3360 F   0  0  0  0  0  0  0  0  0  0  0  0
   38.7740   32.4510   48.2240 C   0  0  0  0  0  0  0  0  0  0  0  0
   38.1950   31.2400   48.2170 C   0  0  0  0  0  0  0  0  0  0  0  0
   38.3150   30.5540   46.9970 C   0  0  0  0  0  0  0  0  0  0  0  0
   38.9700   31.0910   45.9200 C   0  0  0  0  0  0  0  0  0  0  0  0
   39.5460   32.3410   45.9840 C   0  0  0  0  0  0  0  0  0  0  0  0
   39.4350   33.0120   47.1540 C   0  0  0  0  0  0  0  0  0  0  0  0
   37.8950   29.5640   46.8530 H   0  0  0  0  0  0  0  0  0  0  0  0
   39.0510   30.5400   44.9830 H   0  0  0  0  0  0  0  0  0  0  0  0
   40.0650   32.7770   45.1400 H   0  0  0  0  0  0  0  0  0  0  0  0
   39.8820   33.9990   47.2280 H   0  0  0  0  0  0  0  0  0  0  0  0
  1  3  1  0  0  0  0
  1  4  1  0  0  0  0
  1 27  1  0  0  0  0
  2  1  1  0  0  0  0
  4  5  1  0  0  0  0
  5  6  2  0  0  0  0
  5 10  1  0  0  0  0
  6 11  1  0  0  0  0
  7  6  1  0  0  0  0
  8  7  2  0  0  0  0
  9  8  1  0  0  0  0
  9  4  2  0  0  0  0
 12 13  1  0  0  0  0
 12  8  1  0  0  0  0
 14 12  1  0  0  0  0
 15 21  1  6  0  0  0
 16 15  1  0  0  0  0
 16 12  1  1  0  0  0
 17 16  1  0  0  0  0
 18 17  1  0  0  0  0
 19 23  1  6  0  0  0
 19 18  1  0  0  0  0
 19 20  1  0  0  0  0
 20 25  1  1  0  0  0
 20 15  1  0  0  0  0
 22 21  1  0  0  0  0
 24 23  1  0  0  0  0
 26 25  1  0  0  0  0
 27 28  1  0  0  0  0
 27 30  1  0  0  0  0
 29 27  1  0  0  0  0
 30 35  1  0  0  0  0
 31 37  1  0  0  0  0
 32 38  1  0  0  0  0
 32 31  2  0  0  0  0
 33 32  1  0  0  0  0
 34 33  2  0  0  0  0
 34 35  1  0  0  0  0
 35 36  2  0  0  0  0
 36 31  1  0  0  0  0
 40 39  1  0  0  0  0
 41 40  1  0  0  0  0
 41 33  1  0  0  0  0
 42 41  2  0  0  0  0
 43 44  2  0  0  0  0
 43 42  1  0  0  0  0
 44 45  1  0  0  0  0
 45 49  1  0  0  0  0
 45 40  2  0  0  0  0
 46 42  1  0  0  0  0
 47 43  1  0  0  0  0
 48 44  1  0  0  0  0
M  END
>  <minimizedAffinity>
-6.79864502

>  <minimizedRMSD>
0.742413878

$$$$
