
 OpenBabel03272509453D

 22 23  0  0  1  0  0  0  0  0999 V2000
   33.2780   28.0620   49.0450 C   0  0  2  0  0  3  0  0  0  0  0  0
   34.3910   28.1350   48.0500 C   0  0  1  0  0  3  0  0  0  0  0  0
   34.0340   27.7330   46.7740 O   0  0  0  0  0  0  0  0  0  0  0  0
   32.9060   28.3510   46.2770 C   0  0  0  0  0  2  0  0  0  0  0  0
   31.6670   28.0820   47.1010 C   0  0  1  0  0  3  0  0  0  0  0  0
   31.9820   27.5300   48.4470 C   0  0  2  0  0  3  0  0  0  0  0  0
   33.0490   29.2990   49.6840 O   0  0  0  0  0  0  0  0  0  0  0  0
   33.3360   30.0600   49.1210 H   0  0  0  0  0  0  0  0  0  0  0  0
   30.9100   29.2610   47.2330 O   0  0  0  0  0  0  0  0  0  0  0  0
   31.5280   29.9790   47.5050 H   0  0  0  0  0  0  0  0  0  0  0  0
   30.9270   27.8550   49.2960 O   0  0  0  0  0  0  0  0  0  0  0  0
   31.1460   28.6200   49.8760 H   0  0  0  0  0  0  0  0  0  0  0  0
   35.0200   29.4100   47.9840 O   0  0  0  0  0  0  0  0  0  0  0  0
   37.5870   29.4480   50.5630 C   0  0  0  0  0  0  0  0  0  0  0  0
   38.0150   30.7840   50.4670 C   0  0  0  0  0  0  0  0  0  0  0  0
   37.3880   31.6020   49.5090 C   0  0  0  0  0  0  0  0  0  0  0  0
   36.3920   31.0520   48.7210 N   0  0  0  0  0  0  0  0  0  0  0  0
   36.0270   29.7660   48.8610 C   0  0  0  0  0  0  0  0  0  0  0  0
   36.6150   28.9660   49.7710 N   0  0  0  0  0  0  0  0  0  0  0  0
   38.0190   28.7550   51.2740 H   0  0  0  0  0  0  0  0  0  0  0  0
   38.7940   31.1430   51.1130 H   0  0  0  0  0  0  0  0  0  0  0  0
   37.6800   32.6200   49.4030 H   0  0  0  0  0  0  0  0  0  0  0  0
  1  7  1  6  0  0  0
  2 13  1  6  0  0  0
  2  1  1  0  0  0  0
  3  2  1  0  0  0  0
  4  3  1  0  0  0  0
  4  5  1  0  0  0  0
  5  9  1  1  0  0  0
  5  6  1  0  0  0  0
  6  1  1  0  0  0  0
  6 11  1  1  0  0  0
  8  7  1  0  0  0  0
  9 10  1  0  0  0  0
 11 12  1  0  0  0  0
 13 18  1  0  0  0  0
 14 20  1  0  0  0  0
 15 14  1  0  0  0  0
 15 21  1  0  0  0  0
 16 15  2  0  0  0  0
 17 18  2  0  0  0  0
 17 16  1  0  0  0  0
 18 19  1  0  0  0  0
 19 14  2  0  0  0  0
 22 16  1  0  0  0  0
M  END
>  <minimizedAffinity>
-4.74029064

>  <minimizedRMSD>
2.11555958

$$$$
