
 OpenBabel03272504573D

 36 38  0  0  1  0  0  0  0  0999 V2000
   37.0350   31.5560   48.6410 C   0  0  1  0  0  0  0  0  0  0  0  0
   36.3100   30.8830   47.5910 C   0  0  0  0  0  0  0  0  0  0  0  0
   37.2540   30.1210   48.4650 C   0  0  2  0  0  0  0  0  0  0  0  0
   36.5490   31.8340   49.6410 H   0  0  0  0  0  0  0  0  0  0  0  0
   35.2700   31.1160   47.7080 H   0  0  0  0  0  0  0  0  0  0  0  0
   36.6560   31.0680   46.5520 H   0  0  0  0  0  0  0  0  0  0  0  0
   37.9770   29.5990   47.8690 H   0  0  0  0  0  0  0  0  0  0  0  0
   38.1870   32.4640   48.3240 C   0  0  0  0  0  0  0  0  0  0  0  0
   38.5320   33.4010   49.3330 C   0  0  0  0  0  0  0  0  0  0  0  0
   39.5920   34.2170   49.0080 C   0  0  0  0  0  0  0  0  0  0  0  0
   40.2210   34.0900   47.8020 N   0  0  0  0  0  0  0  0  0  0  0  0
   39.8540   33.1800   46.8690 C   0  0  0  0  0  0  0  0  0  0  0  0
   38.8050   32.3560   47.1640 N   0  0  0  0  0  0  0  0  0  0  0  0
   40.4970   33.0570   45.6340 N   0  0  0  0  0  0  0  0  0  0  0  0
   38.0440   33.4980   50.2710 H   0  0  0  0  0  0  0  0  0  0  0  0
   39.8970   34.9490   49.7390 H   0  0  0  0  0  0  0  0  0  0  0  0
   41.3750   33.6350   45.4890 H   0  0  0  0  0  0  0  0  0  0  0  0
   40.1180   32.4230   44.8980 H   0  0  0  0  0  0  0  0  0  0  0  0
   36.6450   29.3090   49.4350 O   0  0  0  0  0  0  0  0  0  0  0  0
   34.6200   27.7350   49.6490 O   0  0  0  0  0  0  0  0  0  0  0  0
   35.0480   29.0330   49.0480 P   0  0  1  0  0  0  0  0  0  0  0  0
   34.0650   30.2410   49.8110 O   0  0  0  0  0  0  0  0  0  0  0  0
   34.5660   30.6070   50.5900 H   0  0  0  0  0  0  0  0  0  0  0  0
   34.8660   29.1130   47.3820 O   0  0  0  0  0  0  0  0  0  0  0  0
   32.9290   30.0210   46.4520 C   0  0  2  0  0  3  0  0  0  0  0  0
   33.6140   28.7660   46.9370 C   0  0  1  0  0  3  0  0  0  0  0  0
   33.6300   27.7410   45.9970 O   0  0  0  0  0  0  0  0  0  0  0  0
   32.2750   27.3850   45.8100 C   0  0  0  0  0  2  0  0  0  0  0  0
   31.7060   28.5320   44.9670 C   0  0  1  0  0  3  0  0  0  0  0  0
   31.5470   29.6810   45.9680 C   0  0  2  0  0  3  0  0  0  0  0  0
   33.6140   30.5770   45.3570 O   0  0  0  0  0  0  0  0  0  0  0  0
   34.0900   31.3600   45.6870 H   0  0  0  0  0  0  0  0  0  0  0  0
   32.7020   28.9250   44.0740 O   0  0  0  0  0  0  0  0  0  0  0  0
   32.2740   29.1220   43.2170 H   0  0  0  0  0  0  0  0  0  0  0  0
   30.9060   30.7600   45.3830 O   0  0  0  0  0  0  0  0  0  0  0  0
   31.5810   31.2420   44.8190 H   0  0  0  0  0  0  0  0  0  0  0  0
  1  4  1  1  0  0  0
  2  5  1  0  0  0  0
  2  3  1  0  0  0  0
  2  1  1  0  0  0  0
  3  7  1  6  0  0  0
  3  1  1  0  0  0  0
  3 19  1  0  0  0  0
  6  2  1  0  0  0  0
  8  1  1  0  0  0  0
  8  9  1  0  0  0  0
  9 15  1  0  0  0  0
 10  9  2  0  0  0  0
 10 16  1  0  0  0  0
 11 10  1  0  0  0  0
 12 13  1  0  0  0  0
 12 11  2  0  0  0  0
 13  8  2  0  0  0  0
 14 12  1  0  0  0  0
 17 14  1  0  0  0  0
 18 14  1  0  0  0  0
 21 19  1  0  0  0  0
 21 20  2  1  0  0  0
 21 22  1  0  0  0  0
 22 23  1  0  0  0  0
 24 21  1  0  0  0  0
 25 31  1  6  0  0  0
 25 26  1  0  0  0  0
 26 24  1  6  0  0  0
 27 26  1  0  0  0  0
 28 27  1  0  0  0  0
 29 33  1  6  0  0  0
 29 28  1  0  0  0  0
 29 30  1  0  0  0  0
 30 35  1  6  0  0  0
 30 25  1  0  0  0  0
 31 32  1  0  0  0  0
 34 33  1  0  0  0  0
 36 35  1  0  0  0  0
M  END
>  <minimizedAffinity>
-5.19199896

>  <minimizedRMSD>
0.348214239

$$$$
