
 OpenBabel03272506443D

 35 37  0  0  1  0  0  0  0  0999 V2000
   32.3430   28.3320   47.5770 C   0  0  2  0  0  0  0  0  0  0  0  0
   33.6390   28.2990   48.3700 C   0  0  1  0  0  0  0  0  0  0  0  0
   34.1490   27.0320   48.2840 O   0  0  0  0  0  0  0  0  0  0  0  0
   33.4470   26.3090   47.3320 C   0  0  0  0  0  0  0  0  0  0  0  0
   32.6940   27.3470   46.4900 C   0  0  1  0  0  0  0  0  0  0  0  0
   31.5400   27.9590   48.2390 H   0  0  0  0  0  0  0  0  0  0  0  0
   33.3960   28.6420   49.3860 H   0  0  0  0  0  0  0  0  0  0  0  0
   34.2050   25.7670   46.7220 H   0  0  0  0  0  0  0  0  0  0  0  0
   32.6800   25.6510   47.7690 H   0  0  0  0  0  0  0  0  0  0  0  0
   33.3960   27.8180   45.8060 H   0  0  0  0  0  0  0  0  0  0  0  0
   32.0870   29.6030   47.0910 O   0  0  0  0  0  0  0  0  0  0  0  0
   31.5030   29.6000   46.3040 H   0  0  0  0  0  0  0  0  0  0  0  0
   34.7790   29.4390   47.5250 S   0  0  0  0  0  0  0  0  0  0  0  0
   37.3740   29.4680   50.5230 C   0  0  0  0  0  0  0  0  0  0  0  0
   37.9620   30.7330   50.4870 C   0  0  0  0  0  0  0  0  0  0  0  0
   37.5310   31.6190   49.4800 C   0  0  0  0  0  0  0  0  0  0  0  0
   36.5800   31.2050   48.6110 N   0  0  0  0  0  0  0  0  0  0  0  0
   36.0340   29.9740   48.6790 C   0  0  0  0  0  0  0  0  0  0  0  0
   36.4190   29.1040   49.6220 N   0  0  0  0  0  0  0  0  0  0  0  0
   37.6320   28.7100   51.2560 H   0  0  0  0  0  0  0  0  0  0  0  0
   38.7080   30.9850   51.2100 H   0  0  0  0  0  0  0  0  0  0  0  0
   37.9810   32.6020   49.4440 H   0  0  0  0  0  0  0  0  0  0  0  0
   31.5800   26.7610   45.9180 O   0  0  0  0  0  0  0  0  0  0  0  0
   30.2980   28.1750   44.4390 C   0  0  2  0  0  3  0  0  0  0  0  0
   31.4520   27.2420   44.6150 C   0  0  2  0  0  3  0  0  0  0  0  0
   31.4720   26.1870   43.7190 O   0  0  0  0  0  0  0  0  0  0  0  0
   30.2580   25.5210   43.6310 C   0  0  0  0  0  2  0  0  0  0  0  0
   29.3450   26.4860   42.8980 C   0  0  1  0  0  3  0  0  0  0  0  0
   29.0550   27.5980   43.8680 C   0  0  1  0  0  3  0  0  0  0  0  0
   30.6490   29.2990   43.6840 O   0  0  0  0  0  0  0  0  0  0  0  0
   31.1670   29.0140   42.9130 H   0  0  0  0  0  0  0  0  0  0  0  0
   30.1000   27.0000   41.8250 O   0  0  0  0  0  0  0  0  0  0  0  0
   29.5200   27.4590   41.1690 H   0  0  0  0  0  0  0  0  0  0  0  0
   28.2290   27.0770   44.8820 O   0  0  0  0  0  0  0  0  0  0  0  0
   27.6580   27.8340   45.1990 H   0  0  0  0  0  0  0  0  0  0  0  0
  1  6  1  1  0  0  0
  1  2  1  0  0  0  0
  2  7  1  1  0  0  0
  3  2  1  0  0  0  0
  4  9  1  0  0  0  0
  4  3  1  0  0  0  0
  5 10  1  6  0  0  0
  5  4  1  0  0  0  0
  5  1  1  0  0  0  0
  8  4  1  0  0  0  0
 11  1  1  0  0  0  0
 12 11  1  0  0  0  0
 13  2  1  0  0  0  0
 13 18  1  0  0  0  0
 14 20  1  0  0  0  0
 15 14  1  0  0  0  0
 15 21  1  0  0  0  0
 16 15  2  0  0  0  0
 17 18  2  0  0  0  0
 17 16  1  0  0  0  0
 18 19  1  0  0  0  0
 19 14  2  0  0  0  0
 22 16  1  0  0  0  0
 23  5  1  0  0  0  0
 24 30  1  6  0  0  0
 24 25  1  0  0  0  0
 25 23  1  1  0  0  0
 26 25  1  0  0  0  0
 27 26  1  0  0  0  0
 28 32  1  6  0  0  0
 28 27  1  0  0  0  0
 28 29  1  0  0  0  0
 29 24  1  0  0  0  0
 29 34  1  1  0  0  0
 31 30  1  0  0  0  0
 33 32  1  0  0  0  0
 34 35  1  0  0  0  0
M  END
>  <minimizedAffinity>
-3.90933323

>  <minimizedRMSD>
0.803109348

$$$$
