
 OpenBabel03272503473D

 27 28  0  0  1  0  0  0  0  0999 V2000
   40.1390   31.1390   46.3700 O   0  0  0  0  0  0  0  0  0  0  0  0
   38.9790   31.9440   45.8130 P   0  0  2  0  0  0  0  0  0  0  0  0
   39.6030   33.4190   45.2990 O   0  0  0  0  0  0  0  0  0  0  0  0
   40.1810   33.2600   44.5100 H   0  0  0  0  0  0  0  0  0  0  0  0
   37.7650   32.2250   46.9980 O   0  0  0  0  0  0  0  0  0  0  0  0
   37.5670   31.3620   48.0760 C   0  0  0  0  0  0  0  0  0  0  0  0
   36.7100   30.2480   48.0880 C   0  0  0  0  0  0  0  0  0  0  0  0
   36.6480   29.5100   49.2570 C   0  0  0  0  0  0  0  0  0  0  0  0
   37.3940   29.8720   50.3310 N   0  0  0  0  0  0  0  0  0  0  0  0
   38.2170   30.9630   50.2830 C   0  0  0  0  0  0  0  0  0  0  0  0
   38.2920   31.6980   49.1480 N   0  0  0  0  0  0  0  0  0  0  0  0
   36.1710   30.0680   47.1680 H   0  0  0  0  0  0  0  0  0  0  0  0
   35.9830   28.6820   49.2030 H   0  0  0  0  0  0  0  0  0  0  0  0
   38.7820   31.1880   51.1790 H   0  0  0  0  0  0  0  0  0  0  0  0
   38.2230   31.1030   44.5410 O   0  0  0  0  0  0  0  0  0  0  0  0
   38.5850   29.2800   43.0280 C   0  0  2  0  0  0  0  0  0  0  0  0
   39.1720   30.1770   44.0720 C   0  0  1  0  0  0  0  0  0  0  0  0
   40.2780   30.8960   43.6680 O   0  0  0  0  0  0  0  0  0  0  0  0
   40.5870   30.7920   42.3310 C   0  0  0  0  0  0  0  0  0  0  0  0
   40.7860   29.3850   41.8400 C   0  0  2  0  0  0  0  0  0  0  0  0
   39.6490   28.5310   42.2980 C   0  0  1  0  0  0  0  0  0  0  0  0
   37.7100   29.9380   42.1680 O   0  0  0  0  0  0  0  0  0  0  0  0
   37.2970   30.6800   42.6750 H   0  0  0  0  0  0  0  0  0  0  0  0
   42.0080   28.8590   42.2440 O   0  0  0  0  0  0  0  0  0  0  0  0
   42.5190   29.4550   42.8470 H   0  0  0  0  0  0  0  0  0  0  0  0
   40.0790   27.4970   43.1450 O   0  0  0  0  0  0  0  0  0  0  0  0
   40.9760   27.6470   43.4830 H   0  0  0  0  0  0  0  0  0  0  0  0
  2  1  2  1  0  0  0
  2  5  1  0  0  0  0
  3  2  1  0  0  0  0
  4  3  1  0  0  0  0
  5  6  1  0  0  0  0
  6  7  2  0  0  0  0
  6 11  1  0  0  0  0
  7  8  1  0  0  0  0
  8  9  2  0  0  0  0
 10  9  1  0  0  0  0
 10 14  1  0  0  0  0
 11 10  2  0  0  0  0
 12  7  1  0  0  0  0
 13  8  1  0  0  0  0
 15  2  1  0  0  0  0
 16 22  1  6  0  0  0
 16 17  1  0  0  0  0
 17 15  1  6  0  0  0
 18 17  1  0  0  0  0
 19 18  1  0  0  0  0
 20 24  1  1  0  0  0
 20 21  1  0  0  0  0
 20 19  1  0  0  0  0
 21 16  1  0  0  0  0
 21 26  1  1  0  0  0
 22 23  1  0  0  0  0
 24 25  1  0  0  0  0
 26 27  1  0  0  0  0
M  END
>  <minimizedAffinity>
-5.54388428

>  <minimizedRMSD>
8.03720284

$$$$
