
 OpenBabel03272503493D

 40 42  0  0  1  0  0  0  0  0999 V2000
   33.2870   27.3140   45.8440 C   0  0  1  0  0  0  0  0  0  0  0  0
   33.9150   27.4530   47.2470 C   0  0  2  0  0  0  0  0  0  0  0  0
   33.7040   26.2320   47.8050 O   0  0  0  0  0  0  0  0  0  0  0  0
   34.0520   25.3250   46.8280 C   0  0  0  0  0  0  0  0  0  0  0  0
   33.6740   25.8990   45.4980 C   0  0  2  0  0  0  0  0  0  0  0  0
   33.8020   28.0570   45.2060 H   0  0  0  0  0  0  0  0  0  0  0  0
   34.9820   27.7460   47.0760 H   0  0  0  0  0  0  0  0  0  0  0  0
   33.3970   24.4240   47.0080 H   0  0  0  0  0  0  0  0  0  0  0  0
   35.0840   24.9500   46.9030 H   0  0  0  0  0  0  0  0  0  0  0  0
   32.8370   25.3690   45.0300 H   0  0  0  0  0  0  0  0  0  0  0  0
   31.9260   27.5460   45.9000 O   0  0  0  0  0  0  0  0  0  0  0  0
   31.4810   26.7690   46.2890 H   0  0  0  0  0  0  0  0  0  0  0  0
   33.2690   28.5140   47.8110 O   0  0  0  0  0  0  0  0  0  0  0  0
   35.3360   29.8040   46.7920 O   0  0  0  0  0  0  0  0  0  0  0  0
   34.0700   29.9820   47.6220 P   0  0  1  0  0  0  0  0  0  0  0  0
   33.1090   31.0550   46.7330 O   0  0  0  0  0  0  0  0  0  0  0  0
   32.1700   30.8770   46.9960 H   0  0  0  0  0  0  0  0  0  0  0  0
   34.3770   30.5890   49.1840 O   0  0  0  0  0  0  0  0  0  0  0  0
   35.6080   30.4780   49.7940 C   0  0  0  0  0  0  0  0  0  0  0  0
   35.9580   29.4630   50.7090 C   0  0  0  0  0  0  0  0  0  0  0  0
   37.2410   29.4830   51.2430 C   0  0  0  0  0  0  0  0  0  0  0  0
   38.0960   30.4830   50.8540 N   0  0  0  0  0  0  0  0  0  0  0  0
   37.7230   31.4470   49.9680 C   0  0  0  0  0  0  0  0  0  0  0  0
   36.4750   31.4490   49.4320 N   0  0  0  0  0  0  0  0  0  0  0  0
   35.1920   28.7620   50.9110 H   0  0  0  0  0  0  0  0  0  0  0  0
   37.4970   28.7160   51.9300 H   0  0  0  0  0  0  0  0  0  0  0  0
   38.4650   32.1950   49.7210 H   0  0  0  0  0  0  0  0  0  0  0  0
   34.7550   25.9100   44.6250 O   0  0  0  0  0  0  0  0  0  0  0  0
   35.5190   24.2950   43.0480 C   0  0  1  0  0  3  0  0  0  0  0  0
   34.4920   25.3500   43.3900 C   0  0  2  0  0  3  0  0  0  0  0  0
   34.5960   26.4070   42.4600 O   0  0  0  0  0  0  0  0  0  0  0  0
   35.8810   26.9570   42.5730 C   0  0  0  0  0  2  0  0  0  0  0  0
   36.8860   26.0030   41.9530 C   0  0  1  0  0  3  0  0  0  0  0  0
   36.2170   24.6600   41.7490 C   0  0  2  0  0  3  0  0  0  0  0  0
   36.5440   24.2520   44.0140 O   0  0  0  0  0  0  0  0  0  0  0  0
   36.6190   25.0920   44.5050 H   0  0  0  0  0  0  0  0  0  0  0  0
   37.3010   26.4780   40.6900 O   0  0  0  0  0  0  0  0  0  0  0  0
   37.7440   25.7140   40.2460 H   0  0  0  0  0  0  0  0  0  0  0  0
   35.3160   24.7580   40.6930 O   0  0  0  0  0  0  0  0  0  0  0  0
   34.6510   24.0420   40.7960 H   0  0  0  0  0  0  0  0  0  0  0  0
  1  6  1  6  0  0  0
  1 11  1  0  0  0  0
  1  2  1  0  0  0  0
  2  7  1  6  0  0  0
  2  3  1  0  0  0  0
  2 13  1  0  0  0  0
  4  9  1  0  0  0  0
  4  8  1  0  0  0  0
  4  3  1  0  0  0  0
  5 10  1  6  0  0  0
  5  1  1  0  0  0  0
  5  4  1  0  0  0  0
 11 12  1  0  0  0  0
 15 14  2  6  0  0  0
 15 13  1  0  0  0  0
 15 18  1  0  0  0  0
 16 17  1  0  0  0  0
 16 15  1  0  0  0  0
 18 19  1  0  0  0  0
 19 20  1  0  0  0  0
 20 25  1  0  0  0  0
 20 21  2  0  0  0  0
 21 26  1  0  0  0  0
 22 21  1  0  0  0  0
 23 22  2  0  0  0  0
 24 19  2  0  0  0  0
 24 23  1  0  0  0  0
 27 23  1  0  0  0  0
 28  5  1  0  0  0  0
 29 30  1  0  0  0  0
 29 35  1  1  0  0  0
 30 28  1  1  0  0  0
 31 32  1  0  0  0  0
 31 30  1  0  0  0  0
 33 37  1  6  0  0  0
 33 32  1  0  0  0  0
 34 39  1  6  0  0  0
 34 33  1  0  0  0  0
 34 29  1  0  0  0  0
 35 36  1  0  0  0  0
 38 37  1  0  0  0  0
 39 40  1  0  0  0  0
M  END
>  <minimizedAffinity>
-4.16251516

>  <minimizedRMSD>
0.655637085

$$$$
