
 OpenBabel03272504403D

 45 47  0  0  1  0  0  0  0  0999 V2000
   37.7190   27.5320   32.6930 C   0  0  0  0  0  0  0  0  0  0  0  0
   37.8960   27.5830   31.5770 H   0  0  0  0  0  0  0  0  0  0  0  0
   38.6120   28.0400   33.1130 H   0  0  0  0  0  0  0  0  0  0  0  0
   38.2820   26.9790   35.5520 Cl  0  0  0  0  0  0  0  0  0  0  0  0
   38.0220   25.7200   34.3470 C   0  0  0  0  0  0  0  0  0  0  0  0
   38.0810   24.4140   34.7210 C   0  0  0  0  0  0  0  0  0  0  0  0
   37.8810   23.4280   33.7940 C   0  0  0  0  0  0  0  0  0  0  0  0
   37.6210   23.7850   32.4840 C   0  0  0  0  0  0  0  0  0  0  0  0
   37.5710   25.1400   32.1500 C   0  0  0  0  0  0  0  0  0  0  0  0
   37.7680   26.1350   33.0590 C   0  0  0  0  0  0  0  0  0  0  0  0
   37.9370   22.3890   34.1390 H   0  0  0  0  0  0  0  0  0  0  0  0
   37.4790   22.9270   31.8350 H   0  0  0  0  0  0  0  0  0  0  0  0
   37.3680   25.1980   31.1390 H   0  0  0  0  0  0  0  0  0  0  0  0
   37.9610   24.2260   38.4110 C   0  0  0  0  0  0  0  0  0  0  0  0
   39.0000   23.2640   38.6580 C   0  0  0  0  0  0  0  0  0  0  0  0
   39.6880   22.7280   37.5530 C   0  0  0  0  0  0  0  0  0  0  0  0
   39.3430   23.1420   36.3070 N   0  0  0  0  0  0  0  0  0  0  0  0
   38.3580   24.0510   36.1060 C   0  0  0  0  0  0  0  0  0  0  0  0
   37.6910   24.5730   37.1480 N   0  0  0  0  0  0  0  0  0  0  0  0
   37.4430   24.6290   39.2520 H   0  0  0  0  0  0  0  0  0  0  0  0
   39.2510   22.9570   39.6560 H   0  0  0  0  0  0  0  0  0  0  0  0
   40.6890   21.7980   37.8410 N   0  0  0  0  0  0  0  0  0  0  0  0
   40.5900   21.0830   38.6080 H   0  0  0  0  0  0  0  0  0  0  0  0
   41.5630   21.8130   37.2740 H   0  0  0  0  0  0  0  0  0  0  0  0
   36.5320   28.3170   33.0140 C   0  0  0  0  0  0  0  0  0  0  0  0
   36.7490   29.1810   33.6850 H   0  0  0  0  0  0  0  0  0  0  0  0
   35.8020   27.6890   33.5850 H   0  0  0  0  0  0  0  0  0  0  0  0
   35.9380   28.8310   31.8900 O   0  0  0  0  0  0  0  0  0  0  0  0
   34.1540   30.6030   31.1160 O   0  0  0  0  0  0  0  0  0  0  0  0
   35.0520   30.2060   32.2620 P   0  0  2  0  0  0  0  0  0  0  0  0
   36.1850   31.4470   32.6130 O   0  0  0  0  0  0  0  0  0  0  0  0
   37.0180   31.1080   32.9760 H   0  0  0  0  0  0  0  0  0  0  0  0
   34.1140   30.0080   33.6300 O   0  0  0  0  0  0  0  0  0  0  0  0
   34.7370   31.1190   35.6960 C   0  0  2  0  0  3  0  0  0  0  0  0
   34.1290   31.2110   34.3370 C   0  0  2  0  0  3  0  0  0  0  0  0
   32.8390   31.7370   34.3730 O   0  0  0  0  0  0  0  0  0  0  0  0
   32.1190   31.2600   35.4670 C   0  0  0  0  0  2  0  0  0  0  0  0
   32.6540   31.7910   36.7720 C   0  0  2  0  0  3  0  0  0  0  0  0
   34.0990   32.1760   36.5760 C   0  0  1  0  0  3  0  0  0  0  0  0
   36.1350   31.2950   35.6540 O   0  0  0  0  0  0  0  0  0  0  0  0
   36.5590   30.9900   36.4800 H   0  0  0  0  0  0  0  0  0  0  0  0
   32.5070   30.8120   37.7240 O   0  0  0  0  0  0  0  0  0  0  0  0
   31.7740   30.1930   37.4700 H   0  0  0  0  0  0  0  0  0  0  0  0
   34.7730   32.3100   37.7860 O   0  0  0  0  0  0  0  0  0  0  0  0
   34.6240   33.2420   38.1410 H   0  0  0  0  0  0  0  0  0  0  0  0
  1 25  1  0  0  0  0
  1 10  1  0  0  0  0
  1  3  1  0  0  0  0
  2  1  1  0  0  0  0
  5  6  1  0  0  0  0
  5  4  1  0  0  0  0
  6 18  1  0  0  0  0
  7 11  1  0  0  0  0
  7  6  2  0  0  0  0
  8  7  1  0  0  0  0
  9  8  2  0  0  0  0
  9 10  1  0  0  0  0
 10  5  2  0  0  0  0
 12  8  1  0  0  0  0
 13  9  1  0  0  0  0
 14 15  1  0  0  0  0
 14 20  1  0  0  0  0
 15 21  1  0  0  0  0
 16 22  1  0  0  0  0
 16 15  2  0  0  0  0
 17 16  1  0  0  0  0
 18 17  2  0  0  0  0
 18 19  1  0  0  0  0
 19 14  2  0  0  0  0
 22 23  1  0  0  0  0
 24 22  1  0  0  0  0
 25 27  1  0  0  0  0
 25 26  1  0  0  0  0
 28 30  1  0  0  0  0
 28 25  1  0  0  0  0
 30 29  2  6  0  0  0
 30 31  1  0  0  0  0
 30 33  1  0  0  0  0
 31 32  1  0  0  0  0
 34 40  1  6  0  0  0
 34 39  1  0  0  0  0
 35 33  1  1  0  0  0
 35 36  1  0  0  0  0
 35 34  1  0  0  0  0
 36 37  1  0  0  0  0
 37 38  1  0  0  0  0
 38 42  1  1  0  0  0
 39 38  1  0  0  0  0
 39 44  1  1  0  0  0
 40 41  1  0  0  0  0
 43 42  1  0  0  0  0
 44 45  1  0  0  0  0
M  END
>  <minimizedAffinity>
-6.6864028

$$$$

 OpenBabel03272504403D

 45 47  0  0  1  0  0  0  0  0999 V2000
   38.2150   26.6020   31.3100 C   0  0  0  0  0  0  0  0  0  0  0  0
   38.2360   27.2160   30.3610 H   0  0  0  0  0  0  0  0  0  0  0  0
   39.1480   26.0040   31.2440 H   0  0  0  0  0  0  0  0  0  0  0  0
   38.8690   23.7090   31.3400 Cl  0  0  0  0  0  0  0  0  0  0  0  0
   37.2290   24.3380   31.2000 C   0  0  0  0  0  0  0  0  0  0  0  0
   36.1860   23.4700   31.0960 C   0  0  0  0  0  0  0  0  0  0  0  0
   34.9090   23.9480   30.9870 C   0  0  0  0  0  0  0  0  0  0  0  0
   34.7040   25.3150   30.9850 C   0  0  0  0  0  0  0  0  0  0  0  0
   35.8080   26.1640   31.0950 C   0  0  0  0  0  0  0  0  0  0  0  0
   37.0860   25.7070   31.2040 C   0  0  0  0  0  0  0  0  0  0  0  0
   34.0990   23.2140   30.9050 H   0  0  0  0  0  0  0  0  0  0  0  0
   33.6560   25.5830   30.8940 H   0  0  0  0  0  0  0  0  0  0  0  0
   35.4500   27.1330   31.0750 H   0  0  0  0  0  0  0  0  0  0  0  0
   37.7540   20.1470   30.6890 C   0  0  0  0  0  0  0  0  0  0  0  0
   36.6960   19.2990   31.1630 C   0  0  0  0  0  0  0  0  0  0  0  0
   35.5010   19.9040   31.5970 C   0  0  0  0  0  0  0  0  0  0  0  0
   35.4000   21.2570   31.5490 N   0  0  0  0  0  0  0  0  0  0  0  0
   36.4170   22.0310   31.0970 C   0  0  0  0  0  0  0  0  0  0  0  0
   37.5640   21.4710   30.6790 N   0  0  0  0  0  0  0  0  0  0  0  0
   38.6570   19.6840   30.3610 H   0  0  0  0  0  0  0  0  0  0  0  0
   36.8040   18.2310   31.1880 H   0  0  0  0  0  0  0  0  0  0  0  0
   34.5000   19.0400   32.0480 N   0  0  0  0  0  0  0  0  0  0  0  0
   34.7130   18.1770   32.6120 H   0  0  0  0  0  0  0  0  0  0  0  0
   33.5080   19.2620   31.8190 H   0  0  0  0  0  0  0  0  0  0  0  0
   38.3120   27.5040   32.4520 C   0  0  0  0  0  0  0  0  0  0  0  0
   37.3280   27.9380   32.7510 H   0  0  0  0  0  0  0  0  0  0  0  0
   38.9460   28.3870   32.1890 H   0  0  0  0  0  0  0  0  0  0  0  0
   38.8150   26.8740   33.5620 O   0  0  0  0  0  0  0  0  0  0  0  0
   36.4840   27.7140   34.4470 O   0  0  0  0  0  0  0  0  0  0  0  0
   37.7540   27.0080   34.8540 P   0  0  2  0  0  0  0  0  0  0  0  0
   38.5750   27.8820   36.0820 O   0  0  0  0  0  0  0  0  0  0  0  0
   39.5370   27.7580   36.0570 H   0  0  0  0  0  0  0  0  0  0  0  0
   37.3520   25.5230   35.5050 O   0  0  0  0  0  0  0  0  0  0  0  0
   38.6070   23.5470   36.1450 C   0  0  2  0  0  3  0  0  0  0  0  0
   38.4730   25.0320   36.1760 C   0  0  2  0  0  3  0  0  0  0  0  0
   38.4840   25.5340   37.4760 O   0  0  0  0  0  0  0  0  0  0  0  0
   37.7700   24.7160   38.3500 C   0  0  0  0  0  2  0  0  0  0  0  0
   38.4570   23.3930   38.5750 C   0  0  2  0  0  3  0  0  0  0  0  0
   39.3510   23.1100   37.3930 C   0  0  1  0  0  3  0  0  0  0  0  0
   39.2880   23.1100   34.9910 O   0  0  0  0  0  0  0  0  0  0  0  0
   39.1590   22.1530   34.8410 H   0  0  0  0  0  0  0  0  0  0  0  0
   37.4910   22.4310   38.7310 O   0  0  0  0  0  0  0  0  0  0  0  0
   36.6450   22.8420   39.0490 H   0  0  0  0  0  0  0  0  0  0  0  0
   39.7200   21.7700   37.3260 O   0  0  0  0  0  0  0  0  0  0  0  0
   40.5300   21.6260   37.9090 H   0  0  0  0  0  0  0  0  0  0  0  0
  1 25  1  0  0  0  0
  2  1  1  0  0  0  0
  3  1  1  0  0  0  0
  5 10  1  0  0  0  0
  5  4  1  0  0  0  0
  6 18  1  0  0  0  0
  6  5  2  0  0  0  0
  7  6  1  0  0  0  0
  8  7  2  0  0  0  0
  8  9  1  0  0  0  0
  9 10  2  0  0  0  0
 10  1  1  0  0  0  0
 11  7  1  0  0  0  0
 12  8  1  0  0  0  0
 13  9  1  0  0  0  0
 14 15  1  0  0  0  0
 15 21  1  0  0  0  0
 15 16  2  0  0  0  0
 16 22  1  0  0  0  0
 17 16  1  0  0  0  0
 18 17  2  0  0  0  0
 19 14  2  0  0  0  0
 19 18  1  0  0  0  0
 20 14  1  0  0  0  0
 22 23  1  0  0  0  0
 24 22  1  0  0  0  0
 25 26  1  0  0  0  0
 25 28  1  0  0  0  0
 27 25  1  0  0  0  0
 28 30  1  0  0  0  0
 30 29  2  6  0  0  0
 30 33  1  0  0  0  0
 30 31  1  0  0  0  0
 32 31  1  0  0  0  0
 34 40  1  6  0  0  0
 34 35  1  0  0  0  0
 34 39  1  0  0  0  0
 35 33  1  1  0  0  0
 35 36  1  0  0  0  0
 36 37  1  0  0  0  0
 37 38  1  0  0  0  0
 38 42  1  6  0  0  0
 39 44  1  6  0  0  0
 39 38  1  0  0  0  0
 41 40  1  0  0  0  0
 42 43  1  0  0  0  0
 44 45  1  0  0  0  0
M  END
>  <minimizedAffinity>
-6.67410564

$$$$

 OpenBabel03272504403D

 45 47  0  0  1  0  0  0  0  0999 V2000
   38.4070   26.8800   32.6900 C   0  0  0  0  0  0  0  0  0  0  0  0
   38.1550   26.4780   33.7170 H   0  0  0  0  0  0  0  0  0  0  0  0
   39.3950   27.3620   32.8430 H   0  0  0  0  0  0  0  0  0  0  0  0
   36.7300   27.7540   34.9750 Cl  0  0  0  0  0  0  0  0  0  0  0  0
   36.5810   28.4120   33.3470 C   0  0  0  0  0  0  0  0  0  0  0  0
   35.6510   29.3720   33.0960 C   0  0  0  0  0  0  0  0  0  0  0  0
   35.5270   29.8890   31.8360 C   0  0  0  0  0  0  0  0  0  0  0  0
   36.3570   29.4190   30.8350 C   0  0  0  0  0  0  0  0  0  0  0  0
   37.2960   28.4310   31.1440 C   0  0  0  0  0  0  0  0  0  0  0  0
   37.4340   27.9050   32.3920 C   0  0  0  0  0  0  0  0  0  0  0  0
   34.7650   30.6610   31.6780 H   0  0  0  0  0  0  0  0  0  0  0  0
   36.1730   29.8960   29.8780 H   0  0  0  0  0  0  0  0  0  0  0  0
   37.8110   28.2180   30.2750 H   0  0  0  0  0  0  0  0  0  0  0  0
   32.7120   29.9550   35.2610 C   0  0  0  0  0  0  0  0  0  0  0  0
   33.2730   30.8610   36.2260 C   0  0  0  0  0  0  0  0  0  0  0  0
   34.6250   31.2270   36.0880 C   0  0  0  0  0  0  0  0  0  0  0  0
   35.3390   30.7100   35.0540 N   0  0  0  0  0  0  0  0  0  0  0  0
   34.7810   29.8570   34.1600 C   0  0  0  0  0  0  0  0  0  0  0  0
   33.4920   29.4980   34.2760 N   0  0  0  0  0  0  0  0  0  0  0  0
   31.6870   29.6820   35.3700 H   0  0  0  0  0  0  0  0  0  0  0  0
   32.6830   31.2540   37.0320 H   0  0  0  0  0  0  0  0  0  0  0  0
   35.1270   32.1090   37.0470 N   0  0  0  0  0  0  0  0  0  0  0  0
   34.8520   32.0540   38.0620 H   0  0  0  0  0  0  0  0  0  0  0  0
   35.7990   32.8460   36.7450 H   0  0  0  0  0  0  0  0  0  0  0  0
   38.5660   25.7540   31.7760 C   0  0  0  0  0  0  0  0  0  0  0  0
   39.5710   25.2760   31.8420 H   0  0  0  0  0  0  0  0  0  0  0  0
   38.4870   26.1090   30.7170 H   0  0  0  0  0  0  0  0  0  0  0  0
   37.6450   24.7660   32.0140 O   0  0  0  0  0  0  0  0  0  0  0  0
   39.8320   23.6200   32.9250 O   0  0  0  0  0  0  0  0  0  0  0  0
   38.3260   23.5230   32.9120 P   0  0  2  0  0  0  0  0  0  0  0  0
   37.8110   22.0520   32.1930 O   0  0  0  0  0  0  0  0  0  0  0  0
   36.9480   22.1250   31.7580 H   0  0  0  0  0  0  0  0  0  0  0  0
   37.7800   23.5060   34.4900 O   0  0  0  0  0  0  0  0  0  0  0  0
   39.2800   22.4280   36.0650 C   0  0  2  0  0  3  0  0  0  0  0  0
   38.8850   23.6630   35.3280 C   0  0  2  0  0  3  0  0  0  0  0  0
   38.6610   24.7380   36.1850 O   0  0  0  0  0  0  0  0  0  0  0  0
   38.0060   24.3390   37.3500 C   0  0  0  0  0  2  0  0  0  0  0  0
   38.8820   23.4840   38.2270 C   0  0  2  0  0  3  0  0  0  0  0  0
   39.9410   22.8400   37.3660 C   0  0  1  0  0  3  0  0  0  0  0  0
   40.1530   21.6240   35.3040 O   0  0  0  0  0  0  0  0  0  0  0  0
   40.2110   20.7180   35.6660 H   0  0  0  0  0  0  0  0  0  0  0  0
   38.0880   22.5520   38.8480 O   0  0  0  0  0  0  0  0  0  0  0  0
   37.1520   22.8810   38.9030 H   0  0  0  0  0  0  0  0  0  0  0  0
   40.5440   21.7580   37.9990 O   0  0  0  0  0  0  0  0  0  0  0  0
   41.2940   22.0970   38.5810 H   0  0  0  0  0  0  0  0  0  0  0  0
  1  3  1  0  0  0  0
  1  2  1  0  0  0  0
  5  4  1  0  0  0  0
  6  5  1  0  0  0  0
  6 18  1  0  0  0  0
  7  6  2  0  0  0  0
  8  9  2  0  0  0  0
  8  7  1  0  0  0  0
  9 10  1  0  0  0  0
 10  1  1  0  0  0  0
 10  5  2  0  0  0  0
 11  7  1  0  0  0  0
 12  8  1  0  0  0  0
 13  9  1  0  0  0  0
 14 20  1  0  0  0  0
 14 15  1  0  0  0  0
 15 21  1  0  0  0  0
 16 15  2  0  0  0  0
 16 22  1  0  0  0  0
 17 16  1  0  0  0  0
 18 19  1  0  0  0  0
 18 17  2  0  0  0  0
 19 14  2  0  0  0  0
 22 23  1  0  0  0  0
 24 22  1  0  0  0  0
 25 26  1  0  0  0  0
 25 28  1  0  0  0  0
 25  1  1  0  0  0  0
 27 25  1  0  0  0  0
 28 30  1  0  0  0  0
 30 29  2  6  0  0  0
 30 33  1  0  0  0  0
 31 30  1  0  0  0  0
 32 31  1  0  0  0  0
 34 40  1  6  0  0  0
 34 39  1  0  0  0  0
 35 33  1  1  0  0  0
 35 34  1  0  0  0  0
 35 36  1  0  0  0  0
 36 37  1  0  0  0  0
 37 38  1  0  0  0  0
 38 42  1  6  0  0  0
 39 44  1  1  0  0  0
 39 38  1  0  0  0  0
 40 41  1  0  0  0  0
 42 43  1  0  0  0  0
 44 45  1  0  0  0  0
M  END
>  <minimizedAffinity>
-6.54569006

$$$$

 OpenBabel03272504403D

 45 47  0  0  1  0  0  0  0  0999 V2000
   38.2450   26.7560   32.3400 C   0  0  0  0  0  0  0  0  0  0  0  0
   37.9660   25.9820   31.5650 H   0  0  0  0  0  0  0  0  0  0  0  0
   37.9450   26.2760   33.2950 H   0  0  0  0  0  0  0  0  0  0  0  0
   36.5920   27.5990   34.6540 Cl  0  0  0  0  0  0  0  0  0  0  0  0
   36.5670   28.4100   33.0890 C   0  0  0  0  0  0  0  0  0  0  0  0
   35.7510   29.4820   32.9040 C   0  0  0  0  0  0  0  0  0  0  0  0
   35.7230   30.1180   31.6940 C   0  0  0  0  0  0  0  0  0  0  0  0
   36.5350   29.6530   30.6750 C   0  0  0  0  0  0  0  0  0  0  0  0
   37.3540   28.5480   30.9150 C   0  0  0  0  0  0  0  0  0  0  0  0
   37.3950   27.9020   32.1130 C   0  0  0  0  0  0  0  0  0  0  0  0
   35.0510   30.9780   31.5880 H   0  0  0  0  0  0  0  0  0  0  0  0
   36.4340   30.2290   29.7610 H   0  0  0  0  0  0  0  0  0  0  0  0
   37.8740   28.3590   30.0430 H   0  0  0  0  0  0  0  0  0  0  0  0
   32.8540   30.0450   35.1300 C   0  0  0  0  0  0  0  0  0  0  0  0
   33.4290   30.9540   36.0830 C   0  0  0  0  0  0  0  0  0  0  0  0
   34.7750   31.3290   35.9180 C   0  0  0  0  0  0  0  0  0  0  0  0
   35.4710   30.8170   34.8690 N   0  0  0  0  0  0  0  0  0  0  0  0
   34.9000   29.9610   33.9860 C   0  0  0  0  0  0  0  0  0  0  0  0
   33.6160   29.5930   34.1280 N   0  0  0  0  0  0  0  0  0  0  0  0
   31.8320   29.7650   35.2590 H   0  0  0  0  0  0  0  0  0  0  0  0
   32.8530   31.3430   36.9020 H   0  0  0  0  0  0  0  0  0  0  0  0
   35.2920   32.2130   36.8670 N   0  0  0  0  0  0  0  0  0  0  0  0
   35.0370   32.1560   37.8870 H   0  0  0  0  0  0  0  0  0  0  0  0
   35.9530   32.9540   36.5510 H   0  0  0  0  0  0  0  0  0  0  0  0
   39.6940   26.9250   32.3300 C   0  0  0  0  0  0  0  0  0  0  0  0
   40.0280   27.8710   32.8190 H   0  0  0  0  0  0  0  0  0  0  0  0
   40.0620   27.0030   31.2760 H   0  0  0  0  0  0  0  0  0  0  0  0
   40.3340   25.9010   32.9800 O   0  0  0  0  0  0  0  0  0  0  0  0
   39.9440   27.1170   35.2810 O   0  0  0  0  0  0  0  0  0  0  0  0
   40.9870   26.4340   34.4300 P   0  0  2  0  0  0  0  0  0  0  0  0
   42.2610   27.5150   34.0350 O   0  0  0  0  0  0  0  0  0  0  0  0
   42.6790   27.3120   33.1840 H   0  0  0  0  0  0  0  0  0  0  0  0
   41.6670   25.1920   35.3170 O   0  0  0  0  0  0  0  0  0  0  0  0
   39.7770   23.7350   35.7610 C   0  0  2  0  0  3  0  0  0  0  0  0
   41.0110   24.0090   34.9700 C   0  0  2  0  0  3  0  0  0  0  0  0
   41.9170   22.9520   35.0250 O   0  0  0  0  0  0  0  0  0  0  0  0
   41.9730   22.3870   36.2990 C   0  0  0  0  0  2  0  0  0  0  0  0
   40.7020   21.6610   36.6530 C   0  0  2  0  0  3  0  0  0  0  0  0
   39.5770   22.2330   35.8260 C   0  0  1  0  0  3  0  0  0  0  0  0
   38.6470   24.3570   35.1940 O   0  0  0  0  0  0  0  0  0  0  0  0
   37.9030   24.3930   35.8270 H   0  0  0  0  0  0  0  0  0  0  0  0
   40.4810   21.8170   37.9990 O   0  0  0  0  0  0  0  0  0  0  0  0
   41.3370   21.9970   38.4690 H   0  0  0  0  0  0  0  0  0  0  0  0
   38.3270   21.9050   36.3430 O   0  0  0  0  0  0  0  0  0  0  0  0
   38.0570   20.9990   35.9940 H   0  0  0  0  0  0  0  0  0  0  0  0
  1  3  1  0  0  0  0
  2  1  1  0  0  0  0
  5  4  1  0  0  0  0
  6  5  1  0  0  0  0
  6 18  1  0  0  0  0
  7  6  2  0  0  0  0
  8  9  2  0  0  0  0
  8  7  1  0  0  0  0
  9 10  1  0  0  0  0
 10  1  1  0  0  0  0
 10  5  2  0  0  0  0
 11  7  1  0  0  0  0
 12  8  1  0  0  0  0
 13  9  1  0  0  0  0
 14 20  1  0  0  0  0
 14 15  1  0  0  0  0
 15 21  1  0  0  0  0
 16 15  2  0  0  0  0
 16 22  1  0  0  0  0
 17 16  1  0  0  0  0
 18 19  1  0  0  0  0
 18 17  2  0  0  0  0
 19 14  2  0  0  0  0
 22 23  1  0  0  0  0
 24 22  1  0  0  0  0
 25  1  1  0  0  0  0
 25 26  1  0  0  0  0
 25 28  1  0  0  0  0
 27 25  1  0  0  0  0
 28 30  1  0  0  0  0
 30 29  2  1  0  0  0
 30 33  1  0  0  0  0
 31 30  1  0  0  0  0
 32 31  1  0  0  0  0
 34 40  1  6  0  0  0
 34 39  1  0  0  0  0
 35 36  1  0  0  0  0
 35 33  1  1  0  0  0
 35 34  1  0  0  0  0
 36 37  1  0  0  0  0
 37 38  1  0  0  0  0
 38 42  1  1  0  0  0
 39 44  1  1  0  0  0
 39 38  1  0  0  0  0
 40 41  1  0  0  0  0
 42 43  1  0  0  0  0
 45 44  1  0  0  0  0
M  END
>  <minimizedAffinity>
-6.54185438

$$$$

 OpenBabel03272504403D

 45 47  0  0  1  0  0  0  0  0999 V2000
   36.8350   27.7930   33.4900 C   0  0  0  0  0  0  0  0  0  0  0  0
   37.7730   28.3460   33.7950 H   0  0  0  0  0  0  0  0  0  0  0  0
   36.1550   27.9540   34.3520 H   0  0  0  0  0  0  0  0  0  0  0  0
   38.5330   26.7950   35.7070 Cl  0  0  0  0  0  0  0  0  0  0  0  0
   37.9620   25.7820   34.3830 C   0  0  0  0  0  0  0  0  0  0  0  0
   38.3060   24.4670   34.3500 C   0  0  0  0  0  0  0  0  0  0  0  0
   37.8680   23.6710   33.3270 C   0  0  0  0  0  0  0  0  0  0  0  0
   37.0760   24.2280   32.3390 C   0  0  0  0  0  0  0  0  0  0  0  0
   36.7510   25.5840   32.4180 C   0  0  0  0  0  0  0  0  0  0  0  0
   37.1770   26.3910   33.4290 C   0  0  0  0  0  0  0  0  0  0  0  0
   38.1690   22.6170   33.3400 H   0  0  0  0  0  0  0  0  0  0  0  0
   36.7860   23.5100   31.5790 H   0  0  0  0  0  0  0  0  0  0  0  0
   36.1610   25.8040   31.5990 H   0  0  0  0  0  0  0  0  0  0  0  0
   41.2060   23.1390   36.2200 C   0  0  0  0  0  0  0  0  0  0  0  0
   40.5810   22.8060   37.4700 C   0  0  0  0  0  0  0  0  0  0  0  0
   39.2020   23.0500   37.6110 C   0  0  0  0  0  0  0  0  0  0  0  0
   38.5250   23.5890   36.5650 N   0  0  0  0  0  0  0  0  0  0  0  0
   39.1430   23.8930   35.3970 C   0  0  0  0  0  0  0  0  0  0  0  0
   40.4580   23.6660   35.2440 N   0  0  0  0  0  0  0  0  0  0  0  0
   42.2510   22.9510   36.1170 H   0  0  0  0  0  0  0  0  0  0  0  0
   41.1440   22.3800   38.2800 H   0  0  0  0  0  0  0  0  0  0  0  0
   38.6380   22.7100   38.8420 N   0  0  0  0  0  0  0  0  0  0  0  0
   39.1440   22.8580   39.7540 H   0  0  0  0  0  0  0  0  0  0  0  0
   37.6810   22.2970   38.8560 H   0  0  0  0  0  0  0  0  0  0  0  0
   36.2700   28.4450   32.3130 C   0  0  0  0  0  0  0  0  0  0  0  0
   36.4280   27.8650   31.3740 H   0  0  0  0  0  0  0  0  0  0  0  0
   36.7840   29.4230   32.1350 H   0  0  0  0  0  0  0  0  0  0  0  0
   34.9170   28.6360   32.4330 O   0  0  0  0  0  0  0  0  0  0  0  0
   33.0120   30.3540   31.8510 O   0  0  0  0  0  0  0  0  0  0  0  0
   34.5020   30.2130   32.0410 P   0  0  2  0  0  0  0  0  0  0  0  0
   35.3450   30.6040   30.5970 O   0  0  0  0  0  0  0  0  0  0  0  0
   36.1820   30.1240   30.5050 H   0  0  0  0  0  0  0  0  0  0  0  0
   34.9970   31.3090   33.2000 O   0  0  0  0  0  0  0  0  0  0  0  0
   33.5010   31.6530   35.0790 C   0  0  2  0  0  3  0  0  0  0  0  0
   34.5750   30.8370   34.4440 C   0  0  2  0  0  3  0  0  0  0  0  0
   35.6830   30.6870   35.2760 O   0  0  0  0  0  0  0  0  0  0  0  0
   35.9690   31.8620   35.9700 C   0  0  0  0  0  2  0  0  0  0  0  0
   34.9140   32.1840   36.9960 C   0  0  2  0  0  3  0  0  0  0  0  0
   33.6250   31.5160   36.5850 C   0  0  1  0  0  3  0  0  0  0  0  0
   32.2200   31.2490   34.6540 O   0  0  0  0  0  0  0  0  0  0  0  0
   31.5440   31.9240   34.8610 H   0  0  0  0  0  0  0  0  0  0  0  0
   34.7860   33.5490   37.0640 O   0  0  0  0  0  0  0  0  0  0  0  0
   35.6240   33.9880   36.7610 H   0  0  0  0  0  0  0  0  0  0  0  0
   32.5230   32.0550   37.2410 O   0  0  0  0  0  0  0  0  0  0  0  0
   32.4180   31.5970   38.1330 H   0  0  0  0  0  0  0  0  0  0  0  0
  1  2  1  0  0  0  0
  1  3  1  0  0  0  0
  5  4  1  0  0  0  0
  6  5  1  0  0  0  0
  6 18  1  0  0  0  0
  7 11  1  0  0  0  0
  7  6  2  0  0  0  0
  8  9  2  0  0  0  0
  8  7  1  0  0  0  0
  9 10  1  0  0  0  0
 10  1  1  0  0  0  0
 10  5  2  0  0  0  0
 12  8  1  0  0  0  0
 13  9  1  0  0  0  0
 14 15  1  0  0  0  0
 15 16  2  0  0  0  0
 15 21  1  0  0  0  0
 16 22  1  0  0  0  0
 17 16  1  0  0  0  0
 18 17  2  0  0  0  0
 19 18  1  0  0  0  0
 19 14  2  0  0  0  0
 20 14  1  0  0  0  0
 22 24  1  0  0  0  0
 22 23  1  0  0  0  0
 25 28  1  0  0  0  0
 25  1  1  0  0  0  0
 26 25  1  0  0  0  0
 27 25  1  0  0  0  0
 30 29  2  6  0  0  0
 30 28  1  0  0  0  0
 30 33  1  0  0  0  0
 31 30  1  0  0  0  0
 32 31  1  0  0  0  0
 34 40  1  6  0  0  0
 34 39  1  0  0  0  0
 35 33  1  6  0  0  0
 35 34  1  0  0  0  0
 35 36  1  0  0  0  0
 36 37  1  0  0  0  0
 37 38  1  0  0  0  0
 38 42  1  6  0  0  0
 39 38  1  0  0  0  0
 39 44  1  1  0  0  0
 40 41  1  0  0  0  0
 43 42  1  0  0  0  0
 44 45  1  0  0  0  0
M  END
>  <minimizedAffinity>
-6.37969589

$$$$

 OpenBabel03272504403D

 45 47  0  0  1  0  0  0  0  0999 V2000
   37.6430   27.9090   31.9590 C   0  0  0  0  0  0  0  0  0  0  0  0
   37.3950   27.1930   32.7990 H   0  0  0  0  0  0  0  0  0  0  0  0
   38.6180   28.3370   32.2720 H   0  0  0  0  0  0  0  0  0  0  0  0
   36.2650   28.2730   34.5610 Cl  0  0  0  0  0  0  0  0  0  0  0  0
   35.9220   29.2430   33.1310 C   0  0  0  0  0  0  0  0  0  0  0  0
   34.9750   30.2180   33.1950 C   0  0  0  0  0  0  0  0  0  0  0  0
   34.7010   30.9770   32.0910 C   0  0  0  0  0  0  0  0  0  0  0  0
   35.4000   30.7350   30.9220 C   0  0  0  0  0  0  0  0  0  0  0  0
   36.3620   29.7220   30.9070 C   0  0  0  0  0  0  0  0  0  0  0  0
   36.6480   28.9560   31.9960 C   0  0  0  0  0  0  0  0  0  0  0  0
   33.9310   31.7510   32.1870 H   0  0  0  0  0  0  0  0  0  0  0  0
   35.1030   31.3930   30.1110 H   0  0  0  0  0  0  0  0  0  0  0  0
   36.7650   29.6990   29.9570 H   0  0  0  0  0  0  0  0  0  0  0  0
   32.3890   30.1660   35.8350 C   0  0  0  0  0  0  0  0  0  0  0  0
   33.0000   31.0190   36.8170 C   0  0  0  0  0  0  0  0  0  0  0  0
   34.2630   31.5690   36.5280 C   0  0  0  0  0  0  0  0  0  0  0  0
   34.8480   31.2710   35.3390 N   0  0  0  0  0  0  0  0  0  0  0  0
   34.2460   30.4620   34.4330 C   0  0  0  0  0  0  0  0  0  0  0  0
   33.0400   29.9290   34.6920 N   0  0  0  0  0  0  0  0  0  0  0  0
   31.4310   29.7520   36.0590 H   0  0  0  0  0  0  0  0  0  0  0  0
   32.5120   31.2380   37.7480 H   0  0  0  0  0  0  0  0  0  0  0  0
   34.8180   32.3920   37.5100 N   0  0  0  0  0  0  0  0  0  0  0  0
   34.7210   32.1860   38.5380 H   0  0  0  0  0  0  0  0  0  0  0  0
   35.3460   33.2390   37.2120 H   0  0  0  0  0  0  0  0  0  0  0  0
   37.8320   27.1430   30.7330 C   0  0  0  0  0  0  0  0  0  0  0  0
   38.4360   27.6850   29.9680 H   0  0  0  0  0  0  0  0  0  0  0  0
   36.8440   26.9610   30.2400 H   0  0  0  0  0  0  0  0  0  0  0  0
   38.4720   25.9530   30.9660 O   0  0  0  0  0  0  0  0  0  0  0  0
   37.8780   23.3890   30.9260 O   0  0  0  0  0  0  0  0  0  0  0  0
   37.3670   24.7470   31.3410 P   0  0  2  0  0  0  0  0  0  0  0  0
   35.9120   25.1340   30.5170 O   0  0  0  0  0  0  0  0  0  0  0  0
   35.7940   26.0870   30.3830 H   0  0  0  0  0  0  0  0  0  0  0  0
   37.0010   24.7030   32.9700 O   0  0  0  0  0  0  0  0  0  0  0  0
   37.9970   23.0550   34.4470 C   0  0  2  0  0  3  0  0  0  0  0  0
   38.1510   24.3100   33.6570 C   0  0  2  0  0  3  0  0  0  0  0  0
   38.6020   25.3720   34.4390 O   0  0  0  0  0  0  0  0  0  0  0  0
   38.0110   25.3690   35.7020 C   0  0  0  0  0  2  0  0  0  0  0  0
   38.4780   24.2090   36.5420 C   0  0  2  0  0  3  0  0  0  0  0  0
   38.9540   23.1120   35.6230 C   0  0  1  0  0  3  0  0  0  0  0  0
   38.2520   21.9120   33.6630 O   0  0  0  0  0  0  0  0  0  0  0  0
   37.9140   21.1020   34.0920 H   0  0  0  0  0  0  0  0  0  0  0  0
   37.4290   23.8020   37.3290 O   0  0  0  0  0  0  0  0  0  0  0  0
   36.7900   24.5490   37.4630 H   0  0  0  0  0  0  0  0  0  0  0  0
   39.0400   21.8850   36.2730 O   0  0  0  0  0  0  0  0  0  0  0  0
   39.9360   21.8210   36.7320 H   0  0  0  0  0  0  0  0  0  0  0  0
  1 10  1  0  0  0  0
  1  3  1  0  0  0  0
  1  2  1  0  0  0  0
  5  6  1  0  0  0  0
  5  4  1  0  0  0  0
  6 18  1  0  0  0  0
  7 11  1  0  0  0  0
  7  6  2  0  0  0  0
  8  7  1  0  0  0  0
  9  8  2  0  0  0  0
  9 10  1  0  0  0  0
 10  5  2  0  0  0  0
 12  8  1  0  0  0  0
 13  9  1  0  0  0  0
 14 20  1  0  0  0  0
 14 15  1  0  0  0  0
 15 21  1  0  0  0  0
 16 15  2  0  0  0  0
 16 22  1  0  0  0  0
 17 16  1  0  0  0  0
 18 19  1  0  0  0  0
 18 17  2  0  0  0  0
 19 14  2  0  0  0  0
 22 23  1  0  0  0  0
 24 22  1  0  0  0  0
 25 28  1  0  0  0  0
 25  1  1  0  0  0  0
 26 25  1  0  0  0  0
 27 25  1  0  0  0  0
 28 30  1  0  0  0  0
 30 29  2  6  0  0  0
 30 33  1  0  0  0  0
 31 30  1  0  0  0  0
 32 31  1  0  0  0  0
 34 40  1  6  0  0  0
 34 39  1  0  0  0  0
 35 33  1  1  0  0  0
 35 36  1  0  0  0  0
 35 34  1  0  0  0  0
 36 37  1  0  0  0  0
 37 38  1  0  0  0  0
 38 42  1  6  0  0  0
 39 44  1  1  0  0  0
 39 38  1  0  0  0  0
 40 41  1  0  0  0  0
 42 43  1  0  0  0  0
 44 45  1  0  0  0  0
M  END
>  <minimizedAffinity>
-6.14164448

$$$$

 OpenBabel03272504403D

 45 47  0  0  1  0  0  0  0  0999 V2000
   39.8790   25.1190   30.6180 C   0  0  0  0  0  0  0  0  0  0  0  0
   39.9230   25.4020   29.5240 H   0  0  0  0  0  0  0  0  0  0  0  0
   40.4080   24.1430   30.6480 H   0  0  0  0  0  0  0  0  0  0  0  0
   39.1720   22.3510   31.4130 Cl  0  0  0  0  0  0  0  0  0  0  0  0
   38.0050   23.6670   31.3190 C   0  0  0  0  0  0  0  0  0  0  0  0
   36.7000   23.4280   31.6200 C   0  0  0  0  0  0  0  0  0  0  0  0
   35.7860   24.4420   31.5500 C   0  0  0  0  0  0  0  0  0  0  0  0
   36.2120   25.7030   31.1720 C   0  0  0  0  0  0  0  0  0  0  0  0
   37.5630   25.8970   30.8730 C   0  0  0  0  0  0  0  0  0  0  0  0
   38.4880   24.8990   30.9370 C   0  0  0  0  0  0  0  0  0  0  0  0
   34.7460   24.2050   31.8010 H   0  0  0  0  0  0  0  0  0  0  0  0
   35.4070   26.4300   31.1500 H   0  0  0  0  0  0  0  0  0  0  0  0
   37.6780   26.8910   30.6170 H   0  0  0  0  0  0  0  0  0  0  0  0
   35.6080   19.8970   31.5200 C   0  0  0  0  0  0  0  0  0  0  0  0
   35.4500   19.6320   32.9230 C   0  0  0  0  0  0  0  0  0  0  0  0
   35.7230   20.6720   33.8320 C   0  0  0  0  0  0  0  0  0  0  0  0
   36.1230   21.8750   33.3460 N   0  0  0  0  0  0  0  0  0  0  0  0
   36.2640   22.0940   32.0160 C   0  0  0  0  0  0  0  0  0  0  0  0
   36.0070   21.1140   31.1340 N   0  0  0  0  0  0  0  0  0  0  0  0
   35.3990   19.1070   30.8350 H   0  0  0  0  0  0  0  0  0  0  0  0
   35.1300   18.6700   33.2780 H   0  0  0  0  0  0  0  0  0  0  0  0
   35.5550   20.3690   35.1850 N   0  0  0  0  0  0  0  0  0  0  0  0
   35.8180   19.4330   35.5900 H   0  0  0  0  0  0  0  0  0  0  0  0
   35.1560   21.0980   35.8140 H   0  0  0  0  0  0  0  0  0  0  0  0
   40.6450   26.0970   31.3840 C   0  0  0  0  0  0  0  0  0  0  0  0
   40.0170   26.9260   31.7850 H   0  0  0  0  0  0  0  0  0  0  0  0
   41.3930   26.5990   30.7210 H   0  0  0  0  0  0  0  0  0  0  0  0
   41.2740   25.5250   32.4600 O   0  0  0  0  0  0  0  0  0  0  0  0
   39.6030   27.0290   33.8280 O   0  0  0  0  0  0  0  0  0  0  0  0
   40.9760   26.4020   33.8580 P   0  0  2  0  0  0  0  0  0  0  0  0
   42.1970   27.6030   33.9610 O   0  0  0  0  0  0  0  0  0  0  0  0
   43.0300   27.3340   33.5430 H   0  0  0  0  0  0  0  0  0  0  0  0
   41.1030   25.4660   35.2360 O   0  0  0  0  0  0  0  0  0  0  0  0
   39.3130   23.8610   35.5700 C   0  0  2  0  0  3  0  0  0  0  0  0
   40.6210   24.1910   34.9340 C   0  0  2  0  0  3  0  0  0  0  0  0
   41.6030   23.2490   35.2320 O   0  0  0  0  0  0  0  0  0  0  0  0
   41.5200   22.8190   36.5560 C   0  0  0  0  0  2  0  0  0  0  0  0
   40.2840   21.9960   36.8060 C   0  0  2  0  0  3  0  0  0  0  0  0
   39.2470   22.3590   35.7720 C   0  0  1  0  0  3  0  0  0  0  0  0
   38.2280   24.2980   34.7850 O   0  0  0  0  0  0  0  0  0  0  0  0
   37.3970   24.3140   35.2990 H   0  0  0  0  0  0  0  0  0  0  0  0
   39.8490   22.2540   38.0820 O   0  0  0  0  0  0  0  0  0  0  0  0
   40.6030   22.5710   38.6450 H   0  0  0  0  0  0  0  0  0  0  0  0
   37.9710   21.9480   36.1420 O   0  0  0  0  0  0  0  0  0  0  0  0
   37.8430   20.9880   35.8610 H   0  0  0  0  0  0  0  0  0  0  0  0
  1  3  1  0  0  0  0
  1 10  1  0  0  0  0
  1 25  1  0  0  0  0
  2  1  1  0  0  0  0
  5  4  1  0  0  0  0
  5  6  1  0  0  0  0
  6 18  1  0  0  0  0
  7  6  2  0  0  0  0
  7 11  1  0  0  0  0
  8  7  1  0  0  0  0
  9 10  1  0  0  0  0
  9  8  2  0  0  0  0
 10  5  2  0  0  0  0
 12  8  1  0  0  0  0
 13  9  1  0  0  0  0
 14 15  1  0  0  0  0
 15 21  1  0  0  0  0
 15 16  2  0  0  0  0
 16 22  1  0  0  0  0
 17 16  1  0  0  0  0
 18 17  2  0  0  0  0
 19 14  2  0  0  0  0
 19 18  1  0  0  0  0
 20 14  1  0  0  0  0
 22 23  1  0  0  0  0
 22 24  1  0  0  0  0
 25 26  1  0  0  0  0
 25 28  1  0  0  0  0
 27 25  1  0  0  0  0
 28 30  1  0  0  0  0
 30 29  2  6  0  0  0
 30 31  1  0  0  0  0
 30 33  1  0  0  0  0
 32 31  1  0  0  0  0
 34 40  1  6  0  0  0
 34 39  1  0  0  0  0
 35 36  1  0  0  0  0
 35 33  1  1  0  0  0
 35 34  1  0  0  0  0
 36 37  1  0  0  0  0
 37 38  1  0  0  0  0
 38 42  1  1  0  0  0
 39 44  1  1  0  0  0
 39 38  1  0  0  0  0
 40 41  1  0  0  0  0
 42 43  1  0  0  0  0
 45 44  1  0  0  0  0
M  END
>  <minimizedAffinity>
-6.10815525

$$$$

 OpenBabel03272504403D

 45 47  0  0  1  0  0  0  0  0999 V2000
   35.4790   30.5540   33.6540 C   0  0  0  0  0  0  0  0  0  0  0  0
   36.3880   31.2220   33.5710 H   0  0  0  0  0  0  0  0  0  0  0  0
   34.8510   30.8750   32.7960 H   0  0  0  0  0  0  0  0  0  0  0  0
   32.8120   29.3200   34.0570 Cl  0  0  0  0  0  0  0  0  0  0  0  0
   33.5590   30.4270   35.2070 C   0  0  0  0  0  0  0  0  0  0  0  0
   32.8970   30.7530   36.3490 C   0  0  0  0  0  0  0  0  0  0  0  0
   33.4680   31.6110   37.2480 C   0  0  0  0  0  0  0  0  0  0  0  0
   34.7180   32.1340   36.9730 C   0  0  0  0  0  0  0  0  0  0  0  0
   35.3570   31.7680   35.7860 C   0  0  0  0  0  0  0  0  0  0  0  0
   34.8050   30.9150   34.8790 C   0  0  0  0  0  0  0  0  0  0  0  0
   32.8990   31.8470   38.1550 H   0  0  0  0  0  0  0  0  0  0  0  0
   35.0750   32.8010   37.7510 H   0  0  0  0  0  0  0  0  0  0  0  0
   36.2670   32.2570   35.7660 H   0  0  0  0  0  0  0  0  0  0  0  0
   29.2350   30.2960   36.5740 C   0  0  0  0  0  0  0  0  0  0  0  0
   29.1710   29.0110   37.2140 C   0  0  0  0  0  0  0  0  0  0  0  0
   30.3800   28.3660   37.5370 C   0  0  0  0  0  0  0  0  0  0  0  0
   31.5500   28.9830   37.2300 N   0  0  0  0  0  0  0  0  0  0  0  0
   31.5790   30.1960   36.6250 C   0  0  0  0  0  0  0  0  0  0  0  0
   30.4350   30.8260   36.3110 N   0  0  0  0  0  0  0  0  0  0  0  0
   28.3170   30.7800   36.3320 H   0  0  0  0  0  0  0  0  0  0  0  0
   28.2300   28.5480   37.4450 H   0  0  0  0  0  0  0  0  0  0  0  0
   30.2690   27.1200   38.1580 N   0  0  0  0  0  0  0  0  0  0  0  0
   29.5270   26.4220   37.8920 H   0  0  0  0  0  0  0  0  0  0  0  0
   30.9460   26.8760   38.9110 H   0  0  0  0  0  0  0  0  0  0  0  0
   35.8950   29.1710   33.4450 C   0  0  0  0  0  0  0  0  0  0  0  0
   36.5890   29.0500   32.5800 H   0  0  0  0  0  0  0  0  0  0  0  0
   35.0070   28.5390   33.1900 H   0  0  0  0  0  0  0  0  0  0  0  0
   36.5420   28.6600   34.5410 O   0  0  0  0  0  0  0  0  0  0  0  0
   38.7970   27.4050   34.0280 O   0  0  0  0  0  0  0  0  0  0  0  0
   37.3060   27.2160   34.1600 P   0  0  2  0  0  0  0  0  0  0  0  0
   36.6240   26.6670   32.6830 O   0  0  0  0  0  0  0  0  0  0  0  0
   35.7060   26.9540   32.5600 H   0  0  0  0  0  0  0  0  0  0  0  0
   37.0190   26.0250   35.2960 O   0  0  0  0  0  0  0  0  0  0  0  0
   38.1820   24.0430   34.5160 C   0  0  2  0  0  3  0  0  0  0  0  0
   38.1710   25.2440   35.3990 C   0  0  2  0  0  3  0  0  0  0  0  0
   38.3830   24.9160   36.7360 O   0  0  0  0  0  0  0  0  0  0  0  0
   37.7200   23.7420   37.0900 C   0  0  0  0  0  2  0  0  0  0  0  0
   38.3210   22.5310   36.4250 C   0  0  2  0  0  3  0  0  0  0  0  0
   39.0360   22.9760   35.1730 C   0  0  1  0  0  3  0  0  0  0  0  0
   38.6770   24.3450   33.2320 O   0  0  0  0  0  0  0  0  0  0  0  0
   38.4550   23.6440   32.5880 H   0  0  0  0  0  0  0  0  0  0  0  0
   37.3070   21.6460   36.1510 O   0  0  0  0  0  0  0  0  0  0  0  0
   36.5430   21.7980   36.7660 H   0  0  0  0  0  0  0  0  0  0  0  0
   39.2870   21.9150   34.3080 O   0  0  0  0  0  0  0  0  0  0  0  0
   40.1480   21.4680   34.5820 H   0  0  0  0  0  0  0  0  0  0  0  0
  1 10  1  0  0  0  0
  2  1  1  0  0  0  0
  3  1  1  0  0  0  0
  4  5  1  0  0  0  0
  5  6  1  0  0  0  0
  6 18  1  0  0  0  0
  6  7  2  0  0  0  0
  7 11  1  0  0  0  0
  8  7  1  0  0  0  0
  8 12  1  0  0  0  0
  9  8  2  0  0  0  0
 10  5  2  0  0  0  0
 10  9  1  0  0  0  0
 13  9  1  0  0  0  0
 14 15  1  0  0  0  0
 15 21  1  0  0  0  0
 15 16  2  0  0  0  0
 16 22  1  0  0  0  0
 17 16  1  0  0  0  0
 18 17  2  0  0  0  0
 19 14  2  0  0  0  0
 19 18  1  0  0  0  0
 20 14  1  0  0  0  0
 22 24  1  0  0  0  0
 23 22  1  0  0  0  0
 25  1  1  0  0  0  0
 25 28  1  0  0  0  0
 26 25  1  0  0  0  0
 27 25  1  0  0  0  0
 30 29  2  6  0  0  0
 30 28  1  0  0  0  0
 30 33  1  0  0  0  0
 31 30  1  0  0  0  0
 32 31  1  0  0  0  0
 34 40  1  6  0  0  0
 34 39  1  0  0  0  0
 34 35  1  0  0  0  0
 35 33  1  1  0  0  0
 35 36  1  0  0  0  0
 36 37  1  0  0  0  0
 38 42  1  6  0  0  0
 38 37  1  0  0  0  0
 39 44  1  6  0  0  0
 39 38  1  0  0  0  0
 41 40  1  0  0  0  0
 42 43  1  0  0  0  0
 44 45  1  0  0  0  0
M  END
>  <minimizedAffinity>
-6.08476448

$$$$

 OpenBabel03272504403D

 45 47  0  0  1  0  0  0  0  0999 V2000
   38.6240   26.5620   35.8250 C   0  0  0  0  0  0  0  0  0  0  0  0
   38.3500   27.3010   36.6360 H   0  0  0  0  0  0  0  0  0  0  0  0
   39.7320   26.6290   35.7870 H   0  0  0  0  0  0  0  0  0  0  0  0
   40.2920   26.1000   33.4170 Cl  0  0  0  0  0  0  0  0  0  0  0  0
   38.7480   26.9490   33.3870 C   0  0  0  0  0  0  0  0  0  0  0  0
   38.2730   27.4320   32.2080 C   0  0  0  0  0  0  0  0  0  0  0  0
   37.0750   28.0920   32.1730 C   0  0  0  0  0  0  0  0  0  0  0  0
   36.3670   28.2550   33.3500 C   0  0  0  0  0  0  0  0  0  0  0  0
   36.8980   27.7410   34.5350 C   0  0  0  0  0  0  0  0  0  0  0  0
   38.0890   27.0810   34.5890 C   0  0  0  0  0  0  0  0  0  0  0  0
   36.7300   28.4650   31.2020 H   0  0  0  0  0  0  0  0  0  0  0  0
   35.4340   28.7910   33.2080 H   0  0  0  0  0  0  0  0  0  0  0  0
   36.2300   27.9630   35.2900 H   0  0  0  0  0  0  0  0  0  0  0  0
   40.5550   27.9980   29.3550 C   0  0  0  0  0  0  0  0  0  0  0  0
   40.3860   26.7660   28.6360 C   0  0  0  0  0  0  0  0  0  0  0  0
   39.5010   25.8050   29.1600 C   0  0  0  0  0  0  0  0  0  0  0  0
   38.8490   26.0820   30.3190 N   0  0  0  0  0  0  0  0  0  0  0  0
   39.0300   27.2540   30.9750 C   0  0  0  0  0  0  0  0  0  0  0  0
   39.8700   28.1830   30.4890 N   0  0  0  0  0  0  0  0  0  0  0  0
   41.2260   28.7240   28.9530 H   0  0  0  0  0  0  0  0  0  0  0  0
   40.9160   26.5760   27.7210 H   0  0  0  0  0  0  0  0  0  0  0  0
   39.3680   24.6230   28.4280 N   0  0  0  0  0  0  0  0  0  0  0  0
   40.1840   24.1640   27.9470 H   0  0  0  0  0  0  0  0  0  0  0  0
   38.4270   24.1820   28.3580 H   0  0  0  0  0  0  0  0  0  0  0  0
   38.2450   25.2240   36.2660 C   0  0  0  0  0  0  0  0  0  0  0  0
   37.2360   24.9150   35.9060 H   0  0  0  0  0  0  0  0  0  0  0  0
   38.1720   25.1960   37.3820 H   0  0  0  0  0  0  0  0  0  0  0  0
   39.1280   24.2710   35.8250 O   0  0  0  0  0  0  0  0  0  0  0  0
   37.2180   22.7840   36.8570 O   0  0  0  0  0  0  0  0  0  0  0  0
   38.5460   22.7300   36.1430 P   0  0  2  0  0  0  0  0  0  0  0  0
   39.7290   21.9420   37.1070 O   0  0  0  0  0  0  0  0  0  0  0  0
   40.6290   22.2610   36.9380 H   0  0  0  0  0  0  0  0  0  0  0  0
   38.3690   21.8170   34.7560 O   0  0  0  0  0  0  0  0  0  0  0  0
   36.3290   21.0080   33.7190 C   0  0  2  0  0  3  0  0  0  0  0  0
   37.1540   22.1670   34.1650 C   0  0  2  0  0  3  0  0  0  0  0  0
   37.3910   23.0720   33.1320 O   0  0  0  0  0  0  0  0  0  0  0  0
   37.6360   22.4210   31.9230 C   0  0  0  0  0  2  0  0  0  0  0  0
   36.4050   21.7340   31.3920 C   0  0  2  0  0  3  0  0  0  0  0  0
   35.4760   21.4520   32.5470 C   0  0  1  0  0  3  0  0  0  0  0  0
   35.5150   20.5170   34.7600 O   0  0  0  0  0  0  0  0  0  0  0  0
   35.1720   19.6250   34.5560 H   0  0  0  0  0  0  0  0  0  0  0  0
   36.7980   20.5830   30.7560 O   0  0  0  0  0  0  0  0  0  0  0  0
   37.7390   20.6630   30.4520 H   0  0  0  0  0  0  0  0  0  0  0  0
   34.5130   20.5010   32.2240 O   0  0  0  0  0  0  0  0  0  0  0  0
   33.7360   20.9620   31.7770 H   0  0  0  0  0  0  0  0  0  0  0  0
  1 25  1  0  0  0  0
  1  2  1  0  0  0  0
  3  1  1  0  0  0  0
  5  4  1  0  0  0  0
  5 10  1  0  0  0  0
  6  5  2  0  0  0  0
  7  6  1  0  0  0  0
  7  8  2  0  0  0  0
  8  9  1  0  0  0  0
  9 10  2  0  0  0  0
  9 13  1  0  0  0  0
 10  1  1  0  0  0  0
 11  7  1  0  0  0  0
 12  8  1  0  0  0  0
 14 19  1  0  0  0  0
 15 16  1  0  0  0  0
 15 14  2  0  0  0  0
 16 17  2  0  0  0  0
 17 18  1  0  0  0  0
 18  6  1  0  0  0  0
 19 18  2  0  0  0  0
 20 14  1  0  0  0  0
 21 15  1  0  0  0  0
 22 16  1  0  0  0  0
 23 22  1  0  0  0  0
 24 22  1  0  0  0  0
 25 27  1  0  0  0  0
 26 25  1  0  0  0  0
 28 30  1  0  0  0  0
 28 25  1  0  0  0  0
 30 29  2  1  0  0  0
 30 31  1  0  0  0  0
 32 31  1  0  0  0  0
 33 30  1  0  0  0  0
 34 35  1  0  0  0  0
 34 40  1  1  0  0  0
 35 33  1  6  0  0  0
 36 35  1  0  0  0  0
 37 36  1  0  0  0  0
 38 42  1  1  0  0  0
 38 37  1  0  0  0  0
 38 39  1  0  0  0  0
 39 44  1  6  0  0  0
 39 34  1  0  0  0  0
 41 40  1  0  0  0  0
 43 42  1  0  0  0  0
 45 44  1  0  0  0  0
M  END
>  <minimizedAffinity>
-6.06298018

$$$$
