
 OpenBabel03272504573D

 36 38  0  0  1  0  0  0  0  0999 V2000
   37.0350   31.5560   48.6420 C   0  0  1  0  0  0  0  0  0  0  0  0
   36.3070   30.8860   47.5930 C   0  0  0  0  0  0  0  0  0  0  0  0
   37.2520   30.1210   48.4630 C   0  0  2  0  0  0  0  0  0  0  0  0
   36.5510   31.8320   49.6450 H   0  0  0  0  0  0  0  0  0  0  0  0
   35.2670   31.1200   47.7130 H   0  0  0  0  0  0  0  0  0  0  0  0
   36.6510   31.0730   46.5530 H   0  0  0  0  0  0  0  0  0  0  0  0
   37.9730   29.6000   47.8630 H   0  0  0  0  0  0  0  0  0  0  0  0
   38.1870   32.4640   48.3250 C   0  0  0  0  0  0  0  0  0  0  0  0
   38.5320   33.4010   49.3330 C   0  0  0  0  0  0  0  0  0  0  0  0
   39.5920   34.2170   49.0080 C   0  0  0  0  0  0  0  0  0  0  0  0
   40.2210   34.0890   47.8010 N   0  0  0  0  0  0  0  0  0  0  0  0
   39.8550   33.1780   46.8690 C   0  0  0  0  0  0  0  0  0  0  0  0
   38.8060   32.3540   47.1650 N   0  0  0  0  0  0  0  0  0  0  0  0
   40.4970   33.0550   45.6340 N   0  0  0  0  0  0  0  0  0  0  0  0
   38.0430   33.5000   50.2700 H   0  0  0  0  0  0  0  0  0  0  0  0
   39.8970   34.9500   49.7380 H   0  0  0  0  0  0  0  0  0  0  0  0
   41.3760   33.6320   45.4890 H   0  0  0  0  0  0  0  0  0  0  0  0
   40.1180   32.4200   44.9000 H   0  0  0  0  0  0  0  0  0  0  0  0
   36.6450   29.3070   49.4320 O   0  0  0  0  0  0  0  0  0  0  0  0
   34.6220   27.7300   49.6450 O   0  0  0  0  0  0  0  0  0  0  0  0
   35.0480   29.0300   49.0450 P   0  0  1  0  0  0  0  0  0  0  0  0
   34.0640   30.2340   49.8100 O   0  0  0  0  0  0  0  0  0  0  0  0
   34.5650   30.6010   50.5900 H   0  0  0  0  0  0  0  0  0  0  0  0
   34.8650   29.1120   47.3790 O   0  0  0  0  0  0  0  0  0  0  0  0
   32.9290   30.0220   46.4500 C   0  0  2  0  0  3  0  0  0  0  0  0
   33.6120   28.7660   46.9350 C   0  0  1  0  0  3  0  0  0  0  0  0
   33.6260   27.7400   45.9970 O   0  0  0  0  0  0  0  0  0  0  0  0
   32.2700   27.3870   45.8100 C   0  0  0  0  0  2  0  0  0  0  0  0
   31.7040   28.5340   44.9650 C   0  0  1  0  0  3  0  0  0  0  0  0
   31.5470   29.6850   45.9660 C   0  0  2  0  0  3  0  0  0  0  0  0
   33.6150   30.5760   45.3520 O   0  0  0  0  0  0  0  0  0  0  0  0
   34.0930   31.3580   45.6830 H   0  0  0  0  0  0  0  0  0  0  0  0
   32.6990   28.9240   44.0710 O   0  0  0  0  0  0  0  0  0  0  0  0
   32.2720   29.1210   43.2150 H   0  0  0  0  0  0  0  0  0  0  0  0
   30.9080   30.7650   45.3800 O   0  0  0  0  0  0  0  0  0  0  0  0
   31.5830   31.2440   44.8150 H   0  0  0  0  0  0  0  0  0  0  0  0
  1  4  1  1  0  0  0
  2  5  1  0  0  0  0
  2  3  1  0  0  0  0
  2  1  1  0  0  0  0
  3  7  1  6  0  0  0
  3  1  1  0  0  0  0
  3 19  1  0  0  0  0
  6  2  1  0  0  0  0
  8  1  1  0  0  0  0
  8  9  1  0  0  0  0
  9 15  1  0  0  0  0
 10  9  2  0  0  0  0
 10 16  1  0  0  0  0
 11 10  1  0  0  0  0
 12 13  1  0  0  0  0
 12 11  2  0  0  0  0
 13  8  2  0  0  0  0
 14 12  1  0  0  0  0
 17 14  1  0  0  0  0
 18 14  1  0  0  0  0
 21 19  1  0  0  0  0
 21 20  2  1  0  0  0
 21 22  1  0  0  0  0
 22 23  1  0  0  0  0
 24 21  1  0  0  0  0
 25 31  1  6  0  0  0
 25 26  1  0  0  0  0
 26 24  1  6  0  0  0
 27 26  1  0  0  0  0
 28 27  1  0  0  0  0
 29 33  1  6  0  0  0
 29 28  1  0  0  0  0
 29 30  1  0  0  0  0
 30 35  1  6  0  0  0
 30 25  1  0  0  0  0
 31 32  1  0  0  0  0
 34 33  1  0  0  0  0
 36 35  1  0  0  0  0
M  END
>  <minimizedAffinity>
-5.1868391

>  <minimizedRMSD>
0.204375088

$$$$
