
 OpenBabel03272509433D

 41 43  0  0  1  0  0  0  0  0999 V2000
   37.1790   30.9540   49.0030 C   0  0  0  0  0  0  0  0  0  0  0  0
   36.9810   31.9250   49.9850 C   0  0  0  0  0  0  0  0  0  0  0  0
   37.6090   33.1640   49.9260 C   0  0  0  0  0  0  0  0  0  0  0  0
   38.4610   33.4490   48.8560 C   0  0  0  0  0  0  0  0  0  0  0  0
   38.6430   32.4880   47.9030 C   0  0  0  0  0  0  0  0  0  0  0  0
   38.0010   31.2630   47.9940 C   0  0  0  0  0  0  0  0  0  0  0  0
   36.3100   31.6860   50.8150 H   0  0  0  0  0  0  0  0  0  0  0  0
   37.3840   33.8320   50.7360 H   0  0  0  0  0  0  0  0  0  0  0  0
   38.8990   34.4250   48.8910 H   0  0  0  0  0  0  0  0  0  0  0  0
   39.3320   32.8560   47.1390 H   0  0  0  0  0  0  0  0  0  0  0  0
   36.5560   29.6520   49.0850 C   0  0  2  0  0  0  0  0  0  0  0  0
   37.0500   29.0240   48.2470 H   0  0  0  0  0  0  0  0  0  0  0  0
   33.6420   30.0340   46.9490 C   0  0  0  0  0  0  0  0  0  0  0  0
   32.9420   28.8540   47.1230 C   0  0  0  0  0  0  0  0  0  0  0  0
   33.4320   27.9350   48.0310 C   0  0  0  0  0  0  0  0  0  0  0  0
   34.5900   28.2190   48.7230 N   0  0  0  0  0  0  0  0  0  0  0  0
   35.2130   29.3600   48.5100 C   0  0  0  0  0  0  0  0  0  0  0  0
   34.7480   30.2670   47.6330 N   0  0  0  0  0  0  0  0  0  0  0  0
   33.2310   30.7330   46.2310 H   0  0  0  0  0  0  0  0  0  0  0  0
   32.0290   28.5600   46.6180 H   0  0  0  0  0  0  0  0  0  0  0  0
   32.9850   26.9730   48.2680 H   0  0  0  0  0  0  0  0  0  0  0  0
   36.9940   28.9560   50.0770 O   0  0  0  0  0  0  0  0  0  0  0  0
   36.8720   29.4160   50.9670 H   0  0  0  0  0  0  0  0  0  0  0  0
   38.3050   30.3290   46.9350 C   0  0  0  0  0  3  0  0  0  0  0  0
   38.8750   30.6790   45.7750 C   0  0  0  0  0  3  0  0  0  0  0  0
   39.2680   29.8070   44.6440 C   0  0  0  0  0  0  0  0  0  0  0  0
   39.8600   28.9100   44.9810 H   0  0  0  0  0  0  0  0  0  0  0  0
   38.3620   29.4050   44.1540 H   0  0  0  0  0  0  0  0  0  0  0  0
   40.2640   30.7440   43.4810 S   0  0  0  0  0  0  0  0  0  0  0  0
   40.9530   29.3420   41.2930 C   0  0  1  0  0  3  0  0  0  0  0  0
   39.9380   30.3700   41.7630 C   0  0  2  0  0  3  0  0  0  0  0  0
   39.9540   31.5070   40.9690 O   0  0  0  0  0  0  0  0  0  0  0  0
   39.8910   31.1070   39.6300 C   0  0  0  0  0  2  0  0  0  0  0  0
   41.2950   30.6800   39.2610 C   0  0  1  0  0  3  0  0  0  0  0  0
   42.0040   29.9720   40.3920 C   0  0  2  0  0  3  0  0  0  0  0  0
   41.6420   28.7970   42.3790 O   0  0  0  0  0  0  0  0  0  0  0  0
   41.1370   28.8520   43.2300 H   0  0  0  0  0  0  0  0  0  0  0  0
   41.2520   29.8050   38.1980 O   0  0  0  0  0  0  0  0  0  0  0  0
   40.3750   29.7460   37.7850 H   0  0  0  0  0  0  0  0  0  0  0  0
   42.8190   28.9380   39.9330 O   0  0  0  0  0  0  0  0  0  0  0  0
   42.3050   28.1800   39.5770 H   0  0  0  0  0  0  0  0  0  0  0  0
  1 11  1  0  0  0  0
  1  2  1  0  0  0  0
  2  7  1  0  0  0  0
  3  2  2  0  0  0  0
  3  8  1  0  0  0  0
  4  9  1  0  0  0  0
  4  3  1  0  0  0  0
  5  6  1  0  0  0  0
  5  4  2  0  0  0  0
  6  1  2  0  0  0  0
 10  5  1  0  0  0  0
 11 12  1  6  0  0  0
 11 22  1  0  0  0  0
 13 14  2  0  0  0  0
 13 18  1  0  0  0  0
 14 15  1  0  0  0  0
 15 21  1  0  0  0  0
 15 16  2  0  0  0  0
 17 16  1  0  0  0  0
 17 11  1  0  0  0  0
 18 17  2  0  0  0  0
 19 13  1  0  0  0  0
 20 14  1  0  0  0  0
 22 23  1  0  0  0  0
 24  6  1  0  0  0  0
 25 24  2  0  0  0  0
 26 27  1  0  0  0  0
 26 25  1  0  0  0  0
 28 26  1  0  0  0  0
 29 26  1  0  0  0  0
 30 31  1  0  0  0  0
 30 36  1  1  0  0  0
 31 29  1  1  0  0  0
 32 31  1  0  0  0  0
 33 32  1  0  0  0  0
 34 38  1  6  0  0  0
 34 33  1  0  0  0  0
 34 35  1  0  0  0  0
 35 40  1  6  0  0  0
 35 30  1  0  0  0  0
 36 37  1  0  0  0  0
 39 38  1  0  0  0  0
 41 40  1  0  0  0  0
M  END
>  <minimizedAffinity>
-6.55216169

>  <minimizedRMSD>
0.673154235

$$$$
