
 OpenBabel03272506433D

 35 37  0  0  1  0  0  0  0  0999 V2000
   32.4320   28.5820   47.5110 C   0  0  2  0  0  0  0  0  0  0  0  0
   33.6790   28.5400   48.3790 C   0  0  1  0  0  0  0  0  0  0  0  0
   34.0910   27.2360   48.4540 O   0  0  0  0  0  0  0  0  0  0  0  0
   33.3830   26.4690   47.5420 C   0  0  0  0  0  0  0  0  0  0  0  0
   32.7590   27.4630   46.5540 C   0  0  1  0  0  0  0  0  0  0  0  0
   31.5690   28.3420   48.1590 H   0  0  0  0  0  0  0  0  0  0  0  0
   33.4120   29.0060   49.3380 H   0  0  0  0  0  0  0  0  0  0  0  0
   34.1260   25.8110   47.0370 H   0  0  0  0  0  0  0  0  0  0  0  0
   32.5450   25.9200   47.9970 H   0  0  0  0  0  0  0  0  0  0  0  0
   33.5300   27.8050   45.8680 H   0  0  0  0  0  0  0  0  0  0  0  0
   32.3030   29.8090   46.8830 O   0  0  0  0  0  0  0  0  0  0  0  0
   31.7620   29.7650   46.0660 H   0  0  0  0  0  0  0  0  0  0  0  0
   34.9480   29.4950   47.4910 S   0  0  0  0  0  0  0  0  0  0  0  0
   37.5640   29.5380   50.4700 C   0  0  0  0  0  0  0  0  0  0  0  0
   38.0930   30.8300   50.4750 C   0  0  0  0  0  0  0  0  0  0  0  0
   37.6120   31.7300   49.5040 C   0  0  0  0  0  0  0  0  0  0  0  0
   36.6740   31.3030   48.6270 N   0  0  0  0  0  0  0  0  0  0  0  0
   36.1870   30.0460   48.6540 C   0  0  0  0  0  0  0  0  0  0  0  0
   36.6200   29.1620   49.5630 N   0  0  0  0  0  0  0  0  0  0  0  0
   37.8630   28.7680   51.1740 H   0  0  0  0  0  0  0  0  0  0  0  0
   38.8320   31.0910   51.2020 H   0  0  0  0  0  0  0  0  0  0  0  0
   38.0160   32.7330   49.4990 H   0  0  0  0  0  0  0  0  0  0  0  0
   31.6330   26.9040   45.9800 O   0  0  0  0  0  0  0  0  0  0  0  0
   29.6200   26.4790   47.2440 C   0  0  2  0  0  3  0  0  0  0  0  0
   30.5080   27.4760   46.5730 C   0  0  2  0  0  3  0  0  0  0  0  0
   29.8590   28.2920   45.6620 O   0  0  0  0  0  0  0  0  0  0  0  0
   29.0720   27.5890   44.7610 C   0  0  0  0  0  2  0  0  0  0  0  0
   27.8940   27.1020   45.5830 C   0  0  1  0  0  3  0  0  0  0  0  0
   28.4310   26.0230   46.4810 C   0  0  1  0  0  3  0  0  0  0  0  0
   29.1940   26.9250   48.4980 O   0  0  0  0  0  0  0  0  0  0  0  0
   28.9180   27.8530   48.4280 H   0  0  0  0  0  0  0  0  0  0  0  0
   27.4900   28.1980   46.3730 O   0  0  0  0  0  0  0  0  0  0  0  0
   26.5970   28.0420   46.7680 H   0  0  0  0  0  0  0  0  0  0  0  0
   28.7450   24.9130   45.6730 O   0  0  0  0  0  0  0  0  0  0  0  0
   28.6110   24.1020   46.2440 H   0  0  0  0  0  0  0  0  0  0  0  0
  1  6  1  1  0  0  0
  1  2  1  0  0  0  0
  2  3  1  0  0  0  0
  2  7  1  1  0  0  0
  4  9  1  0  0  0  0
  4  3  1  0  0  0  0
  5 10  1  6  0  0  0
  5  1  1  0  0  0  0
  5  4  1  0  0  0  0
  8  4  1  0  0  0  0
 11  1  1  0  0  0  0
 12 11  1  0  0  0  0
 13  2  1  0  0  0  0
 13 18  1  0  0  0  0
 14 15  1  0  0  0  0
 14 20  1  0  0  0  0
 15 21  1  0  0  0  0
 16 15  2  0  0  0  0
 17 18  2  0  0  0  0
 17 16  1  0  0  0  0
 18 19  1  0  0  0  0
 19 14  2  0  0  0  0
 22 16  1  0  0  0  0
 23  5  1  0  0  0  0
 24 30  1  1  0  0  0
 25 23  1  6  0  0  0
 25 24  1  0  0  0  0
 26 25  1  0  0  0  0
 27 28  1  0  0  0  0
 27 26  1  0  0  0  0
 28 32  1  1  0  0  0
 28 29  1  0  0  0  0
 29 34  1  6  0  0  0
 29 24  1  0  0  0  0
 31 30  1  0  0  0  0
 32 33  1  0  0  0  0
 34 35  1  0  0  0  0
M  END
>  <minimizedAffinity>
-4.69766045

>  <minimizedRMSD>
3.58286071

$$$$
