
 OpenBabel03272509433D

 41 43  0  0  1  0  0  0  0  0999 V2000
   37.0110   30.9190   49.0540 C   0  0  0  0  0  0  0  0  0  0  0  0
   36.7060   31.8120   50.0820 C   0  0  0  0  0  0  0  0  0  0  0  0
   37.2980   33.0670   50.1600 C   0  0  0  0  0  0  0  0  0  0  0  0
   38.2230   33.4490   49.1840 C   0  0  0  0  0  0  0  0  0  0  0  0
   38.5090   32.5630   48.1850 C   0  0  0  0  0  0  0  0  0  0  0  0
   37.9000   31.3190   48.1390 C   0  0  0  0  0  0  0  0  0  0  0  0
   35.9800   31.4980   50.8370 H   0  0  0  0  0  0  0  0  0  0  0  0
   36.9900   33.6700   50.9930 H   0  0  0  0  0  0  0  0  0  0  0  0
   38.6260   34.4310   49.3220 H   0  0  0  0  0  0  0  0  0  0  0  0
   39.2440   33.0020   47.5060 H   0  0  0  0  0  0  0  0  0  0  0  0
   36.4240   29.5980   48.9960 C   0  0  2  0  0  0  0  0  0  0  0  0
   36.9560   29.0670   48.1160 H   0  0  0  0  0  0  0  0  0  0  0  0
   33.5810   30.0710   46.7840 C   0  0  0  0  0  0  0  0  0  0  0  0
   32.8860   28.8780   46.8730 C   0  0  0  0  0  0  0  0  0  0  0  0
   33.3530   27.9170   47.7470 C   0  0  0  0  0  0  0  0  0  0  0  0
   34.4850   28.1720   48.4930 N   0  0  0  0  0  0  0  0  0  0  0  0
   35.1040   29.3270   48.3610 C   0  0  0  0  0  0  0  0  0  0  0  0
   34.6610   30.2760   47.5170 N   0  0  0  0  0  0  0  0  0  0  0  0
   33.1880   30.8030   46.0910 H   0  0  0  0  0  0  0  0  0  0  0  0
   31.9930   28.6050   46.3220 H   0  0  0  0  0  0  0  0  0  0  0  0
   32.9070   26.9400   47.9190 H   0  0  0  0  0  0  0  0  0  0  0  0
   36.8580   28.8230   49.9280 O   0  0  0  0  0  0  0  0  0  0  0  0
   36.7020   29.1920   50.8550 H   0  0  0  0  0  0  0  0  0  0  0  0
   38.3150   30.4710   47.0460 C   0  0  0  0  0  3  0  0  0  0  0  0
   38.9630   30.9170   45.9630 C   0  0  0  0  0  3  0  0  0  0  0  0
   39.4710   30.1380   44.8100 C   0  0  0  0  0  0  0  0  0  0  0  0
   40.5250   30.4210   44.5330 H   0  0  0  0  0  0  0  0  0  0  0  0
   39.5040   29.0650   45.0730 H   0  0  0  0  0  0  0  0  0  0  0  0
   38.4130   30.4150   43.3850 S   0  0  0  0  0  0  0  0  0  0  0  0
   39.6480   31.1780   41.1230 C   0  0  1  0  0  3  0  0  0  0  0  0
   39.1390   29.9310   41.8240 C   0  0  2  0  0  3  0  0  0  0  0  0
   38.2450   29.2240   41.0310 O   0  0  0  0  0  0  0  0  0  0  0  0
   38.8190   29.0610   39.7640 C   0  0  0  0  0  2  0  0  0  0  0  0
   38.6090   30.3740   39.0450 C   0  0  1  0  0  3  0  0  0  0  0  0
   38.7460   31.5680   39.9610 C   0  0  2  0  0  3  0  0  0  0  0  0
   39.6570   32.2660   41.9970 O   0  0  0  0  0  0  0  0  0  0  0  0
   39.7160   32.0020   42.9500 H   0  0  0  0  0  0  0  0  0  0  0  0
   39.5510   30.5170   38.0510 O   0  0  0  0  0  0  0  0  0  0  0  0
   40.0610   29.7060   37.8870 H   0  0  0  0  0  0  0  0  0  0  0  0
   39.3510   32.6520   39.3240 O   0  0  0  0  0  0  0  0  0  0  0  0
   40.3010   32.4960   39.1320 H   0  0  0  0  0  0  0  0  0  0  0  0
  1  2  1  0  0  0  0
  2  3  2  0  0  0  0
  2  7  1  0  0  0  0
  3  8  1  0  0  0  0
  4  9  1  0  0  0  0
  4  3  1  0  0  0  0
  5  4  2  0  0  0  0
  6  5  1  0  0  0  0
  6  1  2  0  0  0  0
 10  5  1  0  0  0  0
 11 12  1  6  0  0  0
 11  1  1  0  0  0  0
 11 22  1  0  0  0  0
 13 14  2  0  0  0  0
 13 18  1  0  0  0  0
 14 15  1  0  0  0  0
 15 21  1  0  0  0  0
 15 16  2  0  0  0  0
 17 16  1  0  0  0  0
 17 11  1  0  0  0  0
 18 17  2  0  0  0  0
 19 13  1  0  0  0  0
 20 14  1  0  0  0  0
 22 23  1  0  0  0  0
 24  6  1  0  0  0  0
 25 24  2  0  0  0  0
 26 28  1  0  0  0  0
 26 25  1  0  0  0  0
 27 26  1  0  0  0  0
 29 26  1  0  0  0  0
 30 31  1  0  0  0  0
 30 36  1  1  0  0  0
 31 29  1  1  0  0  0
 32 31  1  0  0  0  0
 33 32  1  0  0  0  0
 34 38  1  6  0  0  0
 34 33  1  0  0  0  0
 34 35  1  0  0  0  0
 35 40  1  6  0  0  0
 35 30  1  0  0  0  0
 36 37  1  0  0  0  0
 39 38  1  0  0  0  0
 41 40  1  0  0  0  0
M  END
>  <minimizedAffinity>
-5.64083052

>  <minimizedRMSD>
0.684413552

$$$$
