
 OpenBabel03272509583D

 49 52  0  0  1  0  0  0  0  0999 V2000
   33.5250   27.4400   47.7210 C   0  0  0  0  0  0  0  0  0  0  0  0
   33.7710   27.1970   46.6510 H   0  0  0  0  0  0  0  0  0  0  0  0
   33.6540   26.4870   48.2680 H   0  0  0  0  0  0  0  0  0  0  0  0
   32.1030   27.8690   47.7060 C   0  0  0  0  0  0  0  0  0  0  0  0
   31.2690   27.4060   48.7180 C   0  0  0  0  0  0  0  0  0  0  0  0
   29.9480   27.7530   48.7790 C   0  0  0  0  0  0  0  0  0  0  0  0
   29.4460   28.5540   47.8440 N   0  0  0  0  0  0  0  0  0  0  0  0
   30.2660   29.0070   46.8510 C   0  0  0  0  0  0  0  0  0  0  0  0
   31.5650   28.6840   46.7650 N   0  0  0  0  0  0  0  0  0  0  0  0
   31.6340   26.7490   49.5050 H   0  0  0  0  0  0  0  0  0  0  0  0
   29.3110   27.3820   49.5770 H   0  0  0  0  0  0  0  0  0  0  0  0
   29.6550   29.8980   45.8330 C   0  0  0  0  0  0  0  0  0  0  0  0
   29.2210   30.7960   46.3010 H   0  0  0  0  0  0  0  0  0  0  0  0
   30.3680   30.2630   45.0700 H   0  0  0  0  0  0  0  0  0  0  0  0
   28.9810   28.0790   44.2560 C   0  0  2  0  0  3  0  0  0  0  0  0
   28.4960   29.1510   45.2090 C   0  0  1  0  0  3  0  0  0  0  0  0
   27.7110   28.5150   46.1670 O   0  0  0  0  0  0  0  0  0  0  0  0
   26.4320   28.3730   45.6340 C   0  0  0  0  0  2  0  0  0  0  0  0
   26.4600   28.0580   44.1600 C   0  0  1  0  0  3  0  0  0  0  0  0
   27.7380   27.3630   43.7490 C   0  0  1  0  0  3  0  0  0  0  0  0
   29.7840   27.1950   44.9880 O   0  0  0  0  0  0  0  0  0  0  0  0
   29.3050   26.3260   45.1050 H   0  0  0  0  0  0  0  0  0  0  0  0
   25.4120   27.1680   43.9070 O   0  0  0  0  0  0  0  0  0  0  0  0
   24.6350   27.6280   43.4590 H   0  0  0  0  0  0  0  0  0  0  0  0
   27.7770   27.4270   42.3540 O   0  0  0  0  0  0  0  0  0  0  0  0
   27.5620   26.5530   41.9500 H   0  0  0  0  0  0  0  0  0  0  0  0
   34.4570   28.5300   48.1490 C   0  0  0  0  0  0  0  0  0  0  0  0
   33.8630   29.4770   48.1870 H   0  0  0  0  0  0  0  0  0  0  0  0
   35.2730   28.7240   47.4010 H   0  0  0  0  0  0  0  0  0  0  0  0
   34.9780   28.2960   49.4440 O   0  0  0  0  0  0  0  0  0  0  0  0
   37.2900   30.1630   51.4930 C   0  0  0  0  0  0  0  0  0  0  0  0
   38.0160   30.8390   50.4800 C   0  0  0  0  0  0  0  0  0  0  0  0
   37.6610   30.6090   49.1650 C   0  0  0  0  0  0  0  0  0  0  0  0
   36.6320   29.7390   48.9550 N   0  0  0  0  0  0  0  0  0  0  0  0
   35.9550   29.1060   49.9120 C   0  0  0  0  0  0  0  0  0  0  0  0
   36.2960   29.3270   51.2010 N   0  0  0  0  0  0  0  0  0  0  0  0
   37.6190   30.3880   52.4980 H   0  0  0  0  0  0  0  0  0  0  0  0
   38.8230   31.5200   50.6680 H   0  0  0  0  0  0  0  0  0  0  0  0
   38.9750   33.1830   48.9700 F   0  0  0  0  0  0  0  0  0  0  0  0
   38.9080   32.4020   47.8970 C   0  0  0  0  0  0  0  0  0  0  0  0
   38.2950   31.2150   48.0100 C   0  0  0  0  0  0  0  0  0  0  0  0
   38.2750   30.4640   46.8240 C   0  0  0  0  0  0  0  0  0  0  0  0
   38.8390   30.9210   45.6620 C   0  0  0  0  0  0  0  0  0  0  0  0
   39.4560   32.1510   45.6030 C   0  0  0  0  0  0  0  0  0  0  0  0
   39.4800   32.8840   46.7410 C   0  0  0  0  0  0  0  0  0  0  0  0
   37.8130   29.4840   46.7730 H   0  0  0  0  0  0  0  0  0  0  0  0
   38.8120   30.3220   44.7520 H   0  0  0  0  0  0  0  0  0  0  0  0
   39.9050   32.5250   44.6920 H   0  0  0  0  0  0  0  0  0  0  0  0
   39.9630   33.8570   46.7200 H   0  0  0  0  0  0  0  0  0  0  0  0
  1 27  1  0  0  0  0
  1  3  1  0  0  0  0
  2  1  1  0  0  0  0
  4  1  1  0  0  0  0
  4  5  1  0  0  0  0
  5  6  2  0  0  0  0
  5 10  1  0  0  0  0
  6 11  1  0  0  0  0
  7  6  1  0  0  0  0
  8  7  2  0  0  0  0
  9  8  1  0  0  0  0
  9  4  2  0  0  0  0
 12 13  1  0  0  0  0
 12  8  1  0  0  0  0
 14 12  1  0  0  0  0
 15 21  1  1  0  0  0
 15 16  1  0  0  0  0
 16 12  1  1  0  0  0
 16 17  1  0  0  0  0
 18 17  1  0  0  0  0
 19 23  1  1  0  0  0
 19 18  1  0  0  0  0
 20 25  1  6  0  0  0
 20 19  1  0  0  0  0
 20 15  1  0  0  0  0
 21 22  1  0  0  0  0
 24 23  1  0  0  0  0
 26 25  1  0  0  0  0
 27 28  1  0  0  0  0
 27 30  1  0  0  0  0
 29 27  1  0  0  0  0
 30 35  1  0  0  0  0
 31 37  1  0  0  0  0
 32 38  1  0  0  0  0
 32 31  2  0  0  0  0
 33 32  1  0  0  0  0
 34 33  2  0  0  0  0
 34 35  1  0  0  0  0
 35 36  2  0  0  0  0
 36 31  1  0  0  0  0
 40 41  1  0  0  0  0
 40 39  1  0  0  0  0
 41 33  1  0  0  0  0
 42 41  2  0  0  0  0
 43 42  1  0  0  0  0
 44 43  2  0  0  0  0
 44 45  1  0  0  0  0
 45 40  2  0  0  0  0
 46 42  1  0  0  0  0
 47 43  1  0  0  0  0
 48 44  1  0  0  0  0
 49 45  1  0  0  0  0
M  END
>  <minimizedAffinity>
-6.73083782

>  <minimizedRMSD>
0.907191277

$$$$
