
 OpenBabel03262520573D

 22 23  0  0  1  0  0  0  0  0999 V2000
   38.9380   23.8300   36.5760 C   0  0  2  0  0  3  0  0  0  0  0  0
   39.5410   23.6150   35.2110 C   0  0  1  0  0  3  0  0  0  0  0  0
   40.6730   22.8370   35.2320 O   0  0  0  0  0  0  0  0  0  0  0  0
   41.4680   22.9860   36.3440 C   0  0  0  0  0  2  0  0  0  0  0  0
   40.7470   22.5250   37.6020 C   0  0  1  0  0  3  0  0  0  0  0  0
   39.2540   22.6720   37.4810 C   0  0  1  0  0  3  0  0  0  0  0  0
   37.5870   24.0860   36.5370 O   0  0  0  0  0  0  0  0  0  0  0  0
   37.3590   25.0410   36.6580 H   0  0  0  0  0  0  0  0  0  0  0  0
   41.0720   21.2050   37.9070 O   0  0  0  0  0  0  0  0  0  0  0  0
   41.9990   21.2130   38.2600 H   0  0  0  0  0  0  0  0  0  0  0  0
   38.7560   22.9460   38.7640 O   0  0  0  0  0  0  0  0  0  0  0  0
   38.4770   23.8950   38.8300 H   0  0  0  0  0  0  0  0  0  0  0  0
   38.3570   22.7250   34.1250 S   0  0  0  0  0  0  0  0  0  0  0  0
   36.3300   24.7030   31.1850 C   0  0  0  0  0  0  0  0  0  0  0  0
   36.9210   23.6580   31.8920 C   0  0  0  0  0  0  0  0  0  0  0  0
   37.5580   23.9370   33.1050 C   0  0  0  0  0  0  0  0  0  0  0  0
   37.5600   25.2420   33.5290 N   0  0  0  0  0  0  0  0  0  0  0  0
   36.9810   26.2270   32.8250 C   0  0  0  0  0  0  0  0  0  0  0  0
   36.3650   25.9640   31.6540 N   0  0  0  0  0  0  0  0  0  0  0  0
   35.8620   24.3870   30.2590 H   0  0  0  0  0  0  0  0  0  0  0  0
   36.9200   22.6470   31.5640 H   0  0  0  0  0  0  0  0  0  0  0  0
   36.9890   27.2370   33.1630 H   0  0  0  0  0  0  0  0  0  0  0  0
  1  7  1  6  0  0  0
  1  6  1  0  0  0  0
  2 13  1  6  0  0  0
  2  3  1  0  0  0  0
  2  1  1  0  0  0  0
  3  4  1  0  0  0  0
  4  5  1  0  0  0  0
  5  9  1  6  0  0  0
  6  5  1  0  0  0  0
  6 11  1  1  0  0  0
  7  8  1  0  0  0  0
  9 10  1  0  0  0  0
 11 12  1  0  0  0  0
 14 19  2  0  0  0  0
 14 15  1  0  0  0  0
 15 16  2  0  0  0  0
 16 17  1  0  0  0  0
 16 13  1  0  0  0  0
 18 22  1  0  0  0  0
 18 17  2  0  0  0  0
 19 18  1  0  0  0  0
 20 14  1  0  0  0  0
 21 15  1  0  0  0  0
M  END
>  <minimizedAffinity>
-4.72984648

$$$$

 OpenBabel03262520573D

 22 23  0  0  1  0  0  0  0  0999 V2000
   37.8370   25.9810   33.3310 C   0  0  2  0  0  3  0  0  0  0  0  0
   39.0130   25.0580   33.5240 C   0  0  1  0  0  3  0  0  0  0  0  0
   39.8850   25.4830   34.4970 O   0  0  0  0  0  0  0  0  0  0  0  0
   40.0270   26.8470   34.6020 C   0  0  0  0  0  2  0  0  0  0  0  0
   38.7260   27.5050   35.0380 C   0  0  1  0  0  3  0  0  0  0  0  0
   37.5230   26.7100   34.6060 C   0  0  1  0  0  3  0  0  0  0  0  0
   36.7260   25.3440   32.8260 O   0  0  0  0  0  0  0  0  0  0  0  0
   36.5790   25.5040   31.8610 H   0  0  0  0  0  0  0  0  0  0  0  0
   38.7010   27.6940   36.4180 O   0  0  0  0  0  0  0  0  0  0  0  0
   39.3200   28.4430   36.6140 H   0  0  0  0  0  0  0  0  0  0  0  0
   36.4840   27.6230   34.3660 O   0  0  0  0  0  0  0  0  0  0  0  0
   36.3200   27.7110   33.3930 H   0  0  0  0  0  0  0  0  0  0  0  0
   38.4390   23.4020   34.0740 S   0  0  0  0  0  0  0  0  0  0  0  0
   39.8850   22.7050   37.8280 C   0  0  0  0  0  0  0  0  0  0  0  0
   39.8050   22.7150   36.4360 C   0  0  0  0  0  0  0  0  0  0  0  0
   38.6940   23.3070   35.8270 C   0  0  0  0  0  0  0  0  0  0  0  0
   37.7410   23.8510   36.6500 N   0  0  0  0  0  0  0  0  0  0  0  0
   37.8480   23.8270   37.9870 C   0  0  0  0  0  0  0  0  0  0  0  0
   38.9160   23.2570   38.5810 N   0  0  0  0  0  0  0  0  0  0  0  0
   40.7800   22.2240   38.2050 H   0  0  0  0  0  0  0  0  0  0  0  0
   40.5430   22.2930   35.7990 H   0  0  0  0  0  0  0  0  0  0  0  0
   37.1010   24.2520   38.6160 H   0  0  0  0  0  0  0  0  0  0  0  0
  1  7  1  1  0  0  0
  1  2  1  0  0  0  0
  1  6  1  0  0  0  0
  2 13  1  1  0  0  0
  2  3  1  0  0  0  0
  3  4  1  0  0  0  0
  4  5  1  0  0  0  0
  5  9  1  1  0  0  0
  6 11  1  6  0  0  0
  6  5  1  0  0  0  0
  8  7  1  0  0  0  0
  9 10  1  0  0  0  0
 12 11  1  0  0  0  0
 13 16  1  0  0  0  0
 14 20  1  0  0  0  0
 14 19  1  0  0  0  0
 15 14  2  0  0  0  0
 16 15  1  0  0  0  0
 16 17  2  0  0  0  0
 17 18  1  0  0  0  0
 18 19  2  0  0  0  0
 18 22  1  0  0  0  0
 21 15  1  0  0  0  0
M  END
>  <minimizedAffinity>
-4.68860579

$$$$

 OpenBabel03262520573D

 22 23  0  0  1  0  0  0  0  0999 V2000
   39.4760   22.5640   36.0210 C   0  0  2  0  0  3  0  0  0  0  0  0
   38.7410   23.7760   35.5080 C   0  0  1  0  0  3  0  0  0  0  0  0
   38.1320   24.5050   36.5000 O   0  0  0  0  0  0  0  0  0  0  0  0
   37.6390   23.7690   37.5510 C   0  0  0  0  0  2  0  0  0  0  0  0
   38.7610   23.0770   38.3130 C   0  0  1  0  0  3  0  0  0  0  0  0
   39.9450   22.7890   37.4310 C   0  0  1  0  0  3  0  0  0  0  0  0
   40.5080   22.1680   35.2020 O   0  0  0  0  0  0  0  0  0  0  0  0
   40.2930   21.3830   34.6410 H   0  0  0  0  0  0  0  0  0  0  0  0
   39.1580   23.8360   39.4120 O   0  0  0  0  0  0  0  0  0  0  0  0
   38.4410   23.7510   40.0920 H   0  0  0  0  0  0  0  0  0  0  0  0
   40.5440   21.6120   37.9060 O   0  0  0  0  0  0  0  0  0  0  0  0
   40.3630   20.8590   37.2880 H   0  0  0  0  0  0  0  0  0  0  0  0
   39.9140   24.9360   34.7000 S   0  0  0  0  0  0  0  0  0  0  0  0
   37.6840   27.5750   32.5250 C   0  0  0  0  0  0  0  0  0  0  0  0
   38.3490   27.0050   33.6090 C   0  0  0  0  0  0  0  0  0  0  0  0
   39.0210   25.7920   33.4270 C   0  0  0  0  0  0  0  0  0  0  0  0
   38.9840   25.2330   32.1760 N   0  0  0  0  0  0  0  0  0  0  0  0
   38.3350   25.8080   31.1510 C   0  0  0  0  0  0  0  0  0  0  0  0
   37.6840   26.9770   31.3190 N   0  0  0  0  0  0  0  0  0  0  0  0
   37.1940   28.5120   32.7640 H   0  0  0  0  0  0  0  0  0  0  0  0
   38.3780   27.4380   34.5790 H   0  0  0  0  0  0  0  0  0  0  0  0
   38.3120   25.3650   30.1830 H   0  0  0  0  0  0  0  0  0  0  0  0
  1  7  1  6  0  0  0
  1  6  1  0  0  0  0
  2 13  1  1  0  0  0
  2  1  1  0  0  0  0
  2  3  1  0  0  0  0
  3  4  1  0  0  0  0
  4  5  1  0  0  0  0
  5  9  1  1  0  0  0
  6 11  1  1  0  0  0
  6  5  1  0  0  0  0
  8  7  1  0  0  0  0
  9 10  1  0  0  0  0
 12 11  1  0  0  0  0
 14 20  1  0  0  0  0
 14 15  1  0  0  0  0
 15 21  1  0  0  0  0
 16 15  2  0  0  0  0
 16 13  1  0  0  0  0
 17 16  1  0  0  0  0
 18 19  1  0  0  0  0
 18 17  2  0  0  0  0
 19 14  2  0  0  0  0
 22 18  1  0  0  0  0
M  END
>  <minimizedAffinity>
-4.62825871

$$$$

 OpenBabel03262520573D

 22 23  0  0  1  0  0  0  0  0999 V2000
   40.9630   22.5430   37.4040 C   0  0  2  0  0  3  0  0  0  0  0  0
   40.6810   23.2780   36.1190 C   0  0  1  0  0  3  0  0  0  0  0  0
   41.5650   22.9740   35.1120 O   0  0  0  0  0  0  0  0  0  0  0  0
   42.8540   22.7240   35.5180 C   0  0  0  0  0  2  0  0  0  0  0  0
   42.9260   21.4750   36.3860 C   0  0  1  0  0  3  0  0  0  0  0  0
   41.6370   21.2290   37.1230 C   0  0  1  0  0  3  0  0  0  0  0  0
   39.8460   22.3790   38.1910 O   0  0  0  0  0  0  0  0  0  0  0  0
   39.8020   23.0070   38.9540 H   0  0  0  0  0  0  0  0  0  0  0  0
   43.2590   20.3580   35.6240 O   0  0  0  0  0  0  0  0  0  0  0  0
   44.2220   20.4400   35.4020 H   0  0  0  0  0  0  0  0  0  0  0  0
   41.9650   20.6150   38.3430 O   0  0  0  0  0  0  0  0  0  0  0  0
   41.8470   21.2520   39.0920 H   0  0  0  0  0  0  0  0  0  0  0  0
   39.0260   22.8160   35.4710 S   0  0  0  0  0  0  0  0  0  0  0  0
   37.3490   26.5190   35.0970 C   0  0  0  0  0  0  0  0  0  0  0  0
   37.9620   25.4120   35.6820 C   0  0  0  0  0  0  0  0  0  0  0  0
   38.2520   24.3010   34.8840 C   0  0  0  0  0  0  0  0  0  0  0  0
   37.9110   24.3720   33.5580 N   0  0  0  0  0  0  0  0  0  0  0  0
   37.3230   25.4530   33.0240 C   0  0  0  0  0  0  0  0  0  0  0  0
   37.0400   26.5290   33.7870 N   0  0  0  0  0  0  0  0  0  0  0  0
   37.1650   27.3290   35.7950 H   0  0  0  0  0  0  0  0  0  0  0  0
   38.2250   25.3570   36.7090 H   0  0  0  0  0  0  0  0  0  0  0  0
   37.0630   25.4980   31.9920 H   0  0  0  0  0  0  0  0  0  0  0  0
  1  7  1  6  0  0  0
  2 13  1  6  0  0  0
  2  1  1  0  0  0  0
  3  4  1  0  0  0  0
  3  2  1  0  0  0  0
  4  5  1  0  0  0  0
  5  9  1  6  0  0  0
  5  6  1  0  0  0  0
  6  1  1  0  0  0  0
  6 11  1  1  0  0  0
  7  8  1  0  0  0  0
 10  9  1  0  0  0  0
 11 12  1  0  0  0  0
 14 15  1  0  0  0  0
 14 20  1  0  0  0  0
 15 21  1  0  0  0  0
 16 13  1  0  0  0  0
 16 15  2  0  0  0  0
 17 16  1  0  0  0  0
 18 17  2  0  0  0  0
 18 19  1  0  0  0  0
 19 14  2  0  0  0  0
 22 18  1  0  0  0  0
M  END
>  <minimizedAffinity>
-4.57099628

$$$$

 OpenBabel03262520573D

 22 23  0  0  1  0  0  0  0  0999 V2000
   38.4160   23.8000   35.2830 C   0  0  2  0  0  3  0  0  0  0  0  0
   37.7920   24.9140   36.0850 C   0  0  1  0  0  3  0  0  0  0  0  0
   38.0160   24.8050   37.4360 O   0  0  0  0  0  0  0  0  0  0  0  0
   38.0600   23.5190   37.9210 C   0  0  0  0  0  2  0  0  0  0  0  0
   39.2420   22.7520   37.3440 C   0  0  1  0  0  3  0  0  0  0  0  0
   39.6320   23.2630   35.9840 C   0  0  1  0  0  3  0  0  0  0  0  0
   38.6980   24.1590   33.9850 O   0  0  0  0  0  0  0  0  0  0  0  0
   38.0460   23.8130   33.3260 H   0  0  0  0  0  0  0  0  0  0  0  0
   40.3360   22.8040   38.2050 O   0  0  0  0  0  0  0  0  0  0  0  0
   40.1280   22.2050   38.9670 H   0  0  0  0  0  0  0  0  0  0  0  0
   40.1320   22.1720   35.2560 O   0  0  0  0  0  0  0  0  0  0  0  0
   39.4820   21.8920   34.5620 H   0  0  0  0  0  0  0  0  0  0  0  0
   38.5170   26.5300   35.6000 S   0  0  0  0  0  0  0  0  0  0  0  0
   35.7510   28.8740   33.7220 C   0  0  0  0  0  0  0  0  0  0  0  0
   36.5800   28.3750   34.7250 C   0  0  0  0  0  0  0  0  0  0  0  0
   37.4060   27.2840   34.4390 C   0  0  0  0  0  0  0  0  0  0  0  0
   37.3480   26.7660   33.1710 N   0  0  0  0  0  0  0  0  0  0  0  0
   36.5390   27.2700   32.2260 C   0  0  0  0  0  0  0  0  0  0  0  0
   35.7390   28.3220   32.4950 N   0  0  0  0  0  0  0  0  0  0  0  0
   35.1500   29.7180   34.0400 H   0  0  0  0  0  0  0  0  0  0  0  0
   36.6260   28.7760   35.7080 H   0  0  0  0  0  0  0  0  0  0  0  0
   36.5010   26.8600   31.2430 H   0  0  0  0  0  0  0  0  0  0  0  0
  1  7  1  6  0  0  0
  1  6  1  0  0  0  0
  1  2  1  0  0  0  0
  2 13  1  6  0  0  0
  2  3  1  0  0  0  0
  3  4  1  0  0  0  0
  5  4  1  0  0  0  0
  5  9  1  1  0  0  0
  6 11  1  6  0  0  0
  6  5  1  0  0  0  0
  8  7  1  0  0  0  0
  9 10  1  0  0  0  0
 12 11  1  0  0  0  0
 14 20  1  0  0  0  0
 14 15  1  0  0  0  0
 15 21  1  0  0  0  0
 16 15  2  0  0  0  0
 16 13  1  0  0  0  0
 17 16  1  0  0  0  0
 18 19  1  0  0  0  0
 18 17  2  0  0  0  0
 19 14  2  0  0  0  0
 22 18  1  0  0  0  0
M  END
>  <minimizedAffinity>
-4.38023949

$$$$

 OpenBabel03262520573D

 22 23  0  0  1  0  0  0  0  0999 V2000
   40.5020   23.1560   35.7230 C   0  0  2  0  0  3  0  0  0  0  0  0
   39.8680   23.9930   34.6420 C   0  0  1  0  0  3  0  0  0  0  0  0
   38.4980   23.8910   34.6060 O   0  0  0  0  0  0  0  0  0  0  0  0
   37.9930   22.6550   34.9340 C   0  0  0  0  0  2  0  0  0  0  0  0
   38.2960   22.3030   36.3840 C   0  0  1  0  0  3  0  0  0  0  0  0
   39.5520   22.9720   36.8730 C   0  0  1  0  0  3  0  0  0  0  0  0
   41.7170   23.6440   36.1450 O   0  0  0  0  0  0  0  0  0  0  0  0
   42.4930   23.1520   35.7770 H   0  0  0  0  0  0  0  0  0  0  0  0
   37.2260   22.6370   37.2110 O   0  0  0  0  0  0  0  0  0  0  0  0
   36.5140   21.9670   37.0410 H   0  0  0  0  0  0  0  0  0  0  0  0
   40.1410   22.1150   37.8180 O   0  0  0  0  0  0  0  0  0  0  0  0
   40.9510   21.6890   37.4390 H   0  0  0  0  0  0  0  0  0  0  0  0
   40.2160   25.7740   34.9300 S   0  0  0  0  0  0  0  0  0  0  0  0
   36.7670   27.9310   34.5840 C   0  0  0  0  0  0  0  0  0  0  0  0
   37.8200   27.2310   35.1700 C   0  0  0  0  0  0  0  0  0  0  0  0
   38.8130   26.6900   34.3460 C   0  0  0  0  0  0  0  0  0  0  0  0
   38.6860   26.8880   32.9950 N   0  0  0  0  0  0  0  0  0  0  0  0
   37.6600   27.5680   32.4620 C   0  0  0  0  0  0  0  0  0  0  0  0
   36.6990   28.0920   33.2500 N   0  0  0  0  0  0  0  0  0  0  0  0
   36.0490   28.3100   35.3030 H   0  0  0  0  0  0  0  0  0  0  0  0
   37.9180   27.0770   36.2160 H   0  0  0  0  0  0  0  0  0  0  0  0
   37.5720   27.7160   31.4110 H   0  0  0  0  0  0  0  0  0  0  0  0
  1  7  1  1  0  0  0
  1  6  1  0  0  0  0
  2 13  1  1  0  0  0
  2  1  1  0  0  0  0
  3  2  1  0  0  0  0
  3  4  1  0  0  0  0
  4  5  1  0  0  0  0
  5  6  1  0  0  0  0
  5  9  1  1  0  0  0
  6 11  1  1  0  0  0
  8  7  1  0  0  0  0
 10  9  1  0  0  0  0
 12 11  1  0  0  0  0
 14 15  1  0  0  0  0
 14 20  1  0  0  0  0
 15 21  1  0  0  0  0
 16 13  1  0  0  0  0
 16 15  2  0  0  0  0
 17 16  1  0  0  0  0
 18 17  2  0  0  0  0
 18 19  1  0  0  0  0
 19 14  2  0  0  0  0
 22 18  1  0  0  0  0
M  END
>  <minimizedAffinity>
-4.34362793

$$$$

 OpenBabel03262520573D

 22 23  0  0  1  0  0  0  0  0999 V2000
   40.0930   22.0620   37.0670 C   0  0  2  0  0  3  0  0  0  0  0  0
   40.8190   22.5840   35.8530 C   0  0  1  0  0  3  0  0  0  0  0  0
   40.2150   23.6800   35.2860 O   0  0  0  0  0  0  0  0  0  0  0  0
   38.8420   23.6930   35.3520 C   0  0  0  0  0  2  0  0  0  0  0  0
   38.3600   23.7800   36.7940 C   0  0  1  0  0  3  0  0  0  0  0  0
   39.3470   23.1720   37.7530 C   0  0  1  0  0  3  0  0  0  0  0  0
   40.9140   21.3890   37.9420 O   0  0  0  0  0  0  0  0  0  0  0  0
   40.8320   20.4040   37.8870 H   0  0  0  0  0  0  0  0  0  0  0  0
   38.0990   25.1010   37.1530 O   0  0  0  0  0  0  0  0  0  0  0  0
   37.2560   25.3590   36.6980 H   0  0  0  0  0  0  0  0  0  0  0  0
   38.6130   22.6350   38.8230 O   0  0  0  0  0  0  0  0  0  0  0  0
   38.6060   21.6450   38.7730 H   0  0  0  0  0  0  0  0  0  0  0  0
   42.5080   23.1410   36.3120 S   0  0  0  0  0  0  0  0  0  0  0  0
   43.7480   26.2920   34.0320 C   0  0  0  0  0  0  0  0  0  0  0  0
   43.2840   25.5750   35.1340 C   0  0  0  0  0  0  0  0  0  0  0  0
   43.0910   24.1960   35.0100 C   0  0  0  0  0  0  0  0  0  0  0  0
   43.3760   23.6270   33.7950 N   0  0  0  0  0  0  0  0  0  0  0  0
   43.8220   24.3440   32.7530 C   0  0  0  0  0  0  0  0  0  0  0  0
   44.0100   25.6760   32.8640 N   0  0  0  0  0  0  0  0  0  0  0  0
   43.8640   27.3520   34.2250 H   0  0  0  0  0  0  0  0  0  0  0  0
   43.0630   26.0160   36.0740 H   0  0  0  0  0  0  0  0  0  0  0  0
   44.0400   23.8920   31.8130 H   0  0  0  0  0  0  0  0  0  0  0  0
  1  6  1  0  0  0  0
  1  7  1  1  0  0  0
  2 13  1  1  0  0  0
  2  1  1  0  0  0  0
  3  4  1  0  0  0  0
  3  2  1  0  0  0  0
  4  5  1  0  0  0  0
  5  9  1  1  0  0  0
  5  6  1  0  0  0  0
  6 11  1  1  0  0  0
  8  7  1  0  0  0  0
 10  9  1  0  0  0  0
 12 11  1  0  0  0  0
 14 20  1  0  0  0  0
 14 15  1  0  0  0  0
 15 21  1  0  0  0  0
 16 15  2  0  0  0  0
 16 13  1  0  0  0  0
 17 16  1  0  0  0  0
 18 19  1  0  0  0  0
 18 17  2  0  0  0  0
 19 14  2  0  0  0  0
 22 18  1  0  0  0  0
M  END
>  <minimizedAffinity>
-4.28336763

$$$$

 OpenBabel03262520573D

 22 23  0  0  1  0  0  0  0  0999 V2000
   38.9980   25.6280   32.1000 C   0  0  2  0  0  3  0  0  0  0  0  0
   38.3130   25.4600   33.4320 C   0  0  1  0  0  3  0  0  0  0  0  0
   36.9890   25.8260   33.4150 O   0  0  0  0  0  0  0  0  0  0  0  0
   36.6830   26.8800   32.5870 C   0  0  0  0  0  2  0  0  0  0  0  0
   36.9290   26.5250   31.1280 C   0  0  1  0  0  3  0  0  0  0  0  0
   38.0090   25.4870   30.9770 C   0  0  1  0  0  3  0  0  0  0  0  0
   40.0740   24.7860   31.9330 O   0  0  0  0  0  0  0  0  0  0  0  0
   40.9490   25.2300   32.0590 H   0  0  0  0  0  0  0  0  0  0  0  0
   35.7560   26.0840   30.5180 O   0  0  0  0  0  0  0  0  0  0  0  0
   35.1870   26.8850   30.3820 H   0  0  0  0  0  0  0  0  0  0  0  0
   38.6620   25.7380   29.7600 O   0  0  0  0  0  0  0  0  0  0  0  0
   39.5610   26.1220   29.9230 H   0  0  0  0  0  0  0  0  0  0  0  0
   38.3240   23.6930   33.9350 S   0  0  0  0  0  0  0  0  0  0  0  0
   37.9950   24.2190   37.9700 C   0  0  0  0  0  0  0  0  0  0  0  0
   37.7300   24.3430   36.6070 C   0  0  0  0  0  0  0  0  0  0  0  0
   38.5270   23.6430   35.6970 C   0  0  0  0  0  0  0  0  0  0  0  0
   39.5340   22.8660   36.2100 N   0  0  0  0  0  0  0  0  0  0  0  0
   39.7640   22.7660   37.5280 C   0  0  0  0  0  0  0  0  0  0  0  0
   38.9990   23.4390   38.4120 N   0  0  0  0  0  0  0  0  0  0  0  0
   37.3250   24.7990   38.5940 H   0  0  0  0  0  0  0  0  0  0  0  0
   36.9500   24.9450   36.2100 H   0  0  0  0  0  0  0  0  0  0  0  0
   40.5490   22.1600   37.9150 H   0  0  0  0  0  0  0  0  0  0  0  0
  1  7  1  6  0  0  0
  1  2  1  0  0  0  0
  2 13  1  6  0  0  0
  3  2  1  0  0  0  0
  4  3  1  0  0  0  0
  5  9  1  1  0  0  0
  5  4  1  0  0  0  0
  6 11  1  6  0  0  0
  6  5  1  0  0  0  0
  6  1  1  0  0  0  0
  7  8  1  0  0  0  0
 10  9  1  0  0  0  0
 11 12  1  0  0  0  0
 13 16  1  0  0  0  0
 14 19  1  0  0  0  0
 14 20  1  0  0  0  0
 15 14  2  0  0  0  0
 16 17  2  0  0  0  0
 16 15  1  0  0  0  0
 17 18  1  0  0  0  0
 18 22  1  0  0  0  0
 18 19  2  0  0  0  0
 21 15  1  0  0  0  0
M  END
>  <minimizedAffinity>
-4.27949667

$$$$

 OpenBabel03262520573D

 22 23  0  0  1  0  0  0  0  0999 V2000
   37.5210   25.5680   32.3400 C   0  0  2  0  0  3  0  0  0  0  0  0
   36.5490   24.5200   31.8630 C   0  0  1  0  0  3  0  0  0  0  0  0
   35.6530   24.9900   30.9330 O   0  0  0  0  0  0  0  0  0  0  0  0
   35.2610   26.2970   31.1050 C   0  0  0  0  0  2  0  0  0  0  0  0
   36.4320   27.2520   30.9240 C   0  0  1  0  0  3  0  0  0  0  0  0
   37.7440   26.6050   31.2760 C   0  0  1  0  0  3  0  0  0  0  0  0
   38.7100   25.0410   32.7890 O   0  0  0  0  0  0  0  0  0  0  0  0
   38.7840   25.0070   33.7750 H   0  0  0  0  0  0  0  0  0  0  0  0
   36.4770   27.7430   29.6200 O   0  0  0  0  0  0  0  0  0  0  0  0
   35.7360   28.3970   29.5360 H   0  0  0  0  0  0  0  0  0  0  0  0
   38.5820   27.6100   31.7860 O   0  0  0  0  0  0  0  0  0  0  0  0
   38.6860   27.5080   32.7650 H   0  0  0  0  0  0  0  0  0  0  0  0
   37.4470   23.1530   31.0270 S   0  0  0  0  0  0  0  0  0  0  0  0
   34.7330   20.3470   32.2230 C   0  0  0  0  0  0  0  0  0  0  0  0
   35.3690   21.5800   32.0880 C   0  0  0  0  0  0  0  0  0  0  0  0
   36.5210   21.6640   31.3000 C   0  0  0  0  0  0  0  0  0  0  0  0
   36.9570   20.5120   30.6990 N   0  0  0  0  0  0  0  0  0  0  0  0
   36.3220   19.3390   30.8470 C   0  0  0  0  0  0  0  0  0  0  0  0
   35.2110   19.2500   31.6060 N   0  0  0  0  0  0  0  0  0  0  0  0
   33.8520   20.3830   32.8530 H   0  0  0  0  0  0  0  0  0  0  0  0
   35.0310   22.4730   32.5540 H   0  0  0  0  0  0  0  0  0  0  0  0
   36.6700   18.4500   30.3750 H   0  0  0  0  0  0  0  0  0  0  0  0
  1  7  1  6  0  0  0
  2 13  1  6  0  0  0
  2  1  1  0  0  0  0
  3  4  1  0  0  0  0
  3  2  1  0  0  0  0
  5  9  1  6  0  0  0
  5  4  1  0  0  0  0
  5  6  1  0  0  0  0
  6 11  1  1  0  0  0
  6  1  1  0  0  0  0
  7  8  1  0  0  0  0
 10  9  1  0  0  0  0
 11 12  1  0  0  0  0
 13 16  1  0  0  0  0
 14 20  1  0  0  0  0
 15 14  1  0  0  0  0
 15 21  1  0  0  0  0
 16 15  2  0  0  0  0
 17 18  2  0  0  0  0
 17 16  1  0  0  0  0
 18 19  1  0  0  0  0
 19 14  2  0  0  0  0
 22 18  1  0  0  0  0
M  END
>  <minimizedAffinity>
-4.24917555

$$$$
