
 OpenBabel03272509433D

 41 43  0  0  1  0  0  0  0  0999 V2000
   37.0050   30.9070   49.1130 C   0  0  0  0  0  0  0  0  0  0  0  0
   36.6870   31.8050   50.1320 C   0  0  0  0  0  0  0  0  0  0  0  0
   37.2580   33.0710   50.1960 C   0  0  0  0  0  0  0  0  0  0  0  0
   38.1740   33.4580   49.2130 C   0  0  0  0  0  0  0  0  0  0  0  0
   38.4720   32.5680   48.2230 C   0  0  0  0  0  0  0  0  0  0  0  0
   37.8840   31.3130   48.1910 C   0  0  0  0  0  0  0  0  0  0  0  0
   35.9680   31.4860   50.8920 H   0  0  0  0  0  0  0  0  0  0  0  0
   36.9420   33.6770   51.0230 H   0  0  0  0  0  0  0  0  0  0  0  0
   38.5610   34.4490   49.3400 H   0  0  0  0  0  0  0  0  0  0  0  0
   39.1980   33.0120   47.5370 H   0  0  0  0  0  0  0  0  0  0  0  0
   36.4400   29.5760   49.0690 C   0  0  2  0  0  0  0  0  0  0  0  0
   36.9450   29.0590   48.1650 H   0  0  0  0  0  0  0  0  0  0  0  0
   33.5860   29.8920   46.8440 C   0  0  0  0  0  0  0  0  0  0  0  0
   32.8440   28.7500   47.0860 C   0  0  0  0  0  0  0  0  0  0  0  0
   33.2850   27.8840   48.0680 C   0  0  0  0  0  0  0  0  0  0  0  0
   34.4370   28.1820   48.7650 N   0  0  0  0  0  0  0  0  0  0  0  0
   35.1000   29.2840   48.4850 C   0  0  0  0  0  0  0  0  0  0  0  0
   34.6840   30.1400   47.5350 N   0  0  0  0  0  0  0  0  0  0  0  0
   33.2130   30.5490   46.0690 H   0  0  0  0  0  0  0  0  0  0  0  0
   31.9330   28.4480   46.5810 H   0  0  0  0  0  0  0  0  0  0  0  0
   32.8020   26.9560   48.3630 H   0  0  0  0  0  0  0  0  0  0  0  0
   36.9250   28.8030   49.9780 O   0  0  0  0  0  0  0  0  0  0  0  0
   36.7990   29.1650   50.9130 H   0  0  0  0  0  0  0  0  0  0  0  0
   38.3110   30.4610   47.1060 C   0  0  0  0  0  3  0  0  0  0  0  0
   38.7780   30.9200   45.9380 C   0  0  0  0  0  3  0  0  0  0  0  0
   39.2790   30.1460   44.7790 C   0  0  0  0  0  0  0  0  0  0  0  0
   40.1950   29.5410   45.0330 H   0  0  0  0  0  0  0  0  0  0  0  0
   38.5130   29.4150   44.4630 H   0  0  0  0  0  0  0  0  0  0  0  0
   39.6880   31.2670   43.4390 S   0  0  0  0  0  0  0  0  0  0  0  0
   40.2980   30.9930   40.8340 C   0  0  1  0  0  3  0  0  0  0  0  0
   40.7900   30.5770   42.2100 C   0  0  2  0  0  3  0  0  0  0  0  0
   40.8970   29.1990   42.3230 O   0  0  0  0  0  0  0  0  0  0  0  0
   41.6080   28.7220   41.2150 C   0  0  0  0  0  2  0  0  0  0  0  0
   40.6140   28.6770   40.0750 C   0  0  1  0  0  3  0  0  0  0  0  0
   39.6390   29.8300   40.1070 C   0  0  2  0  0  3  0  0  0  0  0  0
   39.3300   31.9920   40.9390 O   0  0  0  0  0  0  0  0  0  0  0  0
   39.3960   32.5170   41.7770 H   0  0  0  0  0  0  0  0  0  0  0  0
   41.2800   28.7410   38.8720 O   0  0  0  0  0  0  0  0  0  0  0  0
   42.2430   28.6430   38.9610 H   0  0  0  0  0  0  0  0  0  0  0  0
   39.3200   30.2820   38.8260 O   0  0  0  0  0  0  0  0  0  0  0  0
   40.0730   30.7300   38.3840 H   0  0  0  0  0  0  0  0  0  0  0  0
  1  2  1  0  0  0  0
  2  3  2  0  0  0  0
  2  7  1  0  0  0  0
  3  8  1  0  0  0  0
  4  9  1  0  0  0  0
  4  3  1  0  0  0  0
  5  4  2  0  0  0  0
  6  5  1  0  0  0  0
  6  1  2  0  0  0  0
 10  5  1  0  0  0  0
 11 12  1  6  0  0  0
 11  1  1  0  0  0  0
 11 22  1  0  0  0  0
 13 14  2  0  0  0  0
 13 18  1  0  0  0  0
 14 15  1  0  0  0  0
 15 21  1  0  0  0  0
 15 16  2  0  0  0  0
 17 16  1  0  0  0  0
 17 11  1  0  0  0  0
 18 17  2  0  0  0  0
 19 13  1  0  0  0  0
 20 14  1  0  0  0  0
 22 23  1  0  0  0  0
 24  6  1  0  0  0  0
 25 24  2  0  0  0  0
 26 27  1  0  0  0  0
 26 25  1  0  0  0  0
 28 26  1  0  0  0  0
 29 26  1  0  0  0  0
 30 36  1  1  0  0  0
 30 31  1  0  0  0  0
 31 32  1  0  0  0  0
 31 29  1  1  0  0  0
 33 32  1  0  0  0  0
 34 38  1  6  0  0  0
 34 35  1  0  0  0  0
 34 33  1  0  0  0  0
 35 40  1  6  0  0  0
 35 30  1  0  0  0  0
 36 37  1  0  0  0  0
 38 39  1  0  0  0  0
 41 40  1  0  0  0  0
M  END
>  <minimizedAffinity>
-5.9727087

>  <minimizedRMSD>
1.1295898

$$$$
