
 OpenBabel03272503503D

 40 42  0  0  1  0  0  0  0  0999 V2000
   33.2300   27.3060   45.8720 C   0  0  1  0  0  0  0  0  0  0  0  0
   33.9100   27.4610   47.2490 C   0  0  2  0  0  0  0  0  0  0  0  0
   33.7280   26.2430   47.8250 O   0  0  0  0  0  0  0  0  0  0  0  0
   34.0450   25.3300   46.8420 C   0  0  0  0  0  0  0  0  0  0  0  0
   33.6130   25.8910   45.5230 C   0  0  2  0  0  0  0  0  0  0  0  0
   33.7150   28.0480   45.2090 H   0  0  0  0  0  0  0  0  0  0  0  0
   34.9670   27.7590   47.0360 H   0  0  0  0  0  0  0  0  0  0  0  0
   33.4040   24.4260   47.0530 H   0  0  0  0  0  0  0  0  0  0  0  0
   35.0820   24.9630   46.8810 H   0  0  0  0  0  0  0  0  0  0  0  0
   32.7630   25.3520   45.0910 H   0  0  0  0  0  0  0  0  0  0  0  0
   31.8690   27.5290   45.9780 O   0  0  0  0  0  0  0  0  0  0  0  0
   31.4450   26.7520   46.3900 H   0  0  0  0  0  0  0  0  0  0  0  0
   33.2780   28.5220   47.8290 O   0  0  0  0  0  0  0  0  0  0  0  0
   35.3370   29.8050   46.7870 O   0  0  0  0  0  0  0  0  0  0  0  0
   34.0750   29.9900   47.6230 P   0  0  1  0  0  0  0  0  0  0  0  0
   33.1070   31.0520   46.7280 O   0  0  0  0  0  0  0  0  0  0  0  0
   32.1700   30.8750   46.9980 H   0  0  0  0  0  0  0  0  0  0  0  0
   34.3890   30.6110   49.1760 O   0  0  0  0  0  0  0  0  0  0  0  0
   35.6180   30.4910   49.7900 C   0  0  0  0  0  0  0  0  0  0  0  0
   35.9580   29.4720   50.7040 C   0  0  0  0  0  0  0  0  0  0  0  0
   37.2400   29.4810   51.2410 C   0  0  0  0  0  0  0  0  0  0  0  0
   38.1040   30.4760   50.8560 N   0  0  0  0  0  0  0  0  0  0  0  0
   37.7390   31.4440   49.9700 C   0  0  0  0  0  0  0  0  0  0  0  0
   36.4930   31.4560   49.4310 N   0  0  0  0  0  0  0  0  0  0  0  0
   35.1870   28.7760   50.9030 H   0  0  0  0  0  0  0  0  0  0  0  0
   37.4890   28.7110   51.9280 H   0  0  0  0  0  0  0  0  0  0  0  0
   38.4880   32.1870   49.7260 H   0  0  0  0  0  0  0  0  0  0  0  0
   34.6590   25.9020   44.6090 O   0  0  0  0  0  0  0  0  0  0  0  0
   35.5600   23.9860   43.5130 C   0  0  1  0  0  3  0  0  0  0  0  0
   34.4850   25.0500   43.5360 C   0  0  2  0  0  3  0  0  0  0  0  0
   34.6120   25.8530   42.3830 O   0  0  0  0  0  0  0  0  0  0  0  0
   35.8720   26.4670   42.4210 C   0  0  0  0  0  2  0  0  0  0  0  0
   36.9380   25.4350   42.1030 C   0  0  1  0  0  3  0  0  0  0  0  0
   36.3210   24.0550   42.2000 C   0  0  2  0  0  3  0  0  0  0  0  0
   36.5270   24.2230   44.5090 O   0  0  0  0  0  0  0  0  0  0  0  0
   36.5490   25.1590   44.7840 H   0  0  0  0  0  0  0  0  0  0  0  0
   37.4110   25.6070   40.7850 O   0  0  0  0  0  0  0  0  0  0  0  0
   37.9010   24.7760   40.5610 H   0  0  0  0  0  0  0  0  0  0  0  0
   35.4780   23.8570   41.1100 O   0  0  0  0  0  0  0  0  0  0  0  0
   34.8310   23.1590   41.3510 H   0  0  0  0  0  0  0  0  0  0  0  0
  1  6  1  6  0  0  0
  1 11  1  0  0  0  0
  1  2  1  0  0  0  0
  2  7  1  6  0  0  0
  2  3  1  0  0  0  0
  2 13  1  0  0  0  0
  4  9  1  0  0  0  0
  4  8  1  0  0  0  0
  4  3  1  0  0  0  0
  5 10  1  6  0  0  0
  5  1  1  0  0  0  0
  5  4  1  0  0  0  0
 11 12  1  0  0  0  0
 15 14  2  6  0  0  0
 15 13  1  0  0  0  0
 15 18  1  0  0  0  0
 16 17  1  0  0  0  0
 16 15  1  0  0  0  0
 18 19  1  0  0  0  0
 19 20  1  0  0  0  0
 20 25  1  0  0  0  0
 20 21  2  0  0  0  0
 21 26  1  0  0  0  0
 22 21  1  0  0  0  0
 23 22  2  0  0  0  0
 24 19  2  0  0  0  0
 24 23  1  0  0  0  0
 27 23  1  0  0  0  0
 28  5  1  0  0  0  0
 29 30  1  0  0  0  0
 29 35  1  1  0  0  0
 30 28  1  1  0  0  0
 31 32  1  0  0  0  0
 31 30  1  0  0  0  0
 33 37  1  6  0  0  0
 33 34  1  0  0  0  0
 33 32  1  0  0  0  0
 34 39  1  6  0  0  0
 34 29  1  0  0  0  0
 35 36  1  0  0  0  0
 38 37  1  0  0  0  0
 39 40  1  0  0  0  0
M  END
>  <minimizedAffinity>
-4.19512463

>  <minimizedRMSD>
1.79030299

$$$$
