
 OpenBabel03272506453D

 35 37  0  0  1  0  0  0  0  0999 V2000
   36.6790   29.0500   31.9540 C   0  0  2  0  0  0  0  0  0  0  0  0
   37.0450   27.5870   32.1350 C   0  0  1  0  0  0  0  0  0  0  0  0
   37.0130   27.3120   33.4750 O   0  0  0  0  0  0  0  0  0  0  0  0
   36.4400   28.3740   34.1580 C   0  0  0  0  0  0  0  0  0  0  0  0
   35.7070   29.2060   33.0970 C   0  0  1  0  0  0  0  0  0  0  0  0
   37.6000   29.6440   32.1020 H   0  0  0  0  0  0  0  0  0  0  0  0
   38.0200   27.4430   31.6470 H   0  0  0  0  0  0  0  0  0  0  0  0
   35.7260   27.9330   34.8890 H   0  0  0  0  0  0  0  0  0  0  0  0
   37.1830   29.0450   34.6150 H   0  0  0  0  0  0  0  0  0  0  0  0
   34.7790   28.7010   32.8370 H   0  0  0  0  0  0  0  0  0  0  0  0
   36.0960   29.2700   30.7170 O   0  0  0  0  0  0  0  0  0  0  0  0
   35.5280   30.0690   30.6980 H   0  0  0  0  0  0  0  0  0  0  0  0
   35.7300   26.6300   31.3180 S   0  0  0  0  0  0  0  0  0  0  0  0
   35.6780   22.6700   31.4960 C   0  0  0  0  0  0  0  0  0  0  0  0
   36.9430   22.2660   31.0640 C   0  0  0  0  0  0  0  0  0  0  0  0
   37.8550   23.2760   30.7000 C   0  0  0  0  0  0  0  0  0  0  0  0
   37.4640   24.5690   30.7860 N   0  0  0  0  0  0  0  0  0  0  0  0
   36.2330   24.9190   31.2090 C   0  0  0  0  0  0  0  0  0  0  0  0
   35.3390   23.9870   31.5640 N   0  0  0  0  0  0  0  0  0  0  0  0
   34.9020   21.9750   31.8000 H   0  0  0  0  0  0  0  0  0  0  0  0
   37.1750   21.2230   31.0240 H   0  0  0  0  0  0  0  0  0  0  0  0
   38.8370   22.9740   30.3640 H   0  0  0  0  0  0  0  0  0  0  0  0
   35.5920   30.5140   33.5290 O   0  0  0  0  0  0  0  0  0  0  0  0
   33.8190   31.0440   35.0800 C   0  0  2  0  0  3  0  0  0  0  0  0
   35.1940   30.5000   34.8660 C   0  0  2  0  0  3  0  0  0  0  0  0
   36.1680   31.0910   35.6530 O   0  0  0  0  0  0  0  0  0  0  0  0
   36.1320   32.4770   35.6180 C   0  0  0  0  0  2  0  0  0  0  0  0
   34.8860   32.8480   36.3990 C   0  0  1  0  0  3  0  0  0  0  0  0
   33.7220   32.4550   35.5330 C   0  0  1  0  0  3  0  0  0  0  0  0
   33.0770   30.2480   35.9580 O   0  0  0  0  0  0  0  0  0  0  0  0
   33.6320   30.0140   36.7190 H   0  0  0  0  0  0  0  0  0  0  0  0
   34.8930   32.0370   37.5510 O   0  0  0  0  0  0  0  0  0  0  0  0
   34.2470   32.3670   38.2230 H   0  0  0  0  0  0  0  0  0  0  0  0
   33.6900   33.3360   34.4350 O   0  0  0  0  0  0  0  0  0  0  0  0
   32.7300   33.4210   34.1690 H   0  0  0  0  0  0  0  0  0  0  0  0
  1  6  1  1  0  0  0
  1  2  1  0  0  0  0
  1  5  1  0  0  0  0
  2  7  1  6  0  0  0
  2  3  1  0  0  0  0
  3  4  1  0  0  0  0
  4  9  1  0  0  0  0
  4  8  1  0  0  0  0
  5 10  1  6  0  0  0
  5 23  1  0  0  0  0
  5  4  1  0  0  0  0
 11  1  1  0  0  0  0
 12 11  1  0  0  0  0
 13  2  1  0  0  0  0
 14 19  1  0  0  0  0
 14 20  1  0  0  0  0
 15 14  2  0  0  0  0
 16 17  2  0  0  0  0
 16 15  1  0  0  0  0
 17 18  1  0  0  0  0
 18 13  1  0  0  0  0
 18 19  2  0  0  0  0
 21 15  1  0  0  0  0
 22 16  1  0  0  0  0
 24 29  1  0  0  0  0
 24 30  1  1  0  0  0
 25 23  1  6  0  0  0
 25 24  1  0  0  0  0
 25 26  1  0  0  0  0
 27 26  1  0  0  0  0
 27 28  1  0  0  0  0
 28 32  1  1  0  0  0
 29 34  1  6  0  0  0
 29 28  1  0  0  0  0
 30 31  1  0  0  0  0
 32 33  1  0  0  0  0
 35 34  1  0  0  0  0
M  END
>  <minimizedAffinity>
-5.28875828

$$$$

 OpenBabel03272506453D

 35 37  0  0  1  0  0  0  0  0999 V2000
   39.2290   23.8000   33.1630 C   0  0  2  0  0  0  0  0  0  0  0  0
   38.7820   23.2600   31.8150 C   0  0  1  0  0  0  0  0  0  0  0  0
   39.1800   21.9520   31.7370 O   0  0  0  0  0  0  0  0  0  0  0  0
   39.6280   21.5240   32.9770 C   0  0  0  0  0  0  0  0  0  0  0  0
   39.0930   22.5450   33.9900 C   0  0  1  0  0  0  0  0  0  0  0  0
   40.2820   24.1210   33.0590 H   0  0  0  0  0  0  0  0  0  0  0  0
   39.2050   23.9280   31.0510 H   0  0  0  0  0  0  0  0  0  0  0  0
   39.1830   20.5170   33.1450 H   0  0  0  0  0  0  0  0  0  0  0  0
   40.7240   21.5430   33.0700 H   0  0  0  0  0  0  0  0  0  0  0  0
   38.0360   22.3510   34.1570 H   0  0  0  0  0  0  0  0  0  0  0  0
   38.3990   24.8210   33.5930 O   0  0  0  0  0  0  0  0  0  0  0  0
   38.4100   24.9390   34.5660 H   0  0  0  0  0  0  0  0  0  0  0  0
   36.9630   23.3090   31.8270 S   0  0  0  0  0  0  0  0  0  0  0  0
   35.5220   20.0550   33.5770 C   0  0  0  0  0  0  0  0  0  0  0  0
   35.3620   19.1260   32.5480 C   0  0  0  0  0  0  0  0  0  0  0  0
   35.7180   19.5320   31.2470 C   0  0  0  0  0  0  0  0  0  0  0  0
   36.1920   20.7860   31.0630 N   0  0  0  0  0  0  0  0  0  0  0  0
   36.3340   21.6560   32.0840 C   0  0  0  0  0  0  0  0  0  0  0  0
   36.0060   21.3050   33.3340 N   0  0  0  0  0  0  0  0  0  0  0  0
   35.2790   19.8450   34.6140 H   0  0  0  0  0  0  0  0  0  0  0  0
   34.9790   18.1530   32.7750 H   0  0  0  0  0  0  0  0  0  0  0  0
   35.5970   18.8190   30.4430 H   0  0  0  0  0  0  0  0  0  0  0  0
   39.9000   22.5520   35.1120 O   0  0  0  0  0  0  0  0  0  0  0  0
   37.7760   22.6270   36.2560 C   0  0  2  0  0  3  0  0  0  0  0  0
   39.1580   22.0660   36.1880 C   0  0  2  0  0  3  0  0  0  0  0  0
   39.8850   22.1990   37.3600 O   0  0  0  0  0  0  0  0  0  0  0  0
   39.8570   23.4870   37.8760 C   0  0  0  0  0  2  0  0  0  0  0  0
   38.4470   23.6570   38.4060 C   0  0  1  0  0  3  0  0  0  0  0  0
   37.5580   23.7550   37.1980 C   0  0  1  0  0  3  0  0  0  0  0  0
   36.8260   21.6370   36.5290 O   0  0  0  0  0  0  0  0  0  0  0  0
   37.1570   21.0690   37.2440 H   0  0  0  0  0  0  0  0  0  0  0  0
   38.1460   22.4680   39.1000 O   0  0  0  0  0  0  0  0  0  0  0  0
   37.3420   22.5790   39.6650 H   0  0  0  0  0  0  0  0  0  0  0  0
   37.8210   24.9900   36.5740 O   0  0  0  0  0  0  0  0  0  0  0  0
   36.9670   25.2730   36.1370 H   0  0  0  0  0  0  0  0  0  0  0  0
  1  6  1  6  0  0  0
  1 11  1  0  0  0  0
  1  5  1  0  0  0  0
  2  7  1  6  0  0  0
  2 13  1  0  0  0  0
  2  1  1  0  0  0  0
  3  2  1  0  0  0  0
  3  4  1  0  0  0  0
  4  9  1  0  0  0  0
  4  8  1  0  0  0  0
  4  5  1  0  0  0  0
  5 10  1  1  0  0  0
  5 23  1  0  0  0  0
 11 12  1  0  0  0  0
 13 18  1  0  0  0  0
 14 20  1  0  0  0  0
 15 21  1  0  0  0  0
 15 14  2  0  0  0  0
 16 15  1  0  0  0  0
 17 16  2  0  0  0  0
 17 18  1  0  0  0  0
 18 19  2  0  0  0  0
 19 14  1  0  0  0  0
 22 16  1  0  0  0  0
 24 30  1  1  0  0  0
 24 29  1  0  0  0  0
 25 23  1  6  0  0  0
 25 24  1  0  0  0  0
 25 26  1  0  0  0  0
 26 27  1  0  0  0  0
 27 28  1  0  0  0  0
 28 32  1  1  0  0  0
 29 34  1  6  0  0  0
 29 28  1  0  0  0  0
 30 31  1  0  0  0  0
 32 33  1  0  0  0  0
 35 34  1  0  0  0  0
M  END
>  <minimizedAffinity>
-5.26463985

$$$$

 OpenBabel03272506453D

 35 37  0  0  1  0  0  0  0  0999 V2000
   35.6420   24.8060   31.4930 C   0  0  2  0  0  0  0  0  0  0  0  0
   36.5490   25.7530   32.2600 C   0  0  1  0  0  0  0  0  0  0  0  0
   37.5030   24.9980   32.8880 O   0  0  0  0  0  0  0  0  0  0  0  0
   37.4500   23.6940   32.4220 C   0  0  0  0  0  0  0  0  0  0  0  0
   36.6490   23.7490   31.1140 C   0  0  1  0  0  0  0  0  0  0  0  0
   34.8820   24.4280   32.2020 H   0  0  0  0  0  0  0  0  0  0  0  0
   35.9020   26.3420   32.9240 H   0  0  0  0  0  0  0  0  0  0  0  0
   38.5020   23.3790   32.2380 H   0  0  0  0  0  0  0  0  0  0  0  0
   36.8970   23.0180   33.0930 H   0  0  0  0  0  0  0  0  0  0  0  0
   37.2900   24.1440   30.3290 H   0  0  0  0  0  0  0  0  0  0  0  0
   35.0800   25.4340   30.3930 O   0  0  0  0  0  0  0  0  0  0  0  0
   34.8070   24.8050   29.6920 H   0  0  0  0  0  0  0  0  0  0  0  0
   37.3680   26.7940   31.0120 S   0  0  0  0  0  0  0  0  0  0  0  0
   35.8210   30.1050   32.5500 C   0  0  0  0  0  0  0  0  0  0  0  0
   35.9010   31.0550   31.5310 C   0  0  0  0  0  0  0  0  0  0  0  0
   36.4660   30.6460   30.3070 C   0  0  0  0  0  0  0  0  0  0  0  0
   36.8940   29.3680   30.1820 N   0  0  0  0  0  0  0  0  0  0  0  0
   36.7980   28.4780   31.1900 C   0  0  0  0  0  0  0  0  0  0  0  0
   36.2680   28.8310   32.3680 N   0  0  0  0  0  0  0  0  0  0  0  0
   35.4040   30.3150   33.5300 H   0  0  0  0  0  0  0  0  0  0  0  0
   35.5400   32.0460   31.7090 H   0  0  0  0  0  0  0  0  0  0  0  0
   36.5330   31.3750   29.5110 H   0  0  0  0  0  0  0  0  0  0  0  0
   36.0690   22.5180   30.8710 O   0  0  0  0  0  0  0  0  0  0  0  0
   37.1280   20.4940   31.6510 C   0  0  2  0  0  3  0  0  0  0  0  0
   36.3040   21.6980   31.9740 C   0  0  2  0  0  3  0  0  0  0  0  0
   35.1090   21.4130   32.6140 O   0  0  0  0  0  0  0  0  0  0  0  0
   34.3760   20.4190   31.9840 C   0  0  0  0  0  2  0  0  0  0  0  0
   35.1450   19.1420   32.2610 C   0  0  1  0  0  3  0  0  0  0  0  0
   36.3950   19.2220   31.4290 C   0  0  1  0  0  3  0  0  0  0  0  0
   38.1170   20.2690   32.6150 O   0  0  0  0  0  0  0  0  0  0  0  0
   37.7280   20.3690   33.4980 H   0  0  0  0  0  0  0  0  0  0  0  0
   35.4990   19.1890   33.6240 O   0  0  0  0  0  0  0  0  0  0  0  0
   35.8020   18.3030   33.9430 H   0  0  0  0  0  0  0  0  0  0  0  0
   36.0180   19.0880   30.0790 O   0  0  0  0  0  0  0  0  0  0  0  0
   36.7890   18.6510   29.6130 H   0  0  0  0  0  0  0  0  0  0  0  0
  1  6  1  1  0  0  0
  1  2  1  0  0  0  0
  2  3  1  0  0  0  0
  2  7  1  1  0  0  0
  4  3  1  0  0  0  0
  4  9  1  0  0  0  0
  5 10  1  6  0  0  0
  5  1  1  0  0  0  0
  5  4  1  0  0  0  0
  8  4  1  0  0  0  0
 11  1  1  0  0  0  0
 12 11  1  0  0  0  0
 13 18  1  0  0  0  0
 13  2  1  0  0  0  0
 14 20  1  0  0  0  0
 15 21  1  0  0  0  0
 15 14  2  0  0  0  0
 16 15  1  0  0  0  0
 17 16  2  0  0  0  0
 17 18  1  0  0  0  0
 18 19  2  0  0  0  0
 19 14  1  0  0  0  0
 22 16  1  0  0  0  0
 23  5  1  0  0  0  0
 24 25  1  0  0  0  0
 24 30  1  1  0  0  0
 25 23  1  6  0  0  0
 25 26  1  0  0  0  0
 27 28  1  0  0  0  0
 27 26  1  0  0  0  0
 28 32  1  1  0  0  0
 29 34  1  6  0  0  0
 29 24  1  0  0  0  0
 29 28  1  0  0  0  0
 30 31  1  0  0  0  0
 32 33  1  0  0  0  0
 35 34  1  0  0  0  0
M  END
>  <minimizedAffinity>
-5.12362528

$$$$

 OpenBabel03272506453D

 35 37  0  0  1  0  0  0  0  0999 V2000
   39.3640   24.3600   33.4700 C   0  0  2  0  0  0  0  0  0  0  0  0
   38.6710   24.1910   32.1290 C   0  0  1  0  0  0  0  0  0  0  0  0
   38.7020   22.8600   31.8090 O   0  0  0  0  0  0  0  0  0  0  0  0
   39.1310   22.1250   32.9030 C   0  0  0  0  0  0  0  0  0  0  0  0
   38.9770   23.0520   34.1160 C   0  0  1  0  0  0  0  0  0  0  0  0
   40.4510   24.4270   33.2760 H   0  0  0  0  0  0  0  0  0  0  0  0
   39.1840   24.8580   31.4220 H   0  0  0  0  0  0  0  0  0  0  0  0
   38.4530   21.2450   32.9790 H   0  0  0  0  0  0  0  0  0  0  0  0
   40.1970   21.8580   32.8520 H   0  0  0  0  0  0  0  0  0  0  0  0
   37.9260   23.0970   34.3910 H   0  0  0  0  0  0  0  0  0  0  0  0
   38.8740   25.4620   34.1500 O   0  0  0  0  0  0  0  0  0  0  0  0
   39.0040   25.4020   35.1200 H   0  0  0  0  0  0  0  0  0  0  0  0
   36.9380   24.6810   32.3880 S   0  0  0  0  0  0  0  0  0  0  0  0
   36.4500   28.6000   32.7510 C   0  0  0  0  0  0  0  0  0  0  0  0
   36.4650   29.0930   31.4450 C   0  0  0  0  0  0  0  0  0  0  0  0
   36.6370   28.1620   30.4030 C   0  0  0  0  0  0  0  0  0  0  0  0
   36.7750   26.8530   30.7150 N   0  0  0  0  0  0  0  0  0  0  0  0
   36.7540   26.4130   31.9890 C   0  0  0  0  0  0  0  0  0  0  0  0
   36.5930   27.2700   33.0070 N   0  0  0  0  0  0  0  0  0  0  0  0
   36.3230   29.2300   33.6250 H   0  0  0  0  0  0  0  0  0  0  0  0
   36.3490   30.1440   31.2810 H   0  0  0  0  0  0  0  0  0  0  0  0
   36.6500   28.5350   29.3870 H   0  0  0  0  0  0  0  0  0  0  0  0
   39.8550   22.6650   35.1110 O   0  0  0  0  0  0  0  0  0  0  0  0
   37.8080   22.8580   36.3760 C   0  0  2  0  0  3  0  0  0  0  0  0
   39.1130   22.1580   36.1770 C   0  0  2  0  0  3  0  0  0  0  0  0
   39.9030   22.0950   37.3130 O   0  0  0  0  0  0  0  0  0  0  0  0
   40.0460   23.3200   37.9470 C   0  0  0  0  0  2  0  0  0  0  0  0
   38.6900   23.5900   38.5700 C   0  0  1  0  0  3  0  0  0  0  0  0
   37.7640   23.9030   37.4290 C   0  0  1  0  0  3  0  0  0  0  0  0
   36.7650   21.9550   36.6080 O   0  0  0  0  0  0  0  0  0  0  0  0
   37.0610   21.2860   37.2470 H   0  0  0  0  0  0  0  0  0  0  0  0
   38.2870   22.3770   39.1660 O   0  0  0  0  0  0  0  0  0  0  0  0
   37.5280   22.5190   39.7840 H   0  0  0  0  0  0  0  0  0  0  0  0
   38.1370   25.1580   36.9090 O   0  0  0  0  0  0  0  0  0  0  0  0
   37.3010   25.5740   36.5490 H   0  0  0  0  0  0  0  0  0  0  0  0
  1  6  1  6  0  0  0
  1  5  1  0  0  0  0
  1 11  1  0  0  0  0
  2  7  1  6  0  0  0
  2 13  1  0  0  0  0
  2  1  1  0  0  0  0
  3  2  1  0  0  0  0
  3  4  1  0  0  0  0
  4  8  1  0  0  0  0
  4  5  1  0  0  0  0
  5 10  1  1  0  0  0
  5 23  1  0  0  0  0
  9  4  1  0  0  0  0
 11 12  1  0  0  0  0
 14 19  1  0  0  0  0
 14 20  1  0  0  0  0
 15 14  2  0  0  0  0
 16 17  2  0  0  0  0
 16 15  1  0  0  0  0
 17 18  1  0  0  0  0
 18 13  1  0  0  0  0
 18 19  2  0  0  0  0
 21 15  1  0  0  0  0
 22 16  1  0  0  0  0
 24 30  1  1  0  0  0
 24 29  1  0  0  0  0
 25 23  1  6  0  0  0
 25 24  1  0  0  0  0
 25 26  1  0  0  0  0
 26 27  1  0  0  0  0
 27 28  1  0  0  0  0
 28 32  1  6  0  0  0
 29 34  1  6  0  0  0
 29 28  1  0  0  0  0
 30 31  1  0  0  0  0
 32 33  1  0  0  0  0
 35 34  1  0  0  0  0
M  END
>  <minimizedAffinity>
-5.10823631

$$$$

 OpenBabel03272506453D

 35 37  0  0  1  0  0  0  0  0999 V2000
   37.3020   24.4190   30.8480 C   0  0  2  0  0  0  0  0  0  0  0  0
   37.0320   25.9020   31.0340 C   0  0  1  0  0  0  0  0  0  0  0  0
   35.6760   26.0880   30.9890 O   0  0  0  0  0  0  0  0  0  0  0  0
   35.0340   24.8600   31.0280 C   0  0  0  0  0  0  0  0  0  0  0  0
   36.0800   23.8560   31.5310 C   0  0  1  0  0  0  0  0  0  0  0  0
   37.3060   24.2160   29.7610 H   0  0  0  0  0  0  0  0  0  0  0  0
   37.6050   26.4280   30.2580 H   0  0  0  0  0  0  0  0  0  0  0  0
   34.1940   24.9640   31.7510 H   0  0  0  0  0  0  0  0  0  0  0  0
   34.7200   24.5050   30.0340 H   0  0  0  0  0  0  0  0  0  0  0  0
   36.1940   23.9800   32.6060 H   0  0  0  0  0  0  0  0  0  0  0  0
   38.4840   24.0450   31.4650 O   0  0  0  0  0  0  0  0  0  0  0  0
   38.5130   23.0910   31.6900 H   0  0  0  0  0  0  0  0  0  0  0  0
   37.6150   26.3180   32.7070 S   0  0  0  0  0  0  0  0  0  0  0  0
   41.1460   27.4300   31.2860 C   0  0  0  0  0  0  0  0  0  0  0  0
   41.9430   27.6450   32.4110 C   0  0  0  0  0  0  0  0  0  0  0  0
   41.3520   27.4350   33.6730 C   0  0  0  0  0  0  0  0  0  0  0  0
   40.0600   27.0390   33.7290 N   0  0  0  0  0  0  0  0  0  0  0  0
   39.3210   26.8410   32.6190 C   0  0  0  0  0  0  0  0  0  0  0  0
   39.8490   27.0300   31.4020 N   0  0  0  0  0  0  0  0  0  0  0  0
   41.5010   27.5610   30.2690 H   0  0  0  0  0  0  0  0  0  0  0  0
   42.9570   27.9580   32.2830 H   0  0  0  0  0  0  0  0  0  0  0  0
   41.9620   27.6000   34.5510 H   0  0  0  0  0  0  0  0  0  0  0  0
   35.7560   22.5870   31.0910 O   0  0  0  0  0  0  0  0  0  0  0  0
   37.0040   20.6050   31.6750 C   0  0  2  0  0  3  0  0  0  0  0  0
   36.0600   21.6800   32.1060 C   0  0  2  0  0  3  0  0  0  0  0  0
   34.8930   21.2130   32.6860 O   0  0  0  0  0  0  0  0  0  0  0  0
   34.2700   20.2240   31.9390 C   0  0  0  0  0  2  0  0  0  0  0  0
   35.1610   19.0070   32.0960 C   0  0  1  0  0  3  0  0  0  0  0  0
   36.4050   19.2990   31.3040 C   0  0  1  0  0  3  0  0  0  0  0  0
   38.0010   20.3760   32.6310 O   0  0  0  0  0  0  0  0  0  0  0  0
   37.5940   20.3430   33.5110 H   0  0  0  0  0  0  0  0  0  0  0  0
   35.4940   18.9420   33.4640 O   0  0  0  0  0  0  0  0  0  0  0  0
   35.8800   18.0610   33.6950 H   0  0  0  0  0  0  0  0  0  0  0  0
   36.0580   19.2730   29.9400 O   0  0  0  0  0  0  0  0  0  0  0  0
   36.8730   18.9670   29.4470 H   0  0  0  0  0  0  0  0  0  0  0  0
  1  6  1  6  0  0  0
  1  2  1  0  0  0  0
  1 11  1  0  0  0  0
  1  5  1  0  0  0  0
  2  7  1  6  0  0  0
  2 13  1  0  0  0  0
  3  4  1  0  0  0  0
  3  2  1  0  0  0  0
  4  5  1  0  0  0  0
  4  8  1  0  0  0  0
  5 10  1  1  0  0  0
  9  4  1  0  0  0  0
 11 12  1  0  0  0  0
 14 19  2  0  0  0  0
 14 15  1  0  0  0  0
 15 16  2  0  0  0  0
 16 17  1  0  0  0  0
 16 22  1  0  0  0  0
 18 13  1  0  0  0  0
 18 17  2  0  0  0  0
 19 18  1  0  0  0  0
 20 14  1  0  0  0  0
 21 15  1  0  0  0  0
 23  5  1  0  0  0  0
 24 25  1  0  0  0  0
 24 30  1  1  0  0  0
 25 23  1  6  0  0  0
 25 26  1  0  0  0  0
 27 28  1  0  0  0  0
 27 26  1  0  0  0  0
 28 32  1  1  0  0  0
 29 34  1  6  0  0  0
 29 24  1  0  0  0  0
 29 28  1  0  0  0  0
 30 31  1  0  0  0  0
 32 33  1  0  0  0  0
 35 34  1  0  0  0  0
M  END
>  <minimizedAffinity>
-4.90254641

$$$$

 OpenBabel03272506453D

 35 37  0  0  1  0  0  0  0  0999 V2000
   34.9890   29.7900   31.9780 C   0  0  2  0  0  0  0  0  0  0  0  0
   36.0850   29.3340   31.0310 C   0  0  1  0  0  0  0  0  0  0  0  0
   36.8430   30.4280   30.7110 O   0  0  0  0  0  0  0  0  0  0  0  0
   36.4970   31.4920   31.5290 C   0  0  0  0  0  0  0  0  0  0  0  0
   35.7320   30.8790   32.7100 C   0  0  1  0  0  0  0  0  0  0  0  0
   34.1620   30.1870   31.3610 H   0  0  0  0  0  0  0  0  0  0  0  0
   35.5870   28.8420   30.1840 H   0  0  0  0  0  0  0  0  0  0  0  0
   37.4500   31.9580   31.8640 H   0  0  0  0  0  0  0  0  0  0  0  0
   35.8040   32.2000   31.0480 H   0  0  0  0  0  0  0  0  0  0  0  0
   36.4470   30.4190   33.3880 H   0  0  0  0  0  0  0  0  0  0  0  0
   34.5860   28.7590   32.8100 O   0  0  0  0  0  0  0  0  0  0  0  0
   34.1790   29.0770   33.6430 H   0  0  0  0  0  0  0  0  0  0  0  0
   37.1210   28.1720   31.9750 S   0  0  0  0  0  0  0  0  0  0  0  0
   36.8250   24.2190   32.0480 C   0  0  0  0  0  0  0  0  0  0  0  0
   35.6360   23.9280   31.3770 C   0  0  0  0  0  0  0  0  0  0  0  0
   34.8910   25.0150   30.8790 C   0  0  0  0  0  0  0  0  0  0  0  0
   35.3590   26.2690   31.0730 N   0  0  0  0  0  0  0  0  0  0  0  0
   36.5140   26.5110   31.7260 C   0  0  0  0  0  0  0  0  0  0  0  0
   37.2500   25.5030   32.2140 N   0  0  0  0  0  0  0  0  0  0  0  0
   37.4750   23.4580   32.4690 H   0  0  0  0  0  0  0  0  0  0  0  0
   35.3350   22.9080   31.2650 H   0  0  0  0  0  0  0  0  0  0  0  0
   33.9680   24.7990   30.3580 H   0  0  0  0  0  0  0  0  0  0  0  0
   34.8890   31.8270   33.2600 O   0  0  0  0  0  0  0  0  0  0  0  0
   33.4190   32.1130   35.1540 C   0  0  2  0  0  3  0  0  0  0  0  0
   34.6500   31.4820   34.5900 C   0  0  2  0  0  3  0  0  0  0  0  0
   35.7930   31.6940   35.3440 O   0  0  0  0  0  0  0  0  0  0  0  0
   35.9840   33.0250   35.6840 C   0  0  0  0  0  2  0  0  0  0  0  0
   34.9140   33.3120   36.7210 C   0  0  1  0  0  3  0  0  0  0  0  0
   33.6100   33.3350   35.9750 C   0  0  1  0  0  3  0  0  0  0  0  0
   32.6600   31.2000   35.8940 O   0  0  0  0  0  0  0  0  0  0  0  0
   33.2520   30.6890   36.4690 H   0  0  0  0  0  0  0  0  0  0  0  0
   34.9190   32.2110   37.6000 O   0  0  0  0  0  0  0  0  0  0  0  0
   34.4180   32.4150   38.4280 H   0  0  0  0  0  0  0  0  0  0  0  0
   33.5990   34.4900   35.1690 O   0  0  0  0  0  0  0  0  0  0  0  0
   32.6420   34.7700   35.0890 H   0  0  0  0  0  0  0  0  0  0  0  0
  1  6  1  6  0  0  0
  1  5  1  0  0  0  0
  1 11  1  0  0  0  0
  2  7  1  6  0  0  0
  2 13  1  0  0  0  0
  2  1  1  0  0  0  0
  3  2  1  0  0  0  0
  3  4  1  0  0  0  0
  4  8  1  0  0  0  0
  4  5  1  0  0  0  0
  5 23  1  0  0  0  0
  5 10  1  1  0  0  0
  9  4  1  0  0  0  0
 11 12  1  0  0  0  0
 14 19  1  0  0  0  0
 14 20  1  0  0  0  0
 15 14  2  0  0  0  0
 16 17  2  0  0  0  0
 16 15  1  0  0  0  0
 17 18  1  0  0  0  0
 18 13  1  0  0  0  0
 18 19  2  0  0  0  0
 21 15  1  0  0  0  0
 22 16  1  0  0  0  0
 24 30  1  1  0  0  0
 24 29  1  0  0  0  0
 25 23  1  6  0  0  0
 25 24  1  0  0  0  0
 25 26  1  0  0  0  0
 26 27  1  0  0  0  0
 27 28  1  0  0  0  0
 28 32  1  1  0  0  0
 29 34  1  6  0  0  0
 29 28  1  0  0  0  0
 30 31  1  0  0  0  0
 32 33  1  0  0  0  0
 35 34  1  0  0  0  0
M  END
>  <minimizedAffinity>
-4.9002924

$$$$

 OpenBabel03272506453D

 35 37  0  0  1  0  0  0  0  0999 V2000
   39.1930   27.1330   34.3640 C   0  0  2  0  0  0  0  0  0  0  0  0
   39.2650   25.9730   35.3420 C   0  0  1  0  0  0  0  0  0  0  0  0
   37.9860   25.6660   35.7200 O   0  0  0  0  0  0  0  0  0  0  0  0
   37.0840   26.3460   34.9160 C   0  0  0  0  0  0  0  0  0  0  0  0
   37.8830   26.8080   33.6900 C   0  0  1  0  0  0  0  0  0  0  0  0
   39.1400   28.0650   34.9570 H   0  0  0  0  0  0  0  0  0  0  0  0
   39.9340   26.2870   36.1560 H   0  0  0  0  0  0  0  0  0  0  0  0
   36.2970   25.6130   34.6310 H   0  0  0  0  0  0  0  0  0  0  0  0
   36.6890   27.2590   35.3870 H   0  0  0  0  0  0  0  0  0  0  0  0
   38.0330   25.9570   33.0290 H   0  0  0  0  0  0  0  0  0  0  0  0
   40.2680   27.1170   33.4900 O   0  0  0  0  0  0  0  0  0  0  0  0
   40.0840   27.5870   32.6490 H   0  0  0  0  0  0  0  0  0  0  0  0
   39.9450   24.5650   34.4100 S   0  0  0  0  0  0  0  0  0  0  0  0
   40.4500   22.3080   37.6310 C   0  0  0  0  0  0  0  0  0  0  0  0
   41.5940   21.5510   37.3720 C   0  0  0  0  0  0  0  0  0  0  0  0
   42.2370   21.7520   36.1360 C   0  0  0  0  0  0  0  0  0  0  0  0
   41.7220   22.6580   35.2730 N   0  0  0  0  0  0  0  0  0  0  0  0
   40.6150   23.3720   35.5590 C   0  0  0  0  0  0  0  0  0  0  0  0
   39.9760   23.2080   36.7250 N   0  0  0  0  0  0  0  0  0  0  0  0
   39.8800   22.2320   38.5510 H   0  0  0  0  0  0  0  0  0  0  0  0
   41.9380   20.8550   38.1070 H   0  0  0  0  0  0  0  0  0  0  0  0
   43.1240   21.1700   35.9260 H   0  0  0  0  0  0  0  0  0  0  0  0
   37.2780   27.9180   33.1310 O   0  0  0  0  0  0  0  0  0  0  0  0
   37.7490   26.6910   31.1060 C   0  0  2  0  0  3  0  0  0  0  0  0
   36.8090   27.5700   31.8640 C   0  0  2  0  0  3  0  0  0  0  0  0
   36.4180   28.7080   31.1780 O   0  0  0  0  0  0  0  0  0  0  0  0
   37.4820   29.4100   30.6320 C   0  0  0  0  0  2  0  0  0  0  0  0
   37.9600   28.5470   29.4810 C   0  0  1  0  0  3  0  0  0  0  0  0
   38.6250   27.3530   30.1070 C   0  0  1  0  0  3  0  0  0  0  0  0
   37.0790   25.6370   30.4750 O   0  0  0  0  0  0  0  0  0  0  0  0
   36.2810   25.9830   30.0430 H   0  0  0  0  0  0  0  0  0  0  0  0
   36.7990   28.1220   28.8050 O   0  0  0  0  0  0  0  0  0  0  0  0
   37.0220   27.7460   27.9170 H   0  0  0  0  0  0  0  0  0  0  0  0
   39.8230   27.7940   30.7010 O   0  0  0  0  0  0  0  0  0  0  0  0
   40.4610   27.0240   30.6560 H   0  0  0  0  0  0  0  0  0  0  0  0
  1  6  1  1  0  0  0
  1  2  1  0  0  0  0
  2  3  1  0  0  0  0
  2  7  1  1  0  0  0
  4  9  1  0  0  0  0
  4  3  1  0  0  0  0
  5 10  1  6  0  0  0
  5  1  1  0  0  0  0
  5  4  1  0  0  0  0
  8  4  1  0  0  0  0
 11  1  1  0  0  0  0
 12 11  1  0  0  0  0
 13  2  1  0  0  0  0
 13 18  1  0  0  0  0
 14 20  1  0  0  0  0
 15 14  1  0  0  0  0
 15 21  1  0  0  0  0
 16 15  2  0  0  0  0
 17 18  2  0  0  0  0
 17 16  1  0  0  0  0
 18 19  1  0  0  0  0
 19 14  2  0  0  0  0
 22 16  1  0  0  0  0
 23  5  1  0  0  0  0
 24 30  1  6  0  0  0
 24 25  1  0  0  0  0
 25 23  1  1  0  0  0
 26 25  1  0  0  0  0
 27 26  1  0  0  0  0
 28 32  1  1  0  0  0
 28 29  1  0  0  0  0
 28 27  1  0  0  0  0
 29 34  1  1  0  0  0
 29 24  1  0  0  0  0
 31 30  1  0  0  0  0
 33 32  1  0  0  0  0
 35 34  1  0  0  0  0
M  END
>  <minimizedAffinity>
-4.88366699

$$$$

 OpenBabel03272506453D

 35 37  0  0  1  0  0  0  0  0999 V2000
   40.0600   25.6690   32.4490 C   0  0  2  0  0  0  0  0  0  0  0  0
   40.7290   24.9840   33.6280 C   0  0  1  0  0  0  0  0  0  0  0  0
   40.6350   25.8230   34.7060 O   0  0  0  0  0  0  0  0  0  0  0  0
   39.7770   26.8710   34.4110 C   0  0  0  0  0  0  0  0  0  0  0  0
   38.9760   26.4210   33.1810 C   0  0  1  0  0  0  0  0  0  0  0  0
   40.8050   26.3460   31.9920 H   0  0  0  0  0  0  0  0  0  0  0  0
   41.7520   24.7360   33.3110 H   0  0  0  0  0  0  0  0  0  0  0  0
   39.1160   27.0000   35.2970 H   0  0  0  0  0  0  0  0  0  0  0  0
   40.3040   27.7910   34.1140 H   0  0  0  0  0  0  0  0  0  0  0  0
   38.2150   25.7130   33.5000 H   0  0  0  0  0  0  0  0  0  0  0  0
   39.5600   24.7420   31.5510 O   0  0  0  0  0  0  0  0  0  0  0  0
   38.8300   25.0970   31.0000 H   0  0  0  0  0  0  0  0  0  0  0  0
   39.7450   23.4920   33.9730 S   0  0  0  0  0  0  0  0  0  0  0  0
   37.8640   23.9320   37.4360 C   0  0  0  0  0  0  0  0  0  0  0  0
   38.7160   23.3740   38.3900 C   0  0  0  0  0  0  0  0  0  0  0  0
   39.9340   22.8330   37.9320 C   0  0  0  0  0  0  0  0  0  0  0  0
   40.2130   22.8830   36.6100 N   0  0  0  0  0  0  0  0  0  0  0  0
   39.3640   23.4320   35.7180 C   0  0  0  0  0  0  0  0  0  0  0  0
   38.1970   23.9560   36.1150 N   0  0  0  0  0  0  0  0  0  0  0  0
   36.9040   24.3760   37.6800 H   0  0  0  0  0  0  0  0  0  0  0  0
   38.4220   23.3730   39.4180 H   0  0  0  0  0  0  0  0  0  0  0  0
   40.6000   22.3980   38.6640 H   0  0  0  0  0  0  0  0  0  0  0  0
   38.5290   27.5290   32.4860 O   0  0  0  0  0  0  0  0  0  0  0  0
   36.7860   27.9820   30.8790 C   0  0  2  0  0  3  0  0  0  0  0  0
   37.1870   27.3320   32.1630 C   0  0  2  0  0  3  0  0  0  0  0  0
   36.3880   27.6670   33.2440 O   0  0  0  0  0  0  0  0  0  0  0  0
   36.1930   29.0340   33.3760 C   0  0  0  0  0  2  0  0  0  0  0  0
   35.2720   29.4020   32.2290 C   0  0  1  0  0  3  0  0  0  0  0  0
   36.1020   29.2960   30.9800 C   0  0  1  0  0  3  0  0  0  0  0  0
   35.9960   27.1340   30.0940 O   0  0  0  0  0  0  0  0  0  0  0  0
   35.3270   26.7130   30.6560 H   0  0  0  0  0  0  0  0  0  0  0  0
   34.2720   28.4110   32.1990 O   0  0  0  0  0  0  0  0  0  0  0  0
   33.5090   28.6910   31.6360 H   0  0  0  0  0  0  0  0  0  0  0  0
   37.0360   30.3500   30.9970 O   0  0  0  0  0  0  0  0  0  0  0  0
   37.2130   30.5850   30.0410 H   0  0  0  0  0  0  0  0  0  0  0  0
  1  6  1  6  0  0  0
  1  5  1  0  0  0  0
  1  2  1  0  0  0  0
  2  7  1  6  0  0  0
  2 13  1  0  0  0  0
  2  3  1  0  0  0  0
  4  3  1  0  0  0  0
  4  8  1  0  0  0  0
  5 10  1  1  0  0  0
  5  4  1  0  0  0  0
  9  4  1  0  0  0  0
 11  1  1  0  0  0  0
 12 11  1  0  0  0  0
 13 18  1  0  0  0  0
 14 20  1  0  0  0  0
 14 15  1  0  0  0  0
 15 21  1  0  0  0  0
 16 15  2  0  0  0  0
 16 22  1  0  0  0  0
 17 16  1  0  0  0  0
 18 19  1  0  0  0  0
 18 17  2  0  0  0  0
 19 14  2  0  0  0  0
 23  5  1  0  0  0  0
 24 30  1  1  0  0  0
 24 29  1  0  0  0  0
 24 25  1  0  0  0  0
 25 23  1  1  0  0  0
 25 26  1  0  0  0  0
 26 27  1  0  0  0  0
 28 32  1  6  0  0  0
 28 27  1  0  0  0  0
 29 34  1  1  0  0  0
 29 28  1  0  0  0  0
 30 31  1  0  0  0  0
 33 32  1  0  0  0  0
 35 34  1  0  0  0  0
M  END
>  <minimizedAffinity>
-4.86927414

$$$$

 OpenBabel03272506453D

 35 37  0  0  1  0  0  0  0  0999 V2000
   37.4120   26.0100   33.2760 C   0  0  2  0  0  0  0  0  0  0  0  0
   38.3090   26.8140   32.3510 C   0  0  1  0  0  0  0  0  0  0  0  0
   39.3630   27.2780   33.0910 O   0  0  0  0  0  0  0  0  0  0  0  0
   39.3650   26.6680   34.3360 C   0  0  0  0  0  0  0  0  0  0  0  0
   38.4580   25.4380   34.2000 C   0  0  1  0  0  0  0  0  0  0  0  0
   36.7420   26.7240   33.7920 H   0  0  0  0  0  0  0  0  0  0  0  0
   37.6780   27.5890   31.8930 H   0  0  0  0  0  0  0  0  0  0  0  0
   40.4180   26.3720   34.5420 H   0  0  0  0  0  0  0  0  0  0  0  0
   38.9200   27.2930   35.1240 H   0  0  0  0  0  0  0  0  0  0  0  0
   39.0020   24.6590   33.6710 H   0  0  0  0  0  0  0  0  0  0  0  0
   36.7180   25.0360   32.5780 O   0  0  0  0  0  0  0  0  0  0  0  0
   36.4340   24.2880   33.1450 H   0  0  0  0  0  0  0  0  0  0  0  0
   38.9450   25.6400   31.1150 S   0  0  0  0  0  0  0  0  0  0  0  0
   38.8940   28.4180   28.2860 C   0  0  0  0  0  0  0  0  0  0  0  0
   39.6720   27.9000   27.2490 C   0  0  0  0  0  0  0  0  0  0  0  0
   40.2400   26.6250   27.4410 C   0  0  0  0  0  0  0  0  0  0  0  0
   40.0050   25.9760   28.6040 N   0  0  0  0  0  0  0  0  0  0  0  0
   39.2470   26.5090   29.5830 C   0  0  0  0  0  0  0  0  0  0  0  0
   38.6900   27.7190   29.4370 N   0  0  0  0  0  0  0  0  0  0  0  0
   38.4100   29.3890   28.2420 H   0  0  0  0  0  0  0  0  0  0  0  0
   39.8100   28.4770   26.3600 H   0  0  0  0  0  0  0  0  0  0  0  0
   40.8440   26.2160   26.6430 H   0  0  0  0  0  0  0  0  0  0  0  0
   37.9500   25.0960   35.4400 O   0  0  0  0  0  0  0  0  0  0  0  0
   37.5660   23.2180   36.9070 C   0  0  2  0  0  3  0  0  0  0  0  0
   38.1820   23.7370   35.6480 C   0  0  2  0  0  3  0  0  0  0  0  0
   39.5340   23.4640   35.5230 O   0  0  0  0  0  0  0  0  0  0  0  0
   40.2660   23.8000   36.6520 C   0  0  0  0  0  2  0  0  0  0  0  0
   39.8720   22.7630   37.6860 C   0  0  1  0  0  3  0  0  0  0  0  0
   38.4600   23.0910   38.0850 C   0  0  1  0  0  3  0  0  0  0  0  0
   36.9280   21.9890   36.7040 O   0  0  0  0  0  0  0  0  0  0  0  0
   37.5040   21.4170   36.1720 H   0  0  0  0  0  0  0  0  0  0  0  0
   39.8810   21.5230   37.0170 O   0  0  0  0  0  0  0  0  0  0  0  0
   39.8590   20.7710   37.6590 H   0  0  0  0  0  0  0  0  0  0  0  0
   38.4930   24.2890   38.8240 O   0  0  0  0  0  0  0  0  0  0  0  0
   37.7340   24.2410   39.4740 H   0  0  0  0  0  0  0  0  0  0  0  0
  1  6  1  1  0  0  0
  1  5  1  0  0  0  0
  2  7  1  6  0  0  0
  2  3  1  0  0  0  0
  2  1  1  0  0  0  0
  3  4  1  0  0  0  0
  4  8  1  0  0  0  0
  4  9  1  0  0  0  0
  5 10  1  6  0  0  0
  5  4  1  0  0  0  0
  5 23  1  0  0  0  0
 11 12  1  0  0  0  0
 11  1  1  0  0  0  0
 13  2  1  0  0  0  0
 14 19  1  0  0  0  0
 15 16  1  0  0  0  0
 15 14  2  0  0  0  0
 16 17  2  0  0  0  0
 17 18  1  0  0  0  0
 18 13  1  0  0  0  0
 19 18  2  0  0  0  0
 20 14  1  0  0  0  0
 21 15  1  0  0  0  0
 22 16  1  0  0  0  0
 24 30  1  6  0  0  0
 24 29  1  0  0  0  0
 25 23  1  1  0  0  0
 25 24  1  0  0  0  0
 26 25  1  0  0  0  0
 26 27  1  0  0  0  0
 27 28  1  0  0  0  0
 28 32  1  6  0  0  0
 28 29  1  0  0  0  0
 29 34  1  6  0  0  0
 31 30  1  0  0  0  0
 32 33  1  0  0  0  0
 34 35  1  0  0  0  0
M  END
>  <minimizedAffinity>
-4.78522491

$$$$
