
 OpenBabel03272509583D

 49 52  0  0  1  0  0  0  0  0999 V2000
   33.5250   27.4390   47.7180 C   0  0  0  0  0  0  0  0  0  0  0  0
   33.7700   27.1970   46.6480 H   0  0  0  0  0  0  0  0  0  0  0  0
   33.6540   26.4860   48.2640 H   0  0  0  0  0  0  0  0  0  0  0  0
   32.1030   27.8680   47.7040 C   0  0  0  0  0  0  0  0  0  0  0  0
   31.2690   27.4060   48.7170 C   0  0  0  0  0  0  0  0  0  0  0  0
   29.9490   27.7530   48.7780 C   0  0  0  0  0  0  0  0  0  0  0  0
   29.4460   28.5540   47.8440 N   0  0  0  0  0  0  0  0  0  0  0  0
   30.2650   29.0070   46.8500 C   0  0  0  0  0  0  0  0  0  0  0  0
   31.5650   28.6840   46.7640 N   0  0  0  0  0  0  0  0  0  0  0  0
   31.6350   26.7490   49.5040 H   0  0  0  0  0  0  0  0  0  0  0  0
   29.3120   27.3820   49.5770 H   0  0  0  0  0  0  0  0  0  0  0  0
   29.6540   29.8980   45.8330 C   0  0  0  0  0  0  0  0  0  0  0  0
   29.2200   30.7950   46.3020 H   0  0  0  0  0  0  0  0  0  0  0  0
   30.3670   30.2640   45.0700 H   0  0  0  0  0  0  0  0  0  0  0  0
   28.9800   28.0790   44.2550 C   0  0  2  0  0  3  0  0  0  0  0  0
   28.4960   29.1510   45.2080 C   0  0  1  0  0  3  0  0  0  0  0  0
   27.7110   28.5140   46.1670 O   0  0  0  0  0  0  0  0  0  0  0  0
   26.4320   28.3740   45.6340 C   0  0  0  0  0  2  0  0  0  0  0  0
   26.4600   28.0570   44.1590 C   0  0  1  0  0  3  0  0  0  0  0  0
   27.7380   27.3620   43.7480 C   0  0  1  0  0  3  0  0  0  0  0  0
   29.7830   27.1960   44.9890 O   0  0  0  0  0  0  0  0  0  0  0  0
   29.3050   26.3260   45.1040 H   0  0  0  0  0  0  0  0  0  0  0  0
   25.4120   27.1680   43.9060 O   0  0  0  0  0  0  0  0  0  0  0  0
   24.6350   27.6270   43.4590 H   0  0  0  0  0  0  0  0  0  0  0  0
   27.7770   27.4280   42.3530 O   0  0  0  0  0  0  0  0  0  0  0  0
   27.5630   26.5530   41.9490 H   0  0  0  0  0  0  0  0  0  0  0  0
   34.4570   28.5280   48.1470 C   0  0  0  0  0  0  0  0  0  0  0  0
   33.8630   29.4760   48.1870 H   0  0  0  0  0  0  0  0  0  0  0  0
   35.2720   28.7240   47.3980 H   0  0  0  0  0  0  0  0  0  0  0  0
   34.9800   28.2920   49.4410 O   0  0  0  0  0  0  0  0  0  0  0  0
   37.2880   30.1630   51.4920 C   0  0  0  0  0  0  0  0  0  0  0  0
   38.0140   30.8390   50.4790 C   0  0  0  0  0  0  0  0  0  0  0  0
   37.6610   30.6080   49.1640 C   0  0  0  0  0  0  0  0  0  0  0  0
   36.6340   29.7370   48.9530 N   0  0  0  0  0  0  0  0  0  0  0  0
   35.9560   29.1040   49.9090 C   0  0  0  0  0  0  0  0  0  0  0  0
   36.2950   29.3260   51.1980 N   0  0  0  0  0  0  0  0  0  0  0  0
   37.6150   30.3880   52.4970 H   0  0  0  0  0  0  0  0  0  0  0  0
   38.8200   31.5210   50.6680 H   0  0  0  0  0  0  0  0  0  0  0  0
   38.9720   33.1840   48.9700 F   0  0  0  0  0  0  0  0  0  0  0  0
   38.9080   32.4030   47.8980 C   0  0  0  0  0  0  0  0  0  0  0  0
   38.2950   31.2150   48.0100 C   0  0  0  0  0  0  0  0  0  0  0  0
   38.2780   30.4640   46.8240 C   0  0  0  0  0  0  0  0  0  0  0  0
   38.8420   30.9220   45.6620 C   0  0  0  0  0  0  0  0  0  0  0  0
   39.4580   32.1520   45.6040 C   0  0  0  0  0  0  0  0  0  0  0  0
   39.4810   32.8850   46.7420 C   0  0  0  0  0  0  0  0  0  0  0  0
   37.8160   29.4830   46.7730 H   0  0  0  0  0  0  0  0  0  0  0  0
   38.8170   30.3220   44.7530 H   0  0  0  0  0  0  0  0  0  0  0  0
   39.9080   32.5260   44.6930 H   0  0  0  0  0  0  0  0  0  0  0  0
   39.9620   33.8590   46.7210 H   0  0  0  0  0  0  0  0  0  0  0  0
  1 27  1  0  0  0  0
  1  3  1  0  0  0  0
  2  1  1  0  0  0  0
  4  1  1  0  0  0  0
  4  5  1  0  0  0  0
  5  6  2  0  0  0  0
  5 10  1  0  0  0  0
  6 11  1  0  0  0  0
  7  6  1  0  0  0  0
  8  7  2  0  0  0  0
  9  8  1  0  0  0  0
  9  4  2  0  0  0  0
 12 13  1  0  0  0  0
 12  8  1  0  0  0  0
 14 12  1  0  0  0  0
 15 21  1  1  0  0  0
 15 16  1  0  0  0  0
 16 12  1  1  0  0  0
 16 17  1  0  0  0  0
 18 17  1  0  0  0  0
 19 23  1  1  0  0  0
 19 18  1  0  0  0  0
 20 25  1  6  0  0  0
 20 19  1  0  0  0  0
 20 15  1  0  0  0  0
 21 22  1  0  0  0  0
 24 23  1  0  0  0  0
 26 25  1  0  0  0  0
 27 28  1  0  0  0  0
 27 30  1  0  0  0  0
 29 27  1  0  0  0  0
 30 35  1  0  0  0  0
 31 37  1  0  0  0  0
 32 38  1  0  0  0  0
 32 31  2  0  0  0  0
 33 32  1  0  0  0  0
 34 33  2  0  0  0  0
 34 35  1  0  0  0  0
 35 36  2  0  0  0  0
 36 31  1  0  0  0  0
 40 41  1  0  0  0  0
 40 39  1  0  0  0  0
 41 33  1  0  0  0  0
 42 41  2  0  0  0  0
 43 42  1  0  0  0  0
 44 43  2  0  0  0  0
 44 45  1  0  0  0  0
 45 40  2  0  0  0  0
 46 42  1  0  0  0  0
 47 43  1  0  0  0  0
 48 44  1  0  0  0  0
 49 45  1  0  0  0  0
M  END
>  <minimizedAffinity>
-6.72893715

>  <minimizedRMSD>
0.900662422

$$$$
