
 OpenBabel03262520573D

 22 23  0  0  1  0  0  0  0  0999 V2000
   39.8390   30.9310   45.6650 C   0  0  2  0  0  0  0  0  0  0  0  0
   39.2010   31.3240   46.9730 C   0  0  1  0  0  0  0  0  0  0  0  0
   39.1650   32.6830   47.1760 O   0  0  0  0  0  0  0  0  0  0  0  0
   40.2380   33.3790   46.6710 C   0  0  0  0  0  0  0  0  0  0  0  0
   40.2890   33.2890   45.1530 C   0  0  1  0  0  0  0  0  0  0  0  0
   39.6630   32.0190   44.6440 C   0  0  1  0  0  0  0  0  0  0  0  0
   39.3980   29.7170   45.1910 O   0  0  0  0  0  0  0  0  0  0  0  0
   40.0370   28.9760   45.3380 H   0  0  0  0  0  0  0  0  0  0  0  0
   39.6710   34.3930   44.5680 O   0  0  0  0  0  0  0  0  0  0  0  0
   40.2830   35.1620   44.6920 H   0  0  0  0  0  0  0  0  0  0  0  0
   40.3450   31.6580   43.4710 O   0  0  0  0  0  0  0  0  0  0  0  0
   40.9260   30.8740   43.6380 H   0  0  0  0  0  0  0  0  0  0  0  0
   37.4470   30.7800   47.0150 S   0  0  0  0  0  0  0  0  0  0  0  0
   37.4050   30.2930   51.0680 C   0  0  0  0  0  0  0  0  0  0  0  0
   37.8030   30.7310   49.8060 C   0  0  0  0  0  0  0  0  0  0  0  0
   37.0750   30.3150   48.6860 C   0  0  0  0  0  0  0  0  0  0  0  0
   35.9990   29.4930   48.9050 N   0  0  0  0  0  0  0  0  0  0  0  0
   35.6410   29.0900   50.1330 C   0  0  0  0  0  0  0  0  0  0  0  0
   36.3390   29.4860   51.2180 N   0  0  0  0  0  0  0  0  0  0  0  0
   38.0310   30.6670   51.8710 H   0  0  0  0  0  0  0  0  0  0  0  0
   38.6360   31.3670   49.6360 H   0  0  0  0  0  0  0  0  0  0  0  0
   34.8040   28.4510   50.2910 H   0  0  0  0  0  0  0  0  0  0  0  0
  1  7  1  6  0  0  0
  1  2  1  0  0  0  0
  2 13  1  6  0  0  0
  2  3  1  0  0  0  0
  4  3  1  0  0  0  0
  5  9  1  6  0  0  0
  5  4  1  0  0  0  0
  6 11  1  6  0  0  0
  6  5  1  0  0  0  0
  6  1  1  0  0  0  0
  7  8  1  0  0  0  0
  9 10  1  0  0  0  0
 11 12  1  0  0  0  0
 13 16  1  0  0  0  0
 14 19  1  0  0  0  0
 14 20  1  0  0  0  0
 15 14  2  0  0  0  0
 16 17  2  0  0  0  0
 16 15  1  0  0  0  0
 17 18  1  0  0  0  0
 18 22  1  0  0  0  0
 18 19  2  0  0  0  0
 21 15  1  0  0  0  0
M  END
>  <minimizedAffinity>
-5.04108286

>  <minimizedRMSD>
1.37028348

$$$$
