
 OpenBabel03262521363D

 40 43  0  0  1  0  0  0  0  0999 V2000
   38.7580   25.0520   33.3710 C   0  0  1  0  0  0  0  0  0  0  0  0
   37.6610   25.2490   32.4250 C   0  0  2  0  0  0  0  0  0  0  0  0
   36.9780   26.5240   32.9660 C   0  0  0  0  0  0  0  0  0  0  0  0
   37.0440   26.3270   34.3120 O   0  0  0  0  0  0  0  0  0  0  0  0
   38.2030   25.6880   34.6610 C   0  0  0  0  0  0  0  0  0  0  0  0
   39.6720   25.6170   33.1280 H   0  0  0  0  0  0  0  0  0  0  0  0
   38.0370   25.5420   31.4100 H   0  0  0  0  0  0  0  0  0  0  0  0
   35.9210   26.5540   32.6470 H   0  0  0  0  0  0  0  0  0  0  0  0
   37.5830   27.3900   32.6280 H   0  0  0  0  0  0  0  0  0  0  0  0
   38.9540   26.3670   35.0960 H   0  0  0  0  0  0  0  0  0  0  0  0
   38.0610   24.8740   35.4000 H   0  0  0  0  0  0  0  0  0  0  0  0
   36.7920   23.0590   31.2920 C   0  0  1  0  0  0  0  0  0  0  0  0
   35.8780   24.1340   31.0060 C   0  0  0  0  0  0  0  0  0  0  0  0
   36.6290   24.1440   32.3530 C   0  0  2  0  0  0  0  0  0  0  0  0
   37.8450   23.0760   30.8960 H   0  0  0  0  0  0  0  0  0  0  0  0
   36.1280   24.8800   30.2480 H   0  0  0  0  0  0  0  0  0  0  0  0
   34.7830   23.9250   31.1400 H   0  0  0  0  0  0  0  0  0  0  0  0
   36.0850   23.9210   33.2710 H   0  0  0  0  0  0  0  0  0  0  0  0
   35.8250   19.4320   31.2910 C   0  0  0  0  0  0  0  0  0  0  0  0
   36.2670   20.6790   30.8550 C   0  0  0  0  0  0  0  0  0  0  0  0
   36.3530   21.7320   31.7470 C   0  0  0  0  0  0  0  0  0  0  0  0
   35.9940   21.4760   33.0300 N   0  0  0  0  0  0  0  0  0  0  0  0
   35.5670   20.2650   33.4490 C   0  0  0  0  0  0  0  0  0  0  0  0
   35.4810   19.2290   32.5670 N   0  0  0  0  0  0  0  0  0  0  0  0
   35.7410   18.5750   30.6260 H   0  0  0  0  0  0  0  0  0  0  0  0
   36.5120   20.7260   29.8270 H   0  0  0  0  0  0  0  0  0  0  0  0
   35.2880   20.1000   34.4810 H   0  0  0  0  0  0  0  0  0  0  0  0
   39.0880   23.7160   33.6130 O   0  0  0  0  0  0  0  0  0  0  0  0
   40.4690   23.1460   35.5130 C   0  0  2  0  0  3  0  0  0  0  0  0
   39.1080   23.4370   34.9720 C   0  0  2  0  0  3  0  0  0  0  0  0
   38.2050   22.4710   35.3440 O   0  0  0  0  0  0  0  0  0  0  0  0
   37.8320   22.7020   36.6680 C   0  0  0  0  0  2  0  0  0  0  0  0
   38.9730   23.3070   37.4610 C   0  0  2  0  0  3  0  0  0  0  0  0
   40.3020   22.7850   36.9970 C   0  0  1  0  0  3  0  0  0  0  0  0
   41.3300   24.2470   35.4040 O   0  0  0  0  0  0  0  0  0  0  0  0
   42.2500   23.9190   35.4520 H   0  0  0  0  0  0  0  0  0  0  0  0
   38.7970   22.9280   38.7910 O   0  0  0  0  0  0  0  0  0  0  0  0
   37.8820   22.9790   39.1130 H   0  0  0  0  0  0  0  0  0  0  0  0
   40.3350   21.4090   37.1900 O   0  0  0  0  0  0  0  0  0  0  0  0
   39.9370   20.9250   36.4220 H   0  0  0  0  0  0  0  0  0  0  0  0
  1  6  1  6  0  0  0
  1 28  1  0  0  0  0
  1  5  1  0  0  0  0
  2  7  1  6  0  0  0
  2  3  1  0  0  0  0
  2  1  1  0  0  0  0
  3  4  1  0  0  0  0
  4  5  1  0  0  0  0
  5 10  1  0  0  0  0
  5 11  1  0  0  0  0
  8  3  1  0  0  0  0
  9  3  1  0  0  0  0
 12 15  1  6  0  0  0
 12 21  1  0  0  0  0
 12 14  1  0  0  0  0
 13 17  1  0  0  0  0
 13 12  1  0  0  0  0
 13 14  1  0  0  0  0
 14  2  1  0  0  0  0
 14 18  1  1  0  0  0
 16 13  1  0  0  0  0
 19 24  1  0  0  0  0
 20 19  2  0  0  0  0
 20 21  1  0  0  0  0
 21 22  2  0  0  0  0
 22 23  1  0  0  0  0
 23 27  1  0  0  0  0
 24 23  2  0  0  0  0
 25 19  1  0  0  0  0
 26 20  1  0  0  0  0
 29 35  1  1  0  0  0
 29 34  1  0  0  0  0
 30 28  1  6  0  0  0
 30 31  1  0  0  0  0
 30 29  1  0  0  0  0
 31 32  1  0  0  0  0
 32 33  1  0  0  0  0
 33 37  1  1  0  0  0
 34 39  1  6  0  0  0
 34 33  1  0  0  0  0
 35 36  1  0  0  0  0
 37 38  1  0  0  0  0
 40 39  1  0  0  0  0
M  END
>  <minimizedAffinity>
-5.9671545

$$$$

 OpenBabel03262521363D

 40 43  0  0  1  0  0  0  0  0999 V2000
   37.2350   22.2520   33.0140 C   0  0  1  0  0  0  0  0  0  0  0  0
   36.1820   22.6260   32.0720 C   0  0  2  0  0  0  0  0  0  0  0  0
   36.1180   21.3990   31.1370 C   0  0  0  0  0  0  0  0  0  0  0  0
   37.4350   21.0780   31.0060 O   0  0  0  0  0  0  0  0  0  0  0  0
   38.1180   21.3110   32.1690 C   0  0  0  0  0  0  0  0  0  0  0  0
   36.8870   21.6480   33.8680 H   0  0  0  0  0  0  0  0  0  0  0  0
   35.1750   22.6540   32.5670 H   0  0  0  0  0  0  0  0  0  0  0  0
   35.7070   21.6910   30.1550 H   0  0  0  0  0  0  0  0  0  0  0  0
   35.5340   20.6150   31.6620 H   0  0  0  0  0  0  0  0  0  0  0  0
   38.3300   20.3900   32.7340 H   0  0  0  0  0  0  0  0  0  0  0  0
   39.0950   21.8140   32.0220 H   0  0  0  0  0  0  0  0  0  0  0  0
   36.1950   25.2320   31.8540 C   0  0  1  0  0  0  0  0  0  0  0  0
   35.1580   24.6920   31.0140 C   0  0  0  0  0  0  0  0  0  0  0  0
   36.4370   23.8590   31.2330 C   0  0  2  0  0  0  0  0  0  0  0  0
   36.1400   25.1320   32.9740 H   0  0  0  0  0  0  0  0  0  0  0  0
   34.2160   24.3530   31.4520 H   0  0  0  0  0  0  0  0  0  0  0  0
   35.0910   25.0860   29.9650 H   0  0  0  0  0  0  0  0  0  0  0  0
   37.1560   23.7570   30.4190 H   0  0  0  0  0  0  0  0  0  0  0  0
   37.6090   28.4330   30.4980 C   0  0  0  0  0  0  0  0  0  0  0  0
   36.6990   27.4810   30.9530 C   0  0  0  0  0  0  0  0  0  0  0  0
   37.1480   26.2520   31.3980 C   0  0  0  0  0  0  0  0  0  0  0  0
   38.4880   26.0450   31.3660 N   0  0  0  0  0  0  0  0  0  0  0  0
   39.3680   26.9690   30.9250 C   0  0  0  0  0  0  0  0  0  0  0  0
   38.9220   28.1800   30.4840 N   0  0  0  0  0  0  0  0  0  0  0  0
   37.3020   29.4120   30.1380 H   0  0  0  0  0  0  0  0  0  0  0  0
   35.6870   27.7870   30.9190 H   0  0  0  0  0  0  0  0  0  0  0  0
   40.4310   26.7660   30.9140 H   0  0  0  0  0  0  0  0  0  0  0  0
   38.0060   23.3190   33.4840 O   0  0  0  0  0  0  0  0  0  0  0  0
   39.7530   23.0340   35.1300 C   0  0  2  0  0  3  0  0  0  0  0  0
   38.2970   23.1780   34.8340 C   0  0  2  0  0  3  0  0  0  0  0  0
   37.5610   22.1960   35.4510 O   0  0  0  0  0  0  0  0  0  0  0  0
   37.4190   22.5330   36.7980 C   0  0  0  0  0  2  0  0  0  0  0  0
   38.6300   23.2870   37.3050 C   0  0  2  0  0  3  0  0  0  0  0  0
   39.8910   22.8110   36.6430 C   0  0  1  0  0  3  0  0  0  0  0  0
   40.4840   24.1740   34.7660 O   0  0  0  0  0  0  0  0  0  0  0  0
   41.4210   23.9140   34.6650 H   0  0  0  0  0  0  0  0  0  0  0  0
   38.7330   23.0310   38.6720 O   0  0  0  0  0  0  0  0  0  0  0  0
   37.8920   23.0530   39.1560 H   0  0  0  0  0  0  0  0  0  0  0  0
   40.0750   21.4670   36.9420 O   0  0  0  0  0  0  0  0  0  0  0  0
   39.5850   20.8830   36.3080 H   0  0  0  0  0  0  0  0  0  0  0  0
  1 28  1  0  0  0  0
  1  6  1  1  0  0  0
  2  7  1  1  0  0  0
  2  1  1  0  0  0  0
  3  9  1  0  0  0  0
  3  2  1  0  0  0  0
  4  3  1  0  0  0  0
  4  5  1  0  0  0  0
  5 10  1  0  0  0  0
  5  1  1  0  0  0  0
  8  3  1  0  0  0  0
 11  5  1  0  0  0  0
 12 15  1  1  0  0  0
 13 14  1  0  0  0  0
 13 16  1  0  0  0  0
 13 12  1  0  0  0  0
 14 18  1  6  0  0  0
 14 12  1  0  0  0  0
 14  2  1  0  0  0  0
 17 13  1  0  0  0  0
 19 20  1  0  0  0  0
 20 21  2  0  0  0  0
 21 12  1  0  0  0  0
 22 21  1  0  0  0  0
 23 22  2  0  0  0  0
 24 19  2  0  0  0  0
 24 23  1  0  0  0  0
 25 19  1  0  0  0  0
 26 20  1  0  0  0  0
 27 23  1  0  0  0  0
 29 35  1  1  0  0  0
 29 34  1  0  0  0  0
 30 28  1  6  0  0  0
 30 29  1  0  0  0  0
 30 31  1  0  0  0  0
 31 32  1  0  0  0  0
 32 33  1  0  0  0  0
 33 37  1  1  0  0  0
 34 39  1  6  0  0  0
 34 33  1  0  0  0  0
 36 35  1  0  0  0  0
 37 38  1  0  0  0  0
 40 39  1  0  0  0  0
M  END
>  <minimizedAffinity>
-5.59136868

$$$$

 OpenBabel03262521363D

 40 43  0  0  1  0  0  0  0  0999 V2000
   37.7350   25.9320   32.3140 C   0  0  1  0  0  0  0  0  0  0  0  0
   38.4900   26.8990   33.1090 C   0  0  2  0  0  0  0  0  0  0  0  0
   39.6720   27.2460   32.1800 C   0  0  0  0  0  0  0  0  0  0  0  0
   39.9670   26.0330   31.6360 O   0  0  0  0  0  0  0  0  0  0  0  0
   38.8330   25.2920   31.4400 C   0  0  0  0  0  0  0  0  0  0  0  0
   37.0190   26.3850   31.6100 H   0  0  0  0  0  0  0  0  0  0  0  0
   37.9320   27.8650   33.2250 H   0  0  0  0  0  0  0  0  0  0  0  0
   40.5310   27.6040   32.7740 H   0  0  0  0  0  0  0  0  0  0  0  0
   39.3000   27.9750   31.4310 H   0  0  0  0  0  0  0  0  0  0  0  0
   38.5080   25.2720   30.3880 H   0  0  0  0  0  0  0  0  0  0  0  0
   38.9310   24.2320   31.7510 H   0  0  0  0  0  0  0  0  0  0  0  0
   38.0650   26.0200   35.5350 C   0  0  1  0  0  0  0  0  0  0  0  0
   38.6710   27.3240   35.6040 C   0  0  0  0  0  0  0  0  0  0  0  0
   39.0430   26.4000   34.4270 C   0  0  2  0  0  0  0  0  0  0  0  0
   37.0370   25.8840   35.0980 H   0  0  0  0  0  0  0  0  0  0  0  0
   38.0730   28.2180   35.4150 H   0  0  0  0  0  0  0  0  0  0  0  0
   39.5270   27.4540   36.3190 H   0  0  0  0  0  0  0  0  0  0  0  0
   40.0300   25.9380   34.4000 H   0  0  0  0  0  0  0  0  0  0  0  0
   38.4140   23.5680   38.3560 C   0  0  0  0  0  0  0  0  0  0  0  0
   37.9600   24.6360   37.5850 C   0  0  0  0  0  0  0  0  0  0  0  0
   38.5180   24.8800   36.3440 C   0  0  0  0  0  0  0  0  0  0  0  0
   39.5010   24.0370   35.9420 N   0  0  0  0  0  0  0  0  0  0  0  0
   39.9400   23.0030   36.6910 C   0  0  0  0  0  0  0  0  0  0  0  0
   39.3880   22.7650   37.9150 N   0  0  0  0  0  0  0  0  0  0  0  0
   38.0060   23.3380   39.3370 H   0  0  0  0  0  0  0  0  0  0  0  0
   37.1870   25.2050   38.0310 H   0  0  0  0  0  0  0  0  0  0  0  0
   40.7280   22.3520   36.3350 H   0  0  0  0  0  0  0  0  0  0  0  0
   37.0910   24.9390   33.0570 O   0  0  0  0  0  0  0  0  0  0  0  0
   35.7550   23.3810   31.7800 C   0  0  2  0  0  3  0  0  0  0  0  0
   37.0770   23.7280   32.3800 C   0  0  2  0  0  3  0  0  0  0  0  0
   37.5800   22.6840   33.1190 O   0  0  0  0  0  0  0  0  0  0  0  0
   38.1180   21.7420   32.2420 C   0  0  0  0  0  2  0  0  0  0  0  0
   37.3540   21.7120   30.9340 C   0  0  2  0  0  3  0  0  0  0  0  0
   35.8940   21.9900   31.1440 C   0  0  1  0  0  3  0  0  0  0  0  0
   35.3630   24.2980   30.7950 O   0  0  0  0  0  0  0  0  0  0  0  0
   34.3940   24.2280   30.6820 H   0  0  0  0  0  0  0  0  0  0  0  0
   37.4820   20.4260   30.4110 O   0  0  0  0  0  0  0  0  0  0  0  0
   38.3720   20.0430   30.4790 H   0  0  0  0  0  0  0  0  0  0  0  0
   35.3630   21.0030   31.9660 O   0  0  0  0  0  0  0  0  0  0  0  0
   35.4870   21.2220   32.9240 H   0  0  0  0  0  0  0  0  0  0  0  0
  1  6  1  6  0  0  0
  1 28  1  0  0  0  0
  1  2  1  0  0  0  0
  2  7  1  1  0  0  0
  2 14  1  0  0  0  0
  3  8  1  0  0  0  0
  3  2  1  0  0  0  0
  4  3  1  0  0  0  0
  5  4  1  0  0  0  0
  5 11  1  0  0  0  0
  5  1  1  0  0  0  0
  9  3  1  0  0  0  0
 10  5  1  0  0  0  0
 12 15  1  6  0  0  0
 12 13  1  0  0  0  0
 12 21  1  0  0  0  0
 13 17  1  0  0  0  0
 14 18  1  1  0  0  0
 14 12  1  0  0  0  0
 14 13  1  0  0  0  0
 16 13  1  0  0  0  0
 19 25  1  0  0  0  0
 20 26  1  0  0  0  0
 20 19  2  0  0  0  0
 21 20  1  0  0  0  0
 22 21  2  0  0  0  0
 22 23  1  0  0  0  0
 23 24  2  0  0  0  0
 24 19  1  0  0  0  0
 27 23  1  0  0  0  0
 29 35  1  6  0  0  0
 29 30  1  0  0  0  0
 30 28  1  1  0  0  0
 30 31  1  0  0  0  0
 32 31  1  0  0  0  0
 33 37  1  1  0  0  0
 33 34  1  0  0  0  0
 33 32  1  0  0  0  0
 34 29  1  0  0  0  0
 34 39  1  1  0  0  0
 36 35  1  0  0  0  0
 37 38  1  0  0  0  0
 39 40  1  0  0  0  0
M  END
>  <minimizedAffinity>
-5.52943611

$$$$

 OpenBabel03262521363D

 40 43  0  0  1  0  0  0  0  0999 V2000
   37.6210   23.7660   33.0530 C   0  0  1  0  0  0  0  0  0  0  0  0
   37.2020   25.1250   32.7170 C   0  0  2  0  0  0  0  0  0  0  0  0
   36.2410   24.8950   31.5310 C   0  0  0  0  0  0  0  0  0  0  0  0
   36.8750   23.9030   30.8460 O   0  0  0  0  0  0  0  0  0  0  0  0
   37.5020   23.0370   31.7000 C   0  0  0  0  0  0  0  0  0  0  0  0
   36.9380   23.2380   33.7390 H   0  0  0  0  0  0  0  0  0  0  0  0
   36.5560   25.5700   33.5180 H   0  0  0  0  0  0  0  0  0  0  0  0
   36.1870   25.8020   30.9030 H   0  0  0  0  0  0  0  0  0  0  0  0
   35.2680   24.5720   31.9530 H   0  0  0  0  0  0  0  0  0  0  0  0
   36.9530   22.0910   31.8320 H   0  0  0  0  0  0  0  0  0  0  0  0
   38.5260   22.7560   31.3820 H   0  0  0  0  0  0  0  0  0  0  0  0
   39.0250   26.8950   33.3340 C   0  0  1  0  0  0  0  0  0  0  0  0
   37.9620   27.5430   32.6110 C   0  0  0  0  0  0  0  0  0  0  0  0
   38.2940   26.0750   32.2750 C   0  0  2  0  0  0  0  0  0  0  0  0
   38.8410   26.4460   34.3490 H   0  0  0  0  0  0  0  0  0  0  0  0
   37.0210   27.7790   33.1110 H   0  0  0  0  0  0  0  0  0  0  0  0
   38.2580   28.2390   31.7800 H   0  0  0  0  0  0  0  0  0  0  0  0
   38.7960   25.8410   31.3360 H   0  0  0  0  0  0  0  0  0  0  0  0
   42.2060   27.5610   31.4560 C   0  0  0  0  0  0  0  0  0  0  0  0
   40.8520   27.3920   31.7400 C   0  0  0  0  0  0  0  0  0  0  0  0
   40.4470   27.1030   33.0290 C   0  0  0  0  0  0  0  0  0  0  0  0
   41.4230   27.0010   33.9660 N   0  0  0  0  0  0  0  0  0  0  0  0
   42.7340   27.1660   33.6880 C   0  0  0  0  0  0  0  0  0  0  0  0
   43.1310   27.4500   32.4150 N   0  0  0  0  0  0  0  0  0  0  0  0
   42.5710   27.7890   30.4570 H   0  0  0  0  0  0  0  0  0  0  0  0
   40.2100   27.5020   30.9070 H   0  0  0  0  0  0  0  0  0  0  0  0
   43.4840   27.0760   34.4640 H   0  0  0  0  0  0  0  0  0  0  0  0
   38.9310   23.6590   33.5290 O   0  0  0  0  0  0  0  0  0  0  0  0
   40.3280   23.2000   35.4480 C   0  0  2  0  0  3  0  0  0  0  0  0
   38.9560   23.3890   34.8900 C   0  0  2  0  0  3  0  0  0  0  0  0
   38.1190   22.3630   35.2590 O   0  0  0  0  0  0  0  0  0  0  0  0
   37.7170   22.5750   36.5770 C   0  0  0  0  0  2  0  0  0  0  0  0
   38.8020   23.2640   37.3780 C   0  0  2  0  0  3  0  0  0  0  0  0
   40.1700   22.8360   36.9320 C   0  0  1  0  0  3  0  0  0  0  0  0
   41.1090   24.3590   35.3410 O   0  0  0  0  0  0  0  0  0  0  0  0
   42.0490   24.0990   35.4000 H   0  0  0  0  0  0  0  0  0  0  0  0
   38.6390   22.8810   38.7090 O   0  0  0  0  0  0  0  0  0  0  0  0
   37.7200   22.8690   39.0210 H   0  0  0  0  0  0  0  0  0  0  0  0
   40.3000   21.4680   37.1340 O   0  0  0  0  0  0  0  0  0  0  0  0
   39.9460   20.9520   36.3650 H   0  0  0  0  0  0  0  0  0  0  0  0
  1 28  1  0  0  0  0
  1  6  1  1  0  0  0
  2  1  1  0  0  0  0
  2  7  1  1  0  0  0
  3  9  1  0  0  0  0
  3  2  1  0  0  0  0
  4  3  1  0  0  0  0
  4  5  1  0  0  0  0
  5 10  1  0  0  0  0
  5  1  1  0  0  0  0
  8  3  1  0  0  0  0
 11  5  1  0  0  0  0
 12 15  1  1  0  0  0
 13 16  1  0  0  0  0
 13 12  1  0  0  0  0
 14 18  1  6  0  0  0
 14 13  1  0  0  0  0
 14  2  1  0  0  0  0
 14 12  1  0  0  0  0
 17 13  1  0  0  0  0
 19 20  2  0  0  0  0
 19 24  1  0  0  0  0
 20 21  1  0  0  0  0
 21 12  1  0  0  0  0
 21 22  2  0  0  0  0
 23 22  1  0  0  0  0
 23 27  1  0  0  0  0
 24 23  2  0  0  0  0
 25 19  1  0  0  0  0
 26 20  1  0  0  0  0
 29 35  1  1  0  0  0
 29 34  1  0  0  0  0
 30 28  1  6  0  0  0
 30 31  1  0  0  0  0
 30 29  1  0  0  0  0
 31 32  1  0  0  0  0
 32 33  1  0  0  0  0
 33 37  1  1  0  0  0
 34 39  1  6  0  0  0
 34 33  1  0  0  0  0
 35 36  1  0  0  0  0
 37 38  1  0  0  0  0
 40 39  1  0  0  0  0
M  END
>  <minimizedAffinity>
-5.41362286

$$$$

 OpenBabel03262521363D

 40 43  0  0  1  0  0  0  0  0999 V2000
   36.9560   27.4380   32.3910 C   0  0  1  0  0  0  0  0  0  0  0  0
   35.8610   28.2070   31.8040 C   0  0  2  0  0  0  0  0  0  0  0  0
   36.4170   28.5700   30.4100 C   0  0  0  0  0  0  0  0  0  0  0  0
   37.7210   28.8450   30.6920 O   0  0  0  0  0  0  0  0  0  0  0  0
   38.1930   28.0300   31.6840 C   0  0  0  0  0  0  0  0  0  0  0  0
   36.9480   26.3670   32.1330 H   0  0  0  0  0  0  0  0  0  0  0  0
   34.9700   27.5590   31.5890 H   0  0  0  0  0  0  0  0  0  0  0  0
   35.9210   29.4800   30.0280 H   0  0  0  0  0  0  0  0  0  0  0  0
   36.2950   27.6770   29.7630 H   0  0  0  0  0  0  0  0  0  0  0  0
   38.8310   27.2150   31.3040 H   0  0  0  0  0  0  0  0  0  0  0  0
   38.7940   28.5580   32.4510 H   0  0  0  0  0  0  0  0  0  0  0  0
   34.3130   29.4510   33.5050 C   0  0  1  0  0  0  0  0  0  0  0  0
   34.0420   29.9360   32.1770 C   0  0  0  0  0  0  0  0  0  0  0  0
   35.4770   29.4840   32.5180 C   0  0  2  0  0  0  0  0  0  0  0  0
   34.0900   28.3850   33.7860 H   0  0  0  0  0  0  0  0  0  0  0  0
   33.4430   29.3390   31.4850 H   0  0  0  0  0  0  0  0  0  0  0  0
   33.9760   31.0490   32.0410 H   0  0  0  0  0  0  0  0  0  0  0  0
   36.2600   30.2340   32.6350 H   0  0  0  0  0  0  0  0  0  0  0  0
   35.9370   31.6560   36.0720 C   0  0  0  0  0  0  0  0  0  0  0  0
   35.7600   30.8370   34.9590 C   0  0  0  0  0  0  0  0  0  0  0  0
   34.5060   30.3380   34.6600 C   0  0  0  0  0  0  0  0  0  0  0  0
   33.4950   30.6910   35.4930 N   0  0  0  0  0  0  0  0  0  0  0  0
   33.6700   31.4860   36.5710 C   0  0  0  0  0  0  0  0  0  0  0  0
   34.9080   31.9760   36.8640 N   0  0  0  0  0  0  0  0  0  0  0  0
   36.9040   32.0710   36.3460 H   0  0  0  0  0  0  0  0  0  0  0  0
   36.6410   30.6500   34.4040 H   0  0  0  0  0  0  0  0  0  0  0  0
   32.8380   31.7450   37.2130 H   0  0  0  0  0  0  0  0  0  0  0  0
   37.0950   27.5820   33.7750 O   0  0  0  0  0  0  0  0  0  0  0  0
   39.0100   26.8310   35.0440 C   0  0  2  0  0  3  0  0  0  0  0  0
   37.7410   26.4890   34.3350 C   0  0  2  0  0  3  0  0  0  0  0  0
   37.9240   25.4520   33.4530 O   0  0  0  0  0  0  0  0  0  0  0  0
   37.9540   24.2590   34.1760 C   0  0  0  0  0  2  0  0  0  0  0  0
   38.5520   24.4670   35.5520 C   0  0  2  0  0  3  0  0  0  0  0  0
   39.6290   25.5120   35.5310 C   0  0  1  0  0  3  0  0  0  0  0  0
   38.7940   27.6700   36.1460 O   0  0  0  0  0  0  0  0  0  0  0  0
   39.6370   28.1170   36.3580 H   0  0  0  0  0  0  0  0  0  0  0  0
   39.1270   23.2560   35.9390 O   0  0  0  0  0  0  0  0  0  0  0  0
   38.5960   22.4690   35.7390 H   0  0  0  0  0  0  0  0  0  0  0  0
   40.6480   25.0890   34.6860 O   0  0  0  0  0  0  0  0  0  0  0  0
   40.4650   25.3360   33.7440 H   0  0  0  0  0  0  0  0  0  0  0  0
  1  6  1  6  0  0  0
  1 28  1  0  0  0  0
  2  7  1  6  0  0  0
  2  1  1  0  0  0  0
  2 14  1  0  0  0  0
  3  4  1  0  0  0  0
  3  2  1  0  0  0  0
  4  5  1  0  0  0  0
  5  1  1  0  0  0  0
  5 11  1  0  0  0  0
  8  3  1  0  0  0  0
  9  3  1  0  0  0  0
 10  5  1  0  0  0  0
 12 15  1  1  0  0  0
 12 21  1  0  0  0  0
 13 14  1  0  0  0  0
 13 12  1  0  0  0  0
 14 18  1  1  0  0  0
 14 12  1  0  0  0  0
 16 13  1  0  0  0  0
 17 13  1  0  0  0  0
 19 25  1  0  0  0  0
 19 24  1  0  0  0  0
 20 19  2  0  0  0  0
 21 20  1  0  0  0  0
 21 22  2  0  0  0  0
 22 23  1  0  0  0  0
 23 24  2  0  0  0  0
 23 27  1  0  0  0  0
 26 20  1  0  0  0  0
 29 34  1  0  0  0  0
 29 35  1  1  0  0  0
 30 28  1  6  0  0  0
 30 29  1  0  0  0  0
 31 32  1  0  0  0  0
 31 30  1  0  0  0  0
 32 33  1  0  0  0  0
 33 37  1  6  0  0  0
 34 39  1  6  0  0  0
 34 33  1  0  0  0  0
 35 36  1  0  0  0  0
 38 37  1  0  0  0  0
 40 39  1  0  0  0  0
M  END
>  <minimizedAffinity>
-5.36924744

$$$$

 OpenBabel03262521363D

 40 43  0  0  1  0  0  0  0  0999 V2000
   40.1010   25.0470   33.6000 C   0  0  1  0  0  0  0  0  0  0  0  0
   40.3580   26.0360   32.5540 C   0  0  2  0  0  0  0  0  0  0  0  0
   41.7600   26.5630   32.9300 C   0  0  0  0  0  0  0  0  0  0  0  0
   41.6830   26.6200   34.2890 O   0  0  0  0  0  0  0  0  0  0  0  0
   40.9260   25.5930   34.7830 C   0  0  0  0  0  0  0  0  0  0  0  0
   40.5100   24.0460   33.3870 H   0  0  0  0  0  0  0  0  0  0  0  0
   40.5010   25.5520   31.5530 H   0  0  0  0  0  0  0  0  0  0  0  0
   41.9050   27.5800   32.5240 H   0  0  0  0  0  0  0  0  0  0  0  0
   42.4990   25.8170   32.5720 H   0  0  0  0  0  0  0  0  0  0  0  0
   41.5320   24.7830   35.2200 H   0  0  0  0  0  0  0  0  0  0  0  0
   40.2110   25.9010   35.5730 H   0  0  0  0  0  0  0  0  0  0  0  0
   38.0470   27.0130   31.8180 C   0  0  1  0  0  0  0  0  0  0  0  0
   39.0910   27.6260   31.0380 C   0  0  0  0  0  0  0  0  0  0  0  0
   39.4040   27.2080   32.4890 C   0  0  2  0  0  0  0  0  0  0  0  0
   37.8300   25.9130   31.7250 H   0  0  0  0  0  0  0  0  0  0  0  0
   39.5530   27.0810   30.2120 H   0  0  0  0  0  0  0  0  0  0  0  0
   39.0560   28.7430   30.9240 H   0  0  0  0  0  0  0  0  0  0  0  0
   39.5180   27.9760   33.2550 H   0  0  0  0  0  0  0  0  0  0  0  0
   35.0010   29.1510   32.3030 C   0  0  0  0  0  0  0  0  0  0  0  0
   36.0060   28.4070   31.6890 C   0  0  0  0  0  0  0  0  0  0  0  0
   36.9670   27.7770   32.4570 C   0  0  0  0  0  0  0  0  0  0  0  0
   36.8670   27.9250   33.8010 N   0  0  0  0  0  0  0  0  0  0  0  0
   35.8910   28.6460   34.3940 C   0  0  0  0  0  0  0  0  0  0  0  0
   34.9450   29.2680   33.6340 N   0  0  0  0  0  0  0  0  0  0  0  0
   34.2240   29.6640   31.7410 H   0  0  0  0  0  0  0  0  0  0  0  0
   35.9540   28.3830   30.6330 H   0  0  0  0  0  0  0  0  0  0  0  0
   35.8450   28.7410   35.4710 H   0  0  0  0  0  0  0  0  0  0  0  0
   38.7600   24.9310   33.9780 O   0  0  0  0  0  0  0  0  0  0  0  0
   38.3410   22.8120   35.0640 C   0  0  2  0  0  3  0  0  0  0  0  0
   38.6320   24.2710   35.1920 C   0  0  2  0  0  3  0  0  0  0  0  0
   37.7550   24.8830   36.0550 O   0  0  0  0  0  0  0  0  0  0  0  0
   38.1470   24.5920   37.3620 C   0  0  0  0  0  2  0  0  0  0  0  0
   38.7820   23.2190   37.4510 C   0  0  2  0  0  3  0  0  0  0  0  0
   38.1520   22.2590   36.4840 C   0  0  1  0  0  3  0  0  0  0  0  0
   39.3820   22.1160   34.4350 O   0  0  0  0  0  0  0  0  0  0  0  0
   39.0200   21.2780   34.0850 H   0  0  0  0  0  0  0  0  0  0  0  0
   38.5600   22.7450   38.7430 O   0  0  0  0  0  0  0  0  0  0  0  0
   38.6880   23.4010   39.4470 H   0  0  0  0  0  0  0  0  0  0  0  0
   36.8060   22.1230   36.8000 O   0  0  0  0  0  0  0  0  0  0  0  0
   36.2590   22.8290   36.3710 H   0  0  0  0  0  0  0  0  0  0  0  0
  1  6  1  6  0  0  0
  1 28  1  0  0  0  0
  1  5  1  0  0  0  0
  2  7  1  6  0  0  0
  2  3  1  0  0  0  0
  2  1  1  0  0  0  0
  3  4  1  0  0  0  0
  4  5  1  0  0  0  0
  5 10  1  0  0  0  0
  5 11  1  0  0  0  0
  8  3  1  0  0  0  0
  9  3  1  0  0  0  0
 12 15  1  6  0  0  0
 12 21  1  0  0  0  0
 12 14  1  0  0  0  0
 13 12  1  0  0  0  0
 13 14  1  0  0  0  0
 14  2  1  0  0  0  0
 14 18  1  1  0  0  0
 16 13  1  0  0  0  0
 17 13  1  0  0  0  0
 19 24  1  0  0  0  0
 20 19  2  0  0  0  0
 20 21  1  0  0  0  0
 21 22  2  0  0  0  0
 22 23  1  0  0  0  0
 23 27  1  0  0  0  0
 24 23  2  0  0  0  0
 25 19  1  0  0  0  0
 26 20  1  0  0  0  0
 29 35  1  1  0  0  0
 29 30  1  0  0  0  0
 29 34  1  0  0  0  0
 30 28  1  6  0  0  0
 30 31  1  0  0  0  0
 31 32  1  0  0  0  0
 32 33  1  0  0  0  0
 33 37  1  1  0  0  0
 34 39  1  1  0  0  0
 34 33  1  0  0  0  0
 36 35  1  0  0  0  0
 37 38  1  0  0  0  0
 40 39  1  0  0  0  0
M  END
>  <minimizedAffinity>
-5.35374403

$$$$

 OpenBabel03262521363D

 40 43  0  0  1  0  0  0  0  0999 V2000
   36.6990   26.7090   32.8540 C   0  0  1  0  0  0  0  0  0  0  0  0
   37.0010   27.0780   34.2360 C   0  0  2  0  0  0  0  0  0  0  0  0
   36.1610   28.3580   34.4320 C   0  0  0  0  0  0  0  0  0  0  0  0
   36.3150   28.9810   33.2300 O   0  0  0  0  0  0  0  0  0  0  0  0
   36.3790   28.0730   32.2090 C   0  0  0  0  0  0  0  0  0  0  0  0
   35.7870   26.1010   32.7360 H   0  0  0  0  0  0  0  0  0  0  0  0
   36.5670   26.3430   34.9640 H   0  0  0  0  0  0  0  0  0  0  0  0
   36.5980   28.9810   35.2320 H   0  0  0  0  0  0  0  0  0  0  0  0
   35.1150   28.0400   34.6200 H   0  0  0  0  0  0  0  0  0  0  0  0
   35.4410   28.0030   31.6360 H   0  0  0  0  0  0  0  0  0  0  0  0
   37.1770   28.2860   31.4690 H   0  0  0  0  0  0  0  0  0  0  0  0
   39.3610   26.2740   35.0250 C   0  0  1  0  0  0  0  0  0  0  0  0
   38.7990   27.1430   36.0250 C   0  0  0  0  0  0  0  0  0  0  0  0
   38.4470   27.3980   34.5450 C   0  0  2  0  0  0  0  0  0  0  0  0
   38.8870   25.2810   34.7920 H   0  0  0  0  0  0  0  0  0  0  0  0
   38.0260   26.7740   36.7030 H   0  0  0  0  0  0  0  0  0  0  0  0
   39.4650   27.9460   36.4400 H   0  0  0  0  0  0  0  0  0  0  0  0
   38.8780   28.2590   34.0330 H   0  0  0  0  0  0  0  0  0  0  0  0
   42.3610   27.4040   33.0720 C   0  0  0  0  0  0  0  0  0  0  0  0
   41.0540   27.3110   33.5460 C   0  0  0  0  0  0  0  0  0  0  0  0
   40.7410   26.3990   34.5370 C   0  0  0  0  0  0  0  0  0  0  0  0
   41.7580   25.6280   34.9990 N   0  0  0  0  0  0  0  0  0  0  0  0
   43.0230   25.7200   34.5370 C   0  0  0  0  0  0  0  0  0  0  0  0
   43.3290   26.6210   33.5600 N   0  0  0  0  0  0  0  0  0  0  0  0
   42.6540   28.1060   32.2950 H   0  0  0  0  0  0  0  0  0  0  0  0
   40.3710   27.9770   33.0900 H   0  0  0  0  0  0  0  0  0  0  0  0
   43.8080   25.0870   34.9310 H   0  0  0  0  0  0  0  0  0  0  0  0
   37.7540   26.1020   32.1670 O   0  0  0  0  0  0  0  0  0  0  0  0
   36.0370   24.5440   31.4820 C   0  0  2  0  0  3  0  0  0  0  0  0
   37.4630   24.7810   31.8550 C   0  0  2  0  0  3  0  0  0  0  0  0
   37.8850   23.8900   32.8120 O   0  0  0  0  0  0  0  0  0  0  0  0
   38.1510   22.6690   32.1900 C   0  0  0  0  0  2  0  0  0  0  0  0
   37.2320   22.4450   31.0070 C   0  0  2  0  0  3  0  0  0  0  0  0
   35.8720   23.0350   31.2480 C   0  0  1  0  0  3  0  0  0  0  0  0
   35.6730   25.2320   30.3160 O   0  0  0  0  0  0  0  0  0  0  0  0
   34.6990   25.3170   30.3050 H   0  0  0  0  0  0  0  0  0  0  0  0
   37.0870   21.0670   30.8520 O   0  0  0  0  0  0  0  0  0  0  0  0
   37.9060   20.5560   30.9520 H   0  0  0  0  0  0  0  0  0  0  0  0
   35.3010   22.4120   32.3510 O   0  0  0  0  0  0  0  0  0  0  0  0
   35.5800   22.8440   33.1980 H   0  0  0  0  0  0  0  0  0  0  0  0
  1  6  1  6  0  0  0
  1  2  1  0  0  0  0
  2  3  1  0  0  0  0
  2 14  1  0  0  0  0
  2  7  1  1  0  0  0
  3  9  1  0  0  0  0
  3  8  1  0  0  0  0
  4  3  1  0  0  0  0
  5  1  1  0  0  0  0
  5  4  1  0  0  0  0
 10  5  1  0  0  0  0
 11  5  1  0  0  0  0
 12 15  1  6  0  0  0
 12 13  1  0  0  0  0
 13 17  1  0  0  0  0
 13 16  1  0  0  0  0
 14 18  1  6  0  0  0
 14 12  1  0  0  0  0
 14 13  1  0  0  0  0
 19 20  2  0  0  0  0
 19 24  1  0  0  0  0
 20 21  1  0  0  0  0
 21 22  2  0  0  0  0
 21 12  1  0  0  0  0
 23 27  1  0  0  0  0
 23 22  1  0  0  0  0
 24 23  2  0  0  0  0
 25 19  1  0  0  0  0
 26 20  1  0  0  0  0
 28  1  1  0  0  0  0
 29 35  1  6  0  0  0
 29 30  1  0  0  0  0
 30 28  1  1  0  0  0
 30 31  1  0  0  0  0
 32 31  1  0  0  0  0
 33 37  1  1  0  0  0
 33 34  1  0  0  0  0
 33 32  1  0  0  0  0
 34 29  1  0  0  0  0
 34 39  1  1  0  0  0
 36 35  1  0  0  0  0
 37 38  1  0  0  0  0
 39 40  1  0  0  0  0
M  END
>  <minimizedAffinity>
-5.31850767

$$$$

 OpenBabel03262521363D

 40 43  0  0  1  0  0  0  0  0999 V2000
   33.9290   29.5340   33.6310 C   0  0  1  0  0  0  0  0  0  0  0  0
   33.4760   29.9090   34.9680 C   0  0  2  0  0  0  0  0  0  0  0  0
   31.9530   29.6650   34.8870 C   0  0  0  0  0  0  0  0  0  0  0  0
   31.6660   30.1080   33.6310 O   0  0  0  0  0  0  0  0  0  0  0  0
   32.6880   29.8300   32.7640 C   0  0  0  0  0  0  0  0  0  0  0  0
   34.1310   28.4570   33.5060 H   0  0  0  0  0  0  0  0  0  0  0  0
   33.8340   29.1840   35.7450 H   0  0  0  0  0  0  0  0  0  0  0  0
   31.4270   30.2910   35.6290 H   0  0  0  0  0  0  0  0  0  0  0  0
   31.7870   28.5750   35.0070 H   0  0  0  0  0  0  0  0  0  0  0  0
   32.4750   28.9690   32.1110 H   0  0  0  0  0  0  0  0  0  0  0  0
   32.9460   30.6710   32.0900 H   0  0  0  0  0  0  0  0  0  0  0  0
   34.8540   31.6540   36.3450 C   0  0  1  0  0  0  0  0  0  0  0  0
   33.5280   31.5580   36.8960 C   0  0  0  0  0  0  0  0  0  0  0  0
   33.7120   31.3460   35.3800 C   0  0  2  0  0  0  0  0  0  0  0  0
   35.5590   30.7780   36.3830 H   0  0  0  0  0  0  0  0  0  0  0  0
   33.2540   30.7090   37.5260 H   0  0  0  0  0  0  0  0  0  0  0  0
   32.9950   32.5210   37.1210 H   0  0  0  0  0  0  0  0  0  0  0  0
   33.3730   32.1160   34.6860 H   0  0  0  0  0  0  0  0  0  0  0  0
   37.3370   34.1880   35.1200 C   0  0  0  0  0  0  0  0  0  0  0  0
   36.7010   32.9710   35.3540 C   0  0  0  0  0  0  0  0  0  0  0  0
   35.5180   32.9350   36.0690 C   0  0  0  0  0  0  0  0  0  0  0  0
   35.0360   34.1240   36.5100 N   0  0  0  0  0  0  0  0  0  0  0  0
   35.6550   35.3020   36.2820 C   0  0  0  0  0  0  0  0  0  0  0  0
   36.8220   35.3350   35.5770 N   0  0  0  0  0  0  0  0  0  0  0  0
   38.2680   34.2660   34.5630 H   0  0  0  0  0  0  0  0  0  0  0  0
   37.1960   32.1290   34.9470 H   0  0  0  0  0  0  0  0  0  0  0  0
   35.2390   36.2310   36.6510 H   0  0  0  0  0  0  0  0  0  0  0  0
   35.0180   30.2690   33.1540 O   0  0  0  0  0  0  0  0  0  0  0  0
   35.8920   29.6400   30.9900 C   0  0  2  0  0  3  0  0  0  0  0  0
   35.9160   29.4600   32.4720 C   0  0  2  0  0  3  0  0  0  0  0  0
   35.8270   28.1330   32.8170 O   0  0  0  0  0  0  0  0  0  0  0  0
   37.0770   27.5430   32.6290 C   0  0  0  0  0  2  0  0  0  0  0  0
   37.8190   28.1880   31.4770 C   0  0  2  0  0  3  0  0  0  0  0  0
   36.8780   28.6250   30.3920 C   0  0  1  0  0  3  0  0  0  0  0  0
   36.2760   30.9330   30.6060 O   0  0  0  0  0  0  0  0  0  0  0  0
   35.9330   31.0960   29.7050 H   0  0  0  0  0  0  0  0  0  0  0  0
   38.6760   27.2240   30.9470 O   0  0  0  0  0  0  0  0  0  0  0  0
   39.1460   26.6880   31.6060 H   0  0  0  0  0  0  0  0  0  0  0  0
   36.2160   27.5090   29.8960 O   0  0  0  0  0  0  0  0  0  0  0  0
   35.4110   27.2950   30.4340 H   0  0  0  0  0  0  0  0  0  0  0  0
  1  6  1  6  0  0  0
  1  2  1  0  0  0  0
  2 14  1  0  0  0  0
  2  7  1  1  0  0  0
  3  2  1  0  0  0  0
  3  9  1  0  0  0  0
  3  8  1  0  0  0  0
  4  3  1  0  0  0  0
  5  1  1  0  0  0  0
  5  4  1  0  0  0  0
 10  5  1  0  0  0  0
 11  5  1  0  0  0  0
 12 15  1  1  0  0  0
 12 13  1  0  0  0  0
 13 17  1  0  0  0  0
 13 16  1  0  0  0  0
 14 18  1  6  0  0  0
 14 12  1  0  0  0  0
 14 13  1  0  0  0  0
 19 20  2  0  0  0  0
 19 24  1  0  0  0  0
 20 21  1  0  0  0  0
 21 12  1  0  0  0  0
 21 22  2  0  0  0  0
 23 22  1  0  0  0  0
 23 27  1  0  0  0  0
 24 23  2  0  0  0  0
 25 19  1  0  0  0  0
 26 20  1  0  0  0  0
 28  1  1  0  0  0  0
 29 35  1  1  0  0  0
 29 30  1  0  0  0  0
 30 31  1  0  0  0  0
 30 28  1  1  0  0  0
 32 31  1  0  0  0  0
 33 37  1  6  0  0  0
 33 32  1  0  0  0  0
 34 39  1  1  0  0  0
 34 29  1  0  0  0  0
 34 33  1  0  0  0  0
 36 35  1  0  0  0  0
 37 38  1  0  0  0  0
 39 40  1  0  0  0  0
M  END
>  <minimizedAffinity>
-5.28843498

$$$$

 OpenBabel03262521363D

 40 43  0  0  1  0  0  0  0  0999 V2000
   37.1710   23.9060   32.1620 C   0  0  1  0  0  0  0  0  0  0  0  0
   37.1930   25.0760   33.0370 C   0  0  2  0  0  0  0  0  0  0  0  0
   37.3780   26.2390   32.0380 C   0  0  0  0  0  0  0  0  0  0  0  0
   38.2610   25.7050   31.1490 O   0  0  0  0  0  0  0  0  0  0  0  0
   38.0330   24.3680   30.9690 C   0  0  0  0  0  0  0  0  0  0  0  0
   36.1800   23.6730   31.7410 H   0  0  0  0  0  0  0  0  0  0  0  0
   36.1890   25.2640   33.5020 H   0  0  0  0  0  0  0  0  0  0  0  0
   37.8390   27.1050   32.5440 H   0  0  0  0  0  0  0  0  0  0  0  0
   36.3860   26.4470   31.5870 H   0  0  0  0  0  0  0  0  0  0  0  0
   37.5130   24.1440   30.0240 H   0  0  0  0  0  0  0  0  0  0  0  0
   38.9550   23.7520   30.9660 H   0  0  0  0  0  0  0  0  0  0  0  0
   38.0920   24.4870   35.4210 C   0  0  1  0  0  0  0  0  0  0  0  0
   37.9060   25.9120   35.3240 C   0  0  0  0  0  0  0  0  0  0  0  0
   38.3110   25.1330   34.0560 C   0  0  2  0  0  0  0  0  0  0  0  0
   37.2140   23.7860   35.3680 H   0  0  0  0  0  0  0  0  0  0  0  0
   36.9040   26.3410   35.3920 H   0  0  0  0  0  0  0  0  0  0  0  0
   38.7410   26.5640   35.6970 H   0  0  0  0  0  0  0  0  0  0  0  0
   39.3240   25.2350   33.6650 H   0  0  0  0  0  0  0  0  0  0  0  0
   41.6620   23.4080   35.8470 C   0  0  0  0  0  0  0  0  0  0  0  0
   40.5210   24.0180   35.3300 C   0  0  0  0  0  0  0  0  0  0  0  0
   39.3060   23.8720   35.9730 C   0  0  0  0  0  0  0  0  0  0  0  0
   39.3020   23.1230   37.1050 N   0  0  0  0  0  0  0  0  0  0  0  0
   40.4090   22.5330   37.6040 C   0  0  0  0  0  0  0  0  0  0  0  0
   41.6060   22.6780   36.9670 N   0  0  0  0  0  0  0  0  0  0  0  0
   42.6370   23.4950   35.3760 H   0  0  0  0  0  0  0  0  0  0  0  0
   40.6800   24.5700   34.4420 H   0  0  0  0  0  0  0  0  0  0  0  0
   40.3660   21.9420   38.5100 H   0  0  0  0  0  0  0  0  0  0  0  0
   37.7240   22.7490   32.7180 O   0  0  0  0  0  0  0  0  0  0  0  0
   37.6740   20.5990   31.6140 C   0  0  2  0  0  3  0  0  0  0  0  0
   36.9590   21.6300   32.4230 C   0  0  2  0  0  3  0  0  0  0  0  0
   35.7350   21.9340   31.8780 O   0  0  0  0  0  0  0  0  0  0  0  0
   34.8400   20.9150   32.2070 C   0  0  0  0  0  2  0  0  0  0  0  0
   35.5440   19.5770   32.3020 C   0  0  2  0  0  3  0  0  0  0  0  0
   36.6700   19.4770   31.3140 C   0  0  1  0  0  3  0  0  0  0  0  0
   38.7750   20.0600   32.2950 O   0  0  0  0  0  0  0  0  0  0  0  0
   39.3770   19.6660   31.6340 H   0  0  0  0  0  0  0  0  0  0  0  0
   34.6040   18.5940   31.9930 O   0  0  0  0  0  0  0  0  0  0  0  0
   33.7280   18.7270   32.3890 H   0  0  0  0  0  0  0  0  0  0  0  0
   36.1510   19.5910   30.0300 O   0  0  0  0  0  0  0  0  0  0  0  0
   36.0670   20.5400   29.7560 H   0  0  0  0  0  0  0  0  0  0  0  0
  1  6  1  6  0  0  0
  1 28  1  0  0  0  0
  1  2  1  0  0  0  0
  2  7  1  1  0  0  0
  2 14  1  0  0  0  0
  3  8  1  0  0  0  0
  3  2  1  0  0  0  0
  4  3  1  0  0  0  0
  5  4  1  0  0  0  0
  5  1  1  0  0  0  0
  9  3  1  0  0  0  0
 10  5  1  0  0  0  0
 11  5  1  0  0  0  0
 12 15  1  1  0  0  0
 12 21  1  0  0  0  0
 13 16  1  0  0  0  0
 13 12  1  0  0  0  0
 13 17  1  0  0  0  0
 14 18  1  6  0  0  0
 14 13  1  0  0  0  0
 14 12  1  0  0  0  0
 19 24  1  0  0  0  0
 20 19  2  0  0  0  0
 20 21  1  0  0  0  0
 21 22  2  0  0  0  0
 22 23  1  0  0  0  0
 23 27  1  0  0  0  0
 24 23  2  0  0  0  0
 25 19  1  0  0  0  0
 26 20  1  0  0  0  0
 29 35  1  1  0  0  0
 29 30  1  0  0  0  0
 30 28  1  6  0  0  0
 31 32  1  0  0  0  0
 31 30  1  0  0  0  0
 32 33  1  0  0  0  0
 33 37  1  6  0  0  0
 34 39  1  6  0  0  0
 34 29  1  0  0  0  0
 34 33  1  0  0  0  0
 36 35  1  0  0  0  0
 37 38  1  0  0  0  0
 40 39  1  0  0  0  0
M  END
>  <minimizedAffinity>
-5.26114655

$$$$
