
 OpenBabel03272509433D

 41 43  0  0  1  0  0  0  0  0999 V2000
   37.0010   30.9120   49.0710 C   0  0  0  0  0  0  0  0  0  0  0  0
   36.6890   31.7990   50.1030 C   0  0  0  0  0  0  0  0  0  0  0  0
   37.2760   33.0560   50.1890 C   0  0  0  0  0  0  0  0  0  0  0  0
   38.2010   33.4470   49.2180 C   0  0  0  0  0  0  0  0  0  0  0  0
   38.4950   32.5680   48.2150 C   0  0  0  0  0  0  0  0  0  0  0  0
   37.8910   31.3220   48.1610 C   0  0  0  0  0  0  0  0  0  0  0  0
   35.9620   31.4770   50.8530 H   0  0  0  0  0  0  0  0  0  0  0  0
   36.9620   33.6530   51.0250 H   0  0  0  0  0  0  0  0  0  0  0  0
   38.6000   34.4300   49.3630 H   0  0  0  0  0  0  0  0  0  0  0  0
   39.2300   33.0140   47.5410 H   0  0  0  0  0  0  0  0  0  0  0  0
   36.4200   29.5900   49.0030 C   0  0  2  0  0  0  0  0  0  0  0  0
   36.9480   29.0690   48.1140 H   0  0  0  0  0  0  0  0  0  0  0  0
   33.5750   30.0540   46.7920 C   0  0  0  0  0  0  0  0  0  0  0  0
   32.8740   28.8660   46.8950 C   0  0  0  0  0  0  0  0  0  0  0  0
   33.3380   27.9100   47.7770 C   0  0  0  0  0  0  0  0  0  0  0  0
   34.4730   28.1680   48.5180 N   0  0  0  0  0  0  0  0  0  0  0  0
   35.0970   29.3190   48.3730 C   0  0  0  0  0  0  0  0  0  0  0  0
   34.6570   30.2610   47.5210 N   0  0  0  0  0  0  0  0  0  0  0  0
   33.1840   30.7810   46.0920 H   0  0  0  0  0  0  0  0  0  0  0  0
   31.9780   28.5910   46.3480 H   0  0  0  0  0  0  0  0  0  0  0  0
   32.8880   26.9380   47.9590 H   0  0  0  0  0  0  0  0  0  0  0  0
   36.8630   28.8070   49.9250 O   0  0  0  0  0  0  0  0  0  0  0  0
   36.7110   29.1670   50.8560 H   0  0  0  0  0  0  0  0  0  0  0  0
   38.3140   30.4810   47.0640 C   0  0  0  0  0  3  0  0  0  0  0  0
   38.8260   30.9520   45.9210 C   0  0  0  0  0  3  0  0  0  0  0  0
   39.3270   30.1880   44.7550 C   0  0  0  0  0  0  0  0  0  0  0  0
   40.2000   29.5260   45.0200 H   0  0  0  0  0  0  0  0  0  0  0  0
   38.5350   29.5110   44.3860 H   0  0  0  0  0  0  0  0  0  0  0  0
   39.8460   31.3280   43.4680 S   0  0  0  0  0  0  0  0  0  0  0  0
   40.2450   30.9630   40.8340 C   0  0  1  0  0  3  0  0  0  0  0  0
   40.8380   30.5830   42.1800 C   0  0  2  0  0  3  0  0  0  0  0  0
   40.9360   29.2070   42.3270 O   0  0  0  0  0  0  0  0  0  0  0  0
   41.5500   28.6850   41.1830 C   0  0  0  0  0  2  0  0  0  0  0  0
   40.4690   28.6200   40.1280 C   0  0  1  0  0  3  0  0  0  0  0  0
   39.5150   29.7890   40.1980 C   0  0  2  0  0  3  0  0  0  0  0  0
   39.2990   31.9790   40.9820 O   0  0  0  0  0  0  0  0  0  0  0  0
   39.4390   32.5290   41.7950 H   0  0  0  0  0  0  0  0  0  0  0  0
   41.0390   28.6360   38.8750 O   0  0  0  0  0  0  0  0  0  0  0  0
   42.0040   28.5260   38.8900 H   0  0  0  0  0  0  0  0  0  0  0  0
   39.1010   30.2040   38.9330 O   0  0  0  0  0  0  0  0  0  0  0  0
   39.8230   30.6280   38.4190 H   0  0  0  0  0  0  0  0  0  0  0  0
  1  2  1  0  0  0  0
  2  3  2  0  0  0  0
  2  7  1  0  0  0  0
  3  8  1  0  0  0  0
  4  9  1  0  0  0  0
  4  3  1  0  0  0  0
  5  4  2  0  0  0  0
  6  5  1  0  0  0  0
  6  1  2  0  0  0  0
 10  5  1  0  0  0  0
 11 12  1  6  0  0  0
 11  1  1  0  0  0  0
 11 22  1  0  0  0  0
 13 14  2  0  0  0  0
 13 18  1  0  0  0  0
 14 15  1  0  0  0  0
 15 21  1  0  0  0  0
 15 16  2  0  0  0  0
 17 16  1  0  0  0  0
 17 11  1  0  0  0  0
 18 17  2  0  0  0  0
 19 13  1  0  0  0  0
 20 14  1  0  0  0  0
 22 23  1  0  0  0  0
 24  6  1  0  0  0  0
 25 24  2  0  0  0  0
 26 27  1  0  0  0  0
 26 25  1  0  0  0  0
 28 26  1  0  0  0  0
 29 26  1  0  0  0  0
 30 36  1  1  0  0  0
 30 31  1  0  0  0  0
 31 32  1  0  0  0  0
 31 29  1  1  0  0  0
 33 32  1  0  0  0  0
 34 38  1  6  0  0  0
 34 35  1  0  0  0  0
 34 33  1  0  0  0  0
 35 40  1  6  0  0  0
 35 30  1  0  0  0  0
 36 37  1  0  0  0  0
 38 39  1  0  0  0  0
 41 40  1  0  0  0  0
M  END
>  <minimizedAffinity>
-5.96375608

>  <minimizedRMSD>
1.05502439

$$$$
