
 OpenBabel03272509573D

 49 52  0  0  1  0  0  0  0  0999 V2000
   33.2780   27.8940   47.3870 C   0  0  0  0  0  0  0  0  0  0  0  0
   33.4020   28.0610   46.2820 H   0  0  0  0  0  0  0  0  0  0  0  0
   33.6220   26.8570   47.5600 H   0  0  0  0  0  0  0  0  0  0  0  0
   31.8200   28.0320   47.6410 C   0  0  0  0  0  0  0  0  0  0  0  0
   31.2880   27.3990   48.7590 C   0  0  0  0  0  0  0  0  0  0  0  0
   29.9580   27.4750   49.0650 C   0  0  0  0  0  0  0  0  0  0  0  0
   29.1500   28.1720   48.2720 N   0  0  0  0  0  0  0  0  0  0  0  0
   29.6750   28.7930   47.1750 C   0  0  0  0  0  0  0  0  0  0  0  0
   30.9750   28.7370   46.8490 N   0  0  0  0  0  0  0  0  0  0  0  0
   31.9090   26.8170   49.4370 H   0  0  0  0  0  0  0  0  0  0  0  0
   29.5590   26.9740   49.9420 H   0  0  0  0  0  0  0  0  0  0  0  0
   28.7300   29.5580   46.3240 C   0  0  0  0  0  0  0  0  0  0  0  0
   27.9380   30.0240   46.9310 H   0  0  0  0  0  0  0  0  0  0  0  0
   29.2030   30.3790   45.7520 H   0  0  0  0  0  0  0  0  0  0  0  0
   26.7030   29.1090   44.9290 C   0  0  2  0  0  0  0  0  0  0  0  0
   28.0320   28.5700   45.4140 C   0  0  1  0  0  0  0  0  0  0  0  0
   28.7880   28.2840   44.2800 O   0  0  0  0  0  0  0  0  0  0  0  0
   28.4110   27.0210   43.8320 C   0  0  0  0  0  0  0  0  0  0  0  0
   26.9300   26.7770   43.9940 C   0  0  1  0  0  0  0  0  0  0  0  0
   26.1360   28.0630   43.9810 C   0  0  1  0  0  0  0  0  0  0  0  0
   26.9580   30.3010   44.2400 O   0  0  0  0  0  0  0  0  0  0  0  0
   26.8120   30.1600   43.2610 H   0  0  0  0  0  0  0  0  0  0  0  0
   26.5110   26.0270   42.8920 O   0  0  0  0  0  0  0  0  0  0  0  0
   26.3640   25.0610   43.1360 H   0  0  0  0  0  0  0  0  0  0  0  0
   24.8660   27.7320   44.4590 O   0  0  0  0  0  0  0  0  0  0  0  0
   24.2050   27.7050   43.7270 H   0  0  0  0  0  0  0  0  0  0  0  0
   34.0900   28.9400   48.0830 C   0  0  0  0  0  0  0  0  0  0  0  0
   33.3950   29.7750   48.3540 H   0  0  0  0  0  0  0  0  0  0  0  0
   34.8640   29.4080   47.4150 H   0  0  0  0  0  0  0  0  0  0  0  0
   34.6610   28.4500   49.2820 O   0  0  0  0  0  0  0  0  0  0  0  0
   37.0350   29.9330   51.5620 C   0  0  0  0  0  0  0  0  0  0  0  0
   37.8340   30.6550   50.6390 C   0  0  0  0  0  0  0  0  0  0  0  0
   37.5030   30.5840   49.3000 C   0  0  0  0  0  0  0  0  0  0  0  0
   36.4240   29.8140   48.9800 N   0  0  0  0  0  0  0  0  0  0  0  0
   35.6780   29.1380   49.8510 C   0  0  0  0  0  0  0  0  0  0  0  0
   35.9960   29.2030   51.1630 N   0  0  0  0  0  0  0  0  0  0  0  0
   37.3490   30.0320   52.5920 H   0  0  0  0  0  0  0  0  0  0  0  0
   38.6800   31.2550   50.9140 H   0  0  0  0  0  0  0  0  0  0  0  0
   38.7440   33.2010   49.3200 F   0  0  0  0  0  0  0  0  0  0  0  0
   38.7910   32.4650   48.2150 C   0  0  0  0  0  0  0  0  0  0  0  0
   38.2090   31.2570   48.2280 C   0  0  0  0  0  0  0  0  0  0  0  0
   38.3120   30.5580   47.0150 C   0  0  0  0  0  0  0  0  0  0  0  0
   38.9540   31.0810   45.9230 C   0  0  0  0  0  0  0  0  0  0  0  0
   39.5340   32.3290   45.9660 C   0  0  0  0  0  0  0  0  0  0  0  0
   39.4410   33.0130   47.1310 C   0  0  0  0  0  0  0  0  0  0  0  0
   37.8870   29.5680   46.8860 H   0  0  0  0  0  0  0  0  0  0  0  0
   39.0220   30.5200   44.9910 H   0  0  0  0  0  0  0  0  0  0  0  0
   40.0440   32.7550   45.1110 H   0  0  0  0  0  0  0  0  0  0  0  0
   39.8910   34.0000   47.1890 H   0  0  0  0  0  0  0  0  0  0  0  0
  1  3  1  0  0  0  0
  1  4  1  0  0  0  0
  1 27  1  0  0  0  0
  2  1  1  0  0  0  0
  4  5  1  0  0  0  0
  5  6  2  0  0  0  0
  5 10  1  0  0  0  0
  6 11  1  0  0  0  0
  7  6  1  0  0  0  0
  8  7  2  0  0  0  0
  9  8  1  0  0  0  0
  9  4  2  0  0  0  0
 12 13  1  0  0  0  0
 12  8  1  0  0  0  0
 14 12  1  0  0  0  0
 15 21  1  6  0  0  0
 15 16  1  0  0  0  0
 16 12  1  1  0  0  0
 17 16  1  0  0  0  0
 18 19  1  0  0  0  0
 18 17  1  0  0  0  0
 19 23  1  6  0  0  0
 20 19  1  0  0  0  0
 20 25  1  1  0  0  0
 20 15  1  0  0  0  0
 22 21  1  0  0  0  0
 23 24  1  0  0  0  0
 26 25  1  0  0  0  0
 27 28  1  0  0  0  0
 27 30  1  0  0  0  0
 29 27  1  0  0  0  0
 30 35  1  0  0  0  0
 31 37  1  0  0  0  0
 32 38  1  0  0  0  0
 32 31  2  0  0  0  0
 33 32  1  0  0  0  0
 34 33  2  0  0  0  0
 34 35  1  0  0  0  0
 35 36  2  0  0  0  0
 36 31  1  0  0  0  0
 40 41  1  0  0  0  0
 40 39  1  0  0  0  0
 41 33  1  0  0  0  0
 42 41  2  0  0  0  0
 43 44  2  0  0  0  0
 43 42  1  0  0  0  0
 44 45  1  0  0  0  0
 45 49  1  0  0  0  0
 45 40  2  0  0  0  0
 46 42  1  0  0  0  0
 47 43  1  0  0  0  0
 48 44  1  0  0  0  0
M  END
>  <minimizedAffinity>
-6.88890934

>  <minimizedRMSD>
0.770383954

$$$$
