
 OpenBabel03272509453D

 22 23  0  0  1  0  0  0  0  0999 V2000
   33.1900   27.9260   48.8160 C   0  0  2  0  0  3  0  0  0  0  0  0
   34.2950   28.4510   47.9570 C   0  0  1  0  0  3  0  0  0  0  0  0
   34.0290   28.3870   46.5980 O   0  0  0  0  0  0  0  0  0  0  0  0
   32.8250   28.9440   46.2260 C   0  0  0  0  0  2  0  0  0  0  0  0
   31.6330   28.2640   46.8590 C   0  0  1  0  0  3  0  0  0  0  0  0
   32.0090   27.4000   48.0110 C   0  0  2  0  0  3  0  0  0  0  0  0
   32.7510   28.8740   49.7640 O   0  0  0  0  0  0  0  0  0  0  0  0
   32.9200   29.8010   49.4580 H   0  0  0  0  0  0  0  0  0  0  0  0
   30.6910   29.2250   47.2710 O   0  0  0  0  0  0  0  0  0  0  0  0
   31.1790   29.9190   47.7730 H   0  0  0  0  0  0  0  0  0  0  0  0
   30.9020   27.3010   48.8480 O   0  0  0  0  0  0  0  0  0  0  0  0
   30.9830   27.8900   49.6330 H   0  0  0  0  0  0  0  0  0  0  0  0
   34.7080   29.7700   48.2940 O   0  0  0  0  0  0  0  0  0  0  0  0
   37.5870   29.4720   50.4990 C   0  0  0  0  0  0  0  0  0  0  0  0
   38.0960   30.7810   50.4200 C   0  0  0  0  0  0  0  0  0  0  0  0
   37.4110   31.6990   49.6040 C   0  0  0  0  0  0  0  0  0  0  0  0
   36.2820   31.2680   48.9290 N   0  0  0  0  0  0  0  0  0  0  0  0
   35.8440   30.0010   49.0450 C   0  0  0  0  0  0  0  0  0  0  0  0
   36.4870   29.1070   49.8210 N   0  0  0  0  0  0  0  0  0  0  0  0
   38.0570   28.7070   51.1050 H   0  0  0  0  0  0  0  0  0  0  0  0
   38.9780   31.0450   50.9740 H   0  0  0  0  0  0  0  0  0  0  0  0
   37.7600   32.7000   49.5160 H   0  0  0  0  0  0  0  0  0  0  0  0
  1  7  1  1  0  0  0
  2 13  1  1  0  0  0
  2  1  1  0  0  0  0
  3  2  1  0  0  0  0
  4  3  1  0  0  0  0
  4  5  1  0  0  0  0
  5  9  1  1  0  0  0
  5  6  1  0  0  0  0
  6  1  1  0  0  0  0
  6 11  1  1  0  0  0
  8  7  1  0  0  0  0
  9 10  1  0  0  0  0
 11 12  1  0  0  0  0
 13 18  1  0  0  0  0
 14 20  1  0  0  0  0
 15 14  1  0  0  0  0
 15 21  1  0  0  0  0
 16 15  2  0  0  0  0
 17 18  2  0  0  0  0
 17 16  1  0  0  0  0
 18 19  1  0  0  0  0
 19 14  2  0  0  0  0
 22 16  1  0  0  0  0
M  END
>  <minimizedAffinity>
-4.71654129

>  <minimizedRMSD>
2.52113152

$$$$
