
 OpenBabel03272503493D

 40 42  0  0  1  0  0  0  0  0999 V2000
   32.9370   27.3210   45.8930 C   0  0  1  0  0  0  0  0  0  0  0  0
   33.8990   27.4820   47.0900 C   0  0  2  0  0  0  0  0  0  0  0  0
   33.9090   26.2440   47.6500 O   0  0  0  0  0  0  0  0  0  0  0  0
   34.0430   25.3720   46.5910 C   0  0  0  0  0  0  0  0  0  0  0  0
   33.3010   25.9380   45.4200 C   0  0  2  0  0  0  0  0  0  0  0  0
   33.2260   28.1030   45.1650 H   0  0  0  0  0  0  0  0  0  0  0  0
   34.8670   27.8430   46.6580 H   0  0  0  0  0  0  0  0  0  0  0  0
   33.5100   24.4300   46.9080 H   0  0  0  0  0  0  0  0  0  0  0  0
   35.0790   25.0610   46.3870 H   0  0  0  0  0  0  0  0  0  0  0  0
   32.4030   25.3630   45.1690 H   0  0  0  0  0  0  0  0  0  0  0  0
   31.6260   27.4670   46.3060 O   0  0  0  0  0  0  0  0  0  0  0  0
   31.3420   26.6590   46.7740 H   0  0  0  0  0  0  0  0  0  0  0  0
   33.3620   28.4940   47.8310 O   0  0  0  0  0  0  0  0  0  0  0  0
   35.3530   29.8350   46.7320 O   0  0  0  0  0  0  0  0  0  0  0  0
   34.1030   29.9860   47.5920 P   0  0  1  0  0  0  0  0  0  0  0  0
   33.0810   31.0040   46.7060 O   0  0  0  0  0  0  0  0  0  0  0  0
   32.1560   30.7970   46.9980 H   0  0  0  0  0  0  0  0  0  0  0  0
   34.4270   30.6360   49.1320 O   0  0  0  0  0  0  0  0  0  0  0  0
   35.6530   30.5060   49.7490 C   0  0  0  0  0  0  0  0  0  0  0  0
   35.9850   29.4800   50.6580 C   0  0  0  0  0  0  0  0  0  0  0  0
   37.2650   29.4800   51.2010 C   0  0  0  0  0  0  0  0  0  0  0  0
   38.1340   30.4740   50.8250 N   0  0  0  0  0  0  0  0  0  0  0  0
   37.7780   31.4490   49.9440 C   0  0  0  0  0  0  0  0  0  0  0  0
   36.5340   31.4700   49.4000 N   0  0  0  0  0  0  0  0  0  0  0  0
   35.2100   28.7860   50.8490 H   0  0  0  0  0  0  0  0  0  0  0  0
   37.5070   28.7050   51.8830 H   0  0  0  0  0  0  0  0  0  0  0  0
   38.5310   32.1900   49.7080 H   0  0  0  0  0  0  0  0  0  0  0  0
   34.1160   26.0260   44.2980 O   0  0  0  0  0  0  0  0  0  0  0  0
   36.2810   25.4330   43.4990 C   0  0  1  0  0  3  0  0  0  0  0  0
   34.9980   24.9740   44.1530 C   0  0  2  0  0  3  0  0  0  0  0  0
   34.3550   24.0490   43.3030 O   0  0  0  0  0  0  0  0  0  0  0  0
   34.0540   24.7060   42.1000 C   0  0  0  0  0  2  0  0  0  0  0  0
   35.3330   24.9040   41.3060 C   0  0  1  0  0  3  0  0  0  0  0  0
   36.5140   24.6470   42.2190 C   0  0  2  0  0  3  0  0  0  0  0  0
   36.1890   26.7780   43.0910 O   0  0  0  0  0  0  0  0  0  0  0  0
   35.2630   27.0600   42.9670 H   0  0  0  0  0  0  0  0  0  0  0  0
   35.3980   23.9780   40.2430 O   0  0  0  0  0  0  0  0  0  0  0  0
   36.3370   23.9890   39.9310 H   0  0  0  0  0  0  0  0  0  0  0  0
   36.6080   23.2800   42.4680 O   0  0  0  0  0  0  0  0  0  0  0  0
   37.1080   23.1590   43.3040 H   0  0  0  0  0  0  0  0  0  0  0  0
  1  6  1  6  0  0  0
  1 11  1  0  0  0  0
  1  2  1  0  0  0  0
  2  7  1  6  0  0  0
  2  3  1  0  0  0  0
  2 13  1  0  0  0  0
  4  8  1  0  0  0  0
  4  3  1  0  0  0  0
  5 10  1  6  0  0  0
  5  1  1  0  0  0  0
  5  4  1  0  0  0  0
  9  4  1  0  0  0  0
 11 12  1  0  0  0  0
 15 14  2  6  0  0  0
 15 13  1  0  0  0  0
 15 18  1  0  0  0  0
 16 17  1  0  0  0  0
 16 15  1  0  0  0  0
 18 19  1  0  0  0  0
 19 20  1  0  0  0  0
 20 25  1  0  0  0  0
 20 21  2  0  0  0  0
 21 26  1  0  0  0  0
 22 21  1  0  0  0  0
 23 22  2  0  0  0  0
 24 19  2  0  0  0  0
 24 23  1  0  0  0  0
 27 23  1  0  0  0  0
 28  5  1  0  0  0  0
 29 35  1  6  0  0  0
 29 30  1  0  0  0  0
 30 28  1  6  0  0  0
 31 30  1  0  0  0  0
 32 31  1  0  0  0  0
 33 37  1  6  0  0  0
 33 32  1  0  0  0  0
 33 34  1  0  0  0  0
 34 39  1  1  0  0  0
 34 29  1  0  0  0  0
 36 35  1  0  0  0  0
 38 37  1  0  0  0  0
 39 40  1  0  0  0  0
M  END
>  <minimizedAffinity>
-4.10442686

>  <minimizedRMSD>
2.01211953

$$$$
