
 OpenBabel03272504573D

 36 38  0  0  1  0  0  0  0  0999 V2000
   37.0450   31.5490   48.6270 C   0  0  1  0  0  0  0  0  0  0  0  0
   36.3260   30.8580   47.5850 C   0  0  0  0  0  0  0  0  0  0  0  0
   37.2750   30.1130   48.4670 C   0  0  2  0  0  0  0  0  0  0  0  0
   36.5570   31.8340   49.6250 H   0  0  0  0  0  0  0  0  0  0  0  0
   35.2840   31.0840   47.6990 H   0  0  0  0  0  0  0  0  0  0  0  0
   36.6710   31.0350   46.5440 H   0  0  0  0  0  0  0  0  0  0  0  0
   38.0030   29.5910   47.8760 H   0  0  0  0  0  0  0  0  0  0  0  0
   38.1900   32.4620   48.3000 C   0  0  0  0  0  0  0  0  0  0  0  0
   38.5360   33.4030   49.3040 C   0  0  0  0  0  0  0  0  0  0  0  0
   39.5900   34.2240   48.9710 C   0  0  0  0  0  0  0  0  0  0  0  0
   40.2110   34.0980   47.7600 N   0  0  0  0  0  0  0  0  0  0  0  0
   39.8440   33.1830   46.8320 C   0  0  0  0  0  0  0  0  0  0  0  0
   38.8010   32.3540   47.1360 N   0  0  0  0  0  0  0  0  0  0  0  0
   40.4790   33.0610   45.5930 N   0  0  0  0  0  0  0  0  0  0  0  0
   38.0540   33.5000   50.2450 H   0  0  0  0  0  0  0  0  0  0  0  0
   39.8960   34.9600   49.6980 H   0  0  0  0  0  0  0  0  0  0  0  0
   41.3530   33.6430   45.4410 H   0  0  0  0  0  0  0  0  0  0  0  0
   40.0980   32.4230   44.8620 H   0  0  0  0  0  0  0  0  0  0  0  0
   36.6730   29.3070   49.4460 O   0  0  0  0  0  0  0  0  0  0  0  0
   34.6480   27.7480   49.7500 O   0  0  0  0  0  0  0  0  0  0  0  0
   35.0860   28.9910   49.0470 P   0  0  1  0  0  0  0  0  0  0  0  0
   34.0830   30.2560   49.6780 O   0  0  0  0  0  0  0  0  0  0  0  0
   34.5650   30.6920   50.4340 H   0  0  0  0  0  0  0  0  0  0  0  0
   34.9430   28.9240   47.3770 O   0  0  0  0  0  0  0  0  0  0  0  0
   32.6140   29.0560   47.3600 C   0  0  2  0  0  3  0  0  0  0  0  0
   33.8240   28.2600   46.9360 C   0  0  1  0  0  3  0  0  0  0  0  0
   33.8560   27.9750   45.5740 O   0  0  0  0  0  0  0  0  0  0  0  0
   32.7470   27.1320   45.3430 C   0  0  0  0  0  2  0  0  0  0  0  0
   31.5440   28.0810   45.4070 C   0  0  1  0  0  3  0  0  0  0  0  0
   31.3660   28.3530   46.9040 C   0  0  2  0  0  3  0  0  0  0  0  0
   32.6080   30.3240   46.7490 O   0  0  0  0  0  0  0  0  0  0  0  0
   32.8630   30.9700   47.4330 H   0  0  0  0  0  0  0  0  0  0  0  0
   31.9350   29.2880   44.8300 O   0  0  0  0  0  0  0  0  0  0  0  0
   31.1840   29.6260   44.3040 H   0  0  0  0  0  0  0  0  0  0  0  0
   30.2210   29.0920   47.1400 O   0  0  0  0  0  0  0  0  0  0  0  0
   30.4250   30.0470   46.9100 H   0  0  0  0  0  0  0  0  0  0  0  0
  1  4  1  1  0  0  0
  2  5  1  0  0  0  0
  2  3  1  0  0  0  0
  2  1  1  0  0  0  0
  3  7  1  6  0  0  0
  3  1  1  0  0  0  0
  3 19  1  0  0  0  0
  6  2  1  0  0  0  0
  8  1  1  0  0  0  0
  8  9  1  0  0  0  0
  9 15  1  0  0  0  0
 10  9  2  0  0  0  0
 10 16  1  0  0  0  0
 11 10  1  0  0  0  0
 12 13  1  0  0  0  0
 12 11  2  0  0  0  0
 13  8  2  0  0  0  0
 14 12  1  0  0  0  0
 17 14  1  0  0  0  0
 18 14  1  0  0  0  0
 21 19  1  0  0  0  0
 21 22  1  0  0  0  0
 21 20  2  1  0  0  0
 22 23  1  0  0  0  0
 24 21  1  0  0  0  0
 25 31  1  6  0  0  0
 26 25  1  0  0  0  0
 26 24  1  6  0  0  0
 27 26  1  0  0  0  0
 28 29  1  0  0  0  0
 28 27  1  0  0  0  0
 29 33  1  6  0  0  0
 29 30  1  0  0  0  0
 30 35  1  6  0  0  0
 30 25  1  0  0  0  0
 31 32  1  0  0  0  0
 34 33  1  0  0  0  0
 36 35  1  0  0  0  0
M  END
>  <minimizedAffinity>
-5.28522873

>  <minimizedRMSD>
0.737377703

$$$$
