
 OpenBabel03272503503D

 40 42  0  0  1  0  0  0  0  0999 V2000
   33.2300   27.3060   45.8690 C   0  0  1  0  0  0  0  0  0  0  0  0
   33.9090   27.4600   47.2470 C   0  0  2  0  0  0  0  0  0  0  0  0
   33.7280   26.2420   47.8220 O   0  0  0  0  0  0  0  0  0  0  0  0
   34.0460   25.3300   46.8400 C   0  0  0  0  0  0  0  0  0  0  0  0
   33.6130   25.8910   45.5200 C   0  0  2  0  0  0  0  0  0  0  0  0
   33.7150   28.0470   45.2070 H   0  0  0  0  0  0  0  0  0  0  0  0
   34.9670   27.7590   47.0340 H   0  0  0  0  0  0  0  0  0  0  0  0
   33.4050   24.4260   47.0510 H   0  0  0  0  0  0  0  0  0  0  0  0
   35.0820   24.9630   46.8790 H   0  0  0  0  0  0  0  0  0  0  0  0
   32.7640   25.3510   45.0880 H   0  0  0  0  0  0  0  0  0  0  0  0
   31.8700   27.5280   45.9750 O   0  0  0  0  0  0  0  0  0  0  0  0
   31.4460   26.7510   46.3870 H   0  0  0  0  0  0  0  0  0  0  0  0
   33.2770   28.5210   47.8260 O   0  0  0  0  0  0  0  0  0  0  0  0
   35.3370   29.8050   46.7880 O   0  0  0  0  0  0  0  0  0  0  0  0
   34.0750   29.9890   47.6230 P   0  0  1  0  0  0  0  0  0  0  0  0
   33.1080   31.0530   46.7280 O   0  0  0  0  0  0  0  0  0  0  0  0
   32.1710   30.8750   46.9980 H   0  0  0  0  0  0  0  0  0  0  0  0
   34.3870   30.6080   49.1780 O   0  0  0  0  0  0  0  0  0  0  0  0
   35.6170   30.4890   49.7900 C   0  0  0  0  0  0  0  0  0  0  0  0
   35.9580   29.4720   50.7050 C   0  0  0  0  0  0  0  0  0  0  0  0
   37.2400   29.4830   51.2420 C   0  0  0  0  0  0  0  0  0  0  0  0
   38.1030   30.4780   50.8560 N   0  0  0  0  0  0  0  0  0  0  0  0
   37.7370   31.4440   49.9690 C   0  0  0  0  0  0  0  0  0  0  0  0
   36.4910   31.4550   49.4310 N   0  0  0  0  0  0  0  0  0  0  0  0
   35.1880   28.7750   50.9050 H   0  0  0  0  0  0  0  0  0  0  0  0
   37.4900   28.7140   51.9290 H   0  0  0  0  0  0  0  0  0  0  0  0
   38.4850   32.1880   49.7240 H   0  0  0  0  0  0  0  0  0  0  0  0
   34.6610   25.9020   44.6070 O   0  0  0  0  0  0  0  0  0  0  0  0
   35.5620   23.9860   43.5130 C   0  0  1  0  0  3  0  0  0  0  0  0
   34.4880   25.0500   43.5340 C   0  0  2  0  0  3  0  0  0  0  0  0
   34.6150   25.8530   42.3810 O   0  0  0  0  0  0  0  0  0  0  0  0
   35.8750   26.4670   42.4200 C   0  0  0  0  0  2  0  0  0  0  0  0
   36.9420   25.4340   42.1030 C   0  0  1  0  0  3  0  0  0  0  0  0
   36.3240   24.0550   42.2000 C   0  0  2  0  0  3  0  0  0  0  0  0
   36.5290   24.2230   44.5090 O   0  0  0  0  0  0  0  0  0  0  0  0
   36.5510   25.1580   44.7830 H   0  0  0  0  0  0  0  0  0  0  0  0
   37.4160   25.6060   40.7850 O   0  0  0  0  0  0  0  0  0  0  0  0
   37.9060   24.7760   40.5620 H   0  0  0  0  0  0  0  0  0  0  0  0
   35.4830   23.8560   41.1090 O   0  0  0  0  0  0  0  0  0  0  0  0
   34.8350   23.1590   41.3500 H   0  0  0  0  0  0  0  0  0  0  0  0
  1  6  1  6  0  0  0
  1 11  1  0  0  0  0
  1  2  1  0  0  0  0
  2  7  1  6  0  0  0
  2  3  1  0  0  0  0
  2 13  1  0  0  0  0
  4  9  1  0  0  0  0
  4  8  1  0  0  0  0
  4  3  1  0  0  0  0
  5 10  1  6  0  0  0
  5  1  1  0  0  0  0
  5  4  1  0  0  0  0
 11 12  1  0  0  0  0
 15 14  2  6  0  0  0
 15 13  1  0  0  0  0
 15 18  1  0  0  0  0
 16 17  1  0  0  0  0
 16 15  1  0  0  0  0
 18 19  1  0  0  0  0
 19 20  1  0  0  0  0
 20 25  1  0  0  0  0
 20 21  2  0  0  0  0
 21 26  1  0  0  0  0
 22 21  1  0  0  0  0
 23 22  2  0  0  0  0
 24 19  2  0  0  0  0
 24 23  1  0  0  0  0
 27 23  1  0  0  0  0
 28  5  1  0  0  0  0
 29 30  1  0  0  0  0
 29 35  1  1  0  0  0
 30 28  1  1  0  0  0
 31 32  1  0  0  0  0
 31 30  1  0  0  0  0
 33 37  1  6  0  0  0
 33 34  1  0  0  0  0
 33 32  1  0  0  0  0
 34 39  1  6  0  0  0
 34 29  1  0  0  0  0
 35 36  1  0  0  0  0
 38 37  1  0  0  0  0
 39 40  1  0  0  0  0
M  END
>  <minimizedAffinity>
-4.19308996

>  <minimizedRMSD>
1.51817715

$$$$
