
 OpenBabel03272504573D

 36 38  0  0  1  0  0  0  0  0999 V2000
   37.1500   31.6510   48.7410 C   0  0  1  0  0  0  0  0  0  0  0  0
   36.2990   30.8290   47.9170 C   0  0  0  0  0  0  0  0  0  0  0  0
   37.3080   30.2000   48.8230 C   0  0  2  0  0  0  0  0  0  0  0  0
   36.7810   32.1350   49.7130 H   0  0  0  0  0  0  0  0  0  0  0  0
   35.2840   31.1300   48.0900 H   0  0  0  0  0  0  0  0  0  0  0  0
   36.5370   30.7990   46.8330 H   0  0  0  0  0  0  0  0  0  0  0  0
   37.9480   29.5410   48.2680 H   0  0  0  0  0  0  0  0  0  0  0  0
   38.2880   32.4270   48.1440 C   0  0  0  0  0  0  0  0  0  0  0  0
   38.7930   33.4910   48.9350 C   0  0  0  0  0  0  0  0  0  0  0  0
   39.8340   34.1810   48.3560 C   0  0  0  0  0  0  0  0  0  0  0  0
   40.3000   33.8250   47.1220 N   0  0  0  0  0  0  0  0  0  0  0  0
   39.7840   32.8000   46.4030 C   0  0  0  0  0  0  0  0  0  0  0  0
   38.7500   32.0970   46.9530 N   0  0  0  0  0  0  0  0  0  0  0  0
   40.2610   32.4430   45.1390 N   0  0  0  0  0  0  0  0  0  0  0  0
   38.4310   33.7670   49.8940 H   0  0  0  0  0  0  0  0  0  0  0  0
   40.2580   35.0010   48.9140 H   0  0  0  0  0  0  0  0  0  0  0  0
   41.1350   32.9380   44.7970 H   0  0  0  0  0  0  0  0  0  0  0  0
   39.7670   31.7230   44.5700 H   0  0  0  0  0  0  0  0  0  0  0  0
   36.7830   29.6140   49.9860 O   0  0  0  0  0  0  0  0  0  0  0  0
   34.7020   28.4450   50.9500 O   0  0  0  0  0  0  0  0  0  0  0  0
   35.1720   29.2400   49.7760 P   0  0  1  0  0  0  0  0  0  0  0  0
   34.2440   30.7040   49.8090 O   0  0  0  0  0  0  0  0  0  0  0  0
   34.7670   31.3960   50.2990 H   0  0  0  0  0  0  0  0  0  0  0  0
   34.9760   28.4690   48.2990 O   0  0  0  0  0  0  0  0  0  0  0  0
   32.6620   28.1950   48.4010 C   0  0  2  0  0  3  0  0  0  0  0  0
   33.9990   27.5030   48.2950 C   0  0  1  0  0  3  0  0  0  0  0  0
   34.0940   26.6320   47.2160 O   0  0  0  0  0  0  0  0  0  0  0  0
   33.1570   25.6070   47.4800 C   0  0  0  0  0  2  0  0  0  0  0  0
   31.8010   26.2650   47.1950 C   0  0  1  0  0  3  0  0  0  0  0  0
   31.5660   27.1660   48.4120 C   0  0  2  0  0  3  0  0  0  0  0  0
   32.4310   29.0160   47.2820 O   0  0  0  0  0  0  0  0  0  0  0  0
   32.5590   29.9360   47.5750 H   0  0  0  0  0  0  0  0  0  0  0  0
   31.9740   27.1160   46.1040 O   0  0  0  0  0  0  0  0  0  0  0  0
   31.1780   27.0440   45.5410 H   0  0  0  0  0  0  0  0  0  0  0  0
   30.3030   27.7310   48.3720 O   0  0  0  0  0  0  0  0  0  0  0  0
   30.3330   28.4900   47.7170 H   0  0  0  0  0  0  0  0  0  0  0  0
  1  3  1  0  0  0  0
  1  4  1  1  0  0  0
  2  5  1  0  0  0  0
  2  1  1  0  0  0  0
  2  3  1  0  0  0  0
  3  7  1  6  0  0  0
  3 19  1  0  0  0  0
  6  2  1  0  0  0  0
  8  1  1  0  0  0  0
  8  9  1  0  0  0  0
  9 15  1  0  0  0  0
 10 16  1  0  0  0  0
 10  9  2  0  0  0  0
 11 10  1  0  0  0  0
 12 13  1  0  0  0  0
 12 11  2  0  0  0  0
 13  8  2  0  0  0  0
 14 12  1  0  0  0  0
 17 14  1  0  0  0  0
 18 14  1  0  0  0  0
 21 22  1  0  0  0  0
 21 19  1  0  0  0  0
 21 20  2  1  0  0  0
 22 23  1  0  0  0  0
 24 21  1  0  0  0  0
 25 31  1  6  0  0  0
 25 30  1  0  0  0  0
 26 24  1  6  0  0  0
 26 25  1  0  0  0  0
 27 28  1  0  0  0  0
 27 26  1  0  0  0  0
 29 33  1  6  0  0  0
 29 28  1  0  0  0  0
 29 30  1  0  0  0  0
 30 35  1  6  0  0  0
 31 32  1  0  0  0  0
 34 33  1  0  0  0  0
 36 35  1  0  0  0  0
M  END
>  <minimizedAffinity>
-5.2374382

>  <minimizedRMSD>
1.54237616

$$$$
