
 OpenBabel03272504573D

 36 38  0  0  1  0  0  0  0  0999 V2000
   36.9720   31.5060   48.6430 C   0  0  1  0  0  0  0  0  0  0  0  0
   36.1780   30.8980   47.6040 C   0  0  0  0  0  0  0  0  0  0  0  0
   37.1490   30.0770   48.3900 C   0  0  2  0  0  0  0  0  0  0  0  0
   36.5460   31.7460   49.6800 H   0  0  0  0  0  0  0  0  0  0  0  0
   35.1510   31.1470   47.7870 H   0  0  0  0  0  0  0  0  0  0  0  0
   36.4730   31.1260   46.5580 H   0  0  0  0  0  0  0  0  0  0  0  0
   37.8270   29.5700   47.7320 H   0  0  0  0  0  0  0  0  0  0  0  0
   38.1270   32.4050   48.3070 C   0  0  0  0  0  0  0  0  0  0  0  0
   38.4840   33.3500   49.3040 C   0  0  0  0  0  0  0  0  0  0  0  0
   39.5460   34.1570   48.9620 C   0  0  0  0  0  0  0  0  0  0  0  0
   40.1640   34.0140   47.7520 N   0  0  0  0  0  0  0  0  0  0  0  0
   39.7860   33.0960   46.8310 C   0  0  0  0  0  0  0  0  0  0  0  0
   38.7350   32.2810   47.1440 N   0  0  0  0  0  0  0  0  0  0  0  0
   40.4170   32.9570   45.5930 N   0  0  0  0  0  0  0  0  0  0  0  0
   38.0040   33.4600   50.2440 H   0  0  0  0  0  0  0  0  0  0  0  0
   39.8610   34.8950   49.6820 H   0  0  0  0  0  0  0  0  0  0  0  0
   41.2970   33.5290   45.4350 H   0  0  0  0  0  0  0  0  0  0  0  0
   40.0290   32.3170   44.8670 H   0  0  0  0  0  0  0  0  0  0  0  0
   36.5740   29.2310   49.3520 O   0  0  0  0  0  0  0  0  0  0  0  0
   34.5690   27.6550   49.6950 O   0  0  0  0  0  0  0  0  0  0  0  0
   34.9960   28.8770   48.9500 P   0  0  1  0  0  0  0  0  0  0  0  0
   33.9670   30.1490   49.5220 O   0  0  0  0  0  0  0  0  0  0  0  0
   34.4340   30.6210   50.2650 H   0  0  0  0  0  0  0  0  0  0  0  0
   34.8720   28.7430   47.2820 O   0  0  0  0  0  0  0  0  0  0  0  0
   33.7040   27.0170   46.2340 C   0  0  2  0  0  3  0  0  0  0  0  0
   33.6190   28.3970   46.8380 C   0  0  1  0  0  3  0  0  0  0  0  0
   32.6380   28.5210   47.8140 O   0  0  0  0  0  0  0  0  0  0  0  0
   31.4110   28.3260   47.1390 C   0  0  0  0  0  2  0  0  0  0  0  0
   31.3690   26.8140   46.8840 C   0  0  1  0  0  3  0  0  0  0  0  0
   32.3500   26.6090   45.7250 C   0  0  2  0  0  3  0  0  0  0  0  0
   34.0720   26.0670   47.2050 O   0  0  0  0  0  0  0  0  0  0  0  0
   35.0040   25.8370   47.0380 H   0  0  0  0  0  0  0  0  0  0  0  0
   31.9330   26.1890   47.9930 O   0  0  0  0  0  0  0  0  0  0  0  0
   31.4120   25.3840   48.1800 H   0  0  0  0  0  0  0  0  0  0  0  0
   32.3210   25.2990   45.2790 O   0  0  0  0  0  0  0  0  0  0  0  0
   32.8490   24.7470   45.9290 H   0  0  0  0  0  0  0  0  0  0  0  0
  1  4  1  1  0  0  0
  2  5  1  0  0  0  0
  2  3  1  0  0  0  0
  2  1  1  0  0  0  0
  3  7  1  6  0  0  0
  3  1  1  0  0  0  0
  3 19  1  0  0  0  0
  6  2  1  0  0  0  0
  8  1  1  0  0  0  0
  8  9  1  0  0  0  0
  9 15  1  0  0  0  0
 10  9  2  0  0  0  0
 10 16  1  0  0  0  0
 11 10  1  0  0  0  0
 12 13  1  0  0  0  0
 12 11  2  0  0  0  0
 13  8  2  0  0  0  0
 14 12  1  0  0  0  0
 17 14  1  0  0  0  0
 18 14  1  0  0  0  0
 21 19  1  0  0  0  0
 21 22  1  0  0  0  0
 21 20  2  1  0  0  0
 22 23  1  0  0  0  0
 24 21  1  0  0  0  0
 25 26  1  0  0  0  0
 25 31  1  1  0  0  0
 26 24  1  1  0  0  0
 26 27  1  0  0  0  0
 28 27  1  0  0  0  0
 29 28  1  0  0  0  0
 29 33  1  1  0  0  0
 30 35  1  1  0  0  0
 30 25  1  0  0  0  0
 30 29  1  0  0  0  0
 32 31  1  0  0  0  0
 33 34  1  0  0  0  0
 35 36  1  0  0  0  0
M  END
>  <minimizedAffinity>
-4.86008024

>  <minimizedRMSD>
0.333258569

$$$$
