
 OpenBabel03272506403D

 40 42  0  0  1  0  0  0  0  0999 V2000
   36.7720   27.8480   35.2060 O   0  0  0  0  0  0  0  0  0  0  0  0
   36.9510   27.7780   33.9840 C   0  0  0  0  0  0  0  0  0  0  0  0
   37.9360   26.8820   33.4170 C   0  0  2  0  0  0  0  0  0  0  0  0
   37.6500   27.0340   31.8860 C   0  0  0  0  0  0  0  0  0  0  0  0
   37.0450   28.4110   31.8030 C   0  0  0  0  0  0  0  0  0  0  0  0
   36.2330   28.5420   33.0060 N   0  0  0  0  0  0  0  0  0  0  0  0
   38.9810   27.1270   33.5890 H   0  0  0  0  0  0  0  0  0  0  0  0
   38.6250   27.0180   31.3660 H   0  0  0  0  0  0  0  0  0  0  0  0
   36.9380   26.2670   31.5730 H   0  0  0  0  0  0  0  0  0  0  0  0
   37.8680   29.1610   31.7850 H   0  0  0  0  0  0  0  0  0  0  0  0
   36.4550   28.5180   30.8820 H   0  0  0  0  0  0  0  0  0  0  0  0
   35.0120   29.2870   33.1110 C   0  0  0  0  0  0  0  0  0  0  0  0
   34.1890   28.5110   33.0810 H   0  0  0  0  0  0  0  0  0  0  0  0
   34.8810   29.8710   32.1890 H   0  0  0  0  0  0  0  0  0  0  0  0
   33.5170   30.6510   34.6290 C   0  0  2  0  0  3  0  0  0  0  0  0
   34.8780   30.1250   34.3400 C   0  0  2  0  0  3  0  0  0  0  0  0
   35.7950   31.1810   34.3520 O   0  0  0  0  0  0  0  0  0  0  0  0
   36.0950   31.5330   35.6770 C   0  0  0  0  0  2  0  0  0  0  0  0
   34.8250   31.4790   36.5150 C   0  0  2  0  0  3  0  0  0  0  0  0
   33.6270   31.7880   35.6150 C   0  0  1  0  0  3  0  0  0  0  0  0
   32.6350   29.6660   35.0780 O   0  0  0  0  0  0  0  0  0  0  0  0
   31.6920   29.9380   34.9410 H   0  0  0  0  0  0  0  0  0  0  0  0
   34.9500   32.4380   37.5120 O   0  0  0  0  0  0  0  0  0  0  0  0
   34.3230   33.1860   37.4180 H   0  0  0  0  0  0  0  0  0  0  0  0
   33.7360   33.0160   35.0190 O   0  0  0  0  0  0  0  0  0  0  0  0
   33.2830   33.0520   34.1380 H   0  0  0  0  0  0  0  0  0  0  0  0
   37.7220   25.5040   33.7150 O   0  0  0  0  0  0  0  0  0  0  0  0
   38.6880   24.8500   34.4820 C   0  0  0  0  0  0  0  0  0  0  0  0
   40.0070   25.0110   34.0970 C   0  0  0  0  0  0  0  0  0  0  0  0
   40.9840   24.3730   34.8410 C   0  0  0  0  0  0  0  0  0  0  0  0
   40.6100   23.6190   35.9090 N   0  0  0  0  0  0  0  0  0  0  0  0
   39.3120   23.4730   36.2700 C   0  0  0  0  0  0  0  0  0  0  0  0
   38.3830   24.0850   35.5550 N   0  0  0  0  0  0  0  0  0  0  0  0
   38.2770   23.4190   38.3970 C   0  0  0  0  0  0  0  0  0  0  0  0
   37.9710   24.6470   38.3900 O   0  0  0  0  0  0  0  0  0  0  0  0
   38.9610   22.6730   37.3950 N   0  0  0  0  0  0  0  0  0  0  0  0
   40.3400   25.6020   33.2560 H   0  0  0  0  0  0  0  0  0  0  0  0
   42.0290   24.4870   34.5550 H   0  0  0  0  0  0  0  0  0  0  0  0
   37.9430   22.9400   39.3170 H   0  0  0  0  0  0  0  0  0  0  0  0
   39.1510   21.6440   37.5390 H   0  0  0  0  0  0  0  0  0  0  0  0
  2  1  2  0  0  0  0
  3  7  1  1  0  0  0
  3 27  1  0  0  0  0
  3  2  1  0  0  0  0
  4  3  1  0  0  0  0
  5  4  1  0  0  0  0
  5  6  1  0  0  0  0
  6 12  1  0  0  0  0
  6  2  1  0  0  0  0
  8  4  1  0  0  0  0
  9  4  1  0  0  0  0
 10  5  1  0  0  0  0
 11  5  1  0  0  0  0
 13 12  1  0  0  0  0
 14 12  1  0  0  0  0
 15 21  1  1  0  0  0
 15 20  1  0  0  0  0
 16 12  1  6  0  0  0
 16 17  1  0  0  0  0
 16 15  1  0  0  0  0
 17 18  1  0  0  0  0
 18 19  1  0  0  0  0
 19 23  1  1  0  0  0
 20 25  1  6  0  0  0
 20 19  1  0  0  0  0
 22 21  1  0  0  0  0
 24 23  1  0  0  0  0
 26 25  1  0  0  0  0
 27 28  1  0  0  0  0
 28 33  1  0  0  0  0
 29 28  2  0  0  0  0
 29 30  1  0  0  0  0
 30 31  2  0  0  0  0
 31 32  1  0  0  0  0
 32 36  1  0  0  0  0
 33 32  2  0  0  0  0
 34 39  1  0  0  0  0
 35 34  2  0  0  0  0
 36 40  1  0  0  0  0
 36 34  1  0  0  0  0
 37 29  1  0  0  0  0
 38 30  1  0  0  0  0
M  END
>  <minimizedAffinity>
-5.95183182

$$$$

 OpenBabel03272506403D

 40 42  0  0  1  0  0  0  0  0999 V2000
   37.4250   27.9320   35.1690 O   0  0  0  0  0  0  0  0  0  0  0  0
   37.3740   27.2220   34.1580 C   0  0  0  0  0  0  0  0  0  0  0  0
   36.4190   27.4820   33.1010 C   0  0  2  0  0  0  0  0  0  0  0  0
   36.8710   26.4520   32.0140 C   0  0  0  0  0  0  0  0  0  0  0  0
   37.5350   25.3790   32.8370 C   0  0  0  0  0  0  0  0  0  0  0  0
   38.2200   26.0920   33.9080 N   0  0  0  0  0  0  0  0  0  0  0  0
   35.3720   27.2950   33.3260 H   0  0  0  0  0  0  0  0  0  0  0  0
   35.9560   26.0520   31.5400 H   0  0  0  0  0  0  0  0  0  0  0  0
   37.5820   26.9290   31.3350 H   0  0  0  0  0  0  0  0  0  0  0  0
   36.7480   24.7010   33.2390 H   0  0  0  0  0  0  0  0  0  0  0  0
   38.2220   24.7870   32.2170 H   0  0  0  0  0  0  0  0  0  0  0  0
   39.4510   25.6890   34.5230 C   0  0  0  0  0  0  0  0  0  0  0  0
   39.9440   26.6510   34.8550 H   0  0  0  0  0  0  0  0  0  0  0  0
   40.1140   25.2880   33.7430 H   0  0  0  0  0  0  0  0  0  0  0  0
   39.8520   23.3870   35.4940 C   0  0  2  0  0  3  0  0  0  0  0  0
   39.3110   24.7590   35.6840 C   0  0  2  0  0  3  0  0  0  0  0  0
   37.9880   24.6780   36.1290 O   0  0  0  0  0  0  0  0  0  0  0  0
   37.9660   24.3630   37.4970 C   0  0  0  0  0  2  0  0  0  0  0  0
   39.0460   23.3320   37.7960 C   0  0  2  0  0  3  0  0  0  0  0  0
   39.2700   22.4770   36.5470 C   0  0  1  0  0  3  0  0  0  0  0  0
   41.2480   23.3450   35.4940 O   0  0  0  0  0  0  0  0  0  0  0  0
   41.5830   22.5300   35.0420 H   0  0  0  0  0  0  0  0  0  0  0  0
   38.5870   22.5520   38.8490 O   0  0  0  0  0  0  0  0  0  0  0  0
   38.3980   21.6230   38.5970 H   0  0  0  0  0  0  0  0  0  0  0  0
   38.1240   21.8440   36.1460 O   0  0  0  0  0  0  0  0  0  0  0  0
   38.0970   21.6920   35.1670 H   0  0  0  0  0  0  0  0  0  0  0  0
   36.5470   28.7660   32.4940 O   0  0  0  0  0  0  0  0  0  0  0  0
   35.6190   29.7450   32.8510 C   0  0  0  0  0  0  0  0  0  0  0  0
   35.8650   31.0330   32.4090 C   0  0  0  0  0  0  0  0  0  0  0  0
   34.9590   32.0230   32.7500 C   0  0  0  0  0  0  0  0  0  0  0  0
   33.8740   31.6910   33.4990 N   0  0  0  0  0  0  0  0  0  0  0  0
   33.6500   30.4230   33.9220 C   0  0  0  0  0  0  0  0  0  0  0  0
   34.5190   29.4830   33.5930 N   0  0  0  0  0  0  0  0  0  0  0  0
   31.6570   29.1570   34.0790 C   0  0  0  0  0  0  0  0  0  0  0  0
   31.8140   28.5860   32.9600 O   0  0  0  0  0  0  0  0  0  0  0  0
   32.5020   30.1170   34.7070 N   0  0  0  0  0  0  0  0  0  0  0  0
   36.7150   31.3320   31.8130 H   0  0  0  0  0  0  0  0  0  0  0  0
   35.1350   33.0430   32.4120 H   0  0  0  0  0  0  0  0  0  0  0  0
   30.7400   28.8210   34.5610 H   0  0  0  0  0  0  0  0  0  0  0  0
   32.2410   30.5130   35.6510 H   0  0  0  0  0  0  0  0  0  0  0  0
  2  1  2  0  0  0  0
  3  7  1  1  0  0  0
  3  2  1  0  0  0  0
  4  5  1  0  0  0  0
  4  3  1  0  0  0  0
  5 10  1  0  0  0  0
  5  6  1  0  0  0  0
  6  2  1  0  0  0  0
  6 12  1  0  0  0  0
  8  4  1  0  0  0  0
  9  4  1  0  0  0  0
 11  5  1  0  0  0  0
 12 13  1  0  0  0  0
 14 12  1  0  0  0  0
 15 21  1  1  0  0  0
 15 16  1  0  0  0  0
 15 20  1  0  0  0  0
 16 12  1  6  0  0  0
 16 17  1  0  0  0  0
 17 18  1  0  0  0  0
 18 19  1  0  0  0  0
 19 23  1  1  0  0  0
 20 25  1  6  0  0  0
 20 19  1  0  0  0  0
 22 21  1  0  0  0  0
 24 23  1  0  0  0  0
 26 25  1  0  0  0  0
 27 28  1  0  0  0  0
 27  3  1  0  0  0  0
 28 33  1  0  0  0  0
 29 30  1  0  0  0  0
 29 28  2  0  0  0  0
 30 31  2  0  0  0  0
 31 32  1  0  0  0  0
 32 36  1  0  0  0  0
 33 32  2  0  0  0  0
 34 39  1  0  0  0  0
 34 36  1  0  0  0  0
 35 34  2  0  0  0  0
 36 40  1  0  0  0  0
 37 29  1  0  0  0  0
 38 30  1  0  0  0  0
M  END
>  <minimizedAffinity>
-5.86744356

$$$$

 OpenBabel03272506403D

 40 42  0  0  1  0  0  0  0  0999 V2000
   37.2310   27.8310   35.1620 O   0  0  0  0  0  0  0  0  0  0  0  0
   37.3070   27.1490   34.1330 C   0  0  0  0  0  0  0  0  0  0  0  0
   36.4160   27.3710   33.0140 C   0  0  2  0  0  0  0  0  0  0  0  0
   37.0230   26.4090   31.9390 C   0  0  0  0  0  0  0  0  0  0  0  0
   37.7030   25.3640   32.7840 C   0  0  0  0  0  0  0  0  0  0  0  0
   38.2520   26.0920   33.9200 N   0  0  0  0  0  0  0  0  0  0  0  0
   35.3720   27.1010   33.1550 H   0  0  0  0  0  0  0  0  0  0  0  0
   36.1770   25.9580   31.3880 H   0  0  0  0  0  0  0  0  0  0  0  0
   37.7430   26.9570   31.3270 H   0  0  0  0  0  0  0  0  0  0  0  0
   36.9410   24.6190   33.1090 H   0  0  0  0  0  0  0  0  0  0  0  0
   38.4760   24.8420   32.2030 H   0  0  0  0  0  0  0  0  0  0  0  0
   39.4620   25.7620   34.6160 C   0  0  0  0  0  0  0  0  0  0  0  0
   39.8660   26.7500   34.9900 H   0  0  0  0  0  0  0  0  0  0  0  0
   40.2020   25.4160   33.8810 H   0  0  0  0  0  0  0  0  0  0  0  0
   39.9040   23.4620   35.5730 C   0  0  2  0  0  3  0  0  0  0  0  0
   39.3030   24.8100   35.7560 C   0  0  2  0  0  3  0  0  0  0  0  0
   37.9650   24.6730   36.1370 O   0  0  0  0  0  0  0  0  0  0  0  0
   37.8910   24.3360   37.4980 C   0  0  0  0  0  2  0  0  0  0  0  0
   38.9940   23.3410   37.8330 C   0  0  2  0  0  3  0  0  0  0  0  0
   39.3090   22.5150   36.5850 C   0  0  1  0  0  3  0  0  0  0  0  0
   41.3000   23.4730   35.6390 O   0  0  0  0  0  0  0  0  0  0  0  0
   41.6870   22.6780   35.1910 H   0  0  0  0  0  0  0  0  0  0  0  0
   38.5170   22.5280   38.8530 O   0  0  0  0  0  0  0  0  0  0  0  0
   38.3760   21.5970   38.5790 H   0  0  0  0  0  0  0  0  0  0  0  0
   38.2080   21.8450   36.1210 O   0  0  0  0  0  0  0  0  0  0  0  0
   38.2330   21.7070   35.1400 H   0  0  0  0  0  0  0  0  0  0  0  0
   36.4910   28.6780   32.4490 O   0  0  0  0  0  0  0  0  0  0  0  0
   35.4920   29.5900   32.7920 C   0  0  0  0  0  0  0  0  0  0  0  0
   34.1860   29.2160   32.5290 C   0  0  0  0  0  0  0  0  0  0  0  0
   33.1760   30.1030   32.8600 C   0  0  0  0  0  0  0  0  0  0  0  0
   33.5060   31.2950   33.4240 N   0  0  0  0  0  0  0  0  0  0  0  0
   34.7920   31.6430   33.6740 C   0  0  0  0  0  0  0  0  0  0  0  0
   35.7520   30.7910   33.3560 N   0  0  0  0  0  0  0  0  0  0  0  0
   35.7790   32.7660   35.5090 C   0  0  0  0  0  0  0  0  0  0  0  0
   36.1180   31.7020   36.1060 O   0  0  0  0  0  0  0  0  0  0  0  0
   35.0960   32.9020   34.2660 N   0  0  0  0  0  0  0  0  0  0  0  0
   33.8870   28.2780   32.0830 H   0  0  0  0  0  0  0  0  0  0  0  0
   32.1410   29.8270   32.6610 H   0  0  0  0  0  0  0  0  0  0  0  0
   36.0800   33.6430   36.0790 H   0  0  0  0  0  0  0  0  0  0  0  0
   34.8760   33.8630   33.8880 H   0  0  0  0  0  0  0  0  0  0  0  0
  2  1  2  0  0  0  0
  3  7  1  1  0  0  0
  3  2  1  0  0  0  0
  4  5  1  0  0  0  0
  4  3  1  0  0  0  0
  5 10  1  0  0  0  0
  5  6  1  0  0  0  0
  6  2  1  0  0  0  0
  6 12  1  0  0  0  0
  8  4  1  0  0  0  0
  9  4  1  0  0  0  0
 11  5  1  0  0  0  0
 12 13  1  0  0  0  0
 14 12  1  0  0  0  0
 15 21  1  1  0  0  0
 15 16  1  0  0  0  0
 15 20  1  0  0  0  0
 16 12  1  6  0  0  0
 16 17  1  0  0  0  0
 17 18  1  0  0  0  0
 18 19  1  0  0  0  0
 19 23  1  1  0  0  0
 20 25  1  6  0  0  0
 20 19  1  0  0  0  0
 22 21  1  0  0  0  0
 24 23  1  0  0  0  0
 26 25  1  0  0  0  0
 27 28  1  0  0  0  0
 27  3  1  0  0  0  0
 28 33  1  0  0  0  0
 29 28  2  0  0  0  0
 29 30  1  0  0  0  0
 30 31  2  0  0  0  0
 31 32  1  0  0  0  0
 32 36  1  0  0  0  0
 33 32  2  0  0  0  0
 34 39  1  0  0  0  0
 34 35  2  0  0  0  0
 36 34  1  0  0  0  0
 37 29  1  0  0  0  0
 38 30  1  0  0  0  0
 40 36  1  0  0  0  0
M  END
>  <minimizedAffinity>
-5.85993958

$$$$

 OpenBabel03272506403D

 40 42  0  0  1  0  0  0  0  0999 V2000
   37.4630   26.3070   33.5410 O   0  0  0  0  0  0  0  0  0  0  0  0
   36.9390   25.5600   32.7060 C   0  0  0  0  0  0  0  0  0  0  0  0
   36.0470   26.0750   31.6890 C   0  0  2  0  0  0  0  0  0  0  0  0
   35.8090   24.8020   30.8110 C   0  0  0  0  0  0  0  0  0  0  0  0
   36.0450   23.6820   31.7900 C   0  0  0  0  0  0  0  0  0  0  0  0
   37.1380   24.1420   32.6370 N   0  0  0  0  0  0  0  0  0  0  0  0
   35.0780   26.4380   32.0220 H   0  0  0  0  0  0  0  0  0  0  0  0
   34.7490   24.8130   30.4970 H   0  0  0  0  0  0  0  0  0  0  0  0
   36.5400   24.7810   29.9990 H   0  0  0  0  0  0  0  0  0  0  0  0
   35.1140   23.5230   32.3800 H   0  0  0  0  0  0  0  0  0  0  0  0
   36.2860   22.7510   31.2590 H   0  0  0  0  0  0  0  0  0  0  0  0
   38.1400   23.3070   33.2330 C   0  0  0  0  0  0  0  0  0  0  0  0
   39.1270   23.7380   32.8890 H   0  0  0  0  0  0  0  0  0  0  0  0
   38.0880   22.3140   32.7640 H   0  0  0  0  0  0  0  0  0  0  0  0
   39.3540   23.6350   35.4280 C   0  0  2  0  0  3  0  0  0  0  0  0
   38.1070   23.2340   34.7250 C   0  0  2  0  0  3  0  0  0  0  0  0
   37.7070   21.9720   35.1750 O   0  0  0  0  0  0  0  0  0  0  0  0
   37.0890   22.0900   36.4300 C   0  0  0  0  0  2  0  0  0  0  0  0
   37.8430   23.1110   37.2710 C   0  0  2  0  0  3  0  0  0  0  0  0
   39.3120   23.1140   36.8430 C   0  0  1  0  0  3  0  0  0  0  0  0
   39.5800   25.0130   35.3960 O   0  0  0  0  0  0  0  0  0  0  0  0
   40.5350   25.2250   35.5520 H   0  0  0  0  0  0  0  0  0  0  0  0
   37.7190   22.7220   38.5980 O   0  0  0  0  0  0  0  0  0  0  0  0
   38.5640   22.4300   39.0020 H   0  0  0  0  0  0  0  0  0  0  0  0
   39.8900   21.8800   36.9850 O   0  0  0  0  0  0  0  0  0  0  0  0
   40.6160   21.7230   36.3290 H   0  0  0  0  0  0  0  0  0  0  0  0
   36.6360   27.0400   30.8200 O   0  0  0  0  0  0  0  0  0  0  0  0
   36.3280   28.3830   31.0410 C   0  0  0  0  0  0  0  0  0  0  0  0
   36.7690   29.2910   30.0960 C   0  0  0  0  0  0  0  0  0  0  0  0
   36.4760   30.6300   30.2920 C   0  0  0  0  0  0  0  0  0  0  0  0
   35.7750   30.9940   31.3980 N   0  0  0  0  0  0  0  0  0  0  0  0
   35.3520   30.0890   32.3140 C   0  0  0  0  0  0  0  0  0  0  0  0
   35.6340   28.8120   32.1210 N   0  0  0  0  0  0  0  0  0  0  0  0
   33.3250   29.9210   33.5250 C   0  0  0  0  0  0  0  0  0  0  0  0
   32.7910   29.1100   32.7120 O   0  0  0  0  0  0  0  0  0  0  0  0
   34.6200   30.5110   33.4610 N   0  0  0  0  0  0  0  0  0  0  0  0
   37.3270   29.0380   29.2060 H   0  0  0  0  0  0  0  0  0  0  0  0
   36.8140   31.3610   29.5590 H   0  0  0  0  0  0  0  0  0  0  0  0
   32.6500   30.1470   34.3490 H   0  0  0  0  0  0  0  0  0  0  0  0
   34.9340   31.1780   34.2170 H   0  0  0  0  0  0  0  0  0  0  0  0
  2  1  2  0  0  0  0
  3  7  1  1  0  0  0
  3  2  1  0  0  0  0
  4  3  1  0  0  0  0
  4  5  1  0  0  0  0
  5 10  1  0  0  0  0
  5  6  1  0  0  0  0
  6  2  1  0  0  0  0
  6 12  1  0  0  0  0
  8  4  1  0  0  0  0
  9  4  1  0  0  0  0
 11  5  1  0  0  0  0
 13 12  1  0  0  0  0
 14 12  1  0  0  0  0
 15 21  1  1  0  0  0
 15 20  1  0  0  0  0
 16 12  1  6  0  0  0
 16 17  1  0  0  0  0
 16 15  1  0  0  0  0
 17 18  1  0  0  0  0
 18 19  1  0  0  0  0
 19 23  1  1  0  0  0
 20 25  1  6  0  0  0
 20 19  1  0  0  0  0
 21 22  1  0  0  0  0
 23 24  1  0  0  0  0
 26 25  1  0  0  0  0
 27 28  1  0  0  0  0
 27  3  1  0  0  0  0
 28 33  1  0  0  0  0
 29 30  1  0  0  0  0
 29 28  2  0  0  0  0
 30 31  2  0  0  0  0
 31 32  1  0  0  0  0
 32 36  1  0  0  0  0
 33 32  2  0  0  0  0
 34 39  1  0  0  0  0
 35 34  2  0  0  0  0
 36 34  1  0  0  0  0
 36 40  1  0  0  0  0
 37 29  1  0  0  0  0
 38 30  1  0  0  0  0
M  END
>  <minimizedAffinity>
-5.82065964

$$$$

 OpenBabel03272506403D

 40 42  0  0  1  0  0  0  0  0999 V2000
   37.6960   26.2610   31.4700 O   0  0  0  0  0  0  0  0  0  0  0  0
   37.5200   26.6200   32.6400 C   0  0  0  0  0  0  0  0  0  0  0  0
   36.8820   27.8810   32.9530 C   0  0  2  0  0  0  0  0  0  0  0  0
   36.7410   27.7800   34.5080 C   0  0  0  0  0  0  0  0  0  0  0  0
   37.8600   26.8410   34.8760 C   0  0  0  0  0  0  0  0  0  0  0  0
   37.9070   25.8650   33.7950 N   0  0  0  0  0  0  0  0  0  0  0  0
   37.4400   28.7860   32.7250 H   0  0  0  0  0  0  0  0  0  0  0  0
   36.9410   28.7860   34.9220 H   0  0  0  0  0  0  0  0  0  0  0  0
   35.7660   27.3550   34.7570 H   0  0  0  0  0  0  0  0  0  0  0  0
   38.8070   27.4230   34.9390 H   0  0  0  0  0  0  0  0  0  0  0  0
   37.6680   26.3790   35.8540 H   0  0  0  0  0  0  0  0  0  0  0  0
   38.2720   24.4850   33.9330 C   0  0  0  0  0  0  0  0  0  0  0  0
   39.1870   24.3550   33.2810 H   0  0  0  0  0  0  0  0  0  0  0  0
   37.4960   23.8710   33.4550 H   0  0  0  0  0  0  0  0  0  0  0  0
   39.9620   23.5800   35.5850 C   0  0  2  0  0  3  0  0  0  0  0  0
   38.5710   24.0400   35.3270 C   0  0  2  0  0  3  0  0  0  0  0  0
   37.6720   23.0630   35.7650 O   0  0  0  0  0  0  0  0  0  0  0  0
   37.5490   23.1230   37.1620 C   0  0  0  0  0  2  0  0  0  0  0  0
   38.9160   23.3810   37.7800 C   0  0  2  0  0  3  0  0  0  0  0  0
   39.9890   22.7860   36.8670 C   0  0  1  0  0  3  0  0  0  0  0  0
   40.8870   24.6260   35.6080 O   0  0  0  0  0  0  0  0  0  0  0  0
   41.8060   24.2960   35.4390 H   0  0  0  0  0  0  0  0  0  0  0  0
   38.9290   22.7610   39.0230 O   0  0  0  0  0  0  0  0  0  0  0  0
   39.5450   22.0000   39.0750 H   0  0  0  0  0  0  0  0  0  0  0  0
   39.8140   21.4410   36.6780 O   0  0  0  0  0  0  0  0  0  0  0  0
   40.1490   21.1340   35.7970 H   0  0  0  0  0  0  0  0  0  0  0  0
   35.5530   28.0110   32.4520 O   0  0  0  0  0  0  0  0  0  0  0  0
   35.0590   29.3020   32.2570 C   0  0  0  0  0  0  0  0  0  0  0  0
   34.2130   29.8020   33.2310 C   0  0  0  0  0  0  0  0  0  0  0  0
   33.7090   31.0800   33.0610 C   0  0  0  0  0  0  0  0  0  0  0  0
   34.0620   31.7840   31.9520 N   0  0  0  0  0  0  0  0  0  0  0  0
   34.8920   31.2760   31.0090 C   0  0  0  0  0  0  0  0  0  0  0  0
   35.3700   30.0550   31.1780 N   0  0  0  0  0  0  0  0  0  0  0  0
   36.6390   32.2740   29.7630 C   0  0  0  0  0  0  0  0  0  0  0  0
   37.5540   31.8870   30.5480 O   0  0  0  0  0  0  0  0  0  0  0  0
   35.2360   32.0450   29.8610 N   0  0  0  0  0  0  0  0  0  0  0  0
   33.9120   29.2720   34.1230 H   0  0  0  0  0  0  0  0  0  0  0  0
   33.0410   31.4930   33.8160 H   0  0  0  0  0  0  0  0  0  0  0  0
   37.0540   32.8460   28.9340 H   0  0  0  0  0  0  0  0  0  0  0  0
   34.5850   32.4340   29.1250 H   0  0  0  0  0  0  0  0  0  0  0  0
  1  2  2  0  0  0  0
  2  3  1  0  0  0  0
  2  6  1  0  0  0  0
  3  7  1  6  0  0  0
  3  4  1  0  0  0  0
  4  9  1  0  0  0  0
  4  5  1  0  0  0  0
  4  8  1  0  0  0  0
  5 10  1  0  0  0  0
  5 11  1  0  0  0  0
  6 12  1  0  0  0  0
  6  5  1  0  0  0  0
 13 12  1  0  0  0  0
 14 12  1  0  0  0  0
 15 21  1  1  0  0  0
 15 20  1  0  0  0  0
 16 12  1  6  0  0  0
 16 15  1  0  0  0  0
 16 17  1  0  0  0  0
 17 18  1  0  0  0  0
 18 19  1  0  0  0  0
 19 23  1  1  0  0  0
 20 25  1  6  0  0  0
 20 19  1  0  0  0  0
 22 21  1  0  0  0  0
 23 24  1  0  0  0  0
 26 25  1  0  0  0  0
 27  3  1  0  0  0  0
 28 27  1  0  0  0  0
 28 29  1  0  0  0  0
 29 37  1  0  0  0  0
 30 29  2  0  0  0  0
 30 38  1  0  0  0  0
 31 30  1  0  0  0  0
 32 33  1  0  0  0  0
 32 31  2  0  0  0  0
 33 28  2  0  0  0  0
 34 36  1  0  0  0  0
 34 35  2  0  0  0  0
 36 32  1  0  0  0  0
 39 34  1  0  0  0  0
 40 36  1  0  0  0  0
M  END
>  <minimizedAffinity>
-5.75287294

$$$$

 OpenBabel03272506403D

 40 42  0  0  1  0  0  0  0  0999 V2000
   37.9810   27.4620   35.6110 O   0  0  0  0  0  0  0  0  0  0  0  0
   37.5070   27.3480   34.4750 C   0  0  0  0  0  0  0  0  0  0  0  0
   37.9370   26.2940   33.5820 C   0  0  2  0  0  0  0  0  0  0  0  0
   36.9420   26.4730   32.3880 C   0  0  0  0  0  0  0  0  0  0  0  0
   36.5750   27.9300   32.4860 C   0  0  0  0  0  0  0  0  0  0  0  0
   36.5080   28.2100   33.9150 N   0  0  0  0  0  0  0  0  0  0  0  0
   38.9480   26.3620   33.1890 H   0  0  0  0  0  0  0  0  0  0  0  0
   37.5090   26.2880   31.4570 H   0  0  0  0  0  0  0  0  0  0  0  0
   36.0710   25.8320   32.5420 H   0  0  0  0  0  0  0  0  0  0  0  0
   37.3710   28.5320   31.9920 H   0  0  0  0  0  0  0  0  0  0  0  0
   35.6220   28.1230   31.9730 H   0  0  0  0  0  0  0  0  0  0  0  0
   35.6230   29.1490   34.5400 C   0  0  0  0  0  0  0  0  0  0  0  0
   36.2960   29.9570   34.9550 H   0  0  0  0  0  0  0  0  0  0  0  0
   35.1780   28.6720   35.4240 H   0  0  0  0  0  0  0  0  0  0  0  0
   34.6700   31.2270   33.4550 C   0  0  2  0  0  3  0  0  0  0  0  0
   34.5940   29.7530   33.6410 C   0  0  2  0  0  3  0  0  0  0  0  0
   33.2960   29.4020   34.0260 O   0  0  0  0  0  0  0  0  0  0  0  0
   32.4500   29.4130   32.9060 C   0  0  0  0  0  2  0  0  0  0  0  0
   32.7990   30.6010   32.0200 C   0  0  2  0  0  3  0  0  0  0  0  0
   33.3590   31.7220   32.8970 C   0  0  1  0  0  3  0  0  0  0  0  0
   35.7480   31.6220   32.6600 O   0  0  0  0  0  0  0  0  0  0  0  0
   35.9850   32.5710   32.8200 H   0  0  0  0  0  0  0  0  0  0  0  0
   31.6270   31.0050   31.3950 O   0  0  0  0  0  0  0  0  0  0  0  0
   31.3110   31.8870   31.6860 H   0  0  0  0  0  0  0  0  0  0  0  0
   32.4690   32.1120   33.8630 O   0  0  0  0  0  0  0  0  0  0  0  0
   32.9190   32.4500   34.6790 H   0  0  0  0  0  0  0  0  0  0  0  0
   37.7150   24.9740   34.0750 O   0  0  0  0  0  0  0  0  0  0  0  0
   38.7110   24.4040   34.8690 C   0  0  0  0  0  0  0  0  0  0  0  0
   40.0120   24.5080   34.4120 C   0  0  0  0  0  0  0  0  0  0  0  0
   41.0190   23.9500   35.1810 C   0  0  0  0  0  0  0  0  0  0  0  0
   40.6900   23.3270   36.3440 N   0  0  0  0  0  0  0  0  0  0  0  0
   39.4080   23.2350   36.7750 C   0  0  0  0  0  0  0  0  0  0  0  0
   38.4510   23.7700   36.0360 N   0  0  0  0  0  0  0  0  0  0  0  0
   38.4680   23.4350   38.9380 C   0  0  0  0  0  0  0  0  0  0  0  0
   38.1670   24.6570   38.8030 O   0  0  0  0  0  0  0  0  0  0  0  0
   39.1040   22.5730   37.9980 N   0  0  0  0  0  0  0  0  0  0  0  0
   40.3100   24.9960   33.4950 H   0  0  0  0  0  0  0  0  0  0  0  0
   42.0510   24.0220   34.8390 H   0  0  0  0  0  0  0  0  0  0  0  0
   38.1730   23.0680   39.9200 H   0  0  0  0  0  0  0  0  0  0  0  0
   39.2960   21.5660   38.2520 H   0  0  0  0  0  0  0  0  0  0  0  0
  2  1  2  0  0  0  0
  3  7  1  6  0  0  0
  3 27  1  0  0  0  0
  3  2  1  0  0  0  0
  4  5  1  0  0  0  0
  4  9  1  0  0  0  0
  4  3  1  0  0  0  0
  5  6  1  0  0  0  0
  6  2  1  0  0  0  0
  6 12  1  0  0  0  0
  8  4  1  0  0  0  0
 10  5  1  0  0  0  0
 11  5  1  0  0  0  0
 12 13  1  0  0  0  0
 12 14  1  0  0  0  0
 15 21  1  6  0  0  0
 15 16  1  0  0  0  0
 16 17  1  0  0  0  0
 16 12  1  1  0  0  0
 18 17  1  0  0  0  0
 19 23  1  1  0  0  0
 19 20  1  0  0  0  0
 19 18  1  0  0  0  0
 20 15  1  0  0  0  0
 20 25  1  1  0  0  0
 21 22  1  0  0  0  0
 23 24  1  0  0  0  0
 25 26  1  0  0  0  0
 27 28  1  0  0  0  0
 28 33  1  0  0  0  0
 29 28  2  0  0  0  0
 29 30  1  0  0  0  0
 30 31  2  0  0  0  0
 31 32  1  0  0  0  0
 32 36  1  0  0  0  0
 33 32  2  0  0  0  0
 34 39  1  0  0  0  0
 35 34  2  0  0  0  0
 36 40  1  0  0  0  0
 36 34  1  0  0  0  0
 37 29  1  0  0  0  0
 38 30  1  0  0  0  0
M  END
>  <minimizedAffinity>
-5.72695732

$$$$

 OpenBabel03272506403D

 40 42  0  0  1  0  0  0  0  0999 V2000
   38.7230   26.1550   31.4470 O   0  0  0  0  0  0  0  0  0  0  0  0
   38.1240   26.5160   32.4670 C   0  0  0  0  0  0  0  0  0  0  0  0
   37.4870   27.8130   32.5480 C   0  0  2  0  0  0  0  0  0  0  0  0
   36.7440   27.7090   33.9210 C   0  0  0  0  0  0  0  0  0  0  0  0
   37.5750   26.6960   34.6650 C   0  0  0  0  0  0  0  0  0  0  0  0
   37.9860   25.7280   33.6570 N   0  0  0  0  0  0  0  0  0  0  0  0
   38.1400   28.6810   32.5850 H   0  0  0  0  0  0  0  0  0  0  0  0
   36.8230   28.6960   34.4130 H   0  0  0  0  0  0  0  0  0  0  0  0
   35.7270   27.3460   33.7570 H   0  0  0  0  0  0  0  0  0  0  0  0
   38.4540   27.2160   35.1110 H   0  0  0  0  0  0  0  0  0  0  0  0
   36.9910   26.2390   35.4760 H   0  0  0  0  0  0  0  0  0  0  0  0
   38.1890   24.3260   33.8810 C   0  0  0  0  0  0  0  0  0  0  0  0
   39.0510   24.0410   33.2060 H   0  0  0  0  0  0  0  0  0  0  0  0
   37.3250   23.7800   33.4780 H   0  0  0  0  0  0  0  0  0  0  0  0
   39.8990   23.5300   35.5680 C   0  0  2  0  0  3  0  0  0  0  0  0
   38.4970   23.9430   35.2920 C   0  0  2  0  0  3  0  0  0  0  0  0
   37.6230   22.9600   35.7660 O   0  0  0  0  0  0  0  0  0  0  0  0
   37.4950   23.0710   37.1590 C   0  0  0  0  0  2  0  0  0  0  0  0
   38.8530   23.3890   37.7680 C   0  0  2  0  0  3  0  0  0  0  0  0
   39.9440   22.7870   36.8800 C   0  0  1  0  0  3  0  0  0  0  0  0
   40.7960   24.6000   35.5530 O   0  0  0  0  0  0  0  0  0  0  0  0
   41.7240   24.2890   35.3980 H   0  0  0  0  0  0  0  0  0  0  0  0
   38.8800   22.8170   39.0340 O   0  0  0  0  0  0  0  0  0  0  0  0
   39.5160   22.0750   39.1160 H   0  0  0  0  0  0  0  0  0  0  0  0
   39.8050   21.4310   36.7430 O   0  0  0  0  0  0  0  0  0  0  0  0
   40.1500   21.1000   35.8740 H   0  0  0  0  0  0  0  0  0  0  0  0
   36.4690   28.0320   31.5740 O   0  0  0  0  0  0  0  0  0  0  0  0
   36.4990   29.2360   30.8670 C   0  0  0  0  0  0  0  0  0  0  0  0
   37.2390   29.2570   29.6980 C   0  0  0  0  0  0  0  0  0  0  0  0
   37.2850   30.4390   28.9780 C   0  0  0  0  0  0  0  0  0  0  0  0
   36.6080   31.5210   29.4470 N   0  0  0  0  0  0  0  0  0  0  0  0
   35.8890   31.4800   30.5950 C   0  0  0  0  0  0  0  0  0  0  0  0
   35.8490   30.3480   31.2780 N   0  0  0  0  0  0  0  0  0  0  0  0
   33.7910   32.4180   31.1600 C   0  0  0  0  0  0  0  0  0  0  0  0
   33.1380   31.3650   30.9010 O   0  0  0  0  0  0  0  0  0  0  0  0
   35.1950   32.6360   31.0530 N   0  0  0  0  0  0  0  0  0  0  0  0
   37.7880   28.4180   29.2960 H   0  0  0  0  0  0  0  0  0  0  0  0
   37.8610   30.4760   28.0550 H   0  0  0  0  0  0  0  0  0  0  0  0
   33.1280   33.2120   31.5010 H   0  0  0  0  0  0  0  0  0  0  0  0
   35.6030   33.5770   31.3050 H   0  0  0  0  0  0  0  0  0  0  0  0
  1  2  2  0  0  0  0
  2  3  1  0  0  0  0
  2  6  1  0  0  0  0
  3  7  1  1  0  0  0
  3  4  1  0  0  0  0
  4  8  1  0  0  0  0
  4  5  1  0  0  0  0
  5 10  1  0  0  0  0
  5 11  1  0  0  0  0
  6 12  1  0  0  0  0
  6  5  1  0  0  0  0
  9  4  1  0  0  0  0
 13 12  1  0  0  0  0
 14 12  1  0  0  0  0
 15 21  1  1  0  0  0
 15 20  1  0  0  0  0
 16 12  1  6  0  0  0
 16 15  1  0  0  0  0
 16 17  1  0  0  0  0
 17 18  1  0  0  0  0
 18 19  1  0  0  0  0
 19 23  1  1  0  0  0
 20 25  1  6  0  0  0
 20 19  1  0  0  0  0
 22 21  1  0  0  0  0
 23 24  1  0  0  0  0
 26 25  1  0  0  0  0
 27  3  1  0  0  0  0
 28 33  1  0  0  0  0
 28 27  1  0  0  0  0
 29 28  2  0  0  0  0
 30 31  2  0  0  0  0
 30 29  1  0  0  0  0
 31 32  1  0  0  0  0
 32 36  1  0  0  0  0
 32 33  2  0  0  0  0
 34 39  1  0  0  0  0
 35 34  2  0  0  0  0
 36 34  1  0  0  0  0
 36 40  1  0  0  0  0
 37 29  1  0  0  0  0
 38 30  1  0  0  0  0
M  END
>  <minimizedAffinity>
-5.61805391

$$$$

 OpenBabel03272506403D

 40 42  0  0  1  0  0  0  0  0999 V2000
   36.0720   28.3380   34.5440 O   0  0  0  0  0  0  0  0  0  0  0  0
   36.0070   29.1200   33.5880 C   0  0  0  0  0  0  0  0  0  0  0  0
   35.3090   30.3840   33.6960 C   0  0  2  0  0  0  0  0  0  0  0  0
   35.6630   31.0520   32.3260 C   0  0  0  0  0  0  0  0  0  0  0  0
   35.9250   29.8610   31.4410 C   0  0  0  0  0  0  0  0  0  0  0  0
   36.5910   28.8900   32.3000 N   0  0  0  0  0  0  0  0  0  0  0  0
   34.2260   30.3430   33.7790 H   0  0  0  0  0  0  0  0  0  0  0  0
   34.7600   31.5880   31.9790 H   0  0  0  0  0  0  0  0  0  0  0  0
   36.5590   31.6660   32.4420 H   0  0  0  0  0  0  0  0  0  0  0  0
   34.9500   29.4730   31.0690 H   0  0  0  0  0  0  0  0  0  0  0  0
   36.5390   30.1510   30.5770 H   0  0  0  0  0  0  0  0  0  0  0  0
   37.5870   27.9480   31.8770 C   0  0  0  0  0  0  0  0  0  0  0  0
   38.4220   28.0420   32.6350 H   0  0  0  0  0  0  0  0  0  0  0  0
   38.0230   28.3040   30.9330 H   0  0  0  0  0  0  0  0  0  0  0  0
   38.2010   25.4960   31.7680 C   0  0  2  0  0  3  0  0  0  0  0  0
   37.1300   26.5290   31.7940 C   0  0  2  0  0  3  0  0  0  0  0  0
   36.2630   26.3240   30.7160 O   0  0  0  0  0  0  0  0  0  0  0  0
   35.3930   25.2600   31.0030 C   0  0  0  0  0  2  0  0  0  0  0  0
   36.1620   24.1570   31.7190 C   0  0  2  0  0  3  0  0  0  0  0  0
   37.6220   24.1980   31.2630 C   0  0  1  0  0  3  0  0  0  0  0  0
   38.8300   25.3310   33.0030 O   0  0  0  0  0  0  0  0  0  0  0  0
   39.7250   24.9180   32.8980 H   0  0  0  0  0  0  0  0  0  0  0  0
   35.5710   22.9500   31.3670 O   0  0  0  0  0  0  0  0  0  0  0  0
   36.1460   22.3780   30.8150 H   0  0  0  0  0  0  0  0  0  0  0  0
   37.7410   24.0400   29.9070 O   0  0  0  0  0  0  0  0  0  0  0  0
   38.5350   24.5050   29.5390 H   0  0  0  0  0  0  0  0  0  0  0  0
   35.8240   31.2590   34.6970 O   0  0  0  0  0  0  0  0  0  0  0  0
   34.9410   31.7080   35.6800 C   0  0  0  0  0  0  0  0  0  0  0  0
   35.2400   32.9150   36.2860 C   0  0  0  0  0  0  0  0  0  0  0  0
   34.3790   33.3820   37.2650 C   0  0  0  0  0  0  0  0  0  0  0  0
   33.2870   32.6410   37.5880 N   0  0  0  0  0  0  0  0  0  0  0  0
   33.0120   31.4600   36.9830 C   0  0  0  0  0  0  0  0  0  0  0  0
   33.8370   31.0200   36.0480 N   0  0  0  0  0  0  0  0  0  0  0  0
   30.9670   30.5150   36.2560 C   0  0  0  0  0  0  0  0  0  0  0  0
   31.0910   30.9160   35.0610 O   0  0  0  0  0  0  0  0  0  0  0  0
   31.8570   30.7120   37.3510 N   0  0  0  0  0  0  0  0  0  0  0  0
   36.0970   33.5300   36.0550 H   0  0  0  0  0  0  0  0  0  0  0  0
   34.5960   34.3310   37.7540 H   0  0  0  0  0  0  0  0  0  0  0  0
   30.0400   29.9580   36.3840 H   0  0  0  0  0  0  0  0  0  0  0  0
   31.6200   30.3170   38.3010 H   0  0  0  0  0  0  0  0  0  0  0  0
  2  3  1  0  0  0  0
  2  1  2  0  0  0  0
  3  7  1  1  0  0  0
  3 27  1  0  0  0  0
  4  9  1  0  0  0  0
  4  3  1  0  0  0  0
  5  6  1  0  0  0  0
  5  4  1  0  0  0  0
  6  2  1  0  0  0  0
  8  4  1  0  0  0  0
 10  5  1  0  0  0  0
 11  5  1  0  0  0  0
 12  6  1  0  0  0  0
 12 13  1  0  0  0  0
 14 12  1  0  0  0  0
 15 16  1  0  0  0  0
 15 21  1  1  0  0  0
 16 12  1  6  0  0  0
 17 18  1  0  0  0  0
 17 16  1  0  0  0  0
 18 19  1  0  0  0  0
 19 23  1  6  0  0  0
 20 25  1  6  0  0  0
 20 19  1  0  0  0  0
 20 15  1  0  0  0  0
 22 21  1  0  0  0  0
 24 23  1  0  0  0  0
 26 25  1  0  0  0  0
 27 28  1  0  0  0  0
 28 33  2  0  0  0  0
 28 29  1  0  0  0  0
 29 30  2  0  0  0  0
 30 31  1  0  0  0  0
 30 38  1  0  0  0  0
 32 36  1  0  0  0  0
 32 31  2  0  0  0  0
 33 32  1  0  0  0  0
 34 39  1  0  0  0  0
 34 36  1  0  0  0  0
 35 34  2  0  0  0  0
 36 40  1  0  0  0  0
 37 29  1  0  0  0  0
M  END
>  <minimizedAffinity>
-5.61012936

$$$$

 OpenBabel03272506403D

 40 42  0  0  1  0  0  0  0  0999 V2000
   37.3570   24.1530   31.9160 O   0  0  0  0  0  0  0  0  0  0  0  0
   38.1940   24.9750   32.3090 C   0  0  0  0  0  0  0  0  0  0  0  0
   37.9630   26.3990   32.1910 C   0  0  2  0  0  0  0  0  0  0  0  0
   39.1920   26.9780   32.9680 C   0  0  0  0  0  0  0  0  0  0  0  0
   40.2130   25.8790   32.8270 C   0  0  0  0  0  0  0  0  0  0  0  0
   39.4520   24.6400   32.9090 N   0  0  0  0  0  0  0  0  0  0  0  0
   37.9730   26.8180   31.1880 H   0  0  0  0  0  0  0  0  0  0  0  0
   39.5290   27.8790   32.4240 H   0  0  0  0  0  0  0  0  0  0  0  0
   38.9180   27.1350   34.0140 H   0  0  0  0  0  0  0  0  0  0  0  0
   40.7130   25.9840   31.8370 H   0  0  0  0  0  0  0  0  0  0  0  0
   40.9760   25.9590   33.6130 H   0  0  0  0  0  0  0  0  0  0  0  0
   39.9230   23.4070   33.4710 C   0  0  0  0  0  0  0  0  0  0  0  0
   41.0170   23.3530   33.1870 H   0  0  0  0  0  0  0  0  0  0  0  0
   39.4510   22.5750   32.9300 H   0  0  0  0  0  0  0  0  0  0  0  0
   41.0300   23.0860   35.7240 C   0  0  2  0  0  3  0  0  0  0  0  0
   39.7730   23.2820   34.9520 C   0  0  2  0  0  3  0  0  0  0  0  0
   38.8570   22.2850   35.2990 O   0  0  0  0  0  0  0  0  0  0  0  0
   38.2710   22.5900   36.5380 C   0  0  0  0  0  2  0  0  0  0  0  0
   39.3310   23.1560   37.4730 C   0  0  2  0  0  3  0  0  0  0  0  0
   40.6890   22.5610   37.0960 C   0  0  1  0  0  3  0  0  0  0  0  0
   41.8120   24.2410   35.7950 O   0  0  0  0  0  0  0  0  0  0  0  0
   42.7570   24.0220   35.9980 H   0  0  0  0  0  0  0  0  0  0  0  0
   38.9760   22.7900   38.7650 O   0  0  0  0  0  0  0  0  0  0  0  0
   39.5950   22.1500   39.1750 H   0  0  0  0  0  0  0  0  0  0  0  0
   40.6890   21.1940   37.1710 O   0  0  0  0  0  0  0  0  0  0  0  0
   41.3210   20.7780   36.5300 H   0  0  0  0  0  0  0  0  0  0  0  0
   36.8100   26.8700   32.8860 O   0  0  0  0  0  0  0  0  0  0  0  0
   36.3610   28.1580   32.5940 C   0  0  0  0  0  0  0  0  0  0  0  0
   36.3410   28.5280   31.2610 C   0  0  0  0  0  0  0  0  0  0  0  0
   35.8990   29.8020   30.9450 C   0  0  0  0  0  0  0  0  0  0  0  0
   35.5080   30.6300   31.9500 N   0  0  0  0  0  0  0  0  0  0  0  0
   35.5350   30.2490   33.2510 C   0  0  0  0  0  0  0  0  0  0  0  0
   35.9580   29.0310   33.5450 N   0  0  0  0  0  0  0  0  0  0  0  0
   34.0200   30.6390   35.0260 C   0  0  0  0  0  0  0  0  0  0  0  0
   33.4120   29.5380   34.8820 O   0  0  0  0  0  0  0  0  0  0  0  0
   35.1180   31.1470   34.2740 N   0  0  0  0  0  0  0  0  0  0  0  0
   36.6430   27.8970   30.4380 H   0  0  0  0  0  0  0  0  0  0  0  0
   35.8750   30.1120   29.9020 H   0  0  0  0  0  0  0  0  0  0  0  0
   33.5920   31.2140   35.8460 H   0  0  0  0  0  0  0  0  0  0  0  0
   35.5260   32.0920   34.5090 H   0  0  0  0  0  0  0  0  0  0  0  0
  1  2  2  0  0  0  0
  2  6  1  0  0  0  0
  3  7  1  6  0  0  0
  3  2  1  0  0  0  0
  3 27  1  0  0  0  0
  3  4  1  0  0  0  0
  4  9  1  0  0  0  0
  5  6  1  0  0  0  0
  5  4  1  0  0  0  0
  5 11  1  0  0  0  0
  6 12  1  0  0  0  0
  8  4  1  0  0  0  0
 10  5  1  0  0  0  0
 13 12  1  0  0  0  0
 14 12  1  0  0  0  0
 15 21  1  1  0  0  0
 15 20  1  0  0  0  0
 16 12  1  6  0  0  0
 16 17  1  0  0  0  0
 16 15  1  0  0  0  0
 17 18  1  0  0  0  0
 18 19  1  0  0  0  0
 19 23  1  1  0  0  0
 20 25  1  6  0  0  0
 20 19  1  0  0  0  0
 21 22  1  0  0  0  0
 23 24  1  0  0  0  0
 26 25  1  0  0  0  0
 28 27  1  0  0  0  0
 28 33  1  0  0  0  0
 29 28  2  0  0  0  0
 30 29  1  0  0  0  0
 30 31  2  0  0  0  0
 31 32  1  0  0  0  0
 32 33  2  0  0  0  0
 32 36  1  0  0  0  0
 34 39  1  0  0  0  0
 35 34  2  0  0  0  0
 36 40  1  0  0  0  0
 36 34  1  0  0  0  0
 37 29  1  0  0  0  0
 38 30  1  0  0  0  0
M  END
>  <minimizedAffinity>
-5.60343838

$$$$
