
 OpenBabel03272508273D

 41 44  0  0  1  0  0  0  0  0999 V2000
   33.7950   28.8690   47.3130 C   0  0  2  0  0  0  0  0  0  0  0  0
   34.5450   28.1140   48.3890 C   0  0  2  0  0  0  0  0  0  0  0  0
   33.6700   27.9830   49.4230 O   0  0  0  0  0  0  0  0  0  0  0  0
   32.3790   28.0720   48.9730 C   0  0  0  0  0  0  0  0  0  0  0  0
   32.4170   28.2340   47.4670 C   0  0  1  0  0  0  0  0  0  0  0  0
   33.7330   29.9500   47.5310 H   0  0  0  0  0  0  0  0  0  0  0  0
   34.8020   27.1260   47.9720 H   0  0  0  0  0  0  0  0  0  0  0  0
   31.8880   29.0050   49.3790 H   0  0  0  0  0  0  0  0  0  0  0  0
   31.7340   27.2320   49.2620 H   0  0  0  0  0  0  0  0  0  0  0  0
   32.3740   27.2440   47.0080 H   0  0  0  0  0  0  0  0  0  0  0  0
   35.6490   30.3480   49.1010 C   0  0  1  0  0  0  0  0  0  0  0  0
   35.7310   28.9440   48.7740 C   0  0  1  0  0  0  0  0  0  0  0  0
   36.0010   29.3250   50.1920 C   0  0  0  0  0  0  0  0  0  0  0  0
   34.7420   30.9150   49.4290 H   0  0  0  0  0  0  0  0  0  0  0  0
   36.6340   28.6610   48.1540 H   0  0  0  0  0  0  0  0  0  0  0  0
   37.0510   29.2590   50.5390 H   0  0  0  0  0  0  0  0  0  0  0  0
   35.2850   29.0870   50.9760 H   0  0  0  0  0  0  0  0  0  0  0  0
   36.8140   31.2850   48.8130 C   0  0  0  0  0  0  0  0  0  0  0  0
   37.0580   32.2980   49.7410 C   0  0  0  0  0  0  0  0  0  0  0  0
   38.1140   33.1460   49.4140 C   0  0  0  0  0  0  0  0  0  0  0  0
   38.8350   32.9680   48.2640 N   0  0  0  0  0  0  0  0  0  0  0  0
   38.5570   31.9680   47.3970 C   0  0  0  0  0  0  0  0  0  0  0  0
   37.5370   31.1180   47.6740 N   0  0  0  0  0  0  0  0  0  0  0  0
   36.4930   32.4280   50.6300 H   0  0  0  0  0  0  0  0  0  0  0  0
   38.4000   33.9730   50.0590 H   0  0  0  0  0  0  0  0  0  0  0  0
   39.1120   31.8090   46.4840 H   0  0  0  0  0  0  0  0  0  0  0  0
   34.3050   28.6640   46.0400 O   0  0  0  0  0  0  0  0  0  0  0  0
   34.0860   27.7410   45.7810 H   0  0  0  0  0  0  0  0  0  0  0  0
   31.4140   29.0310   46.9800 O   0  0  0  0  0  0  0  0  0  0  0  0
   30.5010   28.8090   44.7840 C   0  0  2  0  0  3  0  0  0  0  0  0
   30.4970   28.3210   46.2160 C   0  0  2  0  0  3  0  0  0  0  0  0
   29.2000   28.4450   46.7100 O   0  0  0  0  0  0  0  0  0  0  0  0
   28.4750   27.3260   46.2910 C   0  0  0  0  0  2  0  0  0  0  0  0
   28.7250   27.0210   44.8310 C   0  0  2  0  0  3  0  0  0  0  0  0
   29.2830   28.2220   44.0970 C   0  0  2  0  0  3  0  0  0  0  0  0
   31.6440   28.2970   44.1700 O   0  0  0  0  0  0  0  0  0  0  0  0
   31.3970   27.4500   43.7050 H   0  0  0  0  0  0  0  0  0  0  0  0
   27.4930   26.7180   44.2510 O   0  0  0  0  0  0  0  0  0  0  0  0
   27.5740   26.5350   43.2780 H   0  0  0  0  0  0  0  0  0  0  0  0
   29.5550   27.8270   42.7870 O   0  0  0  0  0  0  0  0  0  0  0  0
   30.2010   28.4730   42.3750 H   0  0  0  0  0  0  0  0  0  0  0  0
  1  5  1  0  0  0  0
  1  6  1  1  0  0  0
  1  2  1  0  0  0  0
  2  7  1  6  0  0  0
  2 12  1  0  0  0  0
  2  3  1  0  0  0  0
  4  9  1  0  0  0  0
  4  8  1  0  0  0  0
  4  3  1  0  0  0  0
  5 10  1  6  0  0  0
  5  4  1  0  0  0  0
 11 14  1  1  0  0  0
 11 13  1  0  0  0  0
 12 15  1  6  0  0  0
 12 11  1  0  0  0  0
 12 13  1  0  0  0  0
 13 16  1  0  0  0  0
 13 17  1  0  0  0  0
 18 11  1  0  0  0  0
 18 19  1  0  0  0  0
 19 24  1  0  0  0  0
 20 19  2  0  0  0  0
 20 25  1  0  0  0  0
 21 20  1  0  0  0  0
 22 23  1  0  0  0  0
 22 21  2  0  0  0  0
 23 18  2  0  0  0  0
 26 22  1  0  0  0  0
 27  1  1  0  0  0  0
 28 27  1  0  0  0  0
 29  5  1  0  0  0  0
 30 36  1  6  0  0  0
 30 31  1  0  0  0  0
 31 32  1  0  0  0  0
 31 29  1  1  0  0  0
 33 32  1  0  0  0  0
 34 38  1  6  0  0  0
 34 33  1  0  0  0  0
 35 40  1  6  0  0  0
 35 30  1  0  0  0  0
 35 34  1  0  0  0  0
 37 36  1  0  0  0  0
 39 38  1  0  0  0  0
 41 40  1  0  0  0  0
M  END
>  <minimizedAffinity>
-5.06182718

>  <minimizedRMSD>
0.757721007

$$$$
