
 OpenBabel03262521353D

 40 43  0  0  1  0  0  0  0  0999 V2000
   38.3980   31.5220   45.4170 C   0  0  1  0  0  0  0  0  0  0  0  0
   38.8380   32.4630   46.4460 C   0  0  2  0  0  0  0  0  0  0  0  0
   40.3160   32.7030   46.0690 C   0  0  0  0  0  0  0  0  0  0  0  0
   40.7150   31.4560   45.6940 O   0  0  0  0  0  0  0  0  0  0  0  0
   39.7040   30.7840   45.0610 C   0  0  0  0  0  0  0  0  0  0  0  0
   38.0590   31.9990   44.4820 H   0  0  0  0  0  0  0  0  0  0  0  0
   38.3520   33.4670   46.3240 H   0  0  0  0  0  0  0  0  0  0  0  0
   40.8870   33.0230   46.9580 H   0  0  0  0  0  0  0  0  0  0  0  0
   40.3290   33.4290   45.2310 H   0  0  0  0  0  0  0  0  0  0  0  0
   39.8280   30.7520   43.9670 H   0  0  0  0  0  0  0  0  0  0  0  0
   39.5910   29.7310   45.3880 H   0  0  0  0  0  0  0  0  0  0  0  0
   37.5870   32.3750   48.7400 C   0  0  1  0  0  0  0  0  0  0  0  0
   38.8030   33.1300   48.8930 C   0  0  0  0  0  0  0  0  0  0  0  0
   38.7780   31.9720   47.8760 C   0  0  2  0  0  0  0  0  0  0  0  0
   36.7550   32.7490   48.0810 H   0  0  0  0  0  0  0  0  0  0  0  0
   38.8600   34.1590   48.5320 H   0  0  0  0  0  0  0  0  0  0  0  0
   39.4460   32.8910   49.7820 H   0  0  0  0  0  0  0  0  0  0  0  0
   39.3170   31.0510   48.1000 H   0  0  0  0  0  0  0  0  0  0  0  0
   35.5410   29.7360   50.4530 C   0  0  0  0  0  0  0  0  0  0  0  0
   35.9390   30.7110   49.5420 C   0  0  0  0  0  0  0  0  0  0  0  0
   37.1690   31.3260   49.6800 C   0  0  0  0  0  0  0  0  0  0  0  0
   37.9350   30.9280   50.7260 N   0  0  0  0  0  0  0  0  0  0  0  0
   37.5470   29.9820   51.6080 C   0  0  0  0  0  0  0  0  0  0  0  0
   36.3330   29.3770   51.4700 N   0  0  0  0  0  0  0  0  0  0  0  0
   34.5830   29.2250   50.3850 H   0  0  0  0  0  0  0  0  0  0  0  0
   35.2350   30.9150   48.7790 H   0  0  0  0  0  0  0  0  0  0  0  0
   38.1870   29.6920   52.4320 H   0  0  0  0  0  0  0  0  0  0  0  0
   37.4390   30.5980   45.8410 O   0  0  0  0  0  0  0  0  0  0  0  0
   35.1450   29.8980   45.5390 C   0  0  2  0  0  0  0  0  0  0  0  0
   36.3610   30.5480   44.9680 C   0  0  2  0  0  0  0  0  0  0  0  0
   36.6790   30.0240   43.7390 O   0  0  0  0  0  0  0  0  0  0  0  0
   35.8200   30.5760   42.7880 C   0  0  0  0  0  0  0  0  0  0  0  0
   34.4590   30.8700   43.3850 C   0  0  2  0  0  0  0  0  0  0  0  0
   34.0860   29.8570   44.4280 C   0  0  1  0  0  0  0  0  0  0  0  0
   34.6310   30.6040   46.6360 O   0  0  0  0  0  0  0  0  0  0  0  0
   34.0750   29.9930   47.1580 H   0  0  0  0  0  0  0  0  0  0  0  0
   33.5290   30.7910   42.3490 O   0  0  0  0  0  0  0  0  0  0  0  0
   33.8080   31.2030   41.5160 H   0  0  0  0  0  0  0  0  0  0  0  0
   34.0250   28.6020   43.8340 O   0  0  0  0  0  0  0  0  0  0  0  0
   34.9160   28.1690   43.8080 H   0  0  0  0  0  0  0  0  0  0  0  0
  1  6  1  6  0  0  0
  1 28  1  0  0  0  0
  1  2  1  0  0  0  0
  2  7  1  6  0  0  0
  2 14  1  0  0  0  0
  3  2  1  0  0  0  0
  3  8  1  0  0  0  0
  4  3  1  0  0  0  0
  5 11  1  0  0  0  0
  5  1  1  0  0  0  0
  5  4  1  0  0  0  0
  9  3  1  0  0  0  0
 10  5  1  0  0  0  0
 12 15  1  6  0  0  0
 12 13  1  0  0  0  0
 12 21  1  0  0  0  0
 13 17  1  0  0  0  0
 14 18  1  1  0  0  0
 14 12  1  0  0  0  0
 14 13  1  0  0  0  0
 16 13  1  0  0  0  0
 19 24  1  0  0  0  0
 20 21  1  0  0  0  0
 20 19  2  0  0  0  0
 21 22  2  0  0  0  0
 22 23  1  0  0  0  0
 23 27  1  0  0  0  0
 24 23  2  0  0  0  0
 25 19  1  0  0  0  0
 26 20  1  0  0  0  0
 29 35  1  1  0  0  0
 30 29  1  0  0  0  0
 30 28  1  1  0  0  0
 31 30  1  0  0  0  0
 32 33  1  0  0  0  0
 32 31  1  0  0  0  0
 33 37  1  6  0  0  0
 33 34  1  0  0  0  0
 34 39  1  6  0  0  0
 34 29  1  0  0  0  0
 35 36  1  0  0  0  0
 38 37  1  0  0  0  0
 40 39  1  0  0  0  0
M  END
>  <minimizedAffinity>
-5.91213846

>  <minimizedRMSD>
1.50686288

$$$$
