
 OpenBabel03272504573D

 36 38  0  0  1  0  0  0  0  0999 V2000
   36.9940   31.5610   48.6730 C   0  0  1  0  0  0  0  0  0  0  0  0
   36.2170   30.9030   47.6510 C   0  0  0  0  0  0  0  0  0  0  0  0
   37.1830   30.1240   48.4840 C   0  0  2  0  0  0  0  0  0  0  0  0
   36.5530   31.8430   49.6930 H   0  0  0  0  0  0  0  0  0  0  0  0
   35.1860   31.1510   47.8110 H   0  0  0  0  0  0  0  0  0  0  0  0
   36.5230   31.0870   46.6000 H   0  0  0  0  0  0  0  0  0  0  0  0
   37.8740   29.5940   47.8570 H   0  0  0  0  0  0  0  0  0  0  0  0
   38.1460   32.4530   48.3120 C   0  0  0  0  0  0  0  0  0  0  0  0
   38.5410   33.3850   49.3070 C   0  0  0  0  0  0  0  0  0  0  0  0
   39.5990   34.1860   48.9420 C   0  0  0  0  0  0  0  0  0  0  0  0
   40.1800   34.0510   47.7130 N   0  0  0  0  0  0  0  0  0  0  0  0
   39.7670   33.1460   46.7950 C   0  0  0  0  0  0  0  0  0  0  0  0
   38.7180   32.3360   47.1300 N   0  0  0  0  0  0  0  0  0  0  0  0
   40.3610   33.0140   45.5370 N   0  0  0  0  0  0  0  0  0  0  0  0
   38.0900   33.4890   50.2620 H   0  0  0  0  0  0  0  0  0  0  0  0
   39.9420   34.9140   49.6610 H   0  0  0  0  0  0  0  0  0  0  0  0
   41.2410   33.5790   45.3590 H   0  0  0  0  0  0  0  0  0  0  0  0
   39.9450   32.3850   44.8170 H   0  0  0  0  0  0  0  0  0  0  0  0
   36.6020   29.3170   49.4750 O   0  0  0  0  0  0  0  0  0  0  0  0
   34.6300   27.6850   49.7480 O   0  0  0  0  0  0  0  0  0  0  0  0
   35.0180   28.9700   49.0910 P   0  0  1  0  0  0  0  0  0  0  0  0
   33.9890   30.1750   49.7940 O   0  0  0  0  0  0  0  0  0  0  0  0
   34.4720   30.5930   50.5590 H   0  0  0  0  0  0  0  0  0  0  0  0
   34.8450   28.9690   47.4220 O   0  0  0  0  0  0  0  0  0  0  0  0
   33.1110   29.5640   45.9800 C   0  0  2  0  0  3  0  0  0  0  0  0
   33.6100   28.5550   46.9860 C   0  0  1  0  0  3  0  0  0  0  0  0
   33.6050   27.2470   46.5160 O   0  0  0  0  0  0  0  0  0  0  0  0
   32.2440   26.9310   46.3050 C   0  0  0  0  0  2  0  0  0  0  0  0
   31.8820   27.6940   45.0260 C   0  0  1  0  0  3  0  0  0  0  0  0
   31.7520   29.1500   45.4890 C   0  0  2  0  0  3  0  0  0  0  0  0
   33.9510   29.6070   44.8520 O   0  0  0  0  0  0  0  0  0  0  0  0
   34.4750   30.4260   44.9190 H   0  0  0  0  0  0  0  0  0  0  0  0
   32.9920   27.6460   44.1850 O   0  0  0  0  0  0  0  0  0  0  0  0
   32.6690   27.5220   43.2710 H   0  0  0  0  0  0  0  0  0  0  0  0
   31.2880   29.9540   44.4640 O   0  0  0  0  0  0  0  0  0  0  0  0
   32.0600   30.1360   43.8490 H   0  0  0  0  0  0  0  0  0  0  0  0
  1  4  1  1  0  0  0
  2  5  1  0  0  0  0
  2  3  1  0  0  0  0
  2  1  1  0  0  0  0
  3  7  1  6  0  0  0
  3  1  1  0  0  0  0
  3 19  1  0  0  0  0
  6  2  1  0  0  0  0
  8  1  1  0  0  0  0
  8  9  1  0  0  0  0
  9 15  1  0  0  0  0
 10  9  2  0  0  0  0
 10 16  1  0  0  0  0
 11 10  1  0  0  0  0
 12 13  1  0  0  0  0
 12 11  2  0  0  0  0
 13  8  2  0  0  0  0
 14 12  1  0  0  0  0
 17 14  1  0  0  0  0
 18 14  1  0  0  0  0
 21 19  1  0  0  0  0
 21 20  2  1  0  0  0
 21 22  1  0  0  0  0
 22 23  1  0  0  0  0
 24 21  1  0  0  0  0
 25 31  1  6  0  0  0
 25 26  1  0  0  0  0
 26 24  1  6  0  0  0
 27 26  1  0  0  0  0
 28 27  1  0  0  0  0
 29 33  1  6  0  0  0
 29 30  1  0  0  0  0
 29 28  1  0  0  0  0
 30 35  1  6  0  0  0
 30 25  1  0  0  0  0
 31 32  1  0  0  0  0
 34 33  1  0  0  0  0
 36 35  1  0  0  0  0
M  END
>  <minimizedAffinity>
-4.74064684

>  <minimizedRMSD>
0.0987057164

$$$$
