
 OpenBabel03272508093D

 27 28  0  0  1  0  0  0  0  0999 V2000
   39.3160   27.1460   35.6270 O   0  0  0  0  0  0  0  0  0  0  0  0
   40.0720   26.5550   34.4920 P   0  0  2  0  0  0  0  0  0  0  0  0
   41.7170   26.9530   34.6150 O   0  0  0  0  0  0  0  0  0  0  0  0
   41.9090   27.6400   35.2830 H   0  0  0  0  0  0  0  0  0  0  0  0
   39.4810   26.9610   32.9570 O   0  0  0  0  0  0  0  0  0  0  0  0
   36.0510   27.4250   31.6240 C   0  0  0  0  0  0  0  0  0  0  0  0
   37.3050   27.8130   32.0930 C   0  0  0  0  0  0  0  0  0  0  0  0
   38.2210   26.8190   32.4780 C   0  0  0  0  0  0  0  0  0  0  0  0
   37.8220   25.5270   32.3670 N   0  0  0  0  0  0  0  0  0  0  0  0
   36.5950   25.1940   31.9060 C   0  0  0  0  0  0  0  0  0  0  0  0
   35.7180   26.1400   31.5380 N   0  0  0  0  0  0  0  0  0  0  0  0
   35.4640   28.2860   31.3700 H   0  0  0  0  0  0  0  0  0  0  0  0
   37.6950   28.8090   32.2100 H   0  0  0  0  0  0  0  0  0  0  0  0
   36.2950   24.1510   31.8260 H   0  0  0  0  0  0  0  0  0  0  0  0
   39.9810   24.8680   34.6550 O   0  0  0  0  0  0  0  0  0  0  0  0
   38.0910   24.1210   35.7700 C   0  0  2  0  0  3  0  0  0  0  0  0
   39.5600   24.4780   35.9210 C   0  0  1  0  0  3  0  0  0  0  0  0
   40.2360   23.3080   36.2520 O   0  0  0  0  0  0  0  0  0  0  0  0
   39.9990   22.9110   37.5590 C   0  0  0  0  0  2  0  0  0  0  0  0
   38.6860   23.4230   38.0930 C   0  0  1  0  0  3  0  0  0  0  0  0
   37.6200   23.5030   37.0400 C   0  0  2  0  0  3  0  0  0  0  0  0
   37.9640   23.2170   34.7280 O   0  0  0  0  0  0  0  0  0  0  0  0
   38.6930   22.5530   34.7480 H   0  0  0  0  0  0  0  0  0  0  0  0
   38.2320   22.5060   39.0490 O   0  0  0  0  0  0  0  0  0  0  0  0
   37.4600   22.8560   39.5600 H   0  0  0  0  0  0  0  0  0  0  0  0
   37.0380   22.2860   36.7890 O   0  0  0  0  0  0  0  0  0  0  0  0
   37.3470   21.5680   37.3880 H   0  0  0  0  0  0  0  0  0  0  0  0
  2  3  1  0  0  0  0
  2 15  1  0  0  0  0
  2  1  2  1  0  0  0
  3  4  1  0  0  0  0
  5  2  1  0  0  0  0
  6  7  1  0  0  0  0
  7 13  1  0  0  0  0
  7  8  2  0  0  0  0
  8  5  1  0  0  0  0
  9  8  1  0  0  0  0
 10  9  2  0  0  0  0
 11  6  2  0  0  0  0
 11 10  1  0  0  0  0
 12  6  1  0  0  0  0
 14 10  1  0  0  0  0
 16 22  1  6  0  0  0
 16 17  1  0  0  0  0
 16 21  1  0  0  0  0
 17 15  1  6  0  0  0
 17 18  1  0  0  0  0
 18 19  1  0  0  0  0
 19 20  1  0  0  0  0
 20 24  1  1  0  0  0
 21 26  1  6  0  0  0
 21 20  1  0  0  0  0
 22 23  1  0  0  0  0
 24 25  1  0  0  0  0
 26 27  1  0  0  0  0
M  END
>  <minimizedAffinity>
-5.46182346

$$$$

 OpenBabel03272508093D

 27 28  0  0  1  0  0  0  0  0999 V2000
   40.9670   26.8740   34.9020 O   0  0  0  0  0  0  0  0  0  0  0  0
   39.4850   26.7660   34.8880 P   0  0  2  0  0  0  0  0  0  0  0  0
   38.8120   27.7950   36.0560 O   0  0  0  0  0  0  0  0  0  0  0  0
   39.4660   28.1670   36.6800 H   0  0  0  0  0  0  0  0  0  0  0  0
   38.8860   25.1920   35.0750 O   0  0  0  0  0  0  0  0  0  0  0  0
   39.5410   22.6500   37.6950 C   0  0  0  0  0  0  0  0  0  0  0  0
   39.7080   23.3010   36.4740 C   0  0  0  0  0  0  0  0  0  0  0  0
   38.8990   24.4140   36.1850 C   0  0  0  0  0  0  0  0  0  0  0  0
   37.9960   24.7890   37.1250 N   0  0  0  0  0  0  0  0  0  0  0  0
   37.8670   24.1290   38.2980 C   0  0  0  0  0  0  0  0  0  0  0  0
   38.6370   23.0660   38.5780 N   0  0  0  0  0  0  0  0  0  0  0  0
   40.2230   21.8250   37.7750 H   0  0  0  0  0  0  0  0  0  0  0  0
   40.3970   23.0670   35.6810 H   0  0  0  0  0  0  0  0  0  0  0  0
   37.1360   24.4470   39.0380 H   0  0  0  0  0  0  0  0  0  0  0  0
   38.9550   27.3470   33.3840 O   0  0  0  0  0  0  0  0  0  0  0  0
   37.0400   27.5730   32.0980 C   0  0  2  0  0  3  0  0  0  0  0  0
   37.9140   26.5900   32.8570 C   0  0  1  0  0  3  0  0  0  0  0  0
   38.4560   25.7140   31.9240 O   0  0  0  0  0  0  0  0  0  0  0  0
   37.5220   24.8090   31.4430 C   0  0  0  0  0  2  0  0  0  0  0  0
   36.1090   25.3240   31.5430 C   0  0  1  0  0  3  0  0  0  0  0  0
   36.0130   26.8070   31.3390 C   0  0  2  0  0  3  0  0  0  0  0  0
   37.8420   28.2870   31.2210 O   0  0  0  0  0  0  0  0  0  0  0  0
   38.5070   27.6970   30.7950 H   0  0  0  0  0  0  0  0  0  0  0  0
   35.3700   24.7330   30.5100 O   0  0  0  0  0  0  0  0  0  0  0  0
   34.3990   24.8960   30.6110 H   0  0  0  0  0  0  0  0  0  0  0  0
   36.0420   27.1580   30.0130 O   0  0  0  0  0  0  0  0  0  0  0  0
   36.0400   26.3880   29.3990 H   0  0  0  0  0  0  0  0  0  0  0  0
  2  1  2  1  0  0  0
  2  5  1  0  0  0  0
  2  3  1  0  0  0  0
  3  4  1  0  0  0  0
  5  8  1  0  0  0  0
  6 12  1  0  0  0  0
  6 11  1  0  0  0  0
  7  6  2  0  0  0  0
  8  7  1  0  0  0  0
  8  9  2  0  0  0  0
  9 10  1  0  0  0  0
 10 11  2  0  0  0  0
 10 14  1  0  0  0  0
 13  7  1  0  0  0  0
 15  2  1  0  0  0  0
 16 22  1  6  0  0  0
 16 17  1  0  0  0  0
 17 15  1  6  0  0  0
 18 17  1  0  0  0  0
 19 20  1  0  0  0  0
 19 18  1  0  0  0  0
 20 24  1  6  0  0  0
 21 26  1  6  0  0  0
 21 20  1  0  0  0  0
 21 16  1  0  0  0  0
 23 22  1  0  0  0  0
 24 25  1  0  0  0  0
 27 26  1  0  0  0  0
M  END
>  <minimizedAffinity>
-5.40970087

$$$$

 OpenBabel03272508093D

 27 28  0  0  1  0  0  0  0  0999 V2000
   37.4720   27.5760   34.5940 O   0  0  0  0  0  0  0  0  0  0  0  0
   38.3420   26.3740   34.5050 P   0  0  2  0  0  0  0  0  0  0  0  0
   39.8980   26.7350   35.0760 O   0  0  0  0  0  0  0  0  0  0  0  0
   40.0600   27.6900   35.2070 H   0  0  0  0  0  0  0  0  0  0  0  0
   38.4270   25.6710   32.9660 O   0  0  0  0  0  0  0  0  0  0  0  0
   36.6130   22.7460   31.5840 C   0  0  0  0  0  0  0  0  0  0  0  0
   37.6500   23.4230   32.2220 C   0  0  0  0  0  0  0  0  0  0  0  0
   37.5510   24.8160   32.3830 C   0  0  0  0  0  0  0  0  0  0  0  0
   36.4370   25.4210   31.9010 N   0  0  0  0  0  0  0  0  0  0  0  0
   35.4530   24.7250   31.2870 C   0  0  0  0  0  0  0  0  0  0  0  0
   35.5440   23.3960   31.1320 N   0  0  0  0  0  0  0  0  0  0  0  0
   36.8280   21.6950   31.5340 H   0  0  0  0  0  0  0  0  0  0  0  0
   38.5600   23.0190   32.6300 H   0  0  0  0  0  0  0  0  0  0  0  0
   34.5680   25.2310   30.9070 H   0  0  0  0  0  0  0  0  0  0  0  0
   37.7040   25.2160   35.5700 O   0  0  0  0  0  0  0  0  0  0  0  0
   38.3940   24.3830   37.6200 C   0  0  2  0  0  3  0  0  0  0  0  0
   38.6880   24.4090   36.1300 C   0  0  1  0  0  3  0  0  0  0  0  0
   38.5030   23.1180   35.6500 O   0  0  0  0  0  0  0  0  0  0  0  0
   39.5230   22.2590   36.0320 C   0  0  0  0  0  2  0  0  0  0  0  0
   40.2150   22.7050   37.2950 C   0  0  1  0  0  3  0  0  0  0  0  0
   39.2860   23.3780   38.2620 C   0  0  2  0  0  3  0  0  0  0  0  0
   37.0680   24.0220   37.7990 O   0  0  0  0  0  0  0  0  0  0  0  0
   36.8130   23.3030   37.1730 H   0  0  0  0  0  0  0  0  0  0  0  0
   40.6950   21.5580   37.9400 O   0  0  0  0  0  0  0  0  0  0  0  0
   41.3020   21.7830   38.6890 H   0  0  0  0  0  0  0  0  0  0  0  0
   38.5450   22.4810   38.9900 O   0  0  0  0  0  0  0  0  0  0  0  0
   38.7900   21.5410   38.8280 H   0  0  0  0  0  0  0  0  0  0  0  0
  2  1  2  6  0  0  0
  2  3  1  0  0  0  0
  2 15  1  0  0  0  0
  3  4  1  0  0  0  0
  5  2  1  0  0  0  0
  6  7  1  0  0  0  0
  7  8  2  0  0  0  0
  7 13  1  0  0  0  0
  8  5  1  0  0  0  0
  9  8  1  0  0  0  0
 10  9  2  0  0  0  0
 11 10  1  0  0  0  0
 11  6  2  0  0  0  0
 12  6  1  0  0  0  0
 14 10  1  0  0  0  0
 16 22  1  6  0  0  0
 16 21  1  0  0  0  0
 17 15  1  6  0  0  0
 17 16  1  0  0  0  0
 18 19  1  0  0  0  0
 18 17  1  0  0  0  0
 19 20  1  0  0  0  0
 20 24  1  1  0  0  0
 20 21  1  0  0  0  0
 21 26  1  6  0  0  0
 23 22  1  0  0  0  0
 24 25  1  0  0  0  0
 27 26  1  0  0  0  0
M  END
>  <minimizedAffinity>
-5.31282043

$$$$

 OpenBabel03272508093D

 27 28  0  0  1  0  0  0  0  0999 V2000
   39.5520   27.1420   34.6790 O   0  0  0  0  0  0  0  0  0  0  0  0
   38.4840   26.1660   34.3390 P   0  0  2  0  0  0  0  0  0  0  0  0
   36.9930   26.6920   34.9540 O   0  0  0  0  0  0  0  0  0  0  0  0
   37.0660   27.4390   35.5800 H   0  0  0  0  0  0  0  0  0  0  0  0
   38.7950   24.5740   34.8280 O   0  0  0  0  0  0  0  0  0  0  0  0
   39.7720   22.8170   37.9450 C   0  0  0  0  0  0  0  0  0  0  0  0
   39.8450   23.1700   36.5990 C   0  0  0  0  0  0  0  0  0  0  0  0
   38.9130   24.0900   36.0890 C   0  0  0  0  0  0  0  0  0  0  0  0
   37.9880   24.5820   36.9510 N   0  0  0  0  0  0  0  0  0  0  0  0
   37.9520   24.2130   38.2510 C   0  0  0  0  0  0  0  0  0  0  0  0
   38.8410   23.3350   38.7410 N   0  0  0  0  0  0  0  0  0  0  0  0
   40.5430   22.1110   38.1880 H   0  0  0  0  0  0  0  0  0  0  0  0
   40.5440   22.8270   35.8560 H   0  0  0  0  0  0  0  0  0  0  0  0
   37.2010   24.6190   38.9250 H   0  0  0  0  0  0  0  0  0  0  0  0
   38.3250   26.1680   32.6490 O   0  0  0  0  0  0  0  0  0  0  0  0
   38.2040   27.4490   30.7210 C   0  0  2  0  0  3  0  0  0  0  0  0
   37.7570   27.3420   32.1690 C   0  0  1  0  0  3  0  0  0  0  0  0
   36.3770   27.1750   32.1640 O   0  0  0  0  0  0  0  0  0  0  0  0
   35.7030   28.3440   31.8400 C   0  0  0  0  0  2  0  0  0  0  0  0
   36.5410   29.2890   31.0180 C   0  0  1  0  0  3  0  0  0  0  0  0
   37.4720   28.5770   30.0810 C   0  0  2  0  0  3  0  0  0  0  0  0
   37.8960   26.2600   30.0790 O   0  0  0  0  0  0  0  0  0  0  0  0
   37.0110   25.9280   30.3600 H   0  0  0  0  0  0  0  0  0  0  0  0
   35.6700   30.0380   30.2170 O   0  0  0  0  0  0  0  0  0  0  0  0
   36.1330   30.7910   29.7720 H   0  0  0  0  0  0  0  0  0  0  0  0
   36.8430   28.1490   28.9390 O   0  0  0  0  0  0  0  0  0  0  0  0
   35.9050   28.4410   28.8710 H   0  0  0  0  0  0  0  0  0  0  0  0
  2  1  2  1  0  0  0
  2  5  1  0  0  0  0
  2  3  1  0  0  0  0
  3  4  1  0  0  0  0
  5  8  1  0  0  0  0
  6 12  1  0  0  0  0
  6 11  1  0  0  0  0
  7  6  2  0  0  0  0
  8  7  1  0  0  0  0
  8  9  2  0  0  0  0
  9 10  1  0  0  0  0
 10 11  2  0  0  0  0
 10 14  1  0  0  0  0
 13  7  1  0  0  0  0
 15  2  1  0  0  0  0
 16 22  1  6  0  0  0
 16 17  1  0  0  0  0
 17 15  1  6  0  0  0
 18 17  1  0  0  0  0
 19 18  1  0  0  0  0
 20 24  1  6  0  0  0
 20 19  1  0  0  0  0
 21 26  1  6  0  0  0
 21 16  1  0  0  0  0
 21 20  1  0  0  0  0
 22 23  1  0  0  0  0
 25 24  1  0  0  0  0
 27 26  1  0  0  0  0
M  END
>  <minimizedAffinity>
-5.27228498

$$$$

 OpenBabel03272508093D

 27 28  0  0  1  0  0  0  0  0999 V2000
   39.6470   22.6210   32.0920 O   0  0  0  0  0  0  0  0  0  0  0  0
   38.6900   23.1570   33.0940 P   0  0  2  0  0  0  0  0  0  0  0  0
   37.1140   23.1400   32.4660 O   0  0  0  0  0  0  0  0  0  0  0  0
   37.0730   22.9620   31.5060 H   0  0  0  0  0  0  0  0  0  0  0  0
   39.0720   24.6970   33.6880 O   0  0  0  0  0  0  0  0  0  0  0  0
   36.9480   27.5240   34.8070 C   0  0  0  0  0  0  0  0  0  0  0  0
   37.7710   26.4090   34.9480 C   0  0  0  0  0  0  0  0  0  0  0  0
   38.2660   25.7820   33.7910 C   0  0  0  0  0  0  0  0  0  0  0  0
   37.9050   26.3100   32.5940 N   0  0  0  0  0  0  0  0  0  0  0  0
   37.1040   27.3950   32.5020 C   0  0  0  0  0  0  0  0  0  0  0  0
   36.6300   27.9950   33.6050 N   0  0  0  0  0  0  0  0  0  0  0  0
   36.6500   27.8930   35.7700 H   0  0  0  0  0  0  0  0  0  0  0  0
   38.1010   25.9330   35.8550 H   0  0  0  0  0  0  0  0  0  0  0  0
   36.8260   27.8010   31.5320 H   0  0  0  0  0  0  0  0  0  0  0  0
   38.6870   22.0810   34.4070 O   0  0  0  0  0  0  0  0  0  0  0  0
   37.5370   22.7790   36.2940 C   0  0  2  0  0  3  0  0  0  0  0  0
   38.8980   22.7240   35.6220 C   0  0  1  0  0  3  0  0  0  0  0  0
   39.7090   21.9070   36.4000 O   0  0  0  0  0  0  0  0  0  0  0  0
   40.1030   22.5200   37.5800 C   0  0  0  0  0  2  0  0  0  0  0  0
   39.1420   23.5930   38.0260 C   0  0  1  0  0  3  0  0  0  0  0  0
   37.7150   23.2740   37.6870 C   0  0  2  0  0  3  0  0  0  0  0  0
   37.0040   21.4990   36.3120 O   0  0  0  0  0  0  0  0  0  0  0  0
   37.6990   20.8340   36.5260 H   0  0  0  0  0  0  0  0  0  0  0  0
   39.2100   23.6670   39.4230 O   0  0  0  0  0  0  0  0  0  0  0  0
   38.7310   24.4590   39.7740 H   0  0  0  0  0  0  0  0  0  0  0  0
   37.1460   22.4010   38.5790 O   0  0  0  0  0  0  0  0  0  0  0  0
   37.7270   22.1810   39.3430 H   0  0  0  0  0  0  0  0  0  0  0  0
  2  1  2  6  0  0  0
  2  5  1  0  0  0  0
  2 15  1  0  0  0  0
  3  2  1  0  0  0  0
  4  3  1  0  0  0  0
  5  8  1  0  0  0  0
  6  7  1  0  0  0  0
  6 12  1  0  0  0  0
  7 13  1  0  0  0  0
  8  7  2  0  0  0  0
  9  8  1  0  0  0  0
 10  9  2  0  0  0  0
 10 11  1  0  0  0  0
 11  6  2  0  0  0  0
 14 10  1  0  0  0  0
 16 22  1  1  0  0  0
 16 21  1  0  0  0  0
 17 15  1  6  0  0  0
 17 16  1  0  0  0  0
 17 18  1  0  0  0  0
 18 19  1  0  0  0  0
 19 20  1  0  0  0  0
 20 24  1  1  0  0  0
 21 20  1  0  0  0  0
 21 26  1  1  0  0  0
 22 23  1  0  0  0  0
 24 25  1  0  0  0  0
 26 27  1  0  0  0  0
M  END
>  <minimizedAffinity>
-4.94877625

$$$$

 OpenBabel03272508093D

 27 28  0  0  1  0  0  0  0  0999 V2000
   39.6230   27.1260   35.3140 O   0  0  0  0  0  0  0  0  0  0  0  0
   39.4710   26.4000   34.0260 P   0  0  2  0  0  0  0  0  0  0  0  0
   40.6570   26.9070   32.9240 O   0  0  0  0  0  0  0  0  0  0  0  0
   41.1440   27.7060   33.2070 H   0  0  0  0  0  0  0  0  0  0  0  0
   37.9310   26.5090   33.3270 O   0  0  0  0  0  0  0  0  0  0  0  0
   35.9770   29.2770   31.8180 C   0  0  0  0  0  0  0  0  0  0  0  0
   36.3040   28.3120   32.7680 C   0  0  0  0  0  0  0  0  0  0  0  0
   37.4300   27.5000   32.5490 C   0  0  0  0  0  0  0  0  0  0  0  0
   38.1370   27.7100   31.4100 N   0  0  0  0  0  0  0  0  0  0  0  0
   37.7850   28.6590   30.5140 C   0  0  0  0  0  0  0  0  0  0  0  0
   36.7110   29.4360   30.7200 N   0  0  0  0  0  0  0  0  0  0  0  0
   35.0990   29.8160   32.1200 H   0  0  0  0  0  0  0  0  0  0  0  0
   35.7980   28.0840   33.6910 H   0  0  0  0  0  0  0  0  0  0  0  0
   38.3660   28.8110   29.6070 H   0  0  0  0  0  0  0  0  0  0  0  0
   39.7840   24.7610   34.3360 O   0  0  0  0  0  0  0  0  0  0  0  0
   38.0350   24.0010   35.6530 C   0  0  2  0  0  3  0  0  0  0  0  0
   39.4990   24.4040   35.6490 C   0  0  1  0  0  3  0  0  0  0  0  0
   40.2410   23.2670   35.9510 O   0  0  0  0  0  0  0  0  0  0  0  0
   40.1430   22.9100   37.2880 C   0  0  0  0  0  2  0  0  0  0  0  0
   38.8710   23.4030   37.9290 C   0  0  1  0  0  3  0  0  0  0  0  0
   37.7070   23.4150   36.9820 C   0  0  2  0  0  3  0  0  0  0  0  0
   37.8380   23.0560   34.6580 O   0  0  0  0  0  0  0  0  0  0  0  0
   38.5860   22.4150   34.6300 H   0  0  0  0  0  0  0  0  0  0  0  0
   38.5400   22.5080   38.9540 O   0  0  0  0  0  0  0  0  0  0  0  0
   37.8100   22.8540   39.5250 H   0  0  0  0  0  0  0  0  0  0  0  0
   37.1430   22.1740   36.8290 O   0  0  0  0  0  0  0  0  0  0  0  0
   37.5310   21.4870   37.4180 H   0  0  0  0  0  0  0  0  0  0  0  0
  2 15  1  0  0  0  0
  2  1  2  1  0  0  0
  3  4  1  0  0  0  0
  3  2  1  0  0  0  0
  5  2  1  0  0  0  0
  6 12  1  0  0  0  0
  6  7  1  0  0  0  0
  7 13  1  0  0  0  0
  8  7  2  0  0  0  0
  8  5  1  0  0  0  0
  9  8  1  0  0  0  0
 10 11  1  0  0  0  0
 10  9  2  0  0  0  0
 11  6  2  0  0  0  0
 14 10  1  0  0  0  0
 16 22  1  6  0  0  0
 16 21  1  0  0  0  0
 17 15  1  6  0  0  0
 17 16  1  0  0  0  0
 17 18  1  0  0  0  0
 18 19  1  0  0  0  0
 19 20  1  0  0  0  0
 20 24  1  1  0  0  0
 21 26  1  6  0  0  0
 21 20  1  0  0  0  0
 23 22  1  0  0  0  0
 24 25  1  0  0  0  0
 26 27  1  0  0  0  0
M  END
>  <minimizedAffinity>
-4.93526983

$$$$

 OpenBabel03272508093D

 27 28  0  0  1  0  0  0  0  0999 V2000
   39.2190   27.1980   35.8170 O   0  0  0  0  0  0  0  0  0  0  0  0
   39.8720   26.6040   34.6220 P   0  0  2  0  0  0  0  0  0  0  0  0
   41.5430   26.8960   34.6620 O   0  0  0  0  0  0  0  0  0  0  0  0
   41.8150   27.5460   35.3390 H   0  0  0  0  0  0  0  0  0  0  0  0
   39.2230   27.1000   33.1370 O   0  0  0  0  0  0  0  0  0  0  0  0
   39.6760   26.5830   29.4930 C   0  0  0  0  0  0  0  0  0  0  0  0
   38.9950   26.9110   30.6630 C   0  0  0  0  0  0  0  0  0  0  0  0
   39.6780   26.8320   31.8890 C   0  0  0  0  0  0  0  0  0  0  0  0
   40.9750   26.4340   31.8550 N   0  0  0  0  0  0  0  0  0  0  0  0
   41.5990   26.1240   30.6970 C   0  0  0  0  0  0  0  0  0  0  0  0
   40.9500   26.1990   29.5240 N   0  0  0  0  0  0  0  0  0  0  0  0
   39.0310   26.6900   28.6420 H   0  0  0  0  0  0  0  0  0  0  0  0
   37.9740   27.2330   30.7730 H   0  0  0  0  0  0  0  0  0  0  0  0
   42.6390   25.8070   30.6920 H   0  0  0  0  0  0  0  0  0  0  0  0
   39.6830   24.9210   34.7340 O   0  0  0  0  0  0  0  0  0  0  0  0
   37.9040   24.0420   35.9320 C   0  0  2  0  0  3  0  0  0  0  0  0
   39.3480   24.5080   36.0190 C   0  0  1  0  0  3  0  0  0  0  0  0
   40.1230   23.3950   36.3230 O   0  0  0  0  0  0  0  0  0  0  0  0
   39.9730   22.9890   37.6410 C   0  0  0  0  0  2  0  0  0  0  0  0
   38.6490   23.4050   38.2290 C   0  0  1  0  0  3  0  0  0  0  0  0
   37.5350   23.3980   37.2230 C   0  0  2  0  0  3  0  0  0  0  0  0
   37.8010   23.1240   34.8990 O   0  0  0  0  0  0  0  0  0  0  0  0
   38.5780   22.5170   34.8900 H   0  0  0  0  0  0  0  0  0  0  0  0
   38.3060   22.4620   39.2060 O   0  0  0  0  0  0  0  0  0  0  0  0
   37.5320   22.7570   39.7490 H   0  0  0  0  0  0  0  0  0  0  0  0
   37.0360   22.1390   37.0010 O   0  0  0  0  0  0  0  0  0  0  0  0
   37.4240   21.4500   37.5880 H   0  0  0  0  0  0  0  0  0  0  0  0
  2  3  1  0  0  0  0
  2 15  1  0  0  0  0
  2  1  2  1  0  0  0
  3  4  1  0  0  0  0
  5  2  1  0  0  0  0
  6 11  2  0  0  0  0
  6  7  1  0  0  0  0
  7 13  1  0  0  0  0
  7  8  2  0  0  0  0
  8  5  1  0  0  0  0
  9  8  1  0  0  0  0
 10  9  2  0  0  0  0
 11 10  1  0  0  0  0
 12  6  1  0  0  0  0
 14 10  1  0  0  0  0
 16 22  1  6  0  0  0
 16 17  1  0  0  0  0
 16 21  1  0  0  0  0
 17 15  1  6  0  0  0
 17 18  1  0  0  0  0
 18 19  1  0  0  0  0
 19 20  1  0  0  0  0
 20 24  1  1  0  0  0
 21 26  1  6  0  0  0
 21 20  1  0  0  0  0
 23 22  1  0  0  0  0
 24 25  1  0  0  0  0
 26 27  1  0  0  0  0
M  END
>  <minimizedAffinity>
-4.9241271

$$$$

 OpenBabel03272508093D

 27 28  0  0  1  0  0  0  0  0999 V2000
   40.2100   26.8440   34.3500 O   0  0  0  0  0  0  0  0  0  0  0  0
   39.3060   25.8780   33.6730 P   0  0  2  0  0  0  0  0  0  0  0  0
   40.2100   24.6320   32.9600 O   0  0  0  0  0  0  0  0  0  0  0  0
   41.1710   24.8070   32.9310 H   0  0  0  0  0  0  0  0  0  0  0  0
   38.2520   26.5660   32.5380 O   0  0  0  0  0  0  0  0  0  0  0  0
   35.1440   28.5790   32.3350 C   0  0  0  0  0  0  0  0  0  0  0  0
   36.1590   27.7430   31.8740 C   0  0  0  0  0  0  0  0  0  0  0  0
   37.1780   27.3610   32.7640 C   0  0  0  0  0  0  0  0  0  0  0  0
   37.1090   27.8380   34.0320 N   0  0  0  0  0  0  0  0  0  0  0  0
   36.1050   28.6470   34.4390 C   0  0  0  0  0  0  0  0  0  0  0  0
   35.1310   29.0130   33.5920 N   0  0  0  0  0  0  0  0  0  0  0  0
   34.4420   28.7830   31.5490 H   0  0  0  0  0  0  0  0  0  0  0  0
   36.2850   27.3250   30.8900 H   0  0  0  0  0  0  0  0  0  0  0  0
   36.0690   29.0190   35.4600 H   0  0  0  0  0  0  0  0  0  0  0  0
   38.3630   25.1460   34.8800 O   0  0  0  0  0  0  0  0  0  0  0  0
   38.3990   24.4170   37.0800 C   0  0  2  0  0  3  0  0  0  0  0  0
   39.1190   24.3620   35.7440 C   0  0  1  0  0  3  0  0  0  0  0  0
   39.0530   23.0480   35.2930 O   0  0  0  0  0  0  0  0  0  0  0  0
   39.8940   22.2020   36.0000 C   0  0  0  0  0  2  0  0  0  0  0  0
   40.1940   22.7080   37.3880 C   0  0  1  0  0  3  0  0  0  0  0  0
   39.0380   23.4400   38.0040 C   0  0  2  0  0  3  0  0  0  0  0  0
   37.0710   24.0770   36.8770 O   0  0  0  0  0  0  0  0  0  0  0  0
   36.9940   23.3290   36.2390 H   0  0  0  0  0  0  0  0  0  0  0  0
   40.4360   21.5940   38.2010 O   0  0  0  0  0  0  0  0  0  0  0  0
   40.8010   21.8530   39.0840 H   0  0  0  0  0  0  0  0  0  0  0  0
   38.0950   22.5900   38.5240 O   0  0  0  0  0  0  0  0  0  0  0  0
   38.3540   21.6400   38.4870 H   0  0  0  0  0  0  0  0  0  0  0  0
  2  1  2  1  0  0  0
  2 15  1  0  0  0  0
  3  2  1  0  0  0  0
  4  3  1  0  0  0  0
  5  8  1  0  0  0  0
  5  2  1  0  0  0  0
  6 11  1  0  0  0  0
  7  6  2  0  0  0  0
  7  8  1  0  0  0  0
  8  9  2  0  0  0  0
  9 10  1  0  0  0  0
 10 14  1  0  0  0  0
 11 10  2  0  0  0  0
 12  6  1  0  0  0  0
 13  7  1  0  0  0  0
 16 22  1  6  0  0  0
 16 21  1  0  0  0  0
 17 15  1  6  0  0  0
 17 16  1  0  0  0  0
 18 17  1  0  0  0  0
 18 19  1  0  0  0  0
 19 20  1  0  0  0  0
 20 21  1  0  0  0  0
 20 24  1  1  0  0  0
 21 26  1  6  0  0  0
 23 22  1  0  0  0  0
 24 25  1  0  0  0  0
 27 26  1  0  0  0  0
M  END
>  <minimizedAffinity>
-4.81366396

$$$$

 OpenBabel03272508093D

 27 28  0  0  1  0  0  0  0  0999 V2000
   39.7340   27.0970   34.6480 O   0  0  0  0  0  0  0  0  0  0  0  0
   38.3050   26.9880   35.0390 P   0  0  2  0  0  0  0  0  0  0  0  0
   37.8750   28.2790   36.0520 O   0  0  0  0  0  0  0  0  0  0  0  0
   38.6380   28.7970   36.3790 H   0  0  0  0  0  0  0  0  0  0  0  0
   37.8740   25.5120   35.7510 O   0  0  0  0  0  0  0  0  0  0  0  0
   40.4360   22.8580   36.1290 C   0  0  0  0  0  0  0  0  0  0  0  0
   39.7270   23.8680   35.4830 C   0  0  0  0  0  0  0  0  0  0  0  0
   38.6880   24.5140   36.1740 C   0  0  0  0  0  0  0  0  0  0  0  0
   38.4360   24.1060   37.4430 N   0  0  0  0  0  0  0  0  0  0  0  0
   39.1490   23.1210   38.0330 C   0  0  0  0  0  0  0  0  0  0  0  0
   40.1420   22.5020   37.3770 N   0  0  0  0  0  0  0  0  0  0  0  0
   41.1940   22.4600   35.4820 H   0  0  0  0  0  0  0  0  0  0  0  0
   39.8650   24.2470   34.4850 H   0  0  0  0  0  0  0  0  0  0  0  0
   38.9300   22.8090   39.0520 H   0  0  0  0  0  0  0  0  0  0  0  0
   37.3840   27.1710   33.6250 O   0  0  0  0  0  0  0  0  0  0  0  0
   37.8060   25.3550   32.2480 C   0  0  2  0  0  3  0  0  0  0  0  0
   38.0950   26.8280   32.4800 C   0  0  1  0  0  3  0  0  0  0  0  0
   37.5440   27.5290   31.4130 O   0  0  0  0  0  0  0  0  0  0  0  0
   38.2740   27.3720   30.2440 C   0  0  0  0  0  2  0  0  0  0  0  0
   39.0650   26.0900   30.2200 C   0  0  1  0  0  3  0  0  0  0  0  0
   38.3700   24.9630   30.9260 C   0  0  2  0  0  3  0  0  0  0  0  0
   36.4310   25.1720   32.2480 O   0  0  0  0  0  0  0  0  0  0  0  0
   35.9800   25.9050   31.7670 H   0  0  0  0  0  0  0  0  0  0  0  0
   39.1960   25.6980   28.8820 O   0  0  0  0  0  0  0  0  0  0  0  0
   39.8420   24.9560   28.7760 H   0  0  0  0  0  0  0  0  0  0  0  0
   37.4030   24.3740   30.1520 O   0  0  0  0  0  0  0  0  0  0  0  0
   37.3670   24.7230   29.2310 H   0  0  0  0  0  0  0  0  0  0  0  0
  2  1  2  6  0  0  0
  2  5  1  0  0  0  0
  2  3  1  0  0  0  0
  3  4  1  0  0  0  0
  5  8  1  0  0  0  0
  6 11  1  0  0  0  0
  7  6  2  0  0  0  0
  7  8  1  0  0  0  0
  8  9  2  0  0  0  0
  9 10  1  0  0  0  0
 10 14  1  0  0  0  0
 11 10  2  0  0  0  0
 12  6  1  0  0  0  0
 13  7  1  0  0  0  0
 15  2  1  0  0  0  0
 16 22  1  6  0  0  0
 16 17  1  0  0  0  0
 17 15  1  1  0  0  0
 18 17  1  0  0  0  0
 19 18  1  0  0  0  0
 20 24  1  6  0  0  0
 20 19  1  0  0  0  0
 20 21  1  0  0  0  0
 21 26  1  6  0  0  0
 21 16  1  0  0  0  0
 23 22  1  0  0  0  0
 25 24  1  0  0  0  0
 27 26  1  0  0  0  0
M  END
>  <minimizedAffinity>
-4.79746342

$$$$
