
 OpenBabel03272502313D

 27 28  0  0  1  0  0  0  0  0999 V2000
   38.9520   26.2330   35.9850 C   0  0  0  0  0  0  0  0  0  0  0  0
   39.8610   25.8450   35.5200 H   0  0  0  0  0  0  0  0  0  0  0  0
   39.3040   26.7290   36.9380 H   0  0  0  0  0  0  0  0  0  0  0  0
   37.0960   27.0530   34.5680 C   0  0  0  0  0  3  0  0  0  0  0  0
   38.2340   27.2310   35.1620 C   0  0  0  0  0  3  0  0  0  0  0  0
   35.1100   29.9620   33.3600 C   0  0  0  0  0  0  0  0  0  0  0  0
   35.6690   29.0020   34.2140 C   0  0  0  0  0  0  0  0  0  0  0  0
   36.5210   28.0470   33.7280 C   0  0  0  0  0  0  0  0  0  0  0  0
   36.8170   28.0510   32.3910 N   0  0  0  0  0  0  0  0  0  0  0  0
   36.2590   28.9960   31.5950 C   0  0  0  0  0  0  0  0  0  0  0  0
   35.4180   29.9370   32.0680 N   0  0  0  0  0  0  0  0  0  0  0  0
   34.4180   30.7280   33.7230 H   0  0  0  0  0  0  0  0  0  0  0  0
   35.3940   29.0550   35.2550 H   0  0  0  0  0  0  0  0  0  0  0  0
   36.4400   29.0780   30.5120 H   0  0  0  0  0  0  0  0  0  0  0  0
   37.7870   24.8890   36.3960 S   0  0  0  0  0  0  0  0  0  0  0  0
   39.5430   23.2440   37.5870 C   0  0  2  0  0  3  0  0  0  0  0  0
   38.6200   23.2430   36.3840 C   0  0  2  0  0  3  0  0  0  0  0  0
   39.3090   23.1820   35.1940 O   0  0  0  0  0  0  0  0  0  0  0  0
   40.3090   22.2630   35.0970 C   0  0  0  0  0  2  0  0  0  0  0  0
   41.4330   22.6820   36.0410 C   0  0  2  0  0  3  0  0  0  0  0  0
   40.8520   22.5730   37.4180 C   0  0  2  0  0  3  0  0  0  0  0  0
   38.8950   22.6400   38.6600 O   0  0  0  0  0  0  0  0  0  0  0  0
   39.0720   23.1270   39.5160 H   0  0  0  0  0  0  0  0  0  0  0  0
   41.8460   23.9590   35.7500 O   0  0  0  0  0  0  0  0  0  0  0  0
   41.7390   24.5910   36.5150 H   0  0  0  0  0  0  0  0  0  0  0  0
   40.8260   21.2550   37.8840 O   0  0  0  0  0  0  0  0  0  0  0  0
   40.7940   21.3280   38.8850 H   0  0  0  0  0  0  0  0  0  0  0  0
  1 15  1  0  0  0  0
  1  3  1  0  0  0  0
  2  1  1  0  0  0  0
  4  5  2  0  0  0  0
  5  1  1  0  0  0  0
  6 12  1  0  0  0  0
  6  7  1  0  0  0  0
  7 13  1  0  0  0  0
  8  7  2  0  0  0  0
  8  4  1  0  0  0  0
  9  8  1  0  0  0  0
 10 11  1  0  0  0  0
 10  9  2  0  0  0  0
 11  6  2  0  0  0  0
 14 10  1  0  0  0  0
 16 22  1  1  0  0  0
 17 15  1  6  0  0  0
 17 16  1  0  0  0  0
 18 17  1  0  0  0  0
 19 18  1  0  0  0  0
 19 20  1  0  0  0  0
 20 24  1  6  0  0  0
 20 21  1  0  0  0  0
 21 16  1  0  0  0  0
 21 26  1  6  0  0  0
 22 23  1  0  0  0  0
 24 25  1  0  0  0  0
 26 27  1  0  0  0  0
M  END
>  <minimizedAffinity>
-5.15638638

$$$$

 OpenBabel03272502313D

 27 28  0  0  1  0  0  0  0  0999 V2000
   38.9250   26.1030   35.6890 C   0  0  0  0  0  0  0  0  0  0  0  0
   39.8650   25.6950   35.3100 H   0  0  0  0  0  0  0  0  0  0  0  0
   39.2280   26.7900   36.5340 H   0  0  0  0  0  0  0  0  0  0  0  0
   37.1570   27.6620   34.9360 C   0  0  0  0  0  3  0  0  0  0  0  0
   38.1600   26.8810   34.6890 C   0  0  0  0  0  3  0  0  0  0  0  0
   36.0350   28.8120   31.5760 C   0  0  0  0  0  0  0  0  0  0  0  0
   36.7630   28.1550   32.5770 C   0  0  0  0  0  0  0  0  0  0  0  0
   36.4310   28.3070   33.8960 C   0  0  0  0  0  0  0  0  0  0  0  0
   35.3700   29.1130   34.2160 N   0  0  0  0  0  0  0  0  0  0  0  0
   34.6870   29.7300   33.2230 C   0  0  0  0  0  0  0  0  0  0  0  0
   35.0120   29.5850   31.9220 N   0  0  0  0  0  0  0  0  0  0  0  0
   36.2890   28.7150   30.5160 H   0  0  0  0  0  0  0  0  0  0  0  0
   37.5860   27.5370   32.2560 H   0  0  0  0  0  0  0  0  0  0  0  0
   33.8230   30.3920   33.3840 H   0  0  0  0  0  0  0  0  0  0  0  0
   37.8400   24.7860   36.3380 S   0  0  0  0  0  0  0  0  0  0  0  0
   39.6020   23.1900   37.5840 C   0  0  2  0  0  3  0  0  0  0  0  0
   38.6980   23.1540   36.3670 C   0  0  2  0  0  3  0  0  0  0  0  0
   39.4050   23.0830   35.1890 O   0  0  0  0  0  0  0  0  0  0  0  0
   40.4200   22.1770   35.1240 C   0  0  0  0  0  2  0  0  0  0  0  0
   41.5240   22.6310   36.0770 C   0  0  2  0  0  3  0  0  0  0  0  0
   40.9240   22.5370   37.4470 C   0  0  2  0  0  3  0  0  0  0  0  0
   38.9470   22.5950   38.6580 O   0  0  0  0  0  0  0  0  0  0  0  0
   39.1030   23.1000   39.5070 H   0  0  0  0  0  0  0  0  0  0  0  0
   41.9220   23.9090   35.7700 O   0  0  0  0  0  0  0  0  0  0  0  0
   41.7930   24.5520   36.5210 H   0  0  0  0  0  0  0  0  0  0  0  0
   40.9100   21.2270   37.9350 O   0  0  0  0  0  0  0  0  0  0  0  0
   40.8620   21.3170   38.9350 H   0  0  0  0  0  0  0  0  0  0  0  0
  1 15  1  0  0  0  0
  1  3  1  0  0  0  0
  2  1  1  0  0  0  0
  5  4  2  0  0  0  0
  5  1  1  0  0  0  0
  6 11  2  0  0  0  0
  6  7  1  0  0  0  0
  7  8  2  0  0  0  0
  8  9  1  0  0  0  0
  8  4  1  0  0  0  0
 10 14  1  0  0  0  0
 10  9  2  0  0  0  0
 11 10  1  0  0  0  0
 12  6  1  0  0  0  0
 13  7  1  0  0  0  0
 16 22  1  1  0  0  0
 17 15  1  6  0  0  0
 17 16  1  0  0  0  0
 18 17  1  0  0  0  0
 19 18  1  0  0  0  0
 19 20  1  0  0  0  0
 20 24  1  6  0  0  0
 20 21  1  0  0  0  0
 21 16  1  0  0  0  0
 21 26  1  6  0  0  0
 22 23  1  0  0  0  0
 24 25  1  0  0  0  0
 26 27  1  0  0  0  0
M  END
>  <minimizedAffinity>
-5.13745165

$$$$

 OpenBabel03272502313D

 27 28  0  0  1  0  0  0  0  0999 V2000
   38.5680   26.0660   36.3780 C   0  0  0  0  0  0  0  0  0  0  0  0
   39.3620   25.9240   37.1150 H   0  0  0  0  0  0  0  0  0  0  0  0
   37.9650   26.9380   36.7690 H   0  0  0  0  0  0  0  0  0  0  0  0
   40.2420   26.8210   34.7190 C   0  0  0  0  0  3  0  0  0  0  0  0
   39.0580   26.3910   35.0200 C   0  0  0  0  0  3  0  0  0  0  0  0
   40.0870   27.4550   31.0530 C   0  0  0  0  0  0  0  0  0  0  0  0
   39.7060   27.0990   32.3530 C   0  0  0  0  0  0  0  0  0  0  0  0
   40.5960   27.1860   33.3900 C   0  0  0  0  0  0  0  0  0  0  0  0
   41.8650   27.6310   33.1300 N   0  0  0  0  0  0  0  0  0  0  0  0
   42.1980   27.9680   31.8610 C   0  0  0  0  0  0  0  0  0  0  0  0
   41.3260   27.8820   30.8360 N   0  0  0  0  0  0  0  0  0  0  0  0
   39.3980   27.3830   30.2060 H   0  0  0  0  0  0  0  0  0  0  0  0
   38.6930   26.7560   32.4880 H   0  0  0  0  0  0  0  0  0  0  0  0
   43.1900   28.3370   31.5580 H   0  0  0  0  0  0  0  0  0  0  0  0
   37.4960   24.5930   36.2600 S   0  0  0  0  0  0  0  0  0  0  0  0
   39.3830   23.1900   37.5570 C   0  0  2  0  0  3  0  0  0  0  0  0
   38.4760   23.0330   36.3520 C   0  0  2  0  0  3  0  0  0  0  0  0
   39.1800   22.9640   35.1720 O   0  0  0  0  0  0  0  0  0  0  0  0
   40.2600   22.1350   35.1360 C   0  0  0  0  0  2  0  0  0  0  0  0
   41.3320   22.7120   36.0580 C   0  0  2  0  0  3  0  0  0  0  0  0
   40.7490   22.6340   37.4370 C   0  0  2  0  0  3  0  0  0  0  0  0
   38.7810   22.5960   38.6630 O   0  0  0  0  0  0  0  0  0  0  0  0
   38.9040   23.1480   39.4880 H   0  0  0  0  0  0  0  0  0  0  0  0
   41.6300   24.0020   35.6920 O   0  0  0  0  0  0  0  0  0  0  0  0
   41.4570   24.6660   36.4160 H   0  0  0  0  0  0  0  0  0  0  0  0
   40.8380   21.3500   37.9810 O   0  0  0  0  0  0  0  0  0  0  0  0
   40.7890   21.4800   38.9770 H   0  0  0  0  0  0  0  0  0  0  0  0
  1  3  1  0  0  0  0
  1  2  1  0  0  0  0
  4  5  2  0  0  0  0
  5  1  1  0  0  0  0
  6  7  1  0  0  0  0
  7 13  1  0  0  0  0
  7  8  2  0  0  0  0
  8  4  1  0  0  0  0
  9  8  1  0  0  0  0
 10  9  2  0  0  0  0
 11  6  2  0  0  0  0
 11 10  1  0  0  0  0
 12  6  1  0  0  0  0
 14 10  1  0  0  0  0
 15  1  1  0  0  0  0
 16 22  1  1  0  0  0
 17 15  1  6  0  0  0
 17 16  1  0  0  0  0
 18 17  1  0  0  0  0
 19 18  1  0  0  0  0
 19 20  1  0  0  0  0
 20 24  1  6  0  0  0
 20 21  1  0  0  0  0
 21 16  1  0  0  0  0
 21 26  1  6  0  0  0
 22 23  1  0  0  0  0
 24 25  1  0  0  0  0
 26 27  1  0  0  0  0
M  END
>  <minimizedAffinity>
-4.74974012

$$$$

 OpenBabel03272502313D

 27 28  0  0  1  0  0  0  0  0999 V2000
   36.9740   27.1450   33.6450 C   0  0  0  0  0  0  0  0  0  0  0  0
   35.9240   27.3500   33.8650 H   0  0  0  0  0  0  0  0  0  0  0  0
   37.5200   28.0940   33.9250 H   0  0  0  0  0  0  0  0  0  0  0  0
   37.7690   26.0060   35.6940 C   0  0  0  0  0  3  0  0  0  0  0  0
   37.5440   26.0190   34.4180 C   0  0  0  0  0  3  0  0  0  0  0  0
   38.6340   23.3680   38.1750 C   0  0  0  0  0  0  0  0  0  0  0  0
   37.9890   24.4500   37.5620 C   0  0  0  0  0  0  0  0  0  0  0  0
   38.3970   24.9040   36.3370 C   0  0  0  0  0  0  0  0  0  0  0  0
   39.4480   24.2770   35.7230 N   0  0  0  0  0  0  0  0  0  0  0  0
   40.0480   23.2320   36.3440 C   0  0  0  0  0  0  0  0  0  0  0  0
   39.6510   22.7830   37.5510 N   0  0  0  0  0  0  0  0  0  0  0  0
   38.3330   22.9950   39.1590 H   0  0  0  0  0  0  0  0  0  0  0  0
   37.1690   24.8980   38.1000 H   0  0  0  0  0  0  0  0  0  0  0  0
   40.8950   22.6680   35.9260 H   0  0  0  0  0  0  0  0  0  0  0  0
   37.2280   26.8020   31.8690 S   0  0  0  0  0  0  0  0  0  0  0  0
   37.0060   28.5030   29.8030 C   0  0  2  0  0  3  0  0  0  0  0  0
   37.9210   28.2680   30.9890 C   0  0  2  0  0  3  0  0  0  0  0  0
   39.1930   27.9060   30.6070 O   0  0  0  0  0  0  0  0  0  0  0  0
   39.7790   28.6370   29.6190 C   0  0  0  0  0  2  0  0  0  0  0  0
   39.0200   28.3760   28.3200 C   0  0  2  0  0  3  0  0  0  0  0  0
   37.6500   28.9400   28.5450 C   0  0  2  0  0  3  0  0  0  0  0  0
   36.0530   29.4580   30.1440 O   0  0  0  0  0  0  0  0  0  0  0  0
   35.1490   29.2180   29.7880 H   0  0  0  0  0  0  0  0  0  0  0  0
   38.9910   27.0300   28.0490 O   0  0  0  0  0  0  0  0  0  0  0  0
   38.0660   26.6590   27.9970 H   0  0  0  0  0  0  0  0  0  0  0  0
   37.6140   30.3300   28.3970 O   0  0  0  0  0  0  0  0  0  0  0  0
   36.6560   30.5490   28.1880 H   0  0  0  0  0  0  0  0  0  0  0  0
  1  2  1  0  0  0  0
  1  3  1  0  0  0  0
  1  5  1  0  0  0  0
  4  8  1  0  0  0  0
  5  4  2  0  0  0  0
  6 12  1  0  0  0  0
  7 13  1  0  0  0  0
  7  6  1  0  0  0  0
  8  7  2  0  0  0  0
  9  8  1  0  0  0  0
  9 10  2  0  0  0  0
 10 11  1  0  0  0  0
 11  6  2  0  0  0  0
 14 10  1  0  0  0  0
 15  1  1  0  0  0  0
 16 22  1  1  0  0  0
 16 17  1  0  0  0  0
 17 15  1  1  0  0  0
 18 17  1  0  0  0  0
 19 18  1  0  0  0  0
 20 24  1  1  0  0  0
 20 21  1  0  0  0  0
 20 19  1  0  0  0  0
 21 26  1  1  0  0  0
 21 16  1  0  0  0  0
 23 22  1  0  0  0  0
 25 24  1  0  0  0  0
 27 26  1  0  0  0  0
M  END
>  <minimizedAffinity>
-4.70831728

$$$$

 OpenBabel03272502313D

 27 28  0  0  1  0  0  0  0  0999 V2000
   37.3750   27.3510   34.2380 C   0  0  0  0  0  0  0  0  0  0  0  0
   36.3350   27.1860   33.9480 H   0  0  0  0  0  0  0  0  0  0  0  0
   37.4060   28.4190   34.6070 H   0  0  0  0  0  0  0  0  0  0  0  0
   38.3080   25.2550   35.1660 C   0  0  0  0  0  3  0  0  0  0  0  0
   37.8480   26.4570   35.3170 C   0  0  0  0  0  3  0  0  0  0  0  0
   38.3530   23.6680   38.5350 C   0  0  0  0  0  0  0  0  0  0  0  0
   37.9720   24.4770   37.4560 C   0  0  0  0  0  0  0  0  0  0  0  0
   38.6650   24.4390   36.2760 C   0  0  0  0  0  0  0  0  0  0  0  0
   39.7370   23.5940   36.1720 N   0  0  0  0  0  0  0  0  0  0  0  0
   40.0770   22.8250   37.2350 C   0  0  0  0  0  0  0  0  0  0  0  0
   39.3990   22.8600   38.3990 N   0  0  0  0  0  0  0  0  0  0  0  0
   37.8220   23.6890   39.4910 H   0  0  0  0  0  0  0  0  0  0  0  0
   37.1190   25.1190   37.6040 H   0  0  0  0  0  0  0  0  0  0  0  0
   40.9190   22.1170   37.2430 H   0  0  0  0  0  0  0  0  0  0  0  0
   38.5010   27.1690   32.8130 S   0  0  0  0  0  0  0  0  0  0  0  0
   36.2210   26.1670   31.8120 C   0  0  2  0  0  3  0  0  0  0  0  0
   37.6650   26.3500   31.3880 C   0  0  2  0  0  3  0  0  0  0  0  0
   38.3160   25.1500   31.2120 O   0  0  0  0  0  0  0  0  0  0  0  0
   37.6700   24.1880   30.4980 C   0  0  0  0  0  2  0  0  0  0  0  0
   36.4610   23.7250   31.3080 C   0  0  2  0  0  3  0  0  0  0  0  0
   35.5560   24.9170   31.3800 C   0  0  2  0  0  3  0  0  0  0  0  0
   35.4650   27.2330   31.3330 O   0  0  0  0  0  0  0  0  0  0  0  0
   34.7990   27.5450   32.0120 H   0  0  0  0  0  0  0  0  0  0  0  0
   36.8590   23.2980   32.5520 O   0  0  0  0  0  0  0  0  0  0  0  0
   36.4440   23.8150   33.2970 H   0  0  0  0  0  0  0  0  0  0  0  0
   34.8180   25.0980   30.2070 O   0  0  0  0  0  0  0  0  0  0  0  0
   34.0150   25.6380   30.4790 H   0  0  0  0  0  0  0  0  0  0  0  0
  1  3  1  0  0  0  0
  1  5  1  0  0  0  0
  2  1  1  0  0  0  0
  4  5  2  0  0  0  0
  4  8  1  0  0  0  0
  6 12  1  0  0  0  0
  7 13  1  0  0  0  0
  7  6  2  0  0  0  0
  8  7  1  0  0  0  0
  9  8  2  0  0  0  0
  9 10  1  0  0  0  0
 10 14  1  0  0  0  0
 10 11  2  0  0  0  0
 11  6  1  0  0  0  0
 15  1  1  0  0  0  0
 16 22  1  6  0  0  0
 17 16  1  0  0  0  0
 17 15  1  1  0  0  0
 18 17  1  0  0  0  0
 19 18  1  0  0  0  0
 19 20  1  0  0  0  0
 20 21  1  0  0  0  0
 20 24  1  1  0  0  0
 21 26  1  6  0  0  0
 21 16  1  0  0  0  0
 22 23  1  0  0  0  0
 24 25  1  0  0  0  0
 26 27  1  0  0  0  0
M  END
>  <minimizedAffinity>
-4.70112324

$$$$

 OpenBabel03272502313D

 27 28  0  0  1  0  0  0  0  0999 V2000
   38.1320   22.1560   32.3180 C   0  0  0  0  0  0  0  0  0  0  0  0
   38.8620   22.7410   31.7540 H   0  0  0  0  0  0  0  0  0  0  0  0
   38.3290   21.0830   32.0200 H   0  0  0  0  0  0  0  0  0  0  0  0
   38.2740   23.3830   34.4620 C   0  0  0  0  0  3  0  0  0  0  0  0
   38.2670   22.2780   33.7860 C   0  0  0  0  0  3  0  0  0  0  0  0
   37.9100   24.0940   38.1000 C   0  0  0  0  0  0  0  0  0  0  0  0
   37.6630   24.0830   36.7210 C   0  0  0  0  0  0  0  0  0  0  0  0
   38.4920   23.4040   35.8680 C   0  0  0  0  0  0  0  0  0  0  0  0
   39.5650   22.7340   36.3930 N   0  0  0  0  0  0  0  0  0  0  0  0
   39.7720   22.7640   37.7310 C   0  0  0  0  0  0  0  0  0  0  0  0
   38.9600   23.4340   38.5740 N   0  0  0  0  0  0  0  0  0  0  0  0
   37.2690   24.6390   38.7990 H   0  0  0  0  0  0  0  0  0  0  0  0
   36.8020   24.6310   36.3740 H   0  0  0  0  0  0  0  0  0  0  0  0
   40.6050   22.2550   38.2410 H   0  0  0  0  0  0  0  0  0  0  0  0
   36.4220   22.6060   31.8640 S   0  0  0  0  0  0  0  0  0  0  0  0
   37.8040   24.6610   30.8270 C   0  0  2  0  0  3  0  0  0  0  0  0
   36.3660   24.1880   30.9170 C   0  0  2  0  0  3  0  0  0  0  0  0
   35.5790   25.0390   31.6580 O   0  0  0  0  0  0  0  0  0  0  0  0
   35.6850   26.3720   31.4000 C   0  0  0  0  0  2  0  0  0  0  0  0
   37.0720   26.8330   31.8400 C   0  0  2  0  0  3  0  0  0  0  0  0
   38.0290   26.1200   30.9330 C   0  0  2  0  0  3  0  0  0  0  0  0
   38.3500   24.2360   29.6200 O   0  0  0  0  0  0  0  0  0  0  0  0
   39.2920   23.9180   29.7350 H   0  0  0  0  0  0  0  0  0  0  0  0
   37.2800   26.5220   33.1610 O   0  0  0  0  0  0  0  0  0  0  0  0
   38.0590   25.9170   33.3060 H   0  0  0  0  0  0  0  0  0  0  0  0
   38.1240   26.7240   29.6760 O   0  0  0  0  0  0  0  0  0  0  0  0
   39.0140   26.4360   29.3090 H   0  0  0  0  0  0  0  0  0  0  0  0
  1  5  1  0  0  0  0
  2  1  1  0  0  0  0
  3  1  1  0  0  0  0
  4  8  1  0  0  0  0
  5  4  2  0  0  0  0
  6 11  1  0  0  0  0
  6 12  1  0  0  0  0
  7  6  2  0  0  0  0
  8  9  2  0  0  0  0
  8  7  1  0  0  0  0
  9 10  1  0  0  0  0
 10 14  1  0  0  0  0
 10 11  2  0  0  0  0
 13  7  1  0  0  0  0
 15  1  1  0  0  0  0
 16 22  1  6  0  0  0
 16 17  1  0  0  0  0
 16 21  1  0  0  0  0
 17 18  1  0  0  0  0
 17 15  1  1  0  0  0
 19 18  1  0  0  0  0
 19 20  1  0  0  0  0
 20 24  1  1  0  0  0
 21 26  1  6  0  0  0
 21 20  1  0  0  0  0
 22 23  1  0  0  0  0
 24 25  1  0  0  0  0
 27 26  1  0  0  0  0
M  END
>  <minimizedAffinity>
-4.66708231

$$$$

 OpenBabel03272502313D

 27 28  0  0  1  0  0  0  0  0999 V2000
   36.5880   28.4190   32.2340 C   0  0  0  0  0  0  0  0  0  0  0  0
   36.1390   28.6990   31.2780 H   0  0  0  0  0  0  0  0  0  0  0  0
   37.6440   28.8180   32.1850 H   0  0  0  0  0  0  0  0  0  0  0  0
   35.5080   30.2280   33.5320 C   0  0  0  0  0  3  0  0  0  0  0  0
   35.9090   29.0020   33.4120 C   0  0  0  0  0  3  0  0  0  0  0  0
   35.0600   31.9550   36.8010 C   0  0  0  0  0  0  0  0  0  0  0  0
   35.6470   31.4950   35.6150 C   0  0  0  0  0  0  0  0  0  0  0  0
   34.9360   30.7190   34.7390 C   0  0  0  0  0  0  0  0  0  0  0  0
   33.6390   30.4050   35.0450 N   0  0  0  0  0  0  0  0  0  0  0  0
   33.1030   30.8690   36.2000 C   0  0  0  0  0  0  0  0  0  0  0  0
   33.7990   31.6310   37.0660 N   0  0  0  0  0  0  0  0  0  0  0  0
   35.6110   32.5660   37.5210 H   0  0  0  0  0  0  0  0  0  0  0  0
   36.6710   31.7780   35.4350 H   0  0  0  0  0  0  0  0  0  0  0  0
   32.0710   30.6700   36.5270 H   0  0  0  0  0  0  0  0  0  0  0  0
   36.6350   26.6060   32.4430 S   0  0  0  0  0  0  0  0  0  0  0  0
   37.9430   25.2940   34.3850 C   0  0  2  0  0  3  0  0  0  0  0  0
   38.2610   26.0420   33.1060 C   0  0  2  0  0  3  0  0  0  0  0  0
   38.9880   27.1880   33.3350 O   0  0  0  0  0  0  0  0  0  0  0  0
   40.0560   27.0920   34.1750 C   0  0  0  0  0  2  0  0  0  0  0  0
   39.5310   26.8170   35.5820 C   0  0  2  0  0  3  0  0  0  0  0  0
   38.8950   25.4630   35.5070 C   0  0  2  0  0  3  0  0  0  0  0  0
   37.8550   23.9330   34.1090 O   0  0  0  0  0  0  0  0  0  0  0  0
   37.0970   23.5070   34.6030 H   0  0  0  0  0  0  0  0  0  0  0  0
   38.6380   27.7920   35.9550 O   0  0  0  0  0  0  0  0  0  0  0  0
   37.7300   27.4350   36.1620 H   0  0  0  0  0  0  0  0  0  0  0  0
   39.8340   24.4280   35.5530 O   0  0  0  0  0  0  0  0  0  0  0  0
   39.3260   23.6230   35.8740 H   0  0  0  0  0  0  0  0  0  0  0  0
  1 15  1  0  0  0  0
  1  5  1  0  0  0  0
  2  1  1  0  0  0  0
  3  1  1  0  0  0  0
  4  8  1  0  0  0  0
  5  4  2  0  0  0  0
  6 11  1  0  0  0  0
  6 12  1  0  0  0  0
  7  6  2  0  0  0  0
  8  9  2  0  0  0  0
  8  7  1  0  0  0  0
  9 10  1  0  0  0  0
 10 14  1  0  0  0  0
 10 11  2  0  0  0  0
 13  7  1  0  0  0  0
 16 22  1  6  0  0  0
 16 21  1  0  0  0  0
 17 15  1  1  0  0  0
 17 18  1  0  0  0  0
 17 16  1  0  0  0  0
 18 19  1  0  0  0  0
 19 20  1  0  0  0  0
 20 24  1  6  0  0  0
 21 26  1  6  0  0  0
 21 20  1  0  0  0  0
 22 23  1  0  0  0  0
 24 25  1  0  0  0  0
 26 27  1  0  0  0  0
M  END
>  <minimizedAffinity>
-4.64924002

$$$$

 OpenBabel03272502313D

 27 28  0  0  1  0  0  0  0  0999 V2000
   40.3800   25.6950   32.8380 C   0  0  0  0  0  0  0  0  0  0  0  0
   39.8910   26.6680   32.7510 H   0  0  0  0  0  0  0  0  0  0  0  0
   41.4810   25.9120   32.7050 H   0  0  0  0  0  0  0  0  0  0  0  0
   39.0540   24.9400   34.7870 C   0  0  0  0  0  3  0  0  0  0  0  0
   40.1760   25.0330   34.1460 C   0  0  0  0  0  3  0  0  0  0  0  0
   37.9590   24.1290   38.2530 C   0  0  0  0  0  0  0  0  0  0  0  0
   38.0080   24.7180   36.9820 C   0  0  0  0  0  0  0  0  0  0  0  0
   38.9720   24.3540   36.0810 C   0  0  0  0  0  0  0  0  0  0  0  0
   39.8870   23.4030   36.4470 N   0  0  0  0  0  0  0  0  0  0  0  0
   39.8090   22.8540   37.6840 C   0  0  0  0  0  0  0  0  0  0  0  0
   38.8620   23.2100   38.5750 N   0  0  0  0  0  0  0  0  0  0  0  0
   37.2050   24.4120   38.9940 H   0  0  0  0  0  0  0  0  0  0  0  0
   37.2590   25.4600   36.7590 H   0  0  0  0  0  0  0  0  0  0  0  0
   40.4970   22.0830   38.0640 H   0  0  0  0  0  0  0  0  0  0  0  0
   39.8250   24.5510   31.5280 S   0  0  0  0  0  0  0  0  0  0  0  0
   38.3690   26.6000   30.5860 C   0  0  2  0  0  3  0  0  0  0  0  0
   38.2340   25.1020   30.7760 C   0  0  2  0  0  3  0  0  0  0  0  0
   37.2570   24.7750   31.6890 O   0  0  0  0  0  0  0  0  0  0  0  0
   36.0560   25.4070   31.5720 C   0  0  0  0  0  2  0  0  0  0  0  0
   36.2610   26.8830   31.9080 C   0  0  2  0  0  3  0  0  0  0  0  0
   37.1560   27.4120   30.8290 C   0  0  2  0  0  3  0  0  0  0  0  0
   38.7960   26.8590   29.2860 O   0  0  0  0  0  0  0  0  0  0  0  0
   39.4780   27.5900   29.2630 H   0  0  0  0  0  0  0  0  0  0  0  0
   36.8180   27.0130   33.1570 O   0  0  0  0  0  0  0  0  0  0  0  0
   37.6990   27.4790   33.1480 H   0  0  0  0  0  0  0  0  0  0  0  0
   36.4630   27.6810   29.6450 O   0  0  0  0  0  0  0  0  0  0  0  0
   37.0270   28.3520   29.1550 H   0  0  0  0  0  0  0  0  0  0  0  0
  1  5  1  0  0  0  0
  2  1  1  0  0  0  0
  3  1  1  0  0  0  0
  4  8  1  0  0  0  0
  5  4  2  0  0  0  0
  6 11  1  0  0  0  0
  6 12  1  0  0  0  0
  7  6  2  0  0  0  0
  8  9  2  0  0  0  0
  8  7  1  0  0  0  0
  9 10  1  0  0  0  0
 10 14  1  0  0  0  0
 10 11  2  0  0  0  0
 13  7  1  0  0  0  0
 15  1  1  0  0  0  0
 16 22  1  6  0  0  0
 16 17  1  0  0  0  0
 16 21  1  0  0  0  0
 17 15  1  1  0  0  0
 17 18  1  0  0  0  0
 19 18  1  0  0  0  0
 19 20  1  0  0  0  0
 20 24  1  1  0  0  0
 21 26  1  6  0  0  0
 21 20  1  0  0  0  0
 23 22  1  0  0  0  0
 25 24  1  0  0  0  0
 27 26  1  0  0  0  0
M  END
>  <minimizedAffinity>
-4.64548302

$$$$

 OpenBabel03272502313D

 27 28  0  0  1  0  0  0  0  0999 V2000
   35.6170   25.5240   31.2280 C   0  0  0  0  0  0  0  0  0  0  0  0
   35.4160   25.7340   30.1740 H   0  0  0  0  0  0  0  0  0  0  0  0
   34.8230   26.0980   31.7930 H   0  0  0  0  0  0  0  0  0  0  0  0
   36.2950   23.1450   31.1620 C   0  0  0  0  0  3  0  0  0  0  0  0
   35.5190   24.0920   31.5860 C   0  0  0  0  0  3  0  0  0  0  0  0
   36.2300   19.4240   31.0380 C   0  0  0  0  0  0  0  0  0  0  0  0
   36.4730   20.7570   30.6840 C   0  0  0  0  0  0  0  0  0  0  0  0
   36.0710   21.7810   31.4990 C   0  0  0  0  0  0  0  0  0  0  0  0
   35.4290   21.4740   32.6690 N   0  0  0  0  0  0  0  0  0  0  0  0
   35.2120   20.1730   32.9810 C   0  0  0  0  0  0  0  0  0  0  0  0
   35.6040   19.1620   32.1800 N   0  0  0  0  0  0  0  0  0  0  0  0
   36.5310   18.5900   30.3970 H   0  0  0  0  0  0  0  0  0  0  0  0
   36.9830   20.9290   29.7500 H   0  0  0  0  0  0  0  0  0  0  0  0
   34.7080   19.8320   33.8980 H   0  0  0  0  0  0  0  0  0  0  0  0
   37.2670   26.1240   31.7250 S   0  0  0  0  0  0  0  0  0  0  0  0
   37.7930   27.2280   34.1160 C   0  0  2  0  0  3  0  0  0  0  0  0
   37.5750   25.8490   33.5230 C   0  0  2  0  0  3  0  0  0  0  0  0
   38.7030   25.0640   33.5920 O   0  0  0  0  0  0  0  0  0  0  0  0
   39.3700   25.0330   34.7790 C   0  0  0  0  0  2  0  0  0  0  0  0
   39.9830   26.4110   35.0160 C   0  0  2  0  0  3  0  0  0  0  0  0
   38.8170   27.3380   35.1790 C   0  0  2  0  0  3  0  0  0  0  0  0
   36.5910   27.6960   34.6380 O   0  0  0  0  0  0  0  0  0  0  0  0
   36.4590   28.6670   34.4400 H   0  0  0  0  0  0  0  0  0  0  0  0
   40.7840   26.7630   33.9570 O   0  0  0  0  0  0  0  0  0  0  0  0
   40.4900   27.6000   33.5030 H   0  0  0  0  0  0  0  0  0  0  0  0
   38.2520   27.2660   36.4550 O   0  0  0  0  0  0  0  0  0  0  0  0
   37.7730   28.1400   36.5830 H   0  0  0  0  0  0  0  0  0  0  0  0
  1  5  1  0  0  0  0
  1 15  1  0  0  0  0
  1  3  1  0  0  0  0
  2  1  1  0  0  0  0
  4  8  1  0  0  0  0
  4  5  2  0  0  0  0
  6 11  1  0  0  0  0
  7  6  2  0  0  0  0
  7  8  1  0  0  0  0
  8  9  2  0  0  0  0
  9 10  1  0  0  0  0
 10 14  1  0  0  0  0
 11 10  2  0  0  0  0
 12  6  1  0  0  0  0
 13  7  1  0  0  0  0
 16 22  1  1  0  0  0
 16 21  1  0  0  0  0
 17 15  1  6  0  0  0
 17 18  1  0  0  0  0
 17 16  1  0  0  0  0
 18 19  1  0  0  0  0
 19 20  1  0  0  0  0
 20 24  1  6  0  0  0
 20 21  1  0  0  0  0
 21 26  1  1  0  0  0
 23 22  1  0  0  0  0
 25 24  1  0  0  0  0
 26 27  1  0  0  0  0
M  END
>  <minimizedAffinity>
-4.64114475

$$$$
