
 OpenBabel03272503503D

 40 42  0  0  1  0  0  0  0  0999 V2000
   33.2320   27.3030   45.8630 C   0  0  1  0  0  0  0  0  0  0  0  0
   33.9090   27.4580   47.2410 C   0  0  2  0  0  0  0  0  0  0  0  0
   33.7280   26.2400   47.8160 O   0  0  0  0  0  0  0  0  0  0  0  0
   34.0490   25.3280   46.8340 C   0  0  0  0  0  0  0  0  0  0  0  0
   33.6180   25.8890   45.5140 C   0  0  2  0  0  0  0  0  0  0  0  0
   33.7180   28.0450   45.2010 H   0  0  0  0  0  0  0  0  0  0  0  0
   34.9660   27.7590   47.0300 H   0  0  0  0  0  0  0  0  0  0  0  0
   33.4090   24.4230   47.0440 H   0  0  0  0  0  0  0  0  0  0  0  0
   35.0860   24.9630   46.8750 H   0  0  0  0  0  0  0  0  0  0  0  0
   32.7700   25.3480   45.0800 H   0  0  0  0  0  0  0  0  0  0  0  0
   31.8710   27.5240   45.9660 O   0  0  0  0  0  0  0  0  0  0  0  0
   31.4480   26.7460   46.3770 H   0  0  0  0  0  0  0  0  0  0  0  0
   33.2740   28.5180   47.8200 O   0  0  0  0  0  0  0  0  0  0  0  0
   35.3380   29.8040   46.7910 O   0  0  0  0  0  0  0  0  0  0  0  0
   34.0740   29.9860   47.6230 P   0  0  1  0  0  0  0  0  0  0  0  0
   33.1100   31.0540   46.7300 O   0  0  0  0  0  0  0  0  0  0  0  0
   32.1720   30.8760   46.9970 H   0  0  0  0  0  0  0  0  0  0  0  0
   34.3840   30.6000   49.1810 O   0  0  0  0  0  0  0  0  0  0  0  0
   35.6140   30.4850   49.7920 C   0  0  0  0  0  0  0  0  0  0  0  0
   35.9590   29.4700   50.7090 C   0  0  0  0  0  0  0  0  0  0  0  0
   37.2420   29.4850   51.2440 C   0  0  0  0  0  0  0  0  0  0  0  0
   38.1010   30.4820   50.8550 N   0  0  0  0  0  0  0  0  0  0  0  0
   37.7320   31.4460   49.9670 C   0  0  0  0  0  0  0  0  0  0  0  0
   36.4860   31.4520   49.4300 N   0  0  0  0  0  0  0  0  0  0  0  0
   35.1900   28.7710   50.9110 H   0  0  0  0  0  0  0  0  0  0  0  0
   37.4940   28.7180   51.9320 H   0  0  0  0  0  0  0  0  0  0  0  0
   38.4780   32.1910   49.7200 H   0  0  0  0  0  0  0  0  0  0  0  0
   34.6670   25.9010   44.6020 O   0  0  0  0  0  0  0  0  0  0  0  0
   35.5700   23.9870   43.5070 C   0  0  1  0  0  3  0  0  0  0  0  0
   34.4960   25.0510   43.5280 C   0  0  2  0  0  3  0  0  0  0  0  0
   34.6270   25.8560   42.3770 O   0  0  0  0  0  0  0  0  0  0  0  0
   35.8870   26.4700   42.4200 C   0  0  0  0  0  2  0  0  0  0  0  0
   36.9540   25.4370   42.1040 C   0  0  1  0  0  3  0  0  0  0  0  0
   36.3350   24.0570   42.1960 C   0  0  2  0  0  3  0  0  0  0  0  0
   36.5340   24.2220   44.5060 O   0  0  0  0  0  0  0  0  0  0  0  0
   36.5560   25.1570   44.7820 H   0  0  0  0  0  0  0  0  0  0  0  0
   37.4320   25.6100   40.7870 O   0  0  0  0  0  0  0  0  0  0  0  0
   37.9210   24.7810   40.5640 H   0  0  0  0  0  0  0  0  0  0  0  0
   35.4970   23.8610   41.1030 O   0  0  0  0  0  0  0  0  0  0  0  0
   34.8480   23.1630   41.3410 H   0  0  0  0  0  0  0  0  0  0  0  0
  1  6  1  6  0  0  0
  1 11  1  0  0  0  0
  1  2  1  0  0  0  0
  2  7  1  6  0  0  0
  2  3  1  0  0  0  0
  2 13  1  0  0  0  0
  4  9  1  0  0  0  0
  4  8  1  0  0  0  0
  4  3  1  0  0  0  0
  5 10  1  6  0  0  0
  5  1  1  0  0  0  0
  5  4  1  0  0  0  0
 11 12  1  0  0  0  0
 15 14  2  6  0  0  0
 15 13  1  0  0  0  0
 15 18  1  0  0  0  0
 16 17  1  0  0  0  0
 16 15  1  0  0  0  0
 18 19  1  0  0  0  0
 19 20  1  0  0  0  0
 20 25  1  0  0  0  0
 20 21  2  0  0  0  0
 21 26  1  0  0  0  0
 22 21  1  0  0  0  0
 23 22  2  0  0  0  0
 24 19  2  0  0  0  0
 24 23  1  0  0  0  0
 27 23  1  0  0  0  0
 28  5  1  0  0  0  0
 29 30  1  0  0  0  0
 29 35  1  1  0  0  0
 30 28  1  1  0  0  0
 31 32  1  0  0  0  0
 31 30  1  0  0  0  0
 33 37  1  6  0  0  0
 33 34  1  0  0  0  0
 33 32  1  0  0  0  0
 34 39  1  6  0  0  0
 34 29  1  0  0  0  0
 35 36  1  0  0  0  0
 38 37  1  0  0  0  0
 39 40  1  0  0  0  0
M  END
>  <minimizedAffinity>
-4.19566727

>  <minimizedRMSD>
0.654162467

$$$$
