
 OpenBabel03272502303D

 27 28  0  0  1  0  0  0  0  0999 V2000
   39.4060   32.4560   46.4780 C   0  0  0  0  0  0  0  0  0  0  0  0
   39.7640   33.4810   46.6060 H   0  0  0  0  0  0  0  0  0  0  0  0
   40.3280   31.8600   46.2100 H   0  0  0  0  0  0  0  0  0  0  0  0
   38.1340   30.7630   47.7580 C   0  0  0  0  0  3  0  0  0  0  0  0
   38.7960   31.8750   47.6940 C   0  0  0  0  0  3  0  0  0  0  0  0
   37.3700   30.2110   51.3610 C   0  0  0  0  0  0  0  0  0  0  0  0
   37.9980   30.6670   50.1950 C   0  0  0  0  0  0  0  0  0  0  0  0
   37.5130   30.3240   48.9610 C   0  0  0  0  0  0  0  0  0  0  0  0
   36.4000   29.5290   48.8920 N   0  0  0  0  0  0  0  0  0  0  0  0
   35.8180   29.1080   50.0400 C   0  0  0  0  0  0  0  0  0  0  0  0
   36.2930   29.4410   51.2570 N   0  0  0  0  0  0  0  0  0  0  0  0
   37.7460   30.4620   52.3580 H   0  0  0  0  0  0  0  0  0  0  0  0
   38.8690   31.2890   50.3200 H   0  0  0  0  0  0  0  0  0  0  0  0
   34.9220   28.4700   50.0830 H   0  0  0  0  0  0  0  0  0  0  0  0
   38.1920   32.3380   45.1200 S   0  0  0  0  0  0  0  0  0  0  0  0
   37.9740   30.9770   42.8150 C   0  0  2  0  0  3  0  0  0  0  0  0
   38.9940   31.8380   43.5360 C   0  0  2  0  0  3  0  0  0  0  0  0
   40.1180   31.1300   43.8940 O   0  0  0  0  0  0  0  0  0  0  0  0
   40.6760   30.3230   42.9490 C   0  0  0  0  0  2  0  0  0  0  0  0
   39.7070   29.1750   42.6730 C   0  0  2  0  0  3  0  0  0  0  0  0
   38.5000   29.8170   42.0610 C   0  0  2  0  0  3  0  0  0  0  0  0
   37.2560   31.7690   41.9240 O   0  0  0  0  0  0  0  0  0  0  0  0
   36.2840   31.5340   41.9260 H   0  0  0  0  0  0  0  0  0  0  0  0
   39.4110   28.5120   43.8390 O   0  0  0  0  0  0  0  0  0  0  0  0
   38.4390   28.5240   44.0620 H   0  0  0  0  0  0  0  0  0  0  0  0
   38.6800   30.1140   40.7070 O   0  0  0  0  0  0  0  0  0  0  0  0
   37.7550   30.1680   40.3220 H   0  0  0  0  0  0  0  0  0  0  0  0
  1  2  1  0  0  0  0
  1  5  1  0  0  0  0
  3  1  1  0  0  0  0
  4  8  1  0  0  0  0
  5  4  2  0  0  0  0
  6 12  1  0  0  0  0
  7 13  1  0  0  0  0
  7  6  2  0  0  0  0
  8  7  1  0  0  0  0
  9  8  2  0  0  0  0
  9 10  1  0  0  0  0
 10 14  1  0  0  0  0
 10 11  2  0  0  0  0
 11  6  1  0  0  0  0
 15  1  1  0  0  0  0
 16 22  1  6  0  0  0
 16 17  1  0  0  0  0
 17 18  1  0  0  0  0
 17 15  1  1  0  0  0
 19 18  1  0  0  0  0
 20 19  1  0  0  0  0
 20 24  1  1  0  0  0
 21 26  1  6  0  0  0
 21 20  1  0  0  0  0
 21 16  1  0  0  0  0
 22 23  1  0  0  0  0
 24 25  1  0  0  0  0
 27 26  1  0  0  0  0
M  END
>  <minimizedAffinity>
-5.29748392

>  <minimizedRMSD>
0.872682989

$$$$
