
 OpenBabel03272509433D

 41 43  0  0  1  0  0  0  0  0999 V2000
   37.1770   30.9520   49.0050 C   0  0  0  0  0  0  0  0  0  0  0  0
   36.9760   31.9230   49.9880 C   0  0  0  0  0  0  0  0  0  0  0  0
   37.6040   33.1610   49.9310 C   0  0  0  0  0  0  0  0  0  0  0  0
   38.4580   33.4470   48.8620 C   0  0  0  0  0  0  0  0  0  0  0  0
   38.6430   32.4870   47.9090 C   0  0  0  0  0  0  0  0  0  0  0  0
   38.0010   31.2620   47.9990 C   0  0  0  0  0  0  0  0  0  0  0  0
   36.3040   31.6830   50.8160 H   0  0  0  0  0  0  0  0  0  0  0  0
   37.3770   33.8290   50.7410 H   0  0  0  0  0  0  0  0  0  0  0  0
   38.8960   34.4240   48.8990 H   0  0  0  0  0  0  0  0  0  0  0  0
   39.3330   32.8550   47.1470 H   0  0  0  0  0  0  0  0  0  0  0  0
   36.5540   29.6490   49.0850 C   0  0  2  0  0  0  0  0  0  0  0  0
   37.0480   29.0230   48.2470 H   0  0  0  0  0  0  0  0  0  0  0  0
   33.6430   30.0310   46.9460 C   0  0  0  0  0  0  0  0  0  0  0  0
   32.9410   28.8520   47.1220 C   0  0  0  0  0  0  0  0  0  0  0  0
   33.4290   27.9340   48.0310 C   0  0  0  0  0  0  0  0  0  0  0  0
   34.5870   28.2180   48.7240 N   0  0  0  0  0  0  0  0  0  0  0  0
   35.2110   29.3580   48.5090 C   0  0  0  0  0  0  0  0  0  0  0  0
   34.7480   30.2640   47.6310 N   0  0  0  0  0  0  0  0  0  0  0  0
   33.2330   30.7290   46.2270 H   0  0  0  0  0  0  0  0  0  0  0  0
   32.0280   28.5590   46.6160 H   0  0  0  0  0  0  0  0  0  0  0  0
   32.9810   26.9730   48.2690 H   0  0  0  0  0  0  0  0  0  0  0  0
   36.9920   28.9520   50.0760 O   0  0  0  0  0  0  0  0  0  0  0  0
   36.8690   29.4110   50.9670 H   0  0  0  0  0  0  0  0  0  0  0  0
   38.3080   30.3280   46.9400 C   0  0  0  0  0  3  0  0  0  0  0  0
   38.8550   30.6830   45.7710 C   0  0  0  0  0  3  0  0  0  0  0  0
   39.2490   29.8130   44.6380 C   0  0  0  0  0  0  0  0  0  0  0  0
   39.8290   28.9080   44.9750 H   0  0  0  0  0  0  0  0  0  0  0  0
   38.3430   29.4230   44.1390 H   0  0  0  0  0  0  0  0  0  0  0  0
   40.2630   30.7460   43.4880 S   0  0  0  0  0  0  0  0  0  0  0  0
   40.9910   29.3390   41.3160 C   0  0  1  0  0  3  0  0  0  0  0  0
   39.9650   30.3660   41.7660 C   0  0  2  0  0  3  0  0  0  0  0  0
   39.9900   31.5000   40.9690 O   0  0  0  0  0  0  0  0  0  0  0  0
   39.9500   31.0960   39.6300 C   0  0  0  0  0  2  0  0  0  0  0  0
   41.3600   30.6710   39.2840 C   0  0  1  0  0  3  0  0  0  0  0  0
   42.0540   29.9690   40.4290 C   0  0  2  0  0  3  0  0  0  0  0  0
   41.6640   28.8000   42.4140 O   0  0  0  0  0  0  0  0  0  0  0  0
   41.1450   28.8560   43.2560 H   0  0  0  0  0  0  0  0  0  0  0  0
   41.3370   29.7930   38.2250 O   0  0  0  0  0  0  0  0  0  0  0  0
   40.4660   29.7310   37.7970 H   0  0  0  0  0  0  0  0  0  0  0  0
   42.8790   28.9360   39.9860 O   0  0  0  0  0  0  0  0  0  0  0  0
   42.3730   28.1750   39.6250 H   0  0  0  0  0  0  0  0  0  0  0  0
  1 11  1  0  0  0  0
  1  2  1  0  0  0  0
  2  7  1  0  0  0  0
  3  2  2  0  0  0  0
  3  8  1  0  0  0  0
  4  9  1  0  0  0  0
  4  3  1  0  0  0  0
  5  6  1  0  0  0  0
  5  4  2  0  0  0  0
  6  1  2  0  0  0  0
 10  5  1  0  0  0  0
 11 12  1  6  0  0  0
 11 22  1  0  0  0  0
 13 14  2  0  0  0  0
 13 18  1  0  0  0  0
 14 15  1  0  0  0  0
 15 21  1  0  0  0  0
 15 16  2  0  0  0  0
 17 16  1  0  0  0  0
 17 11  1  0  0  0  0
 18 17  2  0  0  0  0
 19 13  1  0  0  0  0
 20 14  1  0  0  0  0
 22 23  1  0  0  0  0
 24  6  1  0  0  0  0
 25 24  2  0  0  0  0
 26 27  1  0  0  0  0
 26 25  1  0  0  0  0
 28 26  1  0  0  0  0
 29 26  1  0  0  0  0
 30 31  1  0  0  0  0
 30 36  1  1  0  0  0
 31 29  1  1  0  0  0
 32 31  1  0  0  0  0
 33 32  1  0  0  0  0
 34 38  1  6  0  0  0
 34 33  1  0  0  0  0
 34 35  1  0  0  0  0
 35 40  1  6  0  0  0
 35 30  1  0  0  0  0
 36 37  1  0  0  0  0
 39 38  1  0  0  0  0
 41 40  1  0  0  0  0
M  END
>  <minimizedAffinity>
-6.54871941

>  <minimizedRMSD>
0.740227461

$$$$
