
 OpenBabel03272506433D

 35 37  0  0  1  0  0  0  0  0999 V2000
   32.4330   28.8030   47.5640 C   0  0  2  0  0  0  0  0  0  0  0  0
   33.7320   28.6600   48.3380 C   0  0  1  0  0  0  0  0  0  0  0  0
   34.0350   27.3270   48.4020 O   0  0  0  0  0  0  0  0  0  0  0  0
   33.1990   26.6160   47.5550 C   0  0  0  0  0  0  0  0  0  0  0  0
   32.5910   27.6520   46.6010 C   0  0  1  0  0  0  0  0  0  0  0  0
   31.6020   28.6430   48.2760 H   0  0  0  0  0  0  0  0  0  0  0  0
   33.5780   29.1550   49.3070 H   0  0  0  0  0  0  0  0  0  0  0  0
   33.8440   25.8920   47.0070 H   0  0  0  0  0  0  0  0  0  0  0  0
   32.3530   26.1450   48.0790 H   0  0  0  0  0  0  0  0  0  0  0  0
   33.3360   27.9210   45.8560 H   0  0  0  0  0  0  0  0  0  0  0  0
   32.3620   30.0310   46.9280 O   0  0  0  0  0  0  0  0  0  0  0  0
   31.7610   30.0270   46.1540 H   0  0  0  0  0  0  0  0  0  0  0  0
   35.0090   29.4950   47.3460 S   0  0  0  0  0  0  0  0  0  0  0  0
   37.5790   29.7950   50.3500 C   0  0  0  0  0  0  0  0  0  0  0  0
   38.2390   31.0080   50.1490 C   0  0  0  0  0  0  0  0  0  0  0  0
   37.8660   31.7690   49.0230 C   0  0  0  0  0  0  0  0  0  0  0  0
   36.8990   31.2920   48.2060 N   0  0  0  0  0  0  0  0  0  0  0  0
   36.2840   30.1140   48.4340 C   0  0  0  0  0  0  0  0  0  0  0  0
   36.6120   29.3630   49.4940 N   0  0  0  0  0  0  0  0  0  0  0  0
   37.7890   29.1330   51.1840 H   0  0  0  0  0  0  0  0  0  0  0  0
   38.9930   31.3160   50.8420 H   0  0  0  0  0  0  0  0  0  0  0  0
   38.3710   32.7110   48.8590 H   0  0  0  0  0  0  0  0  0  0  0  0
   31.3820   27.1870   46.1190 O   0  0  0  0  0  0  0  0  0  0  0  0
   29.5280   26.6620   47.5740 C   0  0  2  0  0  0  0  0  0  0  0  0
   30.3620   27.7110   46.9130 C   0  0  2  0  0  0  0  0  0  0  0  0
   29.6360   28.6440   46.1910 O   0  0  0  0  0  0  0  0  0  0  0  0
   28.7170   28.0700   45.3260 C   0  0  0  0  0  0  0  0  0  0  0  0
   27.6320   27.5170   46.2300 C   0  0  1  0  0  0  0  0  0  0  0  0
   28.2360   26.3280   46.9230 C   0  0  1  0  0  0  0  0  0  0  0  0
   29.2790   26.9680   48.9160 O   0  0  0  0  0  0  0  0  0  0  0  0
   29.0310   27.9030   48.9870 H   0  0  0  0  0  0  0  0  0  0  0  0
   27.3730   28.5210   47.1850 O   0  0  0  0  0  0  0  0  0  0  0  0
   26.5310   28.3410   47.6710 H   0  0  0  0  0  0  0  0  0  0  0  0
   28.4040   25.3140   45.9610 O   0  0  0  0  0  0  0  0  0  0  0  0
   28.3120   24.4440   46.4480 H   0  0  0  0  0  0  0  0  0  0  0  0
  1  6  1  1  0  0  0
  1  2  1  0  0  0  0
  2  3  1  0  0  0  0
  2  7  1  1  0  0  0
  4  9  1  0  0  0  0
  4  3  1  0  0  0  0
  5 10  1  6  0  0  0
  5  4  1  0  0  0  0
  5  1  1  0  0  0  0
  8  4  1  0  0  0  0
 11  1  1  0  0  0  0
 12 11  1  0  0  0  0
 13  2  1  0  0  0  0
 13 18  1  0  0  0  0
 14 20  1  0  0  0  0
 15 14  1  0  0  0  0
 15 21  1  0  0  0  0
 16 15  2  0  0  0  0
 17 18  2  0  0  0  0
 17 16  1  0  0  0  0
 18 19  1  0  0  0  0
 19 14  2  0  0  0  0
 22 16  1  0  0  0  0
 23  5  1  0  0  0  0
 24 30  1  1  0  0  0
 25 23  1  6  0  0  0
 25 24  1  0  0  0  0
 26 25  1  0  0  0  0
 27 26  1  0  0  0  0
 27 28  1  0  0  0  0
 28 29  1  0  0  0  0
 28 32  1  1  0  0  0
 29 34  1  6  0  0  0
 29 24  1  0  0  0  0
 30 31  1  0  0  0  0
 32 33  1  0  0  0  0
 34 35  1  0  0  0  0
M  END
>  <minimizedAffinity>
-4.72738743

>  <minimizedRMSD>
3.80925465

$$$$
