
 OpenBabel03272504573D

 36 38  0  0  1  0  0  0  0  0999 V2000
   37.0800   31.5750   48.6370 C   0  0  1  0  0  0  0  0  0  0  0  0
   36.3920   30.8520   47.5970 C   0  0  0  0  0  0  0  0  0  0  0  0
   37.3300   30.1390   48.5160 C   0  0  2  0  0  0  0  0  0  0  0  0
   36.5670   31.8770   49.6170 H   0  0  0  0  0  0  0  0  0  0  0  0
   35.3450   31.0680   47.6830 H   0  0  0  0  0  0  0  0  0  0  0  0
   36.7570   31.0090   46.5590 H   0  0  0  0  0  0  0  0  0  0  0  0
   38.0760   29.6120   47.9530 H   0  0  0  0  0  0  0  0  0  0  0  0
   38.2220   32.4940   48.3140 C   0  0  0  0  0  0  0  0  0  0  0  0
   38.5660   33.4310   49.3230 C   0  0  0  0  0  0  0  0  0  0  0  0
   39.6160   34.2580   48.9920 C   0  0  0  0  0  0  0  0  0  0  0  0
   40.2360   34.1400   47.7800 N   0  0  0  0  0  0  0  0  0  0  0  0
   39.8700   33.2300   46.8470 C   0  0  0  0  0  0  0  0  0  0  0  0
   38.8310   32.3950   47.1490 N   0  0  0  0  0  0  0  0  0  0  0  0
   40.5040   33.1160   45.6070 N   0  0  0  0  0  0  0  0  0  0  0  0
   38.0840   33.5210   50.2650 H   0  0  0  0  0  0  0  0  0  0  0  0
   39.9210   34.9900   49.7230 H   0  0  0  0  0  0  0  0  0  0  0  0
   41.3750   33.7030   45.4570 H   0  0  0  0  0  0  0  0  0  0  0  0
   40.1240   32.4810   44.8730 H   0  0  0  0  0  0  0  0  0  0  0  0
   36.7160   29.3480   49.5000 O   0  0  0  0  0  0  0  0  0  0  0  0
   34.7030   27.7650   49.7540 O   0  0  0  0  0  0  0  0  0  0  0  0
   35.1310   29.0340   49.0920 P   0  0  1  0  0  0  0  0  0  0  0  0
   34.1180   30.2700   49.7640 O   0  0  0  0  0  0  0  0  0  0  0  0
   34.5980   30.6840   50.5330 H   0  0  0  0  0  0  0  0  0  0  0  0
   34.9870   29.0200   47.4200 O   0  0  0  0  0  0  0  0  0  0  0  0
   32.7870   29.5890   46.8970 C   0  0  2  0  0  3  0  0  0  0  0  0
   33.8100   28.4800   46.9620 C   0  0  1  0  0  3  0  0  0  0  0  0
   33.9550   27.7810   45.7700 O   0  0  0  0  0  0  0  0  0  0  0  0
   32.7130   27.1390   45.5610 C   0  0  0  0  0  2  0  0  0  0  0  0
   31.7830   28.2720   45.1140 C   0  0  1  0  0  3  0  0  0  0  0  0
   31.4780   29.0320   46.4090 C   0  0  2  0  0  3  0  0  0  0  0  0
   33.1730   30.5750   45.9700 O   0  0  0  0  0  0  0  0  0  0  0  0
   33.4850   31.3410   46.4850 H   0  0  0  0  0  0  0  0  0  0  0  0
   32.5330   29.1370   44.3180 O   0  0  0  0  0  0  0  0  0  0  0  0
   31.9650   29.4300   43.5790 H   0  0  0  0  0  0  0  0  0  0  0  0
   30.5280   30.0140   46.1950 O   0  0  0  0  0  0  0  0  0  0  0  0
   30.9890   30.7900   45.7560 H   0  0  0  0  0  0  0  0  0  0  0  0
  1  4  1  1  0  0  0
  2  5  1  0  0  0  0
  2  3  1  0  0  0  0
  2  1  1  0  0  0  0
  3  7  1  6  0  0  0
  3  1  1  0  0  0  0
  3 19  1  0  0  0  0
  6  2  1  0  0  0  0
  8  1  1  0  0  0  0
  8  9  1  0  0  0  0
  9 15  1  0  0  0  0
 10  9  2  0  0  0  0
 10 16  1  0  0  0  0
 11 10  1  0  0  0  0
 12 13  1  0  0  0  0
 12 11  2  0  0  0  0
 13  8  2  0  0  0  0
 14 12  1  0  0  0  0
 17 14  1  0  0  0  0
 18 14  1  0  0  0  0
 21 19  1  0  0  0  0
 21 20  2  1  0  0  0
 21 22  1  0  0  0  0
 22 23  1  0  0  0  0
 24 21  1  0  0  0  0
 25 31  1  6  0  0  0
 25 26  1  0  0  0  0
 26 24  1  6  0  0  0
 27 26  1  0  0  0  0
 28 27  1  0  0  0  0
 29 33  1  6  0  0  0
 29 28  1  0  0  0  0
 29 30  1  0  0  0  0
 30 35  1  6  0  0  0
 30 25  1  0  0  0  0
 31 32  1  0  0  0  0
 34 33  1  0  0  0  0
 36 35  1  0  0  0  0
M  END
>  <minimizedAffinity>
-5.11589479

>  <minimizedRMSD>
0.351810753

$$$$
