
 OpenBabel03272504393D

 45 47  0  0  1  0  0  0  0  0999 V2000
   34.5320   29.5630   48.9980 C   0  0  0  0  0  0  0  0  0  0  0  0
   33.8080   30.3870   49.2760 H   0  0  0  0  0  0  0  0  0  0  0  0
   35.3750   29.7200   49.7040 H   0  0  0  0  0  0  0  0  0  0  0  0
   37.2730   30.6770   48.8000 Cl  0  0  0  0  0  0  0  0  0  0  0  0
   36.2420   30.3690   47.4050 C   0  0  0  0  0  0  0  0  0  0  0  0
   36.7020   30.6520   46.1560 C   0  0  0  0  0  0  0  0  0  0  0  0
   35.9090   30.4170   45.0670 C   0  0  0  0  0  0  0  0  0  0  0  0
   34.6440   29.8920   45.2600 C   0  0  0  0  0  0  0  0  0  0  0  0
   34.2180   29.6190   46.5620 C   0  0  0  0  0  0  0  0  0  0  0  0
   34.9930   29.8460   47.6590 C   0  0  0  0  0  0  0  0  0  0  0  0
   36.3200   30.6600   44.0800 H   0  0  0  0  0  0  0  0  0  0  0  0
   34.1030   29.7460   44.3310 H   0  0  0  0  0  0  0  0  0  0  0  0
   33.2610   29.2380   46.4960 H   0  0  0  0  0  0  0  0  0  0  0  0
   39.7010   32.7980   46.4150 C   0  0  0  0  0  0  0  0  0  0  0  0
   40.5820   32.1270   45.5000 C   0  0  0  0  0  0  0  0  0  0  0  0
   40.1090   30.9770   44.8410 C   0  0  0  0  0  0  0  0  0  0  0  0
   38.8450   30.5520   45.0980 N   0  0  0  0  0  0  0  0  0  0  0  0
   38.0360   31.2070   45.9670 C   0  0  0  0  0  0  0  0  0  0  0  0
   38.4710   32.3060   46.6040 N   0  0  0  0  0  0  0  0  0  0  0  0
   40.0640   33.6690   46.9120 H   0  0  0  0  0  0  0  0  0  0  0  0
   41.5780   32.4870   45.3170 H   0  0  0  0  0  0  0  0  0  0  0  0
   40.9990   30.3580   43.9610 N   0  0  0  0  0  0  0  0  0  0  0  0
   42.0300   30.2800   44.1650 H   0  0  0  0  0  0  0  0  0  0  0  0
   40.6280   29.9590   43.0730 H   0  0  0  0  0  0  0  0  0  0  0  0
   33.9070   28.2760   49.2850 C   0  0  0  0  0  0  0  0  0  0  0  0
   34.3320   27.7750   50.1860 H   0  0  0  0  0  0  0  0  0  0  0  0
   34.0990   27.5630   48.4440 H   0  0  0  0  0  0  0  0  0  0  0  0
   32.5590   28.3990   49.5030 O   0  0  0  0  0  0  0  0  0  0  0  0
   32.5440   26.5650   47.6160 O   0  0  0  0  0  0  0  0  0  0  0  0
   31.6880   27.5900   48.3200 P   0  0  2  0  0  0  0  0  0  0  0  0
   31.1240   28.7790   47.2180 O   0  0  0  0  0  0  0  0  0  0  0  0
   30.9840   29.6440   47.6330 H   0  0  0  0  0  0  0  0  0  0  0  0
   30.3380   26.8230   48.9350 O   0  0  0  0  0  0  0  0  0  0  0  0
   28.4530   27.2310   50.4080 C   0  0  2  0  0  0  0  0  0  0  0  0
   29.5430   27.7880   49.5560 C   0  0  2  0  0  0  0  0  0  0  0  0
   29.0600   28.6710   48.5930 O   0  0  0  0  0  0  0  0  0  0  0  0
   27.8560   28.2280   48.0460 C   0  0  0  0  0  0  0  0  0  0  0  0
   26.7270   28.2830   49.0420 C   0  0  2  0  0  0  0  0  0  0  0  0
   27.3110   28.2290   50.4320 C   0  0  1  0  0  0  0  0  0  0  0  0
   28.9000   26.9650   51.7180 O   0  0  0  0  0  0  0  0  0  0  0  0
   28.2800   26.3800   52.1950 H   0  0  0  0  0  0  0  0  0  0  0  0
   25.8870   27.2260   48.7950 O   0  0  0  0  0  0  0  0  0  0  0  0
   25.9720   26.9330   47.8500 H   0  0  0  0  0  0  0  0  0  0  0  0
   26.3570   27.8920   51.3880 O   0  0  0  0  0  0  0  0  0  0  0  0
   25.8750   28.7290   51.6760 H   0  0  0  0  0  0  0  0  0  0  0  0
  1  2  1  0  0  0  0
  1 25  1  0  0  0  0
  1  3  1  0  0  0  0
  5 10  1  0  0  0  0
  5  4  1  0  0  0  0
  6  5  2  0  0  0  0
  7  8  2  0  0  0  0
  7  6  1  0  0  0  0
  8  9  1  0  0  0  0
  9 10  2  0  0  0  0
 10  1  1  0  0  0  0
 11  7  1  0  0  0  0
 12  8  1  0  0  0  0
 13  9  1  0  0  0  0
 14 19  1  0  0  0  0
 14 20  1  0  0  0  0
 15 14  2  0  0  0  0
 16 17  2  0  0  0  0
 16 15  1  0  0  0  0
 17 18  1  0  0  0  0
 18  6  1  0  0  0  0
 18 19  2  0  0  0  0
 21 15  1  0  0  0  0
 22 23  1  0  0  0  0
 22 16  1  0  0  0  0
 24 22  1  0  0  0  0
 25 28  1  0  0  0  0
 25 26  1  0  0  0  0
 27 25  1  0  0  0  0
 30 29  2  6  0  0  0
 30 33  1  0  0  0  0
 30 28  1  0  0  0  0
 31 32  1  0  0  0  0
 31 30  1  0  0  0  0
 34 39  1  0  0  0  0
 34 40  1  1  0  0  0
 35 33  1  6  0  0  0
 35 34  1  0  0  0  0
 36 35  1  0  0  0  0
 37 36  1  0  0  0  0
 37 38  1  0  0  0  0
 38 42  1  6  0  0  0
 38 39  1  0  0  0  0
 39 44  1  1  0  0  0
 40 41  1  0  0  0  0
 43 42  1  0  0  0  0
 44 45  1  0  0  0  0
M  END
>  <minimizedAffinity>
-7.52337551

>  <minimizedRMSD>
0.625601828

$$$$
