
 OpenBabel03272506153D

 31 33  0  0  1  0  0  0  0  0999 V2000
   37.3100   30.5140   50.4020 C   0  0  0  0  0  0  0  0  0  0  0  0
   38.3890   31.4090   50.1880 C   0  0  0  0  0  0  0  0  0  0  0  0
   38.5460   31.9530   48.8980 C   0  0  0  0  0  0  0  0  0  0  0  0
   37.6570   31.5830   47.9560 N   0  0  0  0  0  0  0  0  0  0  0  0
   36.6410   30.7310   48.1870 C   0  0  0  0  0  0  0  0  0  0  0  0
   36.4600   30.1910   49.4080 N   0  0  0  0  0  0  0  0  0  0  0  0
   35.6960   30.3340   47.2010 N   0  0  0  0  0  0  0  0  0  0  0  0
   36.0690   30.4050   45.9130 C   0  0  0  0  0  0  0  0  0  0  0  0
   35.1050   30.0050   45.0060 C   0  0  0  0  0  0  0  0  0  0  0  0
   33.8390   29.5560   45.3660 C   0  0  0  0  0  0  0  0  0  0  0  0
   32.9770   29.1960   44.5310 O   0  0  0  0  0  0  0  0  0  0  0  0
   33.5230   29.5070   46.7040 N   0  0  0  0  0  0  0  0  0  0  0  0
   34.4820   29.9040   47.5580 C   0  0  0  0  0  0  0  0  0  0  0  0
   34.2210   29.8700   48.8090 O   0  0  0  0  0  0  0  0  0  0  0  0
   37.1560   30.0690   51.3970 H   0  0  0  0  0  0  0  0  0  0  0  0
   39.0550   31.6580   50.9760 H   0  0  0  0  0  0  0  0  0  0  0  0
   39.3520   32.6410   48.6790 H   0  0  0  0  0  0  0  0  0  0  0  0
   37.0440   30.7500   45.5970 H   0  0  0  0  0  0  0  0  0  0  0  0
   35.3490   30.0420   43.9510 H   0  0  0  0  0  0  0  0  0  0  0  0
   32.3340   27.5640   47.3400 C   0  0  1  0  0  3  0  0  0  0  0  0
   32.2100   29.0440   47.1120 C   0  0  2  0  0  3  0  0  0  0  0  0
   31.3050   29.3270   46.1210 O   0  0  0  0  0  0  0  0  0  0  0  0
   30.0340   28.9410   46.4730 C   0  0  0  0  0  2  0  0  0  0  0  0
   29.8740   27.4800   46.7670 C   0  0  2  0  0  3  0  0  0  0  0  0
   31.0390   26.8370   47.4460 C   0  0  2  0  0  3  0  0  0  0  0  0
   33.1070   27.0690   46.2890 O   0  0  0  0  0  0  0  0  0  0  0  0
   33.9930   26.7390   46.5900 H   0  0  0  0  0  0  0  0  0  0  0  0
   29.4860   26.7980   45.6140 O   0  0  0  0  0  0  0  0  0  0  0  0
   28.9660   26.0070   45.9110 H   0  0  0  0  0  0  0  0  0  0  0  0
   30.7840   26.5680   48.7900 O   0  0  0  0  0  0  0  0  0  0  0  0
   30.0760   25.8900   48.9190 H   0  0  0  0  0  0  0  0  0  0  0  0
  1 15  1  0  0  0  0
  2  1  1  0  0  0  0
  2 16  1  0  0  0  0
  3  2  2  0  0  0  0
  4  5  2  0  0  0  0
  4  3  1  0  0  0  0
  5  6  1  0  0  0  0
  6  1  2  0  0  0  0
  7 13  1  0  0  0  0
  7  5  1  0  0  0  0
  8  7  1  0  0  0  0
  9 10  1  0  0  0  0
  9  8  2  0  0  0  0
 10 12  1  0  0  0  0
 11 10  2  0  0  0  0
 12 13  1  0  0  0  0
 13 14  2  0  0  0  0
 17  3  1  0  0  0  0
 18  8  1  0  0  0  0
 19  9  1  0  0  0  0
 20 26  1  6  0  0  0
 20 25  1  0  0  0  0
 21 12  1  6  0  0  0
 21 20  1  0  0  0  0
 22 23  1  0  0  0  0
 22 21  1  0  0  0  0
 23 24  1  0  0  0  0
 24 28  1  6  0  0  0
 24 25  1  0  0  0  0
 25 30  1  1  0  0  0
 26 27  1  0  0  0  0
 28 29  1  0  0  0  0
 30 31  1  0  0  0  0
M  END
>  <minimizedAffinity>
-5.14153385

>  <minimizedRMSD>
2.94512773

$$$$
