
 OpenBabel03272510253D

 35 38  0  0  1  0  0  0  0  0999 V2000
   35.7360   29.6250   32.8100 C   0  0  0  0  0  0  0  0  0  0  0  0
   35.8330   29.7990   34.1820 C   0  0  0  0  0  0  0  0  0  0  0  0
   36.3620   28.8000   34.9970 C   0  0  0  0  0  0  0  0  0  0  0  0
   36.7770   27.6360   34.3620 C   0  0  0  0  0  0  0  0  0  0  0  0
   37.3220   26.5190   34.9160 N   0  0  0  0  0  0  0  0  0  0  0  0
   37.5630   25.6620   33.9280 C   0  0  0  0  0  0  0  0  0  0  0  0
   37.1920   26.1910   32.7710 N   0  0  0  0  0  0  0  0  0  0  0  0
   36.6950   27.4250   32.9910 C   0  0  0  0  0  0  0  0  0  0  0  0
   36.1640   28.4410   32.2080 C   0  0  0  0  0  0  0  0  0  0  0  0
   35.3350   30.3660   32.1320 H   0  0  0  0  0  0  0  0  0  0  0  0
   36.4330   28.9430   36.0470 H   0  0  0  0  0  0  0  0  0  0  0  0
   37.5070   26.3930   35.9550 H   0  0  0  0  0  0  0  0  0  0  0  0
   36.0980   28.2800   31.1350 H   0  0  0  0  0  0  0  0  0  0  0  0
   35.2770   32.8260   36.3310 C   0  0  0  0  0  0  0  0  0  0  0  0
   35.8060   31.6050   35.9240 C   0  0  0  0  0  0  0  0  0  0  0  0
   35.3630   31.0640   34.7210 C   0  0  0  0  0  0  0  0  0  0  0  0
   34.4330   31.7650   34.0100 N   0  0  0  0  0  0  0  0  0  0  0  0
   33.9380   32.9530   34.4360 C   0  0  0  0  0  0  0  0  0  0  0  0
   34.3630   33.4700   35.5870 N   0  0  0  0  0  0  0  0  0  0  0  0
   35.6190   33.2540   37.2700 H   0  0  0  0  0  0  0  0  0  0  0  0
   36.5420   31.0580   36.4930 H   0  0  0  0  0  0  0  0  0  0  0  0
   33.2090   33.4010   33.7780 H   0  0  0  0  0  0  0  0  0  0  0  0
   38.1250   24.4010   34.1390 O   0  0  0  0  0  0  0  0  0  0  0  0
   38.5450   22.3010   35.2750 C   0  0  1  0  0  3  0  0  0  0  0  0
   38.0590   23.7290   35.3660 C   0  0  1  0  0  3  0  0  0  0  0  0
   38.8030   24.4370   36.3000 O   0  0  0  0  0  0  0  0  0  0  0  0
   39.1150   23.6640   37.4050 C   0  0  0  0  0  2  0  0  0  0  0  0
   40.2480   22.7510   37.0530 C   0  0  2  0  0  3  0  0  0  0  0  0
   40.0110   22.1850   35.6690 C   0  0  2  0  0  3  0  0  0  0  0  0
   37.7300   21.4820   36.0770 O   0  0  0  0  0  0  0  0  0  0  0  0
   36.8650   21.9430   36.1560 H   0  0  0  0  0  0  0  0  0  0  0  0
   40.3300   21.7310   38.0010 O   0  0  0  0  0  0  0  0  0  0  0  0
   40.2600   20.8530   37.5790 H   0  0  0  0  0  0  0  0  0  0  0  0
   40.7360   22.8880   34.7070 O   0  0  0  0  0  0  0  0  0  0  0  0
   40.9550   22.2940   33.9510 H   0  0  0  0  0  0  0  0  0  0  0  0
  1  2  1  0  0  0  0
  2 16  1  0  0  0  0
  2  3  2  0  0  0  0
  3 11  1  0  0  0  0
  4  5  1  0  0  0  0
  4  3  1  0  0  0  0
  5 12  1  0  0  0  0
  6 23  1  0  0  0  0
  6  5  1  0  0  0  0
  7  8  1  0  0  0  0
  7  6  2  0  0  0  0
  8  4  2  0  0  0  0
  9  1  2  0  0  0  0
  9  8  1  0  0  0  0
 10  1  1  0  0  0  0
 13  9  1  0  0  0  0
 14 20  1  0  0  0  0
 15 14  1  0  0  0  0
 15 21  1  0  0  0  0
 16 15  2  0  0  0  0
 17 18  2  0  0  0  0
 17 16  1  0  0  0  0
 18 19  1  0  0  0  0
 19 14  2  0  0  0  0
 22 18  1  0  0  0  0
 24 25  1  0  0  0  0
 24 29  1  0  0  0  0
 24 30  1  1  0  0  0
 25 23  1  6  0  0  0
 25 26  1  0  0  0  0
 26 27  1  0  0  0  0
 28 27  1  0  0  0  0
 28 32  1  1  0  0  0
 29 34  1  6  0  0  0
 29 28  1  0  0  0  0
 30 31  1  0  0  0  0
 33 32  1  0  0  0  0
 35 34  1  0  0  0  0
M  END
>  <minimizedAffinity>
-6.27319527

$$$$

 OpenBabel03272510253D

 35 38  0  0  1  0  0  0  0  0999 V2000
   37.4290   28.8850   30.7720 C   0  0  0  0  0  0  0  0  0  0  0  0
   36.4000   29.0090   31.6930 C   0  0  0  0  0  0  0  0  0  0  0  0
   36.2730   28.1130   32.7520 C   0  0  0  0  0  0  0  0  0  0  0  0
   37.2230   27.1010   32.8270 C   0  0  0  0  0  0  0  0  0  0  0  0
   37.3280   26.1060   33.7500 N   0  0  0  0  0  0  0  0  0  0  0  0
   38.3880   25.3730   33.4250 C   0  0  0  0  0  0  0  0  0  0  0  0
   38.9590   25.8630   32.3340 N   0  0  0  0  0  0  0  0  0  0  0  0
   38.2670   26.9450   31.9240 C   0  0  0  0  0  0  0  0  0  0  0  0
   38.3650   27.8560   30.8810 C   0  0  0  0  0  0  0  0  0  0  0  0
   37.5750   29.5520   29.9330 H   0  0  0  0  0  0  0  0  0  0  0  0
   35.4820   28.2160   33.4540 H   0  0  0  0  0  0  0  0  0  0  0  0
   36.6620   25.9730   34.5680 H   0  0  0  0  0  0  0  0  0  0  0  0
   39.1810   27.7370   30.1710 H   0  0  0  0  0  0  0  0  0  0  0  0
   34.8190   32.2690   30.7110 C   0  0  0  0  0  0  0  0  0  0  0  0
   35.7970   31.2860   30.8280 C   0  0  0  0  0  0  0  0  0  0  0  0
   35.4730   30.1110   31.5010 C   0  0  0  0  0  0  0  0  0  0  0  0
   34.2120   29.9930   32.0070 N   0  0  0  0  0  0  0  0  0  0  0  0
   33.2820   30.9710   31.8750 C   0  0  0  0  0  0  0  0  0  0  0  0
   33.5930   32.0940   31.2310 N   0  0  0  0  0  0  0  0  0  0  0  0
   35.0660   33.1890   30.1870 H   0  0  0  0  0  0  0  0  0  0  0  0
   36.7930   31.3880   30.4240 H   0  0  0  0  0  0  0  0  0  0  0  0
   32.3250   30.7480   32.3220 H   0  0  0  0  0  0  0  0  0  0  0  0
   38.7940   24.2580   34.1630 O   0  0  0  0  0  0  0  0  0  0  0  0
   38.5890   22.4330   35.7450 C   0  0  1  0  0  3  0  0  0  0  0  0
   38.0900   23.7810   35.2760 C   0  0  1  0  0  3  0  0  0  0  0  0
   38.1880   24.7170   36.2960 O   0  0  0  0  0  0  0  0  0  0  0  0
   37.8720   24.1730   37.5290 C   0  0  0  0  0  2  0  0  0  0  0  0
   39.0390   23.3760   38.0200 C   0  0  2  0  0  3  0  0  0  0  0  0
   39.6080   22.5770   36.8670 C   0  0  2  0  0  3  0  0  0  0  0  0
   37.4930   21.6480   36.1430 O   0  0  0  0  0  0  0  0  0  0  0  0
   36.7100   21.9960   35.6600 H   0  0  0  0  0  0  0  0  0  0  0  0
   38.6230   22.5350   39.0520 O   0  0  0  0  0  0  0  0  0  0  0  0
   38.8180   21.6000   38.8440 H   0  0  0  0  0  0  0  0  0  0  0  0
   40.7190   23.2120   36.3130 O   0  0  0  0  0  0  0  0  0  0  0  0
   41.3310   22.5440   35.9250 H   0  0  0  0  0  0  0  0  0  0  0  0
  1  9  2  0  0  0  0
  1  2  1  0  0  0  0
  2  3  2  0  0  0  0
  3  4  1  0  0  0  0
  3 11  1  0  0  0  0
  4  5  1  0  0  0  0
  5 12  1  0  0  0  0
  6  5  1  0  0  0  0
  6 23  1  0  0  0  0
  7  6  2  0  0  0  0
  8  7  1  0  0  0  0
  8  4  2  0  0  0  0
  9  8  1  0  0  0  0
 10  1  1  0  0  0  0
 13  9  1  0  0  0  0
 14 15  2  0  0  0  0
 14 19  1  0  0  0  0
 15 16  1  0  0  0  0
 16  2  1  0  0  0  0
 16 17  2  0  0  0  0
 18 17  1  0  0  0  0
 18 22  1  0  0  0  0
 19 18  2  0  0  0  0
 20 14  1  0  0  0  0
 21 15  1  0  0  0  0
 24 30  1  1  0  0  0
 24 29  1  0  0  0  0
 25 23  1  6  0  0  0
 25 24  1  0  0  0  0
 25 26  1  0  0  0  0
 26 27  1  0  0  0  0
 27 28  1  0  0  0  0
 28 32  1  1  0  0  0
 29 34  1  6  0  0  0
 29 28  1  0  0  0  0
 31 30  1  0  0  0  0
 33 32  1  0  0  0  0
 35 34  1  0  0  0  0
M  END
>  <minimizedAffinity>
-6.17298651

$$$$

 OpenBabel03272510253D

 35 38  0  0  1  0  0  0  0  0999 V2000
   36.8300   28.2670   32.1740 C   0  0  0  0  0  0  0  0  0  0  0  0
   36.2220   28.5800   33.3800 C   0  0  0  0  0  0  0  0  0  0  0  0
   36.6000   27.9450   34.5600 C   0  0  0  0  0  0  0  0  0  0  0  0
   37.6060   26.9910   34.4580 C   0  0  0  0  0  0  0  0  0  0  0  0
   38.1560   26.2330   35.4450 N   0  0  0  0  0  0  0  0  0  0  0  0
   39.0830   25.4610   34.8840 C   0  0  0  0  0  0  0  0  0  0  0  0
   39.1420   25.7010   33.5820 N   0  0  0  0  0  0  0  0  0  0  0  0
   38.2380   26.6500   33.2680 C   0  0  0  0  0  0  0  0  0  0  0  0
   37.8370   27.3030   32.1100 C   0  0  0  0  0  0  0  0  0  0  0  0
   36.5760   28.7290   31.2290 H   0  0  0  0  0  0  0  0  0  0  0  0
   36.1300   28.1920   35.4800 H   0  0  0  0  0  0  0  0  0  0  0  0
   37.8690   26.2780   36.4670 H   0  0  0  0  0  0  0  0  0  0  0  0
   38.3290   27.0390   31.1770 H   0  0  0  0  0  0  0  0  0  0  0  0
   34.2120   31.7060   33.9030 C   0  0  0  0  0  0  0  0  0  0  0  0
   35.2770   30.8180   34.0090 C   0  0  0  0  0  0  0  0  0  0  0  0
   35.1830   29.5960   33.3490 C   0  0  0  0  0  0  0  0  0  0  0  0
   34.0500   29.3420   32.6350 N   0  0  0  0  0  0  0  0  0  0  0  0
   33.0300   30.2310   32.5520 C   0  0  0  0  0  0  0  0  0  0  0  0
   33.1200   31.4000   33.1840 N   0  0  0  0  0  0  0  0  0  0  0  0
   34.2790   32.6630   34.4170 H   0  0  0  0  0  0  0  0  0  0  0  0
   36.1710   31.0280   34.5770 H   0  0  0  0  0  0  0  0  0  0  0  0
   32.1930   29.9040   31.9540 H   0  0  0  0  0  0  0  0  0  0  0  0
   39.8510   24.5490   35.6120 O   0  0  0  0  0  0  0  0  0  0  0  0
   39.5550   23.2540   37.6390 C   0  0  1  0  0  3  0  0  0  0  0  0
   39.3280   23.3660   36.1490 C   0  0  1  0  0  3  0  0  0  0  0  0
   37.9730   23.3080   35.8570 O   0  0  0  0  0  0  0  0  0  0  0  0
   37.3090   22.4010   36.6650 C   0  0  0  0  0  2  0  0  0  0  0  0
   37.0910   23.0180   38.0100 C   0  0  2  0  0  3  0  0  0  0  0  0
   38.3490   23.7510   38.4240 C   0  0  2  0  0  3  0  0  0  0  0  0
   39.8640   21.9210   37.9610 O   0  0  0  0  0  0  0  0  0  0  0  0
   40.2360   21.5160   37.1450 H   0  0  0  0  0  0  0  0  0  0  0  0
   36.7700   22.0190   38.9300 O   0  0  0  0  0  0  0  0  0  0  0  0
   37.3970   22.0180   39.6800 H   0  0  0  0  0  0  0  0  0  0  0  0
   38.2450   25.1170   38.1650 O   0  0  0  0  0  0  0  0  0  0  0  0
   38.7950   25.6250   38.8070 H   0  0  0  0  0  0  0  0  0  0  0  0
  1  2  1  0  0  0  0
  2  3  2  0  0  0  0
  3 11  1  0  0  0  0
  4  3  1  0  0  0  0
  4  5  1  0  0  0  0
  5 12  1  0  0  0  0
  6  5  1  0  0  0  0
  6 23  1  0  0  0  0
  7  6  2  0  0  0  0
  8  7  1  0  0  0  0
  8  4  2  0  0  0  0
  9  1  2  0  0  0  0
  9  8  1  0  0  0  0
 10  1  1  0  0  0  0
 13  9  1  0  0  0  0
 14 15  1  0  0  0  0
 14 20  1  0  0  0  0
 15 21  1  0  0  0  0
 16  2  1  0  0  0  0
 16 15  2  0  0  0  0
 17 16  1  0  0  0  0
 18 17  2  0  0  0  0
 18 19  1  0  0  0  0
 19 14  2  0  0  0  0
 22 18  1  0  0  0  0
 24 30  1  6  0  0  0
 24 29  1  0  0  0  0
 25 23  1  1  0  0  0
 25 24  1  0  0  0  0
 26 25  1  0  0  0  0
 26 27  1  0  0  0  0
 27 28  1  0  0  0  0
 28 29  1  0  0  0  0
 28 32  1  1  0  0  0
 29 34  1  6  0  0  0
 31 30  1  0  0  0  0
 32 33  1  0  0  0  0
 34 35  1  0  0  0  0
M  END
>  <minimizedAffinity>
-6.05091238

$$$$

 OpenBabel03272510253D

 35 38  0  0  1  0  0  0  0  0999 V2000
   37.0980   28.6150   30.8690 C   0  0  0  0  0  0  0  0  0  0  0  0
   38.3150   28.3960   30.2410 C   0  0  0  0  0  0  0  0  0  0  0  0
   39.2050   27.4360   30.7160 C   0  0  0  0  0  0  0  0  0  0  0  0
   38.8080   26.7230   31.8410 C   0  0  0  0  0  0  0  0  0  0  0  0
   39.4810   25.7410   32.5020 N   0  0  0  0  0  0  0  0  0  0  0  0
   38.7160   25.3500   33.5170 C   0  0  0  0  0  0  0  0  0  0  0  0
   37.5880   26.0440   33.5270 N   0  0  0  0  0  0  0  0  0  0  0  0
   37.5980   26.9150   32.4980 C   0  0  0  0  0  0  0  0  0  0  0  0
   36.7340   27.8790   31.9980 C   0  0  0  0  0  0  0  0  0  0  0  0
   36.3700   29.3470   30.5430 H   0  0  0  0  0  0  0  0  0  0  0  0
   40.1350   27.2740   30.2280 H   0  0  0  0  0  0  0  0  0  0  0  0
   40.4410   25.3810   32.2240 H   0  0  0  0  0  0  0  0  0  0  0  0
   35.7860   28.0320   32.5080 H   0  0  0  0  0  0  0  0  0  0  0  0
   38.0770   30.7490   27.3260 C   0  0  0  0  0  0  0  0  0  0  0  0
   37.6720   30.0180   28.4380 C   0  0  0  0  0  0  0  0  0  0  0  0
   38.6090   29.2090   29.0730 C   0  0  0  0  0  0  0  0  0  0  0  0
   39.8740   29.1810   28.5660 N   0  0  0  0  0  0  0  0  0  0  0  0
   40.2380   29.9070   27.4800 C   0  0  0  0  0  0  0  0  0  0  0  0
   39.3400   30.6800   26.8730 N   0  0  0  0  0  0  0  0  0  0  0  0
   37.3500   31.3830   26.8260 H   0  0  0  0  0  0  0  0  0  0  0  0
   36.6670   30.0480   28.8330 H   0  0  0  0  0  0  0  0  0  0  0  0
   41.2700   29.7920   27.1840 H   0  0  0  0  0  0  0  0  0  0  0  0
   39.1010   24.3480   34.4120 O   0  0  0  0  0  0  0  0  0  0  0  0
   38.6620   22.4800   35.8920 C   0  0  1  0  0  3  0  0  0  0  0  0
   38.2600   23.8580   35.4180 C   0  0  1  0  0  3  0  0  0  0  0  0
   38.2640   24.7560   36.4760 O   0  0  0  0  0  0  0  0  0  0  0  0
   37.7920   24.1810   37.6430 C   0  0  0  0  0  2  0  0  0  0  0  0
   38.8710   23.3310   38.2370 C   0  0  2  0  0  3  0  0  0  0  0  0
   39.5480   22.5530   37.1280 C   0  0  2  0  0  3  0  0  0  0  0  0
   37.5060   21.7170   36.1320 O   0  0  0  0  0  0  0  0  0  0  0  0
   36.7950   22.1060   35.5750 H   0  0  0  0  0  0  0  0  0  0  0  0
   38.3140   22.4700   39.1820 O   0  0  0  0  0  0  0  0  0  0  0  0
   38.5060   21.5370   38.9640 H   0  0  0  0  0  0  0  0  0  0  0  0
   40.7330   23.1700   36.7290 O   0  0  0  0  0  0  0  0  0  0  0  0
   41.3670   22.4950   36.3900 H   0  0  0  0  0  0  0  0  0  0  0  0
  1  9  1  0  0  0  0
  2  3  1  0  0  0  0
  2  1  2  0  0  0  0
  3  4  2  0  0  0  0
  4  8  1  0  0  0  0
  4  5  1  0  0  0  0
  5  6  1  0  0  0  0
  6  7  2  0  0  0  0
  6 23  1  0  0  0  0
  8  7  1  0  0  0  0
  9  8  2  0  0  0  0
  9 13  1  0  0  0  0
 10  1  1  0  0  0  0
 11  3  1  0  0  0  0
 12  5  1  0  0  0  0
 14 15  1  0  0  0  0
 15 21  1  0  0  0  0
 15 16  2  0  0  0  0
 16  2  1  0  0  0  0
 17 16  1  0  0  0  0
 18 17  2  0  0  0  0
 19 14  2  0  0  0  0
 19 18  1  0  0  0  0
 20 14  1  0  0  0  0
 22 18  1  0  0  0  0
 24 30  1  1  0  0  0
 24 29  1  0  0  0  0
 25 23  1  6  0  0  0
 25 24  1  0  0  0  0
 25 26  1  0  0  0  0
 26 27  1  0  0  0  0
 27 28  1  0  0  0  0
 28 32  1  1  0  0  0
 29 34  1  6  0  0  0
 29 28  1  0  0  0  0
 31 30  1  0  0  0  0
 33 32  1  0  0  0  0
 35 34  1  0  0  0  0
M  END
>  <minimizedAffinity>
-5.89351273

$$$$

 OpenBabel03272510253D

 35 38  0  0  1  0  0  0  0  0999 V2000
   37.2270   27.4960   34.8540 C   0  0  0  0  0  0  0  0  0  0  0  0
   36.6710   27.7200   33.6030 C   0  0  0  0  0  0  0  0  0  0  0  0
   36.6580   26.7190   32.6340 C   0  0  0  0  0  0  0  0  0  0  0  0
   37.2300   25.5030   32.9890 C   0  0  0  0  0  0  0  0  0  0  0  0
   37.3480   24.3740   32.2390 N   0  0  0  0  0  0  0  0  0  0  0  0
   37.9600   23.4620   32.9880 C   0  0  0  0  0  0  0  0  0  0  0  0
   38.2350   23.9680   34.1810 N   0  0  0  0  0  0  0  0  0  0  0  0
   37.7960   25.2420   34.2300 C   0  0  0  0  0  0  0  0  0  0  0  0
   37.7920   26.2600   35.1730 C   0  0  0  0  0  0  0  0  0  0  0  0
   37.2630   28.2360   35.6420 H   0  0  0  0  0  0  0  0  0  0  0  0
   36.2290   26.9000   31.6790 H   0  0  0  0  0  0  0  0  0  0  0  0
   37.0010   24.2770   31.2400 H   0  0  0  0  0  0  0  0  0  0  0  0
   38.2340   26.0600   36.1470 H   0  0  0  0  0  0  0  0  0  0  0  0
   35.5450   30.9290   32.0160 C   0  0  0  0  0  0  0  0  0  0  0  0
   36.1180   29.6660   32.1190 C   0  0  0  0  0  0  0  0  0  0  0  0
   36.1060   29.0360   33.3600 C   0  0  0  0  0  0  0  0  0  0  0  0
   35.5300   29.6980   34.4050 N   0  0  0  0  0  0  0  0  0  0  0  0
   34.9800   30.9290   34.2700 C   0  0  0  0  0  0  0  0  0  0  0  0
   34.9920   31.5300   33.0820 N   0  0  0  0  0  0  0  0  0  0  0  0
   35.5510   31.4260   31.0490 H   0  0  0  0  0  0  0  0  0  0  0  0
   36.5710   29.1500   31.2860 H   0  0  0  0  0  0  0  0  0  0  0  0
   34.5580   31.3380   35.1750 H   0  0  0  0  0  0  0  0  0  0  0  0
   38.2470   22.1730   32.5300 O   0  0  0  0  0  0  0  0  0  0  0  0
   36.0610   21.3400   33.1620 C   0  0  1  0  0  3  0  0  0  0  0  0
   37.5240   21.0420   32.9260 C   0  0  1  0  0  3  0  0  0  0  0  0
   37.6690   20.0610   31.9550 O   0  0  0  0  0  0  0  0  0  0  0  0
   36.6970   19.0810   32.0610 C   0  0  0  0  0  2  0  0  0  0  0  0
   35.4200   19.6010   31.4800 C   0  0  2  0  0  3  0  0  0  0  0  0
   35.2240   21.0340   31.9280 C   0  0  2  0  0  3  0  0  0  0  0  0
   35.6140   20.6130   34.2800 O   0  0  0  0  0  0  0  0  0  0  0  0
   36.4090   20.4340   34.8310 H   0  0  0  0  0  0  0  0  0  0  0  0
   34.3600   18.7980   31.9020 O   0  0  0  0  0  0  0  0  0  0  0  0
   33.6820   19.3260   32.3660 H   0  0  0  0  0  0  0  0  0  0  0  0
   35.6320   21.9310   30.9410 O   0  0  0  0  0  0  0  0  0  0  0  0
   35.1140   22.7670   31.0100 H   0  0  0  0  0  0  0  0  0  0  0  0
  1  9  1  0  0  0  0
  1 10  1  0  0  0  0
  2  1  2  0  0  0  0
  3  4  2  0  0  0  0
  3  2  1  0  0  0  0
  4  8  1  0  0  0  0
  5  6  1  0  0  0  0
  5  4  1  0  0  0  0
  6  7  2  0  0  0  0
  7  8  1  0  0  0  0
  8  9  2  0  0  0  0
  9 13  1  0  0  0  0
 11  3  1  0  0  0  0
 12  5  1  0  0  0  0
 14 15  2  0  0  0  0
 14 19  1  0  0  0  0
 15 16  1  0  0  0  0
 16  2  1  0  0  0  0
 16 17  2  0  0  0  0
 18 17  1  0  0  0  0
 18 22  1  0  0  0  0
 19 18  2  0  0  0  0
 20 14  1  0  0  0  0
 21 15  1  0  0  0  0
 23  6  1  0  0  0  0
 24 30  1  1  0  0  0
 25 23  1  6  0  0  0
 25 24  1  0  0  0  0
 26 27  1  0  0  0  0
 26 25  1  0  0  0  0
 28 32  1  1  0  0  0
 28 29  1  0  0  0  0
 28 27  1  0  0  0  0
 29 34  1  6  0  0  0
 29 24  1  0  0  0  0
 30 31  1  0  0  0  0
 32 33  1  0  0  0  0
 34 35  1  0  0  0  0
M  END
>  <minimizedAffinity>
-5.8836689

$$$$

 OpenBabel03272510253D

 35 38  0  0  1  0  0  0  0  0999 V2000
   35.1480   29.0020   32.8060 C   0  0  0  0  0  0  0  0  0  0  0  0
   35.6820   29.1140   34.0810 C   0  0  0  0  0  0  0  0  0  0  0  0
   36.6770   28.2430   34.5210 C   0  0  0  0  0  0  0  0  0  0  0  0
   37.0930   27.2700   33.6200 C   0  0  0  0  0  0  0  0  0  0  0  0
   38.0380   26.3060   33.7940 N   0  0  0  0  0  0  0  0  0  0  0  0
   38.1010   25.6040   32.6660 C   0  0  0  0  0  0  0  0  0  0  0  0
   37.2360   26.0840   31.7860 N   0  0  0  0  0  0  0  0  0  0  0  0
   36.5820   27.1270   32.3370 C   0  0  0  0  0  0  0  0  0  0  0  0
   35.5920   28.0120   31.9300 C   0  0  0  0  0  0  0  0  0  0  0  0
   34.3750   29.6510   32.4140 H   0  0  0  0  0  0  0  0  0  0  0  0
   37.0810   28.3370   35.4990 H   0  0  0  0  0  0  0  0  0  0  0  0
   38.6020   26.1720   34.6850 H   0  0  0  0  0  0  0  0  0  0  0  0
   35.1890   27.9030   30.9250 H   0  0  0  0  0  0  0  0  0  0  0  0
   35.3340   32.0250   36.4240 C   0  0  0  0  0  0  0  0  0  0  0  0
   35.9570   31.0500   35.6520 C   0  0  0  0  0  0  0  0  0  0  0  0
   35.1580   30.1750   34.9240 C   0  0  0  0  0  0  0  0  0  0  0  0
   33.8050   30.3260   35.0110 N   0  0  0  0  0  0  0  0  0  0  0  0
   33.2290   31.2870   35.7730 C   0  0  0  0  0  0  0  0  0  0  0  0
   33.9950   32.1240   36.4690 N   0  0  0  0  0  0  0  0  0  0  0  0
   35.9530   32.7120   36.9960 H   0  0  0  0  0  0  0  0  0  0  0  0
   37.0300   30.9390   35.5900 H   0  0  0  0  0  0  0  0  0  0  0  0
   32.1500   31.2950   35.7510 H   0  0  0  0  0  0  0  0  0  0  0  0
   38.9740   24.5270   32.4930 O   0  0  0  0  0  0  0  0  0  0  0  0
   40.2540   23.0520   33.9280 C   0  0  1  0  0  3  0  0  0  0  0  0
   38.9260   23.3700   33.2810 C   0  0  1  0  0  3  0  0  0  0  0  0
   37.9410   23.5310   34.2460 O   0  0  0  0  0  0  0  0  0  0  0  0
   38.0870   22.6320   35.2880 C   0  0  0  0  0  2  0  0  0  0  0  0
   39.1820   23.1090   36.1900 C   0  0  2  0  0  3  0  0  0  0  0  0
   40.3330   23.6110   35.3420 C   0  0  2  0  0  3  0  0  0  0  0  0
   40.4550   21.6600   33.9130 O   0  0  0  0  0  0  0  0  0  0  0  0
   39.9160   21.3090   33.1690 H   0  0  0  0  0  0  0  0  0  0  0  0
   39.5910   22.0610   37.0150 O   0  0  0  0  0  0  0  0  0  0  0  0
   40.5470   21.8850   36.9120 H   0  0  0  0  0  0  0  0  0  0  0  0
   40.3010   24.9990   35.2210 O   0  0  0  0  0  0  0  0  0  0  0  0
   41.2150   25.3480   35.0970 H   0  0  0  0  0  0  0  0  0  0  0  0
  1  2  1  0  0  0  0
  2  3  2  0  0  0  0
  2 16  1  0  0  0  0
  3 11  1  0  0  0  0
  4  5  1  0  0  0  0
  4  3  1  0  0  0  0
  5 12  1  0  0  0  0
  6  5  1  0  0  0  0
  7  8  1  0  0  0  0
  7  6  2  0  0  0  0
  8  4  2  0  0  0  0
  9  8  1  0  0  0  0
  9  1  2  0  0  0  0
 10  1  1  0  0  0  0
 13  9  1  0  0  0  0
 14 19  1  0  0  0  0
 14 20  1  0  0  0  0
 15 14  2  0  0  0  0
 16 17  2  0  0  0  0
 16 15  1  0  0  0  0
 17 18  1  0  0  0  0
 18 19  2  0  0  0  0
 21 15  1  0  0  0  0
 22 18  1  0  0  0  0
 23  6  1  0  0  0  0
 24 30  1  1  0  0  0
 24 29  1  0  0  0  0
 25 23  1  1  0  0  0
 25 24  1  0  0  0  0
 25 26  1  0  0  0  0
 26 27  1  0  0  0  0
 27 28  1  0  0  0  0
 28 32  1  6  0  0  0
 29 34  1  6  0  0  0
 29 28  1  0  0  0  0
 31 30  1  0  0  0  0
 33 32  1  0  0  0  0
 35 34  1  0  0  0  0
M  END
>  <minimizedAffinity>
-5.7077837

$$$$

 OpenBabel03272510253D

 35 38  0  0  1  0  0  0  0  0999 V2000
   38.3760   25.9420   33.1220 C   0  0  0  0  0  0  0  0  0  0  0  0
   37.8820   25.8340   34.4130 C   0  0  0  0  0  0  0  0  0  0  0  0
   36.9760   26.7650   34.9150 C   0  0  0  0  0  0  0  0  0  0  0  0
   36.6040   27.7940   34.0580 C   0  0  0  0  0  0  0  0  0  0  0  0
   35.7450   28.8230   34.2950 N   0  0  0  0  0  0  0  0  0  0  0  0
   35.6950   29.5610   33.1900 C   0  0  0  0  0  0  0  0  0  0  0  0
   36.4870   29.0420   32.2640 N   0  0  0  0  0  0  0  0  0  0  0  0
   37.0770   27.9350   32.7590 C   0  0  0  0  0  0  0  0  0  0  0  0
   37.9790   26.9900   32.2900 C   0  0  0  0  0  0  0  0  0  0  0  0
   39.0800   25.2480   32.6820 H   0  0  0  0  0  0  0  0  0  0  0  0
   36.6020   26.6740   35.9050 H   0  0  0  0  0  0  0  0  0  0  0  0
   35.2270   28.9740   35.2100 H   0  0  0  0  0  0  0  0  0  0  0  0
   38.3510   27.0960   31.2740 H   0  0  0  0  0  0  0  0  0  0  0  0
   38.5860   23.4320   37.2090 C   0  0  0  0  0  0  0  0  0  0  0  0
   38.0770   24.5520   36.5610 C   0  0  0  0  0  0  0  0  0  0  0  0
   38.3520   24.7110   35.2060 C   0  0  0  0  0  0  0  0  0  0  0  0
   39.1070   23.7550   34.5920 N   0  0  0  0  0  0  0  0  0  0  0  0
   39.5870   22.6740   35.2540 C   0  0  0  0  0  0  0  0  0  0  0  0
   39.3240   22.5230   36.5500 N   0  0  0  0  0  0  0  0  0  0  0  0
   38.3760   23.3010   38.2680 H   0  0  0  0  0  0  0  0  0  0  0  0
   37.4800   25.3030   37.0560 H   0  0  0  0  0  0  0  0  0  0  0  0
   40.1690   21.9950   34.6490 H   0  0  0  0  0  0  0  0  0  0  0  0
   34.9040   30.7080   33.0800 O   0  0  0  0  0  0  0  0  0  0  0  0
   33.7560   32.2450   34.5610 C   0  0  1  0  0  3  0  0  0  0  0  0
   35.0550   31.8230   33.9130 C   0  0  1  0  0  3  0  0  0  0  0  0
   36.0070   31.5290   34.8790 O   0  0  0  0  0  0  0  0  0  0  0  0
   35.9360   32.3980   35.9550 C   0  0  0  0  0  2  0  0  0  0  0  0
   34.7880   31.9960   36.8270 C   0  0  2  0  0  3  0  0  0  0  0  0
   33.6060   31.6430   35.9510 C   0  0  2  0  0  3  0  0  0  0  0  0
   33.6920   33.6490   34.5990 O   0  0  0  0  0  0  0  0  0  0  0  0
   34.2720   33.9740   33.8740 H   0  0  0  0  0  0  0  0  0  0  0  0
   34.4740   33.0470   37.6890 O   0  0  0  0  0  0  0  0  0  0  0  0
   33.5410   33.3190   37.5860 H   0  0  0  0  0  0  0  0  0  0  0  0
   33.5030   30.2630   35.7750 O   0  0  0  0  0  0  0  0  0  0  0  0
   32.5610   30.0110   35.6300 H   0  0  0  0  0  0  0  0  0  0  0  0
  1  2  1  0  0  0  0
  2  3  2  0  0  0  0
  2 16  1  0  0  0  0
  3 11  1  0  0  0  0
  4  5  1  0  0  0  0
  4  3  1  0  0  0  0
  5 12  1  0  0  0  0
  6  5  1  0  0  0  0
  7  8  1  0  0  0  0
  7  6  2  0  0  0  0
  8  4  2  0  0  0  0
  9  8  1  0  0  0  0
  9  1  2  0  0  0  0
 10  1  1  0  0  0  0
 13  9  1  0  0  0  0
 14 20  1  0  0  0  0
 15 21  1  0  0  0  0
 15 14  1  0  0  0  0
 16 15  2  0  0  0  0
 17 16  1  0  0  0  0
 17 18  2  0  0  0  0
 18 19  1  0  0  0  0
 19 14  2  0  0  0  0
 22 18  1  0  0  0  0
 23  6  1  0  0  0  0
 24 30  1  1  0  0  0
 24 29  1  0  0  0  0
 25 23  1  1  0  0  0
 25 24  1  0  0  0  0
 25 26  1  0  0  0  0
 26 27  1  0  0  0  0
 27 28  1  0  0  0  0
 28 32  1  1  0  0  0
 29 34  1  6  0  0  0
 29 28  1  0  0  0  0
 31 30  1  0  0  0  0
 33 32  1  0  0  0  0
 35 34  1  0  0  0  0
M  END
>  <minimizedAffinity>
-5.69750738

$$$$

 OpenBabel03272510253D

 35 38  0  0  1  0  0  0  0  0999 V2000
   36.3480   29.8020   31.4650 C   0  0  0  0  0  0  0  0  0  0  0  0
   37.1910   29.3920   30.4440 C   0  0  0  0  0  0  0  0  0  0  0  0
   37.8830   28.1850   30.5250 C   0  0  0  0  0  0  0  0  0  0  0  0
   37.6810   27.4290   31.6740 C   0  0  0  0  0  0  0  0  0  0  0  0
   38.2270   26.2270   32.0020 N   0  0  0  0  0  0  0  0  0  0  0  0
   37.7460   25.8840   33.1930 C   0  0  0  0  0  0  0  0  0  0  0  0
   36.9190   26.8200   33.6330 N   0  0  0  0  0  0  0  0  0  0  0  0
   36.8440   27.8070   32.7170 C   0  0  0  0  0  0  0  0  0  0  0  0
   36.1700   29.0150   32.6040 C   0  0  0  0  0  0  0  0  0  0  0  0
   35.7870   30.7280   31.4540 H   0  0  0  0  0  0  0  0  0  0  0  0
   38.5270   27.8790   29.7370 H   0  0  0  0  0  0  0  0  0  0  0  0
   38.9100   25.6910   31.3890 H   0  0  0  0  0  0  0  0  0  0  0  0
   35.5140   29.3140   33.4190 H   0  0  0  0  0  0  0  0  0  0  0  0
   38.0810   30.8920   27.1200 C   0  0  0  0  0  0  0  0  0  0  0  0
   38.0380   29.9590   28.1510 C   0  0  0  0  0  0  0  0  0  0  0  0
   37.3150   30.2760   29.2970 C   0  0  0  0  0  0  0  0  0  0  0  0
   36.6870   31.4860   29.3410 N   0  0  0  0  0  0  0  0  0  0  0  0
   36.7480   32.3730   28.3180 C   0  0  0  0  0  0  0  0  0  0  0  0
   37.4410   32.0690   27.2220 N   0  0  0  0  0  0  0  0  0  0  0  0
   38.6440   30.6510   26.2220 H   0  0  0  0  0  0  0  0  0  0  0  0
   38.5380   29.0030   28.1070 H   0  0  0  0  0  0  0  0  0  0  0  0
   36.2070   33.2920   28.4830 H   0  0  0  0  0  0  0  0  0  0  0  0
   38.1000   24.6970   33.8390 O   0  0  0  0  0  0  0  0  0  0  0  0
   37.9810   24.0870   36.1820 C   0  0  1  0  0  3  0  0  0  0  0  0
   38.8010   24.6650   35.0510 C   0  0  1  0  0  3  0  0  0  0  0  0
   39.9650   23.9310   34.8700 O   0  0  0  0  0  0  0  0  0  0  0  0
   40.5090   23.5190   36.0740 C   0  0  0  0  0  2  0  0  0  0  0  0
   39.7330   22.3430   36.5800 C   0  0  2  0  0  3  0  0  0  0  0  0
   38.2560   22.6010   36.3660 C   0  0  2  0  0  3  0  0  0  0  0  0
   38.2440   24.8080   37.3600 O   0  0  0  0  0  0  0  0  0  0  0  0
   38.5530   25.6990   37.0780 H   0  0  0  0  0  0  0  0  0  0  0  0
   40.0150   22.1510   37.9320 O   0  0  0  0  0  0  0  0  0  0  0  0
   39.1990   22.1790   38.4690 H   0  0  0  0  0  0  0  0  0  0  0  0
   37.7960   21.9680   35.2120 O   0  0  0  0  0  0  0  0  0  0  0  0
   36.8420   21.7410   35.3090 H   0  0  0  0  0  0  0  0  0  0  0  0
  1  9  1  0  0  0  0
  2  3  1  0  0  0  0
  2  1  2  0  0  0  0
  3  4  2  0  0  0  0
  4  5  1  0  0  0  0
  4  8  1  0  0  0  0
  5  6  1  0  0  0  0
  6  7  2  0  0  0  0
  6 23  1  0  0  0  0
  8  7  1  0  0  0  0
  9  8  2  0  0  0  0
  9 13  1  0  0  0  0
 10  1  1  0  0  0  0
 11  3  1  0  0  0  0
 12  5  1  0  0  0  0
 14 19  2  0  0  0  0
 14 15  1  0  0  0  0
 15 16  2  0  0  0  0
 16 17  1  0  0  0  0
 16  2  1  0  0  0  0
 18 22  1  0  0  0  0
 18 17  2  0  0  0  0
 19 18  1  0  0  0  0
 20 14  1  0  0  0  0
 21 15  1  0  0  0  0
 24 29  1  0  0  0  0
 24 30  1  1  0  0  0
 25 23  1  6  0  0  0
 25 24  1  0  0  0  0
 26 25  1  0  0  0  0
 26 27  1  0  0  0  0
 27 28  1  0  0  0  0
 28 32  1  1  0  0  0
 29 34  1  6  0  0  0
 29 28  1  0  0  0  0
 31 30  1  0  0  0  0
 32 33  1  0  0  0  0
 34 35  1  0  0  0  0
M  END
>  <minimizedAffinity>
-5.66010046

$$$$

 OpenBabel03272510253D

 35 38  0  0  1  0  0  0  0  0999 V2000
   37.7730   23.3970   30.8870 C   0  0  0  0  0  0  0  0  0  0  0  0
   36.4500   23.1600   31.2280 C   0  0  0  0  0  0  0  0  0  0  0  0
   35.5520   24.2120   31.3920 C   0  0  0  0  0  0  0  0  0  0  0  0
   36.0540   25.4940   31.2000 C   0  0  0  0  0  0  0  0  0  0  0  0
   35.4000   26.6830   31.2970 N   0  0  0  0  0  0  0  0  0  0  0  0
   36.2790   27.6440   31.0290 C   0  0  0  0  0  0  0  0  0  0  0  0
   37.4630   27.1120   30.7650 N   0  0  0  0  0  0  0  0  0  0  0  0
   37.3730   25.7700   30.8590 C   0  0  0  0  0  0  0  0  0  0  0  0
   38.2410   24.6980   30.7020 C   0  0  0  0  0  0  0  0  0  0  0  0
   38.5110   22.6180   30.7470 H   0  0  0  0  0  0  0  0  0  0  0  0
   34.5390   24.0220   31.6520 H   0  0  0  0  0  0  0  0  0  0  0  0
   34.3710   26.7830   31.5450 H   0  0  0  0  0  0  0  0  0  0  0  0
   39.2740   24.9100   30.4350 H   0  0  0  0  0  0  0  0  0  0  0  0
   34.7570   20.0010   32.3410 C   0  0  0  0  0  0  0  0  0  0  0  0
   35.0430   21.3590   32.2650 C   0  0  0  0  0  0  0  0  0  0  0  0
   36.0520   21.7730   31.4000 C   0  0  0  0  0  0  0  0  0  0  0  0
   36.7010   20.8180   30.6750 N   0  0  0  0  0  0  0  0  0  0  0  0
   36.3970   19.5000   30.7720 C   0  0  0  0  0  0  0  0  0  0  0  0
   35.4310   19.1060   31.6010 N   0  0  0  0  0  0  0  0  0  0  0  0
   33.9700   19.6710   33.0150 H   0  0  0  0  0  0  0  0  0  0  0  0
   34.5230   22.1090   32.8430 H   0  0  0  0  0  0  0  0  0  0  0  0
   36.9870   18.8520   30.1430 H   0  0  0  0  0  0  0  0  0  0  0  0
   35.9440   29.0000   31.0390 O   0  0  0  0  0  0  0  0  0  0  0  0
   34.7050   30.6350   32.3300 C   0  0  1  0  0  3  0  0  0  0  0  0
   35.9450   29.7790   32.2020 C   0  0  1  0  0  3  0  0  0  0  0  0
   36.0700   28.9380   33.2990 O   0  0  0  0  0  0  0  0  0  0  0  0
   35.6900   29.5620   34.4740 C   0  0  0  0  0  2  0  0  0  0  0  0
   34.1950   29.5910   34.5470 C   0  0  2  0  0  3  0  0  0  0  0  0
   33.6450   29.9540   33.1840 C   0  0  2  0  0  3  0  0  0  0  0  0
   35.0600   31.8900   32.8540 O   0  0  0  0  0  0  0  0  0  0  0  0
   36.0080   32.0270   32.6290 H   0  0  0  0  0  0  0  0  0  0  0  0
   33.7980   30.5190   35.5090 O   0  0  0  0  0  0  0  0  0  0  0  0
   33.2090   31.1960   35.1220 H   0  0  0  0  0  0  0  0  0  0  0  0
   33.2420   28.8170   32.4840 O   0  0  0  0  0  0  0  0  0  0  0  0
   32.5100   29.0450   31.8640 H   0  0  0  0  0  0  0  0  0  0  0  0
  1  2  1  0  0  0  0
  2  3  2  0  0  0  0
  2 16  1  0  0  0  0
  3 11  1  0  0  0  0
  4  5  1  0  0  0  0
  4  3  1  0  0  0  0
  5 12  1  0  0  0  0
  6 23  1  0  0  0  0
  6  5  1  0  0  0  0
  7  8  1  0  0  0  0
  7  6  2  0  0  0  0
  8  4  2  0  0  0  0
  9  8  1  0  0  0  0
  9  1  2  0  0  0  0
 10  1  1  0  0  0  0
 13  9  1  0  0  0  0
 14 20  1  0  0  0  0
 15 14  1  0  0  0  0
 15 21  1  0  0  0  0
 16 15  2  0  0  0  0
 17 18  2  0  0  0  0
 17 16  1  0  0  0  0
 18 19  1  0  0  0  0
 19 14  2  0  0  0  0
 22 18  1  0  0  0  0
 24 30  1  1  0  0  0
 24 29  1  0  0  0  0
 25 23  1  6  0  0  0
 25 24  1  0  0  0  0
 25 26  1  0  0  0  0
 26 27  1  0  0  0  0
 27 28  1  0  0  0  0
 28 32  1  1  0  0  0
 29 34  1  6  0  0  0
 29 28  1  0  0  0  0
 31 30  1  0  0  0  0
 33 32  1  0  0  0  0
 35 34  1  0  0  0  0
M  END
>  <minimizedAffinity>
-5.5734477

$$$$
