
 OpenBabel03272507343D

 39 42  0  0  1  0  0  0  0  0999 V2000
   33.1180   27.5120   48.2380 C   0  0  0  0  0  0  0  0  0  0  0  0
   31.8920   27.4330   48.5830 O   0  0  0  0  0  0  0  0  0  0  0  0
   35.8650   29.1640   49.8240 C   0  0  0  0  0  0  0  0  0  0  0  0
   34.8440   29.6540   50.6110 C   0  0  0  0  0  0  0  0  0  0  0  0
   33.6450   29.1050   50.1300 C   0  0  0  0  0  0  0  0  0  0  0  0
   34.0190   28.3090   49.0710 C   0  0  0  0  0  0  0  0  0  0  0  0
   35.3260   28.3740   48.9290 O   0  0  0  0  0  0  0  0  0  0  0  0
   34.9070   30.3390   51.4570 H   0  0  0  0  0  0  0  0  0  0  0  0
   32.6510   29.2480   50.4780 H   0  0  0  0  0  0  0  0  0  0  0  0
   37.2540   29.5300   50.0450 C   0  0  0  0  0  0  0  0  0  0  0  0
   37.9030   28.9450   50.9250 O   0  0  0  0  0  0  0  0  0  0  0  0
   37.7960   30.5670   49.2110 C   0  0  0  0  0  0  0  0  0  0  0  0
   38.1400   31.7590   49.8300 C   0  0  0  0  0  0  0  0  0  0  0  0
   38.6680   32.7910   49.0450 C   0  0  0  0  0  0  0  0  0  0  0  0
   38.8160   32.5620   47.6980 N   0  0  0  0  0  0  0  0  0  0  0  0
   38.4740   31.4040   47.1370 C   0  0  0  0  0  0  0  0  0  0  0  0
   37.9660   30.4050   47.8800 N   0  0  0  0  0  0  0  0  0  0  0  0
   38.0190   31.9210   50.8770 H   0  0  0  0  0  0  0  0  0  0  0  0
   38.9520   33.7440   49.4870 H   0  0  0  0  0  0  0  0  0  0  0  0
   38.6020   31.2540   46.0790 H   0  0  0  0  0  0  0  0  0  0  0  0
   33.6300   26.8080   47.0180 C   0  0  1  0  0  0  0  0  0  0  0  0
   33.8220   25.2730   47.3280 C   0  0  0  0  0  0  0  0  0  0  0  0
   32.8270   25.7800   46.3510 C   0  0  2  0  0  0  0  0  0  0  0  0
   34.6320   27.1900   46.6610 H   0  0  0  0  0  0  0  0  0  0  0  0
   33.5520   24.9200   48.3160 H   0  0  0  0  0  0  0  0  0  0  0  0
   34.6920   24.7810   46.8840 H   0  0  0  0  0  0  0  0  0  0  0  0
   31.7630   25.7300   46.7000 H   0  0  0  0  0  0  0  0  0  0  0  0
   32.4230   26.5470   44.0760 C   0  0  1  0  0  3  0  0  0  0  0  0
   33.0680   25.4990   44.8720 C   0  0  1  0  0  3  0  0  0  0  0  0
   34.3850   25.2530   44.6990 O   0  0  0  0  0  0  0  0  0  0  0  0
   35.0110   25.6220   43.5640 C   0  0  0  0  0  2  0  0  0  0  0  0
   34.1430   25.9680   42.3930 C   0  0  2  0  0  3  0  0  0  0  0  0
   33.1970   27.0480   42.8890 C   0  0  2  0  0  3  0  0  0  0  0  0
   31.1720   26.1330   43.6040 O   0  0  0  0  0  0  0  0  0  0  0  0
   30.7300   26.9300   43.2000 H   0  0  0  0  0  0  0  0  0  0  0  0
   33.4490   24.8530   41.9380 O   0  0  0  0  0  0  0  0  0  0  0  0
   33.6360   24.7880   40.9740 H   0  0  0  0  0  0  0  0  0  0  0  0
   34.0020   28.1320   43.2790 O   0  0  0  0  0  0  0  0  0  0  0  0
   34.6130   28.3700   42.5310 H   0  0  0  0  0  0  0  0  0  0  0  0
  1  2  2  0  0  0  0
  1  6  1  0  0  0  0
  3 10  1  0  0  0  0
  3  4  2  0  0  0  0
  4  8  1  0  0  0  0
  5  9  1  0  0  0  0
  5  4  1  0  0  0  0
  6  5  2  0  0  0  0
  7  6  1  0  0  0  0
  7  3  1  0  0  0  0
 10 11  2  0  0  0  0
 12 13  1  0  0  0  0
 12 10  1  0  0  0  0
 13 18  1  0  0  0  0
 14 19  1  0  0  0  0
 14 13  2  0  0  0  0
 15 14  1  0  0  0  0
 16 15  2  0  0  0  0
 16 17  1  0  0  0  0
 17 12  2  0  0  0  0
 20 16  1  0  0  0  0
 21 24  1  6  0  0  0
 21 22  1  0  0  0  0
 21  1  1  0  0  0  0
 22 25  1  0  0  0  0
 23 27  1  1  0  0  0
 23 21  1  0  0  0  0
 23 22  1  0  0  0  0
 26 22  1  0  0  0  0
 28 34  1  6  0  0  0
 28 29  1  0  0  0  0
 29 30  1  1  0  0  0
 29 23  1  0  0  0  0
 31 30  1  0  0  0  0
 32 36  1  1  0  0  0
 32 33  1  0  0  0  0
 32 31  1  0  0  0  0
 33 38  1  1  0  0  0
 33 28  1  0  0  0  0
 35 34  1  0  0  0  0
 37 36  1  0  0  0  0
 39 38  1  0  0  0  0
M  END
>  <minimizedAffinity>
-4.97714186

>  <minimizedRMSD>
0.0752103254

$$$$
