
 OpenBabel03272505323D

 43 46  0  0  1  0  0  0  0  0999 V2000
   37.3410   31.1570   47.1000 N   0  0  0  0  0  0  0  0  0  0  0  0
   36.6940   30.9380   45.9240 C   0  0  0  0  0  0  0  0  0  0  0  0
   37.1340   31.4700   44.7270 C   0  0  0  0  0  0  0  0  0  0  0  0
   38.2980   32.2640   44.7550 C   0  0  0  0  0  0  0  0  0  0  0  0
   38.7400   32.7710   43.6970 O   0  0  0  0  0  0  0  0  0  0  0  0
   38.9460   32.4800   45.9500 N   0  0  0  0  0  0  0  0  0  0  0  0
   38.4250   31.9160   47.0270 C   0  0  0  0  0  0  0  0  0  0  0  0
   39.0430   32.1360   48.0940 O   0  0  0  0  0  0  0  0  0  0  0  0
   35.7890   30.3210   45.8970 H   0  0  0  0  0  0  0  0  0  0  0  0
   37.2690   29.4050   50.3760 C   0  0  0  0  0  0  0  0  0  0  0  0
   37.7480   29.9560   49.1710 C   0  0  0  0  0  0  0  0  0  0  0  0
   36.8750   30.6070   48.2970 C   0  0  0  0  0  0  0  0  0  0  0  0
   35.5730   30.6880   48.6450 N   0  0  0  0  0  0  0  0  0  0  0  0
   35.0970   30.1590   49.8080 C   0  0  0  0  0  0  0  0  0  0  0  0
   35.9510   29.5260   50.6580 N   0  0  0  0  0  0  0  0  0  0  0  0
   37.9650   28.9140   51.0220 H   0  0  0  0  0  0  0  0  0  0  0  0
   38.7740   29.9120   48.8600 H   0  0  0  0  0  0  0  0  0  0  0  0
   34.0780   30.2110   50.1030 H   0  0  0  0  0  0  0  0  0  0  0  0
   36.4830   31.2680   43.4450 C   0  0  0  0  0  0  0  0  0  0  0  0
   36.8150   30.2570   42.5860 C   0  0  0  0  0  0  0  0  0  0  0  0
   36.2300   30.0250   41.3660 C   0  0  0  0  0  0  0  0  0  0  0  0
   35.2040   30.8940   40.9540 C   0  0  0  0  0  0  0  0  0  0  0  0
   34.8940   31.9120   41.8540 C   0  0  0  0  0  0  0  0  0  0  0  0
   35.5100   32.0750   43.0280 N   0  0  0  0  0  0  0  0  0  0  0  0
   37.6040   29.5600   42.8670 H   0  0  0  0  0  0  0  0  0  0  0  0
   36.4940   29.2260   40.6910 H   0  0  0  0  0  0  0  0  0  0  0  0
   34.6640   30.8250   40.0250 H   0  0  0  0  0  0  0  0  0  0  0  0
   34.4580   34.2830   41.3570 C   0  0  2  0  0  3  0  0  0  0  0  0
   33.8260   32.9220   41.5670 C   0  0  1  0  0  3  0  0  0  0  0  0
   33.0730   32.5040   40.4750 O   0  0  0  0  0  0  0  0  0  0  0  0
   32.0010   33.3300   40.2630 C   0  0  0  0  0  2  0  0  0  0  0  0
   32.3390   34.8100   40.2940 C   0  0  2  0  0  3  0  0  0  0  0  0
   33.8380   34.9190   40.1250 C   0  0  1  0  0  3  0  0  0  0  0  0
   35.8480   34.1940   41.2280 O   0  0  0  0  0  0  0  0  0  0  0  0
   36.2420   34.4740   42.1150 H   0  0  0  0  0  0  0  0  0  0  0  0
   32.0600   35.2550   41.6030 O   0  0  0  0  0  0  0  0  0  0  0  0
   31.1070   35.0240   41.8290 H   0  0  0  0  0  0  0  0  0  0  0  0
   34.2720   36.2420   40.0660 O   0  0  0  0  0  0  0  0  0  0  0  0
   34.6990   36.3930   39.1790 H   0  0  0  0  0  0  0  0  0  0  0  0
   40.1360   33.2940   45.9730 C   0  0  0  0  0  0  0  0  0  0  0  0
   40.0750   34.2760   45.0440 F   0  0  0  0  0  0  0  0  0  0  0  0
   41.3030   32.5760   45.7080 F   0  0  0  0  0  0  0  0  0  0  0  0
   40.2400   33.8970   47.2310 F   0  0  0  0  0  0  0  0  0  0  0  0
  1 12  1  0  0  0  0
  2  1  1  0  0  0  0
  3  4  1  0  0  0  0
  3  2  2  0  0  0  0
  4  6  1  0  0  0  0
  5  4  2  0  0  0  0
  6 40  1  0  0  0  0
  6  7  1  0  0  0  0
  7  1  1  0  0  0  0
  7  8  2  0  0  0  0
  9  2  1  0  0  0  0
 10 15  1  0  0  0  0
 10 16  1  0  0  0  0
 11 10  2  0  0  0  0
 12 13  2  0  0  0  0
 12 11  1  0  0  0  0
 13 14  1  0  0  0  0
 14 18  1  0  0  0  0
 14 15  2  0  0  0  0
 17 11  1  0  0  0  0
 19  3  1  0  0  0  0
 20 25  1  0  0  0  0
 20 19  2  0  0  0  0
 21 20  1  0  0  0  0
 22 21  2  0  0  0  0
 22 23  1  0  0  0  0
 23 24  2  0  0  0  0
 24 19  1  0  0  0  0
 26 21  1  0  0  0  0
 27 22  1  0  0  0  0
 28 34  1  6  0  0  0
 28 29  1  0  0  0  0
 29 23  1  6  0  0  0
 30 29  1  0  0  0  0
 31 32  1  0  0  0  0
 31 30  1  0  0  0  0
 32 36  1  1  0  0  0
 33 38  1  1  0  0  0
 33 32  1  0  0  0  0
 33 28  1  0  0  0  0
 34 35  1  0  0  0  0
 36 37  1  0  0  0  0
 39 38  1  0  0  0  0
 40 43  1  0  0  0  0
 41 40  1  0  0  0  0
 42 40  1  0  0  0  0
M  END
>  <minimizedAffinity>
-6.81232262

>  <minimizedRMSD>
0.543304801

$$$$
