
 OpenBabel03262521513D

 25 26  0  0  1  0  0  0  0  0999 V2000
   36.4270   29.7360   49.9660 C   0  0  0  0  0  0  0  0  0  0  0  0
   36.0670   29.2740   50.9240 H   0  0  0  0  0  0  0  0  0  0  0  0
   37.4790   29.3990   49.8700 H   0  0  0  0  0  0  0  0  0  0  0  0
   34.3190   28.6710   49.4720 C   0  0  2  0  0  3  0  0  0  0  0  0
   35.5860   29.1760   48.8180 C   0  0  1  0  0  3  0  0  0  0  0  0
   35.2690   30.2390   48.0100 O   0  0  0  0  0  0  0  0  0  0  0  0
   34.3930   29.9490   46.9970 C   0  0  0  0  0  2  0  0  0  0  0  0
   33.1020   29.3160   47.4370 C   0  0  2  0  0  3  0  0  0  0  0  0
   33.2730   28.2480   48.4660 C   0  0  2  0  0  3  0  0  0  0  0  0
   33.8220   29.7070   50.2630 O   0  0  0  0  0  0  0  0  0  0  0  0
   32.9540   29.4730   50.6820 H   0  0  0  0  0  0  0  0  0  0  0  0
   32.5340   28.7540   46.2940 O   0  0  0  0  0  0  0  0  0  0  0  0
   32.6640   27.7590   46.2810 H   0  0  0  0  0  0  0  0  0  0  0  0
   32.0760   28.0570   49.1840 O   0  0  0  0  0  0  0  0  0  0  0  0
   32.0480   27.1670   49.6320 H   0  0  0  0  0  0  0  0  0  0  0  0
   36.4000   31.5380   50.0110 S   0  0  0  0  0  0  0  0  0  0  0  0
   37.7250   32.0960   48.9350 C   0  0  0  0  0  0  0  0  0  0  0  0
   38.2830   33.3060   49.3560 C   0  0  0  0  0  0  0  0  0  0  0  0
   39.3320   33.8680   48.6180 C   0  0  0  0  0  0  0  0  0  0  0  0
   39.7460   33.1890   47.5160 N   0  0  0  0  0  0  0  0  0  0  0  0
   39.1760   32.0220   47.1460 C   0  0  0  0  0  0  0  0  0  0  0  0
   38.1690   31.4760   47.8530 N   0  0  0  0  0  0  0  0  0  0  0  0
   37.9750   33.8830   50.2390 H   0  0  0  0  0  0  0  0  0  0  0  0
   39.7680   34.7970   48.9310 H   0  0  0  0  0  0  0  0  0  0  0  0
   39.5680   31.5510   46.2590 H   0  0  0  0  0  0  0  0  0  0  0  0
  1 16  1  0  0  0  0
  1  2  1  0  0  0  0
  3  1  1  0  0  0  0
  4 10  1  6  0  0  0
  5  4  1  0  0  0  0
  5  1  1  1  0  0  0
  6  5  1  0  0  0  0
  7  8  1  0  0  0  0
  7  6  1  0  0  0  0
  8 12  1  6  0  0  0
  8  9  1  0  0  0  0
  9 14  1  1  0  0  0
  9  4  1  0  0  0  0
 10 11  1  0  0  0  0
 13 12  1  0  0  0  0
 14 15  1  0  0  0  0
 17 18  1  0  0  0  0
 17 16  1  0  0  0  0
 18 23  1  0  0  0  0
 19 24  1  0  0  0  0
 19 18  2  0  0  0  0
 20 19  1  0  0  0  0
 21 20  2  0  0  0  0
 21 22  1  0  0  0  0
 22 17  2  0  0  0  0
 25 21  1  0  0  0  0
M  END
>  <minimizedAffinity>
-4.74167585

>  <minimizedRMSD>
3.33460045

$$$$
