
 OpenBabel03262523593D

 32 34  0  0  1  0  0  0  0  0999 V2000
   38.3460   32.6060   48.1340 C   0  0  0  0  0  0  0  0  0  0  0  0
   39.0170   31.9210   47.0960 C   0  0  0  0  0  0  0  0  0  0  0  0
   38.5870   30.6380   46.8310 C   0  0  0  0  0  0  0  0  0  0  0  0
   37.5680   30.1000   47.5560 N   0  0  0  0  0  0  0  0  0  0  0  0
   36.9540   30.7800   48.5370 C   0  0  0  0  0  0  0  0  0  0  0  0
   37.3530   32.0490   48.8250 N   0  0  0  0  0  0  0  0  0  0  0  0
   38.6200   33.6170   48.4090 H   0  0  0  0  0  0  0  0  0  0  0  0
   39.0530   30.0770   46.0620 H   0  0  0  0  0  0  0  0  0  0  0  0
   37.7540   29.9670   51.4430 Br  0  0  0  0  0  0  0  0  0  0  0  0
   36.0570   29.8120   50.6220 C   0  0  0  0  0  0  0  0  0  0  0  0
   35.8630   30.2180   49.3220 C   0  0  0  0  0  0  0  0  0  0  0  0
   34.5900   30.0730   48.7890 C   0  0  0  0  0  0  0  0  0  0  0  0
   33.5210   29.5500   49.4830 C   0  0  0  0  0  0  0  0  0  0  0  0
   33.7570   29.1550   50.7820 C   0  0  0  0  0  0  0  0  0  0  0  0
   35.0320   29.2900   51.3440 C   0  0  0  0  0  0  0  0  0  0  0  0
   34.3680   30.3740   47.7670 H   0  0  0  0  0  0  0  0  0  0  0  0
   32.5390   29.4420   49.0570 H   0  0  0  0  0  0  0  0  0  0  0  0
   32.9870   28.7300   51.4150 H   0  0  0  0  0  0  0  0  0  0  0  0
   35.1830   28.9650   52.3810 H   0  0  0  0  0  0  0  0  0  0  0  0
   40.0260   32.5560   46.4320 O   0  0  0  0  0  0  0  0  0  0  0  0
   40.0540   31.0140   44.5380 C   0  0  1  0  0  3  0  0  0  0  0  0
   40.7540   32.0830   45.3510 C   0  0  1  0  0  3  0  0  0  0  0  0
   41.0530   33.2100   44.5530 O   0  0  0  0  0  0  0  0  0  0  0  0
   39.8870   33.7400   44.0050 C   0  0  0  0  0  2  0  0  0  0  0  0
   39.5040   32.7550   42.8930 C   0  0  1  0  0  3  0  0  0  0  0  0
   39.0070   31.5240   43.6110 C   0  0  1  0  0  3  0  0  0  0  0  0
   41.0220   30.3540   43.7520 O   0  0  0  0  0  0  0  0  0  0  0  0
   40.6410   29.5630   43.3060 H   0  0  0  0  0  0  0  0  0  0  0  0
   38.5820   33.2770   42.0240 O   0  0  0  0  0  0  0  0  0  0  0  0
   39.0680   33.9040   41.4030 H   0  0  0  0  0  0  0  0  0  0  0  0
   38.7510   30.5090   42.6700 O   0  0  0  0  0  0  0  0  0  0  0  0
   38.0860   30.7720   41.9980 H   0  0  0  0  0  0  0  0  0  0  0  0
  1  7  1  0  0  0  0
  1  6  1  0  0  0  0
  2  1  2  0  0  0  0
  3  2  1  0  0  0  0
  3  4  2  0  0  0  0
  4  5  1  0  0  0  0
  5  6  2  0  0  0  0
  5 11  1  0  0  0  0
  8  3  1  0  0  0  0
 10 15  1  0  0  0  0
 10  9  1  0  0  0  0
 11 10  2  0  0  0  0
 12 11  1  0  0  0  0
 12 13  2  0  0  0  0
 13 14  1  0  0  0  0
 14 15  2  0  0  0  0
 14 18  1  0  0  0  0
 15 19  1  0  0  0  0
 16 12  1  0  0  0  0
 17 13  1  0  0  0  0
 20  2  1  0  0  0  0
 21 27  1  6  0  0  0
 21 22  1  0  0  0  0
 22 20  1  1  0  0  0
 23 22  1  0  0  0  0
 24 23  1  0  0  0  0
 25 29  1  6  0  0  0
 25 26  1  0  0  0  0
 25 24  1  0  0  0  0
 26 31  1  6  0  0  0
 26 21  1  0  0  0  0
 28 27  1  0  0  0  0
 30 29  1  0  0  0  0
 32 31  1  0  0  0  0
M  END
>  <minimizedAffinity>
-5.39147186

>  <minimizedRMSD>
2.46113253

$$$$
