
 OpenBabel03272507553D

 26 27  0  0  1  0  0  0  0  0999 V2000
   35.4930   29.0350   50.2960 C   0  0  0  0  0  0  0  0  0  0  0  0
   36.3100   30.0030   49.6530 C   0  0  0  0  0  0  0  0  0  0  0  0
   36.2750   30.0810   48.2690 C   0  0  0  0  0  0  0  0  0  0  0  0
   35.4520   29.2150   47.6040 N   0  0  0  0  0  0  0  0  0  0  0  0
   34.6850   28.3010   48.2560 C   0  0  0  0  0  0  0  0  0  0  0  0
   34.7010   28.2060   49.5950 N   0  0  0  0  0  0  0  0  0  0  0  0
   33.9360   27.5020   47.3690 N   0  0  0  0  0  0  0  0  0  0  0  0
   35.5360   28.9930   51.3780 H   0  0  0  0  0  0  0  0  0  0  0  0
   34.4020   26.5550   47.4990 H   0  0  0  0  0  0  0  0  0  0  0  0
   33.1560   27.7870   46.7710 H   0  0  0  0  0  0  0  0  0  0  0  0
   36.5730   31.5030   46.2240 C   0  0  1  0  0  3  0  0  0  0  0  0
   37.1100   31.0800   47.5530 C   0  0  2  0  0  3  0  0  0  0  0  0
   38.3330   30.4470   47.3020 O   0  0  0  0  0  0  0  0  0  0  0  0
   39.2890   31.3390   46.8550 C   0  0  0  0  0  2  0  0  0  0  0  0
   38.9550   31.6510   45.4220 C   0  0  1  0  0  3  0  0  0  0  0  0
   37.5390   31.1730   45.0750 C   0  0  1  0  0  3  0  0  0  0  0  0
   35.4040   30.7930   45.8850 O   0  0  0  0  0  0  0  0  0  0  0  0
   34.9790   31.2680   45.1110 H   0  0  0  0  0  0  0  0  0  0  0  0
   39.0450   33.0180   45.1950 O   0  0  0  0  0  0  0  0  0  0  0  0
   39.8560   33.3780   45.6300 H   0  0  0  0  0  0  0  0  0  0  0  0
   37.6100   29.7960   44.9490 O   0  0  0  0  0  0  0  0  0  0  0  0
   38.0290   29.5140   44.1100 H   0  0  0  0  0  0  0  0  0  0  0  0
   37.1680   30.8850   50.4820 C   0  0  0  0  0  0  0  0  0  0  0  0
   38.5080   30.8000   50.1250 F   0  0  0  0  0  0  0  0  0  0  0  0
   36.7440   32.1710   50.3320 F   0  0  0  0  0  0  0  0  0  0  0  0
   37.1130   30.5720   51.8290 F   0  0  0  0  0  0  0  0  0  0  0  0
  1  8  1  0  0  0  0
  2  1  1  0  0  0  0
  2 23  1  0  0  0  0
  3  2  2  0  0  0  0
  4  5  2  0  0  0  0
  4  3  1  0  0  0  0
  5  6  1  0  0  0  0
  6  1  2  0  0  0  0
  7  9  1  0  0  0  0
  7  5  1  0  0  0  0
 10  7  1  0  0  0  0
 11 17  1  6  0  0  0
 11 12  1  0  0  0  0
 12  3  1  6  0  0  0
 13 12  1  0  0  0  0
 14 13  1  0  0  0  0
 15 19  1  1  0  0  0
 15 14  1  0  0  0  0
 16 21  1  1  0  0  0
 16 15  1  0  0  0  0
 16 11  1  0  0  0  0
 18 17  1  0  0  0  0
 19 20  1  0  0  0  0
 22 21  1  0  0  0  0
 23 26  1  0  0  0  0
 24 23  1  0  0  0  0
 25 23  1  0  0  0  0
M  END
>  <minimizedAffinity>
-5.17824411

>  <minimizedRMSD>
1.09462535

$$$$
