
 OpenBabel03272500083D

 42 45  0  0  1  0  0  0  0  0999 V2000
   30.5890   27.6850   48.1990 C   0  0  0  0  0  0  0  0  0  0  0  0
   30.4570   27.5910   49.5660 C   0  0  0  0  0  0  0  0  0  0  0  0
   29.2910   27.9690   50.1970 C   0  0  0  0  0  0  0  0  0  0  0  0
   28.2320   28.4550   49.4190 C   0  0  0  0  0  0  0  0  0  0  0  0
   28.3750   28.5470   48.0370 C   0  0  0  0  0  0  0  0  0  0  0  0
   29.5430   28.1630   47.4530 C   0  0  0  0  0  0  0  0  0  0  0  0
   31.2440   27.2230   50.2080 H   0  0  0  0  0  0  0  0  0  0  0  0
   29.1960   27.8900   51.2800 H   0  0  0  0  0  0  0  0  0  0  0  0
   27.3510   28.7330   49.9840 H   0  0  0  0  0  0  0  0  0  0  0  0
   27.5260   28.9290   47.5000 H   0  0  0  0  0  0  0  0  0  0  0  0
   28.8450   27.1770   45.3240 C   0  0  1  0  0  3  0  0  0  0  0  0
   29.6640   28.2530   45.9970 C   0  0  1  0  0  3  0  0  0  0  0  0
   29.2860   29.5300   45.5960 O   0  0  0  0  0  0  0  0  0  0  0  0
   28.8270   29.5720   44.2840 C   0  0  0  0  0  2  0  0  0  0  0  0
   27.4460   28.9690   44.2680 C   0  0  1  0  0  3  0  0  0  0  0  0
   27.4770   27.6030   44.9090 C   0  0  1  0  0  3  0  0  0  0  0  0
   29.5180   26.5970   44.2610 O   0  0  0  0  0  0  0  0  0  0  0  0
   30.4930   26.5780   44.4590 H   0  0  0  0  0  0  0  0  0  0  0  0
   26.5420   29.7450   44.9930 O   0  0  0  0  0  0  0  0  0  0  0  0
   25.6740   29.2310   44.9530 H   0  0  0  0  0  0  0  0  0  0  0  0
   27.0340   26.6850   43.9440 O   0  0  0  0  0  0  0  0  0  0  0  0
   27.6860   25.9610   43.7750 H   0  0  0  0  0  0  0  0  0  0  0  0
   31.8200   27.2690   47.7070 O   0  0  0  0  0  0  0  0  0  0  0  0
   34.8540   28.7600   48.9380 C   0  0  0  0  0  0  0  0  0  0  0  0
   34.9470   29.9580   48.1870 C   0  0  0  0  0  0  0  0  0  0  0  0
   33.9430   30.2200   47.2650 C   0  0  0  0  0  0  0  0  0  0  0  0
   32.9340   29.3150   47.1360 N   0  0  0  0  0  0  0  0  0  0  0  0
   32.8690   28.1940   47.8540 C   0  0  0  0  0  0  0  0  0  0  0  0
   33.8370   27.8960   48.7740 N   0  0  0  0  0  0  0  0  0  0  0  0
   35.6420   28.5490   49.6650 H   0  0  0  0  0  0  0  0  0  0  0  0
   34.0050   31.1310   46.6880 H   0  0  0  0  0  0  0  0  0  0  0  0
   36.0570   30.8080   48.4250 N   0  0  0  0  0  0  0  0  0  0  0  0
   36.2770   31.3820   49.6030 C   0  0  0  0  0  0  0  0  0  0  0  0
   37.3880   32.2010   49.7590 C   0  0  0  0  0  0  0  0  0  0  0  0
   38.1770   32.3490   48.6630 C   0  0  0  0  0  0  0  0  0  0  0  0
   39.1990   33.0950   48.7900 O   0  0  0  0  0  0  0  0  0  0  0  0
   37.9930   31.7960   47.4800 N   0  0  0  0  0  0  0  0  0  0  0  0
   36.8960   30.9960   47.3490 C   0  0  0  0  0  0  0  0  0  0  0  0
   36.6970   30.4530   46.2160 O   0  0  0  0  0  0  0  0  0  0  0  0
   35.5740   31.1880   50.4060 H   0  0  0  0  0  0  0  0  0  0  0  0
   37.5490   32.6590   50.7260 H   0  0  0  0  0  0  0  0  0  0  0  0
   38.6440   31.9580   46.6850 H   0  0  0  0  0  0  0  0  0  0  0  0
  1  2  1  0  0  0  0
  2  3  2  0  0  0  0
  2  7  1  0  0  0  0
  3  8  1  0  0  0  0
  4  9  1  0  0  0  0
  4  3  1  0  0  0  0
  5  4  2  0  0  0  0
  6  5  1  0  0  0  0
  6  1  2  0  0  0  0
 10  5  1  0  0  0  0
 11 17  1  6  0  0  0
 11 12  1  0  0  0  0
 12  6  1  1  0  0  0
 13 12  1  0  0  0  0
 14 13  1  0  0  0  0
 15 14  1  0  0  0  0
 15 16  1  0  0  0  0
 15 19  1  1  0  0  0
 16 21  1  6  0  0  0
 16 11  1  0  0  0  0
 17 18  1  0  0  0  0
 20 19  1  0  0  0  0
 22 21  1  0  0  0  0
 23 28  1  0  0  0  0
 23  1  1  0  0  0  0
 24 30  1  0  0  0  0
 25 32  1  0  0  0  0
 25 24  2  0  0  0  0
 26 25  1  0  0  0  0
 27 26  2  0  0  0  0
 27 28  1  0  0  0  0
 28 29  2  0  0  0  0
 29 24  1  0  0  0  0
 31 26  1  0  0  0  0
 32 33  1  0  0  0  0
 33 34  2  0  0  0  0
 33 40  1  0  0  0  0
 34 41  1  0  0  0  0
 35 36  2  0  0  0  0
 35 34  1  0  0  0  0
 37 35  1  0  0  0  0
 38 37  1  0  0  0  0
 38 32  1  0  0  0  0
 39 38  2  0  0  0  0
 42 37  1  0  0  0  0
M  END
>  <minimizedAffinity>
-6.25059366

>  <minimizedRMSD>
1.12507296

$$$$
