
 OpenBabel03272505593D

 47 50  0  0  1  0  0  0  0  0999 V2000
   35.2140   30.3770   49.8760 C   0  0  2  0  0  0  0  0  0  0  0  0
   36.1270   31.1970   49.0410 C   0  0  0  0  0  0  0  0  0  0  0  0
   37.5830   30.7090   49.1090 C   0  0  2  0  0  0  0  0  0  0  0  0
   38.1280   30.6310   50.4620 C   0  0  0  0  0  0  0  0  0  0  0  0
   37.1340   30.0970   51.4850 C   0  0  0  0  0  0  0  0  0  0  0  0
   35.9410   29.4630   50.8330 C   0  0  0  0  0  0  0  0  0  0  0  0
   34.5470   31.0030   50.5400 H   0  0  0  0  0  0  0  0  0  0  0  0
   35.9750   31.3030   47.9900 H   0  0  0  0  0  0  0  0  0  0  0  0
   36.1440   32.2620   49.4500 H   0  0  0  0  0  0  0  0  0  0  0  0
   37.6200   29.7620   48.5590 H   0  0  0  0  0  0  0  0  0  0  0  0
   39.0580   30.0220   50.4430 H   0  0  0  0  0  0  0  0  0  0  0  0
   38.4390   31.6170   50.8560 H   0  0  0  0  0  0  0  0  0  0  0  0
   37.6570   29.2910   52.0390 H   0  0  0  0  0  0  0  0  0  0  0  0
   36.8350   30.8350   52.2370 H   0  0  0  0  0  0  0  0  0  0  0  0
   36.2000   28.5430   50.2860 H   0  0  0  0  0  0  0  0  0  0  0  0
   35.2370   29.1640   51.6290 H   0  0  0  0  0  0  0  0  0  0  0  0
   37.6530   30.2060   46.2040 Cl  0  0  0  0  0  0  0  0  0  0  0  0
   38.4640   31.5770   46.9440 C   0  0  0  0  0  0  0  0  0  0  0  0
   38.3300   31.7300   48.3130 C   0  0  0  0  0  0  0  0  0  0  0  0
   38.9790   32.8450   48.7940 C   0  0  0  0  0  0  0  0  0  0  0  0
   39.6880   33.7120   47.9880 C   0  0  0  0  0  0  0  0  0  0  0  0
   39.7730   33.4850   46.6200 C   0  0  0  0  0  0  0  0  0  0  0  0
   39.1360   32.3750   46.0840 C   0  0  0  0  0  0  0  0  0  0  0  0
   38.9140   33.0330   49.8580 H   0  0  0  0  0  0  0  0  0  0  0  0
   40.1590   34.5600   48.4850 H   0  0  0  0  0  0  0  0  0  0  0  0
   40.3350   34.1850   46.0310 H   0  0  0  0  0  0  0  0  0  0  0  0
   40.0850   30.9340   44.3020 C   0  0  1  0  0  3  0  0  0  0  0  0
   39.2270   32.1330   44.6280 C   0  0  2  0  0  3  0  0  0  0  0  0
   39.6860   33.2650   43.9520 O   0  0  0  0  0  0  0  0  0  0  0  0
   39.3470   33.1920   42.6130 C   0  0  0  0  0  2  0  0  0  0  0  0
   39.6970   31.8500   42.0090 C   0  0  1  0  0  3  0  0  0  0  0  0
   40.6730   31.1440   42.9270 C   0  0  2  0  0  3  0  0  0  0  0  0
   41.1620   30.8090   45.1740 O   0  0  0  0  0  0  0  0  0  0  0  0
   42.0190   31.1300   44.7730 H   0  0  0  0  0  0  0  0  0  0  0  0
   38.5930   31.0340   41.8360 O   0  0  0  0  0  0  0  0  0  0  0  0
   37.7790   31.5680   41.6050 H   0  0  0  0  0  0  0  0  0  0  0  0
   41.0300   29.9270   42.3840 O   0  0  0  0  0  0  0  0  0  0  0  0
   41.8500   30.0470   41.8180 H   0  0  0  0  0  0  0  0  0  0  0  0
   34.3030   29.5410   49.0770 C   0  0  0  0  0  0  0  0  0  0  0  0
   34.3020   29.8090   47.7060 C   0  0  0  0  0  0  0  0  0  0  0  0
   33.4630   29.0290   46.8950 C   0  0  0  0  0  0  0  0  0  0  0  0
   32.6850   28.0410   47.4890 N   0  0  0  0  0  0  0  0  0  0  0  0
   32.7210   27.8210   48.8170 C   0  0  0  0  0  0  0  0  0  0  0  0
   33.5260   28.5740   49.5690 N   0  0  0  0  0  0  0  0  0  0  0  0
   34.7540   30.4680   46.9880 H   0  0  0  0  0  0  0  0  0  0  0  0
   33.2680   29.0140   45.8510 H   0  0  0  0  0  0  0  0  0  0  0  0
   32.1210   27.0570   49.2880 H   0  0  0  0  0  0  0  0  0  0  0  0
  1  7  1  1  0  0  0
  1  6  1  0  0  0  0
  2  3  1  0  0  0  0
  2  9  1  0  0  0  0
  2  1  1  0  0  0  0
  3 10  1  6  0  0  0
  3  4  1  0  0  0  0
  4 12  1  0  0  0  0
  4  5  1  0  0  0  0
  5 13  1  0  0  0  0
  5 14  1  0  0  0  0
  6  5  1  0  0  0  0
  6 16  1  0  0  0  0
  8  2  1  0  0  0  0
 11  4  1  0  0  0  0
 15  6  1  0  0  0  0
 17 18  1  0  0  0  0
 18 19  1  0  0  0  0
 19 20  2  0  0  0  0
 19  3  1  0  0  0  0
 20 24  1  0  0  0  0
 21 25  1  0  0  0  0
 21 20  1  0  0  0  0
 22 21  2  0  0  0  0
 23 22  1  0  0  0  0
 23 18  2  0  0  0  0
 26 22  1  0  0  0  0
 27 28  1  0  0  0  0
 27 33  1  1  0  0  0
 28 23  1  1  0  0  0
 29 28  1  0  0  0  0
 30 29  1  0  0  0  0
 31 35  1  1  0  0  0
 31 30  1  0  0  0  0
 31 32  1  0  0  0  0
 32 37  1  6  0  0  0
 32 27  1  0  0  0  0
 34 33  1  0  0  0  0
 36 35  1  0  0  0  0
 38 37  1  0  0  0  0
 39 44  1  0  0  0  0
 39  1  1  0  0  0  0
 40 39  2  0  0  0  0
 41 42  2  0  0  0  0
 41 40  1  0  0  0  0
 42 43  1  0  0  0  0
 43 47  1  0  0  0  0
 43 44  2  0  0  0  0
 45 40  1  0  0  0  0
 46 41  1  0  0  0  0
M  END
>  <minimizedAffinity>
-8.20156097

>  <minimizedRMSD>
1.17288506

$$$$
