
 OpenBabel03272507593D

 35 37  0  0  1  0  0  0  0  0999 V2000
   38.7510   26.7260   33.1250 C   0  0  0  0  0  0  0  0  0  0  0  0
   40.0510   27.1870   32.9550 C   0  0  0  0  0  0  0  0  0  0  0  0
   41.0840   26.5450   33.6270 C   0  0  0  0  0  0  0  0  0  0  0  0
   40.8280   25.4760   34.4440 C   0  0  0  0  0  0  0  0  0  0  0  0
   39.5320   25.0490   34.5890 C   0  0  0  0  0  0  0  0  0  0  0  0
   38.5310   25.6680   33.9390 N   0  0  0  0  0  0  0  0  0  0  0  0
   40.3960   28.0050   32.3520 H   0  0  0  0  0  0  0  0  0  0  0  0
   42.1220   26.8360   33.5530 H   0  0  0  0  0  0  0  0  0  0  0  0
   41.5230   24.8840   35.0250 H   0  0  0  0  0  0  0  0  0  0  0  0
   35.8620   28.9510   32.2550 C   0  0  0  0  0  0  0  0  0  0  0  0
   36.7980   28.2100   33.0350 C   0  0  0  0  0  0  0  0  0  0  0  0
   37.7820   27.4920   32.3620 C   0  0  0  0  0  0  0  0  0  0  0  0
   37.8040   27.5310   30.9990 N   0  0  0  0  0  0  0  0  0  0  0  0
   36.8840   28.2570   30.2980 C   0  0  0  0  0  0  0  0  0  0  0  0
   35.9250   28.9570   30.9110 N   0  0  0  0  0  0  0  0  0  0  0  0
   37.1130   28.1410   28.8910 N   0  0  0  0  0  0  0  0  0  0  0  0
   35.0830   29.5200   32.7600 H   0  0  0  0  0  0  0  0  0  0  0  0
   37.7000   28.8150   28.3490 H   0  0  0  0  0  0  0  0  0  0  0  0
   36.5830   27.2850   28.6000 H   0  0  0  0  0  0  0  0  0  0  0  0
   36.6710   28.2450   34.5080 C   0  0  0  0  0  0  0  0  0  0  0  0
   35.8500   29.2930   34.9190 F   0  0  0  0  0  0  0  0  0  0  0  0
   36.1120   27.0730   34.9270 F   0  0  0  0  0  0  0  0  0  0  0  0
   37.8770   28.4020   35.1620 F   0  0  0  0  0  0  0  0  0  0  0  0
   40.1270   23.3670   36.2590 C   0  0  1  0  0  3  0  0  0  0  0  0
   38.9860   23.9150   35.4130 C   0  0  1  0  0  3  0  0  0  0  0  0
   37.9140   24.3310   36.1590 O   0  0  0  0  0  0  0  0  0  0  0  0
   38.1550   24.5160   37.4990 C   0  0  0  0  0  2  0  0  0  0  0  0
   38.6400   23.2870   38.2120 C   0  0  2  0  0  3  0  0  0  0  0  0
   39.5250   22.4560   37.2900 C   0  0  2  0  0  3  0  0  0  0  0  0
   40.9940   22.6520   35.4390 O   0  0  0  0  0  0  0  0  0  0  0  0
   40.5260   22.3300   34.6100 H   0  0  0  0  0  0  0  0  0  0  0  0
   37.5420   22.5170   38.6500 O   0  0  0  0  0  0  0  0  0  0  0  0
   37.5000   22.6030   39.6170 H   0  0  0  0  0  0  0  0  0  0  0  0
   40.5060   21.7990   38.0390 O   0  0  0  0  0  0  0  0  0  0  0  0
   40.7490   22.3800   38.8030 H   0  0  0  0  0  0  0  0  0  0  0  0
  1  6  1  0  0  0  0
  2  1  2  0  0  0  0
  2  3  1  0  0  0  0
  3  4  2  0  0  0  0
  4  5  1  0  0  0  0
  4  9  1  0  0  0  0
  6  5  2  0  0  0  0
  7  2  1  0  0  0  0
  8  3  1  0  0  0  0
 10 17  1  0  0  0  0
 10 11  1  0  0  0  0
 11 20  1  0  0  0  0
 12 11  2  0  0  0  0
 12  1  1  0  0  0  0
 13 12  1  0  0  0  0
 14 15  1  0  0  0  0
 14 13  2  0  0  0  0
 15 10  2  0  0  0  0
 16 14  1  0  0  0  0
 18 16  1  0  0  0  0
 19 16  1  0  0  0  0
 20 21  1  0  0  0  0
 20 22  1  0  0  0  0
 20 23  1  0  0  0  0
 24 30  1  6  0  0  0
 24 29  1  0  0  0  0
 25  5  1  1  0  0  0
 25 26  1  0  0  0  0
 25 24  1  0  0  0  0
 26 27  1  0  0  0  0
 27 28  1  0  0  0  0
 28 32  1  6  0  0  0
 29 34  1  1  0  0  0
 29 28  1  0  0  0  0
 31 30  1  0  0  0  0
 32 33  1  0  0  0  0
 34 35  1  0  0  0  0
M  END
>  <minimizedAffinity>
-6.9228611

$$$$

 OpenBabel03272507593D

 35 37  0  0  1  0  0  0  0  0999 V2000
   37.8590   25.9320   34.1590 C   0  0  0  0  0  0  0  0  0  0  0  0
   37.2860   26.8470   35.0340 C   0  0  0  0  0  0  0  0  0  0  0  0
   36.6410   27.9620   34.5130 C   0  0  0  0  0  0  0  0  0  0  0  0
   36.5700   28.1590   33.1590 C   0  0  0  0  0  0  0  0  0  0  0  0
   37.1480   27.2350   32.3250 C   0  0  0  0  0  0  0  0  0  0  0  0
   37.7730   26.1550   32.8270 N   0  0  0  0  0  0  0  0  0  0  0  0
   37.2650   26.8220   36.1070 H   0  0  0  0  0  0  0  0  0  0  0  0
   36.1690   28.7220   35.1180 H   0  0  0  0  0  0  0  0  0  0  0  0
   36.1070   28.9700   32.6140 H   0  0  0  0  0  0  0  0  0  0  0  0
   40.4600   23.7470   35.7440 C   0  0  0  0  0  0  0  0  0  0  0  0
   39.8680   24.8530   35.0660 C   0  0  0  0  0  0  0  0  0  0  0  0
   38.4940   24.8230   34.8460 C   0  0  0  0  0  0  0  0  0  0  0  0
   37.7850   23.7440   35.2860 N   0  0  0  0  0  0  0  0  0  0  0  0
   38.3990   22.7090   35.9310 C   0  0  0  0  0  0  0  0  0  0  0  0
   39.7160   22.7050   36.1580 N   0  0  0  0  0  0  0  0  0  0  0  0
   37.4500   21.7030   36.2930 N   0  0  0  0  0  0  0  0  0  0  0  0
   41.5330   23.7480   35.9270 H   0  0  0  0  0  0  0  0  0  0  0  0
   36.9680   21.6770   37.2210 H   0  0  0  0  0  0  0  0  0  0  0  0
   37.3880   21.0760   35.4550 H   0  0  0  0  0  0  0  0  0  0  0  0
   40.7430   25.9650   34.6360 C   0  0  0  0  0  0  0  0  0  0  0  0
   42.0370   25.8080   35.1280 F   0  0  0  0  0  0  0  0  0  0  0  0
   40.8010   25.9740   33.2730 F   0  0  0  0  0  0  0  0  0  0  0  0
   40.3040   27.2050   35.0540 F   0  0  0  0  0  0  0  0  0  0  0  0
   37.2310   28.6560   30.3380 C   0  0  1  0  0  3  0  0  0  0  0  0
   37.2120   27.2130   30.8210 C   0  0  1  0  0  3  0  0  0  0  0  0
   38.2930   26.4860   30.3930 O   0  0  0  0  0  0  0  0  0  0  0  0
   39.3540   27.2190   29.9200 C   0  0  0  0  0  2  0  0  0  0  0  0
   39.0210   28.0990   28.7500 C   0  0  2  0  0  3  0  0  0  0  0  0
   37.6010   28.6380   28.8820 C   0  0  2  0  0  3  0  0  0  0  0  0
   35.9630   29.2040   30.5010 O   0  0  0  0  0  0  0  0  0  0  0  0
   35.2590   28.4880   30.5240 H   0  0  0  0  0  0  0  0  0  0  0  0
   39.1520   27.3750   27.5470 O   0  0  0  0  0  0  0  0  0  0  0  0
   39.9430   27.7140   27.0950 H   0  0  0  0  0  0  0  0  0  0  0  0
   37.5200   29.9100   28.3100 O   0  0  0  0  0  0  0  0  0  0  0  0
   38.3890   30.3630   28.4480 H   0  0  0  0  0  0  0  0  0  0  0  0
  1 12  1  0  0  0  0
  1  2  1  0  0  0  0
  2  7  1  0  0  0  0
  3  2  2  0  0  0  0
  3  8  1  0  0  0  0
  4  3  1  0  0  0  0
  5  6  1  0  0  0  0
  5  4  2  0  0  0  0
  6  1  2  0  0  0  0
  9  4  1  0  0  0  0
 10 17  1  0  0  0  0
 10 15  1  0  0  0  0
 11 10  2  0  0  0  0
 12 11  1  0  0  0  0
 12 13  2  0  0  0  0
 13 14  1  0  0  0  0
 14 15  2  0  0  0  0
 14 16  1  0  0  0  0
 16 18  1  0  0  0  0
 19 16  1  0  0  0  0
 20 23  1  0  0  0  0
 20 11  1  0  0  0  0
 20 21  1  0  0  0  0
 22 20  1  0  0  0  0
 24 30  1  6  0  0  0
 24 25  1  0  0  0  0
 25  5  1  1  0  0  0
 26 25  1  0  0  0  0
 27 26  1  0  0  0  0
 28 32  1  6  0  0  0
 28 29  1  0  0  0  0
 28 27  1  0  0  0  0
 29 34  1  1  0  0  0
 29 24  1  0  0  0  0
 30 31  1  0  0  0  0
 33 32  1  0  0  0  0
 34 35  1  0  0  0  0
M  END
>  <minimizedAffinity>
-6.24201059

$$$$

 OpenBabel03272507593D

 35 37  0  0  1  0  0  0  0  0999 V2000
   38.7720   23.1690   34.3630 C   0  0  0  0  0  0  0  0  0  0  0  0
   37.9040   22.1660   33.9460 C   0  0  0  0  0  0  0  0  0  0  0  0
   37.0000   22.4400   32.9270 C   0  0  0  0  0  0  0  0  0  0  0  0
   36.9620   23.6780   32.3420 C   0  0  0  0  0  0  0  0  0  0  0  0
   37.8330   24.6440   32.7790 C   0  0  0  0  0  0  0  0  0  0  0  0
   38.7090   24.3810   33.7640 N   0  0  0  0  0  0  0  0  0  0  0  0
   37.8220   21.1600   34.3110 H   0  0  0  0  0  0  0  0  0  0  0  0
   36.2910   21.7220   32.5420 H   0  0  0  0  0  0  0  0  0  0  0  0
   36.3190   24.0340   31.5470 H   0  0  0  0  0  0  0  0  0  0  0  0
   40.2470   22.6410   37.7680 C   0  0  0  0  0  0  0  0  0  0  0  0
   39.3580   23.0820   36.7440 C   0  0  0  0  0  0  0  0  0  0  0  0
   39.6550   22.7360   35.4290 C   0  0  0  0  0  0  0  0  0  0  0  0
   40.7760   21.9990   35.1850 N   0  0  0  0  0  0  0  0  0  0  0  0
   41.5960   21.6000   36.2020 C   0  0  0  0  0  0  0  0  0  0  0  0
   41.3400   21.9150   37.4750 N   0  0  0  0  0  0  0  0  0  0  0  0
   42.6990   20.8420   35.6960 N   0  0  0  0  0  0  0  0  0  0  0  0
   40.0340   22.9000   38.8040 H   0  0  0  0  0  0  0  0  0  0  0  0
   42.6900   19.8000   35.6190 H   0  0  0  0  0  0  0  0  0  0  0  0
   43.4290   21.5550   35.4550 H   0  0  0  0  0  0  0  0  0  0  0  0
   38.1730   23.8780   37.1340 C   0  0  0  0  0  0  0  0  0  0  0  0
   36.9910   23.2160   36.8080 F   0  0  0  0  0  0  0  0  0  0  0  0
   38.2000   24.0670   38.4840 F   0  0  0  0  0  0  0  0  0  0  0  0
   38.1180   25.1170   36.5280 F   0  0  0  0  0  0  0  0  0  0  0  0
   37.3290   26.1840   30.9480 C   0  0  1  0  0  3  0  0  0  0  0  0
   37.9970   26.0650   32.3110 C   0  0  1  0  0  3  0  0  0  0  0  0
   37.4920   26.9410   33.2370 O   0  0  0  0  0  0  0  0  0  0  0  0
   36.2840   27.5130   32.9200 C   0  0  0  0  0  2  0  0  0  0  0  0
   36.2930   28.3000   31.6420 C   0  0  2  0  0  3  0  0  0  0  0  0
   37.2220   27.6470   30.6260 C   0  0  2  0  0  3  0  0  0  0  0  0
   38.1190   25.5430   30.0010 O   0  0  0  0  0  0  0  0  0  0  0  0
   39.0760   25.4870   30.3030 H   0  0  0  0  0  0  0  0  0  0  0  0
   36.7070   29.6250   31.8930 O   0  0  0  0  0  0  0  0  0  0  0  0
   35.9230   30.1920   31.7960 H   0  0  0  0  0  0  0  0  0  0  0  0
   36.7370   27.8590   29.3320 O   0  0  0  0  0  0  0  0  0  0  0  0
   35.7480   27.8730   29.3750 H   0  0  0  0  0  0  0  0  0  0  0  0
  1 12  1  0  0  0  0
  2  7  1  0  0  0  0
  2  1  1  0  0  0  0
  3  2  2  0  0  0  0
  4  5  2  0  0  0  0
  4  3  1  0  0  0  0
  5  6  1  0  0  0  0
  6  1  2  0  0  0  0
  8  3  1  0  0  0  0
  9  4  1  0  0  0  0
 10 17  1  0  0  0  0
 11 20  1  0  0  0  0
 11 10  2  0  0  0  0
 12 11  1  0  0  0  0
 13 12  2  0  0  0  0
 13 14  1  0  0  0  0
 14 15  2  0  0  0  0
 15 10  1  0  0  0  0
 16 14  1  0  0  0  0
 18 16  1  0  0  0  0
 19 16  1  0  0  0  0
 20 22  1  0  0  0  0
 21 20  1  0  0  0  0
 23 20  1  0  0  0  0
 24 30  1  6  0  0  0
 24 25  1  0  0  0  0
 25  5  1  1  0  0  0
 25 26  1  0  0  0  0
 27 26  1  0  0  0  0
 28 32  1  1  0  0  0
 28 27  1  0  0  0  0
 29 34  1  6  0  0  0
 29 24  1  0  0  0  0
 29 28  1  0  0  0  0
 30 31  1  0  0  0  0
 33 32  1  0  0  0  0
 34 35  1  0  0  0  0
M  END
>  <minimizedAffinity>
-6.17803621

$$$$

 OpenBabel03272507593D

 35 37  0  0  1  0  0  0  0  0999 V2000
   34.9130   29.4810   33.8780 C   0  0  0  0  0  0  0  0  0  0  0  0
   34.7210   30.0950   32.6470 C   0  0  0  0  0  0  0  0  0  0  0  0
   35.6010   29.8090   31.6090 C   0  0  0  0  0  0  0  0  0  0  0  0
   36.6400   28.9360   31.7950 C   0  0  0  0  0  0  0  0  0  0  0  0
   36.7980   28.3480   33.0250 C   0  0  0  0  0  0  0  0  0  0  0  0
   35.9490   28.6230   34.0300 N   0  0  0  0  0  0  0  0  0  0  0  0
   33.9590   30.7930   32.3600 H   0  0  0  0  0  0  0  0  0  0  0  0
   35.5270   30.2400   30.6220 H   0  0  0  0  0  0  0  0  0  0  0  0
   37.3960   28.6200   31.0890 H   0  0  0  0  0  0  0  0  0  0  0  0
   33.2140   31.2650   36.7040 C   0  0  0  0  0  0  0  0  0  0  0  0
   34.2130   30.9020   35.7520 C   0  0  0  0  0  0  0  0  0  0  0  0
   33.9200   29.8750   34.8600 C   0  0  0  0  0  0  0  0  0  0  0  0
   32.7010   29.2680   34.9390 N   0  0  0  0  0  0  0  0  0  0  0  0
   31.7790   29.6520   35.8700 C   0  0  0  0  0  0  0  0  0  0  0  0
   32.0270   30.6340   36.7420 N   0  0  0  0  0  0  0  0  0  0  0  0
   30.5860   28.8710   35.7540 N   0  0  0  0  0  0  0  0  0  0  0  0
   33.4220   32.0650   37.4120 H   0  0  0  0  0  0  0  0  0  0  0  0
   29.7660   29.1620   35.1750 H   0  0  0  0  0  0  0  0  0  0  0  0
   30.7580   28.0260   36.3490 H   0  0  0  0  0  0  0  0  0  0  0  0
   35.4980   31.6350   35.7650 C   0  0  0  0  0  0  0  0  0  0  0  0
   35.7000   32.3180   34.5670 F   0  0  0  0  0  0  0  0  0  0  0  0
   35.4710   32.5470   36.7790 F   0  0  0  0  0  0  0  0  0  0  0  0
   36.5960   30.8190   35.9510 F   0  0  0  0  0  0  0  0  0  0  0  0
   37.5170   26.9910   34.9270 C   0  0  1  0  0  3  0  0  0  0  0  0
   37.8410   27.3660   33.4880 C   0  0  1  0  0  3  0  0  0  0  0  0
   37.8950   26.2850   32.6470 O   0  0  0  0  0  0  0  0  0  0  0  0
   37.3260   25.1290   33.1250 C   0  0  0  0  0  2  0  0  0  0  0  0
   37.9350   24.6280   34.4040 C   0  0  2  0  0  3  0  0  0  0  0  0
   38.3590   25.7990   35.2810 C   0  0  2  0  0  3  0  0  0  0  0  0
   37.8330   28.0620   35.7550 O   0  0  0  0  0  0  0  0  0  0  0  0
   38.5220   28.6580   35.3310 H   0  0  0  0  0  0  0  0  0  0  0  0
   39.0480   23.8090   34.1200 O   0  0  0  0  0  0  0  0  0  0  0  0
   38.7890   22.8950   34.3260 H   0  0  0  0  0  0  0  0  0  0  0  0
   38.2290   25.4550   36.6300 O   0  0  0  0  0  0  0  0  0  0  0  0
   37.4570   24.8400   36.7150 H   0  0  0  0  0  0  0  0  0  0  0  0
  1  6  1  0  0  0  0
  1 12  1  0  0  0  0
  2  1  2  0  0  0  0
  3  4  2  0  0  0  0
  3  2  1  0  0  0  0
  4  5  1  0  0  0  0
  5  6  2  0  0  0  0
  7  2  1  0  0  0  0
  8  3  1  0  0  0  0
  9  4  1  0  0  0  0
 10 15  1  0  0  0  0
 10 17  1  0  0  0  0
 11 20  1  0  0  0  0
 11 10  2  0  0  0  0
 12 13  2  0  0  0  0
 12 11  1  0  0  0  0
 13 14  1  0  0  0  0
 14 15  2  0  0  0  0
 16 14  1  0  0  0  0
 16 19  1  0  0  0  0
 18 16  1  0  0  0  0
 20 23  1  0  0  0  0
 20 22  1  0  0  0  0
 21 20  1  0  0  0  0
 24 29  1  0  0  0  0
 24 30  1  1  0  0  0
 25  5  1  6  0  0  0
 25 24  1  0  0  0  0
 26 27  1  0  0  0  0
 26 25  1  0  0  0  0
 27 28  1  0  0  0  0
 28 32  1  6  0  0  0
 28 29  1  0  0  0  0
 29 34  1  1  0  0  0
 31 30  1  0  0  0  0
 32 33  1  0  0  0  0
 34 35  1  0  0  0  0
M  END
>  <minimizedAffinity>
-6.09859467

$$$$

 OpenBabel03272507593D

 35 37  0  0  1  0  0  0  0  0999 V2000
   38.6620   23.3580   34.2840 C   0  0  0  0  0  0  0  0  0  0  0  0
   38.5190   24.7190   34.0400 C   0  0  0  0  0  0  0  0  0  0  0  0
   37.6600   25.1340   33.0300 C   0  0  0  0  0  0  0  0  0  0  0  0
   36.9650   24.2190   32.2830 C   0  0  0  0  0  0  0  0  0  0  0  0
   37.1320   22.8840   32.5510 C   0  0  0  0  0  0  0  0  0  0  0  0
   37.9620   22.4800   33.5290 N   0  0  0  0  0  0  0  0  0  0  0  0
   38.9950   25.5400   34.5400 H   0  0  0  0  0  0  0  0  0  0  0  0
   37.4890   26.1690   32.7730 H   0  0  0  0  0  0  0  0  0  0  0  0
   36.2690   24.3920   31.4730 H   0  0  0  0  0  0  0  0  0  0  0  0
   40.0440   22.7090   37.7070 C   0  0  0  0  0  0  0  0  0  0  0  0
   39.1070   22.9850   36.6680 C   0  0  0  0  0  0  0  0  0  0  0  0
   39.5870   23.0770   35.3650 C   0  0  0  0  0  0  0  0  0  0  0  0
   40.9220   22.9010   35.1460 N   0  0  0  0  0  0  0  0  0  0  0  0
   41.7790   22.6380   36.1760 C   0  0  0  0  0  0  0  0  0  0  0  0
   41.3520   22.5430   37.4390 N   0  0  0  0  0  0  0  0  0  0  0  0
   43.1180   22.4930   35.6970 N   0  0  0  0  0  0  0  0  0  0  0  0
   39.6910   22.6330   38.7340 H   0  0  0  0  0  0  0  0  0  0  0  0
   43.5360   21.5720   35.4340 H   0  0  0  0  0  0  0  0  0  0  0  0
   43.5090   23.4660   35.6880 H   0  0  0  0  0  0  0  0  0  0  0  0
   37.6830   23.1580   37.0310 C   0  0  0  0  0  0  0  0  0  0  0  0
   36.8800   22.2280   36.3740 F   0  0  0  0  0  0  0  0  0  0  0  0
   37.5490   22.9670   38.3740 F   0  0  0  0  0  0  0  0  0  0  0  0
   37.1830   24.4070   36.7220 F   0  0  0  0  0  0  0  0  0  0  0  0
   37.4810   20.5320   31.9810 C   0  0  1  0  0  3  0  0  0  0  0  0
   36.4960   21.6900   31.8900 C   0  0  1  0  0  3  0  0  0  0  0  0
   35.2810   21.4110   32.4590 O   0  0  0  0  0  0  0  0  0  0  0  0
   35.2510   20.3230   33.2980 C   0  0  0  0  0  2  0  0  0  0  0  0
   35.6530   19.0320   32.6450 C   0  0  2  0  0  3  0  0  0  0  0  0
   36.7390   19.2820   31.6050 C   0  0  2  0  0  3  0  0  0  0  0  0
   38.5230   20.7550   31.0880 O   0  0  0  0  0  0  0  0  0  0  0  0
   38.2400   21.3700   30.3460 H   0  0  0  0  0  0  0  0  0  0  0  0
   34.5320   18.4300   32.0360 O   0  0  0  0  0  0  0  0  0  0  0  0
   34.3010   17.6510   32.5710 H   0  0  0  0  0  0  0  0  0  0  0  0
   37.5910   18.1760   31.5330 O   0  0  0  0  0  0  0  0  0  0  0  0
   37.6530   17.7780   32.4380 H   0  0  0  0  0  0  0  0  0  0  0  0
  1 12  1  0  0  0  0
  2  1  1  0  0  0  0
  2  7  1  0  0  0  0
  3  2  2  0  0  0  0
  4  5  2  0  0  0  0
  4  3  1  0  0  0  0
  5  6  1  0  0  0  0
  6  1  2  0  0  0  0
  8  3  1  0  0  0  0
  9  4  1  0  0  0  0
 10 17  1  0  0  0  0
 11 20  1  0  0  0  0
 11 10  2  0  0  0  0
 12 11  1  0  0  0  0
 13 12  2  0  0  0  0
 13 14  1  0  0  0  0
 14 15  2  0  0  0  0
 15 10  1  0  0  0  0
 16 14  1  0  0  0  0
 18 16  1  0  0  0  0
 19 16  1  0  0  0  0
 20 22  1  0  0  0  0
 21 20  1  0  0  0  0
 23 20  1  0  0  0  0
 24 30  1  6  0  0  0
 25 24  1  0  0  0  0
 25 26  1  0  0  0  0
 25  5  1  1  0  0  0
 26 27  1  0  0  0  0
 28 32  1  6  0  0  0
 28 27  1  0  0  0  0
 29 34  1  1  0  0  0
 29 24  1  0  0  0  0
 29 28  1  0  0  0  0
 31 30  1  0  0  0  0
 32 33  1  0  0  0  0
 34 35  1  0  0  0  0
M  END
>  <minimizedAffinity>
-6.06164455

$$$$

 OpenBabel03272507593D

 35 37  0  0  1  0  0  0  0  0999 V2000
   39.1720   25.7700   34.8440 C   0  0  0  0  0  0  0  0  0  0  0  0
   38.7290   26.5450   35.9090 C   0  0  0  0  0  0  0  0  0  0  0  0
   37.7970   27.5470   35.6690 C   0  0  0  0  0  0  0  0  0  0  0  0
   37.3210   27.7700   34.4040 C   0  0  0  0  0  0  0  0  0  0  0  0
   37.7820   26.9860   33.3760 C   0  0  0  0  0  0  0  0  0  0  0  0
   38.6830   26.0150   33.6060 N   0  0  0  0  0  0  0  0  0  0  0  0
   39.0120   26.4840   36.9430 H   0  0  0  0  0  0  0  0  0  0  0  0
   37.3990   28.1960   36.4360 H   0  0  0  0  0  0  0  0  0  0  0  0
   36.6030   28.5060   34.0680 H   0  0  0  0  0  0  0  0  0  0  0  0
   42.3970   23.9120   35.2870 C   0  0  0  0  0  0  0  0  0  0  0  0
   41.4730   24.9160   34.8740 C   0  0  0  0  0  0  0  0  0  0  0  0
   40.1400   24.7670   35.2470 C   0  0  0  0  0  0  0  0  0  0  0  0
   39.7850   23.6750   35.9830 N   0  0  0  0  0  0  0  0  0  0  0  0
   40.7100   22.7410   36.3530 C   0  0  0  0  0  0  0  0  0  0  0  0
   41.9970   22.8530   36.0120 N   0  0  0  0  0  0  0  0  0  0  0  0
   40.0980   21.6970   37.1150 N   0  0  0  0  0  0  0  0  0  0  0  0
   43.4450   24.0070   35.0060 H   0  0  0  0  0  0  0  0  0  0  0  0
   40.0450   21.7050   38.1590 H   0  0  0  0  0  0  0  0  0  0  0  0
   39.7600   21.0050   36.4040 H   0  0  0  0  0  0  0  0  0  0  0  0
   41.9780   26.0550   34.0770 C   0  0  0  0  0  0  0  0  0  0  0  0
   43.3670   26.1430   34.1480 F   0  0  0  0  0  0  0  0  0  0  0  0
   41.6270   25.8660   32.7730 F   0  0  0  0  0  0  0  0  0  0  0  0
   41.4790   27.2770   34.4820 F   0  0  0  0  0  0  0  0  0  0  0  0
   36.8460   28.3960   31.6120 C   0  0  1  0  0  3  0  0  0  0  0  0
   37.4260   27.0210   31.9140 C   0  0  1  0  0  3  0  0  0  0  0  0
   38.5170   26.7150   31.1430 O   0  0  0  0  0  0  0  0  0  0  0  0
   39.1110   27.7750   30.5020 C   0  0  0  0  0  2  0  0  0  0  0  0
   38.2000   28.5160   29.5660 C   0  0  2  0  0  3  0  0  0  0  0  0
   36.7790   28.5370   30.1180 C   0  0  2  0  0  3  0  0  0  0  0  0
   35.5680   28.4760   32.1560 O   0  0  0  0  0  0  0  0  0  0  0  0
   35.1670   27.5630   32.2750 H   0  0  0  0  0  0  0  0  0  0  0  0
   38.2150   27.9070   28.2940 O   0  0  0  0  0  0  0  0  0  0  0  0
   38.6950   28.5050   27.6970 H   0  0  0  0  0  0  0  0  0  0  0  0
   36.1380   29.7190   29.7370 O   0  0  0  0  0  0  0  0  0  0  0  0
   36.8190   30.4370   29.6990 H   0  0  0  0  0  0  0  0  0  0  0  0
  1 12  1  0  0  0  0
  1  2  1  0  0  0  0
  2  7  1  0  0  0  0
  3  2  2  0  0  0  0
  3  8  1  0  0  0  0
  4  3  1  0  0  0  0
  5  6  1  0  0  0  0
  5  4  2  0  0  0  0
  6  1  2  0  0  0  0
  9  4  1  0  0  0  0
 10 15  1  0  0  0  0
 11 12  1  0  0  0  0
 11 10  2  0  0  0  0
 12 13  2  0  0  0  0
 13 14  1  0  0  0  0
 14 16  1  0  0  0  0
 15 14  2  0  0  0  0
 16 18  1  0  0  0  0
 17 10  1  0  0  0  0
 19 16  1  0  0  0  0
 20 21  1  0  0  0  0
 20 23  1  0  0  0  0
 20 11  1  0  0  0  0
 22 20  1  0  0  0  0
 24 25  1  0  0  0  0
 24 30  1  1  0  0  0
 25  5  1  1  0  0  0
 26 25  1  0  0  0  0
 27 26  1  0  0  0  0
 28 32  1  6  0  0  0
 28 29  1  0  0  0  0
 28 27  1  0  0  0  0
 29 34  1  1  0  0  0
 29 24  1  0  0  0  0
 30 31  1  0  0  0  0
 33 32  1  0  0  0  0
 35 34  1  0  0  0  0
M  END
>  <minimizedAffinity>
-5.98917103

$$$$

 OpenBabel03272507593D

 35 37  0  0  1  0  0  0  0  0999 V2000
   38.5660   25.5760   32.8970 C   0  0  0  0  0  0  0  0  0  0  0  0
   39.4190   26.4010   32.1740 C   0  0  0  0  0  0  0  0  0  0  0  0
   40.6830   26.6710   32.6840 C   0  0  0  0  0  0  0  0  0  0  0  0
   41.0840   26.1350   33.8790 C   0  0  0  0  0  0  0  0  0  0  0  0
   40.2150   25.3250   34.5660 C   0  0  0  0  0  0  0  0  0  0  0  0
   38.9910   25.0620   34.0740 N   0  0  0  0  0  0  0  0  0  0  0  0
   39.2410   26.8860   31.2340 H   0  0  0  0  0  0  0  0  0  0  0  0
   41.4090   27.3010   32.1900 H   0  0  0  0  0  0  0  0  0  0  0  0
   42.0270   26.2550   34.3960 H   0  0  0  0  0  0  0  0  0  0  0  0
   35.1790   26.2480   31.4390 C   0  0  0  0  0  0  0  0  0  0  0  0
   36.4290   26.4710   32.0870 C   0  0  0  0  0  0  0  0  0  0  0  0
   37.2860   25.3850   32.2420 C   0  0  0  0  0  0  0  0  0  0  0  0
   36.8900   24.1670   31.7700 N   0  0  0  0  0  0  0  0  0  0  0  0
   35.6810   24.0060   31.1560 C   0  0  0  0  0  0  0  0  0  0  0  0
   34.8340   25.0270   30.9910 N   0  0  0  0  0  0  0  0  0  0  0  0
   35.4950   22.6470   30.7520 N   0  0  0  0  0  0  0  0  0  0  0  0
   34.4930   27.0830   31.3070 H   0  0  0  0  0  0  0  0  0  0  0  0
   35.7520   22.2920   29.8030 H   0  0  0  0  0  0  0  0  0  0  0  0
   35.0770   22.1710   31.5870 H   0  0  0  0  0  0  0  0  0  0  0  0
   36.7460   27.8370   32.5560 C   0  0  0  0  0  0  0  0  0  0  0  0
   37.6550   28.4640   31.7050 F   0  0  0  0  0  0  0  0  0  0  0  0
   35.5970   28.5720   32.5710 F   0  0  0  0  0  0  0  0  0  0  0  0
   37.2940   27.8730   33.8230 F   0  0  0  0  0  0  0  0  0  0  0  0
   39.0400   24.1180   36.3370 C   0  0  1  0  0  3  0  0  0  0  0  0
   40.4040   24.6180   35.8810 C   0  0  1  0  0  3  0  0  0  0  0  0
   41.3340   23.6180   35.7640 O   0  0  0  0  0  0  0  0  0  0  0  0
   40.8330   22.3390   35.7290 C   0  0  0  0  0  2  0  0  0  0  0  0
   40.0380   21.9570   36.9440 C   0  0  2  0  0  3  0  0  0  0  0  0
   39.2690   23.1620   37.4720 C   0  0  2  0  0  3  0  0  0  0  0  0
   38.2830   25.2010   36.7700 O   0  0  0  0  0  0  0  0  0  0  0  0
   38.8710   25.9660   37.0490 H   0  0  0  0  0  0  0  0  0  0  0  0
   40.8950   21.4540   37.9450 O   0  0  0  0  0  0  0  0  0  0  0  0
   40.7360   20.4970   38.0020 H   0  0  0  0  0  0  0  0  0  0  0  0
   38.0660   22.7430   38.0480 O   0  0  0  0  0  0  0  0  0  0  0  0
   37.7460   21.9520   37.5460 H   0  0  0  0  0  0  0  0  0  0  0  0
  1  6  1  0  0  0  0
  2  3  1  0  0  0  0
  2  1  2  0  0  0  0
  3  4  2  0  0  0  0
  4  9  1  0  0  0  0
  4  5  1  0  0  0  0
  6  5  2  0  0  0  0
  7  2  1  0  0  0  0
  8  3  1  0  0  0  0
 10 11  1  0  0  0  0
 11 12  2  0  0  0  0
 11 20  1  0  0  0  0
 12  1  1  0  0  0  0
 13 12  1  0  0  0  0
 14 13  2  0  0  0  0
 15 14  1  0  0  0  0
 15 10  2  0  0  0  0
 16 14  1  0  0  0  0
 16 19  1  0  0  0  0
 17 10  1  0  0  0  0
 18 16  1  0  0  0  0
 20 22  1  0  0  0  0
 20 23  1  0  0  0  0
 21 20  1  0  0  0  0
 24 30  1  1  0  0  0
 24 29  1  0  0  0  0
 25  5  1  6  0  0  0
 25 24  1  0  0  0  0
 26 25  1  0  0  0  0
 27 26  1  0  0  0  0
 27 28  1  0  0  0  0
 28 29  1  0  0  0  0
 28 32  1  1  0  0  0
 29 34  1  6  0  0  0
 30 31  1  0  0  0  0
 32 33  1  0  0  0  0
 35 34  1  0  0  0  0
M  END
>  <minimizedAffinity>
-5.90651798

$$$$

 OpenBabel03272507593D

 35 37  0  0  1  0  0  0  0  0999 V2000
   38.8710   24.0070   34.9460 C   0  0  0  0  0  0  0  0  0  0  0  0
   38.4660   24.0800   36.2740 C   0  0  0  0  0  0  0  0  0  0  0  0
   37.6230   23.0950   36.7750 C   0  0  0  0  0  0  0  0  0  0  0  0
   37.1950   22.0690   35.9750 C   0  0  0  0  0  0  0  0  0  0  0  0
   37.6140   22.0290   34.6690 C   0  0  0  0  0  0  0  0  0  0  0  0
   38.4300   22.9810   34.1820 N   0  0  0  0  0  0  0  0  0  0  0  0
   38.7200   24.8190   37.0100 H   0  0  0  0  0  0  0  0  0  0  0  0
   37.2600   23.0740   37.7920 H   0  0  0  0  0  0  0  0  0  0  0  0
   36.5440   21.2410   36.2220 H   0  0  0  0  0  0  0  0  0  0  0  0
   40.1270   27.2100   33.4590 C   0  0  0  0  0  0  0  0  0  0  0  0
   39.2390   26.1520   33.8140 C   0  0  0  0  0  0  0  0  0  0  0  0
   39.7470   25.0990   34.5680 C   0  0  0  0  0  0  0  0  0  0  0  0
   41.0630   25.1280   34.9280 N   0  0  0  0  0  0  0  0  0  0  0  0
   41.8730   26.1650   34.5620 C   0  0  0  0  0  0  0  0  0  0  0  0
   41.4180   27.1910   33.8380 N   0  0  0  0  0  0  0  0  0  0  0  0
   43.2010   25.9680   35.0570 N   0  0  0  0  0  0  0  0  0  0  0  0
   39.7510   28.0440   32.8690 H   0  0  0  0  0  0  0  0  0  0  0  0
   43.5330   26.3490   35.9710 H   0  0  0  0  0  0  0  0  0  0  0  0
   43.6820   25.4000   34.3190 H   0  0  0  0  0  0  0  0  0  0  0  0
   37.8320   26.2330   33.3640 C   0  0  0  0  0  0  0  0  0  0  0  0
   36.9530   26.1770   34.4440 F   0  0  0  0  0  0  0  0  0  0  0  0
   37.6460   27.4230   32.7220 F   0  0  0  0  0  0  0  0  0  0  0  0
   37.4700   25.2190   32.5000 F   0  0  0  0  0  0  0  0  0  0  0  0
   35.7820   20.8740   33.5340 C   0  0  1  0  0  3  0  0  0  0  0  0
   37.2960   21.0250   33.5940 C   0  0  1  0  0  3  0  0  0  0  0  0
   37.8470   21.4060   32.3980 O   0  0  0  0  0  0  0  0  0  0  0  0
   36.9700   21.9160   31.4720 C   0  0  0  0  0  2  0  0  0  0  0  0
   35.8700   20.9700   31.0810 C   0  0  2  0  0  3  0  0  0  0  0  0
   35.4550   20.1210   32.2770 C   0  0  2  0  0  3  0  0  0  0  0  0
   35.3560   20.1550   34.6460 O   0  0  0  0  0  0  0  0  0  0  0  0
   36.0970   19.5870   35.0160 H   0  0  0  0  0  0  0  0  0  0  0  0
   36.2990   20.1390   30.0250 O   0  0  0  0  0  0  0  0  0  0  0  0
   35.8250   20.4250   29.2270 H   0  0  0  0  0  0  0  0  0  0  0  0
   34.0930   19.8170   32.1940 O   0  0  0  0  0  0  0  0  0  0  0  0
   33.6340   20.5830   31.7650 H   0  0  0  0  0  0  0  0  0  0  0  0
  1  2  1  0  0  0  0
  2  3  2  0  0  0  0
  2  7  1  0  0  0  0
  3  8  1  0  0  0  0
  4  9  1  0  0  0  0
  4  3  1  0  0  0  0
  5  4  2  0  0  0  0
  6  5  1  0  0  0  0
  6  1  2  0  0  0  0
 10 11  2  0  0  0  0
 10 15  1  0  0  0  0
 11 12  1  0  0  0  0
 12 13  2  0  0  0  0
 12  1  1  0  0  0  0
 14 13  1  0  0  0  0
 14 16  1  0  0  0  0
 15 14  2  0  0  0  0
 16 18  1  0  0  0  0
 17 10  1  0  0  0  0
 19 16  1  0  0  0  0
 20 11  1  0  0  0  0
 20 21  1  0  0  0  0
 22 20  1  0  0  0  0
 23 20  1  0  0  0  0
 24 25  1  0  0  0  0
 24 30  1  1  0  0  0
 25  5  1  1  0  0  0
 26 25  1  0  0  0  0
 27 26  1  0  0  0  0
 28 32  1  6  0  0  0
 28 27  1  0  0  0  0
 28 29  1  0  0  0  0
 29 34  1  6  0  0  0
 29 24  1  0  0  0  0
 30 31  1  0  0  0  0
 33 32  1  0  0  0  0
 35 34  1  0  0  0  0
M  END
>  <minimizedAffinity>
-5.88966942

$$$$

 OpenBabel03272507593D

 35 37  0  0  1  0  0  0  0  0999 V2000
   38.6510   24.9620   33.0000 C   0  0  0  0  0  0  0  0  0  0  0  0
   40.0180   25.1770   32.8740 C   0  0  0  0  0  0  0  0  0  0  0  0
   40.8890   24.1200   33.1060 C   0  0  0  0  0  0  0  0  0  0  0  0
   40.4110   22.8840   33.4550 C   0  0  0  0  0  0  0  0  0  0  0  0
   39.0550   22.7090   33.5710 C   0  0  0  0  0  0  0  0  0  0  0  0
   38.2100   23.7300   33.3460 N   0  0  0  0  0  0  0  0  0  0  0  0
   40.5300   26.0830   32.6100 H   0  0  0  0  0  0  0  0  0  0  0  0
   41.9640   24.1980   33.0310 H   0  0  0  0  0  0  0  0  0  0  0  0
   40.9610   21.9770   33.6650 H   0  0  0  0  0  0  0  0  0  0  0  0
   36.7570   28.1620   33.4740 C   0  0  0  0  0  0  0  0  0  0  0  0
   37.5260   27.0000   33.7770 C   0  0  0  0  0  0  0  0  0  0  0  0
   37.8700   26.1530   32.7270 C   0  0  0  0  0  0  0  0  0  0  0  0
   37.4570   26.4740   31.4670 N   0  0  0  0  0  0  0  0  0  0  0  0
   36.7220   27.6000   31.2290 C   0  0  0  0  0  0  0  0  0  0  0  0
   36.3740   28.4340   32.2130 N   0  0  0  0  0  0  0  0  0  0  0  0
   36.4130   27.7180   29.8370 N   0  0  0  0  0  0  0  0  0  0  0  0
   36.4760   28.8380   34.2790 H   0  0  0  0  0  0  0  0  0  0  0  0
   37.0040   28.2540   29.1630 H   0  0  0  0  0  0  0  0  0  0  0  0
   35.5250   27.1740   29.7110 H   0  0  0  0  0  0  0  0  0  0  0  0
   37.9130   26.7590   35.1840 C   0  0  0  0  0  0  0  0  0  0  0  0
   37.5800   27.8450   35.9920 F   0  0  0  0  0  0  0  0  0  0  0  0
   37.2420   25.6630   35.6410 F   0  0  0  0  0  0  0  0  0  0  0  0
   39.2650   26.5350   35.3530 F   0  0  0  0  0  0  0  0  0  0  0  0
   37.2100   21.8740   34.9410 C   0  0  1  0  0  3  0  0  0  0  0  0
   38.2790   21.4710   33.9350 C   0  0  1  0  0  3  0  0  0  0  0  0
   37.7670   20.8730   32.8130 O   0  0  0  0  0  0  0  0  0  0  0  0
   36.4180   21.0420   32.6110 C   0  0  0  0  0  2  0  0  0  0  0  0
   35.5590   20.5210   33.7260 C   0  0  2  0  0  3  0  0  0  0  0  0
   36.2550   20.7220   35.0670 C   0  0  2  0  0  3  0  0  0  0  0  0
   37.8150   22.1290   36.1670 O   0  0  0  0  0  0  0  0  0  0  0  0
   38.6960   21.6510   36.2420 H   0  0  0  0  0  0  0  0  0  0  0  0
   35.2850   19.1510   33.5250 O   0  0  0  0  0  0  0  0  0  0  0  0
   34.3490   19.0810   33.2760 H   0  0  0  0  0  0  0  0  0  0  0  0
   35.3040   20.9450   36.0670 O   0  0  0  0  0  0  0  0  0  0  0  0
   34.5430   21.4330   35.6630 H   0  0  0  0  0  0  0  0  0  0  0  0
  1  6  1  0  0  0  0
  2  1  2  0  0  0  0
  2  3  1  0  0  0  0
  3  4  2  0  0  0  0
  4  5  1  0  0  0  0
  4  9  1  0  0  0  0
  6  5  2  0  0  0  0
  7  2  1  0  0  0  0
  8  3  1  0  0  0  0
 10 11  1  0  0  0  0
 10 17  1  0  0  0  0
 11 20  1  0  0  0  0
 12  1  1  0  0  0  0
 12 11  2  0  0  0  0
 13 12  1  0  0  0  0
 14 13  2  0  0  0  0
 14 15  1  0  0  0  0
 15 10  2  0  0  0  0
 16 14  1  0  0  0  0
 18 16  1  0  0  0  0
 19 16  1  0  0  0  0
 20 23  1  0  0  0  0
 20 22  1  0  0  0  0
 20 21  1  0  0  0  0
 24 29  1  0  0  0  0
 24 30  1  1  0  0  0
 25  5  1  6  0  0  0
 25 24  1  0  0  0  0
 26 25  1  0  0  0  0
 27 26  1  0  0  0  0
 27 28  1  0  0  0  0
 28 32  1  6  0  0  0
 28 29  1  0  0  0  0
 29 34  1  1  0  0  0
 30 31  1  0  0  0  0
 33 32  1  0  0  0  0
 35 34  1  0  0  0  0
M  END
>  <minimizedAffinity>
-5.88162804

$$$$
