
 OpenBabel03272509053D

 36 38  0  0  1  0  0  0  0  0999 V2000
   37.3670   30.9270   50.8300 C   0  0  0  0  0  0  0  0  0  0  0  0
   38.2970   31.2640   49.8010 C   0  0  0  0  0  0  0  0  0  0  0  0
   38.0450   30.8010   48.4910 C   0  0  0  0  0  0  0  0  0  0  0  0
   36.9230   30.0560   48.2830 N   0  0  0  0  0  0  0  0  0  0  0  0
   36.0810   29.7680   49.2950 C   0  0  0  0  0  0  0  0  0  0  0  0
   36.2860   30.1900   50.5550 N   0  0  0  0  0  0  0  0  0  0  0  0
   37.6340   31.3180   51.8010 H   0  0  0  0  0  0  0  0  0  0  0  0
   39.1880   31.8590   49.9800 H   0  0  0  0  0  0  0  0  0  0  0  0
   38.6910   32.5250   46.9370 C   0  0  2  0  0  3  0  0  0  0  0  0
   38.9850   31.1300   47.3880 C   0  0  2  0  0  3  0  0  0  0  0  0
   38.7760   30.1800   46.3990 O   0  0  0  0  0  0  0  0  0  0  0  0
   39.3480   30.4490   45.1900 C   0  0  0  0  0  2  0  0  0  0  0  0
   40.1150   31.7370   45.1140 C   0  0  2  0  0  3  0  0  0  0  0  0
   39.1500   32.8330   45.5310 C   0  0  2  0  0  3  0  0  0  0  0  0
   39.3360   33.4160   47.7970 O   0  0  0  0  0  0  0  0  0  0  0  0
   38.6700   33.9990   48.2150 H   0  0  0  0  0  0  0  0  0  0  0  0
   40.4580   31.9330   43.7710 O   0  0  0  0  0  0  0  0  0  0  0  0
   39.6500   31.8860   43.2130 H   0  0  0  0  0  0  0  0  0  0  0  0
   39.7240   34.0780   45.3930 O   0  0  0  0  0  0  0  0  0  0  0  0
   40.4900   34.1910   45.9970 H   0  0  0  0  0  0  0  0  0  0  0  0
   34.9260   28.9550   48.9430 C   0  0  0  0  0  3  0  0  0  0  0  0
   34.4390   29.0630   47.7510 C   0  0  0  0  0  3  0  0  0  0  0  0
   33.2980   28.3470   47.1560 C   0  0  0  0  0  0  0  0  0  0  0  0
   32.5370   28.1960   47.9730 H   0  0  0  0  0  0  0  0  0  0  0  0
   32.7770   28.9280   46.3740 H   0  0  0  0  0  0  0  0  0  0  0  0
   33.6350   26.9680   46.6840 C   0  0  0  0  0  0  0  0  0  0  0  0
   33.6490   25.8300   47.4590 C   0  0  0  0  0  0  0  0  0  0  0  0
   33.9800   24.6160   46.8790 C   0  0  0  0  0  0  0  0  0  0  0  0
   34.3030   24.5080   45.5320 C   0  0  0  0  0  0  0  0  0  0  0  0
   34.2910   25.6400   44.7550 C   0  0  0  0  0  0  0  0  0  0  0  0
   33.9600   26.8640   45.3290 C   0  0  0  0  0  0  0  0  0  0  0  0
   33.3910   25.9620   48.5010 H   0  0  0  0  0  0  0  0  0  0  0  0
   33.9550   23.7990   47.5880 H   0  0  0  0  0  0  0  0  0  0  0  0
   34.5430   23.5060   45.2030 H   0  0  0  0  0  0  0  0  0  0  0  0
   34.5470   25.5230   43.7120 H   0  0  0  0  0  0  0  0  0  0  0  0
   33.9750   27.7030   44.6440 H   0  0  0  0  0  0  0  0  0  0  0  0
  1  7  1  0  0  0  0
  2  8  1  0  0  0  0
  2  1  2  0  0  0  0
  3  2  1  0  0  0  0
  4  3  2  0  0  0  0
  4  5  1  0  0  0  0
  5  6  2  0  0  0  0
  6  1  1  0  0  0  0
  9 10  1  0  0  0  0
  9 15  1  1  0  0  0
 10  3  1  1  0  0  0
 11 10  1  0  0  0  0
 12 11  1  0  0  0  0
 13 17  1  6  0  0  0
 13 12  1  0  0  0  0
 13 14  1  0  0  0  0
 14 19  1  1  0  0  0
 14  9  1  0  0  0  0
 15 16  1  0  0  0  0
 18 17  1  0  0  0  0
 19 20  1  0  0  0  0
 21  5  1  0  0  0  0
 22 21  2  0  0  0  0
 23 22  1  0  0  0  0
 23 24  1  0  0  0  0
 25 23  1  0  0  0  0
 26 23  1  0  0  0  0
 26 27  1  0  0  0  0
 27 32  1  0  0  0  0
 28 27  2  0  0  0  0
 28 33  1  0  0  0  0
 29 28  1  0  0  0  0
 30 31  1  0  0  0  0
 30 29  2  0  0  0  0
 31 26  2  0  0  0  0
 34 29  1  0  0  0  0
 35 30  1  0  0  0  0
 36 31  1  0  0  0  0
M  END
>  <minimizedAffinity>
-6.31308031

>  <minimizedRMSD>
1.2177403

$$$$
