
 OpenBabel03272506023D

 49 52  0  0  1  0  0  0  0  0999 V2000
   35.4380   30.3650   49.8150 C   0  0  2  0  0  0  0  0  0  0  0  0
   36.3460   31.3760   49.2930 C   0  0  0  0  0  0  0  0  0  0  0  0
   37.8420   30.9400   49.3760 C   0  0  2  0  0  0  0  0  0  0  0  0
   38.2830   30.6290   50.7150 C   0  0  0  0  0  0  0  0  0  0  0  0
   37.2280   29.9020   51.5560 C   0  0  0  0  0  0  0  0  0  0  0  0
   36.1570   29.3190   50.6810 C   0  0  0  0  0  0  0  0  0  0  0  0
   34.6990   30.8090   50.5470 H   0  0  0  0  0  0  0  0  0  0  0  0
   36.3470   32.2560   50.0260 H   0  0  0  0  0  0  0  0  0  0  0  0
   36.2530   31.8240   48.3330 H   0  0  0  0  0  0  0  0  0  0  0  0
   37.9760   30.1100   48.6640 H   0  0  0  0  0  0  0  0  0  0  0  0
   38.5310   31.5380   51.2940 H   0  0  0  0  0  0  0  0  0  0  0  0
   39.2260   30.0490   50.6660 H   0  0  0  0  0  0  0  0  0  0  0  0
   36.8260   30.5180   52.3640 H   0  0  0  0  0  0  0  0  0  0  0  0
   37.7420   29.0380   52.0220 H   0  0  0  0  0  0  0  0  0  0  0  0
   36.5960   28.5820   49.9960 H   0  0  0  0  0  0  0  0  0  0  0  0
   35.4170   28.8210   51.3140 H   0  0  0  0  0  0  0  0  0  0  0  0
   38.6810   30.7270   46.5560 Cl  0  0  0  0  0  0  0  0  0  0  0  0
   39.0470   32.1210   47.5370 C   0  0  0  0  0  0  0  0  0  0  0  0
   38.5660   32.1250   48.8230 C   0  0  0  0  0  0  0  0  0  0  0  0
   38.8700   33.2840   49.5220 C   0  0  0  0  0  0  0  0  0  0  0  0
   39.5870   34.3330   48.9810 C   0  0  0  0  0  0  0  0  0  0  0  0
   40.0420   34.2470   47.6640 C   0  0  0  0  0  0  0  0  0  0  0  0
   39.7590   33.1000   46.9220 C   0  0  0  0  0  0  0  0  0  0  0  0
   38.5200   33.3610   50.5430 H   0  0  0  0  0  0  0  0  0  0  0  0
   39.7690   35.1870   49.6110 H   0  0  0  0  0  0  0  0  0  0  0  0
   40.6010   35.0570   47.2360 H   0  0  0  0  0  0  0  0  0  0  0  0
   40.2220   33.0170   45.5850 N   0  0  0  0  0  0  0  0  0  0  0  0
   39.5380   33.6040   45.0990 H   0  0  0  0  0  0  0  0  0  0  0  0
   41.0270   32.5170   45.1480 H   0  0  0  0  0  0  0  0  0  0  0  0
   34.6550   29.6220   48.8330 C   0  0  0  0  0  0  0  0  0  0  0  0
   34.6180   28.2520   49.0480 C   0  0  0  0  0  0  0  0  0  0  0  0
   33.8740   27.4540   48.1860 C   0  0  0  0  0  0  0  0  0  0  0  0
   33.1960   28.0780   47.1350 N   0  0  0  0  0  0  0  0  0  0  0  0
   33.2540   29.4090   46.9560 C   0  0  0  0  0  0  0  0  0  0  0  0
   33.9860   30.1350   47.8150 N   0  0  0  0  0  0  0  0  0  0  0  0
   35.0280   27.5360   49.7450 H   0  0  0  0  0  0  0  0  0  0  0  0
   33.6910   26.4060   48.1400 H   0  0  0  0  0  0  0  0  0  0  0  0
   31.2360   29.3760   45.6080 C   0  0  2  0  0  3  0  0  0  0  0  0
   32.5370   30.0670   45.8430 C   0  0  2  0  0  3  0  0  0  0  0  0
   33.3240   30.1470   44.6980 O   0  0  0  0  0  0  0  0  0  0  0  0
   32.6960   29.6420   43.5780 C   0  0  0  0  0  2  0  0  0  0  0  0
   31.3360   30.2500   43.3130 C   0  0  2  0  0  3  0  0  0  0  0  0
   30.4450   29.9390   44.4750 C   0  0  2  0  0  3  0  0  0  0  0  0
   30.4660   29.5340   46.7700 O   0  0  0  0  0  0  0  0  0  0  0  0
   30.1720   28.6550   47.1420 H   0  0  0  0  0  0  0  0  0  0  0  0
   30.8340   29.6480   42.1750 O   0  0  0  0  0  0  0  0  0  0  0  0
   29.8780   29.4470   42.3180 H   0  0  0  0  0  0  0  0  0  0  0  0
   29.7410   31.0810   44.8700 O   0  0  0  0  0  0  0  0  0  0  0  0
   29.8060   31.1850   45.8520 H   0  0  0  0  0  0  0  0  0  0  0  0
  1  7  1  1  0  0  0
  1  6  1  0  0  0  0
  2  3  1  0  0  0  0
  2  1  1  0  0  0  0
  2  8  1  0  0  0  0
  3 10  1  6  0  0  0
  3  4  1  0  0  0  0
  4 11  1  0  0  0  0
  4  5  1  0  0  0  0
  5 14  1  0  0  0  0
  5 13  1  0  0  0  0
  6 16  1  0  0  0  0
  6  5  1  0  0  0  0
  9  2  1  0  0  0  0
 12  4  1  0  0  0  0
 15  6  1  0  0  0  0
 17 18  1  0  0  0  0
 18 19  1  0  0  0  0
 19  3  1  0  0  0  0
 19 20  2  0  0  0  0
 20 24  1  0  0  0  0
 21 20  1  0  0  0  0
 21 25  1  0  0  0  0
 22 21  2  0  0  0  0
 23 18  2  0  0  0  0
 23 22  1  0  0  0  0
 26 22  1  0  0  0  0
 27 23  1  0  0  0  0
 28 27  1  0  0  0  0
 29 27  1  0  0  0  0
 30 31  1  0  0  0  0
 30  1  1  0  0  0  0
 31 36  1  0  0  0  0
 32 31  2  0  0  0  0
 33 32  1  0  0  0  0
 34 33  2  0  0  0  0
 34 35  1  0  0  0  0
 35 30  2  0  0  0  0
 37 32  1  0  0  0  0
 38 39  1  0  0  0  0
 38 44  1  1  0  0  0
 39 34  1  1  0  0  0
 40 39  1  0  0  0  0
 41 40  1  0  0  0  0
 42 46  1  6  0  0  0
 42 41  1  0  0  0  0
 42 43  1  0  0  0  0
 43 48  1  1  0  0  0
 43 38  1  0  0  0  0
 44 45  1  0  0  0  0
 46 47  1  0  0  0  0
 48 49  1  0  0  0  0
M  END
>  <minimizedAffinity>
-8.28099632

>  <minimizedRMSD>
3.68739247

$$$$
