
 OpenBabel03272507553D

 26 27  0  0  1  0  0  0  0  0999 V2000
   35.4900   29.0340   50.2920 C   0  0  0  0  0  0  0  0  0  0  0  0
   36.3070   30.0020   49.6500 C   0  0  0  0  0  0  0  0  0  0  0  0
   36.2730   30.0810   48.2660 C   0  0  0  0  0  0  0  0  0  0  0  0
   35.4500   29.2160   47.6000 N   0  0  0  0  0  0  0  0  0  0  0  0
   34.6820   28.3020   48.2510 C   0  0  0  0  0  0  0  0  0  0  0  0
   34.6980   28.2060   49.5900 N   0  0  0  0  0  0  0  0  0  0  0  0
   33.9330   27.5030   47.3630 N   0  0  0  0  0  0  0  0  0  0  0  0
   35.5320   28.9920   51.3730 H   0  0  0  0  0  0  0  0  0  0  0  0
   34.3990   26.5560   47.4930 H   0  0  0  0  0  0  0  0  0  0  0  0
   33.1550   27.7890   46.7650 H   0  0  0  0  0  0  0  0  0  0  0  0
   36.5740   31.5030   46.2230 C   0  0  1  0  0  3  0  0  0  0  0  0
   37.1090   31.0800   47.5510 C   0  0  2  0  0  3  0  0  0  0  0  0
   38.3330   30.4470   47.3020 O   0  0  0  0  0  0  0  0  0  0  0  0
   39.2880   31.3390   46.8570 C   0  0  0  0  0  2  0  0  0  0  0  0
   38.9570   31.6500   45.4230 C   0  0  1  0  0  3  0  0  0  0  0  0
   37.5410   31.1730   45.0730 C   0  0  1  0  0  3  0  0  0  0  0  0
   35.4060   30.7930   45.8800 O   0  0  0  0  0  0  0  0  0  0  0  0
   34.9810   31.2690   45.1080 H   0  0  0  0  0  0  0  0  0  0  0  0
   39.0480   33.0190   45.1970 O   0  0  0  0  0  0  0  0  0  0  0  0
   39.8580   33.3770   45.6320 H   0  0  0  0  0  0  0  0  0  0  0  0
   37.6130   29.7960   44.9480 O   0  0  0  0  0  0  0  0  0  0  0  0
   38.0320   29.5140   44.1090 H   0  0  0  0  0  0  0  0  0  0  0  0
   37.1650   30.8840   50.4800 C   0  0  0  0  0  0  0  0  0  0  0  0
   38.5050   30.7980   50.1240 F   0  0  0  0  0  0  0  0  0  0  0  0
   36.7410   32.1700   50.3300 F   0  0  0  0  0  0  0  0  0  0  0  0
   37.1090   30.5700   51.8270 F   0  0  0  0  0  0  0  0  0  0  0  0
  1  8  1  0  0  0  0
  2  1  1  0  0  0  0
  2 23  1  0  0  0  0
  3  2  2  0  0  0  0
  4  5  2  0  0  0  0
  4  3  1  0  0  0  0
  5  6  1  0  0  0  0
  6  1  2  0  0  0  0
  7  9  1  0  0  0  0
  7  5  1  0  0  0  0
 10  7  1  0  0  0  0
 11 17  1  6  0  0  0
 11 12  1  0  0  0  0
 12  3  1  6  0  0  0
 13 12  1  0  0  0  0
 14 13  1  0  0  0  0
 15 19  1  1  0  0  0
 15 14  1  0  0  0  0
 16 21  1  1  0  0  0
 16 15  1  0  0  0  0
 16 11  1  0  0  0  0
 18 17  1  0  0  0  0
 19 20  1  0  0  0  0
 22 21  1  0  0  0  0
 23 26  1  0  0  0  0
 24 23  1  0  0  0  0
 25 23  1  0  0  0  0
M  END
>  <minimizedAffinity>
-5.17923117

>  <minimizedRMSD>
0.732974946

$$$$
