
 OpenBabel03272506343D

 22 23  0  0  1  0  0  0  0  0999 V2000
   34.2100   30.5150   47.1720 C   0  0  1  0  0  3  0  0  0  0  0  0
   34.4410   29.5760   48.3300 C   0  0  1  0  0  3  0  0  0  0  0  0
   34.5500   28.2490   47.9210 O   0  0  0  0  0  0  0  0  0  0  0  0
   33.5980   28.0430   46.8980 C   0  0  0  0  0  2  0  0  0  0  0  0
   34.3020   28.5210   45.6350 C   0  0  2  0  0  3  0  0  0  0  0  0
   34.7050   29.9440   45.8650 C   0  0  2  0  0  3  0  0  0  0  0  0
   37.3780   29.4270   50.5730 C   0  0  0  0  0  0  0  0  0  0  0  0
   37.9930   30.6800   50.3670 C   0  0  0  0  0  0  0  0  0  0  0  0
   37.3910   31.5520   49.4630 C   0  0  0  0  0  0  0  0  0  0  0  0
   36.2520   31.1580   48.8320 N   0  0  0  0  0  0  0  0  0  0  0  0
   35.6870   29.9400   49.0580 C   0  0  0  0  0  0  0  0  0  0  0  0
   36.2560   29.0950   49.9220 N   0  0  0  0  0  0  0  0  0  0  0  0
   38.8850   31.0350   50.8360 H   0  0  0  0  0  0  0  0  0  0  0  0
   37.7960   32.5330   49.2450 H   0  0  0  0  0  0  0  0  0  0  0  0
   38.0700   28.6580   51.4900 O   0  0  0  0  0  0  0  0  0  0  0  0
   39.0000   28.3540   51.1760 H   0  0  0  0  0  0  0  0  0  0  0  0
   32.9060   30.9100   47.0090 O   0  0  0  0  0  0  0  0  0  0  0  0
   32.5610   31.4710   47.7480 H   0  0  0  0  0  0  0  0  0  0  0  0
   33.5890   28.2880   44.4870 O   0  0  0  0  0  0  0  0  0  0  0  0
   33.2670   29.1060   44.0330 H   0  0  0  0  0  0  0  0  0  0  0  0
   36.1120   30.0470   45.9030 O   0  0  0  0  0  0  0  0  0  0  0  0
   36.4420   30.8170   45.4010 H   0  0  0  0  0  0  0  0  0  0  0  0
  1 17  1  6  0  0  0
  1  2  1  0  0  0  0
  2 11  1  6  0  0  0
  3  2  1  0  0  0  0
  4  3  1  0  0  0  0
  5 19  1  6  0  0  0
  5  6  1  0  0  0  0
  5  4  1  0  0  0  0
  6 21  1  1  0  0  0
  6  1  1  0  0  0  0
  7 15  1  0  0  0  0
  8  7  1  0  0  0  0
  8 13  1  0  0  0  0
  9  8  2  0  0  0  0
 10 11  2  0  0  0  0
 10  9  1  0  0  0  0
 11 12  1  0  0  0  0
 12  7  2  0  0  0  0
 14  9  1  0  0  0  0
 16 15  1  0  0  0  0
 17 18  1  0  0  0  0
 20 19  1  0  0  0  0
 22 21  1  0  0  0  0
M  END
>  <minimizedAffinity>
-4.7141428

>  <minimizedRMSD>
1.51880288

$$$$
