
 OpenBabel03262521513D

 25 26  0  0  1  0  0  0  0  0999 V2000
   35.9270   29.4920   49.7500 C   0  0  0  0  0  0  0  0  0  0  0  0
   35.9530   28.9120   50.7110 H   0  0  0  0  0  0  0  0  0  0  0  0
   36.5580   28.9070   49.0530 H   0  0  0  0  0  0  0  0  0  0  0  0
   34.4170   28.4720   48.1690 C   0  0  2  0  0  3  0  0  0  0  0  0
   34.4820   29.5270   49.2510 C   0  0  1  0  0  3  0  0  0  0  0  0
   33.6950   29.1260   50.3020 O   0  0  0  0  0  0  0  0  0  0  0  0
   32.3690   28.9600   49.9960 C   0  0  0  0  0  2  0  0  0  0  0  0
   32.0970   28.0280   48.8480 C   0  0  2  0  0  3  0  0  0  0  0  0
   33.0070   28.2250   47.6810 C   0  0  2  0  0  3  0  0  0  0  0  0
   34.9430   27.2970   48.7050 O   0  0  0  0  0  0  0  0  0  0  0  0
   34.8810   26.5360   48.0710 H   0  0  0  0  0  0  0  0  0  0  0  0
   30.7860   28.2800   48.4440 O   0  0  0  0  0  0  0  0  0  0  0  0
   30.7680   28.8310   47.6050 H   0  0  0  0  0  0  0  0  0  0  0  0
   33.0530   27.0620   46.8870 O   0  0  0  0  0  0  0  0  0  0  0  0
   33.3700   27.2530   45.9620 H   0  0  0  0  0  0  0  0  0  0  0  0
   36.6280   31.1440   49.9180 S   0  0  0  0  0  0  0  0  0  0  0  0
   37.7170   31.3830   48.5090 C   0  0  0  0  0  0  0  0  0  0  0  0
   38.3830   32.6100   48.5490 C   0  0  0  0  0  0  0  0  0  0  0  0
   39.2710   32.9390   47.5180 C   0  0  0  0  0  0  0  0  0  0  0  0
   39.4300   32.0260   46.5230 N   0  0  0  0  0  0  0  0  0  0  0  0
   38.7630   30.8510   46.5270 C   0  0  0  0  0  0  0  0  0  0  0  0
   37.9100   30.5290   47.5160 N   0  0  0  0  0  0  0  0  0  0  0  0
   38.2800   33.3720   49.3350 H   0  0  0  0  0  0  0  0  0  0  0  0
   39.7880   33.8790   47.5370 H   0  0  0  0  0  0  0  0  0  0  0  0
   38.9500   30.1860   45.6990 H   0  0  0  0  0  0  0  0  0  0  0  0
  1 16  1  0  0  0  0
  1  2  1  0  0  0  0
  3  1  1  0  0  0  0
  4 10  1  1  0  0  0
  4  5  1  0  0  0  0
  5  1  1  1  0  0  0
  5  6  1  0  0  0  0
  7  6  1  0  0  0  0
  8 12  1  6  0  0  0
  8  7  1  0  0  0  0
  9 14  1  6  0  0  0
  9  4  1  0  0  0  0
  9  8  1  0  0  0  0
 11 10  1  0  0  0  0
 13 12  1  0  0  0  0
 15 14  1  0  0  0  0
 17 18  1  0  0  0  0
 17 16  1  0  0  0  0
 18 23  1  0  0  0  0
 19 24  1  0  0  0  0
 19 18  2  0  0  0  0
 20 21  2  0  0  0  0
 20 19  1  0  0  0  0
 21 22  1  0  0  0  0
 22 17  2  0  0  0  0
 25 21  1  0  0  0  0
M  END
>  <minimizedAffinity>
-3.18178487

>  <minimizedRMSD>
2.36480331

$$$$
