
 OpenBabel03272507333D

 39 42  0  0  1  0  0  0  0  0999 V2000
   33.1440   27.3660   48.1150 C   0  0  0  0  0  0  0  0  0  0  0  0
   31.8890   27.3760   48.3430 O   0  0  0  0  0  0  0  0  0  0  0  0
   35.8130   29.0860   49.7610 C   0  0  0  0  0  0  0  0  0  0  0  0
   34.7580   29.5900   50.4920 C   0  0  0  0  0  0  0  0  0  0  0  0
   33.5830   29.0160   49.9800 C   0  0  0  0  0  0  0  0  0  0  0  0
   34.0060   28.1930   48.9610 C   0  0  0  0  0  0  0  0  0  0  0  0
   35.3160   28.2650   48.8680 O   0  0  0  0  0  0  0  0  0  0  0  0
   34.7820   30.2990   51.3190 H   0  0  0  0  0  0  0  0  0  0  0  0
   32.5750   29.1620   50.2830 H   0  0  0  0  0  0  0  0  0  0  0  0
   37.1900   29.4690   50.0260 C   0  0  0  0  0  0  0  0  0  0  0  0
   37.8180   28.8910   50.9260 O   0  0  0  0  0  0  0  0  0  0  0  0
   37.7440   30.5140   49.2120 C   0  0  0  0  0  0  0  0  0  0  0  0
   38.0900   31.6960   49.8510 C   0  0  0  0  0  0  0  0  0  0  0  0
   38.6300   32.7360   49.0840 C   0  0  0  0  0  0  0  0  0  0  0  0
   38.7870   32.5250   47.7360 N   0  0  0  0  0  0  0  0  0  0  0  0
   38.4440   31.3770   47.1560 C   0  0  0  0  0  0  0  0  0  0  0  0
   37.9250   30.3710   47.8800 N   0  0  0  0  0  0  0  0  0  0  0  0
   37.9610   31.8440   50.8990 H   0  0  0  0  0  0  0  0  0  0  0  0
   38.9150   33.6810   49.5430 H   0  0  0  0  0  0  0  0  0  0  0  0
   38.5800   31.2410   46.0960 H   0  0  0  0  0  0  0  0  0  0  0  0
   33.7290   26.5270   47.0190 C   0  0  1  0  0  0  0  0  0  0  0  0
   33.7470   25.0120   47.4580 C   0  0  0  0  0  0  0  0  0  0  0  0
   32.9200   25.5170   46.3320 C   0  0  2  0  0  0  0  0  0  0  0  0
   34.7960   26.7990   46.7610 H   0  0  0  0  0  0  0  0  0  0  0  0
   33.3340   24.7620   48.4270 H   0  0  0  0  0  0  0  0  0  0  0  0
   34.6150   24.4180   47.1580 H   0  0  0  0  0  0  0  0  0  0  0  0
   31.8240   25.5800   46.5530 H   0  0  0  0  0  0  0  0  0  0  0  0
   34.5780   25.7320   44.5630 C   0  0  1  0  0  3  0  0  0  0  0  0
   33.3050   25.1000   44.9170 C   0  0  1  0  0  3  0  0  0  0  0  0
   33.1830   23.7580   44.8250 O   0  0  0  0  0  0  0  0  0  0  0  0
   34.0140   23.0440   44.0410 C   0  0  0  0  0  2  0  0  0  0  0  0
   34.8110   23.8050   43.0250 C   0  0  2  0  0  3  0  0  0  0  0  0
   35.5540   24.8760   43.8060 C   0  0  2  0  0  3  0  0  0  0  0  0
   34.3790   26.8930   43.8060 O   0  0  0  0  0  0  0  0  0  0  0  0
   35.2640   27.3460   43.7240 H   0  0  0  0  0  0  0  0  0  0  0  0
   33.9820   24.3640   42.0590 O   0  0  0  0  0  0  0  0  0  0  0  0
   34.3400   24.0720   41.1910 H   0  0  0  0  0  0  0  0  0  0  0  0
   36.3840   24.1970   44.7170 O   0  0  0  0  0  0  0  0  0  0  0  0
   36.9320   23.5300   44.2230 H   0  0  0  0  0  0  0  0  0  0  0  0
  1  2  2  0  0  0  0
  1  6  1  0  0  0  0
  3 10  1  0  0  0  0
  3  4  2  0  0  0  0
  4  8  1  0  0  0  0
  5  9  1  0  0  0  0
  5  4  1  0  0  0  0
  6  5  2  0  0  0  0
  7  6  1  0  0  0  0
  7  3  1  0  0  0  0
 10 11  2  0  0  0  0
 12 13  1  0  0  0  0
 12 10  1  0  0  0  0
 13 18  1  0  0  0  0
 14 19  1  0  0  0  0
 14 13  2  0  0  0  0
 15 14  1  0  0  0  0
 16 15  2  0  0  0  0
 16 17  1  0  0  0  0
 17 12  2  0  0  0  0
 20 16  1  0  0  0  0
 21 24  1  6  0  0  0
 21 22  1  0  0  0  0
 21  1  1  0  0  0  0
 22 25  1  0  0  0  0
 23 27  1  1  0  0  0
 23 21  1  0  0  0  0
 23 22  1  0  0  0  0
 26 22  1  0  0  0  0
 28 34  1  6  0  0  0
 28 29  1  0  0  0  0
 29 30  1  1  0  0  0
 29 23  1  0  0  0  0
 31 30  1  0  0  0  0
 32 36  1  6  0  0  0
 32 33  1  0  0  0  0
 32 31  1  0  0  0  0
 33 28  1  0  0  0  0
 33 38  1  1  0  0  0
 35 34  1  0  0  0  0
 37 36  1  0  0  0  0
 39 38  1  0  0  0  0
M  END
>  <minimizedAffinity>
-5.06849241

>  <minimizedRMSD>
0.631655276

$$$$
