
 OpenBabel03272506343D

 22 23  0  0  1  0  0  0  0  0999 V2000
   34.2120   30.5150   47.1720 C   0  0  1  0  0  3  0  0  0  0  0  0
   34.4410   29.5780   48.3310 C   0  0  1  0  0  3  0  0  0  0  0  0
   34.5490   28.2500   47.9240 O   0  0  0  0  0  0  0  0  0  0  0  0
   33.5980   28.0440   46.9000 C   0  0  0  0  0  2  0  0  0  0  0  0
   34.3020   28.5200   45.6360 C   0  0  2  0  0  3  0  0  0  0  0  0
   34.7050   29.9430   45.8650 C   0  0  2  0  0  3  0  0  0  0  0  0
   37.3790   29.4270   50.5730 C   0  0  0  0  0  0  0  0  0  0  0  0
   37.9940   30.6800   50.3670 C   0  0  0  0  0  0  0  0  0  0  0  0
   37.3920   31.5530   49.4630 C   0  0  0  0  0  0  0  0  0  0  0  0
   36.2530   31.1580   48.8320 N   0  0  0  0  0  0  0  0  0  0  0  0
   35.6880   29.9410   49.0580 C   0  0  0  0  0  0  0  0  0  0  0  0
   36.2560   29.0960   49.9220 N   0  0  0  0  0  0  0  0  0  0  0  0
   38.8860   31.0350   50.8360 H   0  0  0  0  0  0  0  0  0  0  0  0
   37.7980   32.5330   49.2450 H   0  0  0  0  0  0  0  0  0  0  0  0
   38.0700   28.6580   51.4890 O   0  0  0  0  0  0  0  0  0  0  0  0
   39.0010   28.3540   51.1750 H   0  0  0  0  0  0  0  0  0  0  0  0
   32.9070   30.9110   47.0090 O   0  0  0  0  0  0  0  0  0  0  0  0
   32.5620   31.4730   47.7480 H   0  0  0  0  0  0  0  0  0  0  0  0
   33.5880   28.2870   44.4890 O   0  0  0  0  0  0  0  0  0  0  0  0
   33.2660   29.1050   44.0350 H   0  0  0  0  0  0  0  0  0  0  0  0
   36.1120   30.0460   45.9030 O   0  0  0  0  0  0  0  0  0  0  0  0
   36.4420   30.8140   45.4010 H   0  0  0  0  0  0  0  0  0  0  0  0
  1 17  1  6  0  0  0
  1  2  1  0  0  0  0
  2 11  1  6  0  0  0
  3  2  1  0  0  0  0
  4  3  1  0  0  0  0
  5 19  1  6  0  0  0
  5  6  1  0  0  0  0
  5  4  1  0  0  0  0
  6 21  1  1  0  0  0
  6  1  1  0  0  0  0
  7 15  1  0  0  0  0
  8  7  1  0  0  0  0
  8 13  1  0  0  0  0
  9  8  2  0  0  0  0
 10 11  2  0  0  0  0
 10  9  1  0  0  0  0
 11 12  1  0  0  0  0
 12  7  2  0  0  0  0
 14  9  1  0  0  0  0
 16 15  1  0  0  0  0
 17 18  1  0  0  0  0
 20 19  1  0  0  0  0
 22 21  1  0  0  0  0
M  END
>  <minimizedAffinity>
-4.71412754

>  <minimizedRMSD>
2.80982471

$$$$
