
 OpenBabel03272507343D

 39 42  0  0  1  0  0  0  0  0999 V2000
   32.9610   27.7650   48.4090 C   0  0  0  0  0  0  0  0  0  0  0  0
   31.7680   27.7180   48.8570 O   0  0  0  0  0  0  0  0  0  0  0  0
   35.8990   29.2540   49.8030 C   0  0  0  0  0  0  0  0  0  0  0  0
   34.9710   29.7470   50.6960 C   0  0  0  0  0  0  0  0  0  0  0  0
   33.7140   29.2600   50.3050 C   0  0  0  0  0  0  0  0  0  0  0  0
   33.9630   28.4950   49.1880 C   0  0  0  0  0  0  0  0  0  0  0  0
   35.2530   28.5200   48.9310 O   0  0  0  0  0  0  0  0  0  0  0  0
   35.1350   30.3940   51.5580 H   0  0  0  0  0  0  0  0  0  0  0  0
   32.7610   29.4230   50.7450 H   0  0  0  0  0  0  0  0  0  0  0  0
   37.3150   29.5630   49.9110 C   0  0  0  0  0  0  0  0  0  0  0  0
   38.0090   28.9460   50.7340 O   0  0  0  0  0  0  0  0  0  0  0  0
   37.8290   30.5820   49.0400 C   0  0  0  0  0  0  0  0  0  0  0  0
   38.1980   31.7850   49.6260 C   0  0  0  0  0  0  0  0  0  0  0  0
   38.7010   32.8010   48.8040 C   0  0  0  0  0  0  0  0  0  0  0  0
   38.7990   32.5480   47.4570 N   0  0  0  0  0  0  0  0  0  0  0  0
   38.4350   31.3810   46.9290 C   0  0  0  0  0  0  0  0  0  0  0  0
   37.9510   30.3970   47.7080 N   0  0  0  0  0  0  0  0  0  0  0  0
   38.1150   31.9650   50.6740 H   0  0  0  0  0  0  0  0  0  0  0  0
   39.0030   33.7610   49.2190 H   0  0  0  0  0  0  0  0  0  0  0  0
   38.5240   31.2120   45.8700 H   0  0  0  0  0  0  0  0  0  0  0  0
   33.3380   27.0890   47.1250 C   0  0  1  0  0  0  0  0  0  0  0  0
   33.7550   25.5940   47.4100 C   0  0  0  0  0  0  0  0  0  0  0  0
   32.5560   25.9600   46.6140 C   0  0  2  0  0  0  0  0  0  0  0  0
   34.2140   27.5710   46.5990 H   0  0  0  0  0  0  0  0  0  0  0  0
   33.6980   25.2410   48.4320 H   0  0  0  0  0  0  0  0  0  0  0  0
   34.5880   25.1910   46.8280 H   0  0  0  0  0  0  0  0  0  0  0  0
   31.5810   25.8010   47.1410 H   0  0  0  0  0  0  0  0  0  0  0  0
   31.3720   24.9100   44.7640 C   0  0  1  0  0  3  0  0  0  0  0  0
   32.5750   25.6670   45.1170 C   0  0  1  0  0  3  0  0  0  0  0  0
   32.8470   26.8200   44.4670 O   0  0  0  0  0  0  0  0  0  0  0  0
   32.3090   27.0700   43.2580 C   0  0  0  0  0  2  0  0  0  0  0  0
   31.7150   25.9060   42.5230 C   0  0  2  0  0  3  0  0  0  0  0  0
   30.7010   25.2950   43.4750 C   0  0  2  0  0  3  0  0  0  0  0  0
   31.6360   23.5360   44.6930 O   0  0  0  0  0  0  0  0  0  0  0  0
   30.7580   23.0720   44.5930 H   0  0  0  0  0  0  0  0  0  0  0  0
   32.6970   24.9870   42.1690 O   0  0  0  0  0  0  0  0  0  0  0  0
   32.5950   24.8380   41.2020 H   0  0  0  0  0  0  0  0  0  0  0  0
   29.7440   26.2940   43.7280 O   0  0  0  0  0  0  0  0  0  0  0  0
   29.4040   26.6440   42.8610 H   0  0  0  0  0  0  0  0  0  0  0  0
  1  2  2  0  0  0  0
  1  6  1  0  0  0  0
  3 10  1  0  0  0  0
  3  4  2  0  0  0  0
  4  8  1  0  0  0  0
  5  4  1  0  0  0  0
  5  9  1  0  0  0  0
  6  5  2  0  0  0  0
  7  6  1  0  0  0  0
  7  3  1  0  0  0  0
 10 11  2  0  0  0  0
 12 13  1  0  0  0  0
 12 10  1  0  0  0  0
 13 18  1  0  0  0  0
 14 19  1  0  0  0  0
 14 13  2  0  0  0  0
 15 14  1  0  0  0  0
 16 15  2  0  0  0  0
 16 17  1  0  0  0  0
 17 12  2  0  0  0  0
 20 16  1  0  0  0  0
 21 24  1  6  0  0  0
 21 22  1  0  0  0  0
 21  1  1  0  0  0  0
 22 25  1  0  0  0  0
 23 21  1  0  0  0  0
 23 27  1  1  0  0  0
 23 22  1  0  0  0  0
 26 22  1  0  0  0  0
 28 34  1  6  0  0  0
 28 29  1  0  0  0  0
 29 30  1  6  0  0  0
 29 23  1  0  0  0  0
 31 30  1  0  0  0  0
 32 36  1  1  0  0  0
 32 31  1  0  0  0  0
 32 33  1  0  0  0  0
 33 38  1  1  0  0  0
 33 28  1  0  0  0  0
 35 34  1  0  0  0  0
 37 36  1  0  0  0  0
 39 38  1  0  0  0  0
M  END
>  <minimizedAffinity>
-4.92208529

>  <minimizedRMSD>
1.15262711

$$$$
