
 OpenBabel03272507333D

 39 42  0  0  1  0  0  0  0  0999 V2000
   33.0810   27.5700   48.2510 C   0  0  0  0  0  0  0  0  0  0  0  0
   31.8610   27.4940   48.6180 O   0  0  0  0  0  0  0  0  0  0  0  0
   35.8700   29.1690   49.8180 C   0  0  0  0  0  0  0  0  0  0  0  0
   34.8670   29.6580   50.6280 C   0  0  0  0  0  0  0  0  0  0  0  0
   33.6540   29.1280   50.1590 C   0  0  0  0  0  0  0  0  0  0  0  0
   34.0040   28.3440   49.0820 C   0  0  0  0  0  0  0  0  0  0  0  0
   35.3090   28.3970   48.9200 O   0  0  0  0  0  0  0  0  0  0  0  0
   34.9510   30.3290   51.4830 H   0  0  0  0  0  0  0  0  0  0  0  0
   32.6680   29.2780   50.5240 H   0  0  0  0  0  0  0  0  0  0  0  0
   37.2670   29.5160   50.0220 C   0  0  0  0  0  0  0  0  0  0  0  0
   37.9230   28.9090   50.8810 O   0  0  0  0  0  0  0  0  0  0  0  0
   37.8050   30.5620   49.1970 C   0  0  0  0  0  0  0  0  0  0  0  0
   38.1470   31.7490   49.8290 C   0  0  0  0  0  0  0  0  0  0  0  0
   38.6730   32.7900   49.0520 C   0  0  0  0  0  0  0  0  0  0  0  0
   38.8200   32.5740   47.7040 N   0  0  0  0  0  0  0  0  0  0  0  0
   38.4800   31.4200   47.1320 C   0  0  0  0  0  0  0  0  0  0  0  0
   37.9750   30.4140   47.8650 N   0  0  0  0  0  0  0  0  0  0  0  0
   38.0270   31.9000   50.8770 H   0  0  0  0  0  0  0  0  0  0  0  0
   38.9550   33.7390   49.5040 H   0  0  0  0  0  0  0  0  0  0  0  0
   38.6070   31.2810   46.0720 H   0  0  0  0  0  0  0  0  0  0  0  0
   33.5650   26.8840   47.0100 C   0  0  1  0  0  0  0  0  0  0  0  0
   33.7920   25.3500   47.3010 C   0  0  0  0  0  0  0  0  0  0  0  0
   32.7570   25.8480   46.3610 C   0  0  2  0  0  0  0  0  0  0  0  0
   34.5480   27.2860   46.6240 H   0  0  0  0  0  0  0  0  0  0  0  0
   33.5600   24.9850   48.2940 H   0  0  0  0  0  0  0  0  0  0  0  0
   34.6550   24.8760   46.8250 H   0  0  0  0  0  0  0  0  0  0  0  0
   31.7060   25.7770   46.7440 H   0  0  0  0  0  0  0  0  0  0  0  0
   31.7630   24.9140   44.3440 C   0  0  1  0  0  3  0  0  0  0  0  0
   32.9540   25.5830   44.8720 C   0  0  1  0  0  3  0  0  0  0  0  0
   33.3820   26.7270   44.2940 O   0  0  0  0  0  0  0  0  0  0  0  0
   33.0250   27.0350   43.0330 C   0  0  0  0  0  2  0  0  0  0  0  0
   32.4610   25.9260   42.1960 C   0  0  2  0  0  3  0  0  0  0  0  0
   31.2940   25.3670   42.9910 C   0  0  2  0  0  3  0  0  0  0  0  0
   31.9460   23.5270   44.2700 O   0  0  0  0  0  0  0  0  0  0  0  0
   31.0620   23.1240   44.0460 H   0  0  0  0  0  0  0  0  0  0  0  0
   33.4200   24.9520   41.9480 O   0  0  0  0  0  0  0  0  0  0  0  0
   33.4380   24.8260   40.9720 H   0  0  0  0  0  0  0  0  0  0  0  0
   30.3770   26.4220   43.1430 O   0  0  0  0  0  0  0  0  0  0  0  0
   30.1770   26.8110   42.2490 H   0  0  0  0  0  0  0  0  0  0  0  0
  1  2  2  0  0  0  0
  1  6  1  0  0  0  0
  3 10  1  0  0  0  0
  3  4  2  0  0  0  0
  4  8  1  0  0  0  0
  5  9  1  0  0  0  0
  5  4  1  0  0  0  0
  6  5  2  0  0  0  0
  7  6  1  0  0  0  0
  7  3  1  0  0  0  0
 10 11  2  0  0  0  0
 12 13  1  0  0  0  0
 12 10  1  0  0  0  0
 13 18  1  0  0  0  0
 14 19  1  0  0  0  0
 14 13  2  0  0  0  0
 15 14  1  0  0  0  0
 16 15  2  0  0  0  0
 16 17  1  0  0  0  0
 17 12  2  0  0  0  0
 20 16  1  0  0  0  0
 21 24  1  6  0  0  0
 21 22  1  0  0  0  0
 21  1  1  0  0  0  0
 22 25  1  0  0  0  0
 23 27  1  1  0  0  0
 23 21  1  0  0  0  0
 23 22  1  0  0  0  0
 26 22  1  0  0  0  0
 28 34  1  6  0  0  0
 28 29  1  0  0  0  0
 29 30  1  6  0  0  0
 29 23  1  0  0  0  0
 31 30  1  0  0  0  0
 32 36  1  1  0  0  0
 32 33  1  0  0  0  0
 32 31  1  0  0  0  0
 33 38  1  1  0  0  0
 33 28  1  0  0  0  0
 35 34  1  0  0  0  0
 37 36  1  0  0  0  0
 39 38  1  0  0  0  0
M  END
>  <minimizedAffinity>
-4.90473127

>  <minimizedRMSD>
0.148225725

$$$$
