
 OpenBabel03272507343D

 39 42  0  0  1  0  0  0  0  0999 V2000
   33.1480   27.5650   48.0340 C   0  0  0  0  0  0  0  0  0  0  0  0
   31.8870   27.6730   48.2000 O   0  0  0  0  0  0  0  0  0  0  0  0
   35.8540   29.1580   49.7470 C   0  0  0  0  0  0  0  0  0  0  0  0
   34.8180   29.5830   50.5520 C   0  0  0  0  0  0  0  0  0  0  0  0
   33.6320   29.0460   50.0260 C   0  0  0  0  0  0  0  0  0  0  0  0
   34.0290   28.3220   48.9250 C   0  0  0  0  0  0  0  0  0  0  0  0
   35.3360   28.4160   48.8000 O   0  0  0  0  0  0  0  0  0  0  0  0
   34.8620   30.2150   51.4390 H   0  0  0  0  0  0  0  0  0  0  0  0
   32.6330   29.1530   50.3720 H   0  0  0  0  0  0  0  0  0  0  0  0
   37.2350   29.5300   50.0040 C   0  0  0  0  0  0  0  0  0  0  0  0
   37.8630   28.9470   50.9000 O   0  0  0  0  0  0  0  0  0  0  0  0
   37.7920   30.5720   49.1870 C   0  0  0  0  0  0  0  0  0  0  0  0
   38.1230   31.7610   49.8200 C   0  0  0  0  0  0  0  0  0  0  0  0
   38.6660   32.7970   49.0510 C   0  0  0  0  0  0  0  0  0  0  0  0
   38.8400   32.5760   47.7060 N   0  0  0  0  0  0  0  0  0  0  0  0
   38.5100   31.4210   47.1320 C   0  0  0  0  0  0  0  0  0  0  0  0
   37.9890   30.4180   47.8590 N   0  0  0  0  0  0  0  0  0  0  0  0
   37.9820   31.9170   50.8660 H   0  0  0  0  0  0  0  0  0  0  0  0
   38.9410   33.7480   49.5040 H   0  0  0  0  0  0  0  0  0  0  0  0
   38.6590   31.2770   46.0760 H   0  0  0  0  0  0  0  0  0  0  0  0
   33.7190   26.6840   46.9650 C   0  0  1  0  0  0  0  0  0  0  0  0
   33.6770   25.1780   47.4330 C   0  0  0  0  0  0  0  0  0  0  0  0
   32.8850   25.6900   46.2850 C   0  0  2  0  0  0  0  0  0  0  0  0
   34.7980   26.9130   46.7170 H   0  0  0  0  0  0  0  0  0  0  0  0
   33.2410   24.9620   48.4000 H   0  0  0  0  0  0  0  0  0  0  0  0
   34.5280   24.5490   47.1590 H   0  0  0  0  0  0  0  0  0  0  0  0
   31.7880   25.7960   46.4870 H   0  0  0  0  0  0  0  0  0  0  0  0
   34.5730   25.8140   44.5350 C   0  0  1  0  0  3  0  0  0  0  0  0
   33.2750   25.2310   44.8850 C   0  0  1  0  0  3  0  0  0  0  0  0
   33.1120   23.8910   44.8200 O   0  0  0  0  0  0  0  0  0  0  0  0
   33.9300   23.1350   44.0620 C   0  0  0  0  0  2  0  0  0  0  0  0
   34.7640   23.8490   43.0420 C   0  0  2  0  0  3  0  0  0  0  0  0
   35.5310   24.9120   43.8110 C   0  0  2  0  0  3  0  0  0  0  0  0
   34.4210   26.9650   43.7500 O   0  0  0  0  0  0  0  0  0  0  0  0
   35.3200   27.3880   43.6710 H   0  0  0  0  0  0  0  0  0  0  0  0
   33.9670   24.4130   42.0520 O   0  0  0  0  0  0  0  0  0  0  0  0
   34.3260   24.0910   41.1950 H   0  0  0  0  0  0  0  0  0  0  0  0
   36.3260   24.2270   44.7470 O   0  0  0  0  0  0  0  0  0  0  0  0
   36.8590   23.5330   44.2740 H   0  0  0  0  0  0  0  0  0  0  0  0
  1  2  2  0  0  0  0
  1  6  1  0  0  0  0
  3 10  1  0  0  0  0
  3  4  2  0  0  0  0
  4  8  1  0  0  0  0
  5  9  1  0  0  0  0
  5  4  1  0  0  0  0
  6  5  2  0  0  0  0
  7  6  1  0  0  0  0
  7  3  1  0  0  0  0
 10 11  2  0  0  0  0
 12 13  1  0  0  0  0
 12 10  1  0  0  0  0
 13 18  1  0  0  0  0
 14 19  1  0  0  0  0
 14 13  2  0  0  0  0
 15 14  1  0  0  0  0
 16 15  2  0  0  0  0
 16 17  1  0  0  0  0
 17 12  2  0  0  0  0
 20 16  1  0  0  0  0
 21 24  1  6  0  0  0
 21 22  1  0  0  0  0
 21  1  1  0  0  0  0
 22 25  1  0  0  0  0
 23 27  1  1  0  0  0
 23 21  1  0  0  0  0
 23 22  1  0  0  0  0
 26 22  1  0  0  0  0
 28 34  1  6  0  0  0
 28 29  1  0  0  0  0
 29 30  1  1  0  0  0
 29 23  1  0  0  0  0
 31 30  1  0  0  0  0
 32 36  1  6  0  0  0
 32 33  1  0  0  0  0
 32 31  1  0  0  0  0
 33 28  1  0  0  0  0
 33 38  1  1  0  0  0
 35 34  1  0  0  0  0
 37 36  1  0  0  0  0
 39 38  1  0  0  0  0
M  END
>  <minimizedAffinity>
-5.0785141

>  <minimizedRMSD>
0.824082911

$$$$
