
 OpenBabel03262521193D

 32 33  0  0  1  0  0  0  0  0999 V2000
   38.4250   32.2940   46.6060 C   0  0  0  0  0  0  0  0  0  0  0  0
   39.7670   32.5980   46.7440 C   0  0  0  0  0  0  0  0  0  0  0  0
   40.5290   32.9510   45.6160 C   0  0  0  0  0  0  0  0  0  0  0  0
   39.8550   32.9660   44.4220 N   0  0  0  0  0  0  0  0  0  0  0  0
   38.5430   32.6630   44.3210 C   0  0  0  0  0  0  0  0  0  0  0  0
   37.8590   32.3370   45.3930 N   0  0  0  0  0  0  0  0  0  0  0  0
   40.3200   32.5940   47.6770 H   0  0  0  0  0  0  0  0  0  0  0  0
   41.5730   33.1930   45.6950 H   0  0  0  0  0  0  0  0  0  0  0  0
   36.3710   32.5080   43.1240 C   0  0  2  0  0  0  0  0  0  0  0  0
   37.8610   32.6960   42.9900 C   0  0  2  0  0  0  0  0  0  0  0  0
   38.4510   31.8560   42.0590 O   0  0  0  0  0  0  0  0  0  0  0  0
   38.2850   30.5150   42.2970 C   0  0  0  0  0  0  0  0  0  0  0  0
   36.9180   30.1010   42.7320 C   0  0  1  0  0  0  0  0  0  0  0  0
   35.8910   31.1970   42.5570 C   0  0  2  0  0  0  0  0  0  0  0  0
   35.6260   33.5430   42.5780 O   0  0  0  0  0  0  0  0  0  0  0  0
   36.2530   34.1250   42.0480 H   0  0  0  0  0  0  0  0  0  0  0  0
   36.4530   28.9820   42.0070 O   0  0  0  0  0  0  0  0  0  0  0  0
   36.0850   29.2390   41.1270 H   0  0  0  0  0  0  0  0  0  0  0  0
   35.6330   31.3340   41.2040 O   0  0  0  0  0  0  0  0  0  0  0  0
   36.4280   31.7100   40.7810 H   0  0  0  0  0  0  0  0  0  0  0  0
   37.8330   31.9710   47.8110 O   0  0  0  0  0  0  0  0  0  0  0  0
   36.9210   30.9320   47.8000 C   0  0  0  0  0  0  0  0  0  0  0  0
   36.7170   30.4950   46.7990 H   0  0  0  0  0  0  0  0  0  0  0  0
   35.9300   31.3450   48.1190 H   0  0  0  0  0  0  0  0  0  0  0  0
   37.5250   30.1150   48.6880 C   0  0  0  0  0  0  0  0  0  0  0  0
   38.3880   29.5230   48.2900 H   0  0  0  0  0  0  0  0  0  0  0  0
   36.8290   29.2710   48.9790 H   0  0  0  0  0  0  0  0  0  0  0  0
   37.9930   30.7290   49.9680 C   0  0  0  0  0  0  0  0  0  0  0  0
   39.1070   30.6700   50.1110 H   0  0  0  0  0  0  0  0  0  0  0  0
   37.7700   31.8340   50.0360 H   0  0  0  0  0  0  0  0  0  0  0  0
   37.2550   29.9740   51.4160 S   0  0  0  0  0  0  0  0  0  0  0  0
   37.1290   28.5870   51.1730 H   0  0  0  0  0  0  0  0  0  0  0  0
  1  2  1  0  0  0  0
  1 21  1  0  0  0  0
  2  7  1  0  0  0  0
  3  8  1  0  0  0  0
  3  2  2  0  0  0  0
  4  3  1  0  0  0  0
  5  4  2  0  0  0  0
  5  6  1  0  0  0  0
  6  1  2  0  0  0  0
  9 15  1  6  0  0  0
 10  9  1  0  0  0  0
 10  5  1  1  0  0  0
 11 12  1  0  0  0  0
 11 10  1  0  0  0  0
 12 13  1  0  0  0  0
 13 17  1  6  0  0  0
 14 19  1  6  0  0  0
 14 13  1  0  0  0  0
 14  9  1  0  0  0  0
 16 15  1  0  0  0  0
 18 17  1  0  0  0  0
 20 19  1  0  0  0  0
 22 21  1  0  0  0  0
 22 24  1  0  0  0  0
 22 25  1  0  0  0  0
 23 22  1  0  0  0  0
 25 27  1  0  0  0  0
 25 28  1  0  0  0  0
 26 25  1  0  0  0  0
 28 30  1  0  0  0  0
 28 29  1  0  0  0  0
 28 31  1  0  0  0  0
 32 31  1  0  0  0  0
M  END
>  <minimizedAffinity>
-4.56343317

>  <minimizedRMSD>
1.74648058

$$$$
