
 OpenBabel03272506343D

 22 23  0  0  1  0  0  0  0  0999 V2000
   33.9050   27.4360   48.2410 C   0  0  1  0  0  3  0  0  0  0  0  0
   34.6040   28.5460   47.4980 C   0  0  1  0  0  3  0  0  0  0  0  0
   33.7100   29.3830   46.8340 O   0  0  0  0  0  0  0  0  0  0  0  0
   32.6930   28.5670   46.2890 C   0  0  0  0  0  2  0  0  0  0  0  0
   31.7120   28.3790   47.4380 C   0  0  2  0  0  3  0  0  0  0  0  0
   32.4750   27.7840   48.5790 C   0  0  2  0  0  3  0  0  0  0  0  0
   36.3100   29.7630   50.5460 C   0  0  0  0  0  0  0  0  0  0  0  0
   36.9020   30.9680   50.1130 C   0  0  0  0  0  0  0  0  0  0  0  0
   36.7070   31.3410   48.7850 C   0  0  0  0  0  0  0  0  0  0  0  0
   35.9630   30.5350   47.9810 N   0  0  0  0  0  0  0  0  0  0  0  0
   35.4060   29.3790   48.4350 C   0  0  0  0  0  0  0  0  0  0  0  0
   35.5860   29.0110   49.7070 N   0  0  0  0  0  0  0  0  0  0  0  0
   37.4940   31.6330   50.7040 H   0  0  0  0  0  0  0  0  0  0  0  0
   37.1260   32.2500   48.3700 H   0  0  0  0  0  0  0  0  0  0  0  0
   36.5760   29.5070   51.8780 O   0  0  0  0  0  0  0  0  0  0  0  0
   37.5630   29.3090   52.0850 H   0  0  0  0  0  0  0  0  0  0  0  0
   33.9180   26.2230   47.6000 O   0  0  0  0  0  0  0  0  0  0  0  0
   34.8210   25.8230   47.5140 H   0  0  0  0  0  0  0  0  0  0  0  0
   30.5680   27.7110   47.0800 O   0  0  0  0  0  0  0  0  0  0  0  0
   30.4740   26.8170   47.4930 H   0  0  0  0  0  0  0  0  0  0  0  0
   32.5400   28.7030   49.6480 O   0  0  0  0  0  0  0  0  0  0  0  0
   32.3750   28.2800   50.5120 H   0  0  0  0  0  0  0  0  0  0  0  0
  1 17  1  6  0  0  0
  1  6  1  0  0  0  0
  2  1  1  0  0  0  0
  2 11  1  1  0  0  0
  3  2  1  0  0  0  0
  4  3  1  0  0  0  0
  4  5  1  0  0  0  0
  5 19  1  6  0  0  0
  5  6  1  0  0  0  0
  6 21  1  1  0  0  0
  7 15  1  0  0  0  0
  8  7  1  0  0  0  0
  8 13  1  0  0  0  0
  9  8  2  0  0  0  0
 10 11  2  0  0  0  0
 10  9  1  0  0  0  0
 11 12  1  0  0  0  0
 12  7  2  0  0  0  0
 14  9  1  0  0  0  0
 15 16  1  0  0  0  0
 18 17  1  0  0  0  0
 19 20  1  0  0  0  0
 21 22  1  0  0  0  0
M  END
>  <minimizedAffinity>
-4.33419228

>  <minimizedRMSD>
2.51356602

$$$$
