
 OpenBabel03272507343D

 39 42  0  0  1  0  0  0  0  0999 V2000
   33.1820   27.5500   47.8000 C   0  0  0  0  0  0  0  0  0  0  0  0
   31.9410   27.8380   47.7410 O   0  0  0  0  0  0  0  0  0  0  0  0
   35.7990   29.1300   49.6570 C   0  0  0  0  0  0  0  0  0  0  0  0
   34.7290   29.5000   50.4450 C   0  0  0  0  0  0  0  0  0  0  0  0
   33.5720   28.9590   49.8620 C   0  0  0  0  0  0  0  0  0  0  0  0
   34.0190   28.2890   48.7460 C   0  0  0  0  0  0  0  0  0  0  0  0
   35.3260   28.4150   48.6650 O   0  0  0  0  0  0  0  0  0  0  0  0
   34.7330   30.0970   51.3570 H   0  0  0  0  0  0  0  0  0  0  0  0
   32.5620   29.0310   50.1810 H   0  0  0  0  0  0  0  0  0  0  0  0
   37.1620   29.5210   49.9710 C   0  0  0  0  0  0  0  0  0  0  0  0
   37.7600   28.9490   50.8940 O   0  0  0  0  0  0  0  0  0  0  0  0
   37.7400   30.5680   49.1740 C   0  0  0  0  0  0  0  0  0  0  0  0
   38.0390   31.7590   49.8190 C   0  0  0  0  0  0  0  0  0  0  0  0
   38.6000   32.8010   49.0700 C   0  0  0  0  0  0  0  0  0  0  0  0
   38.8250   32.5820   47.7330 N   0  0  0  0  0  0  0  0  0  0  0  0
   38.5250   31.4240   47.1460 C   0  0  0  0  0  0  0  0  0  0  0  0
   37.9860   30.4160   47.8540 N   0  0  0  0  0  0  0  0  0  0  0  0
   37.8580   31.9130   50.8590 H   0  0  0  0  0  0  0  0  0  0  0  0
   38.8510   33.7530   49.5330 H   0  0  0  0  0  0  0  0  0  0  0  0
   38.7130   31.2820   46.0960 H   0  0  0  0  0  0  0  0  0  0  0  0
   33.7740   26.4790   46.9330 C   0  0  1  0  0  0  0  0  0  0  0  0
   33.4360   25.0590   47.5310 C   0  0  0  0  0  0  0  0  0  0  0  0
   32.9160   25.5290   46.2210 C   0  0  2  0  0  0  0  0  0  0  0  0
   34.9000   26.5330   46.8520 H   0  0  0  0  0  0  0  0  0  0  0  0
   32.8290   25.0200   48.4260 H   0  0  0  0  0  0  0  0  0  0  0  0
   34.2160   24.2950   47.4670 H   0  0  0  0  0  0  0  0  0  0  0  0
   31.8290   25.8010   46.2230 H   0  0  0  0  0  0  0  0  0  0  0  0
   34.7820   25.3810   44.6630 C   0  0  1  0  0  0  0  0  0  0  0  0
   33.4460   24.8580   44.9580 C   0  0  1  0  0  0  0  0  0  0  0  0
   33.2710   23.5240   45.0850 O   0  0  0  0  0  0  0  0  0  0  0  0
   34.1520   22.6610   44.5460 C   0  0  0  0  0  0  0  0  0  0  0  0
   35.1000   23.2080   43.5220 C   0  0  2  0  0  0  0  0  0  0  0  0
   35.7970   24.3790   44.1940 C   0  0  2  0  0  0  0  0  0  0  0  0
   34.7300   26.3960   43.6980 O   0  0  0  0  0  0  0  0  0  0  0  0
   35.6400   26.8030   43.6500 H   0  0  0  0  0  0  0  0  0  0  0  0
   34.4200   23.6100   42.3780 O   0  0  0  0  0  0  0  0  0  0  0  0
   34.8640   23.1580   41.6240 H   0  0  0  0  0  0  0  0  0  0  0  0
   36.4790   23.8500   45.3040 O   0  0  0  0  0  0  0  0  0  0  0  0
   37.0480   23.0910   45.0040 H   0  0  0  0  0  0  0  0  0  0  0  0
  1  6  1  0  0  0  0
  2  1  2  0  0  0  0
  3 10  1  0  0  0  0
  3  4  2  0  0  0  0
  4  8  1  0  0  0  0
  5  9  1  0  0  0  0
  5  4  1  0  0  0  0
  6  5  2  0  0  0  0
  7  6  1  0  0  0  0
  7  3  1  0  0  0  0
 10 11  2  0  0  0  0
 12 13  1  0  0  0  0
 12 10  1  0  0  0  0
 13 18  1  0  0  0  0
 14 19  1  0  0  0  0
 14 13  2  0  0  0  0
 15 14  1  0  0  0  0
 16 15  2  0  0  0  0
 16 17  1  0  0  0  0
 17 12  2  0  0  0  0
 20 16  1  0  0  0  0
 21 24  1  6  0  0  0
 21 22  1  0  0  0  0
 21  1  1  0  0  0  0
 22 25  1  0  0  0  0
 23 27  1  6  0  0  0
 23 21  1  0  0  0  0
 23 22  1  0  0  0  0
 26 22  1  0  0  0  0
 28 34  1  6  0  0  0
 28 29  1  0  0  0  0
 29 30  1  1  0  0  0
 29 23  1  0  0  0  0
 31 30  1  0  0  0  0
 32 36  1  6  0  0  0
 32 33  1  0  0  0  0
 32 31  1  0  0  0  0
 33 28  1  0  0  0  0
 33 38  1  1  0  0  0
 35 34  1  0  0  0  0
 37 36  1  0  0  0  0
 39 38  1  0  0  0  0
M  END
>  <minimizedAffinity>
-5.08100033

>  <minimizedRMSD>
1.21152258

$$$$
