
 OpenBabel03272503383D

 22 23  0  0  1  0  0  0  0  0999 V2000
   39.7810   26.3770   34.8830 C   0  0  1  0  0  3  0  0  0  0  0  0
   38.9130   25.1450   34.8650 C   0  0  1  0  0  3  0  0  0  0  0  0
   39.4480   24.2790   33.9270 O   0  0  0  0  0  0  0  0  0  0  0  0
   39.3780   24.7230   32.6310 C   0  0  0  0  0  2  0  0  0  0  0  0
   39.1980   26.1870   32.4440 C   0  0  2  0  0  3  0  0  0  0  0  0
   39.7510   27.0310   33.5490 C   0  0  2  0  0  3  0  0  0  0  0  0
   39.6220   22.8150   37.7550 C   0  0  0  0  0  0  0  0  0  0  0  0
   39.7280   23.3890   36.4880 C   0  0  0  0  0  0  0  0  0  0  0  0
   38.8940   24.4520   36.1790 C   0  0  0  0  0  0  0  0  0  0  0  0
   38.0150   24.8860   37.1150 N   0  0  0  0  0  0  0  0  0  0  0  0
   37.9260   24.3080   38.3540 C   0  0  0  0  0  0  0  0  0  0  0  0
   38.7270   23.2910   38.6460 N   0  0  0  0  0  0  0  0  0  0  0  0
   40.3960   23.1040   35.6920 H   0  0  0  0  0  0  0  0  0  0  0  0
   37.2370   24.6430   39.1000 H   0  0  0  0  0  0  0  0  0  0  0  0
   40.5190   21.7600   37.9260 O   0  0  0  0  0  0  0  0  0  0  0  0
   40.3750   21.2350   38.8030 H   0  0  0  0  0  0  0  0  0  0  0  0
   39.2630   27.1980   35.9010 O   0  0  0  0  0  0  0  0  0  0  0  0
   38.7920   27.9920   35.5000 H   0  0  0  0  0  0  0  0  0  0  0  0
   37.8340   26.4600   32.3100 O   0  0  0  0  0  0  0  0  0  0  0  0
   37.7460   27.4640   32.3900 H   0  0  0  0  0  0  0  0  0  0  0  0
   41.0440   27.5080   33.2420 O   0  0  0  0  0  0  0  0  0  0  0  0
   40.9280   28.2320   32.5500 H   0  0  0  0  0  0  0  0  0  0  0  0
  1 17  1  1  0  0  0
  2  1  1  0  0  0  0
  2  9  1  1  0  0  0
  3  2  1  0  0  0  0
  4  3  1  0  0  0  0
  5 19  1  1  0  0  0
  5  4  1  0  0  0  0
  5  6  1  0  0  0  0
  6 21  1  6  0  0  0
  6  1  1  0  0  0  0
  7 15  1  0  0  0  0
  7 12  1  0  0  0  0
  8  7  2  0  0  0  0
  9  8  1  0  0  0  0
  9 10  2  0  0  0  0
 10 11  1  0  0  0  0
 11 12  2  0  0  0  0
 11 14  1  0  0  0  0
 13  8  1  0  0  0  0
 15 16  1  0  0  0  0
 18 17  1  0  0  0  0
 19 20  1  0  0  0  0
 22 21  1  0  0  0  0
M  END
>  <minimizedAffinity>
-5.03305244

$$$$

 OpenBabel03272503383D

 22 23  0  0  1  0  0  0  0  0999 V2000
   39.9940   23.5150   36.1120 C   0  0  1  0  0  3  0  0  0  0  0  0
   38.9740   24.4990   35.5970 C   0  0  1  0  0  3  0  0  0  0  0  0
   38.5080   25.2140   36.6860 O   0  0  0  0  0  0  0  0  0  0  0  0
   37.7920   24.4760   37.5940 C   0  0  0  0  0  2  0  0  0  0  0  0
   38.0020   23.0040   37.5590 C   0  0  2  0  0  3  0  0  0  0  0  0
   39.3480   22.5760   37.0650 C   0  0  2  0  0  3  0  0  0  0  0  0
   41.2300   26.9710   33.8420 C   0  0  0  0  0  0  0  0  0  0  0  0
   40.7790   26.0870   34.8230 C   0  0  0  0  0  0  0  0  0  0  0  0
   39.5590   25.4590   34.6270 C   0  0  0  0  0  0  0  0  0  0  0  0
   38.8590   25.7300   33.4970 N   0  0  0  0  0  0  0  0  0  0  0  0
   39.3200   26.6020   32.5470 C   0  0  0  0  0  0  0  0  0  0  0  0
   40.4890   27.2000   32.7380 N   0  0  0  0  0  0  0  0  0  0  0  0
   41.2730   25.8200   35.7420 H   0  0  0  0  0  0  0  0  0  0  0  0
   38.7760   26.8220   31.6530 H   0  0  0  0  0  0  0  0  0  0  0  0
   42.4670   27.5270   34.1700 O   0  0  0  0  0  0  0  0  0  0  0  0
   42.7650   28.2790   33.5290 H   0  0  0  0  0  0  0  0  0  0  0  0
   40.5080   22.8640   34.9750 O   0  0  0  0  0  0  0  0  0  0  0  0
   40.1660   21.9180   34.9330 H   0  0  0  0  0  0  0  0  0  0  0  0
   37.0220   22.4270   36.7480 O   0  0  0  0  0  0  0  0  0  0  0  0
   37.3210   21.4740   36.5910 H   0  0  0  0  0  0  0  0  0  0  0  0
   40.2380   22.3230   38.1330 O   0  0  0  0  0  0  0  0  0  0  0  0
   39.9500   21.4500   38.5470 H   0  0  0  0  0  0  0  0  0  0  0  0
  1 17  1  6  0  0  0
  1  6  1  0  0  0  0
  2  9  1  6  0  0  0
  2  1  1  0  0  0  0
  2  3  1  0  0  0  0
  3  4  1  0  0  0  0
  5 19  1  6  0  0  0
  5  4  1  0  0  0  0
  6  5  1  0  0  0  0
  6 21  1  1  0  0  0
  7 15  1  0  0  0  0
  7  8  1  0  0  0  0
  8 13  1  0  0  0  0
  9  8  2  0  0  0  0
 10  9  1  0  0  0  0
 11 12  1  0  0  0  0
 11 10  2  0  0  0  0
 12  7  2  0  0  0  0
 14 11  1  0  0  0  0
 16 15  1  0  0  0  0
 18 17  1  0  0  0  0
 20 19  1  0  0  0  0
 21 22  1  0  0  0  0
M  END
>  <minimizedAffinity>
-4.74711609

$$$$

 OpenBabel03272503383D

 22 23  0  0  1  0  0  0  0  0999 V2000
   38.0660   24.3330   33.6650 C   0  0  1  0  0  3  0  0  0  0  0  0
   38.6660   25.1040   34.8150 C   0  0  1  0  0  3  0  0  0  0  0  0
   37.6360   25.7980   35.4250 O   0  0  0  0  0  0  0  0  0  0  0  0
   37.0720   26.7840   34.6540 C   0  0  0  0  0  2  0  0  0  0  0  0
   37.2820   26.6740   33.1860 C   0  0  2  0  0  3  0  0  0  0  0  0
   37.4720   25.2770   32.6840 C   0  0  2  0  0  3  0  0  0  0  0  0
   39.3230   22.9680   37.8620 C   0  0  0  0  0  0  0  0  0  0  0  0
   38.6400   23.8090   36.9830 C   0  0  0  0  0  0  0  0  0  0  0  0
   39.2880   24.2120   35.8260 C   0  0  0  0  0  0  0  0  0  0  0  0
   40.5520   23.7760   35.5990 N   0  0  0  0  0  0  0  0  0  0  0  0
   41.2050   22.9510   36.4760 C   0  0  0  0  0  0  0  0  0  0  0  0
   40.5800   22.5670   37.5820 N   0  0  0  0  0  0  0  0  0  0  0  0
   37.6400   24.1970   37.0900 H   0  0  0  0  0  0  0  0  0  0  0  0
   42.2020   22.6020   36.3070 H   0  0  0  0  0  0  0  0  0  0  0  0
   38.5520   22.6440   38.9790 O   0  0  0  0  0  0  0  0  0  0  0  0
   39.0750   22.1320   39.7070 H   0  0  0  0  0  0  0  0  0  0  0  0
   39.1190   23.5750   33.1200 O   0  0  0  0  0  0  0  0  0  0  0  0
   39.3950   23.9570   32.2310 H   0  0  0  0  0  0  0  0  0  0  0  0
   38.4000   27.4340   32.8330 O   0  0  0  0  0  0  0  0  0  0  0  0
   38.6220   27.1700   31.8820 H   0  0  0  0  0  0  0  0  0  0  0  0
   36.2640   24.7310   32.1960 O   0  0  0  0  0  0  0  0  0  0  0  0
   36.0820   25.1800   31.3120 H   0  0  0  0  0  0  0  0  0  0  0  0
  1 17  1  6  0  0  0
  1  2  1  0  0  0  0
  2  3  1  0  0  0  0
  2  9  1  1  0  0  0
  4  3  1  0  0  0  0
  5 19  1  1  0  0  0
  5  4  1  0  0  0  0
  6 21  1  1  0  0  0
  6  5  1  0  0  0  0
  6  1  1  0  0  0  0
  7 15  1  0  0  0  0
  8 13  1  0  0  0  0
  8  7  2  0  0  0  0
  9  8  1  0  0  0  0
 10  9  2  0  0  0  0
 10 11  1  0  0  0  0
 11 12  2  0  0  0  0
 12  7  1  0  0  0  0
 14 11  1  0  0  0  0
 15 16  1  0  0  0  0
 18 17  1  0  0  0  0
 20 19  1  0  0  0  0
 22 21  1  0  0  0  0
M  END
>  <minimizedAffinity>
-4.74250841

$$$$

 OpenBabel03272503383D

 22 23  0  0  1  0  0  0  0  0999 V2000
   39.0470   22.1250   36.0610 C   0  0  1  0  0  3  0  0  0  0  0  0
   40.1510   22.8530   36.7840 C   0  0  1  0  0  3  0  0  0  0  0  0
   39.8720   22.7820   38.1370 O   0  0  0  0  0  0  0  0  0  0  0  0
   38.7470   23.4650   38.5280 C   0  0  0  0  0  2  0  0  0  0  0  0
   37.7560   23.7670   37.4610 C   0  0  2  0  0  3  0  0  0  0  0  0
   37.7480   22.7970   36.3220 C   0  0  2  0  0  3  0  0  0  0  0  0
   43.1680   20.5800   36.8870 C   0  0  0  0  0  0  0  0  0  0  0  0
   41.8970   21.0720   37.1840 C   0  0  0  0  0  0  0  0  0  0  0  0
   41.4800   22.2330   36.5510 C   0  0  0  0  0  0  0  0  0  0  0  0
   42.3210   22.8380   35.6760 N   0  0  0  0  0  0  0  0  0  0  0  0
   43.5660   22.3380   35.3990 C   0  0  0  0  0  0  0  0  0  0  0  0
   43.9600   21.2260   36.0060 N   0  0  0  0  0  0  0  0  0  0  0  0
   41.1730   20.6530   37.8630 H   0  0  0  0  0  0  0  0  0  0  0  0
   44.2370   22.8070   34.7110 H   0  0  0  0  0  0  0  0  0  0  0  0
   43.4530   19.4100   37.5930 O   0  0  0  0  0  0  0  0  0  0  0  0
   44.4310   19.0960   37.4930 H   0  0  0  0  0  0  0  0  0  0  0  0
   39.4020   22.1410   34.7000 O   0  0  0  0  0  0  0  0  0  0  0  0
   38.8060   22.7760   34.1940 H   0  0  0  0  0  0  0  0  0  0  0  0
   38.0100   25.0460   36.9600 O   0  0  0  0  0  0  0  0  0  0  0  0
   37.4570   25.1260   36.1170 H   0  0  0  0  0  0  0  0  0  0  0  0
   36.7470   21.8140   36.4830 O   0  0  0  0  0  0  0  0  0  0  0  0
   35.8650   22.2670   36.2960 H   0  0  0  0  0  0  0  0  0  0  0  0
  1 17  1  6  0  0  0
  1  6  1  0  0  0  0
  1  2  1  0  0  0  0
  2  9  1  1  0  0  0
  2  3  1  0  0  0  0
  3  4  1  0  0  0  0
  5 19  1  6  0  0  0
  5  4  1  0  0  0  0
  6 21  1  1  0  0  0
  6  5  1  0  0  0  0
  7  8  1  0  0  0  0
  7 15  1  0  0  0  0
  8 13  1  0  0  0  0
  9  8  2  0  0  0  0
 10  9  1  0  0  0  0
 11 10  2  0  0  0  0
 11 12  1  0  0  0  0
 12  7  2  0  0  0  0
 14 11  1  0  0  0  0
 16 15  1  0  0  0  0
 18 17  1  0  0  0  0
 20 19  1  0  0  0  0
 22 21  1  0  0  0  0
M  END
>  <minimizedAffinity>
-4.68087482

$$$$

 OpenBabel03272503383D

 22 23  0  0  1  0  0  0  0  0999 V2000
   39.7280   26.1780   34.1920 C   0  0  1  0  0  3  0  0  0  0  0  0
   38.6930   25.3140   34.8680 C   0  0  1  0  0  3  0  0  0  0  0  0
   38.0380   24.6050   33.8760 O   0  0  0  0  0  0  0  0  0  0  0  0
   37.2870   25.3730   33.0220 C   0  0  0  0  0  2  0  0  0  0  0  0
   37.6310   26.8190   32.9610 C   0  0  2  0  0  3  0  0  0  0  0  0
   39.0590   27.1360   33.2750 C   0  0  2  0  0  3  0  0  0  0  0  0
   39.3500   23.0070   37.7880 C   0  0  0  0  0  0  0  0  0  0  0  0
   38.6830   23.9280   36.9800 C   0  0  0  0  0  0  0  0  0  0  0  0
   39.3010   24.3400   35.8100 C   0  0  0  0  0  0  0  0  0  0  0  0
   40.5220   23.8350   35.5030 N   0  0  0  0  0  0  0  0  0  0  0  0
   41.1600   22.9320   36.3110 C   0  0  0  0  0  0  0  0  0  0  0  0
   40.5630   22.5400   37.4300 N   0  0  0  0  0  0  0  0  0  0  0  0
   37.7170   24.3740   37.1520 H   0  0  0  0  0  0  0  0  0  0  0  0
   42.1220   22.5270   36.0790 H   0  0  0  0  0  0  0  0  0  0  0  0
   38.6120   22.6840   38.9280 O   0  0  0  0  0  0  0  0  0  0  0  0
   39.1340   22.1070   39.6070 H   0  0  0  0  0  0  0  0  0  0  0  0
   40.4300   26.8200   35.2290 O   0  0  0  0  0  0  0  0  0  0  0  0
   40.1810   27.7950   35.2630 H   0  0  0  0  0  0  0  0  0  0  0  0
   36.8100   27.5160   33.8510 O   0  0  0  0  0  0  0  0  0  0  0  0
   37.2090   28.4420   33.9260 H   0  0  0  0  0  0  0  0  0  0  0  0
   39.8340   27.2640   32.1010 O   0  0  0  0  0  0  0  0  0  0  0  0
   39.5780   28.1440   31.6810 H   0  0  0  0  0  0  0  0  0  0  0  0
  1  2  1  0  0  0  0
  1 17  1  1  0  0  0
  2  9  1  1  0  0  0
  3  2  1  0  0  0  0
  4  3  1  0  0  0  0
  5  4  1  0  0  0  0
  5  6  1  0  0  0  0
  5 19  1  1  0  0  0
  6 21  1  6  0  0  0
  6  1  1  0  0  0  0
  7 15  1  0  0  0  0
  8 13  1  0  0  0  0
  8  7  2  0  0  0  0
  9  8  1  0  0  0  0
 10  9  2  0  0  0  0
 10 11  1  0  0  0  0
 11 12  2  0  0  0  0
 12  7  1  0  0  0  0
 14 11  1  0  0  0  0
 15 16  1  0  0  0  0
 17 18  1  0  0  0  0
 19 20  1  0  0  0  0
 22 21  1  0  0  0  0
M  END
>  <minimizedAffinity>
-4.67243719

$$$$

 OpenBabel03272503383D

 22 23  0  0  1  0  0  0  0  0999 V2000
   38.1150   25.0250   33.8460 C   0  0  1  0  0  3  0  0  0  0  0  0
   39.3820   25.0120   34.6640 C   0  0  1  0  0  3  0  0  0  0  0  0
   39.7300   26.3300   34.9030 O   0  0  0  0  0  0  0  0  0  0  0  0
   40.0930   27.0390   33.7850 C   0  0  0  0  0  2  0  0  0  0  0  0
   39.6300   26.4950   32.4800 C   0  0  2  0  0  3  0  0  0  0  0  0
   38.3630   25.7010   32.5470 C   0  0  2  0  0  3  0  0  0  0  0  0
   39.7330   22.7310   37.6570 C   0  0  0  0  0  0  0  0  0  0  0  0
   39.9980   23.2900   36.4060 C   0  0  0  0  0  0  0  0  0  0  0  0
   39.1990   24.3360   35.9740 C   0  0  0  0  0  0  0  0  0  0  0  0
   38.1980   24.7700   36.7800 N   0  0  0  0  0  0  0  0  0  0  0  0
   37.9550   24.2070   38.0050 C   0  0  0  0  0  0  0  0  0  0  0  0
   38.7240   23.2060   38.4150 N   0  0  0  0  0  0  0  0  0  0  0  0
   40.7690   23.0040   35.7100 H   0  0  0  0  0  0  0  0  0  0  0  0
   37.1690   24.5410   38.6480 H   0  0  0  0  0  0  0  0  0  0  0  0
   40.6140   21.6920   37.9600 O   0  0  0  0  0  0  0  0  0  0  0  0
   40.3620   21.1760   38.8180 H   0  0  0  0  0  0  0  0  0  0  0  0
   37.7420   23.6770   33.6930 O   0  0  0  0  0  0  0  0  0  0  0  0
   37.9070   23.3780   32.7460 H   0  0  0  0  0  0  0  0  0  0  0  0
   40.6380   25.6880   31.9450 O   0  0  0  0  0  0  0  0  0  0  0  0
   40.2110   25.1870   31.1780 H   0  0  0  0  0  0  0  0  0  0  0  0
   37.2380   26.4890   32.2170 O   0  0  0  0  0  0  0  0  0  0  0  0
   37.2690   26.6310   31.2200 H   0  0  0  0  0  0  0  0  0  0  0  0
  1 17  1  6  0  0  0
  1  2  1  0  0  0  0
  2  3  1  0  0  0  0
  2  9  1  1  0  0  0
  4  3  1  0  0  0  0
  5 19  1  1  0  0  0
  5  6  1  0  0  0  0
  5  4  1  0  0  0  0
  6 21  1  1  0  0  0
  6  1  1  0  0  0  0
  7 15  1  0  0  0  0
  7 12  1  0  0  0  0
  8  7  2  0  0  0  0
  9  8  1  0  0  0  0
  9 10  2  0  0  0  0
 10 11  1  0  0  0  0
 11 12  2  0  0  0  0
 11 14  1  0  0  0  0
 13  8  1  0  0  0  0
 15 16  1  0  0  0  0
 18 17  1  0  0  0  0
 20 19  1  0  0  0  0
 22 21  1  0  0  0  0
M  END
>  <minimizedAffinity>
-4.66150618

$$$$

 OpenBabel03272503383D

 22 23  0  0  1  0  0  0  0  0999 V2000
   40.1880   22.8140   37.6630 C   0  0  1  0  0  3  0  0  0  0  0  0
   40.0050   22.9000   36.1690 C   0  0  1  0  0  3  0  0  0  0  0  0
   39.5110   24.1620   35.8880 O   0  0  0  0  0  0  0  0  0  0  0  0
   38.2480   24.4030   36.3670 C   0  0  0  0  0  2  0  0  0  0  0  0
   37.7840   23.5260   37.4750 C   0  0  2  0  0  3  0  0  0  0  0  0
   38.8760   22.9800   38.3400 C   0  0  2  0  0  3  0  0  0  0  0  0
   43.3150   23.5010   34.4480 C   0  0  0  0  0  0  0  0  0  0  0  0
   42.1390   23.7810   35.1430 C   0  0  0  0  0  0  0  0  0  0  0  0
   41.2840   22.7290   35.4350 C   0  0  0  0  0  0  0  0  0  0  0  0
   41.6260   21.4800   35.0330 N   0  0  0  0  0  0  0  0  0  0  0  0
   42.7860   21.2270   34.3510 C   0  0  0  0  0  0  0  0  0  0  0  0
   43.6020   22.2370   34.0740 N   0  0  0  0  0  0  0  0  0  0  0  0
   41.7970   24.7410   35.4950 H   0  0  0  0  0  0  0  0  0  0  0  0
   43.0660   20.2460   34.0290 H   0  0  0  0  0  0  0  0  0  0  0  0
   44.0750   24.6500   34.2260 O   0  0  0  0  0  0  0  0  0  0  0  0
   44.8840   24.4960   33.6030 H   0  0  0  0  0  0  0  0  0  0  0  0
   40.7690   21.5560   37.9070 O   0  0  0  0  0  0  0  0  0  0  0  0
   40.0940   20.9400   38.3300 H   0  0  0  0  0  0  0  0  0  0  0  0
   37.0640   22.4580   36.9320 O   0  0  0  0  0  0  0  0  0  0  0  0
   36.9480   21.7940   37.6860 H   0  0  0  0  0  0  0  0  0  0  0  0
   39.0560   23.7590   39.5040 O   0  0  0  0  0  0  0  0  0  0  0  0
   38.2750   23.5570   40.1090 H   0  0  0  0  0  0  0  0  0  0  0  0
  1 17  1  6  0  0  0
  1  6  1  0  0  0  0
  2  9  1  6  0  0  0
  2  1  1  0  0  0  0
  3  2  1  0  0  0  0
  3  4  1  0  0  0  0
  4  5  1  0  0  0  0
  5 19  1  6  0  0  0
  5  6  1  0  0  0  0
  6 21  1  1  0  0  0
  7  8  1  0  0  0  0
  8  9  2  0  0  0  0
  8 13  1  0  0  0  0
 10  9  1  0  0  0  0
 11 10  2  0  0  0  0
 12 11  1  0  0  0  0
 12  7  2  0  0  0  0
 14 11  1  0  0  0  0
 15  7  1  0  0  0  0
 16 15  1  0  0  0  0
 17 18  1  0  0  0  0
 19 20  1  0  0  0  0
 21 22  1  0  0  0  0
M  END
>  <minimizedAffinity>
-4.55784512

$$$$

 OpenBabel03272503383D

 22 23  0  0  1  0  0  0  0  0999 V2000
   38.3510   23.9310   33.4830 C   0  0  1  0  0  3  0  0  0  0  0  0
   37.8420   22.8170   34.3640 C   0  0  1  0  0  3  0  0  0  0  0  0
   38.3080   21.6280   33.8320 O   0  0  0  0  0  0  0  0  0  0  0  0
   37.7910   21.3070   32.6020 C   0  0  0  0  0  2  0  0  0  0  0  0
   37.2110   22.4300   31.8180 C   0  0  2  0  0  3  0  0  0  0  0  0
   37.8080   23.7700   32.1090 C   0  0  2  0  0  3  0  0  0  0  0  0
   39.7930   22.3810   37.5710 C   0  0  0  0  0  0  0  0  0  0  0  0
   39.4100   22.1920   36.2420 C   0  0  0  0  0  0  0  0  0  0  0  0
   38.3420   22.9300   35.7580 C   0  0  0  0  0  0  0  0  0  0  0  0
   37.7180   23.8000   36.5900 N   0  0  0  0  0  0  0  0  0  0  0  0
   38.1100   23.9710   37.8910 C   0  0  0  0  0  0  0  0  0  0  0  0
   39.1340   23.2620   38.3510 N   0  0  0  0  0  0  0  0  0  0  0  0
   39.8520   21.5240   35.5210 H   0  0  0  0  0  0  0  0  0  0  0  0
   37.6240   24.6530   38.5560 H   0  0  0  0  0  0  0  0  0  0  0  0
   40.8780   21.5760   37.9200 O   0  0  0  0  0  0  0  0  0  0  0  0
   41.1010   21.5990   38.9280 H   0  0  0  0  0  0  0  0  0  0  0  0
   37.9320   25.1260   34.0950 O   0  0  0  0  0  0  0  0  0  0  0  0
   37.1900   25.5480   33.5610 H   0  0  0  0  0  0  0  0  0  0  0  0
   35.8360   22.4880   32.0630 O   0  0  0  0  0  0  0  0  0  0  0  0
   35.5260   23.3710   31.6800 H   0  0  0  0  0  0  0  0  0  0  0  0
   38.8150   24.1050   31.1770 O   0  0  0  0  0  0  0  0  0  0  0  0
   38.3450   24.3390   30.3160 H   0  0  0  0  0  0  0  0  0  0  0  0
  1 17  1  1  0  0  0
  1  2  1  0  0  0  0
  2  9  1  1  0  0  0
  3  2  1  0  0  0  0
  4  3  1  0  0  0  0
  5 19  1  1  0  0  0
  5  6  1  0  0  0  0
  5  4  1  0  0  0  0
  6 21  1  6  0  0  0
  6  1  1  0  0  0  0
  7 15  1  0  0  0  0
  7 12  1  0  0  0  0
  8  7  2  0  0  0  0
  9  8  1  0  0  0  0
  9 10  2  0  0  0  0
 10 11  1  0  0  0  0
 11 12  2  0  0  0  0
 11 14  1  0  0  0  0
 13  8  1  0  0  0  0
 15 16  1  0  0  0  0
 18 17  1  0  0  0  0
 20 19  1  0  0  0  0
 22 21  1  0  0  0  0
M  END
>  <minimizedAffinity>
-4.431036

$$$$

 OpenBabel03272503383D

 22 23  0  0  1  0  0  0  0  0999 V2000
   36.1550   29.4720   31.3110 C   0  0  1  0  0  3  0  0  0  0  0  0
   35.4460   28.7180   32.4080 C   0  0  1  0  0  3  0  0  0  0  0  0
   36.3860   27.9120   33.0250 O   0  0  0  0  0  0  0  0  0  0  0  0
   36.8870   26.9070   32.2360 C   0  0  0  0  0  2  0  0  0  0  0  0
   36.7430   27.0880   30.7670 C   0  0  2  0  0  3  0  0  0  0  0  0
   36.6980   28.5140   30.3140 C   0  0  2  0  0  3  0  0  0  0  0  0
   34.9630   31.0070   35.3760 C   0  0  0  0  0  0  0  0  0  0  0  0
   35.6110   30.1650   34.4720 C   0  0  0  0  0  0  0  0  0  0  0  0
   34.8700   29.6260   33.4320 C   0  0  0  0  0  0  0  0  0  0  0  0
   33.5530   29.9370   33.3390 N   0  0  0  0  0  0  0  0  0  0  0  0
   32.9350   30.7660   34.2380 C   0  0  0  0  0  0  0  0  0  0  0  0
   33.6500   31.2800   35.2310 N   0  0  0  0  0  0  0  0  0  0  0  0
   36.6480   29.8710   34.4770 H   0  0  0  0  0  0  0  0  0  0  0  0
   31.8980   31.0170   34.1740 H   0  0  0  0  0  0  0  0  0  0  0  0
   35.8280   31.4750   36.3650 O   0  0  0  0  0  0  0  0  0  0  0  0
   35.3510   31.9940   37.1190 H   0  0  0  0  0  0  0  0  0  0  0  0
   35.1960   30.3420   30.7610 O   0  0  0  0  0  0  0  0  0  0  0  0
   34.9200   30.0190   29.8480 H   0  0  0  0  0  0  0  0  0  0  0  0
   35.5750   26.4470   30.3460 O   0  0  0  0  0  0  0  0  0  0  0  0
   35.4130   26.7640   29.4000 H   0  0  0  0  0  0  0  0  0  0  0  0
   37.9680   28.9640   29.8890 O   0  0  0  0  0  0  0  0  0  0  0  0
   38.1420   28.5330   28.9950 H   0  0  0  0  0  0  0  0  0  0  0  0
  1 17  1  6  0  0  0
  1  2  1  0  0  0  0
  2  3  1  0  0  0  0
  2  9  1  1  0  0  0
  4  3  1  0  0  0  0
  5 19  1  1  0  0  0
  5  4  1  0  0  0  0
  6 21  1  1  0  0  0
  6  5  1  0  0  0  0
  6  1  1  0  0  0  0
  7 15  1  0  0  0  0
  8 13  1  0  0  0  0
  8  7  2  0  0  0  0
  9  8  1  0  0  0  0
 10  9  2  0  0  0  0
 10 11  1  0  0  0  0
 11 12  2  0  0  0  0
 12  7  1  0  0  0  0
 14 11  1  0  0  0  0
 15 16  1  0  0  0  0
 18 17  1  0  0  0  0
 20 19  1  0  0  0  0
 22 21  1  0  0  0  0
M  END
>  <minimizedAffinity>
-4.38329029

$$$$
