
 OpenBabel03272509083D

 43 46  0  0  1  0  0  0  0  0999 V2000
   33.3570   26.9140   47.3660 C   0  0  0  0  0  0  0  0  0  0  0  0
   33.5270   25.5430   47.5430 C   0  0  0  0  0  0  0  0  0  0  0  0
   33.9070   24.7290   46.4970 C   0  0  0  0  0  0  0  0  0  0  0  0
   34.1320   25.2390   45.2340 C   0  0  0  0  0  0  0  0  0  0  0  0
   33.9690   26.5720   45.0560 C   0  0  0  0  0  0  0  0  0  0  0  0
   33.5890   27.4180   46.0840 C   0  0  0  0  0  0  0  0  0  0  0  0
   33.3320   25.2220   48.5560 H   0  0  0  0  0  0  0  0  0  0  0  0
   34.0040   23.6870   46.7650 H   0  0  0  0  0  0  0  0  0  0  0  0
   34.4270   24.5710   44.4440 H   0  0  0  0  0  0  0  0  0  0  0  0
   34.1550   26.9470   44.0480 H   0  0  0  0  0  0  0  0  0  0  0  0
   32.0280   29.3170   45.6230 C   0  0  1  0  0  3  0  0  0  0  0  0
   33.4470   28.8580   45.7440 C   0  0  2  0  0  3  0  0  0  0  0  0
   34.0520   29.0920   44.5000 O   0  0  0  0  0  0  0  0  0  0  0  0
   34.1860   30.4600   44.2820 C   0  0  0  0  0  2  0  0  0  0  0  0
   32.8350   31.1090   44.1920 C   0  0  1  0  0  3  0  0  0  0  0  0
   32.0840   30.8310   45.4730 C   0  0  2  0  0  3  0  0  0  0  0  0
   31.4240   28.7950   44.4830 O   0  0  0  0  0  0  0  0  0  0  0  0
   32.0190   28.6670   43.7230 H   0  0  0  0  0  0  0  0  0  0  0  0
   32.9630   32.4520   43.9090 O   0  0  0  0  0  0  0  0  0  0  0  0
   32.2810   33.0390   44.3010 H   0  0  0  0  0  0  0  0  0  0  0  0
   32.7530   31.3310   46.5820 O   0  0  0  0  0  0  0  0  0  0  0  0
   32.4700   32.2510   46.8250 H   0  0  0  0  0  0  0  0  0  0  0  0
   32.9530   27.8430   48.4440 C   0  0  0  0  0  0  0  0  0  0  0  0
   32.0930   28.4820   48.1900 H   0  0  0  0  0  0  0  0  0  0  0  0
   32.5700   27.1780   49.2720 H   0  0  0  0  0  0  0  0  0  0  0  0
   35.2650   28.2090   49.2990 C   0  0  0  0  0  3  0  0  0  0  0  0
   34.0700   28.6410   48.9800 C   0  0  0  0  0  3  0  0  0  0  0  0
   37.3810   30.1850   51.5290 C   0  0  0  0  0  0  0  0  0  0  0  0
   38.0720   31.0000   50.6090 C   0  0  0  0  0  0  0  0  0  0  0  0
   37.7950   30.8500   49.2430 C   0  0  0  0  0  0  0  0  0  0  0  0
   36.8590   29.9140   48.8650 N   0  0  0  0  0  0  0  0  0  0  0  0
   36.2310   29.1620   49.8140 C   0  0  0  0  0  0  0  0  0  0  0  0
   36.4870   29.2970   51.1070 N   0  0  0  0  0  0  0  0  0  0  0  0
   37.5870   30.2930   52.5720 H   0  0  0  0  0  0  0  0  0  0  0  0
   38.8050   31.7330   50.9050 H   0  0  0  0  0  0  0  0  0  0  0  0
   38.4530   31.6420   48.2030 C   0  0  0  0  0  0  0  0  0  0  0  0
   38.7350   31.1420   46.9550 C   0  0  0  0  0  0  0  0  0  0  0  0
   39.3570   32.1540   46.2270 C   0  0  0  0  0  0  0  0  0  0  0  0
   39.4260   33.2240   47.0600 N   0  0  0  0  0  0  0  0  0  0  0  0
   38.8860   32.9110   48.2310 N   0  0  0  0  0  0  0  0  0  0  0  0
   38.5330   30.1640   46.5740 H   0  0  0  0  0  0  0  0  0  0  0  0
   39.7240   32.1380   45.2090 H   0  0  0  0  0  0  0  0  0  0  0  0
   39.8290   34.1860   46.8790 H   0  0  0  0  0  0  0  0  0  0  0  0
  1  2  1  0  0  0  0
  1 23  1  0  0  0  0
  2  7  1  0  0  0  0
  3  8  1  0  0  0  0
  3  2  2  0  0  0  0
  4  3  1  0  0  0  0
  5  4  2  0  0  0  0
  5  6  1  0  0  0  0
  6  1  2  0  0  0  0
  9  4  1  0  0  0  0
 10  5  1  0  0  0  0
 11 17  1  6  0  0  0
 11 12  1  0  0  0  0
 12  6  1  6  0  0  0
 13 12  1  0  0  0  0
 14 13  1  0  0  0  0
 15 19  1  1  0  0  0
 15 14  1  0  0  0  0
 15 16  1  0  0  0  0
 16 11  1  0  0  0  0
 16 21  1  1  0  0  0
 18 17  1  0  0  0  0
 19 20  1  0  0  0  0
 21 22  1  0  0  0  0
 23 27  1  0  0  0  0
 23 25  1  0  0  0  0
 24 23  1  0  0  0  0
 26 32  1  0  0  0  0
 27 26  2  0  0  0  0
 28 34  1  0  0  0  0
 29 35  1  0  0  0  0
 29 28  2  0  0  0  0
 30 29  1  0  0  0  0
 31 30  2  0  0  0  0
 31 32  1  0  0  0  0
 32 33  2  0  0  0  0
 33 28  1  0  0  0  0
 36 40  2  0  0  0  0
 36 30  1  0  0  0  0
 37 36  1  0  0  0  0
 38 37  2  0  0  0  0
 38 39  1  0  0  0  0
 39 40  1  0  0  0  0
 41 37  1  0  0  0  0
 42 38  1  0  0  0  0
 43 39  1  0  0  0  0
M  END
>  <minimizedAffinity>
-7.25965643

>  <minimizedRMSD>
1.21933413

$$$$
