
 OpenBabel03272500083D

 42 45  0  0  1  0  0  0  0  0999 V2000
   30.9600   27.4730   48.3200 C   0  0  0  0  0  0  0  0  0  0  0  0
   30.7290   27.7870   49.6390 C   0  0  0  0  0  0  0  0  0  0  0  0
   29.4900   28.2200   50.0630 C   0  0  0  0  0  0  0  0  0  0  0  0
   28.4600   28.3360   49.1200 C   0  0  0  0  0  0  0  0  0  0  0  0
   28.7030   28.0160   47.7870 C   0  0  0  0  0  0  0  0  0  0  0  0
   29.9410   27.5920   47.4110 C   0  0  0  0  0  0  0  0  0  0  0  0
   31.4900   27.7150   50.4030 H   0  0  0  0  0  0  0  0  0  0  0  0
   29.3170   28.4670   51.1100 H   0  0  0  0  0  0  0  0  0  0  0  0
   27.5180   28.6820   49.5260 H   0  0  0  0  0  0  0  0  0  0  0  0
   27.8710   28.1270   47.1160 H   0  0  0  0  0  0  0  0  0  0  0  0
   29.8130   25.7990   45.7490 C   0  0  1  0  0  3  0  0  0  0  0  0
   30.1690   27.2450   46.0070 C   0  0  1  0  0  3  0  0  0  0  0  0
   29.4380   28.1170   45.2070 O   0  0  0  0  0  0  0  0  0  0  0  0
   29.1210   27.5760   43.9660 C   0  0  0  0  0  2  0  0  0  0  0  0
   28.0180   26.5710   44.1780 C   0  0  1  0  0  3  0  0  0  0  0  0
   28.4290   25.5800   45.2390 C   0  0  1  0  0  3  0  0  0  0  0  0
   30.7390   25.1730   44.9300 O   0  0  0  0  0  0  0  0  0  0  0  0
   31.6420   25.5500   45.1070 H   0  0  0  0  0  0  0  0  0  0  0  0
   26.8440   27.1840   44.6160 O   0  0  0  0  0  0  0  0  0  0  0  0
   26.2010   26.4230   44.7660 H   0  0  0  0  0  0  0  0  0  0  0  0
   28.4040   24.3070   44.6470 O   0  0  0  0  0  0  0  0  0  0  0  0
   29.2690   23.8340   44.7190 H   0  0  0  0  0  0  0  0  0  0  0  0
   32.2560   27.0530   48.0440 O   0  0  0  0  0  0  0  0  0  0  0  0
   35.2390   28.7730   49.0860 C   0  0  0  0  0  0  0  0  0  0  0  0
   35.2000   29.9680   48.3250 C   0  0  0  0  0  0  0  0  0  0  0  0
   34.1260   30.1480   47.4640 C   0  0  0  0  0  0  0  0  0  0  0  0
   33.1800   29.1700   47.3990 N   0  0  0  0  0  0  0  0  0  0  0  0
   33.2410   28.0530   48.1240 C   0  0  0  0  0  0  0  0  0  0  0  0
   34.2800   27.8360   48.9860 N   0  0  0  0  0  0  0  0  0  0  0  0
   36.0820   28.6260   49.7660 H   0  0  0  0  0  0  0  0  0  0  0  0
   34.0860   31.0560   46.8810 H   0  0  0  0  0  0  0  0  0  0  0  0
   36.2560   30.8980   48.4940 N   0  0  0  0  0  0  0  0  0  0  0  0
   36.4680   31.5400   49.6380 C   0  0  0  0  0  0  0  0  0  0  0  0
   37.5250   32.4360   49.7250 C   0  0  0  0  0  0  0  0  0  0  0  0
   38.2740   32.5840   48.6020 C   0  0  0  0  0  0  0  0  0  0  0  0
   39.2470   33.4010   48.6660 O   0  0  0  0  0  0  0  0  0  0  0  0
   38.0970   31.9660   47.4500 N   0  0  0  0  0  0  0  0  0  0  0  0
   37.0520   31.0910   47.3870 C   0  0  0  0  0  0  0  0  0  0  0  0
   36.8610   30.4840   46.2860 O   0  0  0  0  0  0  0  0  0  0  0  0
   35.7990   31.3370   50.4690 H   0  0  0  0  0  0  0  0  0  0  0  0
   37.6800   32.9480   50.6660 H   0  0  0  0  0  0  0  0  0  0  0  0
   38.7150   32.1330   46.6310 H   0  0  0  0  0  0  0  0  0  0  0  0
  1  2  1  0  0  0  0
  2  3  2  0  0  0  0
  2  7  1  0  0  0  0
  3  8  1  0  0  0  0
  4  9  1  0  0  0  0
  4  3  1  0  0  0  0
  5  4  2  0  0  0  0
  6  5  1  0  0  0  0
  6  1  2  0  0  0  0
 10  5  1  0  0  0  0
 11 17  1  6  0  0  0
 11 12  1  0  0  0  0
 12  6  1  1  0  0  0
 13 12  1  0  0  0  0
 14 15  1  0  0  0  0
 14 13  1  0  0  0  0
 15 19  1  1  0  0  0
 15 16  1  0  0  0  0
 16 21  1  6  0  0  0
 16 11  1  0  0  0  0
 17 18  1  0  0  0  0
 19 20  1  0  0  0  0
 21 22  1  0  0  0  0
 23 28  1  0  0  0  0
 23  1  1  0  0  0  0
 24 30  1  0  0  0  0
 25 32  1  0  0  0  0
 25 24  2  0  0  0  0
 26 25  1  0  0  0  0
 27 26  2  0  0  0  0
 27 28  1  0  0  0  0
 28 29  2  0  0  0  0
 29 24  1  0  0  0  0
 31 26  1  0  0  0  0
 32 33  1  0  0  0  0
 33 34  2  0  0  0  0
 33 40  1  0  0  0  0
 34 41  1  0  0  0  0
 35 36  2  0  0  0  0
 35 34  1  0  0  0  0
 37 35  1  0  0  0  0
 38 37  1  0  0  0  0
 38 32  1  0  0  0  0
 39 38  2  0  0  0  0
 42 37  1  0  0  0  0
M  END
>  <minimizedAffinity>
-6.22018337

>  <minimizedRMSD>
0.672741413

$$$$
