
 OpenBabel03272507513D

 31 33  0  0  1  0  0  0  0  0999 V2000
   35.3490   30.2990   46.7430 C   0  0  0  0  0  0  0  0  0  0  0  0
   35.7330   30.3630   45.3790 C   0  0  0  0  0  0  0  0  0  0  0  0
   34.7430   30.1980   44.4070 C   0  0  0  0  0  0  0  0  0  0  0  0
   33.4630   29.9860   44.7970 N   0  0  0  0  0  0  0  0  0  0  0  0
   33.1180   29.9300   46.1040 C   0  0  0  0  0  0  0  0  0  0  0  0
   34.0550   30.0850   47.0830 N   0  0  0  0  0  0  0  0  0  0  0  0
   35.0540   30.2500   43.3680 H   0  0  0  0  0  0  0  0  0  0  0  0
   32.0740   29.7580   46.3670 H   0  0  0  0  0  0  0  0  0  0  0  0
   37.0960   30.5940   45.0760 N   0  0  0  0  0  0  0  0  0  0  0  0
   37.7740   31.6230   45.5900 C   0  0  0  0  0  0  0  0  0  0  0  0
   39.1080   31.8380   45.2920 C   0  0  0  0  0  0  0  0  0  0  0  0
   39.6350   30.8860   44.4220 C   0  0  0  0  0  0  0  0  0  0  0  0
   40.8600   31.0460   44.1200 O   0  0  0  0  0  0  0  0  0  0  0  0
   38.9900   29.8370   43.8810 N   0  0  0  0  0  0  0  0  0  0  0  0
   37.6950   29.7200   44.2390 C   0  0  0  0  0  0  0  0  0  0  0  0
   37.0710   28.7350   43.7360 O   0  0  0  0  0  0  0  0  0  0  0  0
   37.2820   32.3110   46.2460 H   0  0  0  0  0  0  0  0  0  0  0  0
   39.7150   32.6410   45.6670 H   0  0  0  0  0  0  0  0  0  0  0  0
   39.4780   29.1940   43.2480 H   0  0  0  0  0  0  0  0  0  0  0  0
   35.9260   29.5940   49.0870 C   0  0  2  0  0  3  0  0  0  0  0  0
   36.2520   30.4400   47.8970 C   0  0  2  0  0  3  0  0  0  0  0  0
   36.3830   31.7430   48.3690 O   0  0  0  0  0  0  0  0  0  0  0  0
   37.2810   31.7730   49.3920 C   0  0  0  0  0  2  0  0  0  0  0  0
   38.0930   30.5430   49.6370 C   0  0  2  0  0  3  0  0  0  0  0  0
   37.2590   29.2950   49.8030 C   0  0  1  0  0  3  0  0  0  0  0  0
   35.2840   28.4480   48.6900 O   0  0  0  0  0  0  0  0  0  0  0  0
   34.9710   27.9780   49.5110 H   0  0  0  0  0  0  0  0  0  0  0  0
   38.7720   30.7360   50.8460 O   0  0  0  0  0  0  0  0  0  0  0  0
   39.2430   31.6200   50.8690 H   0  0  0  0  0  0  0  0  0  0  0  0
   37.0210   28.9720   51.1390 O   0  0  0  0  0  0  0  0  0  0  0  0
   37.4650   29.6150   51.7180 H   0  0  0  0  0  0  0  0  0  0  0  0
  1  6  1  0  0  0  0
  2  1  2  0  0  0  0
  3  4  2  0  0  0  0
  3  2  1  0  0  0  0
  4  5  1  0  0  0  0
  5  8  1  0  0  0  0
  5  6  2  0  0  0  0
  7  3  1  0  0  0  0
  9  2  1  0  0  0  0
  9 10  1  0  0  0  0
 10 17  1  0  0  0  0
 11 10  2  0  0  0  0
 11 18  1  0  0  0  0
 12 11  1  0  0  0  0
 13 12  2  0  0  0  0
 14 15  1  0  0  0  0
 14 12  1  0  0  0  0
 15  9  1  0  0  0  0
 16 15  2  0  0  0  0
 19 14  1  0  0  0  0
 20 26  1  6  0  0  0
 20 25  1  0  0  0  0
 21  1  1  6  0  0  0
 21 22  1  0  0  0  0
 21 20  1  0  0  0  0
 22 23  1  0  0  0  0
 23 24  1  0  0  0  0
 24 25  1  0  0  0  0
 24 28  1  1  0  0  0
 25 30  1  1  0  0  0
 26 27  1  0  0  0  0
 28 29  1  0  0  0  0
 30 31  1  0  0  0  0
M  END
>  <minimizedAffinity>
-4.9964838

>  <minimizedRMSD>
3.62849402

$$$$
