
 OpenBabel03272507513D

 31 33  0  0  1  0  0  0  0  0999 V2000
   39.8620   25.1320   34.5750 C   0  0  0  0  0  0  0  0  0  0  0  0
   39.6180   24.7720   33.2240 C   0  0  0  0  0  0  0  0  0  0  0  0
   40.1010   25.6140   32.2200 C   0  0  0  0  0  0  0  0  0  0  0  0
   40.7800   26.7340   32.5670 N   0  0  0  0  0  0  0  0  0  0  0  0
   41.0030   27.0580   33.8610 C   0  0  0  0  0  0  0  0  0  0  0  0
   40.5470   26.2630   34.8710 N   0  0  0  0  0  0  0  0  0  0  0  0
   39.9060   25.3240   31.1920 H   0  0  0  0  0  0  0  0  0  0  0  0
   41.5550   27.9700   34.0890 H   0  0  0  0  0  0  0  0  0  0  0  0
   38.9030   23.5780   32.9670 N   0  0  0  0  0  0  0  0  0  0  0  0
   39.4970   22.3810   32.9560 C   0  0  0  0  0  0  0  0  0  0  0  0
   38.7880   21.2190   32.7090 C   0  0  0  0  0  0  0  0  0  0  0  0
   37.4320   21.4430   32.4800 C   0  0  0  0  0  0  0  0  0  0  0  0
   36.7420   20.4000   32.2480 O   0  0  0  0  0  0  0  0  0  0  0  0
   36.7940   22.6260   32.4820 N   0  0  0  0  0  0  0  0  0  0  0  0
   37.5780   23.6940   32.7340 C   0  0  0  0  0  0  0  0  0  0  0  0
   36.9910   24.8200   32.7380 O   0  0  0  0  0  0  0  0  0  0  0  0
   40.5500   22.3080   33.1350 H   0  0  0  0  0  0  0  0  0  0  0  0
   39.1980   20.2260   32.6840 H   0  0  0  0  0  0  0  0  0  0  0  0
   35.7850   22.6760   32.3000 H   0  0  0  0  0  0  0  0  0  0  0  0
   40.2560   23.1840   36.1140 C   0  0  2  0  0  3  0  0  0  0  0  0
   39.4230   24.3750   35.7580 C   0  0  2  0  0  3  0  0  0  0  0  0
   38.1070   23.9270   35.7010 O   0  0  0  0  0  0  0  0  0  0  0  0
   37.7850   23.2940   36.8620 C   0  0  0  0  0  2  0  0  0  0  0  0
   38.7450   23.4080   38.0030 C   0  0  2  0  0  3  0  0  0  0  0  0
   40.1550   23.0070   37.6430 C   0  0  1  0  0  3  0  0  0  0  0  0
   41.5510   23.3710   35.6990 O   0  0  0  0  0  0  0  0  0  0  0  0
   42.0380   22.5140   35.8360 H   0  0  0  0  0  0  0  0  0  0  0  0
   38.3110   22.5160   38.9910 O   0  0  0  0  0  0  0  0  0  0  0  0
   37.3360   22.6280   39.1870 H   0  0  0  0  0  0  0  0  0  0  0  0
   40.4530   21.6890   37.9910 O   0  0  0  0  0  0  0  0  0  0  0  0
   39.6850   21.2820   38.4270 H   0  0  0  0  0  0  0  0  0  0  0  0
  1  6  1  0  0  0  0
  2  1  2  0  0  0  0
  3  4  2  0  0  0  0
  3  2  1  0  0  0  0
  4  5  1  0  0  0  0
  5  8  1  0  0  0  0
  5  6  2  0  0  0  0
  7  3  1  0  0  0  0
  9  2  1  0  0  0  0
 10  9  1  0  0  0  0
 10 17  1  0  0  0  0
 11 10  2  0  0  0  0
 12 14  1  0  0  0  0
 12 11  1  0  0  0  0
 13 12  2  0  0  0  0
 14 15  1  0  0  0  0
 15 16  2  0  0  0  0
 15  9  1  0  0  0  0
 18 11  1  0  0  0  0
 19 14  1  0  0  0  0
 20 26  1  1  0  0  0
 20 25  1  0  0  0  0
 21  1  1  6  0  0  0
 21 20  1  0  0  0  0
 22 21  1  0  0  0  0
 22 23  1  0  0  0  0
 23 24  1  0  0  0  0
 24 28  1  1  0  0  0
 25 30  1  6  0  0  0
 25 24  1  0  0  0  0
 26 27  1  0  0  0  0
 28 29  1  0  0  0  0
 30 31  1  0  0  0  0
M  END
>  <minimizedAffinity>
-5.77244902

$$$$

 OpenBabel03272507513D

 31 33  0  0  1  0  0  0  0  0999 V2000
   38.3300   24.7570   34.4090 C   0  0  0  0  0  0  0  0  0  0  0  0
   37.7660   24.3190   33.1830 C   0  0  0  0  0  0  0  0  0  0  0  0
   37.1110   25.2600   32.3850 C   0  0  0  0  0  0  0  0  0  0  0  0
   37.0380   26.5460   32.8050 N   0  0  0  0  0  0  0  0  0  0  0  0
   37.5840   26.9430   33.9770 C   0  0  0  0  0  0  0  0  0  0  0  0
   38.2310   26.0550   34.7850 N   0  0  0  0  0  0  0  0  0  0  0  0
   36.6850   24.9080   31.4510 H   0  0  0  0  0  0  0  0  0  0  0  0
   37.4990   27.9890   34.2710 H   0  0  0  0  0  0  0  0  0  0  0  0
   37.9010   22.9550   32.8320 N   0  0  0  0  0  0  0  0  0  0  0  0
   36.9740   22.0440   33.1440 C   0  0  0  0  0  0  0  0  0  0  0  0
   37.1140   20.7130   32.7930 C   0  0  0  0  0  0  0  0  0  0  0  0
   38.2940   20.4500   32.1020 C   0  0  0  0  0  0  0  0  0  0  0  0
   38.4630   19.2370   31.7590 O   0  0  0  0  0  0  0  0  0  0  0  0
   39.2520   21.3320   31.7680 N   0  0  0  0  0  0  0  0  0  0  0  0
   39.0160   22.6020   32.1580 C   0  0  0  0  0  0  0  0  0  0  0  0
   39.9120   23.4480   31.8510 O   0  0  0  0  0  0  0  0  0  0  0  0
   36.1000   22.3400   33.6870 H   0  0  0  0  0  0  0  0  0  0  0  0
   36.4120   19.9290   33.0090 H   0  0  0  0  0  0  0  0  0  0  0  0
   40.0870   21.0280   31.2550 H   0  0  0  0  0  0  0  0  0  0  0  0
   38.6180   24.0480   36.8030 C   0  0  2  0  0  3  0  0  0  0  0  0
   39.0460   23.9100   35.3760 C   0  0  2  0  0  3  0  0  0  0  0  0
   40.4290   24.0670   35.3670 O   0  0  0  0  0  0  0  0  0  0  0  0
   40.9960   23.2000   36.2500 C   0  0  0  0  0  2  0  0  0  0  0  0
   40.1220   22.1390   36.8390 C   0  0  2  0  0  3  0  0  0  0  0  0
   38.8670   22.6830   37.4790 C   0  0  1  0  0  3  0  0  0  0  0  0
   37.3000   24.4240   36.8670 O   0  0  0  0  0  0  0  0  0  0  0  0
   37.0910   24.6290   37.8190 H   0  0  0  0  0  0  0  0  0  0  0  0
   40.8590   21.5220   37.8570 O   0  0  0  0  0  0  0  0  0  0  0  0
   41.7710   21.2560   37.5430 H   0  0  0  0  0  0  0  0  0  0  0  0
   38.9860   22.8500   38.8600 O   0  0  0  0  0  0  0  0  0  0  0  0
   39.8660   22.5570   39.1510 H   0  0  0  0  0  0  0  0  0  0  0  0
  1  6  1  0  0  0  0
  2  1  2  0  0  0  0
  3  4  2  0  0  0  0
  3  2  1  0  0  0  0
  4  5  1  0  0  0  0
  5  8  1  0  0  0  0
  5  6  2  0  0  0  0
  7  3  1  0  0  0  0
  9 10  1  0  0  0  0
  9  2  1  0  0  0  0
 10 17  1  0  0  0  0
 11 18  1  0  0  0  0
 11 10  2  0  0  0  0
 12 11  1  0  0  0  0
 13 12  2  0  0  0  0
 14 12  1  0  0  0  0
 14 15  1  0  0  0  0
 15  9  1  0  0  0  0
 16 15  2  0  0  0  0
 19 14  1  0  0  0  0
 20 26  1  6  0  0  0
 20 25  1  0  0  0  0
 21  1  1  6  0  0  0
 21 20  1  0  0  0  0
 22 21  1  0  0  0  0
 22 23  1  0  0  0  0
 23 24  1  0  0  0  0
 24 25  1  0  0  0  0
 24 28  1  1  0  0  0
 25 30  1  1  0  0  0
 26 27  1  0  0  0  0
 29 28  1  0  0  0  0
 30 31  1  0  0  0  0
M  END
>  <minimizedAffinity>
-5.50402498

$$$$

 OpenBabel03272507513D

 31 33  0  0  1  0  0  0  0  0999 V2000
   39.3690   24.5480   32.6050 C   0  0  0  0  0  0  0  0  0  0  0  0
   38.1620   24.0770   33.1850 C   0  0  0  0  0  0  0  0  0  0  0  0
   37.0870   23.8040   32.3360 C   0  0  0  0  0  0  0  0  0  0  0  0
   37.2320   23.9960   31.0020 N   0  0  0  0  0  0  0  0  0  0  0  0
   38.3920   24.4440   30.4710 C   0  0  0  0  0  0  0  0  0  0  0  0
   39.4650   24.7240   31.2650 N   0  0  0  0  0  0  0  0  0  0  0  0
   36.1710   23.4440   32.7950 H   0  0  0  0  0  0  0  0  0  0  0  0
   38.4590   24.5820   29.3920 H   0  0  0  0  0  0  0  0  0  0  0  0
   38.1140   23.9050   34.5880 N   0  0  0  0  0  0  0  0  0  0  0  0
   37.9150   24.9280   35.4240 C   0  0  0  0  0  0  0  0  0  0  0  0
   37.8650   24.7480   36.7950 C   0  0  0  0  0  0  0  0  0  0  0  0
   38.0420   23.4220   37.1800 C   0  0  0  0  0  0  0  0  0  0  0  0
   38.0030   23.2110   38.4340 O   0  0  0  0  0  0  0  0  0  0  0  0
   38.2450   22.3640   36.3760 N   0  0  0  0  0  0  0  0  0  0  0  0
   38.2750   22.6500   35.0580 C   0  0  0  0  0  0  0  0  0  0  0  0
   38.4670   21.6620   34.2840 O   0  0  0  0  0  0  0  0  0  0  0  0
   37.7970   25.9180   35.0350 H   0  0  0  0  0  0  0  0  0  0  0  0
   37.7090   25.5210   37.5250 H   0  0  0  0  0  0  0  0  0  0  0  0
   38.3640   21.4230   36.7690 H   0  0  0  0  0  0  0  0  0  0  0  0
   41.1720   26.2430   33.0460 C   0  0  2  0  0  3  0  0  0  0  0  0
   40.5960   24.8940   33.3400 C   0  0  2  0  0  3  0  0  0  0  0  0
   41.6370   23.9830   33.1860 O   0  0  0  0  0  0  0  0  0  0  0  0
   42.6970   24.3620   33.9500 C   0  0  0  0  0  2  0  0  0  0  0  0
   42.4810   25.4630   34.9390 C   0  0  2  0  0  3  0  0  0  0  0  0
   41.8920   26.7120   34.3280 C   0  0  1  0  0  3  0  0  0  0  0  0
   40.1780   27.1090   32.6650 O   0  0  0  0  0  0  0  0  0  0  0  0
   40.6130   27.9500   32.3570 H   0  0  0  0  0  0  0  0  0  0  0  0
   43.7410   25.8150   35.4400 O   0  0  0  0  0  0  0  0  0  0  0  0
   44.2570   25.0110   35.7390 H   0  0  0  0  0  0  0  0  0  0  0  0
   42.8550   27.6710   34.0100 O   0  0  0  0  0  0  0  0  0  0  0  0
   43.7360   27.3500   34.2690 H   0  0  0  0  0  0  0  0  0  0  0  0
  1  2  1  0  0  0  0
  2  9  1  0  0  0  0
  3  7  1  0  0  0  0
  3  2  2  0  0  0  0
  4  3  1  0  0  0  0
  5  4  2  0  0  0  0
  5  6  1  0  0  0  0
  6  1  2  0  0  0  0
  8  5  1  0  0  0  0
  9 15  1  0  0  0  0
  9 10  1  0  0  0  0
 10 11  2  0  0  0  0
 11 12  1  0  0  0  0
 11 18  1  0  0  0  0
 12 13  2  0  0  0  0
 14 19  1  0  0  0  0
 14 12  1  0  0  0  0
 15 14  1  0  0  0  0
 16 15  2  0  0  0  0
 17 10  1  0  0  0  0
 20 26  1  1  0  0  0
 20 21  1  0  0  0  0
 20 25  1  0  0  0  0
 21  1  1  6  0  0  0
 22 21  1  0  0  0  0
 22 23  1  0  0  0  0
 23 24  1  0  0  0  0
 24 28  1  6  0  0  0
 25 30  1  6  0  0  0
 25 24  1  0  0  0  0
 27 26  1  0  0  0  0
 28 29  1  0  0  0  0
 30 31  1  0  0  0  0
M  END
>  <minimizedAffinity>
-5.28754282

$$$$

 OpenBabel03272507513D

 31 33  0  0  1  0  0  0  0  0999 V2000
   38.0420   23.4930   33.1090 C   0  0  0  0  0  0  0  0  0  0  0  0
   37.5040   23.6280   31.8030 C   0  0  0  0  0  0  0  0  0  0  0  0
   37.3150   22.4690   31.0460 C   0  0  0  0  0  0  0  0  0  0  0  0
   37.6480   21.2690   31.5800 N   0  0  0  0  0  0  0  0  0  0  0  0
   38.1580   21.1630   32.8280 C   0  0  0  0  0  0  0  0  0  0  0  0
   38.3580   22.2700   33.5990 N   0  0  0  0  0  0  0  0  0  0  0  0
   36.9020   22.5900   30.0490 H   0  0  0  0  0  0  0  0  0  0  0  0
   38.4090   20.1750   33.2130 H   0  0  0  0  0  0  0  0  0  0  0  0
   37.1840   24.9260   31.3400 N   0  0  0  0  0  0  0  0  0  0  0  0
   35.9940   25.4890   31.5670 C   0  0  0  0  0  0  0  0  0  0  0  0
   35.6920   26.7610   31.1140 C   0  0  0  0  0  0  0  0  0  0  0  0
   36.7420   27.3580   30.4190 C   0  0  0  0  0  0  0  0  0  0  0  0
   36.5070   28.5300   29.9840 O   0  0  0  0  0  0  0  0  0  0  0  0
   37.9520   26.8300   30.1680 N   0  0  0  0  0  0  0  0  0  0  0  0
   38.1410   25.5850   30.6540 C   0  0  0  0  0  0  0  0  0  0  0  0
   39.2790   25.0710   30.4250 O   0  0  0  0  0  0  0  0  0  0  0  0
   35.2430   24.9480   32.1050 H   0  0  0  0  0  0  0  0  0  0  0  0
   34.7600   27.2760   31.2580 H   0  0  0  0  0  0  0  0  0  0  0  0
   38.6560   27.3610   29.6420 H   0  0  0  0  0  0  0  0  0  0  0  0
   39.7540   24.9770   34.1960 C   0  0  2  0  0  3  0  0  0  0  0  0
   38.3160   24.5970   34.0430 C   0  0  2  0  0  3  0  0  0  0  0  0
   37.8250   24.3990   35.3300 O   0  0  0  0  0  0  0  0  0  0  0  0
   38.0770   25.4980   36.0930 C   0  0  0  0  0  2  0  0  0  0  0  0
   38.5700   26.7260   35.3970 C   0  0  2  0  0  3  0  0  0  0  0  0
   39.7870   26.4820   34.5360 C   0  0  1  0  0  3  0  0  0  0  0  0
   40.4440   24.6930   33.0450 O   0  0  0  0  0  0  0  0  0  0  0  0
   41.4120   24.8380   33.2290 H   0  0  0  0  0  0  0  0  0  0  0  0
   38.9560   27.6320   36.3930 O   0  0  0  0  0  0  0  0  0  0  0  0
   38.2450   27.7410   37.0890 H   0  0  0  0  0  0  0  0  0  0  0  0
   40.9830   26.8000   35.1790 O   0  0  0  0  0  0  0  0  0  0  0  0
   40.7970   27.1450   36.0700 H   0  0  0  0  0  0  0  0  0  0  0  0
  1  6  1  0  0  0  0
  2  1  2  0  0  0  0
  3  4  2  0  0  0  0
  3  2  1  0  0  0  0
  4  5  1  0  0  0  0
  5  8  1  0  0  0  0
  5  6  2  0  0  0  0
  7  3  1  0  0  0  0
  9 10  1  0  0  0  0
  9  2  1  0  0  0  0
 10 17  1  0  0  0  0
 11 18  1  0  0  0  0
 11 10  2  0  0  0  0
 12 11  1  0  0  0  0
 13 12  2  0  0  0  0
 14 12  1  0  0  0  0
 14 15  1  0  0  0  0
 15  9  1  0  0  0  0
 16 15  2  0  0  0  0
 19 14  1  0  0  0  0
 20 26  1  6  0  0  0
 20 25  1  0  0  0  0
 21  1  1  6  0  0  0
 21 20  1  0  0  0  0
 21 22  1  0  0  0  0
 22 23  1  0  0  0  0
 24 23  1  0  0  0  0
 24 28  1  1  0  0  0
 25 30  1  1  0  0  0
 25 24  1  0  0  0  0
 26 27  1  0  0  0  0
 28 29  1  0  0  0  0
 30 31  1  0  0  0  0
M  END
>  <minimizedAffinity>
-5.23674059

$$$$

 OpenBabel03272507513D

 31 33  0  0  1  0  0  0  0  0999 V2000
   38.1650   24.5660   34.2230 C   0  0  0  0  0  0  0  0  0  0  0  0
   38.7630   24.8830   35.4700 C   0  0  0  0  0  0  0  0  0  0  0  0
   38.5030   26.1380   36.0240 C   0  0  0  0  0  0  0  0  0  0  0  0
   37.6970   27.0010   35.3600 N   0  0  0  0  0  0  0  0  0  0  0  0
   37.1360   26.6770   34.1720 C   0  0  0  0  0  0  0  0  0  0  0  0
   37.3650   25.4620   33.5970 N   0  0  0  0  0  0  0  0  0  0  0  0
   38.9680   26.3650   36.9790 H   0  0  0  0  0  0  0  0  0  0  0  0
   36.4930   27.4050   33.6760 H   0  0  0  0  0  0  0  0  0  0  0  0
   39.5850   23.9110   36.0860 N   0  0  0  0  0  0  0  0  0  0  0  0
   40.8550   23.7170   35.7190 C   0  0  0  0  0  0  0  0  0  0  0  0
   41.6530   22.7660   36.3320 C   0  0  0  0  0  0  0  0  0  0  0  0
   40.9930   22.0640   37.3370 C   0  0  0  0  0  0  0  0  0  0  0  0
   41.6910   21.1780   37.9270 O   0  0  0  0  0  0  0  0  0  0  0  0
   39.7200   22.2240   37.7380 N   0  0  0  0  0  0  0  0  0  0  0  0
   39.0320   23.1780   37.0750 C   0  0  0  0  0  0  0  0  0  0  0  0
   37.8270   23.3420   37.4410 O   0  0  0  0  0  0  0  0  0  0  0  0
   41.2760   24.3020   34.9270 H   0  0  0  0  0  0  0  0  0  0  0  0
   42.6790   22.5570   36.0900 H   0  0  0  0  0  0  0  0  0  0  0  0
   39.3330   21.6480   38.4940 H   0  0  0  0  0  0  0  0  0  0  0  0
   39.0660   23.3960   32.1880 C   0  0  2  0  0  3  0  0  0  0  0  0
   38.3310   23.3010   33.4880 C   0  0  2  0  0  3  0  0  0  0  0  0
   37.1420   22.6330   33.2150 O   0  0  0  0  0  0  0  0  0  0  0  0
   37.4090   21.4530   32.5900 C   0  0  0  0  0  2  0  0  0  0  0  0
   38.8340   21.0030   32.5410 C   0  0  2  0  0  3  0  0  0  0  0  0
   39.7730   22.0410   31.9740 C   0  0  1  0  0  3  0  0  0  0  0  0
   39.9530   24.4420   32.2220 O   0  0  0  0  0  0  0  0  0  0  0  0
   40.3260   24.5520   31.3050 H   0  0  0  0  0  0  0  0  0  0  0  0
   38.8850   19.9010   31.6790 O   0  0  0  0  0  0  0  0  0  0  0  0
   38.1860   19.2210   31.9070 H   0  0  0  0  0  0  0  0  0  0  0  0
   40.0410   21.8530   30.6180 O   0  0  0  0  0  0  0  0  0  0  0  0
   39.5780   21.0590   30.2980 H   0  0  0  0  0  0  0  0  0  0  0  0
  1  2  1  0  0  0  0
  2  3  2  0  0  0  0
  2  9  1  0  0  0  0
  3  7  1  0  0  0  0
  4  3  1  0  0  0  0
  5  4  2  0  0  0  0
  6  5  1  0  0  0  0
  6  1  2  0  0  0  0
  8  5  1  0  0  0  0
  9 15  1  0  0  0  0
 10  9  1  0  0  0  0
 10 11  2  0  0  0  0
 11 12  1  0  0  0  0
 12 14  1  0  0  0  0
 12 13  2  0  0  0  0
 14 19  1  0  0  0  0
 15 16  2  0  0  0  0
 15 14  1  0  0  0  0
 17 10  1  0  0  0  0
 18 11  1  0  0  0  0
 20 26  1  1  0  0  0
 20 21  1  0  0  0  0
 21  1  1  6  0  0  0
 22 21  1  0  0  0  0
 23 22  1  0  0  0  0
 24 28  1  6  0  0  0
 24 23  1  0  0  0  0
 25 30  1  6  0  0  0
 25 20  1  0  0  0  0
 25 24  1  0  0  0  0
 27 26  1  0  0  0  0
 28 29  1  0  0  0  0
 31 30  1  0  0  0  0
M  END
>  <minimizedAffinity>
-5.18913317

$$$$

 OpenBabel03272507513D

 31 33  0  0  1  0  0  0  0  0999 V2000
   37.8020   22.7320   34.0400 C   0  0  0  0  0  0  0  0  0  0  0  0
   38.2220   23.5670   32.9720 C   0  0  0  0  0  0  0  0  0  0  0  0
   37.7750   23.2640   31.6840 C   0  0  0  0  0  0  0  0  0  0  0  0
   36.9640   22.1940   31.5000 N   0  0  0  0  0  0  0  0  0  0  0  0
   36.5750   21.4110   32.5320 C   0  0  0  0  0  0  0  0  0  0  0  0
   36.9900   21.6730   33.8050 N   0  0  0  0  0  0  0  0  0  0  0  0
   38.1050   23.9120   30.8780 H   0  0  0  0  0  0  0  0  0  0  0  0
   35.9210   20.5620   32.3330 H   0  0  0  0  0  0  0  0  0  0  0  0
   39.0650   24.6630   33.2690 N   0  0  0  0  0  0  0  0  0  0  0  0
   38.5830   25.8460   33.6600 C   0  0  0  0  0  0  0  0  0  0  0  0
   39.4170   26.9110   33.9540 C   0  0  0  0  0  0  0  0  0  0  0  0
   40.7670   26.6080   33.7970 C   0  0  0  0  0  0  0  0  0  0  0  0
   41.5700   27.5610   34.0570 O   0  0  0  0  0  0  0  0  0  0  0  0
   41.2960   25.4350   33.4070 N   0  0  0  0  0  0  0  0  0  0  0  0
   40.3950   24.4650   33.1470 C   0  0  0  0  0  0  0  0  0  0  0  0
   40.8770   23.3510   32.7760 O   0  0  0  0  0  0  0  0  0  0  0  0
   37.5250   25.9890   33.7440 H   0  0  0  0  0  0  0  0  0  0  0  0
   39.1010   27.8870   34.2720 H   0  0  0  0  0  0  0  0  0  0  0  0
   42.3120   25.3210   33.3250 H   0  0  0  0  0  0  0  0  0  0  0  0
   39.2230   21.9500   35.9600 C   0  0  2  0  0  3  0  0  0  0  0  0
   38.1770   22.8920   35.4540 C   0  0  2  0  0  3  0  0  0  0  0  0
   37.1120   22.8090   36.3450 O   0  0  0  0  0  0  0  0  0  0  0  0
   37.5560   23.0300   37.6130 C   0  0  0  0  0  2  0  0  0  0  0  0
   38.9530   23.5360   37.7810 C   0  0  2  0  0  3  0  0  0  0  0  0
   39.9870   22.6880   37.0790 C   0  0  1  0  0  3  0  0  0  0  0  0
   40.0510   21.5670   34.9350 O   0  0  0  0  0  0  0  0  0  0  0  0
   40.6470   20.8480   35.2810 H   0  0  0  0  0  0  0  0  0  0  0  0
   39.2460   23.4800   39.1490 O   0  0  0  0  0  0  0  0  0  0  0  0
   38.5250   23.9040   39.6990 H   0  0  0  0  0  0  0  0  0  0  0  0
   40.6010   21.7640   37.9260 O   0  0  0  0  0  0  0  0  0  0  0  0
   40.2510   21.8620   38.8290 H   0  0  0  0  0  0  0  0  0  0  0  0
  2  9  1  0  0  0  0
  2  1  2  0  0  0  0
  3  2  1  0  0  0  0
  4  3  2  0  0  0  0
  4  5  1  0  0  0  0
  5  6  2  0  0  0  0
  6  1  1  0  0  0  0
  7  3  1  0  0  0  0
  8  5  1  0  0  0  0
  9 10  1  0  0  0  0
 10 17  1  0  0  0  0
 10 11  2  0  0  0  0
 11 18  1  0  0  0  0
 12 11  1  0  0  0  0
 12 13  2  0  0  0  0
 14 12  1  0  0  0  0
 15  9  1  0  0  0  0
 15 14  1  0  0  0  0
 16 15  2  0  0  0  0
 19 14  1  0  0  0  0
 20 26  1  6  0  0  0
 20 25  1  0  0  0  0
 21  1  1  6  0  0  0
 21 20  1  0  0  0  0
 21 22  1  0  0  0  0
 22 23  1  0  0  0  0
 23 24  1  0  0  0  0
 24 28  1  1  0  0  0
 25 24  1  0  0  0  0
 25 30  1  1  0  0  0
 26 27  1  0  0  0  0
 28 29  1  0  0  0  0
 30 31  1  0  0  0  0
M  END
>  <minimizedAffinity>
-5.16719389

$$$$

 OpenBabel03272507513D

 31 33  0  0  1  0  0  0  0  0999 V2000
   39.1030   24.1620   32.4800 C   0  0  0  0  0  0  0  0  0  0  0  0
   39.5900   22.8610   32.7690 C   0  0  0  0  0  0  0  0  0  0  0  0
   39.6650   21.9380   31.7230 C   0  0  0  0  0  0  0  0  0  0  0  0
   39.2760   22.3140   30.4810 N   0  0  0  0  0  0  0  0  0  0  0  0
   38.8160   23.5600   30.2260 C   0  0  0  0  0  0  0  0  0  0  0  0
   38.7260   24.4900   31.2200 N   0  0  0  0  0  0  0  0  0  0  0  0
   40.0400   20.9470   31.9610 H   0  0  0  0  0  0  0  0  0  0  0  0
   38.5160   23.8150   29.2100 H   0  0  0  0  0  0  0  0  0  0  0  0
   39.9760   22.5690   34.0980 N   0  0  0  0  0  0  0  0  0  0  0  0
   41.2380   22.7000   34.5180 C   0  0  0  0  0  0  0  0  0  0  0  0
   41.6050   22.4170   35.8220 C   0  0  0  0  0  0  0  0  0  0  0  0
   40.5380   21.9950   36.6110 C   0  0  0  0  0  0  0  0  0  0  0  0
   40.8310   21.7240   37.8190 O   0  0  0  0  0  0  0  0  0  0  0  0
   39.2560   21.8490   36.2320 N   0  0  0  0  0  0  0  0  0  0  0  0
   39.0080   22.1520   34.9410 C   0  0  0  0  0  0  0  0  0  0  0  0
   37.8020   22.0180   34.5660 O   0  0  0  0  0  0  0  0  0  0  0  0
   41.9950   23.0250   33.8340 H   0  0  0  0  0  0  0  0  0  0  0  0
   42.5960   22.5000   36.2280 H   0  0  0  0  0  0  0  0  0  0  0  0
   38.5460   21.5290   36.9010 H   0  0  0  0  0  0  0  0  0  0  0  0
   37.6860   26.0530   33.3370 C   0  0  2  0  0  3  0  0  0  0  0  0
   38.9470   25.2560   33.4520 C   0  0  2  0  0  3  0  0  0  0  0  0
   39.9910   26.1760   33.4570 O   0  0  0  0  0  0  0  0  0  0  0  0
   39.7790   27.1070   34.4270 C   0  0  0  0  0  2  0  0  0  0  0  0
   38.6790   26.8490   35.4070 C   0  0  2  0  0  3  0  0  0  0  0  0
   37.3480   26.5630   34.7540 C   0  0  1  0  0  3  0  0  0  0  0  0
   36.6820   25.2770   32.8140 O   0  0  0  0  0  0  0  0  0  0  0  0
   35.9040   25.8720   32.6350 H   0  0  0  0  0  0  0  0  0  0  0  0
   38.5170   28.0210   36.1560 O   0  0  0  0  0  0  0  0  0  0  0  0
   39.3910   28.3560   36.5110 H   0  0  0  0  0  0  0  0  0  0  0  0
   36.5270   27.6880   34.6720 O   0  0  0  0  0  0  0  0  0  0  0  0
   36.9730   28.4510   35.0800 H   0  0  0  0  0  0  0  0  0  0  0  0
  1  2  1  0  0  0  0
  2  9  1  0  0  0  0
  3  7  1  0  0  0  0
  3  2  2  0  0  0  0
  4  3  1  0  0  0  0
  5  4  2  0  0  0  0
  5  6  1  0  0  0  0
  6  1  2  0  0  0  0
  8  5  1  0  0  0  0
  9 10  1  0  0  0  0
  9 15  1  0  0  0  0
 10 11  2  0  0  0  0
 11 18  1  0  0  0  0
 11 12  1  0  0  0  0
 12 13  2  0  0  0  0
 14 12  1  0  0  0  0
 14 19  1  0  0  0  0
 15 14  1  0  0  0  0
 16 15  2  0  0  0  0
 17 10  1  0  0  0  0
 20 26  1  1  0  0  0
 20 21  1  0  0  0  0
 20 25  1  0  0  0  0
 21  1  1  6  0  0  0
 21 22  1  0  0  0  0
 22 23  1  0  0  0  0
 23 24  1  0  0  0  0
 24 28  1  1  0  0  0
 25 30  1  6  0  0  0
 25 24  1  0  0  0  0
 27 26  1  0  0  0  0
 28 29  1  0  0  0  0
 30 31  1  0  0  0  0
M  END
>  <minimizedAffinity>
-5.1487484

$$$$

 OpenBabel03272507513D

 31 33  0  0  1  0  0  0  0  0999 V2000
   39.5810   23.5040   33.5630 C   0  0  0  0  0  0  0  0  0  0  0  0
   39.5580   24.7820   32.9450 C   0  0  0  0  0  0  0  0  0  0  0  0
   40.2560   24.9460   31.7470 C   0  0  0  0  0  0  0  0  0  0  0  0
   40.9240   23.8910   31.2200 N   0  0  0  0  0  0  0  0  0  0  0  0
   40.9310   22.6810   31.8250 C   0  0  0  0  0  0  0  0  0  0  0  0
   40.2630   22.4800   32.9970 N   0  0  0  0  0  0  0  0  0  0  0  0
   40.2280   25.9290   31.2870 H   0  0  0  0  0  0  0  0  0  0  0  0
   41.4830   21.8630   31.3620 H   0  0  0  0  0  0  0  0  0  0  0  0
   38.8270   25.8170   33.5730 N   0  0  0  0  0  0  0  0  0  0  0  0
   37.5760   26.1220   33.2160 C   0  0  0  0  0  0  0  0  0  0  0  0
   36.8660   27.1340   33.8400 C   0  0  0  0  0  0  0  0  0  0  0  0
   37.5910   27.7700   34.8450 C   0  0  0  0  0  0  0  0  0  0  0  0
   36.9760   28.7080   35.4460 O   0  0  0  0  0  0  0  0  0  0  0  0
   38.8480   27.4970   35.2360 N   0  0  0  0  0  0  0  0  0  0  0  0
   39.4470   26.4930   34.5630 C   0  0  0  0  0  0  0  0  0  0  0  0
   40.6350   26.2230   34.9190 O   0  0  0  0  0  0  0  0  0  0  0  0
   37.1010   25.5810   32.4230 H   0  0  0  0  0  0  0  0  0  0  0  0
   35.8620   27.4330   33.6070 H   0  0  0  0  0  0  0  0  0  0  0  0
   39.2880   28.0330   35.9930 H   0  0  0  0  0  0  0  0  0  0  0  0
   39.8200   22.7820   35.9590 C   0  0  2  0  0  3  0  0  0  0  0  0
   38.9140   23.1490   34.8260 C   0  0  2  0  0  3  0  0  0  0  0  0
   37.9870   22.1180   34.7180 O   0  0  0  0  0  0  0  0  0  0  0  0
   37.3870   21.9100   35.9220 C   0  0  0  0  0  2  0  0  0  0  0  0
   37.6280   22.9180   37.0000 C   0  0  2  0  0  3  0  0  0  0  0  0
   39.0930   23.1800   37.2610 C   0  0  1  0  0  3  0  0  0  0  0  0
   41.0270   23.4210   35.8260 O   0  0  0  0  0  0  0  0  0  0  0  0
   41.6400   23.0550   36.5200 H   0  0  0  0  0  0  0  0  0  0  0  0
   37.0970   22.3880   38.1820 O   0  0  0  0  0  0  0  0  0  0  0  0
   36.1610   22.0580   38.0500 H   0  0  0  0  0  0  0  0  0  0  0  0
   39.5970   22.4420   38.3330 O   0  0  0  0  0  0  0  0  0  0  0  0
   38.8860   21.9070   38.7260 H   0  0  0  0  0  0  0  0  0  0  0  0
  2  1  2  0  0  0  0
  2  9  1  0  0  0  0
  3  2  1  0  0  0  0
  4  3  2  0  0  0  0
  4  5  1  0  0  0  0
  5  6  2  0  0  0  0
  6  1  1  0  0  0  0
  7  3  1  0  0  0  0
  8  5  1  0  0  0  0
  9 15  1  0  0  0  0
 10  9  1  0  0  0  0
 10 11  2  0  0  0  0
 11 12  1  0  0  0  0
 12 14  1  0  0  0  0
 12 13  2  0  0  0  0
 14 19  1  0  0  0  0
 15 16  2  0  0  0  0
 15 14  1  0  0  0  0
 17 10  1  0  0  0  0
 18 11  1  0  0  0  0
 20 26  1  6  0  0  0
 20 25  1  0  0  0  0
 21  1  1  6  0  0  0
 21 20  1  0  0  0  0
 22 21  1  0  0  0  0
 22 23  1  0  0  0  0
 23 24  1  0  0  0  0
 24 25  1  0  0  0  0
 24 28  1  1  0  0  0
 25 30  1  1  0  0  0
 26 27  1  0  0  0  0
 29 28  1  0  0  0  0
 30 31  1  0  0  0  0
M  END
>  <minimizedAffinity>
-5.07926416

$$$$

 OpenBabel03272507513D

 31 33  0  0  1  0  0  0  0  0999 V2000
   39.5950   25.5810   32.8730 C   0  0  0  0  0  0  0  0  0  0  0  0
   39.9930   25.7790   34.2210 C   0  0  0  0  0  0  0  0  0  0  0  0
   40.9780   26.7330   34.4840 C   0  0  0  0  0  0  0  0  0  0  0  0
   41.5140   27.4310   33.4530 N   0  0  0  0  0  0  0  0  0  0  0  0
   41.1180   27.2290   32.1760 C   0  0  0  0  0  0  0  0  0  0  0  0
   40.1600   26.3050   31.8770 N   0  0  0  0  0  0  0  0  0  0  0  0
   41.2710   26.8720   35.5200 H   0  0  0  0  0  0  0  0  0  0  0  0
   41.5790   27.8160   31.3810 H   0  0  0  0  0  0  0  0  0  0  0  0
   39.3690   25.0020   35.2250 N   0  0  0  0  0  0  0  0  0  0  0  0
   39.8700   23.8330   35.6360 C   0  0  0  0  0  0  0  0  0  0  0  0
   39.2540   23.0830   36.6220 C   0  0  0  0  0  0  0  0  0  0  0  0
   38.0920   23.6740   37.1140 C   0  0  0  0  0  0  0  0  0  0  0  0
   37.4930   23.0170   38.0240 O   0  0  0  0  0  0  0  0  0  0  0  0
   37.5530   24.8450   36.7310 N   0  0  0  0  0  0  0  0  0  0  0  0
   38.2330   25.4950   35.7640 C   0  0  0  0  0  0  0  0  0  0  0  0
   37.7370   26.6020   35.3900 O   0  0  0  0  0  0  0  0  0  0  0  0
   40.7670   23.4530   35.1910 H   0  0  0  0  0  0  0  0  0  0  0  0
   39.5980   22.1390   37.0010 H   0  0  0  0  0  0  0  0  0  0  0  0
   36.6880   25.1880   37.1630 H   0  0  0  0  0  0  0  0  0  0  0  0
   37.1660   25.0950   32.4480 C   0  0  2  0  0  3  0  0  0  0  0  0
   38.5830   24.6190   32.4090 C   0  0  2  0  0  3  0  0  0  0  0  0
   38.6030   23.3970   33.0740 O   0  0  0  0  0  0  0  0  0  0  0  0
   37.6740   22.5620   32.5310 C   0  0  0  0  0  2  0  0  0  0  0  0
   37.0270   22.9850   31.2510 C   0  0  2  0  0  3  0  0  0  0  0  0
   36.4160   24.3650   31.3140 C   0  0  1  0  0  3  0  0  0  0  0  0
   37.1210   26.4590   32.3020 O   0  0  0  0  0  0  0  0  0  0  0  0
   36.1810   26.7480   32.4610 H   0  0  0  0  0  0  0  0  0  0  0  0
   35.9770   22.0900   31.0110 O   0  0  0  0  0  0  0  0  0  0  0  0
   36.2770   21.1380   31.0920 H   0  0  0  0  0  0  0  0  0  0  0  0
   35.0470   24.3440   31.5830 O   0  0  0  0  0  0  0  0  0  0  0  0
   34.7410   23.4240   31.6590 H   0  0  0  0  0  0  0  0  0  0  0  0
  1  2  1  0  0  0  0
  2  3  2  0  0  0  0
  2  9  1  0  0  0  0
  3  7  1  0  0  0  0
  4  3  1  0  0  0  0
  5  4  2  0  0  0  0
  6  5  1  0  0  0  0
  6  1  2  0  0  0  0
  8  5  1  0  0  0  0
  9 10  1  0  0  0  0
  9 15  1  0  0  0  0
 10 11  2  0  0  0  0
 11 18  1  0  0  0  0
 11 12  1  0  0  0  0
 12 13  2  0  0  0  0
 14 12  1  0  0  0  0
 14 19  1  0  0  0  0
 15 14  1  0  0  0  0
 16 15  2  0  0  0  0
 17 10  1  0  0  0  0
 20 26  1  6  0  0  0
 21 20  1  0  0  0  0
 21  1  1  1  0  0  0
 21 22  1  0  0  0  0
 23 22  1  0  0  0  0
 24 28  1  1  0  0  0
 24 25  1  0  0  0  0
 24 23  1  0  0  0  0
 25 30  1  1  0  0  0
 25 20  1  0  0  0  0
 26 27  1  0  0  0  0
 28 29  1  0  0  0  0
 30 31  1  0  0  0  0
M  END
>  <minimizedAffinity>
-5.07306147

$$$$
