
 OpenBabel03272500083D

 42 45  0  0  1  0  0  0  0  0999 V2000
   30.9590   27.4730   48.3210 C   0  0  0  0  0  0  0  0  0  0  0  0
   30.7270   27.7880   49.6410 C   0  0  0  0  0  0  0  0  0  0  0  0
   29.4880   28.2210   50.0640 C   0  0  0  0  0  0  0  0  0  0  0  0
   28.4590   28.3370   49.1200 C   0  0  0  0  0  0  0  0  0  0  0  0
   28.7020   28.0170   47.7880 C   0  0  0  0  0  0  0  0  0  0  0  0
   29.9400   27.5920   47.4120 C   0  0  0  0  0  0  0  0  0  0  0  0
   31.4880   27.7150   50.4050 H   0  0  0  0  0  0  0  0  0  0  0  0
   29.3150   28.4680   51.1110 H   0  0  0  0  0  0  0  0  0  0  0  0
   27.5160   28.6830   49.5260 H   0  0  0  0  0  0  0  0  0  0  0  0
   27.8710   28.1280   47.1170 H   0  0  0  0  0  0  0  0  0  0  0  0
   29.8130   25.7990   45.7500 C   0  0  1  0  0  3  0  0  0  0  0  0
   30.1690   27.2450   46.0080 C   0  0  1  0  0  3  0  0  0  0  0  0
   29.4370   28.1160   45.2080 O   0  0  0  0  0  0  0  0  0  0  0  0
   29.1220   27.5760   43.9670 C   0  0  0  0  0  2  0  0  0  0  0  0
   28.0190   26.5710   44.1770 C   0  0  1  0  0  3  0  0  0  0  0  0
   28.4290   25.5790   45.2400 C   0  0  1  0  0  3  0  0  0  0  0  0
   30.7390   25.1730   44.9320 O   0  0  0  0  0  0  0  0  0  0  0  0
   31.6440   25.5500   45.1080 H   0  0  0  0  0  0  0  0  0  0  0  0
   26.8450   27.1830   44.6160 O   0  0  0  0  0  0  0  0  0  0  0  0
   26.2010   26.4210   44.7660 H   0  0  0  0  0  0  0  0  0  0  0  0
   28.4040   24.3070   44.6480 O   0  0  0  0  0  0  0  0  0  0  0  0
   29.2690   23.8340   44.7200 H   0  0  0  0  0  0  0  0  0  0  0  0
   32.2550   27.0530   48.0460 O   0  0  0  0  0  0  0  0  0  0  0  0
   35.2390   28.7720   49.0860 C   0  0  0  0  0  0  0  0  0  0  0  0
   35.1990   29.9680   48.3260 C   0  0  0  0  0  0  0  0  0  0  0  0
   34.1250   30.1470   47.4650 C   0  0  0  0  0  0  0  0  0  0  0  0
   33.1790   29.1700   47.4000 N   0  0  0  0  0  0  0  0  0  0  0  0
   33.2400   28.0530   48.1260 C   0  0  0  0  0  0  0  0  0  0  0  0
   34.2800   27.8350   48.9870 N   0  0  0  0  0  0  0  0  0  0  0  0
   36.0820   28.6260   49.7660 H   0  0  0  0  0  0  0  0  0  0  0  0
   34.0850   31.0560   46.8820 H   0  0  0  0  0  0  0  0  0  0  0  0
   36.2560   30.8980   48.4940 N   0  0  0  0  0  0  0  0  0  0  0  0
   36.4670   31.5400   49.6380 C   0  0  0  0  0  0  0  0  0  0  0  0
   37.5250   32.4360   49.7250 C   0  0  0  0  0  0  0  0  0  0  0  0
   38.2740   32.5840   48.6010 C   0  0  0  0  0  0  0  0  0  0  0  0
   39.2470   33.4000   48.6650 O   0  0  0  0  0  0  0  0  0  0  0  0
   38.0960   31.9650   47.4500 N   0  0  0  0  0  0  0  0  0  0  0  0
   37.0520   31.0910   47.3870 C   0  0  0  0  0  0  0  0  0  0  0  0
   36.8610   30.4830   46.2860 O   0  0  0  0  0  0  0  0  0  0  0  0
   35.7990   31.3370   50.4690 H   0  0  0  0  0  0  0  0  0  0  0  0
   37.6800   32.9480   50.6660 H   0  0  0  0  0  0  0  0  0  0  0  0
   38.7140   32.1320   46.6300 H   0  0  0  0  0  0  0  0  0  0  0  0
  1  2  1  0  0  0  0
  2  3  2  0  0  0  0
  2  7  1  0  0  0  0
  3  8  1  0  0  0  0
  4  9  1  0  0  0  0
  4  3  1  0  0  0  0
  5  4  2  0  0  0  0
  6  5  1  0  0  0  0
  6  1  2  0  0  0  0
 10  5  1  0  0  0  0
 11 17  1  6  0  0  0
 11 12  1  0  0  0  0
 12  6  1  1  0  0  0
 13 12  1  0  0  0  0
 14 15  1  0  0  0  0
 14 13  1  0  0  0  0
 15 19  1  1  0  0  0
 15 16  1  0  0  0  0
 16 21  1  6  0  0  0
 16 11  1  0  0  0  0
 17 18  1  0  0  0  0
 19 20  1  0  0  0  0
 21 22  1  0  0  0  0
 23 28  1  0  0  0  0
 23  1  1  0  0  0  0
 24 30  1  0  0  0  0
 25 32  1  0  0  0  0
 25 24  2  0  0  0  0
 26 25  1  0  0  0  0
 27 26  2  0  0  0  0
 27 28  1  0  0  0  0
 28 29  2  0  0  0  0
 29 24  1  0  0  0  0
 31 26  1  0  0  0  0
 32 33  1  0  0  0  0
 33 34  2  0  0  0  0
 33 40  1  0  0  0  0
 34 41  1  0  0  0  0
 35 36  2  0  0  0  0
 35 34  1  0  0  0  0
 37 35  1  0  0  0  0
 38 37  1  0  0  0  0
 38 32  1  0  0  0  0
 39 38  2  0  0  0  0
 42 37  1  0  0  0  0
M  END
>  <minimizedAffinity>
-6.21931076

>  <minimizedRMSD>
0.654401779

$$$$
