
 OpenBabel03272507503D

 31 33  0  0  1  0  0  0  0  0999 V2000
   36.0900   30.4120   46.4120 C   0  0  0  0  0  0  0  0  0  0  0  0
   36.7670   30.7420   45.2090 C   0  0  0  0  0  0  0  0  0  0  0  0
   36.0610   30.6430   44.0080 C   0  0  0  0  0  0  0  0  0  0  0  0
   34.7680   30.2410   44.0320 N   0  0  0  0  0  0  0  0  0  0  0  0
   34.1410   29.9330   45.1900 C   0  0  0  0  0  0  0  0  0  0  0  0
   34.7950   30.0150   46.3840 N   0  0  0  0  0  0  0  0  0  0  0  0
   36.5940   30.9000   43.0970 H   0  0  0  0  0  0  0  0  0  0  0  0
   33.0990   29.6140   45.1570 H   0  0  0  0  0  0  0  0  0  0  0  0
   38.1170   31.1560   45.2920 N   0  0  0  0  0  0  0  0  0  0  0  0
   38.4600   32.3960   45.6530 C   0  0  0  0  0  0  0  0  0  0  0  0
   39.7840   32.7910   45.7360 C   0  0  0  0  0  0  0  0  0  0  0  0
   40.6790   31.7750   45.4070 C   0  0  0  0  0  0  0  0  0  0  0  0
   41.9090   32.0960   45.4700 O   0  0  0  0  0  0  0  0  0  0  0  0
   40.3790   30.5180   45.0400 N   0  0  0  0  0  0  0  0  0  0  0  0
   39.0600   30.2380   44.9920 C   0  0  0  0  0  0  0  0  0  0  0  0
   38.7600   29.0550   44.6450 O   0  0  0  0  0  0  0  0  0  0  0  0
   37.6990   33.1150   45.8790 H   0  0  0  0  0  0  0  0  0  0  0  0
   40.1320   33.7670   46.0180 H   0  0  0  0  0  0  0  0  0  0  0  0
   41.1240   29.8460   44.8180 H   0  0  0  0  0  0  0  0  0  0  0  0
   35.8780   29.7680   48.8330 C   0  0  2  0  0  0  0  0  0  0  0  0
   36.6730   30.4480   47.7630 C   0  0  2  0  0  0  0  0  0  0  0  0
   36.9510   31.7270   48.2360 O   0  0  0  0  0  0  0  0  0  0  0  0
   37.5390   31.6460   49.4610 C   0  0  0  0  0  0  0  0  0  0  0  0
   37.9800   30.2970   49.9310 C   0  0  2  0  0  0  0  0  0  0  0  0
   36.8860   29.2570   49.8830 C   0  0  1  0  0  0  0  0  0  0  0  0
   35.1320   28.7510   48.2930 O   0  0  0  0  0  0  0  0  0  0  0  0
   34.5260   28.4100   49.0070 H   0  0  0  0  0  0  0  0  0  0  0  0
   38.3490   30.4330   51.2750 O   0  0  0  0  0  0  0  0  0  0  0  0
   38.9730   31.2030   51.4100 H   0  0  0  0  0  0  0  0  0  0  0  0
   36.2460   29.0800   51.1110 O   0  0  0  0  0  0  0  0  0  0  0  0
   36.6530   29.6590   51.7790 H   0  0  0  0  0  0  0  0  0  0  0  0
  2  9  1  0  0  0  0
  2  1  2  0  0  0  0
  3  4  2  0  0  0  0
  3  2  1  0  0  0  0
  4  5  1  0  0  0  0
  5  6  2  0  0  0  0
  6  1  1  0  0  0  0
  7  3  1  0  0  0  0
  8  5  1  0  0  0  0
  9 10  1  0  0  0  0
 10 11  2  0  0  0  0
 10 17  1  0  0  0  0
 11 18  1  0  0  0  0
 12 13  2  0  0  0  0
 12 11  1  0  0  0  0
 14 12  1  0  0  0  0
 15 14  1  0  0  0  0
 15  9  1  0  0  0  0
 16 15  2  0  0  0  0
 19 14  1  0  0  0  0
 20 26  1  6  0  0  0
 20 25  1  0  0  0  0
 21  1  1  6  0  0  0
 21 22  1  0  0  0  0
 21 20  1  0  0  0  0
 22 23  1  0  0  0  0
 23 24  1  0  0  0  0
 24 28  1  1  0  0  0
 25 24  1  0  0  0  0
 25 30  1  1  0  0  0
 26 27  1  0  0  0  0
 28 29  1  0  0  0  0
 30 31  1  0  0  0  0
M  END
>  <minimizedAffinity>
-5.87932634

>  <minimizedRMSD>
3.60312867

$$$$
