
 OpenBabel03272501373D

 39 42  0  0  1  0  0  0  0  0999 V2000
   36.6590   24.2280   31.9390 C   0  0  0  0  0  0  0  0  0  0  0  0
   36.4520   25.5890   31.9230 C   0  0  0  0  0  0  0  0  0  0  0  0
   37.1470   26.4710   32.7750 C   0  0  0  0  0  0  0  0  0  0  0  0
   38.0100   25.9240   33.5930 N   0  0  0  0  0  0  0  0  0  0  0  0
   38.2060   24.5640   33.6000 C   0  0  0  0  0  0  0  0  0  0  0  0
   37.5550   23.7260   32.7990 N   0  0  0  0  0  0  0  0  0  0  0  0
   36.0740   23.6410   31.2440 H   0  0  0  0  0  0  0  0  0  0  0  0
   35.7330   26.0190   31.2340 H   0  0  0  0  0  0  0  0  0  0  0  0
   38.7830   22.5610   34.9450 C   0  0  1  0  0  3  0  0  0  0  0  0
   39.1900   23.9450   34.5340 C   0  0  2  0  0  3  0  0  0  0  0  0
   39.2800   24.8110   35.6400 O   0  0  0  0  0  0  0  0  0  0  0  0
   38.1850   24.5740   36.4930 C   0  0  0  0  0  2  0  0  0  0  0  0
   38.5640   23.3560   37.3110 C   0  0  2  0  0  3  0  0  0  0  0  0
   39.2470   22.3760   36.3830 C   0  0  2  0  0  3  0  0  0  0  0  0
   37.4510   22.2720   34.7660 O   0  0  0  0  0  0  0  0  0  0  0  0
   37.3140   21.3750   34.3360 H   0  0  0  0  0  0  0  0  0  0  0  0
   37.5030   22.8100   38.0070 O   0  0  0  0  0  0  0  0  0  0  0  0
   37.7170   22.6850   38.9870 H   0  0  0  0  0  0  0  0  0  0  0  0
   40.6170   22.7090   36.3970 O   0  0  0  0  0  0  0  0  0  0  0  0
   41.0700   22.2580   37.1660 H   0  0  0  0  0  0  0  0  0  0  0  0
   36.8450   27.8700   32.7080 C   0  0  1  0  0  3  0  0  0  0  0  0
   37.3430   28.6740   31.8280 O   0  0  0  0  0  1  0  0  0  0  0  0
   35.8830   28.4260   33.7310 C   0  0  2  0  0  0  0  0  0  0  0  0
   34.6390   29.0160   32.9320 C   0  0  0  0  0  0  0  0  0  0  0  0
   35.5950   29.8210   33.7770 C   0  0  1  0  0  0  0  0  0  0  0  0
   35.4960   27.6790   34.4750 H   0  0  0  0  0  0  0  0  0  0  0  0
   33.6620   28.7400   33.3730 H   0  0  0  0  0  0  0  0  0  0  0  0
   34.6910   29.0420   31.8520 H   0  0  0  0  0  0  0  0  0  0  0  0
   36.1970   30.5280   33.1170 H   0  0  0  0  0  0  0  0  0  0  0  0
   34.9890   30.5440   34.8950 C   0  0  0  0  0  0  0  0  0  0  0  0
   35.8190   31.3520   35.6560 C   0  0  0  0  0  0  0  0  0  0  0  0
   35.2580   32.0390   36.7080 C   0  0  0  0  0  0  0  0  0  0  0  0
   33.9070   31.9320   37.0070 C   0  0  0  0  0  0  0  0  0  0  0  0
   33.1140   31.1150   36.2230 C   0  0  0  0  0  0  0  0  0  0  0  0
   33.6730   30.4520   35.1990 N   0  0  0  0  0  0  0  0  0  0  0  0
   36.8690   31.5060   35.5140 H   0  0  0  0  0  0  0  0  0  0  0  0
   35.8110   32.6970   37.3670 H   0  0  0  0  0  0  0  0  0  0  0  0
   33.4680   32.4820   37.8470 H   0  0  0  0  0  0  0  0  0  0  0  0
   32.0580   31.0220   36.4430 H   0  0  0  0  0  0  0  0  0  0  0  0
  1  6  1  0  0  0  0
  2  1  2  0  0  0  0
  2  3  1  0  0  0  0
  3  4  2  0  0  0  0
  4  5  1  0  0  0  0
  6  5  2  0  0  0  0
  7  1  1  0  0  0  0
  8  2  1  0  0  0  0
  9 15  1  1  0  0  0
  9 14  1  0  0  0  0
 10  5  1  6  0  0  0
 10  9  1  0  0  0  0
 10 11  1  0  0  0  0
 11 12  1  0  0  0  0
 12 13  1  0  0  0  0
 13 17  1  6  0  0  0
 14 19  1  6  0  0  0
 14 13  1  0  0  0  0
 16 15  1  0  0  0  0
 17 18  1  0  0  0  0
 19 20  1  0  0  0  0
 21 22  1  6  0  0  0
 21  3  1  0  0  0  0
 21 23  1  0  0  0  0
 23 25  1  0  0  0  0
 23 26  1  1  0  0  0
 24 27  1  0  0  0  0
 24 23  1  0  0  0  0
 24 25  1  0  0  0  0
 25 29  1  6  0  0  0
 25 30  1  0  0  0  0
 28 24  1  0  0  0  0
 30 35  2  0  0  0  0
 30 31  1  0  0  0  0
 31 32  2  0  0  0  0
 32 33  1  0  0  0  0
 32 37  1  0  0  0  0
 33 38  1  0  0  0  0
 34 39  1  0  0  0  0
 34 33  2  0  0  0  0
 35 34  1  0  0  0  0
 36 31  1  0  0  0  0
M  END
>  <minimizedAffinity>
-6.35290194

$$$$

 OpenBabel03272501373D

 39 42  0  0  1  0  0  0  0  0999 V2000
   38.4690   27.2660   36.1860 C   0  0  0  0  0  0  0  0  0  0  0  0
   37.6560   27.9690   35.3270 C   0  0  0  0  0  0  0  0  0  0  0  0
   37.1440   27.4090   34.1390 C   0  0  0  0  0  0  0  0  0  0  0  0
   37.4860   26.1700   33.8910 N   0  0  0  0  0  0  0  0  0  0  0  0
   38.2990   25.4790   34.7560 C   0  0  0  0  0  0  0  0  0  0  0  0
   38.7850   26.0010   35.8790 N   0  0  0  0  0  0  0  0  0  0  0  0
   38.8070   27.7890   37.0710 H   0  0  0  0  0  0  0  0  0  0  0  0
   37.3850   28.9940   35.5550 H   0  0  0  0  0  0  0  0  0  0  0  0
   37.9560   23.0940   35.3470 C   0  0  1  0  0  3  0  0  0  0  0  0
   38.6860   24.0680   34.4700 C   0  0  2  0  0  3  0  0  0  0  0  0
   40.0790   23.9970   34.6610 O   0  0  0  0  0  0  0  0  0  0  0  0
   40.3440   23.8850   36.0390 C   0  0  0  0  0  2  0  0  0  0  0  0
   40.1400   22.4210   36.3740 C   0  0  2  0  0  3  0  0  0  0  0  0
   38.9170   21.9460   35.6210 C   0  0  2  0  0  3  0  0  0  0  0  0
   37.4190   23.6340   36.4910 O   0  0  0  0  0  0  0  0  0  0  0  0
   36.4750   23.3300   36.6450 H   0  0  0  0  0  0  0  0  0  0  0  0
   40.0870   22.1700   37.7310 O   0  0  0  0  0  0  0  0  0  0  0  0
   40.7250   21.4370   38.0060 H   0  0  0  0  0  0  0  0  0  0  0  0
   39.3730   21.5090   34.3610 O   0  0  0  0  0  0  0  0  0  0  0  0
   39.6760   20.5570   34.4190 H   0  0  0  0  0  0  0  0  0  0  0  0
   36.3290   28.2260   33.2900 C   0  0  1  0  0  3  0  0  0  0  0  0
   36.4260   28.2510   32.0020 O   0  0  0  0  0  1  0  0  0  0  0  0
   35.2920   29.1020   33.9520 C   0  0  2  0  0  0  0  0  0  0  0  0
   35.2240   30.4580   33.1220 C   0  0  0  0  0  0  0  0  0  0  0  0
   35.6620   30.3360   34.5600 C   0  0  1  0  0  0  0  0  0  0  0  0
   34.2570   28.6670   33.9920 H   0  0  0  0  0  0  0  0  0  0  0  0
   34.1910   30.8000   32.9210 H   0  0  0  0  0  0  0  0  0  0  0  0
   35.9450   30.6090   32.3300 H   0  0  0  0  0  0  0  0  0  0  0  0
   36.7680   30.5920   34.6540 H   0  0  0  0  0  0  0  0  0  0  0  0
   34.8700   31.0990   35.5250 C   0  0  0  0  0  0  0  0  0  0  0  0
   33.5280   30.7730   35.6470 C   0  0  0  0  0  0  0  0  0  0  0  0
   32.7750   31.4820   36.5540 C   0  0  0  0  0  0  0  0  0  0  0  0
   33.3300   32.4940   37.3250 C   0  0  0  0  0  0  0  0  0  0  0  0
   34.6730   32.7880   37.1720 C   0  0  0  0  0  0  0  0  0  0  0  0
   35.3970   32.0870   36.2850 N   0  0  0  0  0  0  0  0  0  0  0  0
   33.0020   30.0150   35.1050 H   0  0  0  0  0  0  0  0  0  0  0  0
   31.7210   31.3130   36.7310 H   0  0  0  0  0  0  0  0  0  0  0  0
   32.7240   33.0550   38.0450 H   0  0  0  0  0  0  0  0  0  0  0  0
   35.1210   33.5740   37.7670 H   0  0  0  0  0  0  0  0  0  0  0  0
  1  7  1  0  0  0  0
  2  8  1  0  0  0  0
  2  1  2  0  0  0  0
  3  2  1  0  0  0  0
  4  3  2  0  0  0  0
  4  5  1  0  0  0  0
  5  6  2  0  0  0  0
  6  1  1  0  0  0  0
  9 14  1  0  0  0  0
  9 15  1  1  0  0  0
 10 11  1  0  0  0  0
 10  5  1  1  0  0  0
 10  9  1  0  0  0  0
 11 12  1  0  0  0  0
 12 13  1  0  0  0  0
 13 17  1  1  0  0  0
 14 19  1  6  0  0  0
 14 13  1  0  0  0  0
 15 16  1  0  0  0  0
 17 18  1  0  0  0  0
 19 20  1  0  0  0  0
 21 22  1  6  0  0  0
 21 23  1  0  0  0  0
 21  3  1  0  0  0  0
 23 26  1  1  0  0  0
 23 25  1  0  0  0  0
 24 23  1  0  0  0  0
 24 25  1  0  0  0  0
 25 29  1  1  0  0  0
 25 30  1  0  0  0  0
 27 24  1  0  0  0  0
 28 24  1  0  0  0  0
 30 31  2  0  0  0  0
 30 35  1  0  0  0  0
 31 32  1  0  0  0  0
 32 37  1  0  0  0  0
 32 33  2  0  0  0  0
 33 38  1  0  0  0  0
 34 33  1  0  0  0  0
 34 39  1  0  0  0  0
 35 34  2  0  0  0  0
 36 31  1  0  0  0  0
M  END
>  <minimizedAffinity>
-6.01193428

$$$$

 OpenBabel03272501373D

 39 42  0  0  1  0  0  0  0  0999 V2000
   37.7350   27.4930   35.2430 C   0  0  0  0  0  0  0  0  0  0  0  0
   37.3120   27.3770   33.9390 C   0  0  0  0  0  0  0  0  0  0  0  0
   37.3250   26.1490   33.2450 C   0  0  0  0  0  0  0  0  0  0  0  0
   37.7640   25.1140   33.9130 N   0  0  0  0  0  0  0  0  0  0  0  0
   38.1840   25.2430   35.2140 C   0  0  0  0  0  0  0  0  0  0  0  0
   38.1740   26.3970   35.8760 N   0  0  0  0  0  0  0  0  0  0  0  0
   37.6840   28.4810   35.6830 H   0  0  0  0  0  0  0  0  0  0  0  0
   36.9500   28.2500   33.4070 H   0  0  0  0  0  0  0  0  0  0  0  0
   40.1830   24.0010   35.9980 C   0  0  1  0  0  3  0  0  0  0  0  0
   38.6850   24.0600   35.9720 C   0  0  2  0  0  3  0  0  0  0  0  0
   38.1300   22.9290   35.3430 O   0  0  0  0  0  0  0  0  0  0  0  0
   38.8880   22.6290   34.1960 C   0  0  0  0  0  2  0  0  0  0  0  0
   40.0960   21.8620   34.6960 C   0  0  2  0  0  3  0  0  0  0  0  0
   40.5640   22.5270   35.9710 C   0  0  2  0  0  3  0  0  0  0  0  0
   40.8100   24.7380   35.0220 O   0  0  0  0  0  0  0  0  0  0  0  0
   41.5720   25.2790   35.3880 H   0  0  0  0  0  0  0  0  0  0  0  0
   41.0900   21.7220   33.7480 O   0  0  0  0  0  0  0  0  0  0  0  0
   41.3800   20.7600   33.6420 H   0  0  0  0  0  0  0  0  0  0  0  0
   39.8460   21.9190   37.0220 O   0  0  0  0  0  0  0  0  0  0  0  0
   40.3120   21.0840   37.3150 H   0  0  0  0  0  0  0  0  0  0  0  0
   36.8930   26.1290   31.8790 C   0  0  1  0  0  3  0  0  0  0  0  0
   36.6680   27.1900   31.1770 O   0  0  0  0  0  1  0  0  0  0  0  0
   36.6980   24.7790   31.2300 C   0  0  2  0  0  0  0  0  0  0  0  0
   35.1300   24.5630   31.0590 C   0  0  0  0  0  0  0  0  0  0  0  0
   36.0380   23.7250   31.9250 C   0  0  1  0  0  0  0  0  0  0  0  0
   37.1760   24.6640   30.2200 H   0  0  0  0  0  0  0  0  0  0  0  0
   34.8460   24.1640   30.0660 H   0  0  0  0  0  0  0  0  0  0  0  0
   34.4620   25.2950   31.4940 H   0  0  0  0  0  0  0  0  0  0  0  0
   35.7730   23.8730   33.0230 H   0  0  0  0  0  0  0  0  0  0  0  0
   36.0870   22.3020   31.5900 C   0  0  0  0  0  0  0  0  0  0  0  0
   35.0580   21.5010   32.0600 C   0  0  0  0  0  0  0  0  0  0  0  0
   35.0940   20.1610   31.7490 C   0  0  0  0  0  0  0  0  0  0  0  0
   36.1220   19.6200   30.9900 C   0  0  0  0  0  0  0  0  0  0  0  0
   37.1290   20.4540   30.5400 C   0  0  0  0  0  0  0  0  0  0  0  0
   37.0820   21.7580   30.8510 N   0  0  0  0  0  0  0  0  0  0  0  0
   34.2210   21.8130   32.6510 H   0  0  0  0  0  0  0  0  0  0  0  0
   34.3450   19.4450   32.0620 H   0  0  0  0  0  0  0  0  0  0  0  0
   36.1440   18.5510   30.7460 H   0  0  0  0  0  0  0  0  0  0  0  0
   37.9380   20.0460   29.9470 H   0  0  0  0  0  0  0  0  0  0  0  0
  1  7  1  0  0  0  0
  1  6  1  0  0  0  0
  2  1  2  0  0  0  0
  3  4  2  0  0  0  0
  3  2  1  0  0  0  0
  4  5  1  0  0  0  0
  5  6  2  0  0  0  0
  8  2  1  0  0  0  0
  9 15  1  6  0  0  0
 10  5  1  6  0  0  0
 10  9  1  0  0  0  0
 11 10  1  0  0  0  0
 12 13  1  0  0  0  0
 12 11  1  0  0  0  0
 13 17  1  6  0  0  0
 13 14  1  0  0  0  0
 14  9  1  0  0  0  0
 14 19  1  1  0  0  0
 15 16  1  0  0  0  0
 18 17  1  0  0  0  0
 19 20  1  0  0  0  0
 21 22  1  6  0  0  0
 21  3  1  0  0  0  0
 23 26  1  6  0  0  0
 23 21  1  0  0  0  0
 23 25  1  0  0  0  0
 24 23  1  0  0  0  0
 24 28  1  0  0  0  0
 24 25  1  0  0  0  0
 25 29  1  1  0  0  0
 27 24  1  0  0  0  0
 30 25  1  0  0  0  0
 30 31  1  0  0  0  0
 31 36  1  0  0  0  0
 32 31  2  0  0  0  0
 32 37  1  0  0  0  0
 33 32  1  0  0  0  0
 34 35  1  0  0  0  0
 34 33  2  0  0  0  0
 35 30  2  0  0  0  0
 38 33  1  0  0  0  0
 39 34  1  0  0  0  0
M  END
>  <minimizedAffinity>
-5.90542698

$$$$

 OpenBabel03272501373D

 39 42  0  0  1  0  0  0  0  0999 V2000
   36.9090   28.9280   30.1140 C   0  0  0  0  0  0  0  0  0  0  0  0
   37.6760   27.9280   30.6670 C   0  0  0  0  0  0  0  0  0  0  0  0
   37.5010   27.4850   31.9940 C   0  0  0  0  0  0  0  0  0  0  0  0
   36.5580   28.0790   32.6810 N   0  0  0  0  0  0  0  0  0  0  0  0
   35.8000   29.0750   32.1170 C   0  0  0  0  0  0  0  0  0  0  0  0
   35.9590   29.4990   30.8670 N   0  0  0  0  0  0  0  0  0  0  0  0
   37.1250   29.1940   29.0880 H   0  0  0  0  0  0  0  0  0  0  0  0
   38.4500   27.4500   30.0770 H   0  0  0  0  0  0  0  0  0  0  0  0
   34.8770   31.2420   32.8970 C   0  0  1  0  0  3  0  0  0  0  0  0
   34.7270   29.7500   32.9050 C   0  0  2  0  0  3  0  0  0  0  0  0
   34.8080   29.2250   34.2080 O   0  0  0  0  0  0  0  0  0  0  0  0
   35.8490   29.8770   34.8970 C   0  0  0  0  0  2  0  0  0  0  0  0
   35.2600   31.1900   35.3730 C   0  0  2  0  0  3  0  0  0  0  0  0
   34.4000   31.7370   34.2560 C   0  0  2  0  0  3  0  0  0  0  0  0
   36.1310   31.6970   32.5670 O   0  0  0  0  0  0  0  0  0  0  0  0
   36.0970   32.4480   31.9010 H   0  0  0  0  0  0  0  0  0  0  0  0
   36.2090   32.0840   35.8290 O   0  0  0  0  0  0  0  0  0  0  0  0
   35.9840   32.4380   36.7480 H   0  0  0  0  0  0  0  0  0  0  0  0
   33.1140   31.1880   34.4410 O   0  0  0  0  0  0  0  0  0  0  0  0
   32.5930   31.7500   35.0840 H   0  0  0  0  0  0  0  0  0  0  0  0
   38.3660   26.4580   32.4950 C   0  0  1  0  0  3  0  0  0  0  0  0
   39.2320   25.8290   31.7720 O   0  0  0  0  0  1  0  0  0  0  0  0
   38.2530   26.1040   33.9590 C   0  0  2  0  0  0  0  0  0  0  0  0
   39.4880   26.7790   34.7010 C   0  0  0  0  0  0  0  0  0  0  0  0
   39.2410   25.2940   34.5900 C   0  0  1  0  0  0  0  0  0  0  0  0
   37.3120   26.4540   34.4610 H   0  0  0  0  0  0  0  0  0  0  0  0
   39.2110   27.2820   35.6470 H   0  0  0  0  0  0  0  0  0  0  0  0
   40.2440   27.2650   34.0990 H   0  0  0  0  0  0  0  0  0  0  0  0
   40.0490   24.8120   33.9480 H   0  0  0  0  0  0  0  0  0  0  0  0
   39.0970   24.5850   35.8610 C   0  0  0  0  0  0  0  0  0  0  0  0
   38.0930   25.0090   36.7170 C   0  0  0  0  0  0  0  0  0  0  0  0
   37.9470   24.3470   37.9150 C   0  0  0  0  0  0  0  0  0  0  0  0
   38.7740   23.2880   38.2630 C   0  0  0  0  0  0  0  0  0  0  0  0
   39.7640   22.8960   37.3810 C   0  0  0  0  0  0  0  0  0  0  0  0
   39.8940   23.5500   36.2160 N   0  0  0  0  0  0  0  0  0  0  0  0
   37.4030   25.8100   36.5480 H   0  0  0  0  0  0  0  0  0  0  0  0
   37.1980   24.5920   38.6570 H   0  0  0  0  0  0  0  0  0  0  0  0
   38.6520   22.7650   39.2190 H   0  0  0  0  0  0  0  0  0  0  0  0
   40.4160   22.0710   37.6380 H   0  0  0  0  0  0  0  0  0  0  0  0
  1  2  2  0  0  0  0
  1  6  1  0  0  0  0
  2  3  1  0  0  0  0
  3 21  1  0  0  0  0
  3  4  2  0  0  0  0
  5  4  1  0  0  0  0
  6  5  2  0  0  0  0
  7  1  1  0  0  0  0
  8  2  1  0  0  0  0
  9 15  1  1  0  0  0
  9 10  1  0  0  0  0
  9 14  1  0  0  0  0
 10  5  1  6  0  0  0
 10 11  1  0  0  0  0
 11 12  1  0  0  0  0
 12 13  1  0  0  0  0
 13 17  1  6  0  0  0
 14 19  1  1  0  0  0
 14 13  1  0  0  0  0
 16 15  1  0  0  0  0
 17 18  1  0  0  0  0
 19 20  1  0  0  0  0
 21 22  1  1  0  0  0
 21 23  1  0  0  0  0
 23 26  1  1  0  0  0
 23 25  1  0  0  0  0
 23 24  1  0  0  0  0
 24 27  1  0  0  0  0
 25 29  1  6  0  0  0
 25 24  1  0  0  0  0
 25 30  1  0  0  0  0
 28 24  1  0  0  0  0
 30 35  2  0  0  0  0
 30 31  1  0  0  0  0
 31 32  2  0  0  0  0
 32 33  1  0  0  0  0
 32 37  1  0  0  0  0
 33 38  1  0  0  0  0
 34 39  1  0  0  0  0
 34 33  2  0  0  0  0
 35 34  1  0  0  0  0
 36 31  1  0  0  0  0
M  END
>  <minimizedAffinity>
-5.86009645

$$$$

 OpenBabel03272501373D

 39 42  0  0  1  0  0  0  0  0999 V2000
   36.9710   27.3410   34.6420 C   0  0  0  0  0  0  0  0  0  0  0  0
   36.8330   27.0320   33.3070 C   0  0  0  0  0  0  0  0  0  0  0  0
   37.4880   25.9350   32.7120 C   0  0  0  0  0  0  0  0  0  0  0  0
   38.2420   25.2150   33.5030 N   0  0  0  0  0  0  0  0  0  0  0  0
   38.3710   25.5340   34.8330 C   0  0  0  0  0  0  0  0  0  0  0  0
   37.7570   26.5670   35.4010 N   0  0  0  0  0  0  0  0  0  0  0  0
   36.4250   28.2050   34.9980 H   0  0  0  0  0  0  0  0  0  0  0  0
   36.2010   27.6440   32.6730 H   0  0  0  0  0  0  0  0  0  0  0  0
   38.9530   23.2440   35.5890 C   0  0  1  0  0  3  0  0  0  0  0  0
   39.2330   24.7110   35.7300 C   0  0  2  0  0  3  0  0  0  0  0  0
   38.9820   25.1650   37.0390 O   0  0  0  0  0  0  0  0  0  0  0  0
   37.7870   24.5820   37.5010 C   0  0  0  0  0  2  0  0  0  0  0  0
   38.1680   23.1910   37.9680 C   0  0  2  0  0  3  0  0  0  0  0  0
   39.1500   22.6260   36.9660 C   0  0  2  0  0  3  0  0  0  0  0  0
   37.7360   22.9370   35.0290 O   0  0  0  0  0  0  0  0  0  0  0  0
   37.8140   22.2260   34.3240 H   0  0  0  0  0  0  0  0  0  0  0  0
   37.0800   22.3710   38.1980 O   0  0  0  0  0  0  0  0  0  0  0  0
   37.1150   21.9440   39.1130 H   0  0  0  0  0  0  0  0  0  0  0  0
   40.4310   23.0310   37.3960 O   0  0  0  0  0  0  0  0  0  0  0  0
   40.7840   22.3830   38.0720 H   0  0  0  0  0  0  0  0  0  0  0  0
   37.3090   25.7070   31.3090 C   0  0  1  0  0  3  0  0  0  0  0  0
   37.5200   26.6010   30.4000 O   0  0  0  0  0  1  0  0  0  0  0  0
   36.8520   24.3340   30.8780 C   0  0  2  0  0  0  0  0  0  0  0  0
   35.2610   24.3320   30.9310 C   0  0  0  0  0  0  0  0  0  0  0  0
   36.1640   23.4770   31.7860 C   0  0  1  0  0  0  0  0  0  0  0  0
   37.1650   24.0310   29.8430 H   0  0  0  0  0  0  0  0  0  0  0  0
   34.7920   23.8650   30.0440 H   0  0  0  0  0  0  0  0  0  0  0  0
   34.7610   25.2000   31.3410 H   0  0  0  0  0  0  0  0  0  0  0  0
   36.0770   23.7910   32.8780 H   0  0  0  0  0  0  0  0  0  0  0  0
   35.9810   22.0330   31.6450 C   0  0  0  0  0  0  0  0  0  0  0  0
   36.9150   21.3430   30.8880 C   0  0  0  0  0  0  0  0  0  0  0  0
   36.7540   19.9840   30.7510 C   0  0  0  0  0  0  0  0  0  0  0  0
   35.6930   19.3160   31.3460 C   0  0  0  0  0  0  0  0  0  0  0  0
   34.7830   20.0410   32.0930 C   0  0  0  0  0  0  0  0  0  0  0  0
   34.9530   21.3660   32.2190 N   0  0  0  0  0  0  0  0  0  0  0  0
   37.7660   21.7580   30.3880 H   0  0  0  0  0  0  0  0  0  0  0  0
   37.4210   19.3480   30.1840 H   0  0  0  0  0  0  0  0  0  0  0  0
   35.5710   18.2320   31.2320 H   0  0  0  0  0  0  0  0  0  0  0  0
   33.9510   19.5330   32.5640 H   0  0  0  0  0  0  0  0  0  0  0  0
  1  7  1  0  0  0  0
  1  6  1  0  0  0  0
  2  1  2  0  0  0  0
  3  2  1  0  0  0  0
  3  4  2  0  0  0  0
  4  5  1  0  0  0  0
  5  6  2  0  0  0  0
  8  2  1  0  0  0  0
  9 15  1  1  0  0  0
  9 10  1  0  0  0  0
  9 14  1  0  0  0  0
 10  5  1  6  0  0  0
 10 11  1  0  0  0  0
 11 12  1  0  0  0  0
 12 13  1  0  0  0  0
 13 17  1  6  0  0  0
 14 19  1  1  0  0  0
 14 13  1  0  0  0  0
 16 15  1  0  0  0  0
 17 18  1  0  0  0  0
 19 20  1  0  0  0  0
 21 22  1  6  0  0  0
 21  3  1  0  0  0  0
 23 26  1  6  0  0  0
 23 24  1  0  0  0  0
 23 21  1  0  0  0  0
 23 25  1  0  0  0  0
 24 28  1  0  0  0  0
 24 25  1  0  0  0  0
 25 29  1  1  0  0  0
 27 24  1  0  0  0  0
 30 25  1  0  0  0  0
 30 35  1  0  0  0  0
 31 30  2  0  0  0  0
 32 31  1  0  0  0  0
 32 33  2  0  0  0  0
 33 34  1  0  0  0  0
 34 35  2  0  0  0  0
 34 39  1  0  0  0  0
 36 31  1  0  0  0  0
 37 32  1  0  0  0  0
 38 33  1  0  0  0  0
M  END
>  <minimizedAffinity>
-5.77922106

$$$$

 OpenBabel03272501373D

 39 42  0  0  1  0  0  0  0  0999 V2000
   36.1150   30.2560   31.7970 C   0  0  0  0  0  0  0  0  0  0  0  0
   36.5720   28.9760   32.0090 C   0  0  0  0  0  0  0  0  0  0  0  0
   36.3750   28.2930   33.2280 C   0  0  0  0  0  0  0  0  0  0  0  0
   35.7270   28.9480   34.1570 N   0  0  0  0  0  0  0  0  0  0  0  0
   35.2760   30.2260   33.9320 C   0  0  0  0  0  0  0  0  0  0  0  0
   35.4580   30.8760   32.7860 N   0  0  0  0  0  0  0  0  0  0  0  0
   36.3190   30.6890   30.8260 H   0  0  0  0  0  0  0  0  0  0  0  0
   37.1050   28.4530   31.2230 H   0  0  0  0  0  0  0  0  0  0  0  0
   33.3460   30.2050   35.4910 C   0  0  1  0  0  3  0  0  0  0  0  0
   34.5390   30.9690   34.9950 C   0  0  2  0  0  3  0  0  0  0  0  0
   34.1670   32.2010   34.4260 O   0  0  0  0  0  0  0  0  0  0  0  0
   33.0180   32.0100   33.6360 C   0  0  0  0  0  2  0  0  0  0  0  0
   31.8540   32.0120   34.6060 C   0  0  2  0  0  3  0  0  0  0  0  0
   32.2780   31.2350   35.8320 C   0  0  2  0  0  3  0  0  0  0  0  0
   32.8960   29.2200   34.6460 O   0  0  0  0  0  0  0  0  0  0  0  0
   32.7090   28.3620   35.1320 H   0  0  0  0  0  0  0  0  0  0  0  0
   30.6720   31.5630   34.0470 O   0  0  0  0  0  0  0  0  0  0  0  0
   29.9120   32.2110   34.1990 H   0  0  0  0  0  0  0  0  0  0  0  0
   32.8920   32.1640   36.6960 O   0  0  0  0  0  0  0  0  0  0  0  0
   32.1990   32.6190   37.2550 H   0  0  0  0  0  0  0  0  0  0  0  0
   36.9110   26.9720   33.3690 C   0  0  1  0  0  3  0  0  0  0  0  0
   37.1360   26.1750   32.3780 O   0  0  0  0  0  1  0  0  0  0  0  0
   37.2340   26.4970   34.7660 C   0  0  2  0  0  0  0  0  0  0  0  0
   38.6870   27.0400   35.1220 C   0  0  0  0  0  0  0  0  0  0  0  0
   38.3050   25.5850   34.9950 C   0  0  1  0  0  0  0  0  0  0  0  0
   36.5260   26.8490   35.5630 H   0  0  0  0  0  0  0  0  0  0  0  0
   38.7580   27.4710   36.1390 H   0  0  0  0  0  0  0  0  0  0  0  0
   39.2510   27.5380   34.3450 H   0  0  0  0  0  0  0  0  0  0  0  0
   38.8320   25.1210   34.0990 H   0  0  0  0  0  0  0  0  0  0  0  0
   38.5110   24.7750   36.1950 C   0  0  0  0  0  0  0  0  0  0  0  0
   37.8520   25.1680   37.3500 C   0  0  0  0  0  0  0  0  0  0  0  0
   38.0370   24.4110   38.4840 C   0  0  0  0  0  0  0  0  0  0  0  0
   38.8550   23.2900   38.4830 C   0  0  0  0  0  0  0  0  0  0  0  0
   39.4930   22.9320   37.3100 C   0  0  0  0  0  0  0  0  0  0  0  0
   39.3040   23.6780   36.2110 N   0  0  0  0  0  0  0  0  0  0  0  0
   37.2020   26.0120   37.4610 H   0  0  0  0  0  0  0  0  0  0  0  0
   37.5740   24.6250   39.4390 H   0  0  0  0  0  0  0  0  0  0  0  0
   38.9970   22.6910   39.3900 H   0  0  0  0  0  0  0  0  0  0  0  0
   40.1340   22.0590   37.2930 H   0  0  0  0  0  0  0  0  0  0  0  0
  1  2  2  0  0  0  0
  1  6  1  0  0  0  0
  2  3  1  0  0  0  0
  3 21  1  0  0  0  0
  3  4  2  0  0  0  0
  5  4  1  0  0  0  0
  6  5  2  0  0  0  0
  7  1  1  0  0  0  0
  8  2  1  0  0  0  0
  9 15  1  6  0  0  0
  9 14  1  0  0  0  0
 10  5  1  6  0  0  0
 10  9  1  0  0  0  0
 11 10  1  0  0  0  0
 12 11  1  0  0  0  0
 12 13  1  0  0  0  0
 13 17  1  6  0  0  0
 13 14  1  0  0  0  0
 14 19  1  1  0  0  0
 15 16  1  0  0  0  0
 17 18  1  0  0  0  0
 19 20  1  0  0  0  0
 21 22  1  6  0  0  0
 21 23  1  0  0  0  0
 23 25  1  0  0  0  0
 23 24  1  0  0  0  0
 23 26  1  1  0  0  0
 24 27  1  0  0  0  0
 25 29  1  6  0  0  0
 25 24  1  0  0  0  0
 25 30  1  0  0  0  0
 28 24  1  0  0  0  0
 30 35  2  0  0  0  0
 30 31  1  0  0  0  0
 31 36  1  0  0  0  0
 31 32  2  0  0  0  0
 32 37  1  0  0  0  0
 33 32  1  0  0  0  0
 33 38  1  0  0  0  0
 34 33  2  0  0  0  0
 35 34  1  0  0  0  0
 39 34  1  0  0  0  0
M  END
>  <minimizedAffinity>
-5.75068951

$$$$

 OpenBabel03272501373D

 39 42  0  0  1  0  0  0  0  0999 V2000
   35.9570   31.1910   35.7240 C   0  0  0  0  0  0  0  0  0  0  0  0
   36.6020   30.0640   35.2680 C   0  0  0  0  0  0  0  0  0  0  0  0
   35.9280   29.0270   34.5900 C   0  0  0  0  0  0  0  0  0  0  0  0
   34.6410   29.1940   34.4150 N   0  0  0  0  0  0  0  0  0  0  0  0
   34.0100   30.3240   34.8760 C   0  0  0  0  0  0  0  0  0  0  0  0
   34.6400   31.3050   35.5150 N   0  0  0  0  0  0  0  0  0  0  0  0
   36.5680   31.9260   36.2320 H   0  0  0  0  0  0  0  0  0  0  0  0
   37.6690   29.9500   35.4240 H   0  0  0  0  0  0  0  0  0  0  0  0
   31.9040   31.2330   35.8220 C   0  0  1  0  0  3  0  0  0  0  0  0
   32.5440   30.5090   34.6740 C   0  0  2  0  0  3  0  0  0  0  0  0
   32.0050   29.2200   34.5070 O   0  0  0  0  0  0  0  0  0  0  0  0
   31.8470   28.6250   35.7730 C   0  0  0  0  0  2  0  0  0  0  0  0
   30.5520   29.1850   36.3260 C   0  0  2  0  0  3  0  0  0  0  0  0
   30.5040   30.6560   35.9780 C   0  0  2  0  0  3  0  0  0  0  0  0
   32.6270   31.2190   36.9910 O   0  0  0  0  0  0  0  0  0  0  0  0
   32.6700   32.1260   37.4190 H   0  0  0  0  0  0  0  0  0  0  0  0
   30.3720   28.9280   37.6710 O   0  0  0  0  0  0  0  0  0  0  0  0
   29.4720   28.5090   37.8600 H   0  0  0  0  0  0  0  0  0  0  0  0
   29.9030   30.7430   34.7060 O   0  0  0  0  0  0  0  0  0  0  0  0
   28.9070   30.7580   34.8000 H   0  0  0  0  0  0  0  0  0  0  0  0
   36.6750   27.8770   34.1760 C   0  0  1  0  0  3  0  0  0  0  0  0
   36.7600   27.4750   32.9520 O   0  0  0  0  0  1  0  0  0  0  0  0
   37.4090   27.1010   35.2440 C   0  0  2  0  0  0  0  0  0  0  0  0
   38.9640   27.2270   34.9310 C   0  0  0  0  0  0  0  0  0  0  0  0
   38.1700   25.9440   34.9090 C   0  0  1  0  0  0  0  0  0  0  0  0
   37.2360   27.4580   36.2950 H   0  0  0  0  0  0  0  0  0  0  0  0
   39.5770   27.4440   35.8260 H   0  0  0  0  0  0  0  0  0  0  0  0
   39.2630   27.7140   34.0120 H   0  0  0  0  0  0  0  0  0  0  0  0
   38.1140   25.5380   33.8470 H   0  0  0  0  0  0  0  0  0  0  0  0
   38.6250   24.9080   35.8370 C   0  0  0  0  0  0  0  0  0  0  0  0
   37.9520   24.7930   37.0430 C   0  0  0  0  0  0  0  0  0  0  0  0
   38.3710   23.8200   37.9210 C   0  0  0  0  0  0  0  0  0  0  0  0
   39.4320   22.9780   37.6200 C   0  0  0  0  0  0  0  0  0  0  0  0
   40.0770   23.1260   36.4050 C   0  0  0  0  0  0  0  0  0  0  0  0
   39.6570   24.0790   35.5580 N   0  0  0  0  0  0  0  0  0  0  0  0
   37.1250   25.3870   37.3750 H   0  0  0  0  0  0  0  0  0  0  0  0
   37.9190   23.6410   38.8890 H   0  0  0  0  0  0  0  0  0  0  0  0
   39.7590   22.2050   38.3250 H   0  0  0  0  0  0  0  0  0  0  0  0
   40.9050   22.4760   36.1550 H   0  0  0  0  0  0  0  0  0  0  0  0
  1  7  1  0  0  0  0
  2  8  1  0  0  0  0
  2  1  2  0  0  0  0
  3  2  1  0  0  0  0
  4  3  2  0  0  0  0
  4  5  1  0  0  0  0
  5  6  2  0  0  0  0
  6  1  1  0  0  0  0
  9 14  1  0  0  0  0
  9 15  1  1  0  0  0
 10  5  1  1  0  0  0
 10  9  1  0  0  0  0
 11 10  1  0  0  0  0
 11 12  1  0  0  0  0
 12 13  1  0  0  0  0
 13 17  1  1  0  0  0
 14 19  1  6  0  0  0
 14 13  1  0  0  0  0
 15 16  1  0  0  0  0
 17 18  1  0  0  0  0
 19 20  1  0  0  0  0
 21 22  1  6  0  0  0
 21  3  1  0  0  0  0
 21 23  1  0  0  0  0
 23 26  1  1  0  0  0
 24 23  1  0  0  0  0
 24 27  1  0  0  0  0
 25 29  1  6  0  0  0
 25 24  1  0  0  0  0
 25 23  1  0  0  0  0
 25 30  1  0  0  0  0
 28 24  1  0  0  0  0
 30 31  1  0  0  0  0
 31 36  1  0  0  0  0
 31 32  2  0  0  0  0
 32 37  1  0  0  0  0
 33 32  1  0  0  0  0
 33 38  1  0  0  0  0
 34 33  2  0  0  0  0
 35 30  2  0  0  0  0
 35 34  1  0  0  0  0
 39 34  1  0  0  0  0
M  END
>  <minimizedAffinity>
-5.75067282

$$$$

 OpenBabel03272501373D

 39 42  0  0  1  0  0  0  0  0999 V2000
   38.0260   25.0920   35.2820 C   0  0  0  0  0  0  0  0  0  0  0  0
   37.6060   26.3250   34.8380 C   0  0  0  0  0  0  0  0  0  0  0  0
   37.2660   26.5700   33.4920 C   0  0  0  0  0  0  0  0  0  0  0  0
   37.3690   25.5520   32.6770 N   0  0  0  0  0  0  0  0  0  0  0  0
   37.7900   24.3260   33.1330 C   0  0  0  0  0  0  0  0  0  0  0  0
   38.1120   24.0880   34.4010 N   0  0  0  0  0  0  0  0  0  0  0  0
   38.2630   25.0110   36.3350 H   0  0  0  0  0  0  0  0  0  0  0  0
   37.5270   27.1530   35.5340 H   0  0  0  0  0  0  0  0  0  0  0  0
   36.7000   23.0310   31.3180 C   0  0  1  0  0  3  0  0  0  0  0  0
   37.9060   23.1690   32.1990 C   0  0  2  0  0  3  0  0  0  0  0  0
   38.0940   22.0320   33.0060 O   0  0  0  0  0  0  0  0  0  0  0  0
   36.8450   21.6170   33.5070 C   0  0  0  0  0  2  0  0  0  0  0  0
   36.2040   20.8200   32.3890 C   0  0  2  0  0  3  0  0  0  0  0  0
   36.4920   21.5400   31.0900 C   0  0  2  0  0  3  0  0  0  0  0  0
   35.5720   23.6690   31.7770 O   0  0  0  0  0  0  0  0  0  0  0  0
   35.1130   24.1910   31.0530 H   0  0  0  0  0  0  0  0  0  0  0  0
   34.8620   20.5660   32.5940 O   0  0  0  0  0  0  0  0  0  0  0  0
   34.6420   19.5860   32.4940 H   0  0  0  0  0  0  0  0  0  0  0  0
   37.7270   21.0410   30.6260 O   0  0  0  0  0  0  0  0  0  0  0  0
   37.5800   20.2030   30.1010 H   0  0  0  0  0  0  0  0  0  0  0  0
   36.8670   27.8930   33.1150 C   0  0  1  0  0  3  0  0  0  0  0  0
   37.2840   28.4970   32.0510 O   0  0  0  0  0  1  0  0  0  0  0  0
   35.8960   28.6140   34.0200 C   0  0  2  0  0  0  0  0  0  0  0  0
   34.6470   29.0350   33.1280 C   0  0  0  0  0  0  0  0  0  0  0  0
   35.5930   29.9910   33.8130 C   0  0  1  0  0  0  0  0  0  0  0  0
   35.5160   28.0100   34.8870 H   0  0  0  0  0  0  0  0  0  0  0  0
   33.6730   28.8320   33.6120 H   0  0  0  0  0  0  0  0  0  0  0  0
   34.7010   28.8660   32.0600 H   0  0  0  0  0  0  0  0  0  0  0  0
   36.1880   30.5740   33.0360 H   0  0  0  0  0  0  0  0  0  0  0  0
   34.9760   30.8970   34.7820 C   0  0  0  0  0  0  0  0  0  0  0  0
   35.7730   31.3600   35.8170 C   0  0  0  0  0  0  0  0  0  0  0  0
   35.2040   32.2160   36.7330 C   0  0  0  0  0  0  0  0  0  0  0  0
   33.8760   32.6080   36.6310 C   0  0  0  0  0  0  0  0  0  0  0  0
   33.1160   32.1230   35.5830 C   0  0  0  0  0  0  0  0  0  0  0  0
   33.6840   31.2900   34.6970 N   0  0  0  0  0  0  0  0  0  0  0  0
   36.8030   31.1230   35.9890 H   0  0  0  0  0  0  0  0  0  0  0  0
   35.7310   32.6370   37.5790 H   0  0  0  0  0  0  0  0  0  0  0  0
   33.4300   33.2890   37.3640 H   0  0  0  0  0  0  0  0  0  0  0  0
   32.0790   32.4200   35.4900 H   0  0  0  0  0  0  0  0  0  0  0  0
  1  7  1  0  0  0  0
  2  1  1  0  0  0  0
  2  8  1  0  0  0  0
  3  2  2  0  0  0  0
  4  5  2  0  0  0  0
  4  3  1  0  0  0  0
  5  6  1  0  0  0  0
  6  1  2  0  0  0  0
  9 15  1  1  0  0  0
  9 10  1  0  0  0  0
 10 11  1  0  0  0  0
 10  5  1  1  0  0  0
 11 12  1  0  0  0  0
 13 17  1  1  0  0  0
 13 12  1  0  0  0  0
 14 19  1  1  0  0  0
 14  9  1  0  0  0  0
 14 13  1  0  0  0  0
 16 15  1  0  0  0  0
 18 17  1  0  0  0  0
 20 19  1  0  0  0  0
 21 22  1  6  0  0  0
 21  3  1  0  0  0  0
 21 23  1  0  0  0  0
 23 26  1  1  0  0  0
 24 27  1  0  0  0  0
 24 25  1  0  0  0  0
 24 23  1  0  0  0  0
 25 29  1  6  0  0  0
 25 23  1  0  0  0  0
 25 30  1  0  0  0  0
 28 24  1  0  0  0  0
 30 31  1  0  0  0  0
 31 36  1  0  0  0  0
 31 32  2  0  0  0  0
 32 37  1  0  0  0  0
 33 32  1  0  0  0  0
 33 38  1  0  0  0  0
 34 33  2  0  0  0  0
 35 30  2  0  0  0  0
 35 34  1  0  0  0  0
 39 34  1  0  0  0  0
M  END
>  <minimizedAffinity>
-5.73676062

$$$$

 OpenBabel03272501373D

 39 42  0  0  1  0  0  0  0  0999 V2000
   37.3920   28.9110   30.6600 C   0  0  0  0  0  0  0  0  0  0  0  0
   37.5060   27.6460   31.1910 C   0  0  0  0  0  0  0  0  0  0  0  0
   36.8530   27.2620   32.3800 C   0  0  0  0  0  0  0  0  0  0  0  0
   36.1240   28.1810   32.9610 N   0  0  0  0  0  0  0  0  0  0  0  0
   36.0190   29.4390   32.4210 C   0  0  0  0  0  0  0  0  0  0  0  0
   36.6310   29.8090   31.2990 N   0  0  0  0  0  0  0  0  0  0  0  0
   37.9340   29.1030   29.7440 H   0  0  0  0  0  0  0  0  0  0  0  0
   38.1150   26.9020   30.6900 H   0  0  0  0  0  0  0  0  0  0  0  0
   33.8270   29.9690   33.4560 C   0  0  1  0  0  3  0  0  0  0  0  0
   35.1870   30.4830   33.0860 C   0  0  2  0  0  3  0  0  0  0  0  0
   35.1080   31.5580   32.1810 O   0  0  0  0  0  0  0  0  0  0  0  0
   34.1290   31.2660   31.2130 C   0  0  0  0  0  2  0  0  0  0  0  0
   32.8020   31.6070   31.8610 C   0  0  2  0  0  3  0  0  0  0  0  0
   32.8600   31.1330   33.2970 C   0  0  2  0  0  3  0  0  0  0  0  0
   33.4300   28.8410   32.7780 O   0  0  0  0  0  0  0  0  0  0  0  0
   33.0340   28.1520   33.3920 H   0  0  0  0  0  0  0  0  0  0  0  0
   31.7100   31.1280   31.1640 O   0  0  0  0  0  0  0  0  0  0  0  0
   31.0280   31.8520   30.9850 H   0  0  0  0  0  0  0  0  0  0  0  0
   33.4050   32.1980   34.0430 O   0  0  0  0  0  0  0  0  0  0  0  0
   32.6800   32.8350   34.3080 H   0  0  0  0  0  0  0  0  0  0  0  0
   37.0530   25.9320   32.8740 C   0  0  1  0  0  3  0  0  0  0  0  0
   36.8080   24.8640   32.1900 O   0  0  0  0  0  1  0  0  0  0  0  0
   37.5880   25.7830   34.2780 C   0  0  2  0  0  0  0  0  0  0  0  0
   39.1690   25.6330   34.1650 C   0  0  0  0  0  0  0  0  0  0  0  0
   38.2270   24.5770   34.6900 C   0  0  1  0  0  0  0  0  0  0  0  0
   37.3690   26.6440   34.9650 H   0  0  0  0  0  0  0  0  0  0  0  0
   39.7230   26.2470   34.9000 H   0  0  0  0  0  0  0  0  0  0  0  0
   39.6050   25.5510   33.1780 H   0  0  0  0  0  0  0  0  0  0  0  0
   38.2160   23.6820   33.9860 H   0  0  0  0  0  0  0  0  0  0  0  0
   38.4680   24.1510   36.0680 C   0  0  0  0  0  0  0  0  0  0  0  0
   39.5410   23.3020   36.2940 C   0  0  0  0  0  0  0  0  0  0  0  0
   39.7780   22.8970   37.5880 C   0  0  0  0  0  0  0  0  0  0  0  0
   38.9750   23.3190   38.6390 C   0  0  0  0  0  0  0  0  0  0  0  0
   37.9150   24.1650   38.3700 C   0  0  0  0  0  0  0  0  0  0  0  0
   37.6950   24.5530   37.1040 N   0  0  0  0  0  0  0  0  0  0  0  0
   40.2200   22.9190   35.5610 H   0  0  0  0  0  0  0  0  0  0  0  0
   40.5850   22.2380   37.8790 H   0  0  0  0  0  0  0  0  0  0  0  0
   39.1700   22.9920   39.6660 H   0  0  0  0  0  0  0  0  0  0  0  0
   37.2800   24.5030   39.1790 H   0  0  0  0  0  0  0  0  0  0  0  0
  1  2  2  0  0  0  0
  1  6  1  0  0  0  0
  2  3  1  0  0  0  0
  3 21  1  0  0  0  0
  3  4  2  0  0  0  0
  5  4  1  0  0  0  0
  6  5  2  0  0  0  0
  7  1  1  0  0  0  0
  8  2  1  0  0  0  0
  9 15  1  6  0  0  0
 10  5  1  6  0  0  0
 10  9  1  0  0  0  0
 11 10  1  0  0  0  0
 12 13  1  0  0  0  0
 12 11  1  0  0  0  0
 13 17  1  6  0  0  0
 13 14  1  0  0  0  0
 14  9  1  0  0  0  0
 14 19  1  1  0  0  0
 15 16  1  0  0  0  0
 18 17  1  0  0  0  0
 19 20  1  0  0  0  0
 21 22  1  6  0  0  0
 21 23  1  0  0  0  0
 23 25  1  0  0  0  0
 23 26  1  1  0  0  0
 24 23  1  0  0  0  0
 24 25  1  0  0  0  0
 24 27  1  0  0  0  0
 25 29  1  6  0  0  0
 25 30  1  0  0  0  0
 28 24  1  0  0  0  0
 30 31  2  0  0  0  0
 30 35  1  0  0  0  0
 31 32  1  0  0  0  0
 32 37  1  0  0  0  0
 32 33  2  0  0  0  0
 33 38  1  0  0  0  0
 34 33  1  0  0  0  0
 34 39  1  0  0  0  0
 35 34  2  0  0  0  0
 36 31  1  0  0  0  0
M  END
>  <minimizedAffinity>
-5.63815594

$$$$
