
 OpenBabel03272500003D

 32 34  0  0  1  0  0  0  0  0999 V2000
   38.2420   32.0940   46.5180 C   0  0  0  0  0  0  0  0  0  0  0  0
   37.8530   31.7350   45.2080 C   0  0  0  0  0  0  0  0  0  0  0  0
   36.8160   30.8320   45.1040 C   0  0  0  0  0  0  0  0  0  0  0  0
   36.2290   30.3380   46.2290 N   0  0  0  0  0  0  0  0  0  0  0  0
   36.6250   30.7020   47.4580 C   0  0  0  0  0  0  0  0  0  0  0  0
   37.6470   31.5920   47.5980 N   0  0  0  0  0  0  0  0  0  0  0  0
   39.0480   32.7960   46.6920 H   0  0  0  0  0  0  0  0  0  0  0  0
   36.4810   30.5270   44.1450 H   0  0  0  0  0  0  0  0  0  0  0  0
   38.3180   31.1410   50.0440 Br  0  0  0  0  0  0  0  0  0  0  0  0
   36.6300   30.3000   49.8930 C   0  0  0  0  0  0  0  0  0  0  0  0
   36.0080   30.1830   48.6710 C   0  0  0  0  0  0  0  0  0  0  0  0
   34.7710   29.5550   48.6410 C   0  0  0  0  0  0  0  0  0  0  0  0
   34.1390   29.0450   49.7540 C   0  0  0  0  0  0  0  0  0  0  0  0
   34.7960   29.1830   50.9580 C   0  0  0  0  0  0  0  0  0  0  0  0
   36.0450   29.8130   51.0170 C   0  0  0  0  0  0  0  0  0  0  0  0
   34.2250   29.4290   47.7080 H   0  0  0  0  0  0  0  0  0  0  0  0
   33.1810   28.5600   49.7150 H   0  0  0  0  0  0  0  0  0  0  0  0
   34.3880   28.8170   51.8920 H   0  0  0  0  0  0  0  0  0  0  0  0
   36.5380   29.9030   51.9930 H   0  0  0  0  0  0  0  0  0  0  0  0
   38.5100   32.2900   44.1500 O   0  0  0  0  0  0  0  0  0  0  0  0
   39.8880   30.3660   43.5460 C   0  0  1  0  0  3  0  0  0  0  0  0
   39.7030   31.8690   43.5810 C   0  0  1  0  0  3  0  0  0  0  0  0
   39.7320   32.4130   42.2770 O   0  0  0  0  0  0  0  0  0  0  0  0
   38.7310   31.8440   41.4920 C   0  0  0  0  0  2  0  0  0  0  0  0
   39.2470   30.4350   41.1740 C   0  0  1  0  0  3  0  0  0  0  0  0
   39.1300   29.6720   42.4700 C   0  0  1  0  0  3  0  0  0  0  0  0
   41.2570   30.0970   43.3300 O   0  0  0  0  0  0  0  0  0  0  0  0
   41.4530   29.1380   43.4340 H   0  0  0  0  0  0  0  0  0  0  0  0
   38.5640   29.8470   40.1420 O   0  0  0  0  0  0  0  0  0  0  0  0
   38.9050   30.2460   39.2830 H   0  0  0  0  0  0  0  0  0  0  0  0
   39.7030   28.3950   42.3120 O   0  0  0  0  0  0  0  0  0  0  0  0
   39.2760   27.8720   41.5980 H   0  0  0  0  0  0  0  0  0  0  0  0
  1  7  1  0  0  0  0
  1  6  1  0  0  0  0
  2  1  2  0  0  0  0
  3  2  1  0  0  0  0
  3  4  2  0  0  0  0
  4  5  1  0  0  0  0
  5  6  2  0  0  0  0
  5 11  1  0  0  0  0
  8  3  1  0  0  0  0
 10  9  1  0  0  0  0
 10 15  1  0  0  0  0
 11 10  2  0  0  0  0
 12 11  1  0  0  0  0
 12 13  2  0  0  0  0
 13 14  1  0  0  0  0
 14 15  2  0  0  0  0
 14 18  1  0  0  0  0
 15 19  1  0  0  0  0
 16 12  1  0  0  0  0
 17 13  1  0  0  0  0
 20  2  1  0  0  0  0
 21 27  1  6  0  0  0
 21 22  1  0  0  0  0
 22 20  1  6  0  0  0
 23 22  1  0  0  0  0
 24 23  1  0  0  0  0
 25 29  1  6  0  0  0
 25 24  1  0  0  0  0
 25 26  1  0  0  0  0
 26 31  1  6  0  0  0
 26 21  1  0  0  0  0
 27 28  1  0  0  0  0
 30 29  1  0  0  0  0
 32 31  1  0  0  0  0
M  END
>  <minimizedAffinity>
-6.11579466

>  <minimizedRMSD>
4.54829407

$$$$
