
 OpenBabel03272509083D

 43 46  0  0  1  0  0  0  0  0999 V2000
   33.3490   26.9240   47.3700 C   0  0  0  0  0  0  0  0  0  0  0  0
   33.5160   25.5540   47.5500 C   0  0  0  0  0  0  0  0  0  0  0  0
   33.8940   24.7370   46.5050 C   0  0  0  0  0  0  0  0  0  0  0  0
   34.1190   25.2440   45.2420 C   0  0  0  0  0  0  0  0  0  0  0  0
   33.9580   26.5760   45.0610 C   0  0  0  0  0  0  0  0  0  0  0  0
   33.5800   27.4250   46.0860 C   0  0  0  0  0  0  0  0  0  0  0  0
   33.3220   25.2350   48.5640 H   0  0  0  0  0  0  0  0  0  0  0  0
   33.9890   23.6950   46.7760 H   0  0  0  0  0  0  0  0  0  0  0  0
   34.4120   24.5730   44.4530 H   0  0  0  0  0  0  0  0  0  0  0  0
   34.1430   26.9480   44.0510 H   0  0  0  0  0  0  0  0  0  0  0  0
   32.0220   29.3240   45.6200 C   0  0  1  0  0  3  0  0  0  0  0  0
   33.4400   28.8640   45.7440 C   0  0  2  0  0  3  0  0  0  0  0  0
   34.0480   29.0960   44.5000 O   0  0  0  0  0  0  0  0  0  0  0  0
   34.1830   30.4650   44.2800 C   0  0  0  0  0  2  0  0  0  0  0  0
   32.8330   31.1130   44.1870 C   0  0  1  0  0  3  0  0  0  0  0  0
   32.0790   30.8380   45.4660 C   0  0  2  0  0  3  0  0  0  0  0  0
   31.4200   28.8010   44.4780 O   0  0  0  0  0  0  0  0  0  0  0  0
   32.0170   28.6710   43.7190 H   0  0  0  0  0  0  0  0  0  0  0  0
   32.9620   32.4560   43.9020 O   0  0  0  0  0  0  0  0  0  0  0  0
   32.2800   33.0450   44.2920 H   0  0  0  0  0  0  0  0  0  0  0  0
   32.7450   31.3400   46.5750 O   0  0  0  0  0  0  0  0  0  0  0  0
   32.4620   32.2600   46.8170 H   0  0  0  0  0  0  0  0  0  0  0  0
   32.9470   27.8560   48.4460 C   0  0  0  0  0  0  0  0  0  0  0  0
   32.0890   28.4980   48.1910 H   0  0  0  0  0  0  0  0  0  0  0  0
   32.5610   27.1940   49.2760 H   0  0  0  0  0  0  0  0  0  0  0  0
   35.2590   28.2160   49.3030 C   0  0  0  0  0  3  0  0  0  0  0  0
   34.0660   28.6520   48.9820 C   0  0  0  0  0  3  0  0  0  0  0  0
   37.3830   30.1870   51.5300 C   0  0  0  0  0  0  0  0  0  0  0  0
   38.0740   31.0010   50.6100 C   0  0  0  0  0  0  0  0  0  0  0  0
   37.7950   30.8520   49.2440 C   0  0  0  0  0  0  0  0  0  0  0  0
   36.8560   29.9180   48.8670 N   0  0  0  0  0  0  0  0  0  0  0  0
   36.2280   29.1670   49.8160 C   0  0  0  0  0  0  0  0  0  0  0  0
   36.4860   29.3010   51.1100 N   0  0  0  0  0  0  0  0  0  0  0  0
   37.5910   30.2940   52.5730 H   0  0  0  0  0  0  0  0  0  0  0  0
   38.8090   31.7320   50.9050 H   0  0  0  0  0  0  0  0  0  0  0  0
   38.4530   31.6430   48.2030 C   0  0  0  0  0  0  0  0  0  0  0  0
   38.7340   31.1420   46.9560 C   0  0  0  0  0  0  0  0  0  0  0  0
   39.3550   32.1530   46.2270 C   0  0  0  0  0  0  0  0  0  0  0  0
   39.4260   33.2240   47.0590 N   0  0  0  0  0  0  0  0  0  0  0  0
   38.8870   32.9110   48.2310 N   0  0  0  0  0  0  0  0  0  0  0  0
   38.5300   30.1640   46.5750 H   0  0  0  0  0  0  0  0  0  0  0  0
   39.7220   32.1360   45.2080 H   0  0  0  0  0  0  0  0  0  0  0  0
   39.8300   34.1850   46.8770 H   0  0  0  0  0  0  0  0  0  0  0  0
  1  2  1  0  0  0  0
  1 23  1  0  0  0  0
  2  7  1  0  0  0  0
  3  8  1  0  0  0  0
  3  2  2  0  0  0  0
  4  3  1  0  0  0  0
  5  4  2  0  0  0  0
  5  6  1  0  0  0  0
  6  1  2  0  0  0  0
  9  4  1  0  0  0  0
 10  5  1  0  0  0  0
 11 17  1  6  0  0  0
 11 12  1  0  0  0  0
 12  6  1  6  0  0  0
 13 12  1  0  0  0  0
 14 13  1  0  0  0  0
 15 19  1  1  0  0  0
 15 14  1  0  0  0  0
 15 16  1  0  0  0  0
 16 11  1  0  0  0  0
 16 21  1  1  0  0  0
 18 17  1  0  0  0  0
 19 20  1  0  0  0  0
 21 22  1  0  0  0  0
 23 27  1  0  0  0  0
 23 25  1  0  0  0  0
 24 23  1  0  0  0  0
 26 32  1  0  0  0  0
 27 26  2  0  0  0  0
 28 34  1  0  0  0  0
 29 35  1  0  0  0  0
 29 28  2  0  0  0  0
 30 29  1  0  0  0  0
 31 30  2  0  0  0  0
 31 32  1  0  0  0  0
 32 33  2  0  0  0  0
 33 28  1  0  0  0  0
 36 40  2  0  0  0  0
 36 30  1  0  0  0  0
 37 36  1  0  0  0  0
 38 37  2  0  0  0  0
 38 39  1  0  0  0  0
 39 40  1  0  0  0  0
 41 37  1  0  0  0  0
 42 38  1  0  0  0  0
 43 39  1  0  0  0  0
M  END
>  <minimizedAffinity>
-7.25610876

>  <minimizedRMSD>
0.727697134

$$$$
