
 OpenBabel03272509053D

 36 38  0  0  1  0  0  0  0  0999 V2000
   37.3500   30.8440   50.8440 C   0  0  0  0  0  0  0  0  0  0  0  0
   38.3040   31.1480   49.8270 C   0  0  0  0  0  0  0  0  0  0  0  0
   37.9770   30.8400   48.4890 C   0  0  0  0  0  0  0  0  0  0  0  0
   36.7650   30.2670   48.2430 N   0  0  0  0  0  0  0  0  0  0  0  0
   35.9050   30.0020   49.2460 C   0  0  0  0  0  0  0  0  0  0  0  0
   36.1780   30.2810   50.5320 N   0  0  0  0  0  0  0  0  0  0  0  0
   37.6780   31.1100   51.8390 H   0  0  0  0  0  0  0  0  0  0  0  0
   39.2670   31.6050   50.0360 H   0  0  0  0  0  0  0  0  0  0  0  0
   38.6750   32.5360   46.9250 C   0  0  2  0  0  3  0  0  0  0  0  0
   38.9390   31.1410   47.3960 C   0  0  2  0  0  3  0  0  0  0  0  0
   38.7300   30.1830   46.4140 O   0  0  0  0  0  0  0  0  0  0  0  0
   39.3230   30.4300   45.2110 C   0  0  0  0  0  2  0  0  0  0  0  0
   40.1120   31.7040   45.1320 C   0  0  2  0  0  3  0  0  0  0  0  0
   39.1580   32.8200   45.5230 C   0  0  2  0  0  3  0  0  0  0  0  0
   39.3210   33.4250   47.7850 O   0  0  0  0  0  0  0  0  0  0  0  0
   38.6590   34.0230   48.1860 H   0  0  0  0  0  0  0  0  0  0  0  0
   40.4780   31.8790   43.7930 O   0  0  0  0  0  0  0  0  0  0  0  0
   39.6790   31.8380   43.2230 H   0  0  0  0  0  0  0  0  0  0  0  0
   39.7560   34.0530   45.3800 O   0  0  0  0  0  0  0  0  0  0  0  0
   40.5150   34.1620   45.9930 H   0  0  0  0  0  0  0  0  0  0  0  0
   34.6490   29.3800   48.8520 C   0  0  0  0  0  3  0  0  0  0  0  0
   34.5460   28.9100   47.6530 C   0  0  0  0  0  3  0  0  0  0  0  0
   33.3990   28.2300   47.0280 C   0  0  0  0  0  0  0  0  0  0  0  0
   32.6030   28.1240   47.8190 H   0  0  0  0  0  0  0  0  0  0  0  0
   32.9300   28.8180   46.2180 H   0  0  0  0  0  0  0  0  0  0  0  0
   33.6960   26.8310   46.5910 C   0  0  0  0  0  0  0  0  0  0  0  0
   33.7090   25.7170   47.4000 C   0  0  0  0  0  0  0  0  0  0  0  0
   34.0010   24.4790   46.8500 C   0  0  0  0  0  0  0  0  0  0  0  0
   34.2830   24.3230   45.4990 C   0  0  0  0  0  0  0  0  0  0  0  0
   34.2720   25.4310   44.6870 C   0  0  0  0  0  0  0  0  0  0  0  0
   33.9800   26.6790   45.2310 C   0  0  0  0  0  0  0  0  0  0  0  0
   33.4830   25.8870   48.4440 H   0  0  0  0  0  0  0  0  0  0  0  0
   33.9800   23.6850   47.5850 H   0  0  0  0  0  0  0  0  0  0  0  0
   34.4950   23.3070   45.1950 H   0  0  0  0  0  0  0  0  0  0  0  0
   34.4960   25.2770   43.6410 H   0  0  0  0  0  0  0  0  0  0  0  0
   33.9930   27.4950   44.5200 H   0  0  0  0  0  0  0  0  0  0  0  0
  1  7  1  0  0  0  0
  2  8  1  0  0  0  0
  2  1  2  0  0  0  0
  3  2  1  0  0  0  0
  4  3  2  0  0  0  0
  4  5  1  0  0  0  0
  5  6  2  0  0  0  0
  6  1  1  0  0  0  0
  9 10  1  0  0  0  0
  9 15  1  1  0  0  0
 10  3  1  1  0  0  0
 11 10  1  0  0  0  0
 12 11  1  0  0  0  0
 13 17  1  6  0  0  0
 13 12  1  0  0  0  0
 13 14  1  0  0  0  0
 14 19  1  1  0  0  0
 14  9  1  0  0  0  0
 15 16  1  0  0  0  0
 18 17  1  0  0  0  0
 19 20  1  0  0  0  0
 21  5  1  0  0  0  0
 22 21  2  0  0  0  0
 23 22  1  0  0  0  0
 23 24  1  0  0  0  0
 25 23  1  0  0  0  0
 26 23  1  0  0  0  0
 26 27  1  0  0  0  0
 27 32  1  0  0  0  0
 28 27  2  0  0  0  0
 28 33  1  0  0  0  0
 29 28  1  0  0  0  0
 30 31  1  0  0  0  0
 30 29  2  0  0  0  0
 31 26  2  0  0  0  0
 34 29  1  0  0  0  0
 35 30  1  0  0  0  0
 36 31  1  0  0  0  0
M  END
>  <minimizedAffinity>
-6.23107243

>  <minimizedRMSD>
1.36915171

$$$$
