
 OpenBabel03272507553D

 26 27  0  0  1  0  0  0  0  0999 V2000
   35.4900   29.0300   50.2910 C   0  0  0  0  0  0  0  0  0  0  0  0
   36.3070   29.9990   49.6500 C   0  0  0  0  0  0  0  0  0  0  0  0
   36.2720   30.0790   48.2650 C   0  0  0  0  0  0  0  0  0  0  0  0
   35.4500   29.2140   47.5990 N   0  0  0  0  0  0  0  0  0  0  0  0
   34.6830   28.2990   48.2490 C   0  0  0  0  0  0  0  0  0  0  0  0
   34.6980   28.2020   49.5880 N   0  0  0  0  0  0  0  0  0  0  0  0
   33.9340   27.5010   47.3610 N   0  0  0  0  0  0  0  0  0  0  0  0
   35.5320   28.9880   51.3720 H   0  0  0  0  0  0  0  0  0  0  0  0
   34.4000   26.5540   47.4900 H   0  0  0  0  0  0  0  0  0  0  0  0
   33.1550   27.7870   46.7630 H   0  0  0  0  0  0  0  0  0  0  0  0
   36.5720   31.5020   46.2230 C   0  0  1  0  0  3  0  0  0  0  0  0
   37.1080   31.0790   47.5510 C   0  0  2  0  0  3  0  0  0  0  0  0
   38.3320   30.4470   47.3010 O   0  0  0  0  0  0  0  0  0  0  0  0
   39.2870   31.3400   46.8570 C   0  0  0  0  0  2  0  0  0  0  0  0
   38.9550   31.6520   45.4230 C   0  0  1  0  0  3  0  0  0  0  0  0
   37.5390   31.1750   45.0740 C   0  0  1  0  0  3  0  0  0  0  0  0
   35.4040   30.7930   45.8810 O   0  0  0  0  0  0  0  0  0  0  0  0
   34.9800   31.2700   45.1080 H   0  0  0  0  0  0  0  0  0  0  0  0
   39.0450   33.0200   45.1980 O   0  0  0  0  0  0  0  0  0  0  0  0
   39.8560   33.3790   45.6330 H   0  0  0  0  0  0  0  0  0  0  0  0
   37.6110   29.7980   44.9460 O   0  0  0  0  0  0  0  0  0  0  0  0
   38.0310   29.5160   44.1070 H   0  0  0  0  0  0  0  0  0  0  0  0
   37.1640   30.8810   50.4800 C   0  0  0  0  0  0  0  0  0  0  0  0
   38.5040   30.7940   50.1260 F   0  0  0  0  0  0  0  0  0  0  0  0
   36.7410   32.1670   50.3300 F   0  0  0  0  0  0  0  0  0  0  0  0
   37.1070   30.5670   51.8270 F   0  0  0  0  0  0  0  0  0  0  0  0
  1  8  1  0  0  0  0
  2  1  1  0  0  0  0
  2 23  1  0  0  0  0
  3  2  2  0  0  0  0
  4  5  2  0  0  0  0
  4  3  1  0  0  0  0
  5  6  1  0  0  0  0
  6  1  2  0  0  0  0
  7  9  1  0  0  0  0
  7  5  1  0  0  0  0
 10  7  1  0  0  0  0
 11 17  1  6  0  0  0
 11 12  1  0  0  0  0
 12  3  1  6  0  0  0
 13 12  1  0  0  0  0
 14 13  1  0  0  0  0
 15 19  1  1  0  0  0
 15 14  1  0  0  0  0
 16 21  1  1  0  0  0
 16 15  1  0  0  0  0
 16 11  1  0  0  0  0
 18 17  1  0  0  0  0
 19 20  1  0  0  0  0
 22 21  1  0  0  0  0
 23 26  1  0  0  0  0
 24 23  1  0  0  0  0
 25 23  1  0  0  0  0
M  END
>  <minimizedAffinity>
-5.1795249

>  <minimizedRMSD>
1.35098445

$$$$
