
 OpenBabel03272507343D

 39 42  0  0  1  0  0  0  0  0999 V2000
   32.9220   27.7500   48.4220 C   0  0  0  0  0  0  0  0  0  0  0  0
   31.7260   27.7110   48.8660 O   0  0  0  0  0  0  0  0  0  0  0  0
   35.8690   29.1970   49.8390 C   0  0  0  0  0  0  0  0  0  0  0  0
   34.9400   29.7160   50.7160 C   0  0  0  0  0  0  0  0  0  0  0  0
   33.6780   29.2490   50.3130 C   0  0  0  0  0  0  0  0  0  0  0  0
   33.9270   28.4690   49.2060 C   0  0  0  0  0  0  0  0  0  0  0  0
   35.2210   28.4670   48.9650 O   0  0  0  0  0  0  0  0  0  0  0  0
   35.1050   30.3680   51.5730 H   0  0  0  0  0  0  0  0  0  0  0  0
   32.7240   29.4350   50.7400 H   0  0  0  0  0  0  0  0  0  0  0  0
   37.2890   29.4800   49.9630 C   0  0  0  0  0  0  0  0  0  0  0  0
   37.9750   28.8080   50.7480 O   0  0  0  0  0  0  0  0  0  0  0  0
   37.8170   30.5400   49.1490 C   0  0  0  0  0  0  0  0  0  0  0  0
   38.1710   31.7140   49.7970 C   0  0  0  0  0  0  0  0  0  0  0  0
   38.6850   32.7690   49.0320 C   0  0  0  0  0  0  0  0  0  0  0  0
   38.8110   32.5790   47.6780 N   0  0  0  0  0  0  0  0  0  0  0  0
   38.4600   31.4360   47.0890 C   0  0  0  0  0  0  0  0  0  0  0  0
   37.9650   30.4160   47.8120 N   0  0  0  0  0  0  0  0  0  0  0  0
   38.0670   31.8460   50.8500 H   0  0  0  0  0  0  0  0  0  0  0  0
   38.9770   33.7090   49.4970 H   0  0  0  0  0  0  0  0  0  0  0  0
   38.5700   31.3160   46.0250 H   0  0  0  0  0  0  0  0  0  0  0  0
   33.2960   27.0760   47.1360 C   0  0  1  0  0  0  0  0  0  0  0  0
   33.7420   25.5900   47.4210 C   0  0  0  0  0  0  0  0  0  0  0  0
   32.5290   25.9330   46.6360 C   0  0  2  0  0  0  0  0  0  0  0  0
   34.1580   27.5720   46.5990 H   0  0  0  0  0  0  0  0  0  0  0  0
   33.7020   25.2390   48.4450 H   0  0  0  0  0  0  0  0  0  0  0  0
   34.5750   25.2000   46.8310 H   0  0  0  0  0  0  0  0  0  0  0  0
   31.5620   25.7580   47.1740 H   0  0  0  0  0  0  0  0  0  0  0  0
   31.6890   24.4690   44.8810 C   0  0  1  0  0  3  0  0  0  0  0  0
   32.5360   25.6350   45.1410 C   0  0  1  0  0  3  0  0  0  0  0  0
   32.2930   26.7900   44.4820 O   0  0  0  0  0  0  0  0  0  0  0  0
   31.6050   26.7890   43.3240 C   0  0  0  0  0  2  0  0  0  0  0  0
   31.4450   25.4700   42.6300 C   0  0  2  0  0  3  0  0  0  0  0  0
   30.8200   24.5400   43.6570 C   0  0  2  0  0  3  0  0  0  0  0  0
   32.4520   23.2980   44.7740 O   0  0  0  0  0  0  0  0  0  0  0  0
   31.8120   22.5330   44.7440 H   0  0  0  0  0  0  0  0  0  0  0  0
   32.6690   24.9870   42.1860 O   0  0  0  0  0  0  0  0  0  0  0  0
   32.5550   24.7880   41.2290 H   0  0  0  0  0  0  0  0  0  0  0  0
   29.5780   25.1050   43.9990 O   0  0  0  0  0  0  0  0  0  0  0  0
   29.0610   25.2780   43.1670 H   0  0  0  0  0  0  0  0  0  0  0  0
  1  2  2  0  0  0  0
  1  6  1  0  0  0  0
  3 10  1  0  0  0  0
  3  4  2  0  0  0  0
  4  8  1  0  0  0  0
  5  4  1  0  0  0  0
  5  9  1  0  0  0  0
  6  5  2  0  0  0  0
  7  6  1  0  0  0  0
  7  3  1  0  0  0  0
 10 11  2  0  0  0  0
 12 13  1  0  0  0  0
 12 10  1  0  0  0  0
 13 18  1  0  0  0  0
 14 19  1  0  0  0  0
 14 13  2  0  0  0  0
 15 14  1  0  0  0  0
 16 15  2  0  0  0  0
 16 17  1  0  0  0  0
 17 12  2  0  0  0  0
 20 16  1  0  0  0  0
 21 24  1  6  0  0  0
 21 22  1  0  0  0  0
 21  1  1  0  0  0  0
 22 25  1  0  0  0  0
 23 21  1  0  0  0  0
 23 27  1  1  0  0  0
 23 22  1  0  0  0  0
 26 22  1  0  0  0  0
 28 34  1  6  0  0  0
 28 29  1  0  0  0  0
 29 30  1  6  0  0  0
 29 23  1  0  0  0  0
 31 30  1  0  0  0  0
 32 36  1  1  0  0  0
 32 31  1  0  0  0  0
 32 33  1  0  0  0  0
 33 38  1  1  0  0  0
 33 28  1  0  0  0  0
 35 34  1  0  0  0  0
 37 36  1  0  0  0  0
 39 38  1  0  0  0  0
M  END
>  <minimizedAffinity>
-4.9353323

>  <minimizedRMSD>
0.666002333

$$$$
