
 OpenBabel03272507333D

 39 42  0  0  1  0  0  0  0  0999 V2000
   33.2130   27.5570   48.2140 C   0  0  0  0  0  0  0  0  0  0  0  0
   31.9770   27.5000   48.5250 O   0  0  0  0  0  0  0  0  0  0  0  0
   35.9380   29.2110   49.8340 C   0  0  0  0  0  0  0  0  0  0  0  0
   34.9160   29.6370   50.6570 C   0  0  0  0  0  0  0  0  0  0  0  0
   33.7250   29.0770   50.1680 C   0  0  0  0  0  0  0  0  0  0  0  0
   34.1050   28.3400   49.0700 C   0  0  0  0  0  0  0  0  0  0  0  0
   35.4070   28.4470   48.9120 O   0  0  0  0  0  0  0  0  0  0  0  0
   34.9740   30.2850   51.5310 H   0  0  0  0  0  0  0  0  0  0  0  0
   32.7340   29.1780   50.5360 H   0  0  0  0  0  0  0  0  0  0  0  0
   37.3200   29.6050   50.0520 C   0  0  0  0  0  0  0  0  0  0  0  0
   37.9750   29.0500   50.9480 O   0  0  0  0  0  0  0  0  0  0  0  0
   37.8480   30.6320   49.1970 C   0  0  0  0  0  0  0  0  0  0  0  0
   38.1840   31.8380   49.7950 C   0  0  0  0  0  0  0  0  0  0  0  0
   38.6980   32.8610   48.9890 C   0  0  0  0  0  0  0  0  0  0  0  0
   38.8410   32.6100   47.6460 N   0  0  0  0  0  0  0  0  0  0  0  0
   38.5080   31.4390   47.1060 C   0  0  0  0  0  0  0  0  0  0  0  0
   38.0130   30.4490   47.8690 N   0  0  0  0  0  0  0  0  0  0  0  0
   38.0660   32.0170   50.8390 H   0  0  0  0  0  0  0  0  0  0  0  0
   38.9760   33.8240   49.4130 H   0  0  0  0  0  0  0  0  0  0  0  0
   38.6320   31.2720   46.0500 H   0  0  0  0  0  0  0  0  0  0  0  0
   33.7460   26.8390   47.0110 C   0  0  1  0  0  0  0  0  0  0  0  0
   33.8060   25.2880   47.2970 C   0  0  0  0  0  0  0  0  0  0  0  0
   32.9120   25.8870   46.2730 C   0  0  2  0  0  0  0  0  0  0  0  0
   34.7930   27.1530   46.7230 H   0  0  0  0  0  0  0  0  0  0  0  0
   33.4510   24.9380   48.2580 H   0  0  0  0  0  0  0  0  0  0  0  0
   34.6630   24.7420   46.8940 H   0  0  0  0  0  0  0  0  0  0  0  0
   31.8280   25.9090   46.5580 H   0  0  0  0  0  0  0  0  0  0  0  0
   33.1870   26.8820   44.0690 C   0  0  1  0  0  3  0  0  0  0  0  0
   33.2220   25.6160   44.8050 C   0  0  1  0  0  3  0  0  0  0  0  0
   34.3300   24.8450   44.7440 O   0  0  0  0  0  0  0  0  0  0  0  0
   35.2050   24.9780   43.7290 C   0  0  0  0  0  2  0  0  0  0  0  0
   34.7340   25.7270   42.5190 C   0  0  2  0  0  3  0  0  0  0  0  0
   34.2570   27.0750   43.0330 C   0  0  2  0  0  3  0  0  0  0  0  0
   31.9560   27.0660   43.4260 O   0  0  0  0  0  0  0  0  0  0  0  0
   31.9470   27.9980   43.0710 H   0  0  0  0  0  0  0  0  0  0  0  0
   33.7130   25.0400   41.8730 O   0  0  0  0  0  0  0  0  0  0  0  0
   33.9910   24.9570   40.9330 H   0  0  0  0  0  0  0  0  0  0  0  0
   35.3750   27.6920   43.6240 O   0  0  0  0  0  0  0  0  0  0  0  0
   36.1280   27.6910   42.9750 H   0  0  0  0  0  0  0  0  0  0  0  0
  1  2  2  0  0  0  0
  1  6  1  0  0  0  0
  3 10  1  0  0  0  0
  3  4  2  0  0  0  0
  4  8  1  0  0  0  0
  5  9  1  0  0  0  0
  5  4  1  0  0  0  0
  6  5  2  0  0  0  0
  7  6  1  0  0  0  0
  7  3  1  0  0  0  0
 10 11  2  0  0  0  0
 12 13  1  0  0  0  0
 12 10  1  0  0  0  0
 13 18  1  0  0  0  0
 14 19  1  0  0  0  0
 14 13  2  0  0  0  0
 15 14  1  0  0  0  0
 16 15  2  0  0  0  0
 16 17  1  0  0  0  0
 17 12  2  0  0  0  0
 20 16  1  0  0  0  0
 21 24  1  6  0  0  0
 21 22  1  0  0  0  0
 21  1  1  0  0  0  0
 22 25  1  0  0  0  0
 23 27  1  1  0  0  0
 23 21  1  0  0  0  0
 23 22  1  0  0  0  0
 26 22  1  0  0  0  0
 28 34  1  6  0  0  0
 28 29  1  0  0  0  0
 29 30  1  1  0  0  0
 29 23  1  0  0  0  0
 31 30  1  0  0  0  0
 32 36  1  1  0  0  0
 32 33  1  0  0  0  0
 32 31  1  0  0  0  0
 33 38  1  1  0  0  0
 33 28  1  0  0  0  0
 35 34  1  0  0  0  0
 37 36  1  0  0  0  0
 39 38  1  0  0  0  0
M  END
>  <minimizedAffinity>
-5.03971004

>  <minimizedRMSD>
1.00267041

$$$$
