
 OpenBabel03262520513D

 51 55  0  0  1  0  0  0  0  0999 V2000
   38.7960   29.3380   43.9280 C   0  0  0  0  0  0  0  0  0  0  0  0
   39.5680   30.4930   44.0100 C   0  0  0  0  0  0  0  0  0  0  0  0
   40.6290   30.6840   43.1300 C   0  0  0  0  0  0  0  0  0  0  0  0
   40.9310   29.7480   42.1730 C   0  0  0  0  0  0  0  0  0  0  0  0
   41.8770   29.7000   41.2310 N   0  0  0  0  0  0  0  0  0  0  0  0
   41.7120   28.5380   40.5630 C   0  0  0  0  0  0  0  0  0  0  0  0
   40.6570   27.8020   41.0490 C   0  0  0  0  0  0  0  0  0  0  0  0
   40.1660   28.5930   42.0850 C   0  0  0  0  0  0  0  0  0  0  0  0
   39.1130   28.4040   42.9590 C   0  0  0  0  0  0  0  0  0  0  0  0
   37.9590   29.0840   44.5450 H   0  0  0  0  0  0  0  0  0  0  0  0
   41.2220   31.5770   43.1970 H   0  0  0  0  0  0  0  0  0  0  0  0
   42.6280   30.4040   41.0120 H   0  0  0  0  0  0  0  0  0  0  0  0
   42.3230   28.1930   39.7300 H   0  0  0  0  0  0  0  0  0  0  0  0
   40.2910   26.8430   40.7180 H   0  0  0  0  0  0  0  0  0  0  0  0
   39.1560   25.9030   42.9590 C   0  0  2  0  0  0  0  0  0  0  0  0
   38.3270   27.1460   42.8180 C   0  0  2  0  0  0  0  0  0  0  0  0
   37.6320   27.1760   41.6070 O   0  0  0  0  0  0  0  0  0  0  0  0
   36.6180   26.1940   41.6160 C   0  0  0  0  0  0  0  0  0  0  0  0
   37.1770   24.8200   41.9470 C   0  0  1  0  0  0  0  0  0  0  0  0
   38.6930   24.9410   41.8640 C   0  0  2  0  0  0  0  0  0  0  0  0
   39.1110   25.3250   44.2110 O   0  0  0  0  0  0  0  0  0  0  0  0
   38.2600   25.4280   44.6950 H   0  0  0  0  0  0  0  0  0  0  0  0
   36.7500   24.3950   43.2010 O   0  0  0  0  0  0  0  0  0  0  0  0
   36.8180   23.4300   43.3070 H   0  0  0  0  0  0  0  0  0  0  0  0
   39.3450   23.7340   41.8980 O   0  0  0  0  0  0  0  0  0  0  0  0
   39.3670   23.3640   40.9590 H   0  0  0  0  0  0  0  0  0  0  0  0
   39.2180   31.5010   45.0620 C   0  0  0  0  0  0  0  0  0  0  0  0
   38.4050   32.1770   44.7270 H   0  0  0  0  0  0  0  0  0  0  0  0
   40.1400   32.0800   45.3420 H   0  0  0  0  0  0  0  0  0  0  0  0
   38.7510   30.7470   46.2920 C   0  0  0  0  0  0  0  0  0  0  0  0
   39.3290   29.7780   46.3480 H   0  0  0  0  0  0  0  0  0  0  0  0
   37.6510   30.5620   46.1430 H   0  0  0  0  0  0  0  0  0  0  0  0
   37.9450   32.4110   48.0150 C   0  0  1  0  0  0  0  0  0  0  0  0
   39.3250   32.9020   47.6450 C   0  0  0  0  0  0  0  0  0  0  0  0
   38.9850   31.4670   47.5670 C   0  0  2  0  0  0  0  0  0  0  0  0
   37.1020   32.6740   47.3130 H   0  0  0  0  0  0  0  0  0  0  0  0
   39.3800   33.4650   46.6700 H   0  0  0  0  0  0  0  0  0  0  0  0
   40.0070   33.2950   48.4030 H   0  0  0  0  0  0  0  0  0  0  0  0
   39.4360   30.8610   48.4070 H   0  0  0  0  0  0  0  0  0  0  0  0
   37.5860   32.5610   49.4600 C   0  0  0  0  0  0  0  0  0  0  0  0
   37.0220   33.4690   49.7000 H   0  0  0  0  0  0  0  0  0  0  0  0
   38.5340   32.6110   50.0420 H   0  0  0  0  0  0  0  0  0  0  0  0
   36.6970   29.5050   51.4460 C   0  0  0  0  0  0  0  0  0  0  0  0
   37.4000   30.6430   50.9530 C   0  0  0  0  0  0  0  0  0  0  0  0
   36.8310   31.3840   49.9510 C   0  0  0  0  0  0  0  0  0  0  0  0
   35.6370   30.9940   49.4860 N   0  0  0  0  0  0  0  0  0  0  0  0
   34.9740   29.9260   49.9460 C   0  0  0  0  0  0  0  0  0  0  0  0
   35.5190   29.1960   50.9230 N   0  0  0  0  0  0  0  0  0  0  0  0
   37.1230   28.9090   52.2300 H   0  0  0  0  0  0  0  0  0  0  0  0
   38.3560   30.8480   51.4150 H   0  0  0  0  0  0  0  0  0  0  0  0
   34.0250   29.8050   49.4180 H   0  0  0  0  0  0  0  0  0  0  0  0
  1  2  1  0  0  0  0
  1 10  1  0  0  0  0
  2 27  1  0  0  0  0
  3 11  1  0  0  0  0
  3  2  2  0  0  0  0
  4  3  1  0  0  0  0
  5  4  1  0  0  0  0
  6  7  2  0  0  0  0
  6  5  1  0  0  0  0
  7  8  1  0  0  0  0
  8  4  2  0  0  0  0
  8  9  1  0  0  0  0
  9  1  2  0  0  0  0
 12  5  1  0  0  0  0
 13  6  1  0  0  0  0
 14  7  1  0  0  0  0
 15 21  1  1  0  0  0
 16  9  1  6  0  0  0
 16 15  1  0  0  0  0
 17 18  1  0  0  0  0
 17 16  1  0  0  0  0
 18 19  1  0  0  0  0
 19 23  1  1  0  0  0
 20 25  1  1  0  0  0
 20 19  1  0  0  0  0
 20 15  1  0  0  0  0
 21 22  1  0  0  0  0
 23 24  1  0  0  0  0
 26 25  1  0  0  0  0
 27 29  1  0  0  0  0
 27 30  1  0  0  0  0
 28 27  1  0  0  0  0
 30 31  1  0  0  0  0
 30 35  1  0  0  0  0
 32 30  1  0  0  0  0
 33 36  1  6  0  0  0
 33 40  1  0  0  0  0
 34 33  1  0  0  0  0
 34 38  1  0  0  0  0
 35 34  1  0  0  0  0
 35 33  1  0  0  0  0
 35 39  1  1  0  0  0
 37 34  1  0  0  0  0
 40 41  1  0  0  0  0
 40 45  1  0  0  0  0
 40 42  1  0  0  0  0
 43 49  1  0  0  0  0
 44 50  1  0  0  0  0
 44 43  1  0  0  0  0
 45 44  2  0  0  0  0
 46 47  2  0  0  0  0
 46 45  1  0  0  0  0
 47 48  1  0  0  0  0
 48 43  2  0  0  0  0
 51 47  1  0  0  0  0
M  END
>  <minimizedAffinity>
-6.57264185

>  <minimizedRMSD>
1.57973003

$$$$
