
 OpenBabel03272505593D

 47 50  0  0  1  0  0  0  0  0999 V2000
   35.3010   30.4080   49.8550 C   0  0  2  0  0  0  0  0  0  0  0  0
   36.2060   31.2020   48.9880 C   0  0  0  0  0  0  0  0  0  0  0  0
   37.6630   30.7180   49.0580 C   0  0  2  0  0  0  0  0  0  0  0  0
   38.2190   30.6830   50.4090 C   0  0  0  0  0  0  0  0  0  0  0  0
   37.2340   30.1810   51.4570 C   0  0  0  0  0  0  0  0  0  0  0  0
   36.0360   29.5260   50.8350 C   0  0  0  0  0  0  0  0  0  0  0  0
   34.6380   31.0560   50.5040 H   0  0  0  0  0  0  0  0  0  0  0  0
   36.0460   31.2750   47.9350 H   0  0  0  0  0  0  0  0  0  0  0  0
   36.2250   32.2790   49.3620 H   0  0  0  0  0  0  0  0  0  0  0  0
   37.6960   29.7540   48.5390 H   0  0  0  0  0  0  0  0  0  0  0  0
   39.1500   30.0750   50.4020 H   0  0  0  0  0  0  0  0  0  0  0  0
   38.5320   31.6820   50.7690 H   0  0  0  0  0  0  0  0  0  0  0  0
   37.7630   29.3940   52.0320 H   0  0  0  0  0  0  0  0  0  0  0  0
   36.9410   30.9430   52.1880 H   0  0  0  0  0  0  0  0  0  0  0  0
   36.2920   28.5900   50.3160 H   0  0  0  0  0  0  0  0  0  0  0  0
   35.3390   29.2530   51.6460 H   0  0  0  0  0  0  0  0  0  0  0  0
   37.7990   30.0690   46.1850 Cl  0  0  0  0  0  0  0  0  0  0  0  0
   38.5660   31.4940   46.8680 C   0  0  0  0  0  0  0  0  0  0  0  0
   38.4020   31.7130   48.2250 C   0  0  0  0  0  0  0  0  0  0  0  0
   39.0180   32.8660   48.6590 C   0  0  0  0  0  0  0  0  0  0  0  0
   39.7230   33.7060   47.8210 C   0  0  0  0  0  0  0  0  0  0  0  0
   39.8390   33.4120   46.4690 C   0  0  0  0  0  0  0  0  0  0  0  0
   39.2360   32.2620   45.9800 C   0  0  0  0  0  0  0  0  0  0  0  0
   38.9290   33.1060   49.7110 H   0  0  0  0  0  0  0  0  0  0  0  0
   40.1660   34.5890   48.2830 H   0  0  0  0  0  0  0  0  0  0  0  0
   40.3960   34.0930   45.8550 H   0  0  0  0  0  0  0  0  0  0  0  0
   38.2870   32.6200   43.7160 C   0  0  1  0  0  3  0  0  0  0  0  0
   39.3600   31.9480   44.5410 C   0  0  2  0  0  3  0  0  0  0  0  0
   39.3600   30.5710   44.3180 O   0  0  0  0  0  0  0  0  0  0  0  0
   39.9130   30.2850   43.0810 C   0  0  0  0  0  2  0  0  0  0  0  0
   39.3340   31.1520   41.9860 C   0  0  1  0  0  3  0  0  0  0  0  0
   38.0480   31.7750   42.4870 C   0  0  2  0  0  3  0  0  0  0  0  0
   37.0720   32.6820   44.3920 O   0  0  0  0  0  0  0  0  0  0  0  0
   36.4260   31.9860   44.0820 H   0  0  0  0  0  0  0  0  0  0  0  0
   40.1880   32.1670   41.5950 O   0  0  0  0  0  0  0  0  0  0  0  0
   41.1450   31.8780   41.6480 H   0  0  0  0  0  0  0  0  0  0  0  0
   37.4860   32.5480   41.4940 O   0  0  0  0  0  0  0  0  0  0  0  0
   36.8490   31.9860   40.9580 H   0  0  0  0  0  0  0  0  0  0  0  0
   34.3840   29.5470   49.0900 C   0  0  0  0  0  0  0  0  0  0  0  0
   34.4450   29.6990   47.7040 C   0  0  0  0  0  0  0  0  0  0  0  0
   33.6040   28.8900   46.9260 C   0  0  0  0  0  0  0  0  0  0  0  0
   32.7610   27.9870   47.5660 N   0  0  0  0  0  0  0  0  0  0  0  0
   32.7380   27.8780   48.9080 C   0  0  0  0  0  0  0  0  0  0  0  0
   33.5480   28.6570   49.6280 N   0  0  0  0  0  0  0  0  0  0  0  0
   34.9520   30.2780   46.9530 H   0  0  0  0  0  0  0  0  0  0  0  0
   33.4470   28.7960   45.8790 H   0  0  0  0  0  0  0  0  0  0  0  0
   32.0880   27.1800   49.4150 H   0  0  0  0  0  0  0  0  0  0  0  0
  1  7  1  1  0  0  0
  1  6  1  0  0  0  0
  2  3  1  0  0  0  0
  2  9  1  0  0  0  0
  2  1  1  0  0  0  0
  3 10  1  6  0  0  0
  3  4  1  0  0  0  0
  4 12  1  0  0  0  0
  4  5  1  0  0  0  0
  5 13  1  0  0  0  0
  5 14  1  0  0  0  0
  6  5  1  0  0  0  0
  6 16  1  0  0  0  0
  8  2  1  0  0  0  0
 11  4  1  0  0  0  0
 15  6  1  0  0  0  0
 17 18  1  0  0  0  0
 18 19  1  0  0  0  0
 19 20  2  0  0  0  0
 19  3  1  0  0  0  0
 20 24  1  0  0  0  0
 21 25  1  0  0  0  0
 21 20  1  0  0  0  0
 22 21  2  0  0  0  0
 23 22  1  0  0  0  0
 23 18  2  0  0  0  0
 26 22  1  0  0  0  0
 27 33  1  1  0  0  0
 27 28  1  0  0  0  0
 28 23  1  1  0  0  0
 29 28  1  0  0  0  0
 30 29  1  0  0  0  0
 31 35  1  1  0  0  0
 31 32  1  0  0  0  0
 31 30  1  0  0  0  0
 32 37  1  6  0  0  0
 32 27  1  0  0  0  0
 34 33  1  0  0  0  0
 35 36  1  0  0  0  0
 38 37  1  0  0  0  0
 39 44  1  0  0  0  0
 39  1  1  0  0  0  0
 40 39  2  0  0  0  0
 41 42  2  0  0  0  0
 41 40  1  0  0  0  0
 42 43  1  0  0  0  0
 43 47  1  0  0  0  0
 43 44  2  0  0  0  0
 45 40  1  0  0  0  0
 46 41  1  0  0  0  0
M  END
>  <minimizedAffinity>
-7.79118443

>  <minimizedRMSD>
1.59047401

$$$$
