
 OpenBabel03272509083D

 43 46  0  0  1  0  0  0  0  0999 V2000
   33.3600   26.9110   47.3660 C   0  0  0  0  0  0  0  0  0  0  0  0
   33.5300   25.5400   47.5420 C   0  0  0  0  0  0  0  0  0  0  0  0
   33.9100   24.7270   46.4960 C   0  0  0  0  0  0  0  0  0  0  0  0
   34.1360   25.2370   45.2340 C   0  0  0  0  0  0  0  0  0  0  0  0
   33.9720   26.5700   45.0560 C   0  0  0  0  0  0  0  0  0  0  0  0
   33.5920   27.4150   46.0840 C   0  0  0  0  0  0  0  0  0  0  0  0
   33.3350   25.2190   48.5560 H   0  0  0  0  0  0  0  0  0  0  0  0
   34.0070   23.6850   46.7640 H   0  0  0  0  0  0  0  0  0  0  0  0
   34.4310   24.5690   44.4440 H   0  0  0  0  0  0  0  0  0  0  0  0
   34.1570   26.9450   44.0480 H   0  0  0  0  0  0  0  0  0  0  0  0
   32.0290   29.3140   45.6250 C   0  0  1  0  0  3  0  0  0  0  0  0
   33.4490   28.8550   45.7450 C   0  0  2  0  0  3  0  0  0  0  0  0
   34.0540   29.0910   44.5010 O   0  0  0  0  0  0  0  0  0  0  0  0
   34.1870   30.4590   44.2830 C   0  0  0  0  0  2  0  0  0  0  0  0
   32.8360   31.1070   44.1940 C   0  0  1  0  0  3  0  0  0  0  0  0
   32.0840   30.8290   45.4750 C   0  0  2  0  0  3  0  0  0  0  0  0
   31.4260   28.7920   44.4840 O   0  0  0  0  0  0  0  0  0  0  0  0
   32.0200   28.6650   43.7240 H   0  0  0  0  0  0  0  0  0  0  0  0
   32.9630   32.4500   43.9120 O   0  0  0  0  0  0  0  0  0  0  0  0
   32.2810   33.0370   44.3050 H   0  0  0  0  0  0  0  0  0  0  0  0
   32.7550   31.3290   46.5830 O   0  0  0  0  0  0  0  0  0  0  0  0
   32.4710   32.2480   46.8270 H   0  0  0  0  0  0  0  0  0  0  0  0
   32.9550   27.8390   48.4440 C   0  0  0  0  0  0  0  0  0  0  0  0
   32.0940   28.4780   48.1900 H   0  0  0  0  0  0  0  0  0  0  0  0
   32.5720   27.1740   49.2720 H   0  0  0  0  0  0  0  0  0  0  0  0
   35.2660   28.2070   49.2990 C   0  0  0  0  0  3  0  0  0  0  0  0
   34.0710   28.6390   48.9800 C   0  0  0  0  0  3  0  0  0  0  0  0
   37.3800   30.1860   51.5290 C   0  0  0  0  0  0  0  0  0  0  0  0
   38.0710   31.0010   50.6090 C   0  0  0  0  0  0  0  0  0  0  0  0
   37.7950   30.8500   49.2430 C   0  0  0  0  0  0  0  0  0  0  0  0
   36.8600   29.9130   48.8650 N   0  0  0  0  0  0  0  0  0  0  0  0
   36.2320   29.1610   49.8140 C   0  0  0  0  0  0  0  0  0  0  0  0
   36.4870   29.2970   51.1070 N   0  0  0  0  0  0  0  0  0  0  0  0
   37.5860   30.2940   52.5730 H   0  0  0  0  0  0  0  0  0  0  0  0
   38.8040   31.7340   50.9050 H   0  0  0  0  0  0  0  0  0  0  0  0
   38.4530   31.6420   48.2030 C   0  0  0  0  0  0  0  0  0  0  0  0
   38.7360   31.1410   46.9560 C   0  0  0  0  0  0  0  0  0  0  0  0
   39.3570   32.1530   46.2280 C   0  0  0  0  0  0  0  0  0  0  0  0
   39.4260   33.2240   47.0600 N   0  0  0  0  0  0  0  0  0  0  0  0
   38.8860   32.9110   48.2310 N   0  0  0  0  0  0  0  0  0  0  0  0
   38.5340   30.1630   46.5750 H   0  0  0  0  0  0  0  0  0  0  0  0
   39.7240   32.1370   45.2090 H   0  0  0  0  0  0  0  0  0  0  0  0
   39.8280   34.1860   46.8780 H   0  0  0  0  0  0  0  0  0  0  0  0
  1  2  1  0  0  0  0
  1 23  1  0  0  0  0
  2  7  1  0  0  0  0
  3  8  1  0  0  0  0
  3  2  2  0  0  0  0
  4  3  1  0  0  0  0
  5  4  2  0  0  0  0
  5  6  1  0  0  0  0
  6  1  2  0  0  0  0
  9  4  1  0  0  0  0
 10  5  1  0  0  0  0
 11 17  1  6  0  0  0
 11 12  1  0  0  0  0
 12  6  1  6  0  0  0
 13 12  1  0  0  0  0
 14 13  1  0  0  0  0
 15 19  1  1  0  0  0
 15 14  1  0  0  0  0
 15 16  1  0  0  0  0
 16 11  1  0  0  0  0
 16 21  1  1  0  0  0
 18 17  1  0  0  0  0
 19 20  1  0  0  0  0
 21 22  1  0  0  0  0
 23 27  1  0  0  0  0
 23 25  1  0  0  0  0
 24 23  1  0  0  0  0
 26 32  1  0  0  0  0
 27 26  2  0  0  0  0
 28 34  1  0  0  0  0
 29 35  1  0  0  0  0
 29 28  2  0  0  0  0
 30 29  1  0  0  0  0
 31 30  2  0  0  0  0
 31 32  1  0  0  0  0
 32 33  2  0  0  0  0
 33 28  1  0  0  0  0
 36 40  2  0  0  0  0
 36 30  1  0  0  0  0
 37 36  1  0  0  0  0
 38 37  2  0  0  0  0
 38 39  1  0  0  0  0
 39 40  1  0  0  0  0
 41 37  1  0  0  0  0
 42 38  1  0  0  0  0
 43 39  1  0  0  0  0
M  END
>  <minimizedAffinity>
-7.26033545

>  <minimizedRMSD>
0.8814978

$$$$
