
 OpenBabel03272507583D

 35 37  0  0  1  0  0  0  0  0999 V2000
   37.3060   31.5620   48.3160 C   0  0  0  0  0  0  0  0  0  0  0  0
   37.4820   32.4180   49.3970 C   0  0  0  0  0  0  0  0  0  0  0  0
   38.4570   33.4060   49.3190 C   0  0  0  0  0  0  0  0  0  0  0  0
   39.2330   33.5350   48.1980 C   0  0  0  0  0  0  0  0  0  0  0  0
   39.0320   32.6710   47.1510 C   0  0  0  0  0  0  0  0  0  0  0  0
   38.0880   31.7150   47.2230 N   0  0  0  0  0  0  0  0  0  0  0  0
   36.9520   32.4340   50.3300 H   0  0  0  0  0  0  0  0  0  0  0  0
   38.6610   34.1130   50.1100 H   0  0  0  0  0  0  0  0  0  0  0  0
   40.0220   34.2470   47.9960 H   0  0  0  0  0  0  0  0  0  0  0  0
   35.3490   28.7060   49.7540 C   0  0  0  0  0  0  0  0  0  0  0  0
   36.4000   29.6500   49.5600 C   0  0  0  0  0  0  0  0  0  0  0  0
   36.2550   30.5870   48.5410 C   0  0  0  0  0  0  0  0  0  0  0  0
   35.1220   30.5570   47.7820 N   0  0  0  0  0  0  0  0  0  0  0  0
   34.1430   29.6320   48.0090 C   0  0  0  0  0  0  0  0  0  0  0  0
   34.2510   28.7180   48.9770 N   0  0  0  0  0  0  0  0  0  0  0  0
   33.0620   29.8040   47.0890 N   0  0  0  0  0  0  0  0  0  0  0  0
   35.4410   27.9630   50.5440 H   0  0  0  0  0  0  0  0  0  0  0  0
   32.2200   30.3880   47.2970 H   0  0  0  0  0  0  0  0  0  0  0  0
   33.3300   29.2390   46.2480 H   0  0  0  0  0  0  0  0  0  0  0  0
   37.5820   29.5810   50.4480 C   0  0  0  0  0  0  0  0  0  0  0  0
   38.7390   29.9750   49.7780 F   0  0  0  0  0  0  0  0  0  0  0  0
   37.3870   30.4260   51.5000 F   0  0  0  0  0  0  0  0  0  0  0  0
   37.8210   28.3180   50.9510 F   0  0  0  0  0  0  0  0  0  0  0  0
   39.8870   31.1270   45.4600 C   0  0  1  0  0  0  0  0  0  0  0  0
   39.7370   32.5980   45.8230 C   0  0  1  0  0  0  0  0  0  0  0  0
   39.0610   33.3210   44.8750 O   0  0  0  0  0  0  0  0  0  0  0  0
   38.3460   32.5850   43.9620 C   0  0  0  0  0  0  0  0  0  0  0  0
   39.1760   31.6230   43.1620 C   0  0  2  0  0  0  0  0  0  0  0  0
   40.3040   31.0610   44.0190 C   0  0  2  0  0  0  0  0  0  0  0  0
   40.8680   30.5610   46.2670 O   0  0  0  0  0  0  0  0  0  0  0  0
   41.5010   31.2590   46.6130 H   0  0  0  0  0  0  0  0  0  0  0  0
   39.7090   32.2720   42.0280 O   0  0  0  0  0  0  0  0  0  0  0  0
   39.2380   31.9240   41.2530 H   0  0  0  0  0  0  0  0  0  0  0  0
   40.5940   29.7520   43.6230 O   0  0  0  0  0  0  0  0  0  0  0  0
   39.7510   29.3300   43.3200 H   0  0  0  0  0  0  0  0  0  0  0  0
  1 12  1  0  0  0  0
  1  2  1  0  0  0  0
  2  7  1  0  0  0  0
  3  2  2  0  0  0  0
  3  8  1  0  0  0  0
  4  3  1  0  0  0  0
  5  6  1  0  0  0  0
  5  4  2  0  0  0  0
  6  1  2  0  0  0  0
  9  4  1  0  0  0  0
 10 17  1  0  0  0  0
 11 10  1  0  0  0  0
 11 20  1  0  0  0  0
 12 11  2  0  0  0  0
 13 14  2  0  0  0  0
 13 12  1  0  0  0  0
 14 15  1  0  0  0  0
 15 10  2  0  0  0  0
 16 18  1  0  0  0  0
 16 14  1  0  0  0  0
 19 16  1  0  0  0  0
 20 23  1  0  0  0  0
 20 22  1  0  0  0  0
 21 20  1  0  0  0  0
 24 25  1  0  0  0  0
 24 30  1  1  0  0  0
 25  5  1  1  0  0  0
 26 25  1  0  0  0  0
 27 26  1  0  0  0  0
 28 32  1  6  0  0  0
 28 27  1  0  0  0  0
 28 29  1  0  0  0  0
 29 34  1  6  0  0  0
 29 24  1  0  0  0  0
 30 31  1  0  0  0  0
 33 32  1  0  0  0  0
 35 34  1  0  0  0  0
M  END
>  <minimizedAffinity>
-8.34487915

>  <minimizedRMSD>
2.0149312

$$$$
