
 OpenBabel03272500023D

 31 33  0  0  1  0  0  0  0  0999 V2000
   35.9980   29.4720   49.1010 C   0  0  0  0  0  0  0  0  0  0  0  0
   36.1670   30.4660   48.1060 C   0  0  0  0  0  0  0  0  0  0  0  0
   35.3820   30.3830   46.9600 C   0  0  0  0  0  0  0  0  0  0  0  0
   34.4970   29.3550   46.8560 N   0  0  0  0  0  0  0  0  0  0  0  0
   34.3570   28.4300   47.8090 C   0  0  0  0  0  0  0  0  0  0  0  0
   35.0970   28.4760   48.9320 N   0  0  0  0  0  0  0  0  0  0  0  0
   36.5930   29.5120   49.9990 H   0  0  0  0  0  0  0  0  0  0  0  0
   35.5210   31.1510   46.2040 H   0  0  0  0  0  0  0  0  0  0  0  0
   37.1360   31.4910   48.3470 N   0  0  0  0  0  0  0  0  0  0  0  0
   37.2040   32.1360   49.5330 C   0  0  0  0  0  0  0  0  0  0  0  0
   38.1600   33.1310   49.7330 C   0  0  0  0  0  0  0  0  0  0  0  0
   38.9670   33.3470   48.6310 C   0  0  0  0  0  0  0  0  0  0  0  0
   39.8500   34.2570   48.7990 O   0  0  0  0  0  0  0  0  0  0  0  0
   38.9250   32.7290   47.4500 N   0  0  0  0  0  0  0  0  0  0  0  0
   37.9760   31.7750   47.3170 C   0  0  0  0  0  0  0  0  0  0  0  0
   37.9140   31.1750   46.2130 O   0  0  0  0  0  0  0  0  0  0  0  0
   36.5140   31.8860   50.3410 H   0  0  0  0  0  0  0  0  0  0  0  0
   38.2570   33.6660   50.6400 H   0  0  0  0  0  0  0  0  0  0  0  0
   39.5600   32.9470   46.6780 H   0  0  0  0  0  0  0  0  0  0  0  0
   31.9610   27.8470   47.9210 C   0  0  1  0  0  0  0  0  0  0  0  0
   33.3650   27.3120   47.6480 C   0  0  1  0  0  0  0  0  0  0  0  0
   33.4820   26.8660   46.3560 O   0  0  0  0  0  0  0  0  0  0  0  0
   32.6130   25.8720   45.9840 C   0  0  0  0  0  0  0  0  0  0  0  0
   31.4870   25.6570   46.9630 C   0  0  2  0  0  0  0  0  0  0  0  0
   30.8940   27.0130   47.2840 C   0  0  2  0  0  0  0  0  0  0  0  0
   31.7590   28.0510   49.2730 O   0  0  0  0  0  0  0  0  0  0  0  0
   32.4170   27.5260   49.7740 H   0  0  0  0  0  0  0  0  0  0  0  0
   31.8710   25.0330   48.1360 O   0  0  0  0  0  0  0  0  0  0  0  0
   31.1440   24.4150   48.3890 H   0  0  0  0  0  0  0  0  0  0  0  0
   30.5380   27.5930   46.0750 O   0  0  0  0  0  0  0  0  0  0  0  0
   29.5550   27.6630   45.9610 H   0  0  0  0  0  0  0  0  0  0  0  0
  1  7  1  0  0  0  0
  2  9  1  0  0  0  0
  2  1  2  0  0  0  0
  3  2  1  0  0  0  0
  4  3  2  0  0  0  0
  4  5  1  0  0  0  0
  5  6  2  0  0  0  0
  6  1  1  0  0  0  0
  8  3  1  0  0  0  0
  9 10  1  0  0  0  0
 10 11  2  0  0  0  0
 10 17  1  0  0  0  0
 11 18  1  0  0  0  0
 12 13  2  0  0  0  0
 12 11  1  0  0  0  0
 14 12  1  0  0  0  0
 15 14  1  0  0  0  0
 15  9  1  0  0  0  0
 16 15  2  0  0  0  0
 19 14  1  0  0  0  0
 20 26  1  1  0  0  0
 21  5  1  6  0  0  0
 21 20  1  0  0  0  0
 22 21  1  0  0  0  0
 23 22  1  0  0  0  0
 23 24  1  0  0  0  0
 24 25  1  0  0  0  0
 24 28  1  1  0  0  0
 25 30  1  6  0  0  0
 25 20  1  0  0  0  0
 26 27  1  0  0  0  0
 28 29  1  0  0  0  0
 31 30  1  0  0  0  0
M  END
>  <minimizedAffinity>
-5.88077164

>  <minimizedRMSD>
1.54029548

$$$$
