
 OpenBabel03272509053D

 36 38  0  0  1  0  0  0  0  0999 V2000
   37.5530   30.2990   51.3400 C   0  0  0  0  0  0  0  0  0  0  0  0
   38.0410   31.0580   50.2330 C   0  0  0  0  0  0  0  0  0  0  0  0
   37.3830   30.9290   48.9910 C   0  0  0  0  0  0  0  0  0  0  0  0
   36.3160   30.0830   48.9180 N   0  0  0  0  0  0  0  0  0  0  0  0
   35.9020   29.3920   49.9980 C   0  0  0  0  0  0  0  0  0  0  0  0
   36.5000   29.4870   51.1970 N   0  0  0  0  0  0  0  0  0  0  0  0
   38.1120   30.4540   52.2520 H   0  0  0  0  0  0  0  0  0  0  0  0
   38.8920   31.7280   50.3050 H   0  0  0  0  0  0  0  0  0  0  0  0
   38.1890   30.7230   46.7300 C   0  0  2  0  0  3  0  0  0  0  0  0
   37.8550   31.7010   47.8120 C   0  0  2  0  0  3  0  0  0  0  0  0
   38.9490   32.4390   48.2400 O   0  0  0  0  0  0  0  0  0  0  0  0
   39.6970   33.0140   47.2530 C   0  0  0  0  0  2  0  0  0  0  0  0
   39.2200   32.7580   45.8530 C   0  0  2  0  0  3  0  0  0  0  0  0
   39.1550   31.2490   45.6940 C   0  0  2  0  0  3  0  0  0  0  0  0
   37.0110   30.3720   46.0690 O   0  0  0  0  0  0  0  0  0  0  0  0
   36.8770   29.4060   46.1430 H   0  0  0  0  0  0  0  0  0  0  0  0
   40.2010   33.2550   44.9880 O   0  0  0  0  0  0  0  0  0  0  0  0
   41.0740   32.8660   45.2170 H   0  0  0  0  0  0  0  0  0  0  0  0
   38.8290   30.9010   44.4030 O   0  0  0  0  0  0  0  0  0  0  0  0
   37.9280   31.2050   44.1610 H   0  0  0  0  0  0  0  0  0  0  0  0
   34.7590   28.5160   49.7850 C   0  0  0  0  0  3  0  0  0  0  0  0
   34.3860   28.2760   48.5710 C   0  0  0  0  0  3  0  0  0  0  0  0
   33.2820   27.4220   48.1000 C   0  0  0  0  0  0  0  0  0  0  0  0
   32.9440   26.8010   48.9780 H   0  0  0  0  0  0  0  0  0  0  0  0
   32.3910   27.9940   47.7850 H   0  0  0  0  0  0  0  0  0  0  0  0
   33.6940   26.4280   47.0610 C   0  0  0  0  0  0  0  0  0  0  0  0
   33.9250   25.0870   47.2730 C   0  0  0  0  0  0  0  0  0  0  0  0
   34.3000   24.2840   46.2070 C   0  0  0  0  0  0  0  0  0  0  0  0
   34.4520   24.7910   44.9230 C   0  0  0  0  0  0  0  0  0  0  0  0
   34.2240   26.1280   44.7070 C   0  0  0  0  0  0  0  0  0  0  0  0
   33.8470   26.9420   45.7710 C   0  0  0  0  0  0  0  0  0  0  0  0
   33.7930   24.7370   48.2880 H   0  0  0  0  0  0  0  0  0  0  0  0
   34.4510   23.2530   46.5000 H   0  0  0  0  0  0  0  0  0  0  0  0
   34.7490   24.0620   44.1810 H   0  0  0  0  0  0  0  0  0  0  0  0
   34.3520   26.4910   43.6970 H   0  0  0  0  0  0  0  0  0  0  0  0
   33.6880   27.9810   45.5100 H   0  0  0  0  0  0  0  0  0  0  0  0
  1  7  1  0  0  0  0
  2  8  1  0  0  0  0
  2  1  2  0  0  0  0
  3  2  1  0  0  0  0
  4  3  2  0  0  0  0
  4  5  1  0  0  0  0
  5  6  2  0  0  0  0
  6  1  1  0  0  0  0
  9 15  1  6  0  0  0
  9 10  1  0  0  0  0
 10 11  1  0  0  0  0
 10  3  1  1  0  0  0
 12 11  1  0  0  0  0
 13 17  1  6  0  0  0
 13 12  1  0  0  0  0
 14 19  1  6  0  0  0
 14 13  1  0  0  0  0
 14  9  1  0  0  0  0
 15 16  1  0  0  0  0
 17 18  1  0  0  0  0
 20 19  1  0  0  0  0
 21  5  1  0  0  0  0
 22 21  2  0  0  0  0
 23 22  1  0  0  0  0
 23 24  1  0  0  0  0
 25 23  1  0  0  0  0
 26 27  1  0  0  0  0
 26 23  1  0  0  0  0
 27 32  1  0  0  0  0
 28 33  1  0  0  0  0
 28 27  2  0  0  0  0
 29 28  1  0  0  0  0
 30 29  2  0  0  0  0
 30 31  1  0  0  0  0
 31 26  2  0  0  0  0
 34 29  1  0  0  0  0
 35 30  1  0  0  0  0
 36 31  1  0  0  0  0
M  END
>  <minimizedAffinity>
-6.2310915

>  <minimizedRMSD>
1.11879313

$$$$
