
 OpenBabel03272507343D

 39 42  0  0  1  0  0  0  0  0999 V2000
   33.1240   27.4480   48.1600 C   0  0  0  0  0  0  0  0  0  0  0  0
   31.8750   27.4540   48.4170 O   0  0  0  0  0  0  0  0  0  0  0  0
   35.8350   29.1180   49.7880 C   0  0  0  0  0  0  0  0  0  0  0  0
   34.7970   29.6130   50.5500 C   0  0  0  0  0  0  0  0  0  0  0  0
   33.6090   29.0570   50.0490 C   0  0  0  0  0  0  0  0  0  0  0  0
   34.0070   28.2530   49.0050 C   0  0  0  0  0  0  0  0  0  0  0  0
   35.3160   28.3190   48.8890 O   0  0  0  0  0  0  0  0  0  0  0  0
   34.8420   30.3050   51.3910 H   0  0  0  0  0  0  0  0  0  0  0  0
   32.6080   29.2020   50.3750 H   0  0  0  0  0  0  0  0  0  0  0  0
   37.2190   29.4890   50.0340 C   0  0  0  0  0  0  0  0  0  0  0  0
   37.8560   28.9000   50.9210 O   0  0  0  0  0  0  0  0  0  0  0  0
   37.7690   30.5350   49.2180 C   0  0  0  0  0  0  0  0  0  0  0  0
   38.1100   31.7190   49.8550 C   0  0  0  0  0  0  0  0  0  0  0  0
   38.6460   32.7600   49.0860 C   0  0  0  0  0  0  0  0  0  0  0  0
   38.8040   32.5470   47.7380 N   0  0  0  0  0  0  0  0  0  0  0  0
   38.4650   31.3960   47.1600 C   0  0  0  0  0  0  0  0  0  0  0  0
   37.9500   30.3890   47.8870 N   0  0  0  0  0  0  0  0  0  0  0  0
   37.9800   31.8680   50.9030 H   0  0  0  0  0  0  0  0  0  0  0  0
   38.9280   33.7070   49.5430 H   0  0  0  0  0  0  0  0  0  0  0  0
   38.6020   31.2590   46.1010 H   0  0  0  0  0  0  0  0  0  0  0  0
   33.6820   26.6360   47.0300 C   0  0  1  0  0  0  0  0  0  0  0  0
   33.7010   25.1090   47.4270 C   0  0  0  0  0  0  0  0  0  0  0  0
   32.8540   25.6490   46.3330 C   0  0  2  0  0  0  0  0  0  0  0  0
   34.7450   26.9090   46.7570 H   0  0  0  0  0  0  0  0  0  0  0  0
   33.3060   24.8350   48.3980 H   0  0  0  0  0  0  0  0  0  0  0  0
   34.5590   24.5190   47.0940 H   0  0  0  0  0  0  0  0  0  0  0  0
   31.7620   25.7120   46.5780 H   0  0  0  0  0  0  0  0  0  0  0  0
   34.4900   25.8820   44.5460 C   0  0  1  0  0  3  0  0  0  0  0  0
   33.2070   25.2680   44.9000 C   0  0  1  0  0  3  0  0  0  0  0  0
   33.0540   23.9320   44.7680 O   0  0  0  0  0  0  0  0  0  0  0  0
   33.8550   23.2250   43.9490 C   0  0  0  0  0  2  0  0  0  0  0  0
   34.6540   24.0000   42.9450 C   0  0  2  0  0  3  0  0  0  0  0  0
   35.4340   25.0290   43.7480 C   0  0  2  0  0  3  0  0  0  0  0  0
   34.3050   27.0710   43.8280 O   0  0  0  0  0  0  0  0  0  0  0  0
   35.1990   27.5060   43.7460 H   0  0  0  0  0  0  0  0  0  0  0  0
   33.8250   24.6090   42.0100 O   0  0  0  0  0  0  0  0  0  0  0  0
   34.1620   24.3360   41.1260 H   0  0  0  0  0  0  0  0  0  0  0  0
   36.2610   24.3030   44.6230 O   0  0  0  0  0  0  0  0  0  0  0  0
   36.7870   23.6390   44.0990 H   0  0  0  0  0  0  0  0  0  0  0  0
  1  2  2  0  0  0  0
  1  6  1  0  0  0  0
  3 10  1  0  0  0  0
  3  4  2  0  0  0  0
  4  8  1  0  0  0  0
  5  9  1  0  0  0  0
  5  4  1  0  0  0  0
  6  5  2  0  0  0  0
  7  6  1  0  0  0  0
  7  3  1  0  0  0  0
 10 11  2  0  0  0  0
 12 13  1  0  0  0  0
 12 10  1  0  0  0  0
 13 18  1  0  0  0  0
 14 19  1  0  0  0  0
 14 13  2  0  0  0  0
 15 14  1  0  0  0  0
 16 15  2  0  0  0  0
 16 17  1  0  0  0  0
 17 12  2  0  0  0  0
 20 16  1  0  0  0  0
 21 24  1  6  0  0  0
 21 22  1  0  0  0  0
 21  1  1  0  0  0  0
 22 25  1  0  0  0  0
 23 27  1  1  0  0  0
 23 21  1  0  0  0  0
 23 22  1  0  0  0  0
 26 22  1  0  0  0  0
 28 34  1  6  0  0  0
 28 29  1  0  0  0  0
 29 30  1  1  0  0  0
 29 23  1  0  0  0  0
 31 30  1  0  0  0  0
 32 36  1  6  0  0  0
 32 33  1  0  0  0  0
 32 31  1  0  0  0  0
 33 28  1  0  0  0  0
 33 38  1  1  0  0  0
 35 34  1  0  0  0  0
 37 36  1  0  0  0  0
 39 38  1  0  0  0  0
M  END
>  <minimizedAffinity>
-5.07466173

>  <minimizedRMSD>
0.44187066

$$$$
