
 OpenBabel03272510113D

 34 37  0  0  0  0  0  0  0  0999 V2000
   33.4580   28.4840   48.4560 C   0  0  0  0  0  0  0  0  0  0  0  0
   33.9060   28.4110   49.7270 C   0  0  0  0  0  0  0  0  0  0  0  0
   35.1420   28.8540   50.1530 C   0  0  0  0  0  0  0  0  0  0  0  0
   36.0040   29.4150   49.2520 C   0  0  0  0  0  0  0  0  0  0  0  0
   35.5360   29.4890   47.9340 C   0  0  0  0  0  0  0  0  0  0  0  0
   34.3260   29.0450   47.5660 N   0  0  0  0  0  0  0  0  0  0  0  0
   33.2970   27.9840   50.5120 H   0  0  0  0  0  0  0  0  0  0  0  0
   35.4940   28.7940   51.1680 H   0  0  0  0  0  0  0  0  0  0  0  0
   36.1840   29.9280   47.1780 H   0  0  0  0  0  0  0  0  0  0  0  0
   31.1680   27.5220   48.8910 C   0  0  0  0  0  0  0  0  0  0  0  0
   32.1660   28.0170   48.0290 C   0  0  0  0  0  0  0  0  0  0  0  0
   31.8430   28.0390   46.6790 C   0  0  0  0  0  0  0  0  0  0  0  0
   30.6230   27.6000   46.2510 N   0  0  0  0  0  0  0  0  0  0  0  0
   29.7160   27.1400   47.1310 C   0  0  0  0  0  0  0  0  0  0  0  0
   29.9730   27.0950   48.4530 N   0  0  0  0  0  0  0  0  0  0  0  0
   31.3980   27.4950   49.9470 H   0  0  0  0  0  0  0  0  0  0  0  0
   32.5980   28.4160   45.9940 H   0  0  0  0  0  0  0  0  0  0  0  0
   28.8220   26.8430   46.5930 H   0  0  0  0  0  0  0  0  0  0  0  0
   37.2800   29.9120   49.5010 O   0  0  0  0  0  0  0  0  0  0  0  0
   37.9000   30.8030   48.6240 C   0  0  0  0  0  0  0  0  0  0  0  0
   38.2800   32.0010   49.2400 C   0  0  0  0  0  0  0  0  0  0  0  0
   38.8840   32.8050   48.2760 C   0  0  0  0  0  0  0  0  0  0  0  0
   38.8480   32.0840   47.1470 N   0  0  0  0  0  0  0  0  0  0  0  0
   38.2770   30.9230   47.3520 N   0  0  0  0  0  0  0  0  0  0  0  0
   38.2120   32.4240   50.2540 H   0  0  0  0  0  0  0  0  0  0  0  0
   39.3290   33.7890   48.2580 H   0  0  0  0  0  0  0  0  0  0  0  0
   39.3180   32.3960   45.8380 C   0  0  0  0  0  0  0  0  0  0  0  0
   39.4020   31.8050   44.5950 C   0  0  0  0  0  0  0  0  0  0  0  0
   39.0060   30.7990   44.5290 H   0  0  0  0  0  0  0  0  0  0  0  0
   40.0020   32.7390   43.7690 C   0  0  0  0  0  0  0  0  0  0  0  0
   40.1600   32.4630   42.7330 H   0  0  0  0  0  0  0  0  0  0  0  0
   40.2650   33.8460   44.5000 N   0  0  0  0  0  0  0  0  0  0  0  0
   40.7270   34.6870   44.0560 H   0  0  0  0  0  0  0  0  0  0  0  0
   39.8580   33.6430   45.7360 N   0  0  0  0  0  0  0  0  0  0  0  0
  1  2  1  0  0  0  0
  2  3  2  0  0  0  0
  2  7  1  0  0  0  0
  3  8  1  0  0  0  0
  4 19  1  0  0  0  0
  4  3  1  0  0  0  0
  5  4  2  0  0  0  0
  6  5  1  0  0  0  0
  6  1  2  0  0  0  0
  9  5  1  0  0  0  0
 10 16  1  0  0  0  0
 11  1  1  0  0  0  0
 11 10  2  0  0  0  0
 12 11  1  0  0  0  0
 13 12  2  0  0  0  0
 13 14  1  0  0  0  0
 14 15  2  0  0  0  0
 15 10  1  0  0  0  0
 17 12  1  0  0  0  0
 18 14  1  0  0  0  0
 20 21  1  0  0  0  0
 20 19  1  0  0  0  0
 21 25  1  0  0  0  0
 22 21  2  0  0  0  0
 23 24  1  0  0  0  0
 23 22  1  0  0  0  0
 24 20  2  0  0  0  0
 26 22  1  0  0  0  0
 27 23  1  0  0  0  0
 28 27  1  0  0  0  0
 29 28  1  0  0  0  0
 30 32  1  0  0  0  0
 30 28  2  0  0  0  0
 31 30  1  0  0  0  0
 32 34  1  0  0  0  0
 33 32  1  0  0  0  0
 34 27  2  0  0  0  0
M  END
>  <minimizedAffinity>
-5.82597446

>  <minimizedRMSD>
1.3296057

$$$$
