
 OpenBabel03272508163D

 30 32  0  0  0  0  0  0  0  0999 V2000
   35.2340   30.5640   47.5570 Cl  0  0  0  0  0  0  0  0  0  0  0  0
   35.4460   29.9050   45.9650 C   0  0  0  0  0  0  0  0  0  0  0  0
   34.5080   28.9760   45.6500 C   0  0  0  0  0  0  0  0  0  0  0  0
   34.5920   28.3750   44.3670 C   0  0  0  0  0  0  0  0  0  0  0  0
   35.5720   28.7120   43.4810 C   0  0  0  0  0  0  0  0  0  0  0  0
   36.5050   29.6620   43.8390 C   0  0  0  0  0  0  0  0  0  0  0  0
   37.7640   30.1180   42.7440 Cl  0  0  0  0  0  0  0  0  0  0  0  0
   36.4280   30.2390   45.0670 C   0  0  0  0  0  0  0  0  0  0  0  0
   33.8950   27.6250   44.0190 H   0  0  0  0  0  0  0  0  0  0  0  0
   35.6460   28.2610   42.4990 H   0  0  0  0  0  0  0  0  0  0  0  0
   33.6290   27.3660   47.2790 C   0  0  0  0  0  0  0  0  0  0  0  0
   33.3740   28.4560   46.4300 C   0  0  0  0  0  0  0  0  0  0  0  0
   32.0910   28.9780   46.3700 C   0  0  0  0  0  0  0  0  0  0  0  0
   31.1360   28.3990   47.1450 N   0  0  0  0  0  0  0  0  0  0  0  0
   31.4080   27.3490   47.9530 C   0  0  0  0  0  0  0  0  0  0  0  0
   32.6680   26.8230   48.0250 N   0  0  0  0  0  0  0  0  0  0  0  0
   34.6250   26.9450   47.3380 H   0  0  0  0  0  0  0  0  0  0  0  0
   31.9130   29.8180   45.7120 H   0  0  0  0  0  0  0  0  0  0  0  0
   30.5370   27.0210   48.4920 H   0  0  0  0  0  0  0  0  0  0  0  0
   37.3830   31.2620   45.5310 C   0  0  0  0  0  0  0  0  0  0  0  0
   37.5980   32.3890   45.0960 O   0  0  0  0  0  0  0  0  0  0  0  0
   38.2780   31.1430   46.6150 O   0  0  0  0  0  0  0  0  0  0  0  0
   38.4660   32.1700   47.5290 C   0  0  0  0  0  0  0  0  0  0  0  0
   39.5670   33.0020   47.4900 C   0  0  0  0  0  0  0  0  0  0  0  0
   40.3870   32.9780   46.7890 H   0  0  0  0  0  0  0  0  0  0  0  0
   39.4470   33.9010   48.5240 C   0  0  0  0  0  0  0  0  0  0  0  0
   40.0690   34.7070   48.8490 H   0  0  0  0  0  0  0  0  0  0  0  0
   38.3040   33.6160   49.1680 N   0  0  0  0  0  0  0  0  0  0  0  0
   37.8830   34.0880   50.0050 H   0  0  0  0  0  0  0  0  0  0  0  0
   37.7120   32.5710   48.5670 N   0  0  0  0  0  0  0  0  0  0  0  0
  2  1  1  0  0  0  0
  3  2  1  0  0  0  0
  3 12  1  0  0  0  0
  4  3  2  0  0  0  0
  5  6  2  0  0  0  0
  5  4  1  0  0  0  0
  6  8  1  0  0  0  0
  7  6  1  0  0  0  0
  8 20  1  0  0  0  0
  8  2  2  0  0  0  0
  9  4  1  0  0  0  0
 10  5  1  0  0  0  0
 11 17  1  0  0  0  0
 11 16  1  0  0  0  0
 12 11  2  0  0  0  0
 13 12  1  0  0  0  0
 13 14  2  0  0  0  0
 14 15  1  0  0  0  0
 15 16  2  0  0  0  0
 15 19  1  0  0  0  0
 18 13  1  0  0  0  0
 20 22  1  0  0  0  0
 21 20  2  0  0  0  0
 22 23  1  0  0  0  0
 23 30  2  0  0  0  0
 24 23  1  0  0  0  0
 24 26  2  0  0  0  0
 25 24  1  0  0  0  0
 26 27  1  0  0  0  0
 26 28  1  0  0  0  0
 28 29  1  0  0  0  0
 30 28  1  0  0  0  0
M  END
>  <minimizedAffinity>
-4.23131037

>  <minimizedRMSD>
4.17757368

$$$$
