
 OpenBabel03272505023D

 28 30  0  0  0  0  0  0  0  0999 V2000
   38.5300   30.4860   46.8900 Cl  0  0  0  0  0  0  0  0  0  0  0  0
   38.8770   31.9860   47.7340 C   0  0  0  0  0  0  0  0  0  0  0  0
   38.3140   32.1970   48.9630 C   0  0  0  0  0  0  0  0  0  0  0  0
   38.6340   33.3950   49.5620 C   0  0  0  0  0  0  0  0  0  0  0  0
   39.4780   34.2980   48.9260 C   0  0  0  0  0  0  0  0  0  0  0  0
   40.0150   34.0360   47.6940 C   0  0  0  0  0  0  0  0  0  0  0  0
   39.7040   32.8350   47.0730 C   0  0  0  0  0  0  0  0  0  0  0  0
   38.2540   33.6820   50.5350 H   0  0  0  0  0  0  0  0  0  0  0  0
   39.7250   35.2420   49.4100 H   0  0  0  0  0  0  0  0  0  0  0  0
   40.6680   34.7840   47.2500 H   0  0  0  0  0  0  0  0  0  0  0  0
   37.8920   30.4610   50.7010 C   0  0  0  0  0  0  0  0  0  0  0  0
   37.4260   31.2430   49.6300 C   0  0  0  0  0  0  0  0  0  0  0  0
   36.1130   31.0830   49.2330 C   0  0  0  0  0  0  0  0  0  0  0  0
   35.3460   30.1840   49.8940 N   0  0  0  0  0  0  0  0  0  0  0  0
   35.8060   29.4410   50.9180 C   0  0  0  0  0  0  0  0  0  0  0  0
   37.0750   29.5820   51.3160 N   0  0  0  0  0  0  0  0  0  0  0  0
   38.9260   30.5680   51.0350 H   0  0  0  0  0  0  0  0  0  0  0  0
   35.7130   31.6570   48.4230 H   0  0  0  0  0  0  0  0  0  0  0  0
   35.2170   28.7200   51.4590 H   0  0  0  0  0  0  0  0  0  0  0  0
   40.2680   32.6180   45.8350 O   0  0  0  0  0  0  0  0  0  0  0  0
   39.6160   32.4870   44.6430 C   0  0  0  0  0  0  0  0  0  0  0  0
   38.3950   32.7910   44.0920 C   0  0  0  0  0  0  0  0  0  0  0  0
   37.6680   33.2850   44.7190 H   0  0  0  0  0  0  0  0  0  0  0  0
   38.3410   32.3840   42.7790 C   0  0  0  0  0  0  0  0  0  0  0  0
   37.4910   32.5080   42.1280 H   0  0  0  0  0  0  0  0  0  0  0  0
   39.5400   31.8400   42.5700 N   0  0  0  0  0  0  0  0  0  0  0  0
   39.8220   31.4230   41.6330 H   0  0  0  0  0  0  0  0  0  0  0  0
   40.3160   31.8820   43.6400 N   0  0  0  0  0  0  0  0  0  0  0  0
  1  2  1  0  0  0  0
  2  3  1  0  0  0  0
  3  4  2  0  0  0  0
  3 12  1  0  0  0  0
  4  8  1  0  0  0  0
  5  9  1  0  0  0  0
  5  4  1  0  0  0  0
  6  5  2  0  0  0  0
  7  6  1  0  0  0  0
  7  2  2  0  0  0  0
 10  6  1  0  0  0  0
 11 17  1  0  0  0  0
 11 16  1  0  0  0  0
 12 11  2  0  0  0  0
 13 12  1  0  0  0  0
 13 14  2  0  0  0  0
 14 15  1  0  0  0  0
 15 16  2  0  0  0  0
 15 19  1  0  0  0  0
 18 13  1  0  0  0  0
 20  7  1  0  0  0  0
 21 20  1  0  0  0  0
 22 21  1  0  0  0  0
 22 23  1  0  0  0  0
 24 22  2  0  0  0  0
 25 24  1  0  0  0  0
 26 24  1  0  0  0  0
 26 28  1  0  0  0  0
 27 26  1  0  0  0  0
 28 21  2  0  0  0  0
M  END
>  <minimizedAffinity>
-5.98934507

>  <minimizedRMSD>
0.239160985

$$$$
