
 OpenBabel03272508213D

 41 44  0  0  0  0  0  0  0  0999 V2000
   37.4300   30.6470   46.4170 C   0  0  0  0  0  0  0  0  0  0  0  0
   37.7420   29.5900   46.2360 H   0  0  0  0  0  0  0  0  0  0  0  0
   36.4880   30.7390   45.7960 H   0  0  0  0  0  0  0  0  0  0  0  0
   37.7510   30.6410   43.6620 F   0  0  0  0  0  0  0  0  0  0  0  0
   38.4900   31.4660   44.4580 C   0  0  0  0  0  0  0  0  0  0  0  0
   38.4000   31.5240   45.8540 C   0  0  0  0  0  0  0  0  0  0  0  0
   39.2410   32.3940   46.4640 C   0  0  0  0  0  0  0  0  0  0  0  0
   40.1250   33.1840   45.8010 C   0  0  0  0  0  0  0  0  0  0  0  0
   40.2040   33.1200   44.4220 C   0  0  0  0  0  0  0  0  0  0  0  0
   39.3680   32.2380   43.7450 C   0  0  0  0  0  0  0  0  0  0  0  0
   39.3630   32.5080   47.4990 H   0  0  0  0  0  0  0  0  0  0  0  0
   40.8270   33.9090   46.2420 H   0  0  0  0  0  0  0  0  0  0  0  0
   40.9080   33.7470   43.8470 H   0  0  0  0  0  0  0  0  0  0  0  0
   39.5140   32.2170   42.3550 O   0  0  0  0  0  0  0  0  0  0  0  0
   38.6270   32.8830   41.5190 C   0  0  0  0  0  0  0  0  0  0  0  0
   38.0420   34.1420   41.3890 C   0  0  0  0  0  0  0  0  0  0  0  0
   38.3410   34.8520   42.1470 H   0  0  0  0  0  0  0  0  0  0  0  0
   37.2300   34.0670   40.2760 C   0  0  0  0  0  0  0  0  0  0  0  0
   36.6830   34.9550   40.0060 H   0  0  0  0  0  0  0  0  0  0  0  0
   37.3200   32.8340   39.7660 N   0  0  0  0  0  0  0  0  0  0  0  0
   36.7750   32.5490   38.9010 H   0  0  0  0  0  0  0  0  0  0  0  0
   38.1510   32.1170   40.4990 N   0  0  0  0  0  0  0  0  0  0  0  0
   37.0210   30.8850   47.8180 C   0  0  0  0  0  0  0  0  0  0  0  0
   37.9160   30.6100   48.4620 H   0  0  0  0  0  0  0  0  0  0  0  0
   36.8990   31.9680   48.0220 H   0  0  0  0  0  0  0  0  0  0  0  0
   35.7360   29.8660   49.6440 C   0  0  0  0  0  0  0  0  0  0  0  0
   35.9030   30.1500   48.3170 C   0  0  0  0  0  0  0  0  0  0  0  0
   34.9390   29.6080   47.5320 C   0  0  0  0  0  0  0  0  0  0  0  0
   33.9270   28.8700   47.9950 N   0  0  0  0  0  0  0  0  0  0  0  0
   33.7720   28.5960   49.2750 C   0  0  0  0  0  0  0  0  0  0  0  0
   34.6750   29.0910   50.1210 N   0  0  0  0  0  0  0  0  0  0  0  0
   34.9350   29.7480   46.4390 H   0  0  0  0  0  0  0  0  0  0  0  0
   33.0200   28.0230   49.8000 H   0  0  0  0  0  0  0  0  0  0  0  0
   36.6220   30.5220   50.7060 C   0  0  0  0  0  0  0  0  0  0  0  0
   37.1260   29.8390   51.8010 C   0  0  0  0  0  0  0  0  0  0  0  0
   38.0400   29.8110   50.5820 C   0  0  0  0  0  0  0  0  0  0  0  0
   36.7550   31.5700   50.6650 H   0  0  0  0  0  0  0  0  0  0  0  0
   36.6630   28.8420   52.0750 H   0  0  0  0  0  0  0  0  0  0  0  0
   37.5510   30.3100   52.6860 H   0  0  0  0  0  0  0  0  0  0  0  0
   38.0940   28.8670   50.0600 H   0  0  0  0  0  0  0  0  0  0  0  0
   38.8860   30.5230   50.5600 H   0  0  0  0  0  0  0  0  0  0  0  0
  1 23  1  0  0  0  0
  2  1  1  0  0  0  0
  3  1  1  0  0  0  0
  4  5  1  0  0  0  0
  5  6  1  0  0  0  0
  6  1  1  0  0  0  0
  6  7  2  0  0  0  0
  7 11  1  0  0  0  0
  8 12  1  0  0  0  0
  8  7  1  0  0  0  0
  9  8  2  0  0  0  0
 10  9  1  0  0  0  0
 10  5  2  0  0  0  0
 13  9  1  0  0  0  0
 14 10  1  0  0  0  0
 15 14  1  0  0  0  0
 16 15  1  0  0  0  0
 16 17  1  0  0  0  0
 18 16  2  0  0  0  0
 19 18  1  0  0  0  0
 20 18  1  0  0  0  0
 20 22  1  0  0  0  0
 21 20  1  0  0  0  0
 22 15  2  0  0  0  0
 23 25  1  0  0  0  0
 23 27  1  0  0  0  0
 23 24  1  0  0  0  0
 26 31  1  0  0  0  0
 26 34  1  0  0  0  0
 27 26  2  0  0  0  0
 28 29  2  0  0  0  0
 28 27  1  0  0  0  0
 29 30  1  0  0  0  0
 30 33  1  0  0  0  0
 30 31  2  0  0  0  0
 32 28  1  0  0  0  0
 34 35  1  0  0  0  0
 35 38  1  0  0  0  0
 35 39  1  0  0  0  0
 36 34  1  0  0  0  0
 36 35  1  0  0  0  0
 37 34  1  0  0  0  0
 40 36  1  0  0  0  0
 41 36  1  0  0  0  0
M  END
>  <minimizedAffinity>
-5.64900208

>  <minimizedRMSD>
4.297575

$$$$
