
 OpenBabel03262521073D

 44 46  0  0  1  0  0  0  0  0999 V2000
   36.5370   30.6530   45.0210 C   0  0  2  0  0  0  0  0  0  0  0  0
   37.3030   29.9370   44.0110 C   0  0  0  0  0  0  0  0  0  0  0  0
   38.6380   29.4140   44.5290 C   0  0  0  0  0  0  0  0  0  0  0  0
   39.4960   30.5100   45.1010 C   0  0  0  0  0  0  0  0  0  0  0  0
   38.7240   31.5570   45.8490 C   0  0  0  0  0  0  0  0  0  0  0  0
   37.3370   31.0590   46.2320 C   0  0  2  0  0  0  0  0  0  0  0  0
   36.1600   31.6150   44.5590 H   0  0  0  0  0  0  0  0  0  0  0  0
   37.5640   30.5590   43.0980 H   0  0  0  0  0  0  0  0  0  0  0  0
   36.8170   29.0450   43.5940 H   0  0  0  0  0  0  0  0  0  0  0  0
   39.1810   29.0400   43.6280 H   0  0  0  0  0  0  0  0  0  0  0  0
   38.5150   28.5350   45.1970 H   0  0  0  0  0  0  0  0  0  0  0  0
   40.1910   30.0130   45.8190 H   0  0  0  0  0  0  0  0  0  0  0  0
   40.1570   30.9890   44.3420 H   0  0  0  0  0  0  0  0  0  0  0  0
   39.2260   31.9750   46.7190 H   0  0  0  0  0  0  0  0  0  0  0  0
   38.5460   32.3900   45.1100 H   0  0  0  0  0  0  0  0  0  0  0  0
   36.8210   31.9480   46.6730 H   0  0  0  0  0  0  0  0  0  0  0  0
   35.3360   29.9720   45.5090 C   0  0  0  0  0  0  0  0  0  0  0  0
   34.8950   28.9300   44.6850 C   0  0  0  0  0  0  0  0  0  0  0  0
   33.7680   28.2360   45.1060 C   0  0  0  0  0  0  0  0  0  0  0  0
   33.1540   28.5920   46.2730 N   0  0  0  0  0  0  0  0  0  0  0  0
   33.6110   29.6010   47.0330 C   0  0  0  0  0  0  0  0  0  0  0  0
   34.6670   30.2400   46.6260 N   0  0  0  0  0  0  0  0  0  0  0  0
   35.1870   28.4890   43.7560 H   0  0  0  0  0  0  0  0  0  0  0  0
   33.2540   27.4080   44.6450 H   0  0  0  0  0  0  0  0  0  0  0  0
   33.1110   29.8740   47.9590 H   0  0  0  0  0  0  0  0  0  0  0  0
   37.5120   30.1410   47.2640 N   0  0  0  0  0  0  0  0  0  0  0  0
   36.8770   29.3170   47.1800 H   0  0  0  0  0  0  0  0  0  0  0  0
   37.4530   30.7120   48.8510 S   0  0  1  0  0  0  0  0  0  0  0  0
   38.6390   30.0970   49.5720 O   0  0  0  0  0  0  0  0  0  0  0  0
   38.6910   29.1890   49.9600 H   0  0  0  0  0  0  0  0  0  0  0  0
   37.5770   32.1990   48.9510 O   0  0  0  0  0  0  0  0  0  0  0  0
   38.5500   33.1510   49.2140 C   0  0  0  0  0  0  0  0  0  0  0  0
   39.1440   33.7140   48.0820 C   0  0  0  0  0  0  0  0  0  0  0  0
   39.0160   33.5740   47.0060 H   0  0  0  0  0  0  0  0  0  0  0  0
   40.0810   34.6330   48.5320 C   0  0  0  0  0  0  0  0  0  0  0  0
   40.7570   35.2850   47.9620 H   0  0  0  0  0  0  0  0  0  0  0  0
   40.0020   34.5760   49.8690 N   0  0  0  0  0  0  0  0  0  0  0  0
   40.5490   35.1190   50.5750 H   0  0  0  0  0  0  0  0  0  0  0  0
   39.1070   33.7100   50.2900 N   0  0  0  0  0  0  0  0  0  0  0  0
   36.0900   30.2040   49.6870 O   0  0  0  0  0  0  0  0  0  0  0  0
   36.3950   29.6010   50.8960 C   0  0  0  0  0  0  0  0  0  0  0  0
   37.2700   28.5680   50.6880 F   0  0  0  0  0  0  0  0  0  0  0  0
   37.0430   30.5390   51.6770 F   0  0  0  0  0  0  0  0  0  0  0  0
   35.2770   29.2150   51.6170 F   0  0  0  0  0  0  0  0  0  0  0  0
  1  7  1  6  0  0  0
  1 17  1  0  0  0  0
  1  6  1  0  0  0  0
  2  3  1  0  0  0  0
  2  1  1  0  0  0  0
  3  4  1  0  0  0  0
  3 11  1  0  0  0  0
  4 12  1  0  0  0  0
  4  5  1  0  0  0  0
  5  6  1  0  0  0  0
  5 14  1  0  0  0  0
  6 16  1  1  0  0  0
  6 26  1  0  0  0  0
  8  2  1  0  0  0  0
  9  2  1  0  0  0  0
 10  3  1  0  0  0  0
 13  4  1  0  0  0  0
 15  5  1  0  0  0  0
 17 22  1  0  0  0  0
 18 19  1  0  0  0  0
 18 17  2  0  0  0  0
 19 20  2  0  0  0  0
 20 21  1  0  0  0  0
 21 25  1  0  0  0  0
 22 21  2  0  0  0  0
 23 18  1  0  0  0  0
 24 19  1  0  0  0  0
 26 28  1  0  0  0  0
 27 26  1  0  0  0  0
 28 31  1  1  0  0  0
 28 29  1  0  0  0  0
 28 40  1  0  0  0  0
 29 30  1  0  0  0  0
 31 32  1  0  0  0  0
 32 39  2  0  0  0  0
 33 35  2  0  0  0  0
 33 32  1  0  0  0  0
 34 33  1  0  0  0  0
 35 37  1  0  0  0  0
 36 35  1  0  0  0  0
 37 39  1  0  0  0  0
 37 38  1  0  0  0  0
 40 41  1  0  0  0  0
 41 44  1  0  0  0  0
 41 43  1  0  0  0  0
 42 41  1  0  0  0  0
M  END
>  <minimizedAffinity>
-5.03954697

>  <minimizedRMSD>
1.61554658

$$$$
