
 OpenBabel03272510123D

 34 37  0  0  0  0  0  0  0  0999 V2000
   38.5580   25.3390   35.3740 C   0  0  0  0  0  0  0  0  0  0  0  0
   38.3760   26.5810   35.8710 C   0  0  0  0  0  0  0  0  0  0  0  0
   37.6920   27.5930   35.2290 C   0  0  0  0  0  0  0  0  0  0  0  0
   37.1440   27.3600   33.9980 C   0  0  0  0  0  0  0  0  0  0  0  0
   37.3350   26.0710   33.4860 C   0  0  0  0  0  0  0  0  0  0  0  0
   38.0070   25.1180   34.1470 N   0  0  0  0  0  0  0  0  0  0  0  0
   38.7730   26.8610   36.8380 H   0  0  0  0  0  0  0  0  0  0  0  0
   37.5500   28.5810   35.6300 H   0  0  0  0  0  0  0  0  0  0  0  0
   36.9180   25.8350   32.5090 H   0  0  0  0  0  0  0  0  0  0  0  0
   40.4820   23.7250   35.6080 C   0  0  0  0  0  0  0  0  0  0  0  0
   39.2750   24.2950   36.0580 C   0  0  0  0  0  0  0  0  0  0  0  0
   38.7720   23.7870   37.2480 C   0  0  0  0  0  0  0  0  0  0  0  0
   39.4350   22.7960   37.9130 N   0  0  0  0  0  0  0  0  0  0  0  0
   40.5850   22.2960   37.4250 C   0  0  0  0  0  0  0  0  0  0  0  0
   41.1200   22.7500   36.2750 N   0  0  0  0  0  0  0  0  0  0  0  0
   40.8910   24.1050   34.6820 H   0  0  0  0  0  0  0  0  0  0  0  0
   37.8410   24.2110   37.6150 H   0  0  0  0  0  0  0  0  0  0  0  0
   40.9470   21.5260   38.0960 H   0  0  0  0  0  0  0  0  0  0  0  0
   36.4270   28.2560   33.2110 O   0  0  0  0  0  0  0  0  0  0  0  0
   35.6070   29.2320   33.7770 C   0  0  0  0  0  0  0  0  0  0  0  0
   34.3280   29.2690   33.2090 C   0  0  0  0  0  0  0  0  0  0  0  0
   33.6050   30.2730   33.8490 C   0  0  0  0  0  0  0  0  0  0  0  0
   34.4480   30.7910   34.7520 N   0  0  0  0  0  0  0  0  0  0  0  0
   35.6090   30.1850   34.7090 N   0  0  0  0  0  0  0  0  0  0  0  0
   33.7990   28.7150   32.4180 H   0  0  0  0  0  0  0  0  0  0  0  0
   32.6060   30.6760   33.7700 H   0  0  0  0  0  0  0  0  0  0  0  0
   34.2590   31.8450   35.6920 C   0  0  0  0  0  0  0  0  0  0  0  0
   33.5520   33.0250   35.8040 C   0  0  0  0  0  0  0  0  0  0  0  0
   32.9350   33.2800   34.9510 H   0  0  0  0  0  0  0  0  0  0  0  0
   33.8700   33.5430   37.0470 C   0  0  0  0  0  0  0  0  0  0  0  0
   33.4100   34.4820   37.3300 H   0  0  0  0  0  0  0  0  0  0  0  0
   34.7370   32.6990   37.6500 N   0  0  0  0  0  0  0  0  0  0  0  0
   35.1110   32.9090   38.6170 H   0  0  0  0  0  0  0  0  0  0  0  0
   34.9710   31.6840   36.8430 N   0  0  0  0  0  0  0  0  0  0  0  0
  1  2  1  0  0  0  0
  1 11  1  0  0  0  0
  2  7  1  0  0  0  0
  3  8  1  0  0  0  0
  3  2  2  0  0  0  0
  4  3  1  0  0  0  0
  5  4  2  0  0  0  0
  5  6  1  0  0  0  0
  6  1  2  0  0  0  0
  9  5  1  0  0  0  0
 10 11  2  0  0  0  0
 10 15  1  0  0  0  0
 11 12  1  0  0  0  0
 12 17  1  0  0  0  0
 12 13  2  0  0  0  0
 14 13  1  0  0  0  0
 14 18  1  0  0  0  0
 15 14  2  0  0  0  0
 16 10  1  0  0  0  0
 19 20  1  0  0  0  0
 19  4  1  0  0  0  0
 20 24  2  0  0  0  0
 21 20  1  0  0  0  0
 21 22  2  0  0  0  0
 22 23  1  0  0  0  0
 23 27  1  0  0  0  0
 24 23  1  0  0  0  0
 25 21  1  0  0  0  0
 26 22  1  0  0  0  0
 27 28  1  0  0  0  0
 27 34  2  0  0  0  0
 28 30  2  0  0  0  0
 29 28  1  0  0  0  0
 30 31  1  0  0  0  0
 30 32  1  0  0  0  0
 32 33  1  0  0  0  0
 34 32  1  0  0  0  0
M  END
>  <minimizedAffinity>
-5.87767172

$$$$

 OpenBabel03272510123D

 34 37  0  0  0  0  0  0  0  0999 V2000
   35.6090   29.9080   34.2320 C   0  0  0  0  0  0  0  0  0  0  0  0
   35.6850   30.0560   32.8920 C   0  0  0  0  0  0  0  0  0  0  0  0
   36.2450   29.1370   32.0290 C   0  0  0  0  0  0  0  0  0  0  0  0
   36.7720   27.9780   32.5280 C   0  0  0  0  0  0  0  0  0  0  0  0
   36.6920   27.8280   33.9180 C   0  0  0  0  0  0  0  0  0  0  0  0
   36.1370   28.7490   34.7190 N   0  0  0  0  0  0  0  0  0  0  0  0
   35.2950   30.9390   32.4030 H   0  0  0  0  0  0  0  0  0  0  0  0
   36.3030   29.2610   30.9610 H   0  0  0  0  0  0  0  0  0  0  0  0
   37.0970   26.9220   34.3650 H   0  0  0  0  0  0  0  0  0  0  0  0
   35.7380   31.6370   36.0620 C   0  0  0  0  0  0  0  0  0  0  0  0
   35.0210   30.8770   35.1180 C   0  0  0  0  0  0  0  0  0  0  0  0
   33.6520   31.1070   35.0680 C   0  0  0  0  0  0  0  0  0  0  0  0
   33.0730   32.0220   35.9000 N   0  0  0  0  0  0  0  0  0  0  0  0
   33.8190   32.7140   36.7800 C   0  0  0  0  0  0  0  0  0  0  0  0
   35.1520   32.5330   36.8730 N   0  0  0  0  0  0  0  0  0  0  0  0
   36.8050   31.4740   36.1190 H   0  0  0  0  0  0  0  0  0  0  0  0
   33.0780   30.5320   34.3470 H   0  0  0  0  0  0  0  0  0  0  0  0
   33.1750   33.3820   37.3400 H   0  0  0  0  0  0  0  0  0  0  0  0
   37.3730   26.9470   31.8120 O   0  0  0  0  0  0  0  0  0  0  0  0
   36.8070   25.6730   31.7530 C   0  0  0  0  0  0  0  0  0  0  0  0
   35.6000   25.6430   31.0460 C   0  0  0  0  0  0  0  0  0  0  0  0
   35.1320   24.3300   31.0540 C   0  0  0  0  0  0  0  0  0  0  0  0
   36.0470   23.6370   31.7450 N   0  0  0  0  0  0  0  0  0  0  0  0
   37.0180   24.4180   32.1490 N   0  0  0  0  0  0  0  0  0  0  0  0
   34.9750   26.3800   30.5180 H   0  0  0  0  0  0  0  0  0  0  0  0
   34.2700   23.8140   30.6570 H   0  0  0  0  0  0  0  0  0  0  0  0
   36.0990   22.2520   32.0750 C   0  0  0  0  0  0  0  0  0  0  0  0
   35.2300   21.2150   32.3510 C   0  0  0  0  0  0  0  0  0  0  0  0
   34.1780   21.4700   32.3250 H   0  0  0  0  0  0  0  0  0  0  0  0
   36.0240   20.1070   32.5900 C   0  0  0  0  0  0  0  0  0  0  0  0
   35.5240   19.1760   32.8300 H   0  0  0  0  0  0  0  0  0  0  0  0
   37.3180   20.4750   32.4600 N   0  0  0  0  0  0  0  0  0  0  0  0
   38.0960   19.7730   32.6030 H   0  0  0  0  0  0  0  0  0  0  0  0
   37.3660   21.7560   32.1520 N   0  0  0  0  0  0  0  0  0  0  0  0
  1  6  1  0  0  0  0
  1 11  1  0  0  0  0
  2  1  2  0  0  0  0
  3  4  2  0  0  0  0
  3  2  1  0  0  0  0
  4  5  1  0  0  0  0
  5  9  1  0  0  0  0
  5  6  2  0  0  0  0
  7  2  1  0  0  0  0
  8  3  1  0  0  0  0
 10 16  1  0  0  0  0
 10 15  1  0  0  0  0
 11 10  2  0  0  0  0
 12 11  1  0  0  0  0
 12 13  2  0  0  0  0
 13 14  1  0  0  0  0
 14 15  2  0  0  0  0
 14 18  1  0  0  0  0
 17 12  1  0  0  0  0
 19  4  1  0  0  0  0
 20 19  1  0  0  0  0
 20 24  2  0  0  0  0
 21 22  2  0  0  0  0
 21 20  1  0  0  0  0
 22 23  1  0  0  0  0
 23 27  1  0  0  0  0
 23 24  1  0  0  0  0
 25 21  1  0  0  0  0
 26 22  1  0  0  0  0
 27 34  2  0  0  0  0
 27 28  1  0  0  0  0
 28 30  2  0  0  0  0
 29 28  1  0  0  0  0
 30 31  1  0  0  0  0
 32 30  1  0  0  0  0
 32 33  1  0  0  0  0
 34 32  1  0  0  0  0
M  END
>  <minimizedAffinity>
-5.50502682

$$$$

 OpenBabel03272510123D

 34 37  0  0  0  0  0  0  0  0999 V2000
   38.5390   25.2400   35.2780 C   0  0  0  0  0  0  0  0  0  0  0  0
   38.3570   26.5030   35.7180 C   0  0  0  0  0  0  0  0  0  0  0  0
   37.6280   27.4700   35.0560 C   0  0  0  0  0  0  0  0  0  0  0  0
   37.0310   27.1650   33.8640 C   0  0  0  0  0  0  0  0  0  0  0  0
   37.2230   25.8540   33.4100 C   0  0  0  0  0  0  0  0  0  0  0  0
   37.9390   24.9470   34.0890 N   0  0  0  0  0  0  0  0  0  0  0  0
   38.7900   26.8400   36.6500 H   0  0  0  0  0  0  0  0  0  0  0  0
   37.4860   28.4760   35.4120 H   0  0  0  0  0  0  0  0  0  0  0  0
   36.7670   25.5610   32.4660 H   0  0  0  0  0  0  0  0  0  0  0  0
   40.5470   23.7400   35.5540 C   0  0  0  0  0  0  0  0  0  0  0  0
   39.3030   24.2440   35.9810 C   0  0  0  0  0  0  0  0  0  0  0  0
   38.8110   23.7180   37.1690 C   0  0  0  0  0  0  0  0  0  0  0  0
   39.5190   22.7720   37.8520 N   0  0  0  0  0  0  0  0  0  0  0  0
   40.7020   22.3350   37.3860 C   0  0  0  0  0  0  0  0  0  0  0  0
   41.2290   22.8090   36.2400 N   0  0  0  0  0  0  0  0  0  0  0  0
   40.9490   24.1350   34.6320 H   0  0  0  0  0  0  0  0  0  0  0  0
   37.8520   24.0920   37.5170 H   0  0  0  0  0  0  0  0  0  0  0  0
   41.0980   21.5910   38.0690 H   0  0  0  0  0  0  0  0  0  0  0  0
   36.2650   28.0080   33.0640 O   0  0  0  0  0  0  0  0  0  0  0  0
   35.5380   29.0680   33.6060 C   0  0  0  0  0  0  0  0  0  0  0  0
   35.6630   30.2510   32.8680 C   0  0  0  0  0  0  0  0  0  0  0  0
   34.9000   31.2310   33.5000 C   0  0  0  0  0  0  0  0  0  0  0  0
   34.3590   30.6230   34.5640 N   0  0  0  0  0  0  0  0  0  0  0  0
   34.7300   29.3670   34.6230 N   0  0  0  0  0  0  0  0  0  0  0  0
   36.1970   30.5610   31.9570 H   0  0  0  0  0  0  0  0  0  0  0  0
   34.6810   32.2740   33.3220 H   0  0  0  0  0  0  0  0  0  0  0  0
   33.4890   31.1290   35.5720 C   0  0  0  0  0  0  0  0  0  0  0  0
   33.2420   32.3150   36.2330 C   0  0  0  0  0  0  0  0  0  0  0  0
   33.8660   33.1500   35.9400 H   0  0  0  0  0  0  0  0  0  0  0  0
   32.2110   32.0510   37.1170 C   0  0  0  0  0  0  0  0  0  0  0  0
   31.8640   32.8670   37.7400 H   0  0  0  0  0  0  0  0  0  0  0  0
   31.8600   30.7520   36.9840 N   0  0  0  0  0  0  0  0  0  0  0  0
   31.0840   30.3390   37.5730 H   0  0  0  0  0  0  0  0  0  0  0  0
   32.6210   30.1990   36.0620 N   0  0  0  0  0  0  0  0  0  0  0  0
  1  2  1  0  0  0  0
  1 11  1  0  0  0  0
  2  7  1  0  0  0  0
  3  8  1  0  0  0  0
  3  2  2  0  0  0  0
  4  3  1  0  0  0  0
  5  4  2  0  0  0  0
  5  6  1  0  0  0  0
  6  1  2  0  0  0  0
  9  5  1  0  0  0  0
 10 11  2  0  0  0  0
 10 15  1  0  0  0  0
 11 12  1  0  0  0  0
 12 17  1  0  0  0  0
 12 13  2  0  0  0  0
 14 13  1  0  0  0  0
 14 18  1  0  0  0  0
 15 14  2  0  0  0  0
 16 10  1  0  0  0  0
 19 20  1  0  0  0  0
 19  4  1  0  0  0  0
 20 24  2  0  0  0  0
 21 22  2  0  0  0  0
 21 20  1  0  0  0  0
 22 23  1  0  0  0  0
 23 24  1  0  0  0  0
 23 27  1  0  0  0  0
 25 21  1  0  0  0  0
 26 22  1  0  0  0  0
 27 34  2  0  0  0  0
 27 28  1  0  0  0  0
 28 30  2  0  0  0  0
 29 28  1  0  0  0  0
 30 31  1  0  0  0  0
 32 30  1  0  0  0  0
 32 33  1  0  0  0  0
 34 32  1  0  0  0  0
M  END
>  <minimizedAffinity>
-5.48249102

$$$$

 OpenBabel03272510123D

 34 37  0  0  0  0  0  0  0  0999 V2000
   35.9570   29.1700   34.2100 C   0  0  0  0  0  0  0  0  0  0  0  0
   35.9410   28.8540   32.8980 C   0  0  0  0  0  0  0  0  0  0  0  0
   36.4380   27.6830   32.3640 C   0  0  0  0  0  0  0  0  0  0  0  0
   36.9960   26.7490   33.1920 C   0  0  0  0  0  0  0  0  0  0  0  0
   37.0110   27.0800   34.5530 C   0  0  0  0  0  0  0  0  0  0  0  0
   36.5140   28.2310   35.0260 N   0  0  0  0  0  0  0  0  0  0  0  0
   35.5210   29.5290   32.1640 H   0  0  0  0  0  0  0  0  0  0  0  0
   36.4230   27.4360   31.3160 H   0  0  0  0  0  0  0  0  0  0  0  0
   37.4440   26.3690   35.2540 H   0  0  0  0  0  0  0  0  0  0  0  0
   36.0640   31.1660   35.7470 C   0  0  0  0  0  0  0  0  0  0  0  0
   35.4330   30.3970   34.7500 C   0  0  0  0  0  0  0  0  0  0  0  0
   34.2230   30.8890   34.2790 C   0  0  0  0  0  0  0  0  0  0  0  0
   33.7080   32.0510   34.7780 N   0  0  0  0  0  0  0  0  0  0  0  0
   34.3640   32.7360   35.7320 C   0  0  0  0  0  0  0  0  0  0  0  0
   35.5420   32.3070   36.2260 N   0  0  0  0  0  0  0  0  0  0  0  0
   37.0070   30.8010   36.1290 H   0  0  0  0  0  0  0  0  0  0  0  0
   33.7180   30.3130   33.5100 H   0  0  0  0  0  0  0  0  0  0  0  0
   33.7920   33.6210   35.9880 H   0  0  0  0  0  0  0  0  0  0  0  0
   37.5430   25.5210   32.8310 O   0  0  0  0  0  0  0  0  0  0  0  0
   38.5520   24.9220   33.5860 C   0  0  0  0  0  0  0  0  0  0  0  0
   39.8370   25.2380   33.1300 C   0  0  0  0  0  0  0  0  0  0  0  0
   40.7550   24.5890   33.9540 C   0  0  0  0  0  0  0  0  0  0  0  0
   40.0120   23.9240   34.8490 N   0  0  0  0  0  0  0  0  0  0  0  0
   38.7350   24.1190   34.6340 N   0  0  0  0  0  0  0  0  0  0  0  0
   40.2590   25.8480   32.3170 H   0  0  0  0  0  0  0  0  0  0  0  0
   41.8310   24.5210   34.0090 H   0  0  0  0  0  0  0  0  0  0  0  0
   40.4050   23.0880   35.9340 C   0  0  0  0  0  0  0  0  0  0  0  0
   41.4240   22.2150   36.2580 C   0  0  0  0  0  0  0  0  0  0  0  0
   42.1840   22.0840   35.4990 H   0  0  0  0  0  0  0  0  0  0  0  0
   41.1380   21.7520   37.5310 C   0  0  0  0  0  0  0  0  0  0  0  0
   41.8280   21.0440   37.9730 H   0  0  0  0  0  0  0  0  0  0  0  0
   39.9880   22.3310   37.9450 N   0  0  0  0  0  0  0  0  0  0  0  0
   39.5870   22.1130   38.8990 H   0  0  0  0  0  0  0  0  0  0  0  0
   39.5490   23.1300   36.9940 N   0  0  0  0  0  0  0  0  0  0  0  0
  1 11  1  0  0  0  0
  1  6  1  0  0  0  0
  2  1  2  0  0  0  0
  3  2  1  0  0  0  0
  3  4  2  0  0  0  0
  4  5  1  0  0  0  0
  5  6  2  0  0  0  0
  5  9  1  0  0  0  0
  7  2  1  0  0  0  0
  8  3  1  0  0  0  0
 10 16  1  0  0  0  0
 10 15  1  0  0  0  0
 11 10  2  0  0  0  0
 12 11  1  0  0  0  0
 12 13  2  0  0  0  0
 13 14  1  0  0  0  0
 14 18  1  0  0  0  0
 14 15  2  0  0  0  0
 17 12  1  0  0  0  0
 19  4  1  0  0  0  0
 19 20  1  0  0  0  0
 20 24  2  0  0  0  0
 21 20  1  0  0  0  0
 21 22  2  0  0  0  0
 22 26  1  0  0  0  0
 22 23  1  0  0  0  0
 23 27  1  0  0  0  0
 24 23  1  0  0  0  0
 25 21  1  0  0  0  0
 27 28  1  0  0  0  0
 27 34  2  0  0  0  0
 28 30  2  0  0  0  0
 29 28  1  0  0  0  0
 30 32  1  0  0  0  0
 30 31  1  0  0  0  0
 32 33  1  0  0  0  0
 34 32  1  0  0  0  0
M  END
>  <minimizedAffinity>
-5.47916126

$$$$

 OpenBabel03272510123D

 34 37  0  0  0  0  0  0  0  0999 V2000
   35.6940   29.0580   33.7580 C   0  0  0  0  0  0  0  0  0  0  0  0
   36.5880   28.0990   34.0780 C   0  0  0  0  0  0  0  0  0  0  0  0
   37.1630   27.2260   33.1760 C   0  0  0  0  0  0  0  0  0  0  0  0
   36.8290   27.3070   31.8530 C   0  0  0  0  0  0  0  0  0  0  0  0
   35.9010   28.3040   31.5250 C   0  0  0  0  0  0  0  0  0  0  0  0
   35.3690   29.1310   32.4360 N   0  0  0  0  0  0  0  0  0  0  0  0
   36.9150   27.9560   35.0990 H   0  0  0  0  0  0  0  0  0  0  0  0
   37.8750   26.4620   33.4380 H   0  0  0  0  0  0  0  0  0  0  0  0
   35.6020   28.4100   30.4840 H   0  0  0  0  0  0  0  0  0  0  0  0
   33.7210   30.0810   34.9500 C   0  0  0  0  0  0  0  0  0  0  0  0
   35.1040   29.9600   34.7110 C   0  0  0  0  0  0  0  0  0  0  0  0
   35.9240   30.7870   35.4680 C   0  0  0  0  0  0  0  0  0  0  0  0
   35.3850   31.6510   36.3770 N   0  0  0  0  0  0  0  0  0  0  0  0
   34.0540   31.7140   36.5550 C   0  0  0  0  0  0  0  0  0  0  0  0
   33.2090   30.9360   35.8490 N   0  0  0  0  0  0  0  0  0  0  0  0
   33.0640   29.4470   34.3710 H   0  0  0  0  0  0  0  0  0  0  0  0
   36.9950   30.7120   35.3000 H   0  0  0  0  0  0  0  0  0  0  0  0
   33.8340   32.4560   37.3140 H   0  0  0  0  0  0  0  0  0  0  0  0
   37.3050   26.5160   30.8120 O   0  0  0  0  0  0  0  0  0  0  0  0
   37.2560   25.1230   30.8730 C   0  0  0  0  0  0  0  0  0  0  0  0
   38.4570   24.5170   30.4850 C   0  0  0  0  0  0  0  0  0  0  0  0
   38.2920   23.1370   30.5860 C   0  0  0  0  0  0  0  0  0  0  0  0
   37.0350   22.9660   31.0170 N   0  0  0  0  0  0  0  0  0  0  0  0
   36.4370   24.1190   31.1830 N   0  0  0  0  0  0  0  0  0  0  0  0
   39.4430   24.8660   30.1400 H   0  0  0  0  0  0  0  0  0  0  0  0
   38.9090   22.2690   30.4040 H   0  0  0  0  0  0  0  0  0  0  0  0
   36.3120   21.7710   31.3000 C   0  0  0  0  0  0  0  0  0  0  0  0
   36.2470   20.4650   30.8580 C   0  0  0  0  0  0  0  0  0  0  0  0
   36.9270   20.2110   30.0550 H   0  0  0  0  0  0  0  0  0  0  0  0
   35.2740   19.8510   31.6280 C   0  0  0  0  0  0  0  0  0  0  0  0
   35.0680   18.8060   31.4330 H   0  0  0  0  0  0  0  0  0  0  0  0
   34.7800   20.7630   32.4950 N   0  0  0  0  0  0  0  0  0  0  0  0
   34.0190   20.4990   33.1810 H   0  0  0  0  0  0  0  0  0  0  0  0
   35.3980   21.9100   32.3020 N   0  0  0  0  0  0  0  0  0  0  0  0
  1  2  1  0  0  0  0
  1 11  1  0  0  0  0
  2  7  1  0  0  0  0
  3  8  1  0  0  0  0
  3  2  2  0  0  0  0
  4  3  1  0  0  0  0
  5  4  2  0  0  0  0
  5  6  1  0  0  0  0
  6  1  2  0  0  0  0
  9  5  1  0  0  0  0
 10 15  1  0  0  0  0
 11 10  2  0  0  0  0
 11 12  1  0  0  0  0
 12 13  2  0  0  0  0
 13 14  1  0  0  0  0
 14 18  1  0  0  0  0
 15 14  2  0  0  0  0
 16 10  1  0  0  0  0
 17 12  1  0  0  0  0
 19 20  1  0  0  0  0
 19  4  1  0  0  0  0
 20 24  2  0  0  0  0
 21 22  2  0  0  0  0
 21 20  1  0  0  0  0
 22 23  1  0  0  0  0
 23 24  1  0  0  0  0
 23 27  1  0  0  0  0
 25 21  1  0  0  0  0
 26 22  1  0  0  0  0
 27 34  2  0  0  0  0
 28 27  1  0  0  0  0
 28 30  2  0  0  0  0
 29 28  1  0  0  0  0
 30 32  1  0  0  0  0
 31 30  1  0  0  0  0
 32 33  1  0  0  0  0
 34 32  1  0  0  0  0
M  END
>  <minimizedAffinity>
-5.43640804

$$$$

 OpenBabel03272510123D

 34 37  0  0  0  0  0  0  0  0999 V2000
   36.2210   22.8400   32.0020 C   0  0  0  0  0  0  0  0  0  0  0  0
   35.4620   23.6960   31.2860 C   0  0  0  0  0  0  0  0  0  0  0  0
   35.6250   25.0660   31.2660 C   0  0  0  0  0  0  0  0  0  0  0  0
   36.6180   25.6370   32.0130 C   0  0  0  0  0  0  0  0  0  0  0  0
   37.4040   24.7460   32.7550 C   0  0  0  0  0  0  0  0  0  0  0  0
   37.2090   23.4200   32.7430 N   0  0  0  0  0  0  0  0  0  0  0  0
   34.6510   23.3400   30.6640 H   0  0  0  0  0  0  0  0  0  0  0  0
   35.0160   25.7430   30.6930 H   0  0  0  0  0  0  0  0  0  0  0  0
   38.2080   25.1510   33.3660 H   0  0  0  0  0  0  0  0  0  0  0  0
   35.6420   20.6640   33.1370 C   0  0  0  0  0  0  0  0  0  0  0  0
   36.0370   21.4130   32.0120 C   0  0  0  0  0  0  0  0  0  0  0  0
   36.2550   20.6890   30.8480 C   0  0  0  0  0  0  0  0  0  0  0  0
   36.0870   19.3340   30.8340 N   0  0  0  0  0  0  0  0  0  0  0  0
   35.7080   18.6810   31.9470 C   0  0  0  0  0  0  0  0  0  0  0  0
   35.4810   19.3320   33.1060 N   0  0  0  0  0  0  0  0  0  0  0  0
   35.4670   21.2080   34.0550 H   0  0  0  0  0  0  0  0  0  0  0  0
   36.5620   21.2450   29.9660 H   0  0  0  0  0  0  0  0  0  0  0  0
   35.6320   17.6220   31.7270 H   0  0  0  0  0  0  0  0  0  0  0  0
   36.9260   26.9910   32.1140 O   0  0  0  0  0  0  0  0  0  0  0  0
   36.0010   27.9150   32.6010 C   0  0  0  0  0  0  0  0  0  0  0  0
   36.3470   28.4220   33.8600 C   0  0  0  0  0  0  0  0  0  0  0  0
   35.3590   29.3280   34.2410 C   0  0  0  0  0  0  0  0  0  0  0  0
   34.4800   29.3350   33.2300 N   0  0  0  0  0  0  0  0  0  0  0  0
   34.8560   28.5140   32.2790 N   0  0  0  0  0  0  0  0  0  0  0  0
   37.1730   28.2730   34.5720 H   0  0  0  0  0  0  0  0  0  0  0  0
   35.1790   29.9590   35.0990 H   0  0  0  0  0  0  0  0  0  0  0  0
   33.2710   30.0690   33.0640 C   0  0  0  0  0  0  0  0  0  0  0  0
   32.2510   30.5830   33.8390 C   0  0  0  0  0  0  0  0  0  0  0  0
   32.3420   30.4070   34.9040 H   0  0  0  0  0  0  0  0  0  0  0  0
   31.3790   31.2010   32.9610 C   0  0  0  0  0  0  0  0  0  0  0  0
   30.4990   31.6740   33.3790 H   0  0  0  0  0  0  0  0  0  0  0  0
   31.8660   31.0570   31.7070 N   0  0  0  0  0  0  0  0  0  0  0  0
   31.3470   31.4590   30.8770 H   0  0  0  0  0  0  0  0  0  0  0  0
   32.9950   30.3810   31.7660 N   0  0  0  0  0  0  0  0  0  0  0  0
  1 11  1  0  0  0  0
  1  6  1  0  0  0  0
  2  1  2  0  0  0  0
  3  2  1  0  0  0  0
  3  4  2  0  0  0  0
  4 19  1  0  0  0  0
  4  5  1  0  0  0  0
  5  9  1  0  0  0  0
  6  5  2  0  0  0  0
  7  2  1  0  0  0  0
  8  3  1  0  0  0  0
 10 16  1  0  0  0  0
 11 10  2  0  0  0  0
 12 11  1  0  0  0  0
 13 12  2  0  0  0  0
 13 14  1  0  0  0  0
 14 15  2  0  0  0  0
 15 10  1  0  0  0  0
 17 12  1  0  0  0  0
 18 14  1  0  0  0  0
 19 20  1  0  0  0  0
 20 21  1  0  0  0  0
 21 22  2  0  0  0  0
 21 25  1  0  0  0  0
 22 26  1  0  0  0  0
 23 22  1  0  0  0  0
 24 20  2  0  0  0  0
 24 23  1  0  0  0  0
 27 23  1  0  0  0  0
 27 28  1  0  0  0  0
 28 29  1  0  0  0  0
 30 31  1  0  0  0  0
 30 28  2  0  0  0  0
 32 34  1  0  0  0  0
 32 30  1  0  0  0  0
 33 32  1  0  0  0  0
 34 27  2  0  0  0  0
M  END
>  <minimizedAffinity>
-5.40865326

$$$$

 OpenBabel03272510123D

 34 37  0  0  0  0  0  0  0  0999 V2000
   37.9620   25.5130   35.0340 C   0  0  0  0  0  0  0  0  0  0  0  0
   37.6120   26.7970   35.2570 C   0  0  0  0  0  0  0  0  0  0  0  0
   37.1040   27.6530   34.3010 C   0  0  0  0  0  0  0  0  0  0  0  0
   36.9270   27.2040   33.0220 C   0  0  0  0  0  0  0  0  0  0  0  0
   37.2920   25.8710   32.7930 C   0  0  0  0  0  0  0  0  0  0  0  0
   37.7810   25.0760   33.7540 N   0  0  0  0  0  0  0  0  0  0  0  0
   37.7150   27.2440   36.2370 H   0  0  0  0  0  0  0  0  0  0  0  0
   36.8270   28.6760   34.4850 H   0  0  0  0  0  0  0  0  0  0  0  0
   37.1690   25.4650   31.7910 H   0  0  0  0  0  0  0  0  0  0  0  0
   37.9170   24.4390   37.3150 C   0  0  0  0  0  0  0  0  0  0  0  0
   38.4910   24.6340   36.0430 C   0  0  0  0  0  0  0  0  0  0  0  0
   39.6460   23.9100   35.7810 C   0  0  0  0  0  0  0  0  0  0  0  0
   40.1650   23.0700   36.7250 N   0  0  0  0  0  0  0  0  0  0  0  0
   39.5650   22.9320   37.9210 C   0  0  0  0  0  0  0  0  0  0  0  0
   38.4410   23.6090   38.2300 N   0  0  0  0  0  0  0  0  0  0  0  0
   37.0170   24.9930   37.5400 H   0  0  0  0  0  0  0  0  0  0  0  0
   40.1070   24.0450   34.8070 H   0  0  0  0  0  0  0  0  0  0  0  0
   40.1300   22.2260   38.5190 H   0  0  0  0  0  0  0  0  0  0  0  0
   36.4310   27.9210   31.9370 O   0  0  0  0  0  0  0  0  0  0  0  0
   35.3750   28.8220   32.0780 C   0  0  0  0  0  0  0  0  0  0  0  0
   35.5580   29.9980   31.3400 C   0  0  0  0  0  0  0  0  0  0  0  0
   34.4500   30.8140   31.5570 C   0  0  0  0  0  0  0  0  0  0  0  0
   33.6630   30.1230   32.3930 N   0  0  0  0  0  0  0  0  0  0  0  0
   34.2020   28.9670   32.6930 N   0  0  0  0  0  0  0  0  0  0  0  0
   36.3330   30.3970   30.6680 H   0  0  0  0  0  0  0  0  0  0  0  0
   34.1320   31.7910   31.2220 H   0  0  0  0  0  0  0  0  0  0  0  0
   32.4000   30.4590   32.9600 C   0  0  0  0  0  0  0  0  0  0  0  0
   31.7120   31.5800   33.3780 C   0  0  0  0  0  0  0  0  0  0  0  0
   32.2410   32.5180   33.2670 H   0  0  0  0  0  0  0  0  0  0  0  0
   30.4880   31.1270   33.8360 C   0  0  0  0  0  0  0  0  0  0  0  0
   29.7900   31.8650   34.2140 H   0  0  0  0  0  0  0  0  0  0  0  0
   30.4520   29.7820   33.6950 N   0  0  0  0  0  0  0  0  0  0  0  0
   29.5980   29.2310   33.9870 H   0  0  0  0  0  0  0  0  0  0  0  0
   31.5930   29.3810   33.1720 N   0  0  0  0  0  0  0  0  0  0  0  0
  1  2  1  0  0  0  0
  1 11  1  0  0  0  0
  2  7  1  0  0  0  0
  3  8  1  0  0  0  0
  3  2  2  0  0  0  0
  4  3  1  0  0  0  0
  5  4  2  0  0  0  0
  5  6  1  0  0  0  0
  6  1  2  0  0  0  0
  9  5  1  0  0  0  0
 10 16  1  0  0  0  0
 10 15  1  0  0  0  0
 11 10  2  0  0  0  0
 12 11  1  0  0  0  0
 12 13  2  0  0  0  0
 13 14  1  0  0  0  0
 14 15  2  0  0  0  0
 14 18  1  0  0  0  0
 17 12  1  0  0  0  0
 19 20  1  0  0  0  0
 19  4  1  0  0  0  0
 20 24  2  0  0  0  0
 21 22  2  0  0  0  0
 21 20  1  0  0  0  0
 22 23  1  0  0  0  0
 23 24  1  0  0  0  0
 23 27  1  0  0  0  0
 25 21  1  0  0  0  0
 26 22  1  0  0  0  0
 27 34  2  0  0  0  0
 27 28  1  0  0  0  0
 28 30  2  0  0  0  0
 29 28  1  0  0  0  0
 30 31  1  0  0  0  0
 32 30  1  0  0  0  0
 32 33  1  0  0  0  0
 34 32  1  0  0  0  0
M  END
>  <minimizedAffinity>
-5.40765572

$$$$

 OpenBabel03272510123D

 34 37  0  0  0  0  0  0  0  0999 V2000
   38.2250   25.4910   35.3150 C   0  0  0  0  0  0  0  0  0  0  0  0
   37.9960   26.7560   35.7280 C   0  0  0  0  0  0  0  0  0  0  0  0
   37.3520   27.7230   34.9840 C   0  0  0  0  0  0  0  0  0  0  0  0
   36.8960   27.4170   33.7320 C   0  0  0  0  0  0  0  0  0  0  0  0
   37.1360   26.1040   33.3060 C   0  0  0  0  0  0  0  0  0  0  0  0
   37.7660   25.1970   34.0650 N   0  0  0  0  0  0  0  0  0  0  0  0
   38.3190   27.0930   36.7040 H   0  0  0  0  0  0  0  0  0  0  0  0
   37.1720   28.7300   35.3190 H   0  0  0  0  0  0  0  0  0  0  0  0
   36.7920   25.8100   32.3160 H   0  0  0  0  0  0  0  0  0  0  0  0
   40.0710   23.8190   35.7110 C   0  0  0  0  0  0  0  0  0  0  0  0
   38.8990   24.4950   36.1040 C   0  0  0  0  0  0  0  0  0  0  0  0
   38.3880   24.1470   37.3480 C   0  0  0  0  0  0  0  0  0  0  0  0
   39.0110   23.2040   38.1130 N   0  0  0  0  0  0  0  0  0  0  0  0
   40.1290   22.5980   37.6750 C   0  0  0  0  0  0  0  0  0  0  0  0
   40.6710   22.8940   36.4770 N   0  0  0  0  0  0  0  0  0  0  0  0
   40.4860   24.0740   34.7460 H   0  0  0  0  0  0  0  0  0  0  0  0
   37.4840   24.6550   37.6730 H   0  0  0  0  0  0  0  0  0  0  0  0
   40.4630   21.8890   38.4240 H   0  0  0  0  0  0  0  0  0  0  0  0
   36.2310   28.2590   32.8460 O   0  0  0  0  0  0  0  0  0  0  0  0
   36.8350   28.7100   31.6730 C   0  0  0  0  0  0  0  0  0  0  0  0
   36.0980   29.7090   31.0270 C   0  0  0  0  0  0  0  0  0  0  0  0
   36.7930   30.0780   29.8770 C   0  0  0  0  0  0  0  0  0  0  0  0
   37.8920   29.3110   29.8710 N   0  0  0  0  0  0  0  0  0  0  0  0
   37.9140   28.5190   30.9140 N   0  0  0  0  0  0  0  0  0  0  0  0
   35.1490   30.2360   31.2130 H   0  0  0  0  0  0  0  0  0  0  0  0
   36.6400   30.7840   29.0740 H   0  0  0  0  0  0  0  0  0  0  0  0
   38.9680   29.2490   28.9400 C   0  0  0  0  0  0  0  0  0  0  0  0
   39.1850   29.4200   27.5870 C   0  0  0  0  0  0  0  0  0  0  0  0
   38.3100   29.6810   27.0050 H   0  0  0  0  0  0  0  0  0  0  0  0
   40.5350   29.1920   27.3860 C   0  0  0  0  0  0  0  0  0  0  0  0
   40.9120   29.2780   26.3740 H   0  0  0  0  0  0  0  0  0  0  0  0
   41.0980   28.8950   28.5790 N   0  0  0  0  0  0  0  0  0  0  0  0
   42.1320   28.6830   28.6510 H   0  0  0  0  0  0  0  0  0  0  0  0
   40.1650   28.9290   29.5090 N   0  0  0  0  0  0  0  0  0  0  0  0
  1  2  1  0  0  0  0
  1 11  1  0  0  0  0
  2  7  1  0  0  0  0
  3  8  1  0  0  0  0
  3  2  2  0  0  0  0
  4  3  1  0  0  0  0
  5  4  2  0  0  0  0
  5  6  1  0  0  0  0
  6  1  2  0  0  0  0
  9  5  1  0  0  0  0
 10 11  2  0  0  0  0
 10 15  1  0  0  0  0
 11 12  1  0  0  0  0
 12 17  1  0  0  0  0
 12 13  2  0  0  0  0
 14 13  1  0  0  0  0
 14 18  1  0  0  0  0
 15 14  2  0  0  0  0
 16 10  1  0  0  0  0
 19  4  1  0  0  0  0
 20 19  1  0  0  0  0
 21 25  1  0  0  0  0
 21 20  1  0  0  0  0
 22 21  2  0  0  0  0
 23 22  1  0  0  0  0
 23 24  1  0  0  0  0
 24 20  2  0  0  0  0
 26 22  1  0  0  0  0
 27 34  2  0  0  0  0
 27 23  1  0  0  0  0
 28 27  1  0  0  0  0
 29 28  1  0  0  0  0
 30 28  2  0  0  0  0
 30 32  1  0  0  0  0
 31 30  1  0  0  0  0
 32 33  1  0  0  0  0
 32 34  1  0  0  0  0
M  END
>  <minimizedAffinity>
-5.19369888

$$$$

 OpenBabel03272510123D

 34 37  0  0  0  0  0  0  0  0999 V2000
   38.0910   25.2020   35.0030 C   0  0  0  0  0  0  0  0  0  0  0  0
   37.6970   26.4690   35.2500 C   0  0  0  0  0  0  0  0  0  0  0  0
   37.0500   27.2840   34.3440 C   0  0  0  0  0  0  0  0  0  0  0  0
   36.7700   26.8100   33.0920 C   0  0  0  0  0  0  0  0  0  0  0  0
   37.1810   25.4950   32.8380 C   0  0  0  0  0  0  0  0  0  0  0  0
   37.8060   24.7400   33.7520 N   0  0  0  0  0  0  0  0  0  0  0  0
   37.8730   26.9330   36.2120 H   0  0  0  0  0  0  0  0  0  0  0  0
   36.7380   28.2940   34.5470 H   0  0  0  0  0  0  0  0  0  0  0  0
   36.9810   25.0710   31.8570 H   0  0  0  0  0  0  0  0  0  0  0  0
   39.9890   23.7100   35.7300 C   0  0  0  0  0  0  0  0  0  0  0  0
   38.7640   24.3660   35.9610 C   0  0  0  0  0  0  0  0  0  0  0  0
   38.1970   24.1670   37.2120 C   0  0  0  0  0  0  0  0  0  0  0  0
   38.8180   23.3760   38.1360 N   0  0  0  0  0  0  0  0  0  0  0  0
   39.9890   22.7800   37.8480 C   0  0  0  0  0  0  0  0  0  0  0  0
   40.5870   22.9370   36.6500 N   0  0  0  0  0  0  0  0  0  0  0  0
   40.4490   23.8510   34.7610 H   0  0  0  0  0  0  0  0  0  0  0  0
   37.2510   24.6620   37.4130 H   0  0  0  0  0  0  0  0  0  0  0  0
   40.3110   22.2020   38.7080 H   0  0  0  0  0  0  0  0  0  0  0  0
   36.1310   27.4860   32.0570 O   0  0  0  0  0  0  0  0  0  0  0  0
   36.2650   28.8650   31.8930 C   0  0  0  0  0  0  0  0  0  0  0  0
   36.7320   29.2200   30.6220 C   0  0  0  0  0  0  0  0  0  0  0  0
   36.8260   30.6100   30.5740 C   0  0  0  0  0  0  0  0  0  0  0  0
   36.4250   31.0300   31.7820 N   0  0  0  0  0  0  0  0  0  0  0  0
   36.1000   30.0150   32.5450 N   0  0  0  0  0  0  0  0  0  0  0  0
   37.0240   28.6810   29.7070 H   0  0  0  0  0  0  0  0  0  0  0  0
   37.1260   31.3390   29.8360 H   0  0  0  0  0  0  0  0  0  0  0  0
   36.3130   32.3480   32.3100 C   0  0  0  0  0  0  0  0  0  0  0  0
   36.9330   33.5750   32.1850 C   0  0  0  0  0  0  0  0  0  0  0  0
   37.7630   33.6080   31.4900 H   0  0  0  0  0  0  0  0  0  0  0  0
   36.2590   34.4310   33.0370 C   0  0  0  0  0  0  0  0  0  0  0  0
   36.5980   35.4580   33.0860 H   0  0  0  0  0  0  0  0  0  0  0  0
   35.2730   33.7340   33.6470 N   0  0  0  0  0  0  0  0  0  0  0  0
   34.6320   34.2040   34.3460 H   0  0  0  0  0  0  0  0  0  0  0  0
   35.3030   32.4900   33.2140 N   0  0  0  0  0  0  0  0  0  0  0  0
  1  2  1  0  0  0  0
  1 11  1  0  0  0  0
  2  7  1  0  0  0  0
  3  8  1  0  0  0  0
  3  2  2  0  0  0  0
  4  3  1  0  0  0  0
  5  4  2  0  0  0  0
  5  6  1  0  0  0  0
  6  1  2  0  0  0  0
  9  5  1  0  0  0  0
 10 11  2  0  0  0  0
 10 15  1  0  0  0  0
 11 12  1  0  0  0  0
 12 17  1  0  0  0  0
 12 13  2  0  0  0  0
 14 13  1  0  0  0  0
 14 18  1  0  0  0  0
 15 14  2  0  0  0  0
 16 10  1  0  0  0  0
 19  4  1  0  0  0  0
 20 19  1  0  0  0  0
 20 24  2  0  0  0  0
 21 20  1  0  0  0  0
 22 21  2  0  0  0  0
 22 23  1  0  0  0  0
 23 27  1  0  0  0  0
 23 24  1  0  0  0  0
 25 21  1  0  0  0  0
 26 22  1  0  0  0  0
 27 34  2  0  0  0  0
 28 27  1  0  0  0  0
 28 30  2  0  0  0  0
 29 28  1  0  0  0  0
 30 31  1  0  0  0  0
 30 32  1  0  0  0  0
 32 33  1  0  0  0  0
 34 32  1  0  0  0  0
M  END
>  <minimizedAffinity>
-5.1626873

$$$$
