
 OpenBabel03272502593D

 33 35  0  0  1  0  0  0  0  0999 V2000
   35.9280   29.6580   48.8430 N   0  0  0  0  0  0  0  0  0  0  0  0
   36.7040   28.8630   49.7480 C   0  0  0  0  0  0  0  0  0  0  0  0
   37.1890   29.4810   50.9860 C   0  0  0  0  0  0  0  0  0  0  0  0
   37.3850   30.9460   50.9980 C   0  0  0  0  0  0  0  0  0  0  0  0
   36.6160   31.6940   49.9370 C   0  0  0  0  0  0  0  0  0  0  0  0
   36.6400   30.8930   48.6440 C   0  0  1  0  0  0  0  0  0  0  0  0
   36.0800   27.9500   49.9700 H   0  0  0  0  0  0  0  0  0  0  0  0
   37.5720   28.4670   49.1580 H   0  0  0  0  0  0  0  0  0  0  0  0
   38.1560   29.0000   51.2750 H   0  0  0  0  0  0  0  0  0  0  0  0
   36.4760   29.1920   51.8090 H   0  0  0  0  0  0  0  0  0  0  0  0
   37.0600   31.3670   51.9840 H   0  0  0  0  0  0  0  0  0  0  0  0
   38.4640   31.2340   50.8990 H   0  0  0  0  0  0  0  0  0  0  0  0
   35.5660   31.8870   50.1800 H   0  0  0  0  0  0  0  0  0  0  0  0
   37.1490   32.6600   49.7310 H   0  0  0  0  0  0  0  0  0  0  0  0
   36.2290   31.5240   47.8300 H   0  0  0  0  0  0  0  0  0  0  0  0
   34.6810   29.2960   48.2490 C   0  0  0  0  0  0  0  0  0  0  0  0
   34.1650   29.8630   47.0840 C   0  0  0  0  0  0  0  0  0  0  0  0
   32.9390   29.4110   46.6230 C   0  0  0  0  0  0  0  0  0  0  0  0
   32.3070   28.4340   47.3410 N   0  0  0  0  0  0  0  0  0  0  0  0
   32.8350   27.9170   48.4550 C   0  0  0  0  0  0  0  0  0  0  0  0
   34.0290   28.3440   48.9200 N   0  0  0  0  0  0  0  0  0  0  0  0
   34.7430   30.6140   46.6080 H   0  0  0  0  0  0  0  0  0  0  0  0
   32.5620   29.8640   45.7190 H   0  0  0  0  0  0  0  0  0  0  0  0
   32.2780   27.1460   48.9710 H   0  0  0  0  0  0  0  0  0  0  0  0
   37.9980   30.6930   48.3750 O   0  0  0  0  0  0  0  0  0  0  0  0
   38.7270   31.4750   47.4870 C   0  0  0  0  0  0  0  0  0  0  0  0
   39.3550   31.1540   46.2800 C   0  0  0  0  0  0  0  0  0  0  0  0
   39.3380   30.1570   45.8590 H   0  0  0  0  0  0  0  0  0  0  0  0
   39.9600   32.2800   45.7580 C   0  0  0  0  0  0  0  0  0  0  0  0
   40.4920   32.2420   44.8360 H   0  0  0  0  0  0  0  0  0  0  0  0
   39.6860   33.2620   46.6640 N   0  0  0  0  0  0  0  0  0  0  0  0
   40.0550   34.2230   46.4690 H   0  0  0  0  0  0  0  0  0  0  0  0
   38.9690   32.7860   47.6690 N   0  0  0  0  0  0  0  0  0  0  0  0
  1  2  1  0  0  0  0
  2  7  1  0  0  0  0
  2  3  1  0  0  0  0
  3  4  1  0  0  0  0
  3  9  1  0  0  0  0
  3 10  1  0  0  0  0
  4 11  1  0  0  0  0
  5 13  1  0  0  0  0
  5  4  1  0  0  0  0
  6 15  1  6  0  0  0
  6  1  1  0  0  0  0
  6  5  1  0  0  0  0
  8  2  1  0  0  0  0
 12  4  1  0  0  0  0
 14  5  1  0  0  0  0
 16  1  1  0  0  0  0
 16 21  1  0  0  0  0
 17 16  2  0  0  0  0
 18 17  1  0  0  0  0
 18 19  2  0  0  0  0
 19 20  1  0  0  0  0
 20 21  2  0  0  0  0
 20 24  1  0  0  0  0
 22 17  1  0  0  0  0
 23 18  1  0  0  0  0
 25  6  1  0  0  0  0
 26 33  2  0  0  0  0
 26 25  1  0  0  0  0
 27 26  1  0  0  0  0
 28 27  1  0  0  0  0
 29 27  2  0  0  0  0
 29 31  1  0  0  0  0
 30 29  1  0  0  0  0
 31 33  1  0  0  0  0
 32 31  1  0  0  0  0
M  END
>  <minimizedAffinity>
-5.71637344

>  <minimizedRMSD>
0.76571703

$$$$
