
 OpenBabel03262522573D

 24 26  0  0  0  0  0  0  0  0999 V2000
   35.5410   29.9900   48.8820 C   0  0  0  0  0  0  0  0  0  0  0  0
   35.9340   30.0810   50.1900 C   0  0  0  0  0  0  0  0  0  0  0  0
   36.9370   30.9980   50.2890 C   0  0  0  0  0  0  0  0  0  0  0  0
   37.1580   31.4680   49.0390 N   0  0  0  0  0  0  0  0  0  0  0  0
   36.3060   30.8490   48.2010 N   0  0  0  0  0  0  0  0  0  0  0  0
   35.4970   29.5030   50.9950 H   0  0  0  0  0  0  0  0  0  0  0  0
   37.4580   31.2900   51.2080 H   0  0  0  0  0  0  0  0  0  0  0  0
   38.1240   32.4480   48.6690 C   0  0  0  0  0  0  0  0  0  0  0  0
   38.5950   33.3280   49.6220 C   0  0  0  0  0  0  0  0  0  0  0  0
   38.3560   33.4240   50.6740 H   0  0  0  0  0  0  0  0  0  0  0  0
   39.5060   34.1320   48.9300 C   0  0  0  0  0  0  0  0  0  0  0  0
   40.0660   34.9350   49.3840 H   0  0  0  0  0  0  0  0  0  0  0  0
   39.5540   33.7260   47.6280 N   0  0  0  0  0  0  0  0  0  0  0  0
   40.1700   34.1950   46.9510 H   0  0  0  0  0  0  0  0  0  0  0  0
   38.7060   32.6970   47.4750 N   0  0  0  0  0  0  0  0  0  0  0  0
   33.4680   28.0990   46.5070 C   0  0  0  0  0  0  0  0  0  0  0  0
   32.5050   27.5180   47.3610 C   0  0  0  0  0  0  0  0  0  0  0  0
   32.5810   27.7840   48.7430 C   0  0  0  0  0  0  0  0  0  0  0  0
   33.5840   28.5910   49.1870 N   0  0  0  0  0  0  0  0  0  0  0  0
   34.4950   29.1330   48.3180 C   0  0  0  0  0  0  0  0  0  0  0  0
   34.4200   28.8810   47.0180 N   0  0  0  0  0  0  0  0  0  0  0  0
   33.3900   27.8820   45.4510 H   0  0  0  0  0  0  0  0  0  0  0  0
   31.7090   26.8810   47.0340 H   0  0  0  0  0  0  0  0  0  0  0  0
   31.8800   27.3740   49.4560 H   0  0  0  0  0  0  0  0  0  0  0  0
  1  2  1  0  0  0  0
  2  3  2  0  0  0  0
  2  6  1  0  0  0  0
  3  7  1  0  0  0  0
  4  3  1  0  0  0  0
  5  1  2  0  0  0  0
  5  4  1  0  0  0  0
  8  4  1  0  0  0  0
  8  9  1  0  0  0  0
  9 10  1  0  0  0  0
 11 12  1  0  0  0  0
 11  9  2  0  0  0  0
 13 11  1  0  0  0  0
 14 13  1  0  0  0  0
 15 13  1  0  0  0  0
 15  8  2  0  0  0  0
 16 21  2  0  0  0  0
 16 17  1  0  0  0  0
 17 18  2  0  0  0  0
 18 19  1  0  0  0  0
 18 24  1  0  0  0  0
 20  1  1  0  0  0  0
 20 19  2  0  0  0  0
 21 20  1  0  0  0  0
 22 16  1  0  0  0  0
 23 17  1  0  0  0  0
M  END
>  <minimizedAffinity>
-5.35591841

>  <minimizedRMSD>
6.53318882

$$$$
