
 OpenBabel03272510113D

 34 37  0  0  0  0  0  0  0  0999 V2000
   33.4970   28.5660   48.2520 C   0  0  0  0  0  0  0  0  0  0  0  0
   34.1400   28.0570   49.3240 C   0  0  0  0  0  0  0  0  0  0  0  0
   35.3880   28.4560   49.7570 C   0  0  0  0  0  0  0  0  0  0  0  0
   36.0550   29.4370   49.0770 C   0  0  0  0  0  0  0  0  0  0  0  0
   35.3860   29.9620   47.9640 C   0  0  0  0  0  0  0  0  0  0  0  0
   34.1720   29.5440   47.5810 N   0  0  0  0  0  0  0  0  0  0  0  0
   33.6930   27.2770   49.9270 H   0  0  0  0  0  0  0  0  0  0  0  0
   35.8950   28.0460   50.6140 H   0  0  0  0  0  0  0  0  0  0  0  0
   35.8750   30.7460   47.3890 H   0  0  0  0  0  0  0  0  0  0  0  0
   31.3690   27.2400   48.5170 C   0  0  0  0  0  0  0  0  0  0  0  0
   32.1950   28.1380   47.8140 C   0  0  0  0  0  0  0  0  0  0  0  0
   31.6820   28.6250   46.6190 C   0  0  0  0  0  0  0  0  0  0  0  0
   30.4490   28.2320   46.1840 N   0  0  0  0  0  0  0  0  0  0  0  0
   29.7130   27.3690   46.9070 C   0  0  0  0  0  0  0  0  0  0  0  0
   30.1590   26.8650   48.0750 N   0  0  0  0  0  0  0  0  0  0  0  0
   31.7490   26.8480   49.4500 H   0  0  0  0  0  0  0  0  0  0  0  0
   32.3020   29.3190   46.0580 H   0  0  0  0  0  0  0  0  0  0  0  0
   28.7750   27.1880   46.3920 H   0  0  0  0  0  0  0  0  0  0  0  0
   37.3120   29.9600   49.3680 O   0  0  0  0  0  0  0  0  0  0  0  0
   37.9250   30.8930   48.5320 C   0  0  0  0  0  0  0  0  0  0  0  0
   38.3070   32.0600   49.2030 C   0  0  0  0  0  0  0  0  0  0  0  0
   38.9030   32.9120   48.2750 C   0  0  0  0  0  0  0  0  0  0  0  0
   38.8610   32.2470   47.1120 N   0  0  0  0  0  0  0  0  0  0  0  0
   38.2930   31.0760   47.2640 N   0  0  0  0  0  0  0  0  0  0  0  0
   38.2450   32.4340   50.2370 H   0  0  0  0  0  0  0  0  0  0  0  0
   39.3460   33.8960   48.3030 H   0  0  0  0  0  0  0  0  0  0  0  0
   39.3220   32.6230   45.8180 C   0  0  0  0  0  0  0  0  0  0  0  0
   40.1230   33.5860   45.2390 C   0  0  0  0  0  0  0  0  0  0  0  0
   40.5610   34.3010   45.9230 H   0  0  0  0  0  0  0  0  0  0  0  0
   40.1140   33.3210   43.8800 C   0  0  0  0  0  0  0  0  0  0  0  0
   40.6930   33.9760   43.2400 H   0  0  0  0  0  0  0  0  0  0  0  0
   39.3340   32.2380   43.6640 N   0  0  0  0  0  0  0  0  0  0  0  0
   39.1910   31.8640   42.6850 H   0  0  0  0  0  0  0  0  0  0  0  0
   38.8610   31.8190   44.8190 N   0  0  0  0  0  0  0  0  0  0  0  0
  1  2  1  0  0  0  0
  2  3  2  0  0  0  0
  2  7  1  0  0  0  0
  3  8  1  0  0  0  0
  4 19  1  0  0  0  0
  4  3  1  0  0  0  0
  5  4  2  0  0  0  0
  6  5  1  0  0  0  0
  6  1  2  0  0  0  0
  9  5  1  0  0  0  0
 10 16  1  0  0  0  0
 11  1  1  0  0  0  0
 11 10  2  0  0  0  0
 12 11  1  0  0  0  0
 13 12  2  0  0  0  0
 13 14  1  0  0  0  0
 14 15  2  0  0  0  0
 15 10  1  0  0  0  0
 17 12  1  0  0  0  0
 18 14  1  0  0  0  0
 20 21  1  0  0  0  0
 20 19  1  0  0  0  0
 21 25  1  0  0  0  0
 22 26  1  0  0  0  0
 22 21  2  0  0  0  0
 23 24  1  0  0  0  0
 23 22  1  0  0  0  0
 24 20  2  0  0  0  0
 27 23  1  0  0  0  0
 28 27  1  0  0  0  0
 28 29  1  0  0  0  0
 30 28  2  0  0  0  0
 31 30  1  0  0  0  0
 32 30  1  0  0  0  0
 32 34  1  0  0  0  0
 33 32  1  0  0  0  0
 34 27  2  0  0  0  0
M  END
>  <minimizedAffinity>
-6.07906914

>  <minimizedRMSD>
1.18381453

$$$$
