
 OpenBabel03272507523D

 31 33  0  0  0  0  0  0  0  0999 V2000
   36.5420   31.2450   48.6650 N   0  0  0  0  0  0  0  0  0  0  0  0
   36.8130   32.0400   49.6940 C   0  0  0  0  0  0  0  0  0  0  0  0
   37.8690   32.9460   49.6150 C   0  0  0  0  0  0  0  0  0  0  0  0
   38.5490   32.9280   48.4360 C   0  0  0  0  0  0  0  0  0  0  0  0
   39.5120   33.7510   48.3550 O   0  0  0  0  0  0  0  0  0  0  0  0
   38.3130   32.1530   47.3840 N   0  0  0  0  0  0  0  0  0  0  0  0
   37.2760   31.2870   47.5100 C   0  0  0  0  0  0  0  0  0  0  0  0
   37.0290   30.5310   46.5130 O   0  0  0  0  0  0  0  0  0  0  0  0
   36.2120   31.9820   50.5980 H   0  0  0  0  0  0  0  0  0  0  0  0
   38.0880   33.5870   50.4440 H   0  0  0  0  0  0  0  0  0  0  0  0
   39.0900   32.2130   46.1890 C   0  0  0  0  0  0  0  0  0  0  0  0
   38.8740   32.6300   44.8740 C   0  0  0  0  0  0  0  0  0  0  0  0
   37.8940   33.0170   44.6290 H   0  0  0  0  0  0  0  0  0  0  0  0
   40.0710   32.4090   44.2230 C   0  0  0  0  0  0  0  0  0  0  0  0
   40.1440   32.6640   43.1620 H   0  0  0  0  0  0  0  0  0  0  0  0
   40.9690   31.8900   45.0760 N   0  0  0  0  0  0  0  0  0  0  0  0
   41.9510   31.6370   44.8130 H   0  0  0  0  0  0  0  0  0  0  0  0
   40.3660   31.7800   46.2450 N   0  0  0  0  0  0  0  0  0  0  0  0
   35.2860   29.5470   49.8660 C   0  0  0  0  0  0  0  0  0  0  0  0
   35.4720   30.2870   48.6820 C   0  0  0  0  0  0  0  0  0  0  0  0
   34.6230   30.0570   47.5920 C   0  0  0  0  0  0  0  0  0  0  0  0
   33.6520   29.1160   47.7390 N   0  0  0  0  0  0  0  0  0  0  0  0
   33.4790   28.4210   48.8520 C   0  0  0  0  0  0  0  0  0  0  0  0
   34.2880   28.6350   49.9040 N   0  0  0  0  0  0  0  0  0  0  0  0
   34.7950   30.6400   46.7050 H   0  0  0  0  0  0  0  0  0  0  0  0
   32.6990   27.6760   48.9500 H   0  0  0  0  0  0  0  0  0  0  0  0
   37.3630   29.2000   51.3970 C   0  0  0  0  0  0  0  0  0  0  0  0
   38.0520   28.5050   50.6170 O   0  0  0  0  0  0  0  0  0  0  0  0
   36.0750   29.7100   51.0250 N   0  0  0  0  0  0  0  0  0  0  0  0
   37.8120   29.3820   52.3580 H   0  0  0  0  0  0  0  0  0  0  0  0
   35.6910   30.3210   51.8050 H   0  0  0  0  0  0  0  0  0  0  0  0
  1 20  1  0  0  0  0
  1  2  1  0  0  0  0
  2  9  1  0  0  0  0
  3  2  2  0  0  0  0
  3 10  1  0  0  0  0
  4  3  1  0  0  0  0
  5  4  2  0  0  0  0
  6  7  1  0  0  0  0
  6  4  1  0  0  0  0
  7  1  1  0  0  0  0
  8  7  2  0  0  0  0
 11 18  2  0  0  0  0
 11  6  1  0  0  0  0
 12 11  1  0  0  0  0
 13 12  1  0  0  0  0
 14 12  2  0  0  0  0
 14 16  1  0  0  0  0
 15 14  1  0  0  0  0
 16 18  1  0  0  0  0
 17 16  1  0  0  0  0
 19 24  1  0  0  0  0
 19 29  1  0  0  0  0
 20 19  2  0  0  0  0
 21 22  2  0  0  0  0
 21 20  1  0  0  0  0
 22 23  1  0  0  0  0
 23 26  1  0  0  0  0
 23 24  2  0  0  0  0
 25 21  1  0  0  0  0
 27 30  1  0  0  0  0
 28 27  2  0  0  0  0
 29 27  1  0  0  0  0
 29 31  1  0  0  0  0
M  END
>  <minimizedAffinity>
-6.28604364

>  <minimizedRMSD>
1.24364305

$$$$
