
 OpenBabel03272508023D

 27 29  0  0  0  0  0  0  0  0999 V2000
   38.7480   30.8670   45.5060 C   0  0  0  0  0  0  0  0  0  0  0  0
   39.6620   31.8740   45.3720 C   0  0  0  0  0  0  0  0  0  0  0  0
   40.5190   31.6170   44.3040 C   0  0  0  0  0  0  0  0  0  0  0  0
   40.0720   30.4300   43.8250 N   0  0  0  0  0  0  0  0  0  0  0  0
   39.0340   29.9820   44.5240 N   0  0  0  0  0  0  0  0  0  0  0  0
   39.7680   32.7710   45.9680 H   0  0  0  0  0  0  0  0  0  0  0  0
   41.3410   32.1200   43.8650 H   0  0  0  0  0  0  0  0  0  0  0  0
   40.4880   29.5950   42.7470 C   0  0  0  0  0  0  0  0  0  0  0  0
   41.4740   29.6620   41.7720 C   0  0  0  0  0  0  0  0  0  0  0  0
   42.1170   30.5180   41.7610 H   0  0  0  0  0  0  0  0  0  0  0  0
   41.3230   28.5040   41.0380 C   0  0  0  0  0  0  0  0  0  0  0  0
   42.0000   28.3190   40.1900 H   0  0  0  0  0  0  0  0  0  0  0  0
   40.3090   27.7630   41.5240 N   0  0  0  0  0  0  0  0  0  0  0  0
   40.0050   26.8430   41.1310 H   0  0  0  0  0  0  0  0  0  0  0  0
   39.8040   28.4350   42.5660 N   0  0  0  0  0  0  0  0  0  0  0  0
   37.6820   30.7600   46.5030 C   0  0  0  0  0  0  0  0  0  0  0  0
   38.0000   31.0770   47.8480 C   0  0  0  0  0  0  0  0  0  0  0  0
   36.9980   30.9810   48.8040 C   0  0  0  0  0  0  0  0  0  0  0  0
   35.7590   30.5800   48.3790 N   0  0  0  0  0  0  0  0  0  0  0  0
   35.4820   30.2840   47.0980 C   0  0  0  0  0  0  0  0  0  0  0  0
   36.4590   30.3800   46.1660 N   0  0  0  0  0  0  0  0  0  0  0  0
   39.0160   31.3890   48.1050 H   0  0  0  0  0  0  0  0  0  0  0  0
   34.5130   29.9720   46.7660 H   0  0  0  0  0  0  0  0  0  0  0  0
   37.3070   31.3070   50.2170 C   0  0  0  0  0  0  0  0  0  0  0  0
   36.7780   32.5500   50.4420 F   0  0  0  0  0  0  0  0  0  0  0  0
   36.7290   30.4010   51.1070 F   0  0  0  0  0  0  0  0  0  0  0  0
   38.6810   31.3610   50.4450 F   0  0  0  0  0  0  0  0  0  0  0  0
  1 16  1  0  0  0  0
  2  1  1  0  0  0  0
  2  6  1  0  0  0  0
  3  2  2  0  0  0  0
  4  3  1  0  0  0  0
  4  5  1  0  0  0  0
  5  1  2  0  0  0  0
  7  3  1  0  0  0  0
  8  4  1  0  0  0  0
  9  8  1  0  0  0  0
 10  9  1  0  0  0  0
 11 13  1  0  0  0  0
 11  9  2  0  0  0  0
 12 11  1  0  0  0  0
 13 15  1  0  0  0  0
 14 13  1  0  0  0  0
 15  8  2  0  0  0  0
 16 17  1  0  0  0  0
 17 22  1  0  0  0  0
 17 18  2  0  0  0  0
 18 24  1  0  0  0  0
 19 18  1  0  0  0  0
 20 19  2  0  0  0  0
 21 16  2  0  0  0  0
 21 20  1  0  0  0  0
 23 20  1  0  0  0  0
 24 25  1  0  0  0  0
 24 27  1  0  0  0  0
 24 26  1  0  0  0  0
M  END
>  <minimizedAffinity>
-6.13537931

>  <minimizedRMSD>
0.849837184

$$$$
