
 OpenBabel03272502253D

 29 31  0  0  0  0  0  0  0  0999 V2000
   37.5600   30.3640   51.0810 C   0  0  0  0  0  0  0  0  0  0  0  0
   38.0050   30.9430   49.8690 C   0  0  0  0  0  0  0  0  0  0  0  0
   37.3790   30.5430   48.6960 C   0  0  0  0  0  0  0  0  0  0  0  0
   36.3890   29.6330   48.7920 N   0  0  0  0  0  0  0  0  0  0  0  0
   35.9780   29.0930   49.9570 C   0  0  0  0  0  0  0  0  0  0  0  0
   36.5740   29.4680   51.1010 N   0  0  0  0  0  0  0  0  0  0  0  0
   38.0970   30.7250   51.9620 H   0  0  0  0  0  0  0  0  0  0  0  0
   38.8000   31.6710   49.8050 H   0  0  0  0  0  0  0  0  0  0  0  0
   37.7320   31.0540   47.3920 C   0  0  0  0  0  0  0  0  0  0  0  0
   36.9880   30.7290   46.2660 C   0  0  0  0  0  0  0  0  0  0  0  0
   37.2890   31.1970   45.0010 C   0  0  0  0  0  0  0  0  0  0  0  0
   38.3610   32.0120   44.8440 N   0  0  0  0  0  0  0  0  0  0  0  0
   39.0640   32.3130   45.9380 C   0  0  0  0  0  0  0  0  0  0  0  0
   38.7960   31.8730   47.1900 N   0  0  0  0  0  0  0  0  0  0  0  0
   36.1220   30.0860   46.3110 H   0  0  0  0  0  0  0  0  0  0  0  0
   36.7090   30.9390   44.1400 H   0  0  0  0  0  0  0  0  0  0  0  0
   40.2490   33.2090   45.8020 C   0  0  0  0  0  0  0  0  0  0  0  0
   40.3620   33.9590   46.9840 F   0  0  0  0  0  0  0  0  0  0  0  0
   41.3920   32.4870   45.5600 F   0  0  0  0  0  0  0  0  0  0  0  0
   40.0780   34.1340   44.7980 F   0  0  0  0  0  0  0  0  0  0  0  0
   34.9520   28.1730   49.8930 O   0  0  0  0  0  0  0  0  0  0  0  0
   34.2270   28.0510   48.7220 C   0  0  0  0  0  0  0  0  0  0  0  0
   32.8540   28.1540   48.9760 C   0  0  0  0  0  0  0  0  0  0  0  0
   32.1830   28.3010   49.8180 H   0  0  0  0  0  0  0  0  0  0  0  0
   32.1770   28.0230   47.7600 C   0  0  0  0  0  0  0  0  0  0  0  0
   31.1600   28.0270   47.4120 H   0  0  0  0  0  0  0  0  0  0  0  0
   33.1260   27.8500   46.8250 N   0  0  0  0  0  0  0  0  0  0  0  0
   33.1310   27.7110   45.7960 H   0  0  0  0  0  0  0  0  0  0  0  0
   34.3000   27.8690   47.4020 N   0  0  0  0  0  0  0  0  0  0  0  0
  1  6  1  0  0  0  0
  1  7  1  0  0  0  0
  2  1  2  0  0  0  0
  3  4  2  0  0  0  0
  3  2  1  0  0  0  0
  4  5  1  0  0  0  0
  5  6  2  0  0  0  0
  8  2  1  0  0  0  0
  9  3  1  0  0  0  0
 10 15  1  0  0  0  0
 10  9  2  0  0  0  0
 11 10  1  0  0  0  0
 12 11  2  0  0  0  0
 12 13  1  0  0  0  0
 13 14  2  0  0  0  0
 14  9  1  0  0  0  0
 16 11  1  0  0  0  0
 17 13  1  0  0  0  0
 17 18  1  0  0  0  0
 19 17  1  0  0  0  0
 20 17  1  0  0  0  0
 21  5  1  0  0  0  0
 22 23  1  0  0  0  0
 22 21  1  0  0  0  0
 23 24  1  0  0  0  0
 25 23  2  0  0  0  0
 26 25  1  0  0  0  0
 27 29  1  0  0  0  0
 27 25  1  0  0  0  0
 28 27  1  0  0  0  0
 29 22  2  0  0  0  0
M  END
>  <minimizedAffinity>
-6.40172911

>  <minimizedRMSD>
0.255801171

$$$$
