
 OpenBabel03272508023D

 27 29  0  0  0  0  0  0  0  0999 V2000
   38.8290   30.9830   45.5450 C   0  0  0  0  0  0  0  0  0  0  0  0
   39.7980   31.9450   45.5460 C   0  0  0  0  0  0  0  0  0  0  0  0
   40.6530   31.7790   44.4580 C   0  0  0  0  0  0  0  0  0  0  0  0
   40.1480   30.6890   43.8300 N   0  0  0  0  0  0  0  0  0  0  0  0
   39.0780   30.2160   44.4590 N   0  0  0  0  0  0  0  0  0  0  0  0
   39.9460   32.7520   46.2520 H   0  0  0  0  0  0  0  0  0  0  0  0
   41.5080   32.2860   44.0920 H   0  0  0  0  0  0  0  0  0  0  0  0
   40.5310   29.9750   42.6560 C   0  0  0  0  0  0  0  0  0  0  0  0
   40.6930   28.6370   42.3260 C   0  0  0  0  0  0  0  0  0  0  0  0
   40.5010   27.9030   43.0820 H   0  0  0  0  0  0  0  0  0  0  0  0
   41.0880   28.6450   41.0040 C   0  0  0  0  0  0  0  0  0  0  0  0
   41.2830   27.6860   40.5010 H   0  0  0  0  0  0  0  0  0  0  0  0
   41.1670   29.9070   40.5410 N   0  0  0  0  0  0  0  0  0  0  0  0
   41.4450   30.1650   39.5670 H   0  0  0  0  0  0  0  0  0  0  0  0
   40.8260   30.7130   41.5540 N   0  0  0  0  0  0  0  0  0  0  0  0
   37.7450   30.8110   46.5140 C   0  0  0  0  0  0  0  0  0  0  0  0
   38.0220   31.1030   47.8730 C   0  0  0  0  0  0  0  0  0  0  0  0
   37.0040   30.9450   48.8040 C   0  0  0  0  0  0  0  0  0  0  0  0
   35.7900   30.5100   48.3400 N   0  0  0  0  0  0  0  0  0  0  0  0
   35.5530   30.2380   47.0460 C   0  0  0  0  0  0  0  0  0  0  0  0
   36.5460   30.3940   46.1400 N   0  0  0  0  0  0  0  0  0  0  0  0
   39.0200   31.4460   48.1620 H   0  0  0  0  0  0  0  0  0  0  0  0
   34.6030   29.8990   46.6840 H   0  0  0  0  0  0  0  0  0  0  0  0
   37.2680   31.2450   50.2320 C   0  0  0  0  0  0  0  0  0  0  0  0
   36.7240   32.4800   50.4650 F   0  0  0  0  0  0  0  0  0  0  0  0
   36.6720   30.3180   51.0860 F   0  0  0  0  0  0  0  0  0  0  0  0
   38.6350   31.3050   50.5000 F   0  0  0  0  0  0  0  0  0  0  0  0
  1  2  1  0  0  0  0
  1 16  1  0  0  0  0
  2  6  1  0  0  0  0
  3  2  2  0  0  0  0
  4  3  1  0  0  0  0
  4  5  1  0  0  0  0
  5  1  2  0  0  0  0
  7  3  1  0  0  0  0
  8  4  1  0  0  0  0
  9  8  1  0  0  0  0
  9 10  1  0  0  0  0
 11  9  2  0  0  0  0
 12 11  1  0  0  0  0
 13 11  1  0  0  0  0
 13 15  1  0  0  0  0
 14 13  1  0  0  0  0
 15  8  2  0  0  0  0
 16 17  1  0  0  0  0
 17 22  1  0  0  0  0
 17 18  2  0  0  0  0
 18 24  1  0  0  0  0
 19 18  1  0  0  0  0
 20 19  2  0  0  0  0
 21 16  2  0  0  0  0
 21 20  1  0  0  0  0
 23 20  1  0  0  0  0
 24 25  1  0  0  0  0
 24 27  1  0  0  0  0
 24 26  1  0  0  0  0
M  END
>  <minimizedAffinity>
-6.0157485

>  <minimizedRMSD>
0.803887308

$$$$
