
 OpenBabel03272507523D

 31 33  0  0  0  0  0  0  0  0999 V2000
   36.5480   31.2430   48.6590 N   0  0  0  0  0  0  0  0  0  0  0  0
   36.7960   32.0650   49.6720 C   0  0  0  0  0  0  0  0  0  0  0  0
   37.8560   32.9670   49.5940 C   0  0  0  0  0  0  0  0  0  0  0  0
   38.5640   32.9160   48.4320 C   0  0  0  0  0  0  0  0  0  0  0  0
   39.5310   33.7340   48.3520 O   0  0  0  0  0  0  0  0  0  0  0  0
   38.3510   32.1130   47.3960 N   0  0  0  0  0  0  0  0  0  0  0  0
   37.3100   31.2520   47.5200 C   0  0  0  0  0  0  0  0  0  0  0  0
   37.0850   30.4700   46.5390 O   0  0  0  0  0  0  0  0  0  0  0  0
   36.1740   32.0340   50.5620 H   0  0  0  0  0  0  0  0  0  0  0  0
   38.0570   33.6300   50.4100 H   0  0  0  0  0  0  0  0  0  0  0  0
   39.1570   32.1380   46.2190 C   0  0  0  0  0  0  0  0  0  0  0  0
   39.0740   32.7410   44.9630 C   0  0  0  0  0  0  0  0  0  0  0  0
   38.2080   33.3580   44.7610 H   0  0  0  0  0  0  0  0  0  0  0  0
   40.2140   32.3410   44.2930 C   0  0  0  0  0  0  0  0  0  0  0  0
   40.3720   32.6940   43.2700 H   0  0  0  0  0  0  0  0  0  0  0  0
   40.9540   31.5430   45.0820 N   0  0  0  0  0  0  0  0  0  0  0  0
   41.8640   31.1140   44.7930 H   0  0  0  0  0  0  0  0  0  0  0  0
   40.3070   31.4330   46.2280 N   0  0  0  0  0  0  0  0  0  0  0  0
   35.2870   29.5500   49.8610 C   0  0  0  0  0  0  0  0  0  0  0  0
   35.4750   30.2880   48.6760 C   0  0  0  0  0  0  0  0  0  0  0  0
   34.6270   30.0580   47.5850 C   0  0  0  0  0  0  0  0  0  0  0  0
   33.6530   29.1200   47.7320 N   0  0  0  0  0  0  0  0  0  0  0  0
   33.4770   28.4280   48.8460 C   0  0  0  0  0  0  0  0  0  0  0  0
   34.2860   28.6410   49.8990 N   0  0  0  0  0  0  0  0  0  0  0  0
   34.8020   30.6400   46.6970 H   0  0  0  0  0  0  0  0  0  0  0  0
   32.6950   27.6840   48.9440 H   0  0  0  0  0  0  0  0  0  0  0  0
   37.3640   29.2060   51.3910 C   0  0  0  0  0  0  0  0  0  0  0  0
   38.0540   28.5140   50.6100 O   0  0  0  0  0  0  0  0  0  0  0  0
   36.0750   29.7140   51.0200 N   0  0  0  0  0  0  0  0  0  0  0  0
   37.8120   29.3870   52.3530 H   0  0  0  0  0  0  0  0  0  0  0  0
   35.6890   30.3210   51.8010 H   0  0  0  0  0  0  0  0  0  0  0  0
  1 20  1  0  0  0  0
  1  2  1  0  0  0  0
  2  9  1  0  0  0  0
  3  2  2  0  0  0  0
  3 10  1  0  0  0  0
  4  3  1  0  0  0  0
  5  4  2  0  0  0  0
  6  7  1  0  0  0  0
  6  4  1  0  0  0  0
  7  1  1  0  0  0  0
  8  7  2  0  0  0  0
 11 18  2  0  0  0  0
 11  6  1  0  0  0  0
 12 11  1  0  0  0  0
 13 12  1  0  0  0  0
 14 12  2  0  0  0  0
 14 16  1  0  0  0  0
 15 14  1  0  0  0  0
 16 18  1  0  0  0  0
 17 16  1  0  0  0  0
 19 24  1  0  0  0  0
 19 29  1  0  0  0  0
 20 19  2  0  0  0  0
 21 22  2  0  0  0  0
 21 20  1  0  0  0  0
 22 23  1  0  0  0  0
 23 26  1  0  0  0  0
 23 24  2  0  0  0  0
 25 21  1  0  0  0  0
 27 30  1  0  0  0  0
 28 27  2  0  0  0  0
 29 27  1  0  0  0  0
 29 31  1  0  0  0  0
M  END
>  <minimizedAffinity>
-6.37131643

>  <minimizedRMSD>
1.20037043

$$$$
