
 OpenBabel03272508023D

 27 29  0  0  0  0  0  0  0  0999 V2000
   38.8040   30.7570   45.5220 C   0  0  0  0  0  0  0  0  0  0  0  0
   39.8770   31.6020   45.5530 C   0  0  0  0  0  0  0  0  0  0  0  0
   40.7250   31.3550   44.4760 C   0  0  0  0  0  0  0  0  0  0  0  0
   40.1090   30.3410   43.8220 N   0  0  0  0  0  0  0  0  0  0  0  0
   38.9820   29.9830   44.4280 N   0  0  0  0  0  0  0  0  0  0  0  0
   40.1040   32.3760   46.2750 H   0  0  0  0  0  0  0  0  0  0  0  0
   41.6380   31.7670   44.1310 H   0  0  0  0  0  0  0  0  0  0  0  0
   40.4280   29.6050   42.6430 C   0  0  0  0  0  0  0  0  0  0  0  0
   41.0910   29.8850   41.4560 C   0  0  0  0  0  0  0  0  0  0  0  0
   41.4850   30.8710   41.3170 H   0  0  0  0  0  0  0  0  0  0  0  0
   41.0420   28.7080   40.7380 C   0  0  0  0  0  0  0  0  0  0  0  0
   41.5070   28.6710   39.7410 H   0  0  0  0  0  0  0  0  0  0  0  0
   40.3910   27.7560   41.4340 N   0  0  0  0  0  0  0  0  0  0  0  0
   40.2290   26.7800   41.0950 H   0  0  0  0  0  0  0  0  0  0  0  0
   40.0200   28.3100   42.5950 N   0  0  0  0  0  0  0  0  0  0  0  0
   37.6920   30.6950   46.4720 C   0  0  0  0  0  0  0  0  0  0  0  0
   37.9600   31.0210   47.8260 C   0  0  0  0  0  0  0  0  0  0  0  0
   36.9150   30.9670   48.7380 C   0  0  0  0  0  0  0  0  0  0  0  0
   35.6840   30.5970   48.2630 N   0  0  0  0  0  0  0  0  0  0  0  0
   35.4550   30.2930   46.9750 C   0  0  0  0  0  0  0  0  0  0  0  0
   36.4740   30.3470   46.0860 N   0  0  0  0  0  0  0  0  0  0  0  0
   38.9740   31.3060   48.1240 H   0  0  0  0  0  0  0  0  0  0  0  0
   34.4920   30.0050   46.6040 H   0  0  0  0  0  0  0  0  0  0  0  0
   37.1710   31.3030   50.1590 C   0  0  0  0  0  0  0  0  0  0  0  0
   36.6100   32.5350   50.3630 F   0  0  0  0  0  0  0  0  0  0  0  0
   36.5840   30.3880   51.0320 F   0  0  0  0  0  0  0  0  0  0  0  0
   38.5360   31.3870   50.4310 F   0  0  0  0  0  0  0  0  0  0  0  0
  1  2  1  0  0  0  0
  1 16  1  0  0  0  0
  2  6  1  0  0  0  0
  3  2  2  0  0  0  0
  4  5  1  0  0  0  0
  4  3  1  0  0  0  0
  5  1  2  0  0  0  0
  7  3  1  0  0  0  0
  8  4  1  0  0  0  0
  9  8  1  0  0  0  0
 10  9  1  0  0  0  0
 11 13  1  0  0  0  0
 11  9  2  0  0  0  0
 12 11  1  0  0  0  0
 13 15  1  0  0  0  0
 14 13  1  0  0  0  0
 15  8  2  0  0  0  0
 16 17  1  0  0  0  0
 17 22  1  0  0  0  0
 17 18  2  0  0  0  0
 18 24  1  0  0  0  0
 19 18  1  0  0  0  0
 20 19  2  0  0  0  0
 21 16  2  0  0  0  0
 21 20  1  0  0  0  0
 23 20  1  0  0  0  0
 24 25  1  0  0  0  0
 24 27  1  0  0  0  0
 24 26  1  0  0  0  0
M  END
>  <minimizedAffinity>
-6.04874372

>  <minimizedRMSD>
0.95489502

$$$$
