
 OpenBabel03272510113D

 34 37  0  0  0  0  0  0  0  0999 V2000
   33.4040   28.5450   48.1430 C   0  0  0  0  0  0  0  0  0  0  0  0
   34.0270   28.0250   49.2220 C   0  0  0  0  0  0  0  0  0  0  0  0
   35.2770   28.4030   49.6670 C   0  0  0  0  0  0  0  0  0  0  0  0
   35.9670   29.3720   48.9940 C   0  0  0  0  0  0  0  0  0  0  0  0
   35.3180   29.9100   47.8750 C   0  0  0  0  0  0  0  0  0  0  0  0
   34.1010   29.5120   47.4800 N   0  0  0  0  0  0  0  0  0  0  0  0
   33.5610   27.2530   49.8190 H   0  0  0  0  0  0  0  0  0  0  0  0
   35.7690   27.9840   50.5280 H   0  0  0  0  0  0  0  0  0  0  0  0
   35.8260   30.6860   47.3050 H   0  0  0  0  0  0  0  0  0  0  0  0
   31.3050   27.1580   48.3180 C   0  0  0  0  0  0  0  0  0  0  0  0
   32.0990   28.1400   47.6920 C   0  0  0  0  0  0  0  0  0  0  0  0
   31.5500   28.7360   46.5650 C   0  0  0  0  0  0  0  0  0  0  0  0
   30.3130   28.3650   46.1200 N   0  0  0  0  0  0  0  0  0  0  0  0
   29.6090   27.4190   46.7660 C   0  0  0  0  0  0  0  0  0  0  0  0
   30.0910   26.8070   47.8660 N   0  0  0  0  0  0  0  0  0  0  0  0
   31.7130   26.6810   49.1970 H   0  0  0  0  0  0  0  0  0  0  0  0
   32.1440   29.4950   46.0650 H   0  0  0  0  0  0  0  0  0  0  0  0
   28.6630   27.2740   46.2560 H   0  0  0  0  0  0  0  0  0  0  0  0
   37.2300   29.8740   49.2970 O   0  0  0  0  0  0  0  0  0  0  0  0
   37.8450   30.8360   48.4950 C   0  0  0  0  0  0  0  0  0  0  0  0
   38.2980   31.9440   49.2210 C   0  0  0  0  0  0  0  0  0  0  0  0
   38.8900   32.8310   48.3240 C   0  0  0  0  0  0  0  0  0  0  0  0
   38.7740   32.2440   47.1250 N   0  0  0  0  0  0  0  0  0  0  0  0
   38.1680   31.0870   47.2270 N   0  0  0  0  0  0  0  0  0  0  0  0
   38.2930   32.2520   50.2780 H   0  0  0  0  0  0  0  0  0  0  0  0
   39.3710   33.7950   48.3940 H   0  0  0  0  0  0  0  0  0  0  0  0
   39.1970   32.6850   45.8370 C   0  0  0  0  0  0  0  0  0  0  0  0
   40.1760   33.4840   45.2820 C   0  0  0  0  0  0  0  0  0  0  0  0
   40.8580   33.9420   45.9860 H   0  0  0  0  0  0  0  0  0  0  0  0
   39.9650   33.4490   43.9150 C   0  0  0  0  0  0  0  0  0  0  0  0
   40.6390   34.0210   43.2900 H   0  0  0  0  0  0  0  0  0  0  0  0
   38.8970   32.6550   43.6700 N   0  0  0  0  0  0  0  0  0  0  0  0
   38.5630   32.4900   42.6800 H   0  0  0  0  0  0  0  0  0  0  0  0
   38.4370   32.1980   44.8160 N   0  0  0  0  0  0  0  0  0  0  0  0
  1  2  1  0  0  0  0
  2  3  2  0  0  0  0
  2  7  1  0  0  0  0
  3  8  1  0  0  0  0
  4 19  1  0  0  0  0
  4  3  1  0  0  0  0
  5  4  2  0  0  0  0
  6  5  1  0  0  0  0
  6  1  2  0  0  0  0
  9  5  1  0  0  0  0
 10 16  1  0  0  0  0
 11  1  1  0  0  0  0
 11 10  2  0  0  0  0
 12 11  1  0  0  0  0
 13 12  2  0  0  0  0
 13 14  1  0  0  0  0
 14 15  2  0  0  0  0
 15 10  1  0  0  0  0
 17 12  1  0  0  0  0
 18 14  1  0  0  0  0
 20 21  1  0  0  0  0
 20 19  1  0  0  0  0
 21 25  1  0  0  0  0
 22 26  1  0  0  0  0
 22 21  2  0  0  0  0
 23 24  1  0  0  0  0
 23 22  1  0  0  0  0
 24 20  2  0  0  0  0
 27 23  1  0  0  0  0
 28 27  1  0  0  0  0
 28 29  1  0  0  0  0
 30 28  2  0  0  0  0
 31 30  1  0  0  0  0
 32 30  1  0  0  0  0
 32 34  1  0  0  0  0
 33 32  1  0  0  0  0
 34 27  2  0  0  0  0
M  END
>  <minimizedAffinity>
-6.1724844

>  <minimizedRMSD>
1.17975092

$$$$
