
 OpenBabel03262520113D

 35 37  0  0  0  0  0  0  0  0999 V2000
   38.6540   26.7770   32.8040 Br  0  0  0  0  0  0  0  0  0  0  0  0
   37.2050   25.7730   32.0620 C   0  0  0  0  0  0  0  0  0  0  0  0
   36.1590   26.4190   31.4610 C   0  0  0  0  0  0  0  0  0  0  0  0
   35.1380   25.6440   30.9450 C   0  0  0  0  0  0  0  0  0  0  0  0
   35.1410   24.2630   31.0180 C   0  0  0  0  0  0  0  0  0  0  0  0
   36.2200   23.6560   31.6340 C   0  0  0  0  0  0  0  0  0  0  0  0
   37.2450   24.4180   32.1530 C   0  0  0  0  0  0  0  0  0  0  0  0
   34.3210   26.2030   30.4730 H   0  0  0  0  0  0  0  0  0  0  0  0
   34.2860   23.7820   30.5770 H   0  0  0  0  0  0  0  0  0  0  0  0
   36.0810   22.5860   31.6170 H   0  0  0  0  0  0  0  0  0  0  0  0
   36.6510   29.7930   30.1720 C   0  0  0  0  0  0  0  0  0  0  0  0
   36.0450   30.6270   31.1250 C   0  0  0  0  0  0  0  0  0  0  0  0
   35.4620   30.0010   32.2230 C   0  0  0  0  0  0  0  0  0  0  0  0
   35.5050   28.6370   32.3220 N   0  0  0  0  0  0  0  0  0  0  0  0
   36.1080   27.8820   31.3630 C   0  0  0  0  0  0  0  0  0  0  0  0
   36.6810   28.4730   30.2870 N   0  0  0  0  0  0  0  0  0  0  0  0
   37.1000   30.2860   29.3230 H   0  0  0  0  0  0  0  0  0  0  0  0
   36.0160   31.6960   31.0380 H   0  0  0  0  0  0  0  0  0  0  0  0
   34.9670   30.5470   33.0210 H   0  0  0  0  0  0  0  0  0  0  0  0
   38.3420   23.6390   32.7820 C   0  0  0  0  0  0  0  0  0  0  0  0
   38.6090   22.8170   32.0840 H   0  0  0  0  0  0  0  0  0  0  0  0
   39.2770   24.2460   32.8660 H   0  0  0  0  0  0  0  0  0  0  0  0
   37.9880   23.0210   34.0880 C   0  0  0  0  0  0  0  0  0  0  0  0
   36.8690   23.1600   34.1990 H   0  0  0  0  0  0  0  0  0  0  0  0
   38.1560   21.9660   34.2280 H   0  0  0  0  0  0  0  0  0  0  0  0
   38.6230   23.7970   35.1540 N   0  0  0  0  0  0  0  0  0  0  0  0
   38.5850   24.8370   35.0850 H   0  0  0  0  0  0  0  0  0  0  0  0
   39.2820   23.2160   36.2710 C   0  0  0  0  0  0  0  0  0  0  0  0
   40.5260   22.6150   36.2850 C   0  0  0  0  0  0  0  0  0  0  0  0
   41.2160   22.4840   35.4440 H   0  0  0  0  0  0  0  0  0  0  0  0
   40.8080   22.1770   37.5610 C   0  0  0  0  0  0  0  0  0  0  0  0
   41.6590   21.6660   37.9910 H   0  0  0  0  0  0  0  0  0  0  0  0
   39.7640   22.5010   38.3040 N   0  0  0  0  0  0  0  0  0  0  0  0
   39.4780   22.4000   39.3110 H   0  0  0  0  0  0  0  0  0  0  0  0
   38.8930   23.1020   37.5400 N   0  0  0  0  0  0  0  0  0  0  0  0
  2  7  1  0  0  0  0
  2  1  1  0  0  0  0
  3  2  2  0  0  0  0
  4  5  2  0  0  0  0
  4  3  1  0  0  0  0
  5  6  1  0  0  0  0
  6  7  2  0  0  0  0
  7 20  1  0  0  0  0
  8  4  1  0  0  0  0
  9  5  1  0  0  0  0
 10  6  1  0  0  0  0
 11 16  2  0  0  0  0
 11 12  1  0  0  0  0
 12 13  2  0  0  0  0
 13 14  1  0  0  0  0
 13 19  1  0  0  0  0
 15  3  1  0  0  0  0
 15 14  2  0  0  0  0
 16 15  1  0  0  0  0
 17 11  1  0  0  0  0
 18 12  1  0  0  0  0
 20 22  1  0  0  0  0
 20 23  1  0  0  0  0
 21 20  1  0  0  0  0
 23 24  1  0  0  0  0
 23 25  1  0  0  0  0
 23 26  1  0  0  0  0
 26 28  1  0  0  0  0
 27 26  1  0  0  0  0
 28 29  1  0  0  0  0
 28 35  2  0  0  0  0
 29 31  2  0  0  0  0
 30 29  1  0  0  0  0
 31 32  1  0  0  0  0
 31 33  1  0  0  0  0
 33 34  1  0  0  0  0
 35 33  1  0  0  0  0
M  END
>  <minimizedAffinity>
-5.50919342

$$$$

 OpenBabel03262520113D

 35 37  0  0  0  0  0  0  0  0999 V2000
   36.2660   25.9990   31.6700 Br  0  0  0  0  0  0  0  0  0  0  0  0
   36.9950   26.6370   33.3190 C   0  0  0  0  0  0  0  0  0  0  0  0
   36.7360   27.9140   33.7370 C   0  0  0  0  0  0  0  0  0  0  0  0
   37.2910   28.3230   34.9340 C   0  0  0  0  0  0  0  0  0  0  0  0
   38.0860   27.4960   35.7070 C   0  0  0  0  0  0  0  0  0  0  0  0
   38.3200   26.2150   35.2430 C   0  0  0  0  0  0  0  0  0  0  0  0
   37.7710   25.7940   34.0500 C   0  0  0  0  0  0  0  0  0  0  0  0
   37.0570   29.3530   35.2290 H   0  0  0  0  0  0  0  0  0  0  0  0
   38.4550   27.9390   36.6150 H   0  0  0  0  0  0  0  0  0  0  0  0
   38.9530   25.6950   35.9450 H   0  0  0  0  0  0  0  0  0  0  0  0
   35.7360   30.2970   31.1660 C   0  0  0  0  0  0  0  0  0  0  0  0
   34.3830   30.5600   31.4360 C   0  0  0  0  0  0  0  0  0  0  0  0
   33.8220   29.8980   32.5240 C   0  0  0  0  0  0  0  0  0  0  0  0
   34.5940   29.0440   33.2630 N   0  0  0  0  0  0  0  0  0  0  0  0
   35.9020   28.8290   32.9500 C   0  0  0  0  0  0  0  0  0  0  0  0
   36.4650   29.4640   31.8940 N   0  0  0  0  0  0  0  0  0  0  0  0
   36.1630   30.8140   30.3190 H   0  0  0  0  0  0  0  0  0  0  0  0
   33.7860   31.2330   30.8500 H   0  0  0  0  0  0  0  0  0  0  0  0
   32.7870   30.0270   32.8250 H   0  0  0  0  0  0  0  0  0  0  0  0
   38.0970   24.3950   33.6740 C   0  0  0  0  0  0  0  0  0  0  0  0
   37.3070   23.7430   34.1040 H   0  0  0  0  0  0  0  0  0  0  0  0
   38.0160   24.2400   32.5700 H   0  0  0  0  0  0  0  0  0  0  0  0
   39.4070   23.9090   34.1860 C   0  0  0  0  0  0  0  0  0  0  0  0
   39.9640   23.5200   33.2790 H   0  0  0  0  0  0  0  0  0  0  0  0
   40.0780   24.6120   34.6500 H   0  0  0  0  0  0  0  0  0  0  0  0
   39.1640   22.7620   35.0620 N   0  0  0  0  0  0  0  0  0  0  0  0
   39.0900   21.8200   34.6200 H   0  0  0  0  0  0  0  0  0  0  0  0
   39.0230   22.8600   36.4730 C   0  0  0  0  0  0  0  0  0  0  0  0
   37.9290   23.3310   37.1720 C   0  0  0  0  0  0  0  0  0  0  0  0
   36.9850   23.7080   36.7630 H   0  0  0  0  0  0  0  0  0  0  0  0
   38.1860   23.2630   38.5240 C   0  0  0  0  0  0  0  0  0  0  0  0
   37.6040   23.5290   39.3970 H   0  0  0  0  0  0  0  0  0  0  0  0
   39.4040   22.7650   38.6460 N   0  0  0  0  0  0  0  0  0  0  0  0
   40.0570   22.5190   39.4330 H   0  0  0  0  0  0  0  0  0  0  0  0
   39.8710   22.5370   37.4490 N   0  0  0  0  0  0  0  0  0  0  0  0
  1  2  1  0  0  0  0
  2  3  2  0  0  0  0
  2  7  1  0  0  0  0
  3  4  1  0  0  0  0
  4  8  1  0  0  0  0
  4  5  2  0  0  0  0
  5  9  1  0  0  0  0
  6  5  1  0  0  0  0
  6 10  1  0  0  0  0
  7  6  2  0  0  0  0
 11 12  2  0  0  0  0
 11 16  1  0  0  0  0
 12 13  1  0  0  0  0
 13 19  1  0  0  0  0
 13 14  2  0  0  0  0
 15 14  1  0  0  0  0
 15  3  1  0  0  0  0
 16 15  2  0  0  0  0
 17 11  1  0  0  0  0
 18 12  1  0  0  0  0
 20  7  1  0  0  0  0
 20 21  1  0  0  0  0
 20 23  1  0  0  0  0
 22 20  1  0  0  0  0
 23 25  1  0  0  0  0
 23 26  1  0  0  0  0
 24 23  1  0  0  0  0
 26 28  1  0  0  0  0
 27 26  1  0  0  0  0
 28 29  1  0  0  0  0
 28 35  2  0  0  0  0
 29 31  2  0  0  0  0
 30 29  1  0  0  0  0
 31 33  1  0  0  0  0
 31 32  1  0  0  0  0
 33 34  1  0  0  0  0
 35 33  1  0  0  0  0
M  END
>  <minimizedAffinity>
-5.38502645

$$$$

 OpenBabel03262520113D

 35 37  0  0  0  0  0  0  0  0999 V2000
   37.9840   23.4880   33.3000 Br  0  0  0  0  0  0  0  0  0  0  0  0
   37.8740   25.2280   34.0880 C   0  0  0  0  0  0  0  0  0  0  0  0
   38.4720   25.4760   35.2930 C   0  0  0  0  0  0  0  0  0  0  0  0
   38.3590   26.7490   35.8170 C   0  0  0  0  0  0  0  0  0  0  0  0
   37.6690   27.7600   35.1720 C   0  0  0  0  0  0  0  0  0  0  0  0
   37.0810   27.4620   33.9570 C   0  0  0  0  0  0  0  0  0  0  0  0
   37.1880   26.1950   33.4230 C   0  0  0  0  0  0  0  0  0  0  0  0
   38.8540   26.9020   36.7830 H   0  0  0  0  0  0  0  0  0  0  0  0
   37.6570   28.7040   35.6890 H   0  0  0  0  0  0  0  0  0  0  0  0
   36.5820   28.3410   33.5800 H   0  0  0  0  0  0  0  0  0  0  0  0
   39.2750   22.9320   37.7780 C   0  0  0  0  0  0  0  0  0  0  0  0
   40.5520   22.4760   37.4150 C   0  0  0  0  0  0  0  0  0  0  0  0
   41.1320   23.0630   36.2950 C   0  0  0  0  0  0  0  0  0  0  0  0
   40.4490   24.0350   35.6150 N   0  0  0  0  0  0  0  0  0  0  0  0
   39.2110   24.4350   36.0160 C   0  0  0  0  0  0  0  0  0  0  0  0
   38.6310   23.8750   37.1040 N   0  0  0  0  0  0  0  0  0  0  0  0
   38.8320   22.4710   38.6480 H   0  0  0  0  0  0  0  0  0  0  0  0
   41.0800   21.7120   37.9560 H   0  0  0  0  0  0  0  0  0  0  0  0
   42.1150   22.7880   35.9250 H   0  0  0  0  0  0  0  0  0  0  0  0
   36.5150   26.0130   32.1120 C   0  0  0  0  0  0  0  0  0  0  0  0
   37.2880   25.6870   31.3840 H   0  0  0  0  0  0  0  0  0  0  0  0
   35.7860   25.1670   32.1410 H   0  0  0  0  0  0  0  0  0  0  0  0
   35.8800   27.2450   31.5690 C   0  0  0  0  0  0  0  0  0  0  0  0
   34.7670   27.0320   31.5500 H   0  0  0  0  0  0  0  0  0  0  0  0
   35.9820   28.1670   32.1150 H   0  0  0  0  0  0  0  0  0  0  0  0
   36.3070   27.4100   30.1790 N   0  0  0  0  0  0  0  0  0  0  0  0
   35.8250   26.8370   29.4520 H   0  0  0  0  0  0  0  0  0  0  0  0
   37.3340   28.3020   29.7670 C   0  0  0  0  0  0  0  0  0  0  0  0
   38.6960   28.1350   29.9220 C   0  0  0  0  0  0  0  0  0  0  0  0
   39.2190   27.2900   30.3850 H   0  0  0  0  0  0  0  0  0  0  0  0
   39.3530   29.2230   29.3910 C   0  0  0  0  0  0  0  0  0  0  0  0
   40.4020   29.4800   29.3100 H   0  0  0  0  0  0  0  0  0  0  0  0
   38.4180   30.0320   28.9250 N   0  0  0  0  0  0  0  0  0  0  0  0
   38.3820   30.9640   28.4400 H   0  0  0  0  0  0  0  0  0  0  0  0
   37.2570   29.4810   29.1510 N   0  0  0  0  0  0  0  0  0  0  0  0
  1  2  1  0  0  0  0
  2  3  1  0  0  0  0
  3  4  2  0  0  0  0
  3 15  1  0  0  0  0
  4  8  1  0  0  0  0
  5  9  1  0  0  0  0
  5  4  1  0  0  0  0
  6  5  2  0  0  0  0
  7  6  1  0  0  0  0
  7  2  2  0  0  0  0
 10  6  1  0  0  0  0
 11 17  1  0  0  0  0
 12 11  1  0  0  0  0
 12 18  1  0  0  0  0
 13 12  2  0  0  0  0
 14 15  2  0  0  0  0
 14 13  1  0  0  0  0
 15 16  1  0  0  0  0
 16 11  2  0  0  0  0
 19 13  1  0  0  0  0
 20 22  1  0  0  0  0
 20  7  1  0  0  0  0
 21 20  1  0  0  0  0
 23 20  1  0  0  0  0
 23 25  1  0  0  0  0
 24 23  1  0  0  0  0
 26 23  1  0  0  0  0
 27 26  1  0  0  0  0
 28 29  1  0  0  0  0
 28 26  1  0  0  0  0
 29 30  1  0  0  0  0
 31 29  2  0  0  0  0
 32 31  1  0  0  0  0
 33 35  1  0  0  0  0
 33 31  1  0  0  0  0
 34 33  1  0  0  0  0
 35 28  2  0  0  0  0
M  END
>  <minimizedAffinity>
-5.31309795

$$$$

 OpenBabel03262520113D

 35 37  0  0  0  0  0  0  0  0999 V2000
   39.8780   24.7170   31.7020 Br  0  0  0  0  0  0  0  0  0  0  0  0
   39.3830   25.7360   33.2430 C   0  0  0  0  0  0  0  0  0  0  0  0
   38.0720   26.0620   33.4600 C   0  0  0  0  0  0  0  0  0  0  0  0
   37.7710   26.8020   34.5870 C   0  0  0  0  0  0  0  0  0  0  0  0
   38.7390   27.2170   35.4850 C   0  0  0  0  0  0  0  0  0  0  0  0
   40.0500   26.8630   35.2240 C   0  0  0  0  0  0  0  0  0  0  0  0
   40.3620   26.1240   34.1020 C   0  0  0  0  0  0  0  0  0  0  0  0
   36.7090   27.0390   34.7210 H   0  0  0  0  0  0  0  0  0  0  0  0
   38.3710   27.7860   36.3200 H   0  0  0  0  0  0  0  0  0  0  0  0
   40.6840   27.2570   36.0030 H   0  0  0  0  0  0  0  0  0  0  0  0
   35.4280   26.2590   30.9580 C   0  0  0  0  0  0  0  0  0  0  0  0
   35.0100   24.9300   30.7810 C   0  0  0  0  0  0  0  0  0  0  0  0
   35.6590   23.9640   31.5430 C   0  0  0  0  0  0  0  0  0  0  0  0
   36.6490   24.3420   32.4080 N   0  0  0  0  0  0  0  0  0  0  0  0
   37.0110   25.6480   32.5350 C   0  0  0  0  0  0  0  0  0  0  0  0
   36.3900   26.6030   31.8020 N   0  0  0  0  0  0  0  0  0  0  0  0
   34.9190   27.0030   30.3630 H   0  0  0  0  0  0  0  0  0  0  0  0
   34.2310   24.6450   30.1000 H   0  0  0  0  0  0  0  0  0  0  0  0
   35.4170   22.9070   31.4880 H   0  0  0  0  0  0  0  0  0  0  0  0
   41.8050   25.8110   33.9460 C   0  0  0  0  0  0  0  0  0  0  0  0
   41.9140   25.1980   33.0260 H   0  0  0  0  0  0  0  0  0  0  0  0
   42.4030   26.7320   33.7390 H   0  0  0  0  0  0  0  0  0  0  0  0
   42.3930   25.0360   35.0720 C   0  0  0  0  0  0  0  0  0  0  0  0
   43.4960   24.9350   34.8310 H   0  0  0  0  0  0  0  0  0  0  0  0
   42.3570   25.4510   36.0650 H   0  0  0  0  0  0  0  0  0  0  0  0
   41.8270   23.6860   35.0490 N   0  0  0  0  0  0  0  0  0  0  0  0
   41.9880   23.1060   34.1970 H   0  0  0  0  0  0  0  0  0  0  0  0
   41.0740   23.1260   36.1170 C   0  0  0  0  0  0  0  0  0  0  0  0
   39.7690   23.4170   36.4600 C   0  0  0  0  0  0  0  0  0  0  0  0
   39.0890   24.1260   35.9720 H   0  0  0  0  0  0  0  0  0  0  0  0
   39.4040   22.6630   37.5540 C   0  0  0  0  0  0  0  0  0  0  0  0
   38.4880   22.5920   38.1250 H   0  0  0  0  0  0  0  0  0  0  0  0
   40.4590   21.9320   37.8700 N   0  0  0  0  0  0  0  0  0  0  0  0
   40.7040   21.2140   38.5980 H   0  0  0  0  0  0  0  0  0  0  0  0
   41.4140   22.2130   37.0260 N   0  0  0  0  0  0  0  0  0  0  0  0
  1  2  1  0  0  0  0
  2  3  2  0  0  0  0
  2  7  1  0  0  0  0
  3  4  1  0  0  0  0
  4  8  1  0  0  0  0
  4  5  2  0  0  0  0
  5  9  1  0  0  0  0
  6  5  1  0  0  0  0
  6 10  1  0  0  0  0
  7  6  2  0  0  0  0
 11 16  1  0  0  0  0
 12 11  2  0  0  0  0
 12 13  1  0  0  0  0
 13 14  2  0  0  0  0
 14 15  1  0  0  0  0
 15  3  1  0  0  0  0
 16 15  2  0  0  0  0
 17 11  1  0  0  0  0
 18 12  1  0  0  0  0
 19 13  1  0  0  0  0
 20  7  1  0  0  0  0
 20 23  1  0  0  0  0
 21 20  1  0  0  0  0
 22 20  1  0  0  0  0
 23 25  1  0  0  0  0
 24 23  1  0  0  0  0
 26 23  1  0  0  0  0
 26 28  1  0  0  0  0
 27 26  1  0  0  0  0
 28 29  1  0  0  0  0
 28 35  2  0  0  0  0
 29 31  2  0  0  0  0
 30 29  1  0  0  0  0
 31 33  1  0  0  0  0
 31 32  1  0  0  0  0
 33 34  1  0  0  0  0
 35 33  1  0  0  0  0
M  END
>  <minimizedAffinity>
-5.27959824

$$$$

 OpenBabel03262520113D

 35 37  0  0  0  0  0  0  0  0999 V2000
   38.7630   21.8630   33.5600 Br  0  0  0  0  0  0  0  0  0  0  0  0
   37.4830   23.0020   32.7120 C   0  0  0  0  0  0  0  0  0  0  0  0
   36.4480   22.4620   31.9990 C   0  0  0  0  0  0  0  0  0  0  0  0
   35.5540   23.3310   31.4040 C   0  0  0  0  0  0  0  0  0  0  0  0
   35.6730   24.7060   31.5060 C   0  0  0  0  0  0  0  0  0  0  0  0
   36.7350   25.2050   32.2370 C   0  0  0  0  0  0  0  0  0  0  0  0
   37.6330   24.3470   32.8360 C   0  0  0  0  0  0  0  0  0  0  0  0
   34.7410   22.8540   30.8440 H   0  0  0  0  0  0  0  0  0  0  0  0
   34.9110   25.2680   30.9960 H   0  0  0  0  0  0  0  0  0  0  0  0
   36.6970   26.2830   32.2250 H   0  0  0  0  0  0  0  0  0  0  0  0
   36.6650   19.0990   30.6090 C   0  0  0  0  0  0  0  0  0  0  0  0
   36.0000   18.2880   31.5430 C   0  0  0  0  0  0  0  0  0  0  0  0
   35.4750   18.9250   32.6630 C   0  0  0  0  0  0  0  0  0  0  0  0
   35.6260   20.2780   32.8000 N   0  0  0  0  0  0  0  0  0  0  0  0
   36.2820   21.0110   31.8590 C   0  0  0  0  0  0  0  0  0  0  0  0
   36.7990   20.4080   30.7620 N   0  0  0  0  0  0  0  0  0  0  0  0
   37.0690   18.5960   29.7430 H   0  0  0  0  0  0  0  0  0  0  0  0
   35.8870   17.2260   31.4250 H   0  0  0  0  0  0  0  0  0  0  0  0
   34.9410   18.3970   33.4480 H   0  0  0  0  0  0  0  0  0  0  0  0
   38.7210   25.0160   33.5940 C   0  0  0  0  0  0  0  0  0  0  0  0
   39.5030   24.2530   33.7960 H   0  0  0  0  0  0  0  0  0  0  0  0
   39.2390   25.7860   32.9720 H   0  0  0  0  0  0  0  0  0  0  0  0
   38.3010   25.5830   34.9040 C   0  0  0  0  0  0  0  0  0  0  0  0
   39.2610   25.8480   35.4450 H   0  0  0  0  0  0  0  0  0  0  0  0
   37.7130   26.4850   34.9160 H   0  0  0  0  0  0  0  0  0  0  0  0
   37.6520   24.5250   35.6790 N   0  0  0  0  0  0  0  0  0  0  0  0
   36.7620   24.1270   35.3070 H   0  0  0  0  0  0  0  0  0  0  0  0
   38.1630   24.0140   36.9030 C   0  0  0  0  0  0  0  0  0  0  0  0
   38.1270   24.6250   38.1420 C   0  0  0  0  0  0  0  0  0  0  0  0
   37.7000   25.6020   38.3950 H   0  0  0  0  0  0  0  0  0  0  0  0
   38.7270   23.8060   39.0730 C   0  0  0  0  0  0  0  0  0  0  0  0
   38.9040   23.9080   40.1350 H   0  0  0  0  0  0  0  0  0  0  0  0
   39.1190   22.7260   38.4200 N   0  0  0  0  0  0  0  0  0  0  0  0
   39.6100   21.8250   38.6520 H   0  0  0  0  0  0  0  0  0  0  0  0
   38.7820   22.8650   37.1670 N   0  0  0  0  0  0  0  0  0  0  0  0
  2  7  1  0  0  0  0
  2  1  1  0  0  0  0
  3  2  2  0  0  0  0
  4  5  2  0  0  0  0
  4  3  1  0  0  0  0
  5  6  1  0  0  0  0
  6  7  2  0  0  0  0
  7 20  1  0  0  0  0
  8  4  1  0  0  0  0
  9  5  1  0  0  0  0
 10  6  1  0  0  0  0
 11 16  2  0  0  0  0
 11 12  1  0  0  0  0
 12 13  2  0  0  0  0
 13 14  1  0  0  0  0
 13 19  1  0  0  0  0
 15  3  1  0  0  0  0
 15 14  2  0  0  0  0
 16 15  1  0  0  0  0
 17 11  1  0  0  0  0
 18 12  1  0  0  0  0
 20 21  1  0  0  0  0
 20 23  1  0  0  0  0
 22 20  1  0  0  0  0
 23 25  1  0  0  0  0
 23 24  1  0  0  0  0
 23 26  1  0  0  0  0
 26 28  1  0  0  0  0
 27 26  1  0  0  0  0
 28 35  2  0  0  0  0
 28 29  1  0  0  0  0
 29 30  1  0  0  0  0
 29 31  2  0  0  0  0
 31 32  1  0  0  0  0
 33 34  1  0  0  0  0
 33 31  1  0  0  0  0
 35 33  1  0  0  0  0
M  END
>  <minimizedAffinity>
-5.27216959

$$$$

 OpenBabel03262520113D

 35 37  0  0  0  0  0  0  0  0999 V2000
   39.1370   26.7970   35.1090 Br  0  0  0  0  0  0  0  0  0  0  0  0
   38.5190   25.3670   33.9990 C   0  0  0  0  0  0  0  0  0  0  0  0
   38.2910   24.1300   34.5370 C   0  0  0  0  0  0  0  0  0  0  0  0
   37.8490   23.1320   33.6890 C   0  0  0  0  0  0  0  0  0  0  0  0
   37.6360   23.3440   32.3390 C   0  0  0  0  0  0  0  0  0  0  0  0
   37.8800   24.6110   31.8420 C   0  0  0  0  0  0  0  0  0  0  0  0
   38.3200   25.6150   32.6780 C   0  0  0  0  0  0  0  0  0  0  0  0
   37.6800   22.1580   34.1620 H   0  0  0  0  0  0  0  0  0  0  0  0
   37.2910   22.4840   31.7920 H   0  0  0  0  0  0  0  0  0  0  0  0
   37.6720   24.6210   30.7820 H   0  0  0  0  0  0  0  0  0  0  0  0
   39.8690   22.9620   37.6080 C   0  0  0  0  0  0  0  0  0  0  0  0
   38.9660   23.3130   38.6250 C   0  0  0  0  0  0  0  0  0  0  0  0
   37.8010   23.9620   38.2280 C   0  0  0  0  0  0  0  0  0  0  0  0
   37.5920   24.2210   36.9010 N   0  0  0  0  0  0  0  0  0  0  0  0
   38.5070   23.8550   35.9620 C   0  0  0  0  0  0  0  0  0  0  0  0
   39.6470   23.2230   36.3280 N   0  0  0  0  0  0  0  0  0  0  0  0
   40.7710   22.4590   37.9240 H   0  0  0  0  0  0  0  0  0  0  0  0
   39.1390   23.1050   39.6640 H   0  0  0  0  0  0  0  0  0  0  0  0
   37.0330   24.2790   38.9280 H   0  0  0  0  0  0  0  0  0  0  0  0
   38.5380   26.9260   32.0150 C   0  0  0  0  0  0  0  0  0  0  0  0
   37.6590   27.5640   32.2470 H   0  0  0  0  0  0  0  0  0  0  0  0
   39.4030   27.4720   32.4640 H   0  0  0  0  0  0  0  0  0  0  0  0
   38.6620   26.8550   30.5340 C   0  0  0  0  0  0  0  0  0  0  0  0
   39.4950   27.5750   30.2630 H   0  0  0  0  0  0  0  0  0  0  0  0
   38.9380   25.9190   30.0790 H   0  0  0  0  0  0  0  0  0  0  0  0
   37.4320   27.3820   29.9410 N   0  0  0  0  0  0  0  0  0  0  0  0
   36.6580   26.7090   29.7510 H   0  0  0  0  0  0  0  0  0  0  0  0
   37.2350   28.7500   29.6120 C   0  0  0  0  0  0  0  0  0  0  0  0
   37.7720   29.4350   28.5390 C   0  0  0  0  0  0  0  0  0  0  0  0
   38.4360   29.0460   27.7590 H   0  0  0  0  0  0  0  0  0  0  0  0
   37.3420   30.7440   28.5710 C   0  0  0  0  0  0  0  0  0  0  0  0
   37.5270   31.5940   27.9270 H   0  0  0  0  0  0  0  0  0  0  0  0
   36.5650   30.8540   29.6350 N   0  0  0  0  0  0  0  0  0  0  0  0
   36.0040   31.6130   30.0990 H   0  0  0  0  0  0  0  0  0  0  0  0
   36.5150   29.6900   30.2230 N   0  0  0  0  0  0  0  0  0  0  0  0
  2  3  1  0  0  0  0
  2  1  1  0  0  0  0
  3 15  1  0  0  0  0
  4  8  1  0  0  0  0
  4  3  2  0  0  0  0
  5  4  1  0  0  0  0
  6  5  2  0  0  0  0
  6  7  1  0  0  0  0
  7  2  2  0  0  0  0
  9  5  1  0  0  0  0
 10  6  1  0  0  0  0
 11 17  1  0  0  0  0
 11 12  1  0  0  0  0
 12 18  1  0  0  0  0
 13 12  2  0  0  0  0
 13 19  1  0  0  0  0
 14 13  1  0  0  0  0
 15 16  1  0  0  0  0
 15 14  2  0  0  0  0
 16 11  2  0  0  0  0
 20 21  1  0  0  0  0
 20 22  1  0  0  0  0
 20  7  1  0  0  0  0
 23 20  1  0  0  0  0
 24 23  1  0  0  0  0
 25 23  1  0  0  0  0
 26 23  1  0  0  0  0
 27 26  1  0  0  0  0
 28 26  1  0  0  0  0
 28 35  2  0  0  0  0
 29 31  2  0  0  0  0
 29 28  1  0  0  0  0
 30 29  1  0  0  0  0
 31 33  1  0  0  0  0
 32 31  1  0  0  0  0
 33 34  1  0  0  0  0
 33 35  1  0  0  0  0
M  END
>  <minimizedAffinity>
-5.12877178

$$$$

 OpenBabel03262520113D

 35 37  0  0  0  0  0  0  0  0999 V2000
   38.3670   27.2300   35.6510 Br  0  0  0  0  0  0  0  0  0  0  0  0
   37.8070   26.1240   34.1950 C   0  0  0  0  0  0  0  0  0  0  0  0
   37.9830   24.7680   34.2530 C   0  0  0  0  0  0  0  0  0  0  0  0
   37.5630   24.0180   33.1720 C   0  0  0  0  0  0  0  0  0  0  0  0
   36.9810   24.5870   32.0530 C   0  0  0  0  0  0  0  0  0  0  0  0
   36.8240   25.9600   32.0400 C   0  0  0  0  0  0  0  0  0  0  0  0
   37.2390   26.7190   33.1130 C   0  0  0  0  0  0  0  0  0  0  0  0
   37.7240   22.9380   33.2620 H   0  0  0  0  0  0  0  0  0  0  0  0
   36.7000   23.8900   31.2820 H   0  0  0  0  0  0  0  0  0  0  0  0
   36.3630   26.2550   31.1090 H   0  0  0  0  0  0  0  0  0  0  0  0
   38.3520   23.2970   37.5680 C   0  0  0  0  0  0  0  0  0  0  0  0
   39.6990   22.9050   37.6320 C   0  0  0  0  0  0  0  0  0  0  0  0
   40.4780   23.1580   36.5070 C   0  0  0  0  0  0  0  0  0  0  0  0
   39.9120   23.7630   35.4180 N   0  0  0  0  0  0  0  0  0  0  0  0
   38.5980   24.1200   35.4170 C   0  0  0  0  0  0  0  0  0  0  0  0
   37.8240   23.8820   36.5020 N   0  0  0  0  0  0  0  0  0  0  0  0
   37.7550   23.0970   38.4450 H   0  0  0  0  0  0  0  0  0  0  0  0
   40.1340   22.4310   38.4920 H   0  0  0  0  0  0  0  0  0  0  0  0
   41.5310   22.8980   36.4460 H   0  0  0  0  0  0  0  0  0  0  0  0
   37.0050   28.1790   32.9700 C   0  0  0  0  0  0  0  0  0  0  0  0
   37.7370   28.6980   33.6250 H   0  0  0  0  0  0  0  0  0  0  0  0
   37.2560   28.5340   31.9400 H   0  0  0  0  0  0  0  0  0  0  0  0
   35.6450   28.6280   33.3730 C   0  0  0  0  0  0  0  0  0  0  0  0
   34.9540   28.2960   32.5380 H   0  0  0  0  0  0  0  0  0  0  0  0
   35.2110   28.2300   34.2740 H   0  0  0  0  0  0  0  0  0  0  0  0
   35.6260   30.0920   33.3860 N   0  0  0  0  0  0  0  0  0  0  0  0
   35.9100   30.5890   32.5130 H   0  0  0  0  0  0  0  0  0  0  0  0
   35.2450   30.8680   34.5130 C   0  0  0  0  0  0  0  0  0  0  0  0
   35.9850   31.0990   35.6560 C   0  0  0  0  0  0  0  0  0  0  0  0
   36.9890   30.7260   35.8910 H   0  0  0  0  0  0  0  0  0  0  0  0
   35.2650   31.9010   36.5140 C   0  0  0  0  0  0  0  0  0  0  0  0
   35.4790   32.3060   37.4940 H   0  0  0  0  0  0  0  0  0  0  0  0
   34.1170   32.1530   35.9110 N   0  0  0  0  0  0  0  0  0  0  0  0
   33.2410   32.6960   36.1230 H   0  0  0  0  0  0  0  0  0  0  0  0
   34.1250   31.5480   34.7540 N   0  0  0  0  0  0  0  0  0  0  0  0
  2  3  1  0  0  0  0
  2  1  1  0  0  0  0
  3 15  1  0  0  0  0
  4  8  1  0  0  0  0
  4  3  2  0  0  0  0
  5  4  1  0  0  0  0
  6  5  2  0  0  0  0
  6  7  1  0  0  0  0
  7  2  2  0  0  0  0
  9  5  1  0  0  0  0
 10  6  1  0  0  0  0
 11 12  1  0  0  0  0
 11 17  1  0  0  0  0
 12 18  1  0  0  0  0
 13 12  2  0  0  0  0
 14 13  1  0  0  0  0
 15 14  2  0  0  0  0
 15 16  1  0  0  0  0
 16 11  2  0  0  0  0
 19 13  1  0  0  0  0
 20  7  1  0  0  0  0
 20 23  1  0  0  0  0
 20 21  1  0  0  0  0
 22 20  1  0  0  0  0
 23 26  1  0  0  0  0
 23 25  1  0  0  0  0
 24 23  1  0  0  0  0
 26 28  1  0  0  0  0
 27 26  1  0  0  0  0
 28 35  2  0  0  0  0
 28 29  1  0  0  0  0
 29 30  1  0  0  0  0
 29 31  2  0  0  0  0
 31 32  1  0  0  0  0
 33 34  1  0  0  0  0
 33 31  1  0  0  0  0
 35 33  1  0  0  0  0
M  END
>  <minimizedAffinity>
-5.12521791

$$$$

 OpenBabel03262520113D

 35 37  0  0  0  0  0  0  0  0999 V2000
   38.7360   27.0920   35.4490 Br  0  0  0  0  0  0  0  0  0  0  0  0
   38.3100   25.7310   34.1740 C   0  0  0  0  0  0  0  0  0  0  0  0
   38.2460   24.4210   34.5630 C   0  0  0  0  0  0  0  0  0  0  0  0
   37.9380   23.4790   33.6000 C   0  0  0  0  0  0  0  0  0  0  0  0
   37.6980   23.8160   32.2800 C   0  0  0  0  0  0  0  0  0  0  0  0
   37.7750   25.1520   31.9340 C   0  0  0  0  0  0  0  0  0  0  0  0
   38.0810   26.1010   32.8860 C   0  0  0  0  0  0  0  0  0  0  0  0
   37.8970   22.4430   33.9560 H   0  0  0  0  0  0  0  0  0  0  0  0
   37.4700   22.9870   31.6330 H   0  0  0  0  0  0  0  0  0  0  0  0
   37.5680   25.2580   30.8800 H   0  0  0  0  0  0  0  0  0  0  0  0
   37.7640   23.9670   38.1470 C   0  0  0  0  0  0  0  0  0  0  0  0
   38.9110   23.2770   38.5730 C   0  0  0  0  0  0  0  0  0  0  0  0
   39.8550   22.9710   37.5970 C   0  0  0  0  0  0  0  0  0  0  0  0
   39.6290   23.3470   36.3010 N   0  0  0  0  0  0  0  0  0  0  0  0
   38.4960   24.0140   35.9500 C   0  0  0  0  0  0  0  0  0  0  0  0
   37.5650   24.3210   36.8860 N   0  0  0  0  0  0  0  0  0  0  0  0
   37.0360   24.1990   38.9100 H   0  0  0  0  0  0  0  0  0  0  0  0
   39.0780   22.9870   39.5930 H   0  0  0  0  0  0  0  0  0  0  0  0
   40.7780   22.4420   37.8130 H   0  0  0  0  0  0  0  0  0  0  0  0
   38.1250   27.4980   32.3820 C   0  0  0  0  0  0  0  0  0  0  0  0
   38.0560   28.1710   33.2620 H   0  0  0  0  0  0  0  0  0  0  0  0
   39.1170   27.7360   31.9260 H   0  0  0  0  0  0  0  0  0  0  0  0
   37.0140   27.8540   31.4580 C   0  0  0  0  0  0  0  0  0  0  0  0
   37.3350   28.8170   30.9520 H   0  0  0  0  0  0  0  0  0  0  0  0
   36.7700   27.1810   30.6530 H   0  0  0  0  0  0  0  0  0  0  0  0
   35.8290   28.1650   32.2570 N   0  0  0  0  0  0  0  0  0  0  0  0
   34.9980   27.5430   32.1560 H   0  0  0  0  0  0  0  0  0  0  0  0
   35.7480   29.2620   33.1580 C   0  0  0  0  0  0  0  0  0  0  0  0
   35.5970   30.5960   32.8370 C   0  0  0  0  0  0  0  0  0  0  0  0
   35.5130   31.0400   31.8380 H   0  0  0  0  0  0  0  0  0  0  0  0
   35.5620   31.3440   33.9930 C   0  0  0  0  0  0  0  0  0  0  0  0
   35.4590   32.4050   34.1790 H   0  0  0  0  0  0  0  0  0  0  0  0
   35.6890   30.4890   34.9930 N   0  0  0  0  0  0  0  0  0  0  0  0
   35.7230   30.5360   36.0430 H   0  0  0  0  0  0  0  0  0  0  0  0
   35.7940   29.2890   34.4900 N   0  0  0  0  0  0  0  0  0  0  0  0
  2  3  1  0  0  0  0
  2  1  1  0  0  0  0
  3 15  1  0  0  0  0
  4  8  1  0  0  0  0
  4  3  2  0  0  0  0
  5  4  1  0  0  0  0
  6  5  2  0  0  0  0
  6  7  1  0  0  0  0
  7  2  2  0  0  0  0
  9  5  1  0  0  0  0
 10  6  1  0  0  0  0
 11 12  1  0  0  0  0
 11 17  1  0  0  0  0
 12 18  1  0  0  0  0
 13 19  1  0  0  0  0
 13 12  2  0  0  0  0
 14 13  1  0  0  0  0
 15 14  2  0  0  0  0
 15 16  1  0  0  0  0
 16 11  2  0  0  0  0
 20  7  1  0  0  0  0
 20 21  1  0  0  0  0
 22 20  1  0  0  0  0
 23 26  1  0  0  0  0
 23 20  1  0  0  0  0
 24 23  1  0  0  0  0
 25 23  1  0  0  0  0
 26 28  1  0  0  0  0
 27 26  1  0  0  0  0
 28 35  2  0  0  0  0
 29 28  1  0  0  0  0
 29 31  2  0  0  0  0
 30 29  1  0  0  0  0
 31 32  1  0  0  0  0
 31 33  1  0  0  0  0
 33 34  1  0  0  0  0
 35 33  1  0  0  0  0
M  END
>  <minimizedAffinity>
-5.10383081

$$$$

 OpenBabel03262520113D

 35 37  0  0  0  0  0  0  0  0999 V2000
   38.9580   24.8270   33.4380 Br  0  0  0  0  0  0  0  0  0  0  0  0
   37.7480   23.3530   33.3010 C   0  0  0  0  0  0  0  0  0  0  0  0
   37.6780   22.4250   34.3050 C   0  0  0  0  0  0  0  0  0  0  0  0
   36.7880   21.3790   34.1520 C   0  0  0  0  0  0  0  0  0  0  0  0
   35.9830   21.2440   33.0360 C   0  0  0  0  0  0  0  0  0  0  0  0
   36.0890   22.2060   32.0480 C   0  0  0  0  0  0  0  0  0  0  0  0
   36.9720   23.2550   32.1890 C   0  0  0  0  0  0  0  0  0  0  0  0
   36.7660   20.6600   34.9800 H   0  0  0  0  0  0  0  0  0  0  0  0
   35.3360   20.3850   33.0420 H   0  0  0  0  0  0  0  0  0  0  0  0
   35.4060   21.9670   31.2470 H   0  0  0  0  0  0  0  0  0  0  0  0
   40.5420   22.0740   36.5330 C   0  0  0  0  0  0  0  0  0  0  0  0
   40.1310   22.6770   37.7330 C   0  0  0  0  0  0  0  0  0  0  0  0
   38.8450   23.2080   37.7570 C   0  0  0  0  0  0  0  0  0  0  0  0
   38.0590   23.1200   36.6410 N   0  0  0  0  0  0  0  0  0  0  0  0
   38.5140   22.5230   35.5060 C   0  0  0  0  0  0  0  0  0  0  0  0
   39.7630   22.0010   35.4630 N   0  0  0  0  0  0  0  0  0  0  0  0
   41.5410   21.6660   36.5220 H   0  0  0  0  0  0  0  0  0  0  0  0
   40.7560   22.7410   38.6030 H   0  0  0  0  0  0  0  0  0  0  0  0
   38.4240   23.6960   38.6310 H   0  0  0  0  0  0  0  0  0  0  0  0
   36.9810   24.2180   31.0590 C   0  0  0  0  0  0  0  0  0  0  0  0
   37.8470   24.8970   31.2070 H   0  0  0  0  0  0  0  0  0  0  0  0
   37.1930   23.7060   30.0880 H   0  0  0  0  0  0  0  0  0  0  0  0
   35.7610   25.0640   30.9600 C   0  0  0  0  0  0  0  0  0  0  0  0
   35.2770   24.7890   29.9730 H   0  0  0  0  0  0  0  0  0  0  0  0
   34.9840   24.9460   31.6970 H   0  0  0  0  0  0  0  0  0  0  0  0
   36.1750   26.4640   30.8570 N   0  0  0  0  0  0  0  0  0  0  0  0
   36.6550   26.7640   29.9810 H   0  0  0  0  0  0  0  0  0  0  0  0
   35.9610   27.4300   31.8780 C   0  0  0  0  0  0  0  0  0  0  0  0
   36.6520   27.5540   33.0670 C   0  0  0  0  0  0  0  0  0  0  0  0
   37.4810   26.9340   33.4280 H   0  0  0  0  0  0  0  0  0  0  0  0
   36.1420   28.6140   33.7830 C   0  0  0  0  0  0  0  0  0  0  0  0
   36.3950   29.0400   34.7460 H   0  0  0  0  0  0  0  0  0  0  0  0
   35.1660   29.1220   33.0520 N   0  0  0  0  0  0  0  0  0  0  0  0
   34.4780   29.9140   33.1330 H   0  0  0  0  0  0  0  0  0  0  0  0
   35.0780   28.4240   31.9520 N   0  0  0  0  0  0  0  0  0  0  0  0
  2  1  1  0  0  0  0
  2  3  1  0  0  0  0
  3 15  1  0  0  0  0
  4  3  2  0  0  0  0
  4  8  1  0  0  0  0
  5  9  1  0  0  0  0
  5  4  1  0  0  0  0
  6  7  1  0  0  0  0
  6  5  2  0  0  0  0
  7  2  2  0  0  0  0
 10  6  1  0  0  0  0
 11 12  1  0  0  0  0
 12 13  2  0  0  0  0
 12 18  1  0  0  0  0
 13 19  1  0  0  0  0
 14 13  1  0  0  0  0
 15 14  2  0  0  0  0
 16 15  1  0  0  0  0
 16 11  2  0  0  0  0
 17 11  1  0  0  0  0
 20 21  1  0  0  0  0
 20  7  1  0  0  0  0
 22 20  1  0  0  0  0
 23 20  1  0  0  0  0
 23 25  1  0  0  0  0
 24 23  1  0  0  0  0
 26 23  1  0  0  0  0
 26 28  1  0  0  0  0
 27 26  1  0  0  0  0
 28 35  2  0  0  0  0
 28 29  1  0  0  0  0
 29 30  1  0  0  0  0
 29 31  2  0  0  0  0
 31 32  1  0  0  0  0
 33 34  1  0  0  0  0
 33 31  1  0  0  0  0
 35 33  1  0  0  0  0
M  END
>  <minimizedAffinity>
-5.08409834

$$$$
