
 OpenBabel03272510113D

 34 37  0  0  0  0  0  0  0  0999 V2000
   33.7050   28.5150   48.8330 C   0  0  0  0  0  0  0  0  0  0  0  0
   33.8630   28.8220   50.1380 C   0  0  0  0  0  0  0  0  0  0  0  0
   34.9300   29.5280   50.6570 C   0  0  0  0  0  0  0  0  0  0  0  0
   35.9190   29.9650   49.8200 C   0  0  0  0  0  0  0  0  0  0  0  0
   35.7520   29.6440   48.4670 C   0  0  0  0  0  0  0  0  0  0  0  0
   34.6970   28.9560   48.0080 N   0  0  0  0  0  0  0  0  0  0  0  0
   33.1340   28.5200   50.8770 H   0  0  0  0  0  0  0  0  0  0  0  0
   35.0510   29.7700   51.6980 H   0  0  0  0  0  0  0  0  0  0  0  0
   36.5110   29.9700   47.7600 H   0  0  0  0  0  0  0  0  0  0  0  0
   31.3330   27.6660   48.9430 C   0  0  0  0  0  0  0  0  0  0  0  0
   32.5860   27.7780   48.3090 C   0  0  0  0  0  0  0  0  0  0  0  0
   32.7120   27.1160   47.0950 C   0  0  0  0  0  0  0  0  0  0  0  0
   31.6630   26.4110   46.5790 N   0  0  0  0  0  0  0  0  0  0  0  0
   30.4920   26.3460   47.2380 C   0  0  0  0  0  0  0  0  0  0  0  0
   30.3120   26.9680   48.4200 N   0  0  0  0  0  0  0  0  0  0  0  0
   31.2120   28.1730   49.8900 H   0  0  0  0  0  0  0  0  0  0  0  0
   33.6700   27.1880   46.5870 H   0  0  0  0  0  0  0  0  0  0  0  0
   29.7970   25.7430   46.6650 H   0  0  0  0  0  0  0  0  0  0  0  0
   37.0590   30.6850   50.1650 O   0  0  0  0  0  0  0  0  0  0  0  0
   37.8230   31.3470   49.2040 C   0  0  0  0  0  0  0  0  0  0  0  0
   38.1350   32.6630   49.5660 C   0  0  0  0  0  0  0  0  0  0  0  0
   38.8940   33.2200   48.5380 C   0  0  0  0  0  0  0  0  0  0  0  0
   39.0090   32.2490   47.6220 N   0  0  0  0  0  0  0  0  0  0  0  0
   38.3870   31.1640   48.0110 N   0  0  0  0  0  0  0  0  0  0  0  0
   37.9280   33.3160   50.4270 H   0  0  0  0  0  0  0  0  0  0  0  0
   39.3590   34.1770   48.3520 H   0  0  0  0  0  0  0  0  0  0  0  0
   39.6750   32.2440   46.3620 C   0  0  0  0  0  0  0  0  0  0  0  0
   39.9810   33.1240   45.3440 C   0  0  0  0  0  0  0  0  0  0  0  0
   39.6360   34.1400   45.4870 H   0  0  0  0  0  0  0  0  0  0  0  0
   40.6750   32.3870   44.4000 C   0  0  0  0  0  0  0  0  0  0  0  0
   41.0080   32.9040   43.5080 H   0  0  0  0  0  0  0  0  0  0  0  0
   40.7750   31.1140   44.8450 N   0  0  0  0  0  0  0  0  0  0  0  0
   41.2730   30.3790   44.2700 H   0  0  0  0  0  0  0  0  0  0  0  0
   40.1800   31.0260   46.0160 N   0  0  0  0  0  0  0  0  0  0  0  0
  1  2  1  0  0  0  0
  2  3  2  0  0  0  0
  2  7  1  0  0  0  0
  3  8  1  0  0  0  0
  4 19  1  0  0  0  0
  4  3  1  0  0  0  0
  5  4  2  0  0  0  0
  6  5  1  0  0  0  0
  6  1  2  0  0  0  0
  9  5  1  0  0  0  0
 10 16  1  0  0  0  0
 11  1  1  0  0  0  0
 11 10  2  0  0  0  0
 12 11  1  0  0  0  0
 13 12  2  0  0  0  0
 13 14  1  0  0  0  0
 14 15  2  0  0  0  0
 15 10  1  0  0  0  0
 17 12  1  0  0  0  0
 18 14  1  0  0  0  0
 20 21  1  0  0  0  0
 20 19  1  0  0  0  0
 21 25  1  0  0  0  0
 22 21  2  0  0  0  0
 23 24  1  0  0  0  0
 23 22  1  0  0  0  0
 24 20  2  0  0  0  0
 26 22  1  0  0  0  0
 27 23  1  0  0  0  0
 28 29  1  0  0  0  0
 28 27  1  0  0  0  0
 30 32  1  0  0  0  0
 30 28  2  0  0  0  0
 31 30  1  0  0  0  0
 32 34  1  0  0  0  0
 33 32  1  0  0  0  0
 34 27  2  0  0  0  0
M  END
>  <minimizedAffinity>
-6.49999666

>  <minimizedRMSD>
1.55799019

$$$$
