
 OpenBabel03272510103D

 27 29  0  0  0  0  0  0  0  0999 V2000
   36.9270   30.5670   47.9180 C   0  0  0  0  0  0  0  0  0  0  0  0
   37.8780   31.4250   47.4680 C   0  0  0  0  0  0  0  0  0  0  0  0
   38.0470   31.7800   46.1450 C   0  0  0  0  0  0  0  0  0  0  0  0
   37.2270   31.2580   45.1910 C   0  0  0  0  0  0  0  0  0  0  0  0
   36.2490   30.3760   45.6530 C   0  0  0  0  0  0  0  0  0  0  0  0
   36.1190   30.0560   46.9550 N   0  0  0  0  0  0  0  0  0  0  0  0
   38.5690   31.8810   48.1750 H   0  0  0  0  0  0  0  0  0  0  0  0
   38.8060   32.4660   45.7810 H   0  0  0  0  0  0  0  0  0  0  0  0
   35.5420   29.9050   44.9610 H   0  0  0  0  0  0  0  0  0  0  0  0
   37.6660   30.5460   50.3190 C   0  0  0  0  0  0  0  0  0  0  0  0
   36.7520   30.1970   49.3000 C   0  0  0  0  0  0  0  0  0  0  0  0
   35.6470   29.4650   49.6780 C   0  0  0  0  0  0  0  0  0  0  0  0
   35.4810   29.1150   50.9870 N   0  0  0  0  0  0  0  0  0  0  0  0
   36.3910   29.4780   51.9220 C   0  0  0  0  0  0  0  0  0  0  0  0
   37.4830   30.1910   51.6000 N   0  0  0  0  0  0  0  0  0  0  0  0
   38.5370   31.1230   50.0230 H   0  0  0  0  0  0  0  0  0  0  0  0
   34.9200   29.1790   48.9180 H   0  0  0  0  0  0  0  0  0  0  0  0
   36.1570   29.1440   52.9330 H   0  0  0  0  0  0  0  0  0  0  0  0
   37.2440   31.4960   43.8180 O   0  0  0  0  0  0  0  0  0  0  0  0
   38.2980   31.0960   43.0080 C   0  0  0  0  0  0  0  0  0  0  0  0
   39.0780   32.1640   42.5530 C   0  0  0  0  0  0  0  0  0  0  0  0
   39.0760   33.2440   42.6680 H   0  0  0  0  0  0  0  0  0  0  0  0
   40.0910   31.6370   41.7600 C   0  0  0  0  0  0  0  0  0  0  0  0
   40.9140   32.0580   41.2050 H   0  0  0  0  0  0  0  0  0  0  0  0
   39.8980   30.3020   41.7590 N   0  0  0  0  0  0  0  0  0  0  0  0
   40.3640   29.4730   41.3330 H   0  0  0  0  0  0  0  0  0  0  0  0
   38.8470   29.9930   42.4930 N   0  0  0  0  0  0  0  0  0  0  0  0
  1 11  1  0  0  0  0
  2  1  1  0  0  0  0
  2  7  1  0  0  0  0
  3  2  2  0  0  0  0
  4  5  2  0  0  0  0
  4  3  1  0  0  0  0
  5  6  1  0  0  0  0
  6  1  2  0  0  0  0
  8  3  1  0  0  0  0
  9  5  1  0  0  0  0
 10 15  1  0  0  0  0
 11 12  1  0  0  0  0
 11 10  2  0  0  0  0
 12 13  2  0  0  0  0
 13 14  1  0  0  0  0
 14 18  1  0  0  0  0
 15 14  2  0  0  0  0
 16 10  1  0  0  0  0
 17 12  1  0  0  0  0
 19  4  1  0  0  0  0
 20 19  1  0  0  0  0
 21 22  1  0  0  0  0
 21 20  1  0  0  0  0
 23 21  2  0  0  0  0
 24 23  1  0  0  0  0
 25 23  1  0  0  0  0
 25 27  1  0  0  0  0
 26 25  1  0  0  0  0
 27 20  2  0  0  0  0
M  END
>  <minimizedAffinity>
-4.07899952

>  <minimizedRMSD>
4.65095711

$$$$
