
 OpenBabel03272508023D

 27 29  0  0  0  0  0  0  0  0999 V2000
   38.3640   31.9300   47.3680 C   0  0  0  0  0  0  0  0  0  0  0  0
   38.5690   32.8150   48.3900 C   0  0  0  0  0  0  0  0  0  0  0  0
   37.7650   32.4950   49.4820 C   0  0  0  0  0  0  0  0  0  0  0  0
   37.0890   31.3990   49.0600 N   0  0  0  0  0  0  0  0  0  0  0  0
   37.4330   31.0600   47.8220 N   0  0  0  0  0  0  0  0  0  0  0  0
   39.2400   33.6630   48.4210 H   0  0  0  0  0  0  0  0  0  0  0  0
   37.6150   32.9050   50.4470 H   0  0  0  0  0  0  0  0  0  0  0  0
   36.1080   30.5630   49.6710 C   0  0  0  0  0  0  0  0  0  0  0  0
   36.0700   29.7490   50.7940 C   0  0  0  0  0  0  0  0  0  0  0  0
   36.9510   29.6780   51.4000 H   0  0  0  0  0  0  0  0  0  0  0  0
   34.7940   29.2210   50.8030 C   0  0  0  0  0  0  0  0  0  0  0  0
   34.5090   28.5300   51.6110 H   0  0  0  0  0  0  0  0  0  0  0  0
   34.0860   29.6780   49.7530 N   0  0  0  0  0  0  0  0  0  0  0  0
   33.0940   29.4170   49.5480 H   0  0  0  0  0  0  0  0  0  0  0  0
   34.8930   30.4960   49.0670 N   0  0  0  0  0  0  0  0  0  0  0  0
   39.0110   31.9220   46.0560 C   0  0  0  0  0  0  0  0  0  0  0  0
   38.2410   32.3260   44.9360 C   0  0  0  0  0  0  0  0  0  0  0  0
   38.8420   32.3230   43.6850 C   0  0  0  0  0  0  0  0  0  0  0  0
   40.1510   31.9230   43.6170 N   0  0  0  0  0  0  0  0  0  0  0  0
   40.8590   31.5430   44.6930 C   0  0  0  0  0  0  0  0  0  0  0  0
   40.2730   31.5480   45.9120 N   0  0  0  0  0  0  0  0  0  0  0  0
   37.1990   32.6310   45.0760 H   0  0  0  0  0  0  0  0  0  0  0  0
   41.8830   31.2310   44.6390 H   0  0  0  0  0  0  0  0  0  0  0  0
   38.0570   32.7420   42.4990 C   0  0  0  0  0  0  0  0  0  0  0  0
   38.7430   33.7880   41.9420 F   0  0  0  0  0  0  0  0  0  0  0  0
   37.9410   31.7220   41.5550 F   0  0  0  0  0  0  0  0  0  0  0  0
   36.7840   33.1850   42.8550 F   0  0  0  0  0  0  0  0  0  0  0  0
  1  5  2  0  0  0  0
  1  2  1  0  0  0  0
  2  6  1  0  0  0  0
  2  3  2  0  0  0  0
  3  7  1  0  0  0  0
  4  3  1  0  0  0  0
  4  8  1  0  0  0  0
  5  4  1  0  0  0  0
  8  9  1  0  0  0  0
  9 11  2  0  0  0  0
  9 10  1  0  0  0  0
 11 12  1  0  0  0  0
 13 11  1  0  0  0  0
 14 13  1  0  0  0  0
 15  8  2  0  0  0  0
 15 13  1  0  0  0  0
 16  1  1  0  0  0  0
 17 22  1  0  0  0  0
 17 16  2  0  0  0  0
 18 17  1  0  0  0  0
 19 18  2  0  0  0  0
 19 20  1  0  0  0  0
 20 21  2  0  0  0  0
 21 16  1  0  0  0  0
 23 20  1  0  0  0  0
 24 27  1  0  0  0  0
 24 18  1  0  0  0  0
 25 24  1  0  0  0  0
 26 24  1  0  0  0  0
M  END
>  <minimizedAffinity>
-5.99688721

>  <minimizedRMSD>
7.27339602

$$$$
