
 OpenBabel03272508023D

 27 29  0  0  0  0  0  0  0  0999 V2000
   38.9490   30.8530   45.7220 C   0  0  0  0  0  0  0  0  0  0  0  0
   40.1130   31.5340   45.9400 C   0  0  0  0  0  0  0  0  0  0  0  0
   40.9600   31.4200   44.8400 C   0  0  0  0  0  0  0  0  0  0  0  0
   40.2490   30.6500   43.9790 N   0  0  0  0  0  0  0  0  0  0  0  0
   39.0690   30.3130   44.4880 N   0  0  0  0  0  0  0  0  0  0  0  0
   40.4080   32.1040   46.8120 H   0  0  0  0  0  0  0  0  0  0  0  0
   41.9260   31.7800   44.5970 H   0  0  0  0  0  0  0  0  0  0  0  0
   40.5160   30.1480   42.6710 C   0  0  0  0  0  0  0  0  0  0  0  0
   41.4930   29.3390   42.1070 C   0  0  0  0  0  0  0  0  0  0  0  0
   42.2670   28.9610   42.7430 H   0  0  0  0  0  0  0  0  0  0  0  0
   41.1500   29.2510   40.7730 C   0  0  0  0  0  0  0  0  0  0  0  0
   41.7820   28.6510   40.0990 H   0  0  0  0  0  0  0  0  0  0  0  0
   40.0320   29.9590   40.5240 N   0  0  0  0  0  0  0  0  0  0  0  0
   39.5800   30.0420   39.5850 H   0  0  0  0  0  0  0  0  0  0  0  0
   39.6510   30.5040   41.6860 N   0  0  0  0  0  0  0  0  0  0  0  0
   37.8080   30.7290   46.6300 C   0  0  0  0  0  0  0  0  0  0  0  0
   38.0300   30.9790   48.0080 C   0  0  0  0  0  0  0  0  0  0  0  0
   36.9570   30.8650   48.8810 C   0  0  0  0  0  0  0  0  0  0  0  0
   35.7450   30.5120   48.3460 N   0  0  0  0  0  0  0  0  0  0  0  0
   35.5610   30.2790   47.0360 C   0  0  0  0  0  0  0  0  0  0  0  0
   36.6070   30.3920   46.1860 N   0  0  0  0  0  0  0  0  0  0  0  0
   39.0300   31.2560   48.3550 H   0  0  0  0  0  0  0  0  0  0  0  0
   34.6130   30.0050   46.6190 H   0  0  0  0  0  0  0  0  0  0  0  0
   37.1630   31.1230   50.3270 C   0  0  0  0  0  0  0  0  0  0  0  0
   36.6530   32.3710   50.5650 F   0  0  0  0  0  0  0  0  0  0  0  0
   36.4940   30.1990   51.1290 F   0  0  0  0  0  0  0  0  0  0  0  0
   38.5170   31.1250   50.6610 F   0  0  0  0  0  0  0  0  0  0  0  0
  1  2  1  0  0  0  0
  1 16  1  0  0  0  0
  2  6  1  0  0  0  0
  3  2  2  0  0  0  0
  4  5  1  0  0  0  0
  4  3  1  0  0  0  0
  5  1  2  0  0  0  0
  7  3  1  0  0  0  0
  8  4  1  0  0  0  0
  9  8  1  0  0  0  0
  9 10  1  0  0  0  0
 11  9  2  0  0  0  0
 12 11  1  0  0  0  0
 13 11  1  0  0  0  0
 13 15  1  0  0  0  0
 14 13  1  0  0  0  0
 15  8  2  0  0  0  0
 16 17  1  0  0  0  0
 17 22  1  0  0  0  0
 17 18  2  0  0  0  0
 18 24  1  0  0  0  0
 19 18  1  0  0  0  0
 20 19  2  0  0  0  0
 21 16  2  0  0  0  0
 21 20  1  0  0  0  0
 23 20  1  0  0  0  0
 24 25  1  0  0  0  0
 24 27  1  0  0  0  0
 24 26  1  0  0  0  0
M  END
>  <minimizedAffinity>
-6.16036177

>  <minimizedRMSD>
0.903866947

$$$$
