
 OpenBabel03272500453D

 24 26  0  0  0  0  0  0  0  0999 V2000
   37.7520   26.3290   34.1200 C   0  0  0  0  0  0  0  0  0  0  0  0
   38.9090   25.8600   33.5230 C   0  0  0  0  0  0  0  0  0  0  0  0
   39.5010   24.9340   34.3670 C   0  0  0  0  0  0  0  0  0  0  0  0
   38.7060   24.8540   35.4560 N   0  0  0  0  0  0  0  0  0  0  0  0
   37.6840   25.6820   35.2860 N   0  0  0  0  0  0  0  0  0  0  0  0
   39.3650   26.1070   32.5610 H   0  0  0  0  0  0  0  0  0  0  0  0
   40.4020   24.3550   34.2620 H   0  0  0  0  0  0  0  0  0  0  0  0
   38.7950   24.0810   36.6490 C   0  0  0  0  0  0  0  0  0  0  0  0
   38.0630   24.3120   37.8190 C   0  0  0  0  0  0  0  0  0  0  0  0
   37.3410   25.1380   37.9050 H   0  0  0  0  0  0  0  0  0  0  0  0
   38.4290   23.3530   38.7450 C   0  0  0  0  0  0  0  0  0  0  0  0
   37.9830   23.3380   39.7350 H   0  0  0  0  0  0  0  0  0  0  0  0
   39.3450   22.5850   38.1360 N   0  0  0  0  0  0  0  0  0  0  0  0
   39.7960   21.7730   38.6150 H   0  0  0  0  0  0  0  0  0  0  0  0
   39.5550   23.0200   36.9030 N   0  0  0  0  0  0  0  0  0  0  0  0
   36.2990   28.3600   34.2310 C   0  0  0  0  0  0  0  0  0  0  0  0
   36.8760   27.3010   33.5350 C   0  0  0  0  0  0  0  0  0  0  0  0
   36.5670   27.1950   32.1660 C   0  0  0  0  0  0  0  0  0  0  0  0
   35.7300   28.1300   31.6240 N   0  0  0  0  0  0  0  0  0  0  0  0
   35.1980   29.1400   32.3540 C   0  0  0  0  0  0  0  0  0  0  0  0
   35.4810   29.2580   33.6630 N   0  0  0  0  0  0  0  0  0  0  0  0
   36.5970   28.3600   35.2890 H   0  0  0  0  0  0  0  0  0  0  0  0
   36.9710   26.4050   31.5480 H   0  0  0  0  0  0  0  0  0  0  0  0
   34.5410   29.8450   31.8550 H   0  0  0  0  0  0  0  0  0  0  0  0
  1  5  2  0  0  0  0
  2  1  1  0  0  0  0
  2  3  2  0  0  0  0
  3  4  1  0  0  0  0
  4  8  1  0  0  0  0
  5  4  1  0  0  0  0
  6  2  1  0  0  0  0
  7  3  1  0  0  0  0
  8 15  2  0  0  0  0
  8  9  1  0  0  0  0
  9 10  1  0  0  0  0
  9 11  2  0  0  0  0
 11 12  1  0  0  0  0
 13 14  1  0  0  0  0
 13 11  1  0  0  0  0
 15 13  1  0  0  0  0
 16 22  1  0  0  0  0
 17  1  1  0  0  0  0
 17 16  2  0  0  0  0
 18 17  1  0  0  0  0
 19 18  2  0  0  0  0
 19 20  1  0  0  0  0
 20 21  2  0  0  0  0
 21 16  1  0  0  0  0
 23 18  1  0  0  0  0
 24 20  1  0  0  0  0
M  END
>  <minimizedAffinity>
-4.87510014

$$$$

 OpenBabel03272500453D

 24 26  0  0  0  0  0  0  0  0999 V2000
   38.3390   25.3610   33.4520 C   0  0  0  0  0  0  0  0  0  0  0  0
   39.4950   24.6710   33.1330 C   0  0  0  0  0  0  0  0  0  0  0  0
   39.9110   23.9600   34.2470 C   0  0  0  0  0  0  0  0  0  0  0  0
   39.0120   24.2250   35.2200 N   0  0  0  0  0  0  0  0  0  0  0  0
   38.0970   25.0500   34.7270 N   0  0  0  0  0  0  0  0  0  0  0  0
   40.0620   24.6230   32.1990 H   0  0  0  0  0  0  0  0  0  0  0  0
   40.7560   23.3110   34.3990 H   0  0  0  0  0  0  0  0  0  0  0  0
   38.9110   23.7890   36.5720 C   0  0  0  0  0  0  0  0  0  0  0  0
   38.0980   24.3710   37.5520 C   0  0  0  0  0  0  0  0  0  0  0  0
   37.4560   25.2390   37.3400 H   0  0  0  0  0  0  0  0  0  0  0  0
   38.2780   23.6650   38.7260 C   0  0  0  0  0  0  0  0  0  0  0  0
   37.7420   23.9430   39.6290 H   0  0  0  0  0  0  0  0  0  0  0  0
   39.1680   22.7010   38.4440 N   0  0  0  0  0  0  0  0  0  0  0  0
   39.4890   22.0140   39.1630 H   0  0  0  0  0  0  0  0  0  0  0  0
   39.5350   22.7810   37.1740 N   0  0  0  0  0  0  0  0  0  0  0  0
   36.4480   25.8390   31.8880 C   0  0  0  0  0  0  0  0  0  0  0  0
   37.6230   26.2040   32.5420 C   0  0  0  0  0  0  0  0  0  0  0  0
   38.1240   27.4930   32.2760 C   0  0  0  0  0  0  0  0  0  0  0  0
   37.4290   28.2850   31.4060 N   0  0  0  0  0  0  0  0  0  0  0  0
   36.2890   27.8730   30.8000 C   0  0  0  0  0  0  0  0  0  0  0  0
   35.7940   26.6450   31.0400 N   0  0  0  0  0  0  0  0  0  0  0  0
   36.1350   24.8210   32.1560 H   0  0  0  0  0  0  0  0  0  0  0  0
   39.0290   27.8600   32.7390 H   0  0  0  0  0  0  0  0  0  0  0  0
   35.7910   28.5570   30.1200 H   0  0  0  0  0  0  0  0  0  0  0  0
  1  5  2  0  0  0  0
  2  1  1  0  0  0  0
  2  3  2  0  0  0  0
  3  7  1  0  0  0  0
  3  4  1  0  0  0  0
  4  8  1  0  0  0  0
  5  4  1  0  0  0  0
  6  2  1  0  0  0  0
  8 15  2  0  0  0  0
  8  9  1  0  0  0  0
  9 11  2  0  0  0  0
 10  9  1  0  0  0  0
 11 12  1  0  0  0  0
 13 11  1  0  0  0  0
 13 14  1  0  0  0  0
 15 13  1  0  0  0  0
 16 22  1  0  0  0  0
 16 17  1  0  0  0  0
 17  1  1  0  0  0  0
 18 17  2  0  0  0  0
 18 23  1  0  0  0  0
 19 18  1  0  0  0  0
 20 21  1  0  0  0  0
 20 19  2  0  0  0  0
 21 16  2  0  0  0  0
 24 20  1  0  0  0  0
M  END
>  <minimizedAffinity>
-4.77133036

$$$$

 OpenBabel03272500453D

 24 26  0  0  0  0  0  0  0  0999 V2000
   38.2780   24.7170   35.6700 C   0  0  0  0  0  0  0  0  0  0  0  0
   37.7170   24.3940   36.8930 C   0  0  0  0  0  0  0  0  0  0  0  0
   38.4920   23.4150   37.4940 C   0  0  0  0  0  0  0  0  0  0  0  0
   39.5030   23.1560   36.6370 N   0  0  0  0  0  0  0  0  0  0  0  0
   39.3560   23.9350   35.5730 N   0  0  0  0  0  0  0  0  0  0  0  0
   36.8250   24.7830   37.3920 H   0  0  0  0  0  0  0  0  0  0  0  0
   38.3860   22.9100   38.4380 H   0  0  0  0  0  0  0  0  0  0  0  0
   40.6030   22.2530   36.7030 C   0  0  0  0  0  0  0  0  0  0  0  0
   41.4070   21.8770   35.6200 C   0  0  0  0  0  0  0  0  0  0  0  0
   41.2400   22.2650   34.6040 H   0  0  0  0  0  0  0  0  0  0  0  0
   42.3600   20.9930   36.0870 C   0  0  0  0  0  0  0  0  0  0  0  0
   43.0990   20.5660   35.4150 H   0  0  0  0  0  0  0  0  0  0  0  0
   42.1230   20.8560   37.4010 N   0  0  0  0  0  0  0  0  0  0  0  0
   42.7040   20.2350   38.0080 H   0  0  0  0  0  0  0  0  0  0  0  0
   41.0870   21.6010   37.7550 N   0  0  0  0  0  0  0  0  0  0  0  0
   37.5080   25.4700   33.4150 C   0  0  0  0  0  0  0  0  0  0  0  0
   37.7470   25.6950   34.7680 C   0  0  0  0  0  0  0  0  0  0  0  0
   37.4390   26.9760   35.2640 C   0  0  0  0  0  0  0  0  0  0  0  0
   36.9330   27.8970   34.3910 N   0  0  0  0  0  0  0  0  0  0  0  0
   36.7210   27.6180   33.0820 C   0  0  0  0  0  0  0  0  0  0  0  0
   37.0100   26.4010   32.5890 N   0  0  0  0  0  0  0  0  0  0  0  0
   37.7770   24.4460   33.1200 H   0  0  0  0  0  0  0  0  0  0  0  0
   37.5920   27.2380   36.3020 H   0  0  0  0  0  0  0  0  0  0  0  0
   36.3170   28.4000   32.4470 H   0  0  0  0  0  0  0  0  0  0  0  0
  1  2  1  0  0  0  0
  2  6  1  0  0  0  0
  2  3  2  0  0  0  0
  3  7  1  0  0  0  0
  4  8  1  0  0  0  0
  4  3  1  0  0  0  0
  5  1  2  0  0  0  0
  5  4  1  0  0  0  0
  8 15  2  0  0  0  0
  9 11  2  0  0  0  0
  9  8  1  0  0  0  0
 10  9  1  0  0  0  0
 11 13  1  0  0  0  0
 12 11  1  0  0  0  0
 13 15  1  0  0  0  0
 13 14  1  0  0  0  0
 16 17  1  0  0  0  0
 17 18  2  0  0  0  0
 17  1  1  0  0  0  0
 18 23  1  0  0  0  0
 19 18  1  0  0  0  0
 20 19  2  0  0  0  0
 21 20  1  0  0  0  0
 21 16  2  0  0  0  0
 22 16  1  0  0  0  0
 24 20  1  0  0  0  0
M  END
>  <minimizedAffinity>
-4.51948977

$$$$

 OpenBabel03272500453D

 24 26  0  0  0  0  0  0  0  0999 V2000
   37.4620   27.1930   34.1450 C   0  0  0  0  0  0  0  0  0  0  0  0
   37.8180   27.7180   35.3750 C   0  0  0  0  0  0  0  0  0  0  0  0
   38.2400   26.6850   36.1960 C   0  0  0  0  0  0  0  0  0  0  0  0
   38.1370   25.5550   35.4630 N   0  0  0  0  0  0  0  0  0  0  0  0
   37.6790   25.8800   34.2600 N   0  0  0  0  0  0  0  0  0  0  0  0
   37.8060   28.7490   35.7390 H   0  0  0  0  0  0  0  0  0  0  0  0
   38.5920   26.6870   37.2120 H   0  0  0  0  0  0  0  0  0  0  0  0
   38.4220   24.1920   35.7620 C   0  0  0  0  0  0  0  0  0  0  0  0
   37.9930   23.0920   35.0120 C   0  0  0  0  0  0  0  0  0  0  0  0
   37.3810   23.2040   34.1050 H   0  0  0  0  0  0  0  0  0  0  0  0
   38.4720   21.9490   35.6230 C   0  0  0  0  0  0  0  0  0  0  0  0
   38.2590   20.9670   35.2100 H   0  0  0  0  0  0  0  0  0  0  0  0
   39.1610   22.3670   36.6960 N   0  0  0  0  0  0  0  0  0  0  0  0
   39.6350   21.6990   37.3460 H   0  0  0  0  0  0  0  0  0  0  0  0
   39.1270   23.6880   36.7710 N   0  0  0  0  0  0  0  0  0  0  0  0
   37.5890   28.0280   31.7930 C   0  0  0  0  0  0  0  0  0  0  0  0
   36.9780   27.9690   33.0430 C   0  0  0  0  0  0  0  0  0  0  0  0
   35.8050   28.7290   33.2150 C   0  0  0  0  0  0  0  0  0  0  0  0
   35.3560   29.4640   32.1540 N   0  0  0  0  0  0  0  0  0  0  0  0
   35.9960   29.4810   30.9590 C   0  0  0  0  0  0  0  0  0  0  0  0
   37.1170   28.7620   30.7750 N   0  0  0  0  0  0  0  0  0  0  0  0
   38.4930   27.4050   31.7540 H   0  0  0  0  0  0  0  0  0  0  0  0
   35.2650   28.7420   34.1520 H   0  0  0  0  0  0  0  0  0  0  0  0
   35.5800   30.0890   30.1610 H   0  0  0  0  0  0  0  0  0  0  0  0
  1  5  2  0  0  0  0
  1  2  1  0  0  0  0
  2  6  1  0  0  0  0
  2  3  2  0  0  0  0
  3  7  1  0  0  0  0
  4  8  1  0  0  0  0
  4  3  1  0  0  0  0
  5  4  1  0  0  0  0
  8 15  2  0  0  0  0
  9 11  2  0  0  0  0
  9  8  1  0  0  0  0
 10  9  1  0  0  0  0
 11 13  1  0  0  0  0
 12 11  1  0  0  0  0
 13 15  1  0  0  0  0
 13 14  1  0  0  0  0
 16 17  1  0  0  0  0
 17 18  2  0  0  0  0
 17  1  1  0  0  0  0
 18 23  1  0  0  0  0
 19 18  1  0  0  0  0
 20 19  2  0  0  0  0
 21 20  1  0  0  0  0
 21 16  2  0  0  0  0
 22 16  1  0  0  0  0
 24 20  1  0  0  0  0
M  END
>  <minimizedAffinity>
-4.50624657

$$$$

 OpenBabel03272500453D

 24 26  0  0  0  0  0  0  0  0999 V2000
   37.4090   26.0620   32.9280 C   0  0  0  0  0  0  0  0  0  0  0  0
   37.9380   24.9720   32.2600 C   0  0  0  0  0  0  0  0  0  0  0  0
   38.2980   24.0100   33.1900 C   0  0  0  0  0  0  0  0  0  0  0  0
   37.9870   24.5230   34.4010 N   0  0  0  0  0  0  0  0  0  0  0  0
   37.4650   25.7290   34.2200 N   0  0  0  0  0  0  0  0  0  0  0  0
   38.0900   24.7970   31.1910 H   0  0  0  0  0  0  0  0  0  0  0  0
   38.7370   23.0360   33.0680 H   0  0  0  0  0  0  0  0  0  0  0  0
   38.1230   24.0060   35.7210 C   0  0  0  0  0  0  0  0  0  0  0  0
   38.0330   24.7580   36.8980 C   0  0  0  0  0  0  0  0  0  0  0  0
   37.8460   25.8420   36.8870 H   0  0  0  0  0  0  0  0  0  0  0  0
   38.2200   23.9000   37.9650 C   0  0  0  0  0  0  0  0  0  0  0  0
   38.1920   24.2680   38.9860 H   0  0  0  0  0  0  0  0  0  0  0  0
   38.4120   22.6840   37.4300 N   0  0  0  0  0  0  0  0  0  0  0  0
   38.5800   21.8380   38.0200 H   0  0  0  0  0  0  0  0  0  0  0  0
   38.3530   22.7550   36.1090 N   0  0  0  0  0  0  0  0  0  0  0  0
   36.9640   27.4710   30.9120 C   0  0  0  0  0  0  0  0  0  0  0  0
   36.9290   27.2500   32.2870 C   0  0  0  0  0  0  0  0  0  0  0  0
   36.3800   28.2730   33.0820 C   0  0  0  0  0  0  0  0  0  0  0  0
   35.9260   29.4000   32.4550 N   0  0  0  0  0  0  0  0  0  0  0  0
   35.9880   29.5580   31.1110 C   0  0  0  0  0  0  0  0  0  0  0  0
   36.5080   28.5920   30.3330 N   0  0  0  0  0  0  0  0  0  0  0  0
   37.4070   26.6210   30.3760 H   0  0  0  0  0  0  0  0  0  0  0  0
   36.3130   28.1870   34.1580 H   0  0  0  0  0  0  0  0  0  0  0  0
   35.6080   30.4800   30.6830 H   0  0  0  0  0  0  0  0  0  0  0  0
  1  5  2  0  0  0  0
  2  1  1  0  0  0  0
  2  3  2  0  0  0  0
  3  4  1  0  0  0  0
  4  8  1  0  0  0  0
  5  4  1  0  0  0  0
  6  2  1  0  0  0  0
  7  3  1  0  0  0  0
  8 15  2  0  0  0  0
  8  9  1  0  0  0  0
  9 11  2  0  0  0  0
 10  9  1  0  0  0  0
 11 12  1  0  0  0  0
 13 11  1  0  0  0  0
 13 14  1  0  0  0  0
 15 13  1  0  0  0  0
 16 17  1  0  0  0  0
 17  1  1  0  0  0  0
 17 18  2  0  0  0  0
 18 23  1  0  0  0  0
 19 18  1  0  0  0  0
 20 19  2  0  0  0  0
 21 16  2  0  0  0  0
 21 20  1  0  0  0  0
 22 16  1  0  0  0  0
 24 20  1  0  0  0  0
M  END
>  <minimizedAffinity>
-4.47206068

$$$$

 OpenBabel03272500453D

 24 26  0  0  0  0  0  0  0  0999 V2000
   36.8310   24.5160   31.6320 C   0  0  0  0  0  0  0  0  0  0  0  0
   37.8850   24.1170   30.8280 C   0  0  0  0  0  0  0  0  0  0  0  0
   37.7870   22.7530   30.6100 C   0  0  0  0  0  0  0  0  0  0  0  0
   36.6860   22.3420   31.2770 N   0  0  0  0  0  0  0  0  0  0  0  0
   36.1410   23.3980   31.8680 N   0  0  0  0  0  0  0  0  0  0  0  0
   38.7040   24.6940   30.3890 H   0  0  0  0  0  0  0  0  0  0  0  0
   38.4080   22.0800   30.0450 H   0  0  0  0  0  0  0  0  0  0  0  0
   36.0800   21.0620   31.4240 C   0  0  0  0  0  0  0  0  0  0  0  0
   35.1140   20.7290   32.3800 C   0  0  0  0  0  0  0  0  0  0  0  0
   34.7400   21.4590   33.1140 H   0  0  0  0  0  0  0  0  0  0  0  0
   34.7780   19.4010   32.1990 C   0  0  0  0  0  0  0  0  0  0  0  0
   34.0390   18.9230   32.8360 H   0  0  0  0  0  0  0  0  0  0  0  0
   35.5240   18.9700   31.1700 N   0  0  0  0  0  0  0  0  0  0  0  0
   35.4690   17.9870   30.8180 H   0  0  0  0  0  0  0  0  0  0  0  0
   36.2870   19.9540   30.7190 N   0  0  0  0  0  0  0  0  0  0  0  0
   37.0240   26.3750   33.2920 C   0  0  0  0  0  0  0  0  0  0  0  0
   36.6080   25.8630   32.0650 C   0  0  0  0  0  0  0  0  0  0  0  0
   35.9260   26.7460   31.2060 C   0  0  0  0  0  0  0  0  0  0  0  0
   35.7210   28.0270   31.6340 N   0  0  0  0  0  0  0  0  0  0  0  0
   36.1500   28.4670   32.8420 C   0  0  0  0  0  0  0  0  0  0  0  0
   36.8040   27.6400   33.6770 N   0  0  0  0  0  0  0  0  0  0  0  0
   37.5450   25.6160   33.8910 H   0  0  0  0  0  0  0  0  0  0  0  0
   35.5670   26.4340   30.2350 H   0  0  0  0  0  0  0  0  0  0  0  0
   35.9510   29.4990   33.1150 H   0  0  0  0  0  0  0  0  0  0  0  0
  1  5  2  0  0  0  0
  1 17  1  0  0  0  0
  2  1  1  0  0  0  0
  3  2  2  0  0  0  0
  3  4  1  0  0  0  0
  4  8  1  0  0  0  0
  4  5  1  0  0  0  0
  6  2  1  0  0  0  0
  7  3  1  0  0  0  0
  8  9  1  0  0  0  0
  9 10  1  0  0  0  0
 11  9  2  0  0  0  0
 11 12  1  0  0  0  0
 13 11  1  0  0  0  0
 14 13  1  0  0  0  0
 15 13  1  0  0  0  0
 15  8  2  0  0  0  0
 16 21  1  0  0  0  0
 16 22  1  0  0  0  0
 17 16  2  0  0  0  0
 18 19  2  0  0  0  0
 18 17  1  0  0  0  0
 19 20  1  0  0  0  0
 20 24  1  0  0  0  0
 20 21  2  0  0  0  0
 23 18  1  0  0  0  0
M  END
>  <minimizedAffinity>
-4.46518517

$$$$

 OpenBabel03272500453D

 24 26  0  0  0  0  0  0  0  0999 V2000
   37.4020   26.0610   32.9510 C   0  0  0  0  0  0  0  0  0  0  0  0
   37.9420   24.9840   32.2700 C   0  0  0  0  0  0  0  0  0  0  0  0
   38.3120   24.0150   33.1880 C   0  0  0  0  0  0  0  0  0  0  0  0
   37.9970   24.5100   34.4050 N   0  0  0  0  0  0  0  0  0  0  0  0
   37.4620   25.7120   34.2390 N   0  0  0  0  0  0  0  0  0  0  0  0
   38.0960   24.8240   31.1990 H   0  0  0  0  0  0  0  0  0  0  0  0
   38.7620   23.0480   33.0530 H   0  0  0  0  0  0  0  0  0  0  0  0
   38.1390   23.9770   35.7180 C   0  0  0  0  0  0  0  0  0  0  0  0
   38.0420   24.7140   36.9050 C   0  0  0  0  0  0  0  0  0  0  0  0
   37.8430   25.7960   36.9080 H   0  0  0  0  0  0  0  0  0  0  0  0
   38.2390   23.8440   37.9610 C   0  0  0  0  0  0  0  0  0  0  0  0
   38.2070   24.2000   38.9870 H   0  0  0  0  0  0  0  0  0  0  0  0
   38.4430   22.6380   37.4110 N   0  0  0  0  0  0  0  0  0  0  0  0
   38.6210   21.7860   37.9900 H   0  0  0  0  0  0  0  0  0  0  0  0
   38.3830   22.7250   36.0910 N   0  0  0  0  0  0  0  0  0  0  0  0
   36.3320   28.3190   33.0080 C   0  0  0  0  0  0  0  0  0  0  0  0
   36.9090   27.2510   32.3250 C   0  0  0  0  0  0  0  0  0  0  0  0
   37.0040   27.3680   30.9260 C   0  0  0  0  0  0  0  0  0  0  0  0
   36.5290   28.5090   30.3440 N   0  0  0  0  0  0  0  0  0  0  0  0
   35.9770   29.5170   31.0630 C   0  0  0  0  0  0  0  0  0  0  0  0
   35.8760   29.4240   32.4010 N   0  0  0  0  0  0  0  0  0  0  0  0
   36.3010   28.1380   34.0910 H   0  0  0  0  0  0  0  0  0  0  0  0
   37.4370   26.5880   30.3150 H   0  0  0  0  0  0  0  0  0  0  0  0
   35.6200   30.3940   30.5320 H   0  0  0  0  0  0  0  0  0  0  0  0
  1  5  2  0  0  0  0
  2  1  1  0  0  0  0
  2  3  2  0  0  0  0
  3  4  1  0  0  0  0
  4  8  1  0  0  0  0
  5  4  1  0  0  0  0
  6  2  1  0  0  0  0
  7  3  1  0  0  0  0
  8 15  2  0  0  0  0
  8  9  1  0  0  0  0
  9 10  1  0  0  0  0
  9 11  2  0  0  0  0
 11 12  1  0  0  0  0
 13 11  1  0  0  0  0
 13 14  1  0  0  0  0
 15 13  1  0  0  0  0
 16 22  1  0  0  0  0
 17  1  1  0  0  0  0
 17 16  2  0  0  0  0
 18 17  1  0  0  0  0
 19 18  2  0  0  0  0
 19 20  1  0  0  0  0
 20 21  2  0  0  0  0
 21 16  1  0  0  0  0
 23 18  1  0  0  0  0
 24 20  1  0  0  0  0
M  END
>  <minimizedAffinity>
-4.46371555

$$$$

 OpenBabel03272500453D

 24 26  0  0  0  0  0  0  0  0999 V2000
   38.4510   25.6180   34.2930 C   0  0  0  0  0  0  0  0  0  0  0  0
   37.5550   25.8000   35.3330 C   0  0  0  0  0  0  0  0  0  0  0  0
   37.8790   24.9280   36.3590 C   0  0  0  0  0  0  0  0  0  0  0  0
   38.9570   24.2310   35.9350 N   0  0  0  0  0  0  0  0  0  0  0  0
   39.2740   24.6570   34.7190 N   0  0  0  0  0  0  0  0  0  0  0  0
   36.7070   26.4830   35.4300 H   0  0  0  0  0  0  0  0  0  0  0  0
   37.4270   24.7680   37.3220 H   0  0  0  0  0  0  0  0  0  0  0  0
   39.7320   23.2050   36.5460 C   0  0  0  0  0  0  0  0  0  0  0  0
   40.6360   22.3690   35.8810 C   0  0  0  0  0  0  0  0  0  0  0  0
   40.8200   22.4480   34.7990 H   0  0  0  0  0  0  0  0  0  0  0  0
   41.1850   21.5100   36.8150 C   0  0  0  0  0  0  0  0  0  0  0  0
   41.9200   20.7660   36.5210 H   0  0  0  0  0  0  0  0  0  0  0  0
   40.6200   21.8330   37.9880 N   0  0  0  0  0  0  0  0  0  0  0  0
   40.8580   21.3330   38.8750 H   0  0  0  0  0  0  0  0  0  0  0  0
   39.7660   22.8310   37.8220 N   0  0  0  0  0  0  0  0  0  0  0  0
   37.6790   27.5090   32.8530 C   0  0  0  0  0  0  0  0  0  0  0  0
   38.4230   26.3500   33.0630 C   0  0  0  0  0  0  0  0  0  0  0  0
   39.1930   25.8840   31.9800 C   0  0  0  0  0  0  0  0  0  0  0  0
   39.1560   26.5940   30.8140 N   0  0  0  0  0  0  0  0  0  0  0  0
   38.4110   27.7170   30.6690 C   0  0  0  0  0  0  0  0  0  0  0  0
   37.6680   28.1780   31.6910 N   0  0  0  0  0  0  0  0  0  0  0  0
   37.1130   27.7950   33.7500 H   0  0  0  0  0  0  0  0  0  0  0  0
   39.8010   24.9920   32.0540 H   0  0  0  0  0  0  0  0  0  0  0  0
   38.4300   28.2290   29.7130 H   0  0  0  0  0  0  0  0  0  0  0  0
  1  5  2  0  0  0  0
  1  2  1  0  0  0  0
  2  6  1  0  0  0  0
  2  3  2  0  0  0  0
  3  7  1  0  0  0  0
  4  3  1  0  0  0  0
  4  8  1  0  0  0  0
  5  4  1  0  0  0  0
  8 15  2  0  0  0  0
  9  8  1  0  0  0  0
  9 11  2  0  0  0  0
 10  9  1  0  0  0  0
 11 13  1  0  0  0  0
 12 11  1  0  0  0  0
 13 14  1  0  0  0  0
 15 13  1  0  0  0  0
 16 17  1  0  0  0  0
 16 22  1  0  0  0  0
 17  1  1  0  0  0  0
 18 23  1  0  0  0  0
 18 17  2  0  0  0  0
 19 18  1  0  0  0  0
 20 19  2  0  0  0  0
 20 21  1  0  0  0  0
 21 16  2  0  0  0  0
 24 20  1  0  0  0  0
M  END
>  <minimizedAffinity>
-4.4633069

$$$$

 OpenBabel03272500453D

 24 26  0  0  0  0  0  0  0  0999 V2000
   39.1940   24.7990   34.4490 C   0  0  0  0  0  0  0  0  0  0  0  0
   39.8620   25.8910   33.9250 C   0  0  0  0  0  0  0  0  0  0  0  0
   39.1190   26.4060   32.8740 C   0  0  0  0  0  0  0  0  0  0  0  0
   38.0200   25.6270   32.7730 N   0  0  0  0  0  0  0  0  0  0  0  0
   38.0870   24.6900   33.7110 N   0  0  0  0  0  0  0  0  0  0  0  0
   40.8110   26.3510   34.2130 H   0  0  0  0  0  0  0  0  0  0  0  0
   39.3000   27.2420   32.2220 H   0  0  0  0  0  0  0  0  0  0  0  0
   36.9030   25.6620   31.8910 C   0  0  0  0  0  0  0  0  0  0  0  0
   35.9840   24.6220   31.7070 C   0  0  0  0  0  0  0  0  0  0  0  0
   36.0620   23.6680   32.2510 H   0  0  0  0  0  0  0  0  0  0  0  0
   35.0530   25.0380   30.7750 C   0  0  0  0  0  0  0  0  0  0  0  0
   34.2370   24.3860   30.4750 H   0  0  0  0  0  0  0  0  0  0  0  0
   35.4140   26.2820   30.4250 N   0  0  0  0  0  0  0  0  0  0  0  0
   34.8750   26.8400   29.7240 H   0  0  0  0  0  0  0  0  0  0  0  0
   36.5040   26.6410   31.0860 N   0  0  0  0  0  0  0  0  0  0  0  0
   40.9410   23.4590   35.6330 C   0  0  0  0  0  0  0  0  0  0  0  0
   39.6650   24.0130   35.5500 C   0  0  0  0  0  0  0  0  0  0  0  0
   38.7970   23.7740   36.6320 C   0  0  0  0  0  0  0  0  0  0  0  0
   39.2620   23.0230   37.6750 N   0  0  0  0  0  0  0  0  0  0  0  0
   40.5160   22.5100   37.6980 C   0  0  0  0  0  0  0  0  0  0  0  0
   41.3610   22.7270   36.6750 N   0  0  0  0  0  0  0  0  0  0  0  0
   41.5450   23.6990   34.7480 H   0  0  0  0  0  0  0  0  0  0  0  0
   37.7890   24.1660   36.6520 H   0  0  0  0  0  0  0  0  0  0  0  0
   40.8160   21.9230   38.5600 H   0  0  0  0  0  0  0  0  0  0  0  0
  1 17  1  0  0  0  0
  2  6  1  0  0  0  0
  2  1  1  0  0  0  0
  3  2  2  0  0  0  0
  4  3  1  0  0  0  0
  4  5  1  0  0  0  0
  5  1  2  0  0  0  0
  7  3  1  0  0  0  0
  8  4  1  0  0  0  0
  9  8  1  0  0  0  0
  9 10  1  0  0  0  0
 11  9  2  0  0  0  0
 12 11  1  0  0  0  0
 13 11  1  0  0  0  0
 13 15  1  0  0  0  0
 14 13  1  0  0  0  0
 15  8  2  0  0  0  0
 16 21  1  0  0  0  0
 17 16  2  0  0  0  0
 17 18  1  0  0  0  0
 18 23  1  0  0  0  0
 18 19  2  0  0  0  0
 19 20  1  0  0  0  0
 20 24  1  0  0  0  0
 21 20  2  0  0  0  0
 22 16  1  0  0  0  0
M  END
>  <minimizedAffinity>
-4.4569912

$$$$
