
 OpenBabel03272502593D

 33 35  0  0  1  0  0  0  0  0999 V2000
   35.9280   29.6580   48.8430 N   0  0  0  0  0  0  0  0  0  0  0  0
   36.7030   28.8630   49.7480 C   0  0  0  0  0  0  0  0  0  0  0  0
   37.1880   29.4810   50.9860 C   0  0  0  0  0  0  0  0  0  0  0  0
   37.3850   30.9470   50.9970 C   0  0  0  0  0  0  0  0  0  0  0  0
   36.6160   31.6940   49.9360 C   0  0  0  0  0  0  0  0  0  0  0  0
   36.6400   30.8930   48.6430 C   0  0  1  0  0  0  0  0  0  0  0  0
   36.0790   27.9500   49.9700 H   0  0  0  0  0  0  0  0  0  0  0  0
   37.5710   28.4670   49.1590 H   0  0  0  0  0  0  0  0  0  0  0  0
   38.1560   29.0000   51.2750 H   0  0  0  0  0  0  0  0  0  0  0  0
   36.4750   29.1930   51.8090 H   0  0  0  0  0  0  0  0  0  0  0  0
   37.0590   31.3670   51.9830 H   0  0  0  0  0  0  0  0  0  0  0  0
   38.4640   31.2340   50.8980 H   0  0  0  0  0  0  0  0  0  0  0  0
   35.5660   31.8870   50.1790 H   0  0  0  0  0  0  0  0  0  0  0  0
   37.1490   32.6600   49.7300 H   0  0  0  0  0  0  0  0  0  0  0  0
   36.2280   31.5230   47.8290 H   0  0  0  0  0  0  0  0  0  0  0  0
   34.6800   29.2960   48.2490 C   0  0  0  0  0  0  0  0  0  0  0  0
   34.1650   29.8620   47.0830 C   0  0  0  0  0  0  0  0  0  0  0  0
   32.9380   29.4100   46.6230 C   0  0  0  0  0  0  0  0  0  0  0  0
   32.3060   28.4330   47.3420 N   0  0  0  0  0  0  0  0  0  0  0  0
   32.8340   27.9170   48.4560 C   0  0  0  0  0  0  0  0  0  0  0  0
   34.0280   28.3440   48.9210 N   0  0  0  0  0  0  0  0  0  0  0  0
   34.7420   30.6130   46.6080 H   0  0  0  0  0  0  0  0  0  0  0  0
   32.5620   29.8630   45.7190 H   0  0  0  0  0  0  0  0  0  0  0  0
   32.2770   27.1470   48.9720 H   0  0  0  0  0  0  0  0  0  0  0  0
   37.9980   30.6930   48.3750 O   0  0  0  0  0  0  0  0  0  0  0  0
   38.7270   31.4740   47.4870 C   0  0  0  0  0  0  0  0  0  0  0  0
   39.3540   31.1530   46.2790 C   0  0  0  0  0  0  0  0  0  0  0  0
   39.3380   30.1580   45.8590 H   0  0  0  0  0  0  0  0  0  0  0  0
   39.9600   32.2800   45.7580 C   0  0  0  0  0  0  0  0  0  0  0  0
   40.4920   32.2420   44.8360 H   0  0  0  0  0  0  0  0  0  0  0  0
   39.6860   33.2620   46.6640 N   0  0  0  0  0  0  0  0  0  0  0  0
   40.0550   34.2230   46.4690 H   0  0  0  0  0  0  0  0  0  0  0  0
   38.9690   32.7850   47.6690 N   0  0  0  0  0  0  0  0  0  0  0  0
  1  2  1  0  0  0  0
  2  7  1  0  0  0  0
  2  3  1  0  0  0  0
  3  4  1  0  0  0  0
  3  9  1  0  0  0  0
  3 10  1  0  0  0  0
  4 11  1  0  0  0  0
  5 13  1  0  0  0  0
  5  4  1  0  0  0  0
  6 15  1  6  0  0  0
  6  1  1  0  0  0  0
  6  5  1  0  0  0  0
  8  2  1  0  0  0  0
 12  4  1  0  0  0  0
 14  5  1  0  0  0  0
 16  1  1  0  0  0  0
 16 21  1  0  0  0  0
 17 16  2  0  0  0  0
 18 17  1  0  0  0  0
 18 19  2  0  0  0  0
 19 20  1  0  0  0  0
 20 21  2  0  0  0  0
 20 24  1  0  0  0  0
 22 17  1  0  0  0  0
 23 18  1  0  0  0  0
 25  6  1  0  0  0  0
 26 33  2  0  0  0  0
 26 25  1  0  0  0  0
 27 26  1  0  0  0  0
 28 27  1  0  0  0  0
 29 27  2  0  0  0  0
 29 31  1  0  0  0  0
 30 29  1  0  0  0  0
 31 33  1  0  0  0  0
 32 31  1  0  0  0  0
M  END
>  <minimizedAffinity>
-5.717062

>  <minimizedRMSD>
0.806025505

$$$$
