
 OpenBabel03262520103D

 35 37  0  0  0  0  0  0  0  0999 V2000
   37.4900   31.7600   48.3510 Br  0  0  0  0  0  0  0  0  0  0  0  0
   36.6330   30.8710   46.8900 C   0  0  0  0  0  0  0  0  0  0  0  0
   37.2410   30.8180   45.6650 C   0  0  0  0  0  0  0  0  0  0  0  0
   36.5760   30.1660   44.6450 C   0  0  0  0  0  0  0  0  0  0  0  0
   35.3360   29.5790   44.8210 C   0  0  0  0  0  0  0  0  0  0  0  0
   34.7610   29.6590   46.0760 C   0  0  0  0  0  0  0  0  0  0  0  0
   35.4160   30.3060   47.1030 C   0  0  0  0  0  0  0  0  0  0  0  0
   37.1000   30.1480   43.6820 H   0  0  0  0  0  0  0  0  0  0  0  0
   34.9280   29.1050   43.9460 H   0  0  0  0  0  0  0  0  0  0  0  0
   33.8030   29.1620   46.0590 H   0  0  0  0  0  0  0  0  0  0  0  0
   39.7680   33.2850   44.7610 C   0  0  0  0  0  0  0  0  0  0  0  0
   40.9920   32.6280   44.9660 C   0  0  0  0  0  0  0  0  0  0  0  0
   40.9280   31.3150   45.4230 C   0  0  0  0  0  0  0  0  0  0  0  0
   39.7080   30.7390   45.6460 N   0  0  0  0  0  0  0  0  0  0  0  0
   38.5540   31.4290   45.4290 C   0  0  0  0  0  0  0  0  0  0  0  0
   38.5960   32.7070   44.9840 N   0  0  0  0  0  0  0  0  0  0  0  0
   39.8260   34.3040   44.4070 H   0  0  0  0  0  0  0  0  0  0  0  0
   41.9450   33.0900   44.7870 H   0  0  0  0  0  0  0  0  0  0  0  0
   41.8110   30.7130   45.6150 H   0  0  0  0  0  0  0  0  0  0  0  0
   34.6880   30.3130   48.3980 C   0  0  0  0  0  0  0  0  0  0  0  0
   35.4300   30.5390   49.1930 H   0  0  0  0  0  0  0  0  0  0  0  0
   33.9580   31.1570   48.4510 H   0  0  0  0  0  0  0  0  0  0  0  0
   34.0370   29.0210   48.7460 C   0  0  0  0  0  0  0  0  0  0  0  0
   33.1520   29.2920   49.4000 H   0  0  0  0  0  0  0  0  0  0  0  0
   33.6280   28.4150   47.9560 H   0  0  0  0  0  0  0  0  0  0  0  0
   34.9610   28.2460   49.5750 N   0  0  0  0  0  0  0  0  0  0  0  0
   34.8120   27.2150   49.6340 H   0  0  0  0  0  0  0  0  0  0  0  0
   36.0420   28.8170   50.3010 C   0  0  0  0  0  0  0  0  0  0  0  0
   35.9690   29.5460   51.4710 C   0  0  0  0  0  0  0  0  0  0  0  0
   35.0700   29.8100   52.0410 H   0  0  0  0  0  0  0  0  0  0  0  0
   37.2370   29.9220   51.8550 C   0  0  0  0  0  0  0  0  0  0  0  0
   37.6110   30.4920   52.6960 H   0  0  0  0  0  0  0  0  0  0  0  0
   38.0610   29.4360   50.9440 N   0  0  0  0  0  0  0  0  0  0  0  0
   39.0980   29.4360   50.7700 H   0  0  0  0  0  0  0  0  0  0  0  0
   37.3510   28.7990   50.0540 N   0  0  0  0  0  0  0  0  0  0  0  0
  2  7  1  0  0  0  0
  2  1  1  0  0  0  0
  3  2  2  0  0  0  0
  4  5  2  0  0  0  0
  4  3  1  0  0  0  0
  5  6  1  0  0  0  0
  6  7  2  0  0  0  0
  7 20  1  0  0  0  0
  8  4  1  0  0  0  0
  9  5  1  0  0  0  0
 10  6  1  0  0  0  0
 11 12  2  0  0  0  0
 11 16  1  0  0  0  0
 12 13  1  0  0  0  0
 13 19  1  0  0  0  0
 13 14  2  0  0  0  0
 15 14  1  0  0  0  0
 15  3  1  0  0  0  0
 16 15  2  0  0  0  0
 17 11  1  0  0  0  0
 18 12  1  0  0  0  0
 20 22  1  0  0  0  0
 20 23  1  0  0  0  0
 20 21  1  0  0  0  0
 23 24  1  0  0  0  0
 23 26  1  0  0  0  0
 25 23  1  0  0  0  0
 26 27  1  0  0  0  0
 26 28  1  0  0  0  0
 28 29  1  0  0  0  0
 29 31  2  0  0  0  0
 29 30  1  0  0  0  0
 31 32  1  0  0  0  0
 33 31  1  0  0  0  0
 34 33  1  0  0  0  0
 35 28  2  0  0  0  0
 35 33  1  0  0  0  0
M  END
>  <minimizedAffinity>
-5.70221949

>  <minimizedRMSD>
1.10776782

$$$$
