
 OpenBabel03272508023D

 27 29  0  0  0  0  0  0  0  0999 V2000
   38.7840   30.7470   45.5130 C   0  0  0  0  0  0  0  0  0  0  0  0
   39.8300   31.6260   45.4900 C   0  0  0  0  0  0  0  0  0  0  0  0
   40.6700   31.3580   44.4110 C   0  0  0  0  0  0  0  0  0  0  0  0
   40.0770   30.2970   43.8120 N   0  0  0  0  0  0  0  0  0  0  0  0
   38.9710   29.9320   44.4500 N   0  0  0  0  0  0  0  0  0  0  0  0
   40.0430   32.4370   46.1740 H   0  0  0  0  0  0  0  0  0  0  0  0
   41.5640   31.7830   44.0350 H   0  0  0  0  0  0  0  0  0  0  0  0
   40.4030   29.5210   42.6600 C   0  0  0  0  0  0  0  0  0  0  0  0
   40.2170   28.1990   42.2780 C   0  0  0  0  0  0  0  0  0  0  0  0
   39.7160   27.5410   42.9590 H   0  0  0  0  0  0  0  0  0  0  0  0
   40.7830   28.1130   41.0220 C   0  0  0  0  0  0  0  0  0  0  0  0
   40.7630   27.1470   40.4960 H   0  0  0  0  0  0  0  0  0  0  0  0
   41.2880   29.3040   40.6470 N   0  0  0  0  0  0  0  0  0  0  0  0
   41.7650   29.4840   39.7350 H   0  0  0  0  0  0  0  0  0  0  0  0
   41.0520   30.1580   41.6510 N   0  0  0  0  0  0  0  0  0  0  0  0
   37.6890   30.6930   46.4810 C   0  0  0  0  0  0  0  0  0  0  0  0
   37.9830   31.0150   47.8300 C   0  0  0  0  0  0  0  0  0  0  0  0
   36.9530   30.9680   48.7600 C   0  0  0  0  0  0  0  0  0  0  0  0
   35.7110   30.6080   48.3070 N   0  0  0  0  0  0  0  0  0  0  0  0
   35.4580   30.3050   47.0230 C   0  0  0  0  0  0  0  0  0  0  0  0
   36.4620   30.3530   46.1170 N   0  0  0  0  0  0  0  0  0  0  0  0
   39.0030   31.2940   48.1120 H   0  0  0  0  0  0  0  0  0  0  0  0
   34.4870   30.0240   46.6690 H   0  0  0  0  0  0  0  0  0  0  0  0
   37.2360   31.3020   50.1770 C   0  0  0  0  0  0  0  0  0  0  0  0
   36.6940   32.5420   50.3890 F   0  0  0  0  0  0  0  0  0  0  0  0
   36.6510   30.3950   51.0610 F   0  0  0  0  0  0  0  0  0  0  0  0
   38.6060   31.3680   50.4270 F   0  0  0  0  0  0  0  0  0  0  0  0
  1 16  1  0  0  0  0
  2  1  1  0  0  0  0
  2  6  1  0  0  0  0
  3  2  2  0  0  0  0
  4  3  1  0  0  0  0
  4  5  1  0  0  0  0
  5  1  2  0  0  0  0
  7  3  1  0  0  0  0
  8  4  1  0  0  0  0
  9  8  1  0  0  0  0
  9 10  1  0  0  0  0
 11  9  2  0  0  0  0
 12 11  1  0  0  0  0
 13 11  1  0  0  0  0
 13 15  1  0  0  0  0
 14 13  1  0  0  0  0
 15  8  2  0  0  0  0
 16 17  1  0  0  0  0
 17 22  1  0  0  0  0
 17 18  2  0  0  0  0
 18 24  1  0  0  0  0
 19 18  1  0  0  0  0
 20 19  2  0  0  0  0
 21 16  2  0  0  0  0
 21 20  1  0  0  0  0
 23 20  1  0  0  0  0
 24 25  1  0  0  0  0
 24 27  1  0  0  0  0
 24 26  1  0  0  0  0
M  END
>  <minimizedAffinity>
-5.99231052

>  <minimizedRMSD>
0.945310473

$$$$
