
 OpenBabel03272508163D

 30 32  0  0  0  0  0  0  0  0999 V2000
   35.2090   30.5950   47.6940 Cl  0  0  0  0  0  0  0  0  0  0  0  0
   35.3960   29.9320   46.1000 C   0  0  0  0  0  0  0  0  0  0  0  0
   34.4230   29.0400   45.7810 C   0  0  0  0  0  0  0  0  0  0  0  0
   34.4840   28.4400   44.4970 C   0  0  0  0  0  0  0  0  0  0  0  0
   35.4780   28.7410   43.6130 C   0  0  0  0  0  0  0  0  0  0  0  0
   36.4470   29.6520   43.9750 C   0  0  0  0  0  0  0  0  0  0  0  0
   37.7250   30.0610   42.8820 Cl  0  0  0  0  0  0  0  0  0  0  0  0
   36.3910   30.2290   45.2030 C   0  0  0  0  0  0  0  0  0  0  0  0
   33.7590   27.7190   44.1460 H   0  0  0  0  0  0  0  0  0  0  0  0
   35.5360   28.2900   42.6300 H   0  0  0  0  0  0  0  0  0  0  0  0
   33.5260   27.6330   47.5790 C   0  0  0  0  0  0  0  0  0  0  0  0
   33.2690   28.5640   46.5590 C   0  0  0  0  0  0  0  0  0  0  0  0
   31.9640   28.9790   46.3400 C   0  0  0  0  0  0  0  0  0  0  0  0
   30.9920   28.4560   47.1320 N   0  0  0  0  0  0  0  0  0  0  0  0
   31.2670   27.5600   48.1070 C   0  0  0  0  0  0  0  0  0  0  0  0
   32.5480   27.1400   48.3380 N   0  0  0  0  0  0  0  0  0  0  0  0
   34.5390   27.2970   47.7640 H   0  0  0  0  0  0  0  0  0  0  0  0
   31.7850   29.6980   45.5510 H   0  0  0  0  0  0  0  0  0  0  0  0
   30.3810   27.2550   48.6340 H   0  0  0  0  0  0  0  0  0  0  0  0
   37.3850   31.2130   45.6710 C   0  0  0  0  0  0  0  0  0  0  0  0
   37.6460   32.3310   45.2390 O   0  0  0  0  0  0  0  0  0  0  0  0
   38.2740   31.0560   46.7570 O   0  0  0  0  0  0  0  0  0  0  0  0
   38.5970   32.1100   47.5990 C   0  0  0  0  0  0  0  0  0  0  0  0
   38.0050   32.2770   48.8350 C   0  0  0  0  0  0  0  0  0  0  0  0
   37.2550   31.6550   49.2970 H   0  0  0  0  0  0  0  0  0  0  0  0
   38.5450   33.4060   49.4070 C   0  0  0  0  0  0  0  0  0  0  0  0
   38.3710   33.8880   50.3440 H   0  0  0  0  0  0  0  0  0  0  0  0
   39.4390   33.9040   48.5360 N   0  0  0  0  0  0  0  0  0  0  0  0
   40.0440   34.7560   48.6270 H   0  0  0  0  0  0  0  0  0  0  0  0
   39.4700   33.1210   47.4460 N   0  0  0  0  0  0  0  0  0  0  0  0
  2  1  1  0  0  0  0
  3  2  1  0  0  0  0
  3 12  1  0  0  0  0
  4  3  2  0  0  0  0
  5  6  2  0  0  0  0
  5  4  1  0  0  0  0
  6  8  1  0  0  0  0
  7  6  1  0  0  0  0
  8 20  1  0  0  0  0
  8  2  2  0  0  0  0
  9  4  1  0  0  0  0
 10  5  1  0  0  0  0
 11 17  1  0  0  0  0
 11 16  1  0  0  0  0
 12 11  2  0  0  0  0
 13 12  1  0  0  0  0
 13 14  2  0  0  0  0
 14 15  1  0  0  0  0
 15 16  2  0  0  0  0
 15 19  1  0  0  0  0
 18 13  1  0  0  0  0
 20 22  1  0  0  0  0
 21 20  2  0  0  0  0
 22 23  1  0  0  0  0
 23 24  1  0  0  0  0
 24 25  1  0  0  0  0
 24 26  2  0  0  0  0
 26 27  1  0  0  0  0
 28 29  1  0  0  0  0
 28 26  1  0  0  0  0
 30 23  2  0  0  0  0
 30 28  1  0  0  0  0
M  END
>  <minimizedAffinity>
-4.81309891

>  <minimizedRMSD>
4.11985159

$$$$
