
 OpenBabel03272508213D

 41 44  0  0  0  0  0  0  0  0999 V2000
   37.8820   30.4790   47.0360 C   0  0  0  0  0  0  0  0  0  0  0  0
   38.4730   29.8530   47.7480 H   0  0  0  0  0  0  0  0  0  0  0  0
   37.5600   29.7300   46.2510 H   0  0  0  0  0  0  0  0  0  0  0  0
   38.4480   30.1210   44.3450 F   0  0  0  0  0  0  0  0  0  0  0  0
   38.9740   31.1670   45.0450 C   0  0  0  0  0  0  0  0  0  0  0  0
   38.7500   31.4140   46.4050 C   0  0  0  0  0  0  0  0  0  0  0  0
   39.3860   32.4930   46.9200 C   0  0  0  0  0  0  0  0  0  0  0  0
   40.1930   33.3140   46.1990 C   0  0  0  0  0  0  0  0  0  0  0  0
   40.4050   33.0610   44.8560 C   0  0  0  0  0  0  0  0  0  0  0  0
   39.7820   31.9620   44.2770 C   0  0  0  0  0  0  0  0  0  0  0  0
   39.3950   32.7770   47.9300 H   0  0  0  0  0  0  0  0  0  0  0  0
   40.7300   34.2040   46.5630 H   0  0  0  0  0  0  0  0  0  0  0  0
   41.0520   33.7070   44.2350 H   0  0  0  0  0  0  0  0  0  0  0  0
   40.0550   31.7600   42.9200 O   0  0  0  0  0  0  0  0  0  0  0  0
   39.2810   32.3480   41.9270 C   0  0  0  0  0  0  0  0  0  0  0  0
   38.8300   33.6120   41.5490 C   0  0  0  0  0  0  0  0  0  0  0  0
   39.1580   34.4120   42.1960 H   0  0  0  0  0  0  0  0  0  0  0  0
   38.0730   33.4170   40.4120 C   0  0  0  0  0  0  0  0  0  0  0  0
   37.6310   34.2900   39.9610 H   0  0  0  0  0  0  0  0  0  0  0  0
   38.0680   32.1120   40.1210 N   0  0  0  0  0  0  0  0  0  0  0  0
   37.5450   31.7320   39.2810 H   0  0  0  0  0  0  0  0  0  0  0  0
   38.7870   31.4620   41.0200 N   0  0  0  0  0  0  0  0  0  0  0  0
   36.6360   31.0000   47.6400 C   0  0  0  0  0  0  0  0  0  0  0  0
   36.9540   31.6490   48.5170 H   0  0  0  0  0  0  0  0  0  0  0  0
   36.1380   31.7270   46.9670 H   0  0  0  0  0  0  0  0  0  0  0  0
   35.7010   29.6140   49.4360 C   0  0  0  0  0  0  0  0  0  0  0  0
   35.6950   30.0500   48.1400 C   0  0  0  0  0  0  0  0  0  0  0  0
   34.7520   29.4410   47.3790 C   0  0  0  0  0  0  0  0  0  0  0  0
   33.9120   28.5090   47.8360 N   0  0  0  0  0  0  0  0  0  0  0  0
   33.9240   28.0890   49.0850 C   0  0  0  0  0  0  0  0  0  0  0  0
   34.8190   28.6360   49.9070 N   0  0  0  0  0  0  0  0  0  0  0  0
   34.6210   29.6860   46.3130 H   0  0  0  0  0  0  0  0  0  0  0  0
   33.3200   27.3540   49.6010 H   0  0  0  0  0  0  0  0  0  0  0  0
   36.5770   30.2940   50.4910 C   0  0  0  0  0  0  0  0  0  0  0  0
   36.8910   29.7120   51.7080 C   0  0  0  0  0  0  0  0  0  0  0  0
   37.8900   29.4040   50.6000 C   0  0  0  0  0  0  0  0  0  0  0  0
   36.8540   31.3030   50.3330 H   0  0  0  0  0  0  0  0  0  0  0  0
   36.2750   28.8270   52.0580 H   0  0  0  0  0  0  0  0  0  0  0  0
   37.3000   30.2440   52.5650 H   0  0  0  0  0  0  0  0  0  0  0  0
   37.8580   28.3970   50.2100 H   0  0  0  0  0  0  0  0  0  0  0  0
   38.8240   29.9950   50.5740 H   0  0  0  0  0  0  0  0  0  0  0  0
  1 23  1  0  0  0  0
  1  2  1  0  0  0  0
  3  1  1  0  0  0  0
  4  5  1  0  0  0  0
  5  6  1  0  0  0  0
  6  7  2  0  0  0  0
  6  1  1  0  0  0  0
  7 11  1  0  0  0  0
  8 12  1  0  0  0  0
  8  7  1  0  0  0  0
  9  8  2  0  0  0  0
 10  9  1  0  0  0  0
 10  5  2  0  0  0  0
 13  9  1  0  0  0  0
 14 10  1  0  0  0  0
 15 14  1  0  0  0  0
 16 15  1  0  0  0  0
 16 17  1  0  0  0  0
 18 16  2  0  0  0  0
 19 18  1  0  0  0  0
 20 18  1  0  0  0  0
 20 22  1  0  0  0  0
 21 20  1  0  0  0  0
 22 15  2  0  0  0  0
 23 27  1  0  0  0  0
 23 24  1  0  0  0  0
 25 23  1  0  0  0  0
 26 31  1  0  0  0  0
 26 34  1  0  0  0  0
 27 26  2  0  0  0  0
 28 29  2  0  0  0  0
 28 27  1  0  0  0  0
 29 30  1  0  0  0  0
 30 33  1  0  0  0  0
 30 31  2  0  0  0  0
 32 28  1  0  0  0  0
 34 36  1  0  0  0  0
 34 35  1  0  0  0  0
 35 38  1  0  0  0  0
 35 39  1  0  0  0  0
 36 35  1  0  0  0  0
 37 34  1  0  0  0  0
 40 36  1  0  0  0  0
 41 36  1  0  0  0  0
M  END
>  <minimizedAffinity>
-5.87269354

>  <minimizedRMSD>
4.13121748

$$$$
