
 OpenBabel03272507523D

 31 33  0  0  0  0  0  0  0  0999 V2000
   36.5540   31.2510   48.6640 N   0  0  0  0  0  0  0  0  0  0  0  0
   36.7530   32.1110   49.6570 C   0  0  0  0  0  0  0  0  0  0  0  0
   37.8180   33.0090   49.5980 C   0  0  0  0  0  0  0  0  0  0  0  0
   38.5830   32.9140   48.4760 C   0  0  0  0  0  0  0  0  0  0  0  0
   39.5540   33.7290   48.4140 O   0  0  0  0  0  0  0  0  0  0  0  0
   38.4200   32.0730   47.4620 N   0  0  0  0  0  0  0  0  0  0  0  0
   37.3720   31.2170   47.5660 C   0  0  0  0  0  0  0  0  0  0  0  0
   37.1950   30.3990   46.6040 O   0  0  0  0  0  0  0  0  0  0  0  0
   36.0880   32.1120   50.5150 H   0  0  0  0  0  0  0  0  0  0  0  0
   37.9790   33.7020   50.3980 H   0  0  0  0  0  0  0  0  0  0  0  0
   39.2840   32.0540   46.3260 C   0  0  0  0  0  0  0  0  0  0  0  0
   39.4050   32.7940   45.1480 C   0  0  0  0  0  0  0  0  0  0  0  0
   38.7010   33.6000   44.9920 H   0  0  0  0  0  0  0  0  0  0  0  0
   40.4750   32.2360   44.4770 C   0  0  0  0  0  0  0  0  0  0  0  0
   40.7630   32.6570   43.5110 H   0  0  0  0  0  0  0  0  0  0  0  0
   40.9820   31.2160   45.1910 N   0  0  0  0  0  0  0  0  0  0  0  0
   41.7990   30.6370   44.8860 H   0  0  0  0  0  0  0  0  0  0  0  0
   40.2590   31.1230   46.2920 N   0  0  0  0  0  0  0  0  0  0  0  0
   35.2780   29.5520   49.8420 C   0  0  0  0  0  0  0  0  0  0  0  0
   35.4810   30.2970   48.6640 C   0  0  0  0  0  0  0  0  0  0  0  0
   34.6440   30.0750   47.5630 C   0  0  0  0  0  0  0  0  0  0  0  0
   33.6680   29.1380   47.6930 N   0  0  0  0  0  0  0  0  0  0  0  0
   33.4790   28.4380   48.8010 C   0  0  0  0  0  0  0  0  0  0  0  0
   34.2760   28.6450   49.8640 N   0  0  0  0  0  0  0  0  0  0  0  0
   34.8290   30.6620   46.6800 H   0  0  0  0  0  0  0  0  0  0  0  0
   32.6950   27.6960   48.8860 H   0  0  0  0  0  0  0  0  0  0  0  0
   37.3470   29.2140   51.3850 C   0  0  0  0  0  0  0  0  0  0  0  0
   38.0550   28.5460   50.5980 O   0  0  0  0  0  0  0  0  0  0  0  0
   36.0530   29.7080   51.0110 N   0  0  0  0  0  0  0  0  0  0  0  0
   37.7840   29.3840   52.3540 H   0  0  0  0  0  0  0  0  0  0  0  0
   35.6510   30.2960   51.7990 H   0  0  0  0  0  0  0  0  0  0  0  0
  1  2  1  0  0  0  0
  2  9  1  0  0  0  0
  3  2  2  0  0  0  0
  3 10  1  0  0  0  0
  4  3  1  0  0  0  0
  5  4  2  0  0  0  0
  6  7  1  0  0  0  0
  6  4  1  0  0  0  0
  7  1  1  0  0  0  0
  8  7  2  0  0  0  0
 11  6  1  0  0  0  0
 12 11  1  0  0  0  0
 13 12  1  0  0  0  0
 14 12  2  0  0  0  0
 14 16  1  0  0  0  0
 15 14  1  0  0  0  0
 16 18  1  0  0  0  0
 17 16  1  0  0  0  0
 18 11  2  0  0  0  0
 19 24  1  0  0  0  0
 19 29  1  0  0  0  0
 20  1  1  0  0  0  0
 20 19  2  0  0  0  0
 21 22  2  0  0  0  0
 21 20  1  0  0  0  0
 22 23  1  0  0  0  0
 23 26  1  0  0  0  0
 23 24  2  0  0  0  0
 25 21  1  0  0  0  0
 27 30  1  0  0  0  0
 28 27  2  0  0  0  0
 29 27  1  0  0  0  0
 29 31  1  0  0  0  0
M  END
>  <minimizedAffinity>
-6.5088048

>  <minimizedRMSD>
1.09639096

$$$$
