
 OpenBabel03272510113D

 34 37  0  0  0  0  0  0  0  0999 V2000
   33.4890   28.4900   48.4380 C   0  0  0  0  0  0  0  0  0  0  0  0
   33.9580   28.3550   49.6960 C   0  0  0  0  0  0  0  0  0  0  0  0
   35.1960   28.7860   50.1270 C   0  0  0  0  0  0  0  0  0  0  0  0
   36.0390   29.4010   49.2430 C   0  0  0  0  0  0  0  0  0  0  0  0
   35.5510   29.5380   47.9380 C   0  0  0  0  0  0  0  0  0  0  0  0
   34.3390   29.1040   47.5650 N   0  0  0  0  0  0  0  0  0  0  0  0
   33.3640   27.8820   50.4670 H   0  0  0  0  0  0  0  0  0  0  0  0
   35.5630   28.6760   51.1320 H   0  0  0  0  0  0  0  0  0  0  0  0
   36.1840   30.0210   47.1960 H   0  0  0  0  0  0  0  0  0  0  0  0
   31.1860   27.5560   48.8650 C   0  0  0  0  0  0  0  0  0  0  0  0
   32.1950   28.0340   48.0060 C   0  0  0  0  0  0  0  0  0  0  0  0
   31.8810   28.0510   46.6530 C   0  0  0  0  0  0  0  0  0  0  0  0
   30.6580   27.6230   46.2210 N   0  0  0  0  0  0  0  0  0  0  0  0
   29.7410   27.1780   47.0990 C   0  0  0  0  0  0  0  0  0  0  0  0
   29.9900   27.1390   48.4230 N   0  0  0  0  0  0  0  0  0  0  0  0
   31.4100   27.5330   49.9230 H   0  0  0  0  0  0  0  0  0  0  0  0
   32.6430   28.4150   45.9710 H   0  0  0  0  0  0  0  0  0  0  0  0
   28.8470   26.8880   46.5580 H   0  0  0  0  0  0  0  0  0  0  0  0
   37.3150   29.8950   49.4990 O   0  0  0  0  0  0  0  0  0  0  0  0
   37.9100   30.8440   48.6670 C   0  0  0  0  0  0  0  0  0  0  0  0
   38.2430   32.0270   49.3370 C   0  0  0  0  0  0  0  0  0  0  0  0
   38.8260   32.8920   48.4140 C   0  0  0  0  0  0  0  0  0  0  0  0
   38.8240   32.2200   47.2550 N   0  0  0  0  0  0  0  0  0  0  0  0
   38.2920   31.0320   47.4040 N   0  0  0  0  0  0  0  0  0  0  0  0
   38.1520   32.4040   50.3680 H   0  0  0  0  0  0  0  0  0  0  0  0
   39.2360   33.8910   48.4420 H   0  0  0  0  0  0  0  0  0  0  0  0
   39.2930   32.6040   45.9650 C   0  0  0  0  0  0  0  0  0  0  0  0
   40.4660   33.0190   45.3670 C   0  0  0  0  0  0  0  0  0  0  0  0
   41.3230   33.0950   46.0230 H   0  0  0  0  0  0  0  0  0  0  0  0
   40.1590   33.2210   44.0320 C   0  0  0  0  0  0  0  0  0  0  0  0
   40.9590   33.5540   43.3800 H   0  0  0  0  0  0  0  0  0  0  0  0
   38.8510   32.9340   43.8470 N   0  0  0  0  0  0  0  0  0  0  0  0
   38.4090   33.0230   42.8900 H   0  0  0  0  0  0  0  0  0  0  0  0
   38.3320   32.5660   45.0010 N   0  0  0  0  0  0  0  0  0  0  0  0
  1  2  1  0  0  0  0
  2  3  2  0  0  0  0
  2  7  1  0  0  0  0
  3  8  1  0  0  0  0
  4 19  1  0  0  0  0
  4  3  1  0  0  0  0
  5  4  2  0  0  0  0
  6  5  1  0  0  0  0
  6  1  2  0  0  0  0
  9  5  1  0  0  0  0
 10 16  1  0  0  0  0
 11  1  1  0  0  0  0
 11 10  2  0  0  0  0
 12 11  1  0  0  0  0
 13 12  2  0  0  0  0
 13 14  1  0  0  0  0
 14 15  2  0  0  0  0
 15 10  1  0  0  0  0
 17 12  1  0  0  0  0
 18 14  1  0  0  0  0
 20 21  1  0  0  0  0
 20 19  1  0  0  0  0
 21 25  1  0  0  0  0
 22 26  1  0  0  0  0
 22 21  2  0  0  0  0
 23 24  1  0  0  0  0
 23 22  1  0  0  0  0
 24 20  2  0  0  0  0
 27 23  1  0  0  0  0
 28 27  1  0  0  0  0
 28 29  1  0  0  0  0
 30 28  2  0  0  0  0
 31 30  1  0  0  0  0
 32 30  1  0  0  0  0
 32 34  1  0  0  0  0
 33 32  1  0  0  0  0
 34 27  2  0  0  0  0
M  END
>  <minimizedAffinity>
-6.1881094

>  <minimizedRMSD>
1.14460397

$$$$
