
 OpenBabel03272507533D

 31 33  0  0  0  0  0  0  0  0999 V2000
   39.3450   23.8400   34.8070 N   0  0  0  0  0  0  0  0  0  0  0  0
   39.1450   25.1530   34.8470 C   0  0  0  0  0  0  0  0  0  0  0  0
   38.1840   25.7360   34.0230 C   0  0  0  0  0  0  0  0  0  0  0  0
   37.5130   24.8640   33.2220 C   0  0  0  0  0  0  0  0  0  0  0  0
   36.6360   25.3870   32.4690 O   0  0  0  0  0  0  0  0  0  0  0  0
   37.6800   23.5480   33.1500 N   0  0  0  0  0  0  0  0  0  0  0  0
   38.6270   23.0270   33.9700 C   0  0  0  0  0  0  0  0  0  0  0  0
   38.8070   21.7660   33.9190 O   0  0  0  0  0  0  0  0  0  0  0  0
   39.7310   25.7710   35.5220 H   0  0  0  0  0  0  0  0  0  0  0  0
   38.0220   26.7940   34.0550 H   0  0  0  0  0  0  0  0  0  0  0  0
   36.9220   22.7190   32.2710 C   0  0  0  0  0  0  0  0  0  0  0  0
   35.6060   22.6980   31.8010 C   0  0  0  0  0  0  0  0  0  0  0  0
   34.9390   23.4750   32.1510 H   0  0  0  0  0  0  0  0  0  0  0  0
   35.5390   21.6030   30.9630 C   0  0  0  0  0  0  0  0  0  0  0  0
   34.5900   21.3800   30.4700 H   0  0  0  0  0  0  0  0  0  0  0  0
   36.7320   20.9860   30.9160 N   0  0  0  0  0  0  0  0  0  0  0  0
   36.9280   20.1300   30.3460 H   0  0  0  0  0  0  0  0  0  0  0  0
   37.5450   21.6670   31.7020 N   0  0  0  0  0  0  0  0  0  0  0  0
   39.8600   22.5490   36.7990 C   0  0  0  0  0  0  0  0  0  0  0  0
   40.3210   23.1760   35.6250 C   0  0  0  0  0  0  0  0  0  0  0  0
   41.6860   23.1290   35.3160 C   0  0  0  0  0  0  0  0  0  0  0  0
   42.5050   22.4710   36.1800 N   0  0  0  0  0  0  0  0  0  0  0  0
   42.0700   21.8820   37.2830 C   0  0  0  0  0  0  0  0  0  0  0  0
   40.7610   21.9210   37.5880 N   0  0  0  0  0  0  0  0  0  0  0  0
   42.0010   23.6190   34.4110 H   0  0  0  0  0  0  0  0  0  0  0  0
   42.7380   21.3620   37.9590 H   0  0  0  0  0  0  0  0  0  0  0  0
   37.7330   23.3830   38.0470 C   0  0  0  0  0  0  0  0  0  0  0  0
   38.2160   24.4160   38.5620 O   0  0  0  0  0  0  0  0  0  0  0  0
   38.5060   22.5250   37.1950 N   0  0  0  0  0  0  0  0  0  0  0  0
   36.7020   23.1940   38.2930 H   0  0  0  0  0  0  0  0  0  0  0  0
   37.8920   21.7440   36.8190 H   0  0  0  0  0  0  0  0  0  0  0  0
  1  2  1  0  0  0  0
  1 20  1  0  0  0  0
  2  9  1  0  0  0  0
  3 10  1  0  0  0  0
  3  2  2  0  0  0  0
  4  3  1  0  0  0  0
  5  4  2  0  0  0  0
  6  4  1  0  0  0  0
  6  7  1  0  0  0  0
  7  1  1  0  0  0  0
  8  7  2  0  0  0  0
 11  6  1  0  0  0  0
 12 13  1  0  0  0  0
 12 11  1  0  0  0  0
 14 12  2  0  0  0  0
 15 14  1  0  0  0  0
 16 14  1  0  0  0  0
 16 18  1  0  0  0  0
 17 16  1  0  0  0  0
 18 11  2  0  0  0  0
 19 29  1  0  0  0  0
 19 24  1  0  0  0  0
 20 19  2  0  0  0  0
 21 20  1  0  0  0  0
 21 22  2  0  0  0  0
 22 23  1  0  0  0  0
 23 24  2  0  0  0  0
 23 26  1  0  0  0  0
 25 21  1  0  0  0  0
 27 30  1  0  0  0  0
 27 28  2  0  0  0  0
 29 27  1  0  0  0  0
 31 29  1  0  0  0  0
M  END
>  <minimizedAffinity>
-5.34319067

$$$$

 OpenBabel03272507533D

 31 33  0  0  0  0  0  0  0  0999 V2000
   38.9860   23.0320   34.2340 N   0  0  0  0  0  0  0  0  0  0  0  0
   38.4550   22.1810   33.3640 C   0  0  0  0  0  0  0  0  0  0  0  0
   37.4540   22.6080   32.4930 C   0  0  0  0  0  0  0  0  0  0  0  0
   37.1030   23.9170   32.6250 C   0  0  0  0  0  0  0  0  0  0  0  0
   36.1930   24.3150   31.8350 O   0  0  0  0  0  0  0  0  0  0  0  0
   37.6070   24.8010   33.4780 N   0  0  0  0  0  0  0  0  0  0  0  0
   38.5770   24.3370   34.3060 C   0  0  0  0  0  0  0  0  0  0  0  0
   39.0760   25.1680   35.1350 O   0  0  0  0  0  0  0  0  0  0  0  0
   38.8000   21.1510   33.3320 H   0  0  0  0  0  0  0  0  0  0  0  0
   37.0250   21.9230   31.7920 H   0  0  0  0  0  0  0  0  0  0  0  0
   37.1670   26.1570   33.5370 C   0  0  0  0  0  0  0  0  0  0  0  0
   36.7450   27.1140   32.6100 C   0  0  0  0  0  0  0  0  0  0  0  0
   36.7200   26.8220   31.5690 H   0  0  0  0  0  0  0  0  0  0  0  0
   36.4600   28.2400   33.3570 C   0  0  0  0  0  0  0  0  0  0  0  0
   36.1060   29.1340   32.8380 H   0  0  0  0  0  0  0  0  0  0  0  0
   36.6910   27.9990   34.6590 N   0  0  0  0  0  0  0  0  0  0  0  0
   36.5480   28.7030   35.4200 H   0  0  0  0  0  0  0  0  0  0  0  0
   37.1120   26.7500   34.7470 N   0  0  0  0  0  0  0  0  0  0  0  0
   39.6270   22.3980   36.4900 C   0  0  0  0  0  0  0  0  0  0  0  0
   40.0160   22.6560   35.1610 C   0  0  0  0  0  0  0  0  0  0  0  0
   41.3670   22.5410   34.8100 C   0  0  0  0  0  0  0  0  0  0  0  0
   42.2430   22.1820   35.7870 N   0  0  0  0  0  0  0  0  0  0  0  0
   41.8750   21.9410   37.0350 C   0  0  0  0  0  0  0  0  0  0  0  0
   40.5810   22.0470   37.3820 N   0  0  0  0  0  0  0  0  0  0  0  0
   41.6270   22.7460   33.7860 H   0  0  0  0  0  0  0  0  0  0  0  0
   42.5880   21.6550   37.8000 H   0  0  0  0  0  0  0  0  0  0  0  0
   37.6320   23.3510   37.8650 C   0  0  0  0  0  0  0  0  0  0  0  0
   38.2230   24.3140   38.4020 O   0  0  0  0  0  0  0  0  0  0  0  0
   38.2930   22.4710   36.9440 N   0  0  0  0  0  0  0  0  0  0  0  0
   36.5990   23.2380   38.1480 H   0  0  0  0  0  0  0  0  0  0  0  0
   37.5990   21.7630   36.5630 H   0  0  0  0  0  0  0  0  0  0  0  0
  1  7  1  0  0  0  0
  1 20  1  0  0  0  0
  2  1  1  0  0  0  0
  3  4  1  0  0  0  0
  3  2  2  0  0  0  0
  4  6  1  0  0  0  0
  5  4  2  0  0  0  0
  6 11  1  0  0  0  0
  6  7  1  0  0  0  0
  7  8  2  0  0  0  0
  9  2  1  0  0  0  0
 10  3  1  0  0  0  0
 11 18  2  0  0  0  0
 12 14  2  0  0  0  0
 12 11  1  0  0  0  0
 13 12  1  0  0  0  0
 14 16  1  0  0  0  0
 15 14  1  0  0  0  0
 16 18  1  0  0  0  0
 16 17  1  0  0  0  0
 19 29  1  0  0  0  0
 19 24  1  0  0  0  0
 20 19  2  0  0  0  0
 21 20  1  0  0  0  0
 21 22  2  0  0  0  0
 22 23  1  0  0  0  0
 23 24  2  0  0  0  0
 23 26  1  0  0  0  0
 25 21  1  0  0  0  0
 27 30  1  0  0  0  0
 27 28  2  0  0  0  0
 29 27  1  0  0  0  0
 31 29  1  0  0  0  0
M  END
>  <minimizedAffinity>
-5.31985569

$$$$

 OpenBabel03272507533D

 31 33  0  0  0  0  0  0  0  0999 V2000
   36.1120   26.4690   31.7170 N   0  0  0  0  0  0  0  0  0  0  0  0
   35.4610   25.5330   31.0350 C   0  0  0  0  0  0  0  0  0  0  0  0
   35.7260   24.1860   31.2750 C   0  0  0  0  0  0  0  0  0  0  0  0
   36.6680   23.9500   32.2290 C   0  0  0  0  0  0  0  0  0  0  0  0
   36.9150   22.7250   32.4540 O   0  0  0  0  0  0  0  0  0  0  0  0
   37.3400   24.8520   32.9340 N   0  0  0  0  0  0  0  0  0  0  0  0
   37.0490   26.1500   32.6640 C   0  0  0  0  0  0  0  0  0  0  0  0
   37.6820   27.0360   33.3280 O   0  0  0  0  0  0  0  0  0  0  0  0
   34.7240   25.8180   30.2900 H   0  0  0  0  0  0  0  0  0  0  0  0
   35.2020   23.4310   30.7250 H   0  0  0  0  0  0  0  0  0  0  0  0
   38.3130   24.4980   33.9160 C   0  0  0  0  0  0  0  0  0  0  0  0
   38.4580   23.4790   34.8590 C   0  0  0  0  0  0  0  0  0  0  0  0
   37.6730   22.7360   34.9150 H   0  0  0  0  0  0  0  0  0  0  0  0
   39.6560   23.7400   35.4950 C   0  0  0  0  0  0  0  0  0  0  0  0
   39.9860   23.0640   36.2860 H   0  0  0  0  0  0  0  0  0  0  0  0
   40.2160   24.8490   34.9790 N   0  0  0  0  0  0  0  0  0  0  0  0
   41.1300   25.2470   35.3000 H   0  0  0  0  0  0  0  0  0  0  0  0
   39.4010   25.2870   34.0380 N   0  0  0  0  0  0  0  0  0  0  0  0
   36.5830   28.4920   30.4580 C   0  0  0  0  0  0  0  0  0  0  0  0
   35.8900   27.8740   31.5170 C   0  0  0  0  0  0  0  0  0  0  0  0
   35.0360   28.6430   32.3170 C   0  0  0  0  0  0  0  0  0  0  0  0
   34.9200   29.9650   32.0230 N   0  0  0  0  0  0  0  0  0  0  0  0
   35.5710   30.5460   31.0270 C   0  0  0  0  0  0  0  0  0  0  0  0
   36.3940   29.8160   30.2530 N   0  0  0  0  0  0  0  0  0  0  0  0
   34.5240   28.1360   33.1170 H   0  0  0  0  0  0  0  0  0  0  0  0
   35.4660   31.6010   30.8080 H   0  0  0  0  0  0  0  0  0  0  0  0
   38.8610   27.5280   29.6480 C   0  0  0  0  0  0  0  0  0  0  0  0
   39.5580   27.8530   30.6340 O   0  0  0  0  0  0  0  0  0  0  0  0
   37.4550   27.8070   29.5860 N   0  0  0  0  0  0  0  0  0  0  0  0
   39.3960   27.0270   28.8590 H   0  0  0  0  0  0  0  0  0  0  0  0
   37.0450   27.3970   28.6960 H   0  0  0  0  0  0  0  0  0  0  0  0
  1  7  1  0  0  0  0
  2  3  2  0  0  0  0
  2  1  1  0  0  0  0
  3  4  1  0  0  0  0
  4  5  2  0  0  0  0
  4  6  1  0  0  0  0
  6 11  1  0  0  0  0
  7  6  1  0  0  0  0
  7  8  2  0  0  0  0
  9  2  1  0  0  0  0
 10  3  1  0  0  0  0
 11 18  2  0  0  0  0
 11 12  1  0  0  0  0
 12 13  1  0  0  0  0
 12 14  2  0  0  0  0
 14 15  1  0  0  0  0
 16 17  1  0  0  0  0
 16 14  1  0  0  0  0
 18 16  1  0  0  0  0
 19 20  1  0  0  0  0
 20  1  1  0  0  0  0
 20 21  2  0  0  0  0
 21 25  1  0  0  0  0
 22 21  1  0  0  0  0
 23 22  2  0  0  0  0
 24 19  2  0  0  0  0
 24 23  1  0  0  0  0
 26 23  1  0  0  0  0
 27 28  2  0  0  0  0
 29 27  1  0  0  0  0
 29 19  1  0  0  0  0
 30 27  1  0  0  0  0
 31 29  1  0  0  0  0
M  END
>  <minimizedAffinity>
-5.12727022

$$$$

 OpenBabel03272507533D

 31 33  0  0  0  0  0  0  0  0999 V2000
   40.1040   24.6780   34.8170 N   0  0  0  0  0  0  0  0  0  0  0  0
   40.5920   25.9120   34.8950 C   0  0  0  0  0  0  0  0  0  0  0  0
   40.0400   26.9290   34.1190 C   0  0  0  0  0  0  0  0  0  0  0  0
   39.0060   26.5430   33.3220 C   0  0  0  0  0  0  0  0  0  0  0  0
   38.4970   27.4640   32.6130 O   0  0  0  0  0  0  0  0  0  0  0  0
   38.4880   25.3250   33.2140 N   0  0  0  0  0  0  0  0  0  0  0  0
   39.0590   24.3680   33.9880 C   0  0  0  0  0  0  0  0  0  0  0  0
   38.5790   23.1900   33.9010 O   0  0  0  0  0  0  0  0  0  0  0  0
   41.4220   26.1260   35.5620 H   0  0  0  0  0  0  0  0  0  0  0  0
   40.4330   27.9230   34.1810 H   0  0  0  0  0  0  0  0  0  0  0  0
   37.3990   25.0230   32.3430 C   0  0  0  0  0  0  0  0  0  0  0  0
   36.2420   25.6820   31.9200 C   0  0  0  0  0  0  0  0  0  0  0  0
   36.0640   26.6760   32.3100 H   0  0  0  0  0  0  0  0  0  0  0  0
   35.6170   24.8020   31.0590 C   0  0  0  0  0  0  0  0  0  0  0  0
   34.6760   25.1050   30.5940 H   0  0  0  0  0  0  0  0  0  0  0  0
   36.3380   23.6720   30.9560 N   0  0  0  0  0  0  0  0  0  0  0  0
   36.0650   22.8560   30.3590 H   0  0  0  0  0  0  0  0  0  0  0  0
   37.3970   23.8220   31.7290 N   0  0  0  0  0  0  0  0  0  0  0  0
   39.9480   23.2420   36.7700 C   0  0  0  0  0  0  0  0  0  0  0  0
   40.6290   23.5840   35.5850 C   0  0  0  0  0  0  0  0  0  0  0  0
   41.7680   22.8570   35.2170 C   0  0  0  0  0  0  0  0  0  0  0  0
   42.1620   21.8470   36.0370 N   0  0  0  0  0  0  0  0  0  0  0  0
   41.5220   21.5270   37.1510 C   0  0  0  0  0  0  0  0  0  0  0  0
   40.4270   22.2180   37.5120 N   0  0  0  0  0  0  0  0  0  0  0  0
   42.2610   23.1470   34.3060 H   0  0  0  0  0  0  0  0  0  0  0  0
   41.8510   20.7180   37.7920 H   0  0  0  0  0  0  0  0  0  0  0  0
   37.3980   23.5350   37.2000 C   0  0  0  0  0  0  0  0  0  0  0  0
   37.0110   22.4250   36.7690 O   0  0  0  0  0  0  0  0  0  0  0  0
   38.7850   23.8990   37.2240 N   0  0  0  0  0  0  0  0  0  0  0  0
   36.6130   24.1840   37.5480 H   0  0  0  0  0  0  0  0  0  0  0  0
   38.8990   24.8520   37.6810 H   0  0  0  0  0  0  0  0  0  0  0  0
  1  2  1  0  0  0  0
  1 20  1  0  0  0  0
  2  9  1  0  0  0  0
  3 10  1  0  0  0  0
  3  2  2  0  0  0  0
  4  3  1  0  0  0  0
  5  4  2  0  0  0  0
  6  4  1  0  0  0  0
  6  7  1  0  0  0  0
  7  1  1  0  0  0  0
  8  7  2  0  0  0  0
 11  6  1  0  0  0  0
 12 13  1  0  0  0  0
 12 11  1  0  0  0  0
 14 12  2  0  0  0  0
 15 14  1  0  0  0  0
 16 14  1  0  0  0  0
 16 18  1  0  0  0  0
 17 16  1  0  0  0  0
 18 11  2  0  0  0  0
 19 29  1  0  0  0  0
 19 24  1  0  0  0  0
 20 19  2  0  0  0  0
 21 20  1  0  0  0  0
 21 22  2  0  0  0  0
 22 23  1  0  0  0  0
 23 24  2  0  0  0  0
 23 26  1  0  0  0  0
 25 21  1  0  0  0  0
 27 29  1  0  0  0  0
 27 30  1  0  0  0  0
 28 27  2  0  0  0  0
 29 31  1  0  0  0  0
M  END
>  <minimizedAffinity>
-5.12725163

$$$$

 OpenBabel03272507533D

 31 33  0  0  0  0  0  0  0  0999 V2000
   38.9710   24.9940   32.7770 N   0  0  0  0  0  0  0  0  0  0  0  0
   40.0270   25.6510   32.3100 C   0  0  0  0  0  0  0  0  0  0  0  0
   41.2370   25.6070   33.0010 C   0  0  0  0  0  0  0  0  0  0  0  0
   41.2180   24.8570   34.1370 C   0  0  0  0  0  0  0  0  0  0  0  0
   42.3160   24.8100   34.7720 O   0  0  0  0  0  0  0  0  0  0  0  0
   40.1890   24.1840   34.6390 N   0  0  0  0  0  0  0  0  0  0  0  0
   39.0330   24.2600   33.9320 C   0  0  0  0  0  0  0  0  0  0  0  0
   38.0290   23.6220   34.3930 O   0  0  0  0  0  0  0  0  0  0  0  0
   39.9460   26.2250   31.3920 H   0  0  0  0  0  0  0  0  0  0  0  0
   42.0880   26.1370   32.6260 H   0  0  0  0  0  0  0  0  0  0  0  0
   40.2740   23.4250   35.8440 C   0  0  0  0  0  0  0  0  0  0  0  0
   41.2450   22.6350   36.4630 C   0  0  0  0  0  0  0  0  0  0  0  0
   42.1960   22.5270   35.9580 H   0  0  0  0  0  0  0  0  0  0  0  0
   40.6590   22.1880   37.6310 C   0  0  0  0  0  0  0  0  0  0  0  0
   41.2390   21.5410   38.2920 H   0  0  0  0  0  0  0  0  0  0  0  0
   39.4070   22.6690   37.7290 N   0  0  0  0  0  0  0  0  0  0  0  0
   38.7630   22.4680   38.5290 H   0  0  0  0  0  0  0  0  0  0  0  0
   39.1960   23.4060   36.6540 N   0  0  0  0  0  0  0  0  0  0  0  0
   36.8870   26.1410   32.2900 C   0  0  0  0  0  0  0  0  0  0  0  0
   37.6950   25.0010   32.1180 C   0  0  0  0  0  0  0  0  0  0  0  0
   37.2260   23.9420   31.3300 C   0  0  0  0  0  0  0  0  0  0  0  0
   35.9960   24.0750   30.7660 N   0  0  0  0  0  0  0  0  0  0  0  0
   35.2370   25.1470   30.9290 C   0  0  0  0  0  0  0  0  0  0  0  0
   35.6790   26.1690   31.6830 N   0  0  0  0  0  0  0  0  0  0  0  0
   37.8720   23.0880   31.2220 H   0  0  0  0  0  0  0  0  0  0  0  0
   34.2590   25.2340   30.4710 H   0  0  0  0  0  0  0  0  0  0  0  0
   37.2420   27.5360   34.4590 C   0  0  0  0  0  0  0  0  0  0  0  0
   36.8790   26.6750   35.2910 O   0  0  0  0  0  0  0  0  0  0  0  0
   37.2690   27.2670   33.0500 N   0  0  0  0  0  0  0  0  0  0  0  0
   37.5280   28.4840   34.8820 H   0  0  0  0  0  0  0  0  0  0  0  0
   37.6630   28.1060   32.5310 H   0  0  0  0  0  0  0  0  0  0  0  0
  1  7  1  0  0  0  0
  2  1  1  0  0  0  0
  2  3  2  0  0  0  0
  3  4  1  0  0  0  0
  4  6  1  0  0  0  0
  4  5  2  0  0  0  0
  6 11  1  0  0  0  0
  7  8  2  0  0  0  0
  7  6  1  0  0  0  0
  9  2  1  0  0  0  0
 10  3  1  0  0  0  0
 11 12  1  0  0  0  0
 11 18  2  0  0  0  0
 12 14  2  0  0  0  0
 13 12  1  0  0  0  0
 14 16  1  0  0  0  0
 14 15  1  0  0  0  0
 16 17  1  0  0  0  0
 18 16  1  0  0  0  0
 19 29  1  0  0  0  0
 20 19  1  0  0  0  0
 20  1  1  0  0  0  0
 21 20  2  0  0  0  0
 22 23  2  0  0  0  0
 22 21  1  0  0  0  0
 23 24  1  0  0  0  0
 24 19  2  0  0  0  0
 25 21  1  0  0  0  0
 26 23  1  0  0  0  0
 27 30  1  0  0  0  0
 27 28  2  0  0  0  0
 29 27  1  0  0  0  0
 31 29  1  0  0  0  0
M  END
>  <minimizedAffinity>
-5.10797882

$$$$

 OpenBabel03272507533D

 31 33  0  0  0  0  0  0  0  0999 V2000
   38.1500   23.8090   34.6530 N   0  0  0  0  0  0  0  0  0  0  0  0
   38.3720   24.9360   33.9870 C   0  0  0  0  0  0  0  0  0  0  0  0
   38.1290   24.9950   32.6160 C   0  0  0  0  0  0  0  0  0  0  0  0
   37.6660   23.8380   32.0680 C   0  0  0  0  0  0  0  0  0  0  0  0
   37.4410   23.8830   30.8200 O   0  0  0  0  0  0  0  0  0  0  0  0
   37.4290   22.6910   32.6940 N   0  0  0  0  0  0  0  0  0  0  0  0
   37.6820   22.6830   34.0270 C   0  0  0  0  0  0  0  0  0  0  0  0
   37.4630   21.5930   34.6520 O   0  0  0  0  0  0  0  0  0  0  0  0
   38.7440   25.8120   34.5110 H   0  0  0  0  0  0  0  0  0  0  0  0
   38.3080   25.9030   32.0780 H   0  0  0  0  0  0  0  0  0  0  0  0
   36.9410   21.5300   32.0240 C   0  0  0  0  0  0  0  0  0  0  0  0
   36.0530   21.2780   30.9760 C   0  0  0  0  0  0  0  0  0  0  0  0
   35.5790   22.1310   30.5080 H   0  0  0  0  0  0  0  0  0  0  0  0
   36.0390   19.9050   30.8340 C   0  0  0  0  0  0  0  0  0  0  0  0
   35.4050   19.4650   30.0620 H   0  0  0  0  0  0  0  0  0  0  0  0
   36.8640   19.3420   31.7350 N   0  0  0  0  0  0  0  0  0  0  0  0
   37.0220   18.3110   31.8220 H   0  0  0  0  0  0  0  0  0  0  0  0
   37.3940   20.3280   32.4360 N   0  0  0  0  0  0  0  0  0  0  0  0
   39.5590   23.0160   36.4660 C   0  0  0  0  0  0  0  0  0  0  0  0
   38.3830   23.6790   36.0640 C   0  0  0  0  0  0  0  0  0  0  0  0
   37.5070   24.1700   37.0400 C   0  0  0  0  0  0  0  0  0  0  0  0
   37.8440   23.9750   38.3430 N   0  0  0  0  0  0  0  0  0  0  0  0
   38.9490   23.3510   38.7200 C   0  0  0  0  0  0  0  0  0  0  0  0
   39.7970   22.8770   37.7900 N   0  0  0  0  0  0  0  0  0  0  0  0
   36.6190   24.6700   36.6950 H   0  0  0  0  0  0  0  0  0  0  0  0
   39.2000   23.2060   39.7630 H   0  0  0  0  0  0  0  0  0  0  0  0
   41.6350   23.0910   34.8990 C   0  0  0  0  0  0  0  0  0  0  0  0
   41.9770   24.2780   35.1050 O   0  0  0  0  0  0  0  0  0  0  0  0
   40.5130   22.4970   35.5660 N   0  0  0  0  0  0  0  0  0  0  0  0
   42.2460   22.5610   34.1890 H   0  0  0  0  0  0  0  0  0  0  0  0
   40.4350   21.4730   35.2950 H   0  0  0  0  0  0  0  0  0  0  0  0
  1 20  1  0  0  0  0
  2  9  1  0  0  0  0
  2  1  1  0  0  0  0
  3  2  2  0  0  0  0
  4  3  1  0  0  0  0
  4  6  1  0  0  0  0
  5  4  2  0  0  0  0
  6  7  1  0  0  0  0
  7  8  2  0  0  0  0
  7  1  1  0  0  0  0
 10  3  1  0  0  0  0
 11 18  2  0  0  0  0
 11  6  1  0  0  0  0
 12 11  1  0  0  0  0
 13 12  1  0  0  0  0
 14 12  2  0  0  0  0
 14 16  1  0  0  0  0
 15 14  1  0  0  0  0
 16 17  1  0  0  0  0
 16 18  1  0  0  0  0
 19 24  1  0  0  0  0
 20 19  2  0  0  0  0
 20 21  1  0  0  0  0
 21 22  2  0  0  0  0
 22 23  1  0  0  0  0
 23 26  1  0  0  0  0
 24 23  2  0  0  0  0
 25 21  1  0  0  0  0
 27 28  2  0  0  0  0
 27 29  1  0  0  0  0
 29 19  1  0  0  0  0
 30 27  1  0  0  0  0
 31 29  1  0  0  0  0
M  END
>  <minimizedAffinity>
-5.06874132

$$$$

 OpenBabel03272507533D

 31 33  0  0  0  0  0  0  0  0999 V2000
   37.6470   26.7270   32.0620 N   0  0  0  0  0  0  0  0  0  0  0  0
   37.8420   26.5530   33.3640 C   0  0  0  0  0  0  0  0  0  0  0  0
   37.2080   27.3900   34.2810 C   0  0  0  0  0  0  0  0  0  0  0  0
   36.4130   28.3460   33.7270 C   0  0  0  0  0  0  0  0  0  0  0  0
   35.8310   29.1120   34.5540 O   0  0  0  0  0  0  0  0  0  0  0  0
   36.1900   28.5540   32.4340 N   0  0  0  0  0  0  0  0  0  0  0  0
   36.8300   27.7150   31.5810 C   0  0  0  0  0  0  0  0  0  0  0  0
   36.6320   27.8950   30.3340 O   0  0  0  0  0  0  0  0  0  0  0  0
   38.4960   25.7600   33.7150 H   0  0  0  0  0  0  0  0  0  0  0  0
   37.3650   27.2510   35.3310 H   0  0  0  0  0  0  0  0  0  0  0  0
   35.3350   29.5910   31.9540 C   0  0  0  0  0  0  0  0  0  0  0  0
   34.1410   30.1800   32.3770 C   0  0  0  0  0  0  0  0  0  0  0  0
   33.6970   29.8070   33.2910 H   0  0  0  0  0  0  0  0  0  0  0  0
   33.8560   31.1430   31.4290 C   0  0  0  0  0  0  0  0  0  0  0  0
   32.9530   31.7450   31.5500 H   0  0  0  0  0  0  0  0  0  0  0  0
   34.8090   31.1490   30.4800 N   0  0  0  0  0  0  0  0  0  0  0  0
   34.8110   31.7940   29.6560 H   0  0  0  0  0  0  0  0  0  0  0  0
   35.6830   30.2170   30.8110 N   0  0  0  0  0  0  0  0  0  0  0  0
   37.7080   24.6340   30.8290 C   0  0  0  0  0  0  0  0  0  0  0  0
   38.2720   25.9030   31.0650 C   0  0  0  0  0  0  0  0  0  0  0  0
   39.3990   26.2970   30.3330 C   0  0  0  0  0  0  0  0  0  0  0  0
   39.8960   25.4180   29.4220 N   0  0  0  0  0  0  0  0  0  0  0  0
   39.3650   24.2260   29.2010 C   0  0  0  0  0  0  0  0  0  0  0  0
   38.2820   23.8390   29.8980 N   0  0  0  0  0  0  0  0  0  0  0  0
   39.8030   27.2730   30.5410 H   0  0  0  0  0  0  0  0  0  0  0  0
   39.7750   23.5390   28.4700 H   0  0  0  0  0  0  0  0  0  0  0  0
   35.1630   24.3930   31.3240 C   0  0  0  0  0  0  0  0  0  0  0  0
   34.7280   25.1190   30.4030 O   0  0  0  0  0  0  0  0  0  0  0  0
   36.5660   24.1470   31.5000 N   0  0  0  0  0  0  0  0  0  0  0  0
   34.4080   23.9730   31.9660 H   0  0  0  0  0  0  0  0  0  0  0  0
   36.7140   23.4610   32.2980 H   0  0  0  0  0  0  0  0  0  0  0  0
  1  2  1  0  0  0  0
  2  9  1  0  0  0  0
  2  3  2  0  0  0  0
  3 10  1  0  0  0  0
  4  3  1  0  0  0  0
  4  5  2  0  0  0  0
  6  4  1  0  0  0  0
  7  1  1  0  0  0  0
  7  6  1  0  0  0  0
  8  7  2  0  0  0  0
 11 12  1  0  0  0  0
 11  6  1  0  0  0  0
 12 13  1  0  0  0  0
 14 15  1  0  0  0  0
 14 12  2  0  0  0  0
 16 18  1  0  0  0  0
 16 14  1  0  0  0  0
 17 16  1  0  0  0  0
 18 11  2  0  0  0  0
 19 20  1  0  0  0  0
 19 29  1  0  0  0  0
 20  1  1  0  0  0  0
 21 25  1  0  0  0  0
 21 20  2  0  0  0  0
 22 21  1  0  0  0  0
 23 22  2  0  0  0  0
 23 24  1  0  0  0  0
 24 19  2  0  0  0  0
 26 23  1  0  0  0  0
 27 29  1  0  0  0  0
 27 30  1  0  0  0  0
 28 27  2  0  0  0  0
 29 31  1  0  0  0  0
M  END
>  <minimizedAffinity>
-5.00978756

$$$$

 OpenBabel03272507533D

 31 33  0  0  0  0  0  0  0  0999 V2000
   35.4390   29.1890   33.0720 N   0  0  0  0  0  0  0  0  0  0  0  0
   35.9020   28.4680   34.0870 C   0  0  0  0  0  0  0  0  0  0  0  0
   37.0460   27.6900   33.9250 C   0  0  0  0  0  0  0  0  0  0  0  0
   37.6050   27.7480   32.6840 C   0  0  0  0  0  0  0  0  0  0  0  0
   38.6480   27.0430   32.5280 O   0  0  0  0  0  0  0  0  0  0  0  0
   37.1770   28.4530   31.6440 N   0  0  0  0  0  0  0  0  0  0  0  0
   36.0590   29.1940   31.8510 C   0  0  0  0  0  0  0  0  0  0  0  0
   35.6280   29.8800   30.8660 O   0  0  0  0  0  0  0  0  0  0  0  0
   35.3870   28.4850   35.0440 H   0  0  0  0  0  0  0  0  0  0  0  0
   37.4200   27.1090   34.7420 H   0  0  0  0  0  0  0  0  0  0  0  0
   37.8380   28.4450   30.3790 C   0  0  0  0  0  0  0  0  0  0  0  0
   39.1640   28.3800   29.9430 C   0  0  0  0  0  0  0  0  0  0  0  0
   39.9350   28.3210   30.6990 H   0  0  0  0  0  0  0  0  0  0  0  0
   39.0940   28.4150   28.5640 C   0  0  0  0  0  0  0  0  0  0  0  0
   40.0240   28.3760   27.9920 H   0  0  0  0  0  0  0  0  0  0  0  0
   37.8100   28.4960   28.1720 N   0  0  0  0  0  0  0  0  0  0  0  0
   37.5050   28.5360   27.1710 H   0  0  0  0  0  0  0  0  0  0  0  0
   37.0760   28.5120   29.2690 N   0  0  0  0  0  0  0  0  0  0  0  0
   34.4120   31.2830   33.7510 C   0  0  0  0  0  0  0  0  0  0  0  0
   34.2640   30.0080   33.1700 C   0  0  0  0  0  0  0  0  0  0  0  0
   32.9990   29.6020   32.7280 C   0  0  0  0  0  0  0  0  0  0  0  0
   31.9670   30.4740   32.8850 N   0  0  0  0  0  0  0  0  0  0  0  0
   32.1080   31.6710   33.4310 C   0  0  0  0  0  0  0  0  0  0  0  0
   33.3190   32.0710   33.8590 N   0  0  0  0  0  0  0  0  0  0  0  0
   32.9230   28.6220   32.2900 H   0  0  0  0  0  0  0  0  0  0  0  0
   31.2740   32.3530   33.5480 H   0  0  0  0  0  0  0  0  0  0  0  0
   36.1610   32.0150   35.5350 C   0  0  0  0  0  0  0  0  0  0  0  0
   35.5240   31.6880   36.5610 O   0  0  0  0  0  0  0  0  0  0  0  0
   35.6430   31.7940   34.2150 N   0  0  0  0  0  0  0  0  0  0  0  0
   37.1190   32.4700   35.7220 H   0  0  0  0  0  0  0  0  0  0  0  0
   36.3640   32.0870   33.4920 H   0  0  0  0  0  0  0  0  0  0  0  0
  1 20  1  0  0  0  0
  1  2  1  0  0  0  0
  2  9  1  0  0  0  0
  3  2  2  0  0  0  0
  3 10  1  0  0  0  0
  4  3  1  0  0  0  0
  5  4  2  0  0  0  0
  6  7  1  0  0  0  0
  6  4  1  0  0  0  0
  7  1  1  0  0  0  0
  8  7  2  0  0  0  0
 11  6  1  0  0  0  0
 12 11  1  0  0  0  0
 12 13  1  0  0  0  0
 14 12  2  0  0  0  0
 15 14  1  0  0  0  0
 16 14  1  0  0  0  0
 16 18  1  0  0  0  0
 17 16  1  0  0  0  0
 18 11  2  0  0  0  0
 19 24  1  0  0  0  0
 19 29  1  0  0  0  0
 20 19  2  0  0  0  0
 21 22  2  0  0  0  0
 21 20  1  0  0  0  0
 22 23  1  0  0  0  0
 23 26  1  0  0  0  0
 23 24  2  0  0  0  0
 25 21  1  0  0  0  0
 27 30  1  0  0  0  0
 27 28  2  0  0  0  0
 29 27  1  0  0  0  0
 31 29  1  0  0  0  0
M  END
>  <minimizedAffinity>
-4.97643423

$$$$

 OpenBabel03272507533D

 31 33  0  0  0  0  0  0  0  0999 V2000
   35.5390   30.1840   33.4050 N   0  0  0  0  0  0  0  0  0  0  0  0
   35.5350   30.8210   32.2390 C   0  0  0  0  0  0  0  0  0  0  0  0
   35.9270   30.1540   31.0800 C   0  0  0  0  0  0  0  0  0  0  0  0
   36.2920   28.8550   31.2640 C   0  0  0  0  0  0  0  0  0  0  0  0
   36.6500   28.2400   30.2140 O   0  0  0  0  0  0  0  0  0  0  0  0
   36.3110   28.1810   32.4080 N   0  0  0  0  0  0  0  0  0  0  0  0
   35.9220   28.8730   33.5080 C   0  0  0  0  0  0  0  0  0  0  0  0
   35.9310   28.2470   34.6200 O   0  0  0  0  0  0  0  0  0  0  0  0
   35.2270   31.8610   32.1900 H   0  0  0  0  0  0  0  0  0  0  0  0
   35.9240   30.6660   30.1400 H   0  0  0  0  0  0  0  0  0  0  0  0
   36.7130   26.8150   32.4940 C   0  0  0  0  0  0  0  0  0  0  0  0
   36.5830   25.6800   31.6900 C   0  0  0  0  0  0  0  0  0  0  0  0
   36.0560   25.7920   30.7510 H   0  0  0  0  0  0  0  0  0  0  0  0
   37.2150   24.6680   32.3850 C   0  0  0  0  0  0  0  0  0  0  0  0
   37.2420   23.6690   31.9440 H   0  0  0  0  0  0  0  0  0  0  0  0
   37.7040   25.1430   33.5440 N   0  0  0  0  0  0  0  0  0  0  0  0
   38.2240   24.5630   34.2420 H   0  0  0  0  0  0  0  0  0  0  0  0
   37.3950   26.4260   33.5910 N   0  0  0  0  0  0  0  0  0  0  0  0
   33.8530   30.5470   35.1160 C   0  0  0  0  0  0  0  0  0  0  0  0
   35.1510   30.8130   34.6370 C   0  0  0  0  0  0  0  0  0  0  0  0
   35.9880   31.6650   35.3670 C   0  0  0  0  0  0  0  0  0  0  0  0
   35.4940   32.2000   36.5160 N   0  0  0  0  0  0  0  0  0  0  0  0
   34.2750   31.9500   36.9650 C   0  0  0  0  0  0  0  0  0  0  0  0
   33.4630   31.1320   36.2710 N   0  0  0  0  0  0  0  0  0  0  0  0
   36.9720   31.8450   34.9700 H   0  0  0  0  0  0  0  0  0  0  0  0
   33.8990   32.3850   37.8830 H   0  0  0  0  0  0  0  0  0  0  0  0
   32.0150   29.9070   33.3880 C   0  0  0  0  0  0  0  0  0  0  0  0
   31.9430   31.0000   32.7840 O   0  0  0  0  0  0  0  0  0  0  0  0
   32.9370   29.6940   34.4660 N   0  0  0  0  0  0  0  0  0  0  0  0
   31.3350   29.1490   33.0370 H   0  0  0  0  0  0  0  0  0  0  0  0
   32.8770   28.6860   34.7970 H   0  0  0  0  0  0  0  0  0  0  0  0
  1  7  1  0  0  0  0
  1 20  1  0  0  0  0
  2  1  1  0  0  0  0
  3  4  1  0  0  0  0
  3  2  2  0  0  0  0
  4  6  1  0  0  0  0
  5  4  2  0  0  0  0
  6 11  1  0  0  0  0
  6  7  1  0  0  0  0
  7  8  2  0  0  0  0
  9  2  1  0  0  0  0
 10  3  1  0  0  0  0
 11 18  2  0  0  0  0
 12 14  2  0  0  0  0
 12 11  1  0  0  0  0
 13 12  1  0  0  0  0
 14 16  1  0  0  0  0
 15 14  1  0  0  0  0
 16 18  1  0  0  0  0
 16 17  1  0  0  0  0
 19 24  1  0  0  0  0
 20 19  2  0  0  0  0
 20 21  1  0  0  0  0
 21 22  2  0  0  0  0
 22 23  1  0  0  0  0
 23 26  1  0  0  0  0
 24 23  2  0  0  0  0
 25 21  1  0  0  0  0
 27 29  1  0  0  0  0
 28 27  2  0  0  0  0
 29 31  1  0  0  0  0
 29 19  1  0  0  0  0
 30 27  1  0  0  0  0
M  END
>  <minimizedAffinity>
-4.96910429

$$$$
