
 OpenBabel03272508023D

 27 29  0  0  0  0  0  0  0  0999 V2000
   38.8530   30.7660   45.6450 C   0  0  0  0  0  0  0  0  0  0  0  0
   39.9800   31.5290   45.7620 C   0  0  0  0  0  0  0  0  0  0  0  0
   40.8180   31.3360   44.6660 C   0  0  0  0  0  0  0  0  0  0  0  0
   40.1390   30.4370   43.9120 N   0  0  0  0  0  0  0  0  0  0  0  0
   38.9870   30.0970   44.4780 N   0  0  0  0  0  0  0  0  0  0  0  0
   40.2540   32.2090   46.5590 H   0  0  0  0  0  0  0  0  0  0  0  0
   41.7580   31.7180   44.3650 H   0  0  0  0  0  0  0  0  0  0  0  0
   40.4170   29.8050   42.6640 C   0  0  0  0  0  0  0  0  0  0  0  0
   40.8750   30.2300   41.4240 C   0  0  0  0  0  0  0  0  0  0  0  0
   41.0960   31.2710   41.2950 H   0  0  0  0  0  0  0  0  0  0  0  0
   40.9160   29.0870   40.6530 C   0  0  0  0  0  0  0  0  0  0  0  0
   41.2530   29.1610   39.6080 H   0  0  0  0  0  0  0  0  0  0  0  0
   40.5090   28.0190   41.3660 N   0  0  0  0  0  0  0  0  0  0  0  0
   40.4550   27.0430   40.9940 H   0  0  0  0  0  0  0  0  0  0  0  0
   40.2060   28.4650   42.5920 N   0  0  0  0  0  0  0  0  0  0  0  0
   37.7330   30.6840   46.5830 C   0  0  0  0  0  0  0  0  0  0  0  0
   37.9940   30.9560   47.9500 C   0  0  0  0  0  0  0  0  0  0  0  0
   36.9410   30.8820   48.8520 C   0  0  0  0  0  0  0  0  0  0  0  0
   35.7090   30.5460   48.3540 N   0  0  0  0  0  0  0  0  0  0  0  0
   35.4870   30.2920   47.0540 C   0  0  0  0  0  0  0  0  0  0  0  0
   36.5140   30.3650   46.1760 N   0  0  0  0  0  0  0  0  0  0  0  0
   39.0080   31.2180   48.2670 H   0  0  0  0  0  0  0  0  0  0  0  0
   34.5240   30.0300   46.6650 H   0  0  0  0  0  0  0  0  0  0  0  0
   37.1890   31.1630   50.2860 C   0  0  0  0  0  0  0  0  0  0  0  0
   36.6830   32.4140   50.5190 F   0  0  0  0  0  0  0  0  0  0  0  0
   36.5450   30.2510   51.1220 F   0  0  0  0  0  0  0  0  0  0  0  0
   38.5520   31.1730   50.5810 F   0  0  0  0  0  0  0  0  0  0  0  0
  1  2  1  0  0  0  0
  1 16  1  0  0  0  0
  2  6  1  0  0  0  0
  3  2  2  0  0  0  0
  4  5  1  0  0  0  0
  4  3  1  0  0  0  0
  5  1  2  0  0  0  0
  7  3  1  0  0  0  0
  8  4  1  0  0  0  0
  9  8  1  0  0  0  0
 10  9  1  0  0  0  0
 11 13  1  0  0  0  0
 11  9  2  0  0  0  0
 12 11  1  0  0  0  0
 13 15  1  0  0  0  0
 14 13  1  0  0  0  0
 15  8  2  0  0  0  0
 16 17  1  0  0  0  0
 17 22  1  0  0  0  0
 17 18  2  0  0  0  0
 18 24  1  0  0  0  0
 19 18  1  0  0  0  0
 20 19  2  0  0  0  0
 21 16  2  0  0  0  0
 21 20  1  0  0  0  0
 23 20  1  0  0  0  0
 24 25  1  0  0  0  0
 24 27  1  0  0  0  0
 24 26  1  0  0  0  0
M  END
>  <minimizedAffinity>
-6.02601576

>  <minimizedRMSD>
0.943925261

$$$$
