
 OpenBabel03272501593D

 30 32  0  0  0  0  0  0  0  0999 V2000
   37.2780   23.4640   31.5470 C   0  0  0  0  0  0  0  0  0  0  0  0
   37.9440   22.7370   31.0780 H   0  0  0  0  0  0  0  0  0  0  0  0
   37.3450   24.4480   30.9980 H   0  0  0  0  0  0  0  0  0  0  0  0
   37.7800   23.7910   32.9300 C   0  0  0  0  0  0  0  0  0  0  0  0
   37.7130   25.0200   33.5460 C   0  0  0  0  0  0  0  0  0  0  0  0
   38.2660   24.9750   34.8130 C   0  0  0  0  0  0  0  0  0  0  0  0
   38.6650   23.6720   34.9300 N   0  0  0  0  0  0  0  0  0  0  0  0
   38.3790   22.9940   33.8330 N   0  0  0  0  0  0  0  0  0  0  0  0
   37.2770   25.8970   33.0750 H   0  0  0  0  0  0  0  0  0  0  0  0
   38.3540   25.7780   35.5260 H   0  0  0  0  0  0  0  0  0  0  0  0
   39.3040   23.1420   36.0950 C   0  0  0  0  0  0  0  0  0  0  0  0
   40.5590   22.5610   36.1850 C   0  0  0  0  0  0  0  0  0  0  0  0
   41.2350   22.4260   35.3680 H   0  0  0  0  0  0  0  0  0  0  0  0
   40.6830   22.2240   37.5360 C   0  0  0  0  0  0  0  0  0  0  0  0
   41.5640   21.7390   37.9600 H   0  0  0  0  0  0  0  0  0  0  0  0
   39.5530   22.5920   38.2060 N   0  0  0  0  0  0  0  0  0  0  0  0
   39.3650   22.4630   39.2320 H   0  0  0  0  0  0  0  0  0  0  0  0
   38.7330   23.1450   37.3150 N   0  0  0  0  0  0  0  0  0  0  0  0
   35.8580   23.0230   31.7060 C   0  0  0  0  0  0  0  0  0  0  0  0
   35.4180   23.4720   32.6450 H   0  0  0  0  0  0  0  0  0  0  0  0
   35.1990   23.3620   30.8930 H   0  0  0  0  0  0  0  0  0  0  0  0
   35.3630   19.7000   33.2540 C   0  0  0  0  0  0  0  0  0  0  0  0
   35.6790   18.8200   32.2010 C   0  0  0  0  0  0  0  0  0  0  0  0
   36.0610   19.4000   30.9660 C   0  0  0  0  0  0  0  0  0  0  0  0
   36.0930   20.7490   30.8890 N   0  0  0  0  0  0  0  0  0  0  0  0
   35.7800   21.5500   31.9290 C   0  0  0  0  0  0  0  0  0  0  0  0
   35.4230   21.0250   33.0870 N   0  0  0  0  0  0  0  0  0  0  0  0
   35.0600   19.3030   34.2320 H   0  0  0  0  0  0  0  0  0  0  0  0
   35.6320   17.7470   32.3340 H   0  0  0  0  0  0  0  0  0  0  0  0
   36.3120   18.7610   30.1340 H   0  0  0  0  0  0  0  0  0  0  0  0
  1 19  1  0  0  0  0
  1  4  1  0  0  0  0
  2  1  1  0  0  0  0
  3  1  1  0  0  0  0
  4  5  1  0  0  0  0
  4  8  2  0  0  0  0
  5  6  2  0  0  0  0
  6  7  1  0  0  0  0
  6 10  1  0  0  0  0
  7 11  1  0  0  0  0
  8  7  1  0  0  0  0
  9  5  1  0  0  0  0
 11 12  1  0  0  0  0
 11 18  2  0  0  0  0
 12 14  2  0  0  0  0
 13 12  1  0  0  0  0
 14 15  1  0  0  0  0
 14 16  1  0  0  0  0
 16 17  1  0  0  0  0
 18 16  1  0  0  0  0
 19 26  1  0  0  0  0
 19 20  1  0  0  0  0
 21 19  1  0  0  0  0
 22 28  1  0  0  0  0
 23 29  1  0  0  0  0
 23 22  2  0  0  0  0
 24 23  1  0  0  0  0
 25 24  2  0  0  0  0
 25 26  1  0  0  0  0
 26 27  2  0  0  0  0
 27 22  1  0  0  0  0
 30 24  1  0  0  0  0
M  END
>  <minimizedAffinity>
-5.01225376

$$$$

 OpenBabel03272501593D

 30 32  0  0  0  0  0  0  0  0999 V2000
   36.9260   26.3940   32.7140 C   0  0  0  0  0  0  0  0  0  0  0  0
   36.2150   25.6100   32.4460 H   0  0  0  0  0  0  0  0  0  0  0  0
   37.8080   26.3620   32.0090 H   0  0  0  0  0  0  0  0  0  0  0  0
   37.5330   26.0900   34.0600 C   0  0  0  0  0  0  0  0  0  0  0  0
   37.7350   26.9930   35.0780 C   0  0  0  0  0  0  0  0  0  0  0  0
   38.3130   26.3840   36.1780 C   0  0  0  0  0  0  0  0  0  0  0  0
   38.4450   25.0840   35.7770 N   0  0  0  0  0  0  0  0  0  0  0  0
   37.9900   24.9230   34.5480 N   0  0  0  0  0  0  0  0  0  0  0  0
   37.4690   28.0440   35.0020 H   0  0  0  0  0  0  0  0  0  0  0  0
   38.5860   26.8360   37.1170 H   0  0  0  0  0  0  0  0  0  0  0  0
   39.0060   24.0540   36.5990 C   0  0  0  0  0  0  0  0  0  0  0  0
   40.1200   23.2730   36.3400 C   0  0  0  0  0  0  0  0  0  0  0  0
   40.7250   23.3370   35.4610 H   0  0  0  0  0  0  0  0  0  0  0  0
   40.2210   22.4420   37.4580 C   0  0  0  0  0  0  0  0  0  0  0  0
   41.0010   21.6880   37.5830 H   0  0  0  0  0  0  0  0  0  0  0  0
   39.2130   22.7240   38.3330 N   0  0  0  0  0  0  0  0  0  0  0  0
   39.0400   22.2570   39.2580 H   0  0  0  0  0  0  0  0  0  0  0  0
   38.4910   23.7030   37.7920 N   0  0  0  0  0  0  0  0  0  0  0  0
   36.3530   27.7730   32.8100 C   0  0  0  0  0  0  0  0  0  0  0  0
   35.2250   27.7190   32.8410 H   0  0  0  0  0  0  0  0  0  0  0  0
   36.6380   28.3030   33.7310 H   0  0  0  0  0  0  0  0  0  0  0  0
   37.2910   28.7290   29.3620 C   0  0  0  0  0  0  0  0  0  0  0  0
   37.1770   30.1320   29.3900 C   0  0  0  0  0  0  0  0  0  0  0  0
   36.7740   30.7240   30.6130 C   0  0  0  0  0  0  0  0  0  0  0  0
   36.5300   29.9030   31.6580 N   0  0  0  0  0  0  0  0  0  0  0  0
   36.6530   28.5610   31.5800 C   0  0  0  0  0  0  0  0  0  0  0  0
   37.0280   27.9930   30.4480 N   0  0  0  0  0  0  0  0  0  0  0  0
   37.5990   28.2190   28.4400 H   0  0  0  0  0  0  0  0  0  0  0  0
   37.3890   30.7300   28.5130 H   0  0  0  0  0  0  0  0  0  0  0  0
   36.6750   31.7960   30.6780 H   0  0  0  0  0  0  0  0  0  0  0  0
  1 19  1  0  0  0  0
  1  4  1  0  0  0  0
  2  1  1  0  0  0  0
  3  1  1  0  0  0  0
  4  8  2  0  0  0  0
  4  5  1  0  0  0  0
  5  6  2  0  0  0  0
  6 10  1  0  0  0  0
  7  6  1  0  0  0  0
  7 11  1  0  0  0  0
  8  7  1  0  0  0  0
  9  5  1  0  0  0  0
 11 18  2  0  0  0  0
 12 11  1  0  0  0  0
 12 14  2  0  0  0  0
 13 12  1  0  0  0  0
 14 15  1  0  0  0  0
 14 16  1  0  0  0  0
 16 17  1  0  0  0  0
 18 16  1  0  0  0  0
 19 20  1  0  0  0  0
 19 21  1  0  0  0  0
 22 23  2  0  0  0  0
 22 27  1  0  0  0  0
 23 24  1  0  0  0  0
 24 30  1  0  0  0  0
 24 25  2  0  0  0  0
 26 25  1  0  0  0  0
 26 19  1  0  0  0  0
 27 26  2  0  0  0  0
 28 22  1  0  0  0  0
 29 23  1  0  0  0  0
M  END
>  <minimizedAffinity>
-4.9598217

$$$$

 OpenBabel03272501593D

 30 32  0  0  0  0  0  0  0  0999 V2000
   38.4730   24.9210   33.4270 C   0  0  0  0  0  0  0  0  0  0  0  0
   38.6850   25.7380   32.7330 H   0  0  0  0  0  0  0  0  0  0  0  0
   39.4020   24.2950   33.5700 H   0  0  0  0  0  0  0  0  0  0  0  0
   37.4910   23.9650   32.7980 C   0  0  0  0  0  0  0  0  0  0  0  0
   36.4950   24.2990   31.9090 C   0  0  0  0  0  0  0  0  0  0  0  0
   35.7730   23.1820   31.5270 C   0  0  0  0  0  0  0  0  0  0  0  0
   36.3780   22.1710   32.2210 N   0  0  0  0  0  0  0  0  0  0  0  0
   37.3720   22.6350   32.9550 N   0  0  0  0  0  0  0  0  0  0  0  0
   36.3180   25.3150   31.5680 H   0  0  0  0  0  0  0  0  0  0  0  0
   34.9390   23.1340   30.8460 H   0  0  0  0  0  0  0  0  0  0  0  0
   35.9660   20.8020   32.1440 C   0  0  0  0  0  0  0  0  0  0  0  0
   35.5220   19.9890   33.1740 C   0  0  0  0  0  0  0  0  0  0  0  0
   35.4270   20.2880   34.1970 H   0  0  0  0  0  0  0  0  0  0  0  0
   35.2560   18.7660   32.5540 C   0  0  0  0  0  0  0  0  0  0  0  0
   34.8860   17.8860   33.0840 H   0  0  0  0  0  0  0  0  0  0  0  0
   35.5310   18.8570   31.2210 N   0  0  0  0  0  0  0  0  0  0  0  0
   35.4260   18.0940   30.5070 H   0  0  0  0  0  0  0  0  0  0  0  0
   35.9600   20.0980   30.9960 N   0  0  0  0  0  0  0  0  0  0  0  0
   37.8830   25.3310   34.7390 C   0  0  0  0  0  0  0  0  0  0  0  0
   38.1920   26.3890   34.9860 H   0  0  0  0  0  0  0  0  0  0  0  0
   36.7830   25.3490   34.7380 H   0  0  0  0  0  0  0  0  0  0  0  0
   40.0120   23.0620   36.7390 C   0  0  0  0  0  0  0  0  0  0  0  0
   39.3600   23.0480   37.9860 C   0  0  0  0  0  0  0  0  0  0  0  0
   38.1850   23.8320   38.1110 C   0  0  0  0  0  0  0  0  0  0  0  0
   37.7790   24.5310   37.0290 N   0  0  0  0  0  0  0  0  0  0  0  0
   38.4410   24.5120   35.8520 C   0  0  0  0  0  0  0  0  0  0  0  0
   39.5370   23.7860   35.7200 N   0  0  0  0  0  0  0  0  0  0  0  0
   40.9270   22.4730   36.5880 H   0  0  0  0  0  0  0  0  0  0  0  0
   39.7420   22.4630   38.8130 H   0  0  0  0  0  0  0  0  0  0  0  0
   37.6550   23.8480   39.0500 H   0  0  0  0  0  0  0  0  0  0  0  0
  1  3  1  0  0  0  0
  1 19  1  0  0  0  0
  2  1  1  0  0  0  0
  4  8  2  0  0  0  0
  4  1  1  0  0  0  0
  5  4  1  0  0  0  0
  6  5  2  0  0  0  0
  6  7  1  0  0  0  0
  7  8  1  0  0  0  0
  9  5  1  0  0  0  0
 10  6  1  0  0  0  0
 11  7  1  0  0  0  0
 11 12  1  0  0  0  0
 12 13  1  0  0  0  0
 14 15  1  0  0  0  0
 14 12  2  0  0  0  0
 16 14  1  0  0  0  0
 17 16  1  0  0  0  0
 18 16  1  0  0  0  0
 18 11  2  0  0  0  0
 19 20  1  0  0  0  0
 19 26  1  0  0  0  0
 21 19  1  0  0  0  0
 22 23  1  0  0  0  0
 23 24  2  0  0  0  0
 23 29  1  0  0  0  0
 24 30  1  0  0  0  0
 25 24  1  0  0  0  0
 26 25  2  0  0  0  0
 27 26  1  0  0  0  0
 27 22  2  0  0  0  0
 28 22  1  0  0  0  0
M  END
>  <minimizedAffinity>
-4.93736839

$$$$

 OpenBabel03272501593D

 30 32  0  0  0  0  0  0  0  0999 V2000
   36.9150   26.4540   32.8090 C   0  0  0  0  0  0  0  0  0  0  0  0
   35.8280   26.4860   32.9080 H   0  0  0  0  0  0  0  0  0  0  0  0
   37.2100   25.5810   32.1570 H   0  0  0  0  0  0  0  0  0  0  0  0
   37.5350   26.1290   34.1440 C   0  0  0  0  0  0  0  0  0  0  0  0
   37.7490   27.0170   35.1740 C   0  0  0  0  0  0  0  0  0  0  0  0
   38.3370   26.3900   36.2580 C   0  0  0  0  0  0  0  0  0  0  0  0
   38.4640   25.0960   35.8360 N   0  0  0  0  0  0  0  0  0  0  0  0
   37.9970   24.9550   34.6090 N   0  0  0  0  0  0  0  0  0  0  0  0
   37.4830   28.0690   35.1170 H   0  0  0  0  0  0  0  0  0  0  0  0
   38.6200   26.8280   37.2020 H   0  0  0  0  0  0  0  0  0  0  0  0
   39.0320   24.0540   36.6370 C   0  0  0  0  0  0  0  0  0  0  0  0
   40.1430   23.2760   36.3550 C   0  0  0  0  0  0  0  0  0  0  0  0
   40.7400   23.3530   35.4710 H   0  0  0  0  0  0  0  0  0  0  0  0
   40.2550   22.4280   37.4590 C   0  0  0  0  0  0  0  0  0  0  0  0
   41.0350   21.6710   37.5650 H   0  0  0  0  0  0  0  0  0  0  0  0
   39.2560   22.6970   38.3490 N   0  0  0  0  0  0  0  0  0  0  0  0
   39.0920   22.2170   39.2680 H   0  0  0  0  0  0  0  0  0  0  0  0
   38.5290   23.6850   37.8300 N   0  0  0  0  0  0  0  0  0  0  0  0
   37.5540   27.7240   32.3440 C   0  0  0  0  0  0  0  0  0  0  0  0
   38.1640   28.1770   33.1810 H   0  0  0  0  0  0  0  0  0  0  0  0
   38.2680   27.5800   31.5190 H   0  0  0  0  0  0  0  0  0  0  0  0
   35.7740   30.6210   30.8880 C   0  0  0  0  0  0  0  0  0  0  0  0
   34.5390   30.5950   31.5640 C   0  0  0  0  0  0  0  0  0  0  0  0
   34.3460   29.5650   32.5190 C   0  0  0  0  0  0  0  0  0  0  0  0
   35.3560   28.6890   32.7100 N   0  0  0  0  0  0  0  0  0  0  0  0
   36.5240   28.7560   32.0350 C   0  0  0  0  0  0  0  0  0  0  0  0
   36.7200   29.7100   31.1430 N   0  0  0  0  0  0  0  0  0  0  0  0
   35.9760   31.3980   30.1380 H   0  0  0  0  0  0  0  0  0  0  0  0
   33.7720   31.3310   31.3610 H   0  0  0  0  0  0  0  0  0  0  0  0
   33.4150   29.5100   33.0590 H   0  0  0  0  0  0  0  0  0  0  0  0
  1  2  1  0  0  0  0
  1  4  1  0  0  0  0
  3  1  1  0  0  0  0
  4  8  2  0  0  0  0
  4  5  1  0  0  0  0
  5  6  2  0  0  0  0
  6 10  1  0  0  0  0
  7  6  1  0  0  0  0
  7 11  1  0  0  0  0
  8  7  1  0  0  0  0
  9  5  1  0  0  0  0
 11 18  2  0  0  0  0
 12 11  1  0  0  0  0
 12 14  2  0  0  0  0
 13 12  1  0  0  0  0
 14 15  1  0  0  0  0
 14 16  1  0  0  0  0
 16 17  1  0  0  0  0
 18 16  1  0  0  0  0
 19  1  1  0  0  0  0
 19 20  1  0  0  0  0
 21 19  1  0  0  0  0
 22 27  2  0  0  0  0
 22 23  1  0  0  0  0
 23 24  2  0  0  0  0
 24 25  1  0  0  0  0
 24 30  1  0  0  0  0
 26 19  1  0  0  0  0
 26 25  2  0  0  0  0
 27 26  1  0  0  0  0
 28 22  1  0  0  0  0
 29 23  1  0  0  0  0
M  END
>  <minimizedAffinity>
-4.9364624

$$$$

 OpenBabel03272501593D

 30 32  0  0  0  0  0  0  0  0999 V2000
   37.6850   25.5560   32.0850 C   0  0  0  0  0  0  0  0  0  0  0  0
   36.6390   25.6020   31.7760 H   0  0  0  0  0  0  0  0  0  0  0  0
   38.3100   25.1380   31.2430 H   0  0  0  0  0  0  0  0  0  0  0  0
   37.8430   24.5390   33.1870 C   0  0  0  0  0  0  0  0  0  0  0  0
   37.6520   23.1820   33.0680 C   0  0  0  0  0  0  0  0  0  0  0  0
   37.8790   22.5380   34.2720 C   0  0  0  0  0  0  0  0  0  0  0  0
   38.2140   23.5640   35.1120 N   0  0  0  0  0  0  0  0  0  0  0  0
   38.1910   24.7200   34.4740 N   0  0  0  0  0  0  0  0  0  0  0  0
   37.3580   22.7020   32.1380 H   0  0  0  0  0  0  0  0  0  0  0  0
   37.8070   21.4840   34.4830 H   0  0  0  0  0  0  0  0  0  0  0  0
   38.5420   23.3810   36.4930 C   0  0  0  0  0  0  0  0  0  0  0  0
   37.9030   23.9220   37.5960 C   0  0  0  0  0  0  0  0  0  0  0  0
   37.0540   24.5710   37.5590 H   0  0  0  0  0  0  0  0  0  0  0  0
   38.6220   23.4240   38.6860 C   0  0  0  0  0  0  0  0  0  0  0  0
   38.3840   23.6580   39.7260 H   0  0  0  0  0  0  0  0  0  0  0  0
   39.6360   22.6270   38.2420 N   0  0  0  0  0  0  0  0  0  0  0  0
   40.3370   22.1190   38.8360 H   0  0  0  0  0  0  0  0  0  0  0  0
   39.5680   22.6150   36.9120 N   0  0  0  0  0  0  0  0  0  0  0  0
   38.2570   26.8360   32.6060 C   0  0  0  0  0  0  0  0  0  0  0  0
   38.6440   26.6850   33.6570 H   0  0  0  0  0  0  0  0  0  0  0  0
   39.1230   27.1960   32.0320 H   0  0  0  0  0  0  0  0  0  0  0  0
   35.8240   29.5300   31.8920 C   0  0  0  0  0  0  0  0  0  0  0  0
   35.2310   29.7500   33.1500 C   0  0  0  0  0  0  0  0  0  0  0  0
   35.6890   28.9540   34.2300 C   0  0  0  0  0  0  0  0  0  0  0  0
   36.6570   28.0470   33.9740 N   0  0  0  0  0  0  0  0  0  0  0  0
   37.1950   27.8730   32.7480 C   0  0  0  0  0  0  0  0  0  0  0  0
   36.7790   28.6070   31.7320 N   0  0  0  0  0  0  0  0  0  0  0  0
   35.5060   30.1190   31.0220 H   0  0  0  0  0  0  0  0  0  0  0  0
   34.4580   30.4960   33.2830 H   0  0  0  0  0  0  0  0  0  0  0  0
   35.2610   29.0910   35.2100 H   0  0  0  0  0  0  0  0  0  0  0  0
  1 19  1  0  0  0  0
  1  4  1  0  0  0  0
  2  1  1  0  0  0  0
  3  1  1  0  0  0  0
  4  8  2  0  0  0  0
  5  4  1  0  0  0  0
  5  6  2  0  0  0  0
  6 10  1  0  0  0  0
  6  7  1  0  0  0  0
  7 11  1  0  0  0  0
  8  7  1  0  0  0  0
  9  5  1  0  0  0  0
 11 18  2  0  0  0  0
 11 12  1  0  0  0  0
 12 14  2  0  0  0  0
 13 12  1  0  0  0  0
 14 15  1  0  0  0  0
 16 14  1  0  0  0  0
 16 17  1  0  0  0  0
 18 16  1  0  0  0  0
 19 26  1  0  0  0  0
 19 20  1  0  0  0  0
 21 19  1  0  0  0  0
 22 23  1  0  0  0  0
 23 29  1  0  0  0  0
 23 24  2  0  0  0  0
 24 30  1  0  0  0  0
 25 24  1  0  0  0  0
 26 25  2  0  0  0  0
 27 22  2  0  0  0  0
 27 26  1  0  0  0  0
 28 22  1  0  0  0  0
M  END
>  <minimizedAffinity>
-4.87693119

$$$$

 OpenBabel03272501593D

 30 32  0  0  0  0  0  0  0  0999 V2000
   36.9270   26.3720   32.7520 C   0  0  0  0  0  0  0  0  0  0  0  0
   35.8770   26.0730   32.7540 H   0  0  0  0  0  0  0  0  0  0  0  0
   37.5030   25.7230   32.0290 H   0  0  0  0  0  0  0  0  0  0  0  0
   37.5460   26.0550   34.0890 C   0  0  0  0  0  0  0  0  0  0  0  0
   37.7330   26.9420   35.1240 C   0  0  0  0  0  0  0  0  0  0  0  0
   38.3290   26.3250   36.2100 C   0  0  0  0  0  0  0  0  0  0  0  0
   38.4880   25.0350   35.7820 N   0  0  0  0  0  0  0  0  0  0  0  0
   38.0310   24.8890   34.5520 N   0  0  0  0  0  0  0  0  0  0  0  0
   37.4440   27.9880   35.0700 H   0  0  0  0  0  0  0  0  0  0  0  0
   38.5960   26.7640   37.1570 H   0  0  0  0  0  0  0  0  0  0  0  0
   39.0740   24.0030   36.5830 C   0  0  0  0  0  0  0  0  0  0  0  0
   40.2040   23.2510   36.3040 C   0  0  0  0  0  0  0  0  0  0  0  0
   40.8040   23.3460   35.4240 H   0  0  0  0  0  0  0  0  0  0  0  0
   40.3280   22.4010   37.4050 C   0  0  0  0  0  0  0  0  0  0  0  0
   41.1250   21.6620   37.5130 H   0  0  0  0  0  0  0  0  0  0  0  0
   39.3170   22.6440   38.2900 N   0  0  0  0  0  0  0  0  0  0  0  0
   39.1590   22.1550   39.2060 H   0  0  0  0  0  0  0  0  0  0  0  0
   38.5720   23.6170   37.7710 N   0  0  0  0  0  0  0  0  0  0  0  0
   37.1810   27.8250   32.5020 C   0  0  0  0  0  0  0  0  0  0  0  0
   36.2100   28.4000   32.5580 H   0  0  0  0  0  0  0  0  0  0  0  0
   37.8310   28.2920   33.2560 H   0  0  0  0  0  0  0  0  0  0  0  0
   37.4510   28.9480   28.9880 C   0  0  0  0  0  0  0  0  0  0  0  0
   38.6740   28.3820   28.5780 C   0  0  0  0  0  0  0  0  0  0  0  0
   39.3860   27.6160   29.5350 C   0  0  0  0  0  0  0  0  0  0  0  0
   38.8430   27.4860   30.7650 N   0  0  0  0  0  0  0  0  0  0  0  0
   37.6650   28.0490   31.1100 C   0  0  0  0  0  0  0  0  0  0  0  0
   36.9890   28.7650   30.2300 N   0  0  0  0  0  0  0  0  0  0  0  0
   36.8590   29.5500   28.2870 H   0  0  0  0  0  0  0  0  0  0  0  0
   39.0500   28.5270   27.5740 H   0  0  0  0  0  0  0  0  0  0  0  0
   40.3260   27.1660   29.2610 H   0  0  0  0  0  0  0  0  0  0  0  0
  1  2  1  0  0  0  0
  1  4  1  0  0  0  0
  3  1  1  0  0  0  0
  4  8  2  0  0  0  0
  4  5  1  0  0  0  0
  5  6  2  0  0  0  0
  6 10  1  0  0  0  0
  7  6  1  0  0  0  0
  7 11  1  0  0  0  0
  8  7  1  0  0  0  0
  9  5  1  0  0  0  0
 11 18  2  0  0  0  0
 12 11  1  0  0  0  0
 12 14  2  0  0  0  0
 13 12  1  0  0  0  0
 14 15  1  0  0  0  0
 14 16  1  0  0  0  0
 16 17  1  0  0  0  0
 18 16  1  0  0  0  0
 19 20  1  0  0  0  0
 19  1  1  0  0  0  0
 19 21  1  0  0  0  0
 22 27  1  0  0  0  0
 23 22  2  0  0  0  0
 23 24  1  0  0  0  0
 24 25  2  0  0  0  0
 25 26  1  0  0  0  0
 26 19  1  0  0  0  0
 27 26  2  0  0  0  0
 28 22  1  0  0  0  0
 29 23  1  0  0  0  0
 30 24  1  0  0  0  0
M  END
>  <minimizedAffinity>
-4.87175417

$$$$

 OpenBabel03272501593D

 30 32  0  0  0  0  0  0  0  0999 V2000
   36.9520   25.6750   32.5360 C   0  0  0  0  0  0  0  0  0  0  0  0
   36.8300   26.7400   32.3250 H   0  0  0  0  0  0  0  0  0  0  0  0
   35.9380   25.1870   32.6210 H   0  0  0  0  0  0  0  0  0  0  0  0
   37.5510   25.4970   33.9080 C   0  0  0  0  0  0  0  0  0  0  0  0
   37.6000   26.4510   34.8990 C   0  0  0  0  0  0  0  0  0  0  0  0
   38.2190   25.9590   36.0340 C   0  0  0  0  0  0  0  0  0  0  0  0
   38.5360   24.6760   35.6830 N   0  0  0  0  0  0  0  0  0  0  0  0
   38.1450   24.4180   34.4480 N   0  0  0  0  0  0  0  0  0  0  0  0
   37.1990   27.4530   34.7790 H   0  0  0  0  0  0  0  0  0  0  0  0
   38.4000   26.4720   36.9640 H   0  0  0  0  0  0  0  0  0  0  0  0
   39.2030   23.7580   36.5560 C   0  0  0  0  0  0  0  0  0  0  0  0
   40.4190   23.1250   36.3540 C   0  0  0  0  0  0  0  0  0  0  0  0
   41.0380   23.2430   35.4900 H   0  0  0  0  0  0  0  0  0  0  0  0
   40.5950   22.3510   37.5030 C   0  0  0  0  0  0  0  0  0  0  0  0
   41.4640   21.7130   37.6750 H   0  0  0  0  0  0  0  0  0  0  0  0
   39.5320   22.5220   38.3400 N   0  0  0  0  0  0  0  0  0  0  0  0
   39.3940   22.0650   39.2760 H   0  0  0  0  0  0  0  0  0  0  0  0
   38.7020   23.3770   37.7460 N   0  0  0  0  0  0  0  0  0  0  0  0
   37.8390   24.9310   31.5880 C   0  0  0  0  0  0  0  0  0  0  0  0
   37.8030   25.4160   30.5680 H   0  0  0  0  0  0  0  0  0  0  0  0
   38.9000   24.9490   31.8740 H   0  0  0  0  0  0  0  0  0  0  0  0
   35.6290   21.9840   31.2530 C   0  0  0  0  0  0  0  0  0  0  0  0
   36.5320   20.9590   30.9120 C   0  0  0  0  0  0  0  0  0  0  0  0
   37.9010   21.3120   30.8040 C   0  0  0  0  0  0  0  0  0  0  0  0
   38.2370   22.6010   31.0350 N   0  0  0  0  0  0  0  0  0  0  0  0
   37.3310   23.5480   31.3590 C   0  0  0  0  0  0  0  0  0  0  0  0
   36.0520   23.2350   31.4640 N   0  0  0  0  0  0  0  0  0  0  0  0
   34.5570   21.7650   31.3490 H   0  0  0  0  0  0  0  0  0  0  0  0
   36.1930   19.9450   30.7410 H   0  0  0  0  0  0  0  0  0  0  0  0
   38.6260   20.5570   30.5460 H   0  0  0  0  0  0  0  0  0  0  0  0
  1  3  1  0  0  0  0
  1  4  1  0  0  0  0
  2  1  1  0  0  0  0
  4  8  2  0  0  0  0
  4  5  1  0  0  0  0
  5  6  2  0  0  0  0
  6 10  1  0  0  0  0
  7  6  1  0  0  0  0
  7 11  1  0  0  0  0
  8  7  1  0  0  0  0
  9  5  1  0  0  0  0
 11 18  2  0  0  0  0
 12 11  1  0  0  0  0
 12 14  2  0  0  0  0
 13 12  1  0  0  0  0
 14 15  1  0  0  0  0
 14 16  1  0  0  0  0
 16 17  1  0  0  0  0
 18 16  1  0  0  0  0
 19 21  1  0  0  0  0
 19  1  1  0  0  0  0
 20 19  1  0  0  0  0
 22 28  1  0  0  0  0
 22 27  1  0  0  0  0
 23 22  2  0  0  0  0
 24 23  1  0  0  0  0
 24 25  2  0  0  0  0
 25 26  1  0  0  0  0
 26 27  2  0  0  0  0
 26 19  1  0  0  0  0
 29 23  1  0  0  0  0
 30 24  1  0  0  0  0
M  END
>  <minimizedAffinity>
-4.8642292

$$$$

 OpenBabel03272501593D

 30 32  0  0  0  0  0  0  0  0999 V2000
   36.2770   28.3660   33.4830 C   0  0  0  0  0  0  0  0  0  0  0  0
   35.5190   27.7830   32.9550 H   0  0  0  0  0  0  0  0  0  0  0  0
   37.0620   28.7150   32.7510 H   0  0  0  0  0  0  0  0  0  0  0  0
   37.0380   27.4710   34.4270 C   0  0  0  0  0  0  0  0  0  0  0  0
   37.8480   27.8860   35.4590 C   0  0  0  0  0  0  0  0  0  0  0  0
   38.3960   26.8060   36.1280 C   0  0  0  0  0  0  0  0  0  0  0  0
   37.8820   25.7320   35.4560 N   0  0  0  0  0  0  0  0  0  0  0  0
   37.0960   26.1280   34.4720 N   0  0  0  0  0  0  0  0  0  0  0  0
   38.0190   28.9320   35.6960 H   0  0  0  0  0  0  0  0  0  0  0  0
   39.0650   26.8220   36.9740 H   0  0  0  0  0  0  0  0  0  0  0  0
   38.1730   24.3720   35.7960 C   0  0  0  0  0  0  0  0  0  0  0  0
   38.7660   23.4070   34.9990 C   0  0  0  0  0  0  0  0  0  0  0  0
   39.0920   23.5550   33.9920 H   0  0  0  0  0  0  0  0  0  0  0  0
   38.8120   22.2730   35.8150 C   0  0  0  0  0  0  0  0  0  0  0  0
   39.2240   21.3140   35.4950 H   0  0  0  0  0  0  0  0  0  0  0  0
   38.2720   22.5620   37.0340 N   0  0  0  0  0  0  0  0  0  0  0  0
   38.1750   21.9020   37.8460 H   0  0  0  0  0  0  0  0  0  0  0  0
   37.8930   23.8370   37.0000 N   0  0  0  0  0  0  0  0  0  0  0  0
   35.7540   29.5010   34.3060 C   0  0  0  0  0  0  0  0  0  0  0  0
   35.9570   29.3080   35.4010 H   0  0  0  0  0  0  0  0  0  0  0  0
   36.2450   30.4610   34.0910 H   0  0  0  0  0  0  0  0  0  0  0  0
   32.1920   30.1370   35.0740 C   0  0  0  0  0  0  0  0  0  0  0  0
   31.5400   29.6790   33.9120 C   0  0  0  0  0  0  0  0  0  0  0  0
   32.3550   29.1550   32.8770 C   0  0  0  0  0  0  0  0  0  0  0  0
   33.6910   29.1330   33.0800 N   0  0  0  0  0  0  0  0  0  0  0  0
   34.2680   29.5840   34.2140 C   0  0  0  0  0  0  0  0  0  0  0  0
   33.5230   30.0750   35.1880 N   0  0  0  0  0  0  0  0  0  0  0  0
   31.6080   30.5520   35.9060 H   0  0  0  0  0  0  0  0  0  0  0  0
   30.4630   29.7270   33.8170 H   0  0  0  0  0  0  0  0  0  0  0  0
   31.8960   28.7930   31.9710 H   0  0  0  0  0  0  0  0  0  0  0  0
  1 19  1  0  0  0  0
  1  4  1  0  0  0  0
  2  1  1  0  0  0  0
  3  1  1  0  0  0  0
  4  8  2  0  0  0  0
  4  5  1  0  0  0  0
  5  9  1  0  0  0  0
  5  6  2  0  0  0  0
  6 10  1  0  0  0  0
  7 11  1  0  0  0  0
  7  6  1  0  0  0  0
  8  7  1  0  0  0  0
 11 18  2  0  0  0  0
 12 11  1  0  0  0  0
 12 14  2  0  0  0  0
 13 12  1  0  0  0  0
 14 16  1  0  0  0  0
 15 14  1  0  0  0  0
 16 17  1  0  0  0  0
 18 16  1  0  0  0  0
 19 20  1  0  0  0  0
 21 19  1  0  0  0  0
 22 27  1  0  0  0  0
 22 28  1  0  0  0  0
 23 22  2  0  0  0  0
 24 25  2  0  0  0  0
 24 23  1  0  0  0  0
 25 26  1  0  0  0  0
 26 19  1  0  0  0  0
 26 27  2  0  0  0  0
 29 23  1  0  0  0  0
 30 24  1  0  0  0  0
M  END
>  <minimizedAffinity>
-4.83737993

$$$$

 OpenBabel03272501593D

 30 32  0  0  0  0  0  0  0  0999 V2000
   38.8580   26.0000   34.2060 C   0  0  0  0  0  0  0  0  0  0  0  0
   39.4580   26.3750   35.0380 H   0  0  0  0  0  0  0  0  0  0  0  0
   39.4880   25.9740   33.2690 H   0  0  0  0  0  0  0  0  0  0  0  0
   37.7710   26.9910   33.8790 C   0  0  0  0  0  0  0  0  0  0  0  0
   37.2290   27.2160   32.6340 C   0  0  0  0  0  0  0  0  0  0  0  0
   36.2510   28.1930   32.6840 C   0  0  0  0  0  0  0  0  0  0  0  0
   36.2300   28.5420   34.0060 N   0  0  0  0  0  0  0  0  0  0  0  0
   37.1150   27.8400   34.6910 N   0  0  0  0  0  0  0  0  0  0  0  0
   37.5460   26.6820   31.7430 H   0  0  0  0  0  0  0  0  0  0  0  0
   35.6560   28.5770   31.8720 H   0  0  0  0  0  0  0  0  0  0  0  0
   35.3570   29.5380   34.5490 C   0  0  0  0  0  0  0  0  0  0  0  0
   35.7060   30.7070   35.2050 C   0  0  0  0  0  0  0  0  0  0  0  0
   36.7070   31.0280   35.4000 H   0  0  0  0  0  0  0  0  0  0  0  0
   34.4810   31.3020   35.5170 C   0  0  0  0  0  0  0  0  0  0  0  0
   34.3870   32.2520   36.0470 H   0  0  0  0  0  0  0  0  0  0  0  0
   33.4610   30.5180   35.0640 N   0  0  0  0  0  0  0  0  0  0  0  0
   32.4330   30.7140   35.1580 H   0  0  0  0  0  0  0  0  0  0  0  0
   34.0140   29.4560   34.4820 N   0  0  0  0  0  0  0  0  0  0  0  0
   38.1780   24.6890   34.4450 C   0  0  0  0  0  0  0  0  0  0  0  0
   37.0580   24.8180   34.3740 H   0  0  0  0  0  0  0  0  0  0  0  0
   38.4240   23.9240   33.6940 H   0  0  0  0  0  0  0  0  0  0  0  0
   37.8750   24.1400   38.0900 C   0  0  0  0  0  0  0  0  0  0  0  0
   38.9490   23.2720   38.3610 C   0  0  0  0  0  0  0  0  0  0  0  0
   39.7640   22.8900   37.2660 C   0  0  0  0  0  0  0  0  0  0  0  0
   39.4520   23.3850   36.0480 N   0  0  0  0  0  0  0  0  0  0  0  0
   38.4100   24.2170   35.8400 C   0  0  0  0  0  0  0  0  0  0  0  0
   37.6400   24.5820   36.8500 N   0  0  0  0  0  0  0  0  0  0  0  0
   37.2120   24.4670   38.9020 H   0  0  0  0  0  0  0  0  0  0  0  0
   39.1420   22.9130   39.3640 H   0  0  0  0  0  0  0  0  0  0  0  0
   40.5980   22.2260   37.4300 H   0  0  0  0  0  0  0  0  0  0  0  0
  1 19  1  0  0  0  0
  1  2  1  0  0  0  0
  3  1  1  0  0  0  0
  4  1  1  0  0  0  0
  4  8  2  0  0  0  0
  5  6  2  0  0  0  0
  5  4  1  0  0  0  0
  6  7  1  0  0  0  0
  7 11  1  0  0  0  0
  7  8  1  0  0  0  0
  9  5  1  0  0  0  0
 10  6  1  0  0  0  0
 11 12  1  0  0  0  0
 12 13  1  0  0  0  0
 12 14  2  0  0  0  0
 14 15  1  0  0  0  0
 16 17  1  0  0  0  0
 16 14  1  0  0  0  0
 18 11  2  0  0  0  0
 18 16  1  0  0  0  0
 19 26  1  0  0  0  0
 20 19  1  0  0  0  0
 21 19  1  0  0  0  0
 22 23  1  0  0  0  0
 22 28  1  0  0  0  0
 23 29  1  0  0  0  0
 24 30  1  0  0  0  0
 24 23  2  0  0  0  0
 25 24  1  0  0  0  0
 26 25  2  0  0  0  0
 26 27  1  0  0  0  0
 27 22  2  0  0  0  0
M  END
>  <minimizedAffinity>
-4.73459911

$$$$
