
 OpenBabel03272508023D

 27 29  0  0  0  0  0  0  0  0999 V2000
   38.7490   30.7310   45.4940 C   0  0  0  0  0  0  0  0  0  0  0  0
   39.7530   31.6550   45.4280 C   0  0  0  0  0  0  0  0  0  0  0  0
   40.6150   31.3650   44.3730 C   0  0  0  0  0  0  0  0  0  0  0  0
   40.0780   30.2450   43.8310 N   0  0  0  0  0  0  0  0  0  0  0  0
   38.9840   29.8650   44.4820 N   0  0  0  0  0  0  0  0  0  0  0  0
   39.9210   32.5130   46.0650 H   0  0  0  0  0  0  0  0  0  0  0  0
   41.4920   31.8090   43.9790 H   0  0  0  0  0  0  0  0  0  0  0  0
   40.4510   29.4200   42.7290 C   0  0  0  0  0  0  0  0  0  0  0  0
   39.9490   28.2620   42.1510 C   0  0  0  0  0  0  0  0  0  0  0  0
   39.0700   27.8220   42.5790 H   0  0  0  0  0  0  0  0  0  0  0  0
   40.8030   27.9940   41.1010 C   0  0  0  0  0  0  0  0  0  0  0  0
   40.6140   27.1080   40.4750 H   0  0  0  0  0  0  0  0  0  0  0  0
   41.7730   28.9240   41.0300 N   0  0  0  0  0  0  0  0  0  0  0  0
   42.5370   28.9310   40.3160 H   0  0  0  0  0  0  0  0  0  0  0  0
   41.5530   29.7900   42.0270 N   0  0  0  0  0  0  0  0  0  0  0  0
   37.6470   30.6810   46.4560 C   0  0  0  0  0  0  0  0  0  0  0  0
   37.9330   31.0110   47.8050 C   0  0  0  0  0  0  0  0  0  0  0  0
   36.8980   30.9690   48.7290 C   0  0  0  0  0  0  0  0  0  0  0  0
   35.6590   30.6040   48.2700 N   0  0  0  0  0  0  0  0  0  0  0  0
   35.4140   30.2950   46.9860 C   0  0  0  0  0  0  0  0  0  0  0  0
   36.4230   30.3380   46.0860 N   0  0  0  0  0  0  0  0  0  0  0  0
   38.9510   31.2930   48.0910 H   0  0  0  0  0  0  0  0  0  0  0  0
   34.4450   30.0110   46.6280 H   0  0  0  0  0  0  0  0  0  0  0  0
   37.1720   31.3110   50.1460 C   0  0  0  0  0  0  0  0  0  0  0  0
   36.6110   32.5430   50.3520 F   0  0  0  0  0  0  0  0  0  0  0  0
   36.5980   30.3980   51.0300 F   0  0  0  0  0  0  0  0  0  0  0  0
   38.5400   31.3970   50.3990 F   0  0  0  0  0  0  0  0  0  0  0  0
  1 16  1  0  0  0  0
  2  1  1  0  0  0  0
  2  6  1  0  0  0  0
  3  2  2  0  0  0  0
  4  3  1  0  0  0  0
  4  5  1  0  0  0  0
  5  1  2  0  0  0  0
  7  3  1  0  0  0  0
  8  4  1  0  0  0  0
  9 10  1  0  0  0  0
  9  8  1  0  0  0  0
 11  9  2  0  0  0  0
 12 11  1  0  0  0  0
 13 11  1  0  0  0  0
 13 15  1  0  0  0  0
 14 13  1  0  0  0  0
 15  8  2  0  0  0  0
 16 17  1  0  0  0  0
 17 22  1  0  0  0  0
 17 18  2  0  0  0  0
 18 24  1  0  0  0  0
 19 18  1  0  0  0  0
 20 19  2  0  0  0  0
 21 16  2  0  0  0  0
 21 20  1  0  0  0  0
 23 20  1  0  0  0  0
 24 25  1  0  0  0  0
 24 27  1  0  0  0  0
 24 26  1  0  0  0  0
M  END
>  <minimizedAffinity>
-6.07305288

>  <minimizedRMSD>
0.933680058

$$$$
