
 OpenBabel03272510113D

 34 37  0  0  0  0  0  0  0  0999 V2000
   33.4620   28.3870   48.8780 C   0  0  0  0  0  0  0  0  0  0  0  0
   33.5780   28.9240   50.1110 C   0  0  0  0  0  0  0  0  0  0  0  0
   34.7160   29.5340   50.6000 C   0  0  0  0  0  0  0  0  0  0  0  0
   35.8260   29.6220   49.8080 C   0  0  0  0  0  0  0  0  0  0  0  0
   35.7030   29.0630   48.5300 C   0  0  0  0  0  0  0  0  0  0  0  0
   34.5760   28.4800   48.0970 N   0  0  0  0  0  0  0  0  0  0  0  0
   32.7540   28.9040   50.8110 H   0  0  0  0  0  0  0  0  0  0  0  0
   34.8020   29.9610   51.5840 H   0  0  0  0  0  0  0  0  0  0  0  0
   36.5590   29.1070   47.8600 H   0  0  0  0  0  0  0  0  0  0  0  0
   31.0610   27.6500   49.1020 C   0  0  0  0  0  0  0  0  0  0  0  0
   32.2680   27.7540   48.3840 C   0  0  0  0  0  0  0  0  0  0  0  0
   32.2670   27.1950   47.1130 C   0  0  0  0  0  0  0  0  0  0  0  0
   31.1450   26.5890   46.6250 N   0  0  0  0  0  0  0  0  0  0  0  0
   30.0250   26.5250   47.3660 C   0  0  0  0  0  0  0  0  0  0  0  0
   29.9670   27.0510   48.6060 N   0  0  0  0  0  0  0  0  0  0  0  0
   31.0390   28.0790   50.0950 H   0  0  0  0  0  0  0  0  0  0  0  0
   33.1870   27.2620   46.5400 H   0  0  0  0  0  0  0  0  0  0  0  0
   29.2570   26.0090   46.8010 H   0  0  0  0  0  0  0  0  0  0  0  0
   37.0510   30.1970   50.1330 O   0  0  0  0  0  0  0  0  0  0  0  0
   37.7580   30.9750   49.2160 C   0  0  0  0  0  0  0  0  0  0  0  0
   37.8320   32.3230   49.5850 C   0  0  0  0  0  0  0  0  0  0  0  0
   38.5550   32.9970   48.6030 C   0  0  0  0  0  0  0  0  0  0  0  0
   38.8820   32.0590   47.7030 N   0  0  0  0  0  0  0  0  0  0  0  0
   38.4190   30.8870   48.0620 N   0  0  0  0  0  0  0  0  0  0  0  0
   37.4690   32.9330   50.4260 H   0  0  0  0  0  0  0  0  0  0  0  0
   38.8720   34.0160   48.4380 H   0  0  0  0  0  0  0  0  0  0  0  0
   39.6180   32.1630   46.4880 C   0  0  0  0  0  0  0  0  0  0  0  0
   40.0370   33.1380   45.6060 C   0  0  0  0  0  0  0  0  0  0  0  0
   39.7500   34.1500   45.8600 H   0  0  0  0  0  0  0  0  0  0  0  0
   40.7370   32.4760   44.6120 C   0  0  0  0  0  0  0  0  0  0  0  0
   41.1540   33.0750   43.8110 H   0  0  0  0  0  0  0  0  0  0  0  0
   40.7320   31.1540   44.8960 N   0  0  0  0  0  0  0  0  0  0  0  0
   41.2150   30.4640   44.2570 H   0  0  0  0  0  0  0  0  0  0  0  0
   40.0650   30.9650   46.0160 N   0  0  0  0  0  0  0  0  0  0  0  0
  1  2  1  0  0  0  0
  2  3  2  0  0  0  0
  2  7  1  0  0  0  0
  3  8  1  0  0  0  0
  4 19  1  0  0  0  0
  4  3  1  0  0  0  0
  5  4  2  0  0  0  0
  6  5  1  0  0  0  0
  6  1  2  0  0  0  0
  9  5  1  0  0  0  0
 10 16  1  0  0  0  0
 11  1  1  0  0  0  0
 11 10  2  0  0  0  0
 12 11  1  0  0  0  0
 13 12  2  0  0  0  0
 13 14  1  0  0  0  0
 14 15  2  0  0  0  0
 15 10  1  0  0  0  0
 17 12  1  0  0  0  0
 18 14  1  0  0  0  0
 20 21  1  0  0  0  0
 20 19  1  0  0  0  0
 21 25  1  0  0  0  0
 22 21  2  0  0  0  0
 23 24  1  0  0  0  0
 23 22  1  0  0  0  0
 24 20  2  0  0  0  0
 26 22  1  0  0  0  0
 27 23  1  0  0  0  0
 28 29  1  0  0  0  0
 28 27  1  0  0  0  0
 30 32  1  0  0  0  0
 30 28  2  0  0  0  0
 31 30  1  0  0  0  0
 32 34  1  0  0  0  0
 33 32  1  0  0  0  0
 34 27  2  0  0  0  0
M  END
>  <minimizedAffinity>
-6.32549381

>  <minimizedRMSD>
1.54696476

$$$$
