
 OpenBabel03272506083D

 43 46  0  0  0  0  0  0  0  0999 V2000
   35.4360   28.8470   49.0320 C   0  0  0  0  0  0  0  0  0  0  0  0
   35.5190   27.9970   49.7420 H   0  0  0  0  0  0  0  0  0  0  0  0
   36.3450   28.8080   48.3970 H   0  0  0  0  0  0  0  0  0  0  0  0
   34.2090   28.6790   48.1710 C   0  0  0  0  0  0  0  0  0  0  0  0
   34.2770   29.0100   46.7640 C   0  0  0  0  0  0  0  0  0  0  0  0
   32.6300   28.6420   46.2500 S   0  0  0  0  0  0  0  0  0  0  0  0
   32.0490   28.0960   47.9490 C   0  0  0  0  0  0  0  0  0  0  0  0
   33.0530   28.2510   48.5740 N   0  0  0  0  0  0  0  0  0  0  0  0
   30.7610   27.6140   48.4220 N   0  0  0  0  0  0  0  0  0  0  0  0
   29.9700   26.9070   47.4600 C   0  0  0  0  0  0  0  0  0  0  0  0
   28.5250   26.7890   47.8240 C   0  0  0  0  0  0  0  0  0  0  0  0
   28.1600   27.5640   49.0130 N   0  0  0  0  0  0  0  0  0  0  0  0
   29.0860   27.1450   50.0500 C   0  0  0  0  0  0  0  0  0  0  0  0
   30.3790   27.8710   49.7810 C   0  0  0  0  0  0  0  0  0  0  0  0
   35.1240   29.3710   46.2520 H   0  0  0  0  0  0  0  0  0  0  0  0
   30.0410   27.4570   46.4980 H   0  0  0  0  0  0  0  0  0  0  0  0
   30.4010   25.9000   47.2360 H   0  0  0  0  0  0  0  0  0  0  0  0
   27.8330   27.0090   46.9980 H   0  0  0  0  0  0  0  0  0  0  0  0
   28.3290   25.7310   48.1180 H   0  0  0  0  0  0  0  0  0  0  0  0
   28.3700   28.5630   48.7750 H   0  0  0  0  0  0  0  0  0  0  0  0
   29.3050   26.0590   50.0270 H   0  0  0  0  0  0  0  0  0  0  0  0
   28.6720   27.5010   51.0180 H   0  0  0  0  0  0  0  0  0  0  0  0
   30.1760   28.9570   49.8650 H   0  0  0  0  0  0  0  0  0  0  0  0
   31.1190   27.6160   50.5400 H   0  0  0  0  0  0  0  0  0  0  0  0
   35.3970   30.1120   49.7880 C   0  0  0  0  0  0  0  0  0  0  0  0
   35.5570   29.9460   50.8860 H   0  0  0  0  0  0  0  0  0  0  0  0
   34.4270   30.6380   49.6660 H   0  0  0  0  0  0  0  0  0  0  0  0
   37.7920   32.9380   49.5390 C   0  0  0  0  0  0  0  0  0  0  0  0
   38.5280   32.6370   48.3970 C   0  0  0  0  0  0  0  0  0  0  0  0
   38.1900   31.4630   47.7250 C   0  0  0  0  0  0  0  0  0  0  0  0
   37.1850   30.6930   48.2090 N   0  0  0  0  0  0  0  0  0  0  0  0
   36.5070   31.0390   49.3230 C   0  0  0  0  0  0  0  0  0  0  0  0
   36.8060   32.1430   49.9790 N   0  0  0  0  0  0  0  0  0  0  0  0
   38.0360   33.8520   50.0850 H   0  0  0  0  0  0  0  0  0  0  0  0
   39.3280   33.2590   48.0190 H   0  0  0  0  0  0  0  0  0  0  0  0
   38.8760   31.0260   46.5150 C   0  0  0  0  0  0  0  0  0  0  0  0
   38.2420   30.3460   45.4820 C   0  0  0  0  0  0  0  0  0  0  0  0
   37.1900   30.0720   45.4610 H   0  0  0  0  0  0  0  0  0  0  0  0
   39.1690   30.0710   44.4760 C   0  0  0  0  0  0  0  0  0  0  0  0
   38.8940   29.5440   43.5660 H   0  0  0  0  0  0  0  0  0  0  0  0
   40.3390   30.5950   44.9310 N   0  0  0  0  0  0  0  0  0  0  0  0
   41.1830   30.5120   44.3470 H   0  0  0  0  0  0  0  0  0  0  0  0
   40.1430   31.1360   46.1020 N   0  0  0  0  0  0  0  0  0  0  0  0
  1  2  1  0  0  0  0
  1 25  1  0  0  0  0
  3  1  1  0  0  0  0
  4  8  1  0  0  0  0
  4  1  1  0  0  0  0
  5  4  2  0  0  0  0
  6  5  1  0  0  0  0
  6  7  1  0  0  0  0
  7  9  1  0  0  0  0
  7  8  2  0  0  0  0
  9 14  1  0  0  0  0
 10 11  1  0  0  0  0
 10  9  1  0  0  0  0
 11 19  1  0  0  0  0
 11 12  1  0  0  0  0
 12 13  1  0  0  0  0
 13 22  1  0  0  0  0
 14 23  1  0  0  0  0
 14 13  1  0  0  0  0
 14 24  1  0  0  0  0
 15  5  1  0  0  0  0
 16 10  1  0  0  0  0
 17 10  1  0  0  0  0
 18 11  1  0  0  0  0
 20 12  1  0  0  0  0
 21 13  1  0  0  0  0
 25 26  1  0  0  0  0
 27 25  1  0  0  0  0
 28 33  1  0  0  0  0
 28 34  1  0  0  0  0
 29 28  2  0  0  0  0
 30 31  2  0  0  0  0
 30 29  1  0  0  0  0
 31 32  1  0  0  0  0
 32 25  1  0  0  0  0
 32 33  2  0  0  0  0
 35 29  1  0  0  0  0
 36 30  1  0  0  0  0
 37 36  1  0  0  0  0
 38 37  1  0  0  0  0
 39 41  1  0  0  0  0
 39 37  2  0  0  0  0
 40 39  1  0  0  0  0
 41 43  1  0  0  0  0
 42 41  1  0  0  0  0
 43 36  2  0  0  0  0
M  END
>  <minimizedAffinity>
-6.47438908

>  <minimizedRMSD>
0.992738843

$$$$
