
 OpenBabel03272506083D

 43 46  0  0  0  0  0  0  0  0999 V2000
   34.8010   28.4590   49.2350 C   0  0  0  0  0  0  0  0  0  0  0  0
   34.8650   27.6300   49.9710 H   0  0  0  0  0  0  0  0  0  0  0  0
   35.6970   28.3660   48.5860 H   0  0  0  0  0  0  0  0  0  0  0  0
   33.5540   28.3090   48.4010 C   0  0  0  0  0  0  0  0  0  0  0  0
   33.6160   28.5590   46.9760 C   0  0  0  0  0  0  0  0  0  0  0  0
   31.9450   28.2510   46.5050 S   0  0  0  0  0  0  0  0  0  0  0  0
   31.3640   27.8270   48.2380 C   0  0  0  0  0  0  0  0  0  0  0  0
   32.3840   27.9640   48.8410 N   0  0  0  0  0  0  0  0  0  0  0  0
   30.0600   27.4390   48.7540 N   0  0  0  0  0  0  0  0  0  0  0  0
   29.2190   26.7230   47.8430 C   0  0  0  0  0  0  0  0  0  0  0  0
   27.7750   26.7010   48.2310 C   0  0  0  0  0  0  0  0  0  0  0  0
   27.4690   27.5570   49.3810 N   0  0  0  0  0  0  0  0  0  0  0  0
   28.3890   27.1470   50.4270 C   0  0  0  0  0  0  0  0  0  0  0  0
   29.7130   27.7890   50.1020 C   0  0  0  0  0  0  0  0  0  0  0  0
   34.4720   28.8480   46.4340 H   0  0  0  0  0  0  0  0  0  0  0  0
   29.3030   27.2160   46.8510 H   0  0  0  0  0  0  0  0  0  0  0  0
   29.5940   25.6850   47.6680 H   0  0  0  0  0  0  0  0  0  0  0  0
   27.0830   26.9120   47.4030 H   0  0  0  0  0  0  0  0  0  0  0  0
   27.5300   25.6710   48.5840 H   0  0  0  0  0  0  0  0  0  0  0  0
   27.7270   28.5290   49.0860 H   0  0  0  0  0  0  0  0  0  0  0  0
   28.5520   26.0510   50.4600 H   0  0  0  0  0  0  0  0  0  0  0  0
   28.0090   27.5750   51.3790 H   0  0  0  0  0  0  0  0  0  0  0  0
   29.5680   28.8870   50.1280 H   0  0  0  0  0  0  0  0  0  0  0  0
   30.4510   27.5380   50.8640 H   0  0  0  0  0  0  0  0  0  0  0  0
   34.8220   29.7480   49.9490 C   0  0  0  0  0  0  0  0  0  0  0  0
   35.0010   29.6130   51.0480 H   0  0  0  0  0  0  0  0  0  0  0  0
   33.8680   30.3040   49.8300 H   0  0  0  0  0  0  0  0  0  0  0  0
   37.4630   32.3430   49.6680 C   0  0  0  0  0  0  0  0  0  0  0  0
   37.9880   32.1320   48.3960 C   0  0  0  0  0  0  0  0  0  0  0  0
   37.4240   31.0990   47.6490 C   0  0  0  0  0  0  0  0  0  0  0  0
   36.4170   30.3680   48.1890 N   0  0  0  0  0  0  0  0  0  0  0  0
   35.9520   30.6210   49.4300 C   0  0  0  0  0  0  0  0  0  0  0  0
   36.4670   31.5920   50.1590 N   0  0  0  0  0  0  0  0  0  0  0  0
   37.8870   33.1460   50.2750 H   0  0  0  0  0  0  0  0  0  0  0  0
   38.7900   32.7210   47.9740 H   0  0  0  0  0  0  0  0  0  0  0  0
   37.8740   30.7680   46.3020 C   0  0  0  0  0  0  0  0  0  0  0  0
   39.2150   30.6900   45.9430 C   0  0  0  0  0  0  0  0  0  0  0  0
   40.0560   30.8620   46.6100 H   0  0  0  0  0  0  0  0  0  0  0  0
   39.3090   30.3530   44.5920 C   0  0  0  0  0  0  0  0  0  0  0  0
   40.2670   30.2370   44.0920 H   0  0  0  0  0  0  0  0  0  0  0  0
   38.0200   30.2400   44.1720 N   0  0  0  0  0  0  0  0  0  0  0  0
   37.8350   29.9940   43.1890 H   0  0  0  0  0  0  0  0  0  0  0  0
   37.2190   30.4820   45.1730 N   0  0  0  0  0  0  0  0  0  0  0  0
  1 25  1  0  0  0  0
  1  2  1  0  0  0  0
  3  1  1  0  0  0  0
  4  8  1  0  0  0  0
  4  1  1  0  0  0  0
  5  4  2  0  0  0  0
  6  5  1  0  0  0  0
  6  7  1  0  0  0  0
  7  9  1  0  0  0  0
  7  8  2  0  0  0  0
  9 14  1  0  0  0  0
 10 11  1  0  0  0  0
 10  9  1  0  0  0  0
 11 19  1  0  0  0  0
 11 12  1  0  0  0  0
 12 13  1  0  0  0  0
 13 21  1  0  0  0  0
 13 22  1  0  0  0  0
 14 23  1  0  0  0  0
 14 13  1  0  0  0  0
 14 24  1  0  0  0  0
 15  5  1  0  0  0  0
 16 10  1  0  0  0  0
 17 10  1  0  0  0  0
 18 11  1  0  0  0  0
 20 12  1  0  0  0  0
 25 26  1  0  0  0  0
 27 25  1  0  0  0  0
 28 33  1  0  0  0  0
 28 34  1  0  0  0  0
 29 28  2  0  0  0  0
 30 31  2  0  0  0  0
 30 29  1  0  0  0  0
 31 32  1  0  0  0  0
 32 25  1  0  0  0  0
 32 33  2  0  0  0  0
 35 29  1  0  0  0  0
 36 30  1  0  0  0  0
 37 36  1  0  0  0  0
 37 38  1  0  0  0  0
 39 37  2  0  0  0  0
 40 39  1  0  0  0  0
 41 39  1  0  0  0  0
 41 43  1  0  0  0  0
 42 41  1  0  0  0  0
 43 36  2  0  0  0  0
M  END
>  <minimizedAffinity>
-6.25927544

>  <minimizedRMSD>
0.872489333

$$$$
