
 OpenBabel03272506083D

 43 46  0  0  0  0  0  0  0  0999 V2000
   35.0640   28.7000   48.9750 C   0  0  0  0  0  0  0  0  0  0  0  0
   35.1680   27.8790   49.7160 H   0  0  0  0  0  0  0  0  0  0  0  0
   35.9500   28.6310   48.3110 H   0  0  0  0  0  0  0  0  0  0  0  0
   33.8070   28.5000   48.1640 C   0  0  0  0  0  0  0  0  0  0  0  0
   33.8380   28.7340   46.7360 C   0  0  0  0  0  0  0  0  0  0  0  0
   32.1700   28.3680   46.2970 S   0  0  0  0  0  0  0  0  0  0  0  0
   31.6310   27.9510   48.0450 C   0  0  0  0  0  0  0  0  0  0  0  0
   32.6560   28.1260   48.6290 N   0  0  0  0  0  0  0  0  0  0  0  0
   30.3490   27.5300   48.5880 N   0  0  0  0  0  0  0  0  0  0  0  0
   29.5140   26.7770   47.7010 C   0  0  0  0  0  0  0  0  0  0  0  0
   28.0790   26.7160   48.1140 C   0  0  0  0  0  0  0  0  0  0  0  0
   27.7660   27.5770   49.2580 N   0  0  0  0  0  0  0  0  0  0  0  0
   28.7160   27.2090   50.2930 C   0  0  0  0  0  0  0  0  0  0  0  0
   30.0140   27.8860   49.9380 C   0  0  0  0  0  0  0  0  0  0  0  0
   34.6760   29.0410   46.1760 H   0  0  0  0  0  0  0  0  0  0  0  0
   29.5660   27.2590   46.7020 H   0  0  0  0  0  0  0  0  0  0  0  0
   29.9180   25.7480   47.5320 H   0  0  0  0  0  0  0  0  0  0  0  0
   27.3670   26.8940   47.2950 H   0  0  0  0  0  0  0  0  0  0  0  0
   27.8710   25.6840   48.4850 H   0  0  0  0  0  0  0  0  0  0  0  0
   27.9890   28.5520   48.9460 H   0  0  0  0  0  0  0  0  0  0  0  0
   28.9120   26.1190   50.3380 H   0  0  0  0  0  0  0  0  0  0  0  0
   28.3380   27.6380   51.2470 H   0  0  0  0  0  0  0  0  0  0  0  0
   29.8350   28.9800   49.9520 H   0  0  0  0  0  0  0  0  0  0  0  0
   30.7710   27.6680   50.6900 H   0  0  0  0  0  0  0  0  0  0  0  0
   35.0540   29.9940   49.6790 C   0  0  0  0  0  0  0  0  0  0  0  0
   35.1640   29.8660   50.7880 H   0  0  0  0  0  0  0  0  0  0  0  0
   34.1130   30.5580   49.4970 H   0  0  0  0  0  0  0  0  0  0  0  0
   37.8890   32.3900   49.6190 C   0  0  0  0  0  0  0  0  0  0  0  0
   38.3130   32.3550   48.2930 C   0  0  0  0  0  0  0  0  0  0  0  0
   37.6160   31.5050   47.4350 C   0  0  0  0  0  0  0  0  0  0  0  0
   36.5850   30.7740   47.9260 N   0  0  0  0  0  0  0  0  0  0  0  0
   36.2210   30.8520   49.2230 C   0  0  0  0  0  0  0  0  0  0  0  0
   36.8630   31.6470   50.0570 N   0  0  0  0  0  0  0  0  0  0  0  0
   38.4180   33.0470   50.3130 H   0  0  0  0  0  0  0  0  0  0  0  0
   39.1370   32.9420   47.9130 H   0  0  0  0  0  0  0  0  0  0  0  0
   37.9510   31.3690   46.0230 C   0  0  0  0  0  0  0  0  0  0  0  0
   38.1360   32.4550   45.1750 C   0  0  0  0  0  0  0  0  0  0  0  0
   38.0550   33.5000   45.4630 H   0  0  0  0  0  0  0  0  0  0  0  0
   38.4450   31.9900   43.8950 C   0  0  0  0  0  0  0  0  0  0  0  0
   38.6320   32.6670   43.0650 H   0  0  0  0  0  0  0  0  0  0  0  0
   38.4370   30.6340   44.0080 N   0  0  0  0  0  0  0  0  0  0  0  0
   38.6410   30.0630   43.1740 H   0  0  0  0  0  0  0  0  0  0  0  0
   38.1510   30.3050   45.2380 N   0  0  0  0  0  0  0  0  0  0  0  0
  1 25  1  0  0  0  0
  1  2  1  0  0  0  0
  3  1  1  0  0  0  0
  4  8  1  0  0  0  0
  4  1  1  0  0  0  0
  5  4  2  0  0  0  0
  6  5  1  0  0  0  0
  6  7  1  0  0  0  0
  7  9  1  0  0  0  0
  7  8  2  0  0  0  0
  9 14  1  0  0  0  0
 10 11  1  0  0  0  0
 10  9  1  0  0  0  0
 11 19  1  0  0  0  0
 11 12  1  0  0  0  0
 12 13  1  0  0  0  0
 13 21  1  0  0  0  0
 13 22  1  0  0  0  0
 14 23  1  0  0  0  0
 14 13  1  0  0  0  0
 14 24  1  0  0  0  0
 15  5  1  0  0  0  0
 16 10  1  0  0  0  0
 17 10  1  0  0  0  0
 18 11  1  0  0  0  0
 20 12  1  0  0  0  0
 25 26  1  0  0  0  0
 27 25  1  0  0  0  0
 28 33  1  0  0  0  0
 28 34  1  0  0  0  0
 29 28  2  0  0  0  0
 30 31  2  0  0  0  0
 30 29  1  0  0  0  0
 31 32  1  0  0  0  0
 32 25  1  0  0  0  0
 32 33  2  0  0  0  0
 35 29  1  0  0  0  0
 36 30  1  0  0  0  0
 37 38  1  0  0  0  0
 37 36  1  0  0  0  0
 39 41  1  0  0  0  0
 39 37  2  0  0  0  0
 40 39  1  0  0  0  0
 41 43  1  0  0  0  0
 42 41  1  0  0  0  0
 43 36  2  0  0  0  0
M  END
>  <minimizedAffinity>
-6.06255913

>  <minimizedRMSD>
1.27373731

$$$$
