
 OpenBabel03262522093D

 19 20  0  0  0  0  0  0  0  0999 V2000
   39.2170   24.6090   35.6080 C   0  0  0  0  0  0  0  0  0  0  0  0
   40.1420   24.2990   34.8620 O   0  0  0  0  0  0  0  0  0  0  0  0
   37.6530   25.6240   33.9740 C   0  0  0  0  0  0  0  0  0  0  0  0
   38.4300   25.7670   35.1650 C   0  0  0  0  0  0  0  0  0  0  0  0
   38.3770   27.0070   35.8160 C   0  0  0  0  0  0  0  0  0  0  0  0
   37.6050   27.9890   35.2890 N   0  0  0  0  0  0  0  0  0  0  0  0
   36.8920   27.8070   34.1670 C   0  0  0  0  0  0  0  0  0  0  0  0
   36.9000   26.6520   33.5000 N   0  0  0  0  0  0  0  0  0  0  0  0
   37.6910   24.6690   33.4660 H   0  0  0  0  0  0  0  0  0  0  0  0
   38.9780   27.0720   36.7110 H   0  0  0  0  0  0  0  0  0  0  0  0
   36.2830   28.6080   33.7690 H   0  0  0  0  0  0  0  0  0  0  0  0
   38.9100   23.9060   36.8260 C   0  0  0  0  0  0  0  0  0  0  0  0
   37.7220   24.0050   37.4880 C   0  0  0  0  0  0  0  0  0  0  0  0
   36.8400   24.5960   37.2320 H   0  0  0  0  0  0  0  0  0  0  0  0
   37.8210   23.1860   38.6000 C   0  0  0  0  0  0  0  0  0  0  0  0
   37.0900   22.9850   39.3830 H   0  0  0  0  0  0  0  0  0  0  0  0
   39.0580   22.6130   38.5900 N   0  0  0  0  0  0  0  0  0  0  0  0
   39.5110   21.9380   39.2570 H   0  0  0  0  0  0  0  0  0  0  0  0
   39.7000   23.0600   37.5130 N   0  0  0  0  0  0  0  0  0  0  0  0
  1 12  1  0  0  0  0
  2  1  2  0  0  0  0
  3  4  1  0  0  0  0
  4  1  1  0  0  0  0
  4  5  2  0  0  0  0
  5 10  1  0  0  0  0
  6  5  1  0  0  0  0
  7  6  2  0  0  0  0
  8  3  2  0  0  0  0
  8  7  1  0  0  0  0
  9  3  1  0  0  0  0
 11  7  1  0  0  0  0
 12 13  1  0  0  0  0
 12 19  2  0  0  0  0
 13 15  2  0  0  0  0
 14 13  1  0  0  0  0
 15 16  1  0  0  0  0
 17 15  1  0  0  0  0
 17 18  1  0  0  0  0
 19 17  1  0  0  0  0
M  END
>  <minimizedAffinity>
-4.07784414

$$$$

 OpenBabel03262522093D

 19 20  0  0  0  0  0  0  0  0999 V2000
   39.0810   23.7490   35.1950 C   0  0  0  0  0  0  0  0  0  0  0  0
   39.9880   24.4150   34.7020 O   0  0  0  0  0  0  0  0  0  0  0  0
   37.7820   23.9600   33.0940 C   0  0  0  0  0  0  0  0  0  0  0  0
   38.1490   23.1650   34.2240 C   0  0  0  0  0  0  0  0  0  0  0  0
   37.5840   21.8850   34.3120 C   0  0  0  0  0  0  0  0  0  0  0  0
   36.7340   21.4770   33.3370 N   0  0  0  0  0  0  0  0  0  0  0  0
   36.4200   22.2610   32.2950 C   0  0  0  0  0  0  0  0  0  0  0  0
   36.9220   23.4890   32.1520 N   0  0  0  0  0  0  0  0  0  0  0  0
   38.2140   24.9500   33.0210 H   0  0  0  0  0  0  0  0  0  0  0  0
   37.8870   21.3180   35.1800 H   0  0  0  0  0  0  0  0  0  0  0  0
   35.7390   21.9100   31.5300 H   0  0  0  0  0  0  0  0  0  0  0  0
   38.9240   23.5460   36.6120 C   0  0  0  0  0  0  0  0  0  0  0  0
   37.9520   24.1350   37.3660 C   0  0  0  0  0  0  0  0  0  0  0  0
   37.1640   24.8230   37.0550 H   0  0  0  0  0  0  0  0  0  0  0  0
   38.1390   23.6910   38.6640 C   0  0  0  0  0  0  0  0  0  0  0  0
   37.5750   23.9250   39.5670 H   0  0  0  0  0  0  0  0  0  0  0  0
   39.2110   22.8490   38.6700 N   0  0  0  0  0  0  0  0  0  0  0  0
   39.6640   22.3150   39.4540 H   0  0  0  0  0  0  0  0  0  0  0  0
   39.6710   22.7760   37.4240 N   0  0  0  0  0  0  0  0  0  0  0  0
  1 12  1  0  0  0  0
  2  1  2  0  0  0  0
  3  4  1  0  0  0  0
  4  5  2  0  0  0  0
  4  1  1  0  0  0  0
  5 10  1  0  0  0  0
  6  5  1  0  0  0  0
  7  6  2  0  0  0  0
  8  7  1  0  0  0  0
  8  3  2  0  0  0  0
  9  3  1  0  0  0  0
 11  7  1  0  0  0  0
 12 13  1  0  0  0  0
 12 19  2  0  0  0  0
 13 15  2  0  0  0  0
 14 13  1  0  0  0  0
 15 17  1  0  0  0  0
 15 16  1  0  0  0  0
 17 18  1  0  0  0  0
 19 17  1  0  0  0  0
M  END
>  <minimizedAffinity>
-3.94391179

$$$$

 OpenBabel03262522093D

 19 20  0  0  0  0  0  0  0  0999 V2000
   39.4850   23.9760   35.2780 C   0  0  0  0  0  0  0  0  0  0  0  0
   40.6540   23.9430   34.9050 O   0  0  0  0  0  0  0  0  0  0  0  0
   37.9730   23.4080   33.3970 C   0  0  0  0  0  0  0  0  0  0  0  0
   38.5240   24.4090   34.2560 C   0  0  0  0  0  0  0  0  0  0  0  0
   38.1000   25.7290   34.0510 C   0  0  0  0  0  0  0  0  0  0  0  0
   37.2050   25.9820   33.0640 N   0  0  0  0  0  0  0  0  0  0  0  0
   36.7160   25.0080   32.2820 C   0  0  0  0  0  0  0  0  0  0  0  0
   37.0780   23.7320   32.4250 N   0  0  0  0  0  0  0  0  0  0  0  0
   38.2980   22.3870   33.5500 H   0  0  0  0  0  0  0  0  0  0  0  0
   38.5400   26.4530   34.7210 H   0  0  0  0  0  0  0  0  0  0  0  0
   36.0010   25.2370   31.5020 H   0  0  0  0  0  0  0  0  0  0  0  0
   39.0660   23.6220   36.6090 C   0  0  0  0  0  0  0  0  0  0  0  0
   37.8690   23.9820   37.1550 C   0  0  0  0  0  0  0  0  0  0  0  0
   37.0600   24.5660   36.7130 H   0  0  0  0  0  0  0  0  0  0  0  0
   37.8470   23.4540   38.4350 C   0  0  0  0  0  0  0  0  0  0  0  0
   37.0710   23.5150   39.1990 H   0  0  0  0  0  0  0  0  0  0  0  0
   39.0200   22.7910   38.6370 N   0  0  0  0  0  0  0  0  0  0  0  0
   39.3800   22.2630   39.4720 H   0  0  0  0  0  0  0  0  0  0  0  0
   39.7420   22.9040   37.5250 N   0  0  0  0  0  0  0  0  0  0  0  0
  1 12  1  0  0  0  0
  2  1  2  0  0  0  0
  3  9  1  0  0  0  0
  3  4  1  0  0  0  0
  4  1  1  0  0  0  0
  5  4  2  0  0  0  0
  5 10  1  0  0  0  0
  6  5  1  0  0  0  0
  7  8  1  0  0  0  0
  7  6  2  0  0  0  0
  8  3  2  0  0  0  0
 11  7  1  0  0  0  0
 12 13  1  0  0  0  0
 12 19  2  0  0  0  0
 13 15  2  0  0  0  0
 14 13  1  0  0  0  0
 15 17  1  0  0  0  0
 15 16  1  0  0  0  0
 17 18  1  0  0  0  0
 19 17  1  0  0  0  0
M  END
>  <minimizedAffinity>
-3.8835392

$$$$

 OpenBabel03262522093D

 19 20  0  0  0  0  0  0  0  0999 V2000
   39.0460   24.1600   35.1680 C   0  0  0  0  0  0  0  0  0  0  0  0
   38.3400   23.7120   34.2680 O   0  0  0  0  0  0  0  0  0  0  0  0
   39.5950   26.3150   34.0730 C   0  0  0  0  0  0  0  0  0  0  0  0
   40.0550   25.1320   34.7320 C   0  0  0  0  0  0  0  0  0  0  0  0
   41.4390   24.9980   34.9080 C   0  0  0  0  0  0  0  0  0  0  0  0
   42.2540   25.9810   34.4520 N   0  0  0  0  0  0  0  0  0  0  0  0
   41.7750   27.0740   33.8390 C   0  0  0  0  0  0  0  0  0  0  0  0
   40.4700   27.2620   33.6390 N   0  0  0  0  0  0  0  0  0  0  0  0
   38.5270   26.4240   33.9330 H   0  0  0  0  0  0  0  0  0  0  0  0
   41.7430   24.0910   35.4100 H   0  0  0  0  0  0  0  0  0  0  0  0
   42.4490   27.8440   33.4840 H   0  0  0  0  0  0  0  0  0  0  0  0
   38.9120   23.7740   36.5480 C   0  0  0  0  0  0  0  0  0  0  0  0
   38.0350   24.3480   37.4210 C   0  0  0  0  0  0  0  0  0  0  0  0
   37.3180   25.1530   37.2450 H   0  0  0  0  0  0  0  0  0  0  0  0
   38.2110   23.7060   38.6350 C   0  0  0  0  0  0  0  0  0  0  0  0
   37.7060   23.8680   39.5870 H   0  0  0  0  0  0  0  0  0  0  0  0
   39.1840   22.7650   38.4750 N   0  0  0  0  0  0  0  0  0  0  0  0
   39.5990   22.0790   39.1560 H   0  0  0  0  0  0  0  0  0  0  0  0
   39.5940   22.8220   37.2100 N   0  0  0  0  0  0  0  0  0  0  0  0
  1 12  1  0  0  0  0
  2  1  2  0  0  0  0
  3  4  1  0  0  0  0
  4  5  2  0  0  0  0
  4  1  1  0  0  0  0
  5 10  1  0  0  0  0
  6  5  1  0  0  0  0
  7  6  2  0  0  0  0
  8  7  1  0  0  0  0
  8  3  2  0  0  0  0
  9  3  1  0  0  0  0
 11  7  1  0  0  0  0
 12 19  2  0  0  0  0
 12 13  1  0  0  0  0
 13 15  2  0  0  0  0
 14 13  1  0  0  0  0
 15 16  1  0  0  0  0
 17 15  1  0  0  0  0
 17 18  1  0  0  0  0
 19 17  1  0  0  0  0
M  END
>  <minimizedAffinity>
-3.88054347

$$$$

 OpenBabel03262522093D

 19 20  0  0  0  0  0  0  0  0999 V2000
   38.0820   26.0650   35.8490 C   0  0  0  0  0  0  0  0  0  0  0  0
   38.4170   27.0240   36.5370 O   0  0  0  0  0  0  0  0  0  0  0  0
   36.8790   27.7140   34.4420 C   0  0  0  0  0  0  0  0  0  0  0  0
   37.4630   26.4150   34.5640 C   0  0  0  0  0  0  0  0  0  0  0  0
   37.3960   25.5780   33.4420 C   0  0  0  0  0  0  0  0  0  0  0  0
   36.7910   26.0380   32.3190 N   0  0  0  0  0  0  0  0  0  0  0  0
   36.2560   27.2660   32.2530 C   0  0  0  0  0  0  0  0  0  0  0  0
   36.2860   28.1110   33.2840 N   0  0  0  0  0  0  0  0  0  0  0  0
   36.9270   28.3650   35.3060 H   0  0  0  0  0  0  0  0  0  0  0  0
   37.8490   24.6070   33.5770 H   0  0  0  0  0  0  0  0  0  0  0  0
   35.7790   27.6080   31.3430 H   0  0  0  0  0  0  0  0  0  0  0  0
   38.2700   24.6950   36.2490 C   0  0  0  0  0  0  0  0  0  0  0  0
   39.3930   23.9680   35.9840 C   0  0  0  0  0  0  0  0  0  0  0  0
   40.2970   24.2700   35.4530 H   0  0  0  0  0  0  0  0  0  0  0  0
   39.1850   22.7120   36.5290 C   0  0  0  0  0  0  0  0  0  0  0  0
   39.8390   21.8390   36.5340 H   0  0  0  0  0  0  0  0  0  0  0  0
   37.9520   22.7030   37.1080 N   0  0  0  0  0  0  0  0  0  0  0  0
   37.4350   21.9440   37.6200 H   0  0  0  0  0  0  0  0  0  0  0  0
   37.4150   23.9080   36.9290 N   0  0  0  0  0  0  0  0  0  0  0  0
  1 12  1  0  0  0  0
  1  2  2  0  0  0  0
  3  4  1  0  0  0  0
  3  9  1  0  0  0  0
  4  1  1  0  0  0  0
  5 10  1  0  0  0  0
  5  4  2  0  0  0  0
  6  5  1  0  0  0  0
  7  6  2  0  0  0  0
  7  8  1  0  0  0  0
  8  3  2  0  0  0  0
 11  7  1  0  0  0  0
 12 19  2  0  0  0  0
 13 12  1  0  0  0  0
 13 15  2  0  0  0  0
 14 13  1  0  0  0  0
 15 16  1  0  0  0  0
 15 17  1  0  0  0  0
 17 18  1  0  0  0  0
 19 17  1  0  0  0  0
M  END
>  <minimizedAffinity>
-3.83979678

$$$$

 OpenBabel03262522093D

 19 20  0  0  0  0  0  0  0  0999 V2000
   38.4740   24.2940   36.2620 C   0  0  0  0  0  0  0  0  0  0  0  0
   37.4130   24.5160   36.8390 O   0  0  0  0  0  0  0  0  0  0  0  0
   39.5970   26.2650   35.2630 C   0  0  0  0  0  0  0  0  0  0  0  0
   38.7280   25.1430   35.0920 C   0  0  0  0  0  0  0  0  0  0  0  0
   38.1860   24.9460   33.8140 C   0  0  0  0  0  0  0  0  0  0  0  0
   38.5110   25.8160   32.8260 N   0  0  0  0  0  0  0  0  0  0  0  0
   39.3320   26.8560   33.0360 C   0  0  0  0  0  0  0  0  0  0  0  0
   39.8800   27.0990   34.2270 N   0  0  0  0  0  0  0  0  0  0  0  0
   40.0180   26.4230   36.2480 H   0  0  0  0  0  0  0  0  0  0  0  0
   37.5350   24.0890   33.7290 H   0  0  0  0  0  0  0  0  0  0  0  0
   39.5750   27.5340   32.2280 H   0  0  0  0  0  0  0  0  0  0  0  0
   39.4100   23.2840   36.6820 C   0  0  0  0  0  0  0  0  0  0  0  0
   40.2520   22.6230   35.8370 C   0  0  0  0  0  0  0  0  0  0  0  0
   40.3650   22.7310   34.7570 H   0  0  0  0  0  0  0  0  0  0  0  0
   40.9820   21.7440   36.6190 C   0  0  0  0  0  0  0  0  0  0  0  0
   41.7580   21.0350   36.3280 H   0  0  0  0  0  0  0  0  0  0  0  0
   40.5710   21.8880   37.9100 N   0  0  0  0  0  0  0  0  0  0  0  0
   40.8800   21.4040   38.7910 H   0  0  0  0  0  0  0  0  0  0  0  0
   39.6220   22.8210   37.9280 N   0  0  0  0  0  0  0  0  0  0  0  0
  1 12  1  0  0  0  0
  1  2  2  0  0  0  0
  3  9  1  0  0  0  0
  4  3  1  0  0  0  0
  4  1  1  0  0  0  0
  5  4  2  0  0  0  0
  6  7  2  0  0  0  0
  6  5  1  0  0  0  0
  7  8  1  0  0  0  0
  8  3  2  0  0  0  0
 10  5  1  0  0  0  0
 11  7  1  0  0  0  0
 12 19  2  0  0  0  0
 13 15  2  0  0  0  0
 13 12  1  0  0  0  0
 14 13  1  0  0  0  0
 15 17  1  0  0  0  0
 16 15  1  0  0  0  0
 17 19  1  0  0  0  0
 17 18  1  0  0  0  0
M  END
>  <minimizedAffinity>
-3.81038976

$$$$

 OpenBabel03262522093D

 19 20  0  0  0  0  0  0  0  0999 V2000
   40.2010   24.4260   35.0160 C   0  0  0  0  0  0  0  0  0  0  0  0
   41.0440   24.4530   34.1240 O   0  0  0  0  0  0  0  0  0  0  0  0
   39.2540   26.6380   35.6120 C   0  0  0  0  0  0  0  0  0  0  0  0
   39.1280   25.4180   34.8780 C   0  0  0  0  0  0  0  0  0  0  0  0
   37.9830   25.2680   34.0830 C   0  0  0  0  0  0  0  0  0  0  0  0
   37.0720   26.2720   34.0540 N   0  0  0  0  0  0  0  0  0  0  0  0
   37.2350   27.4000   34.7610 C   0  0  0  0  0  0  0  0  0  0  0  0
   38.3000   27.6050   35.5370 N   0  0  0  0  0  0  0  0  0  0  0  0
   40.1360   26.7600   36.2280 H   0  0  0  0  0  0  0  0  0  0  0  0
   37.9270   24.3330   33.5460 H   0  0  0  0  0  0  0  0  0  0  0  0
   36.4920   28.1860   34.7190 H   0  0  0  0  0  0  0  0  0  0  0  0
   40.2420   23.5040   36.1200 C   0  0  0  0  0  0  0  0  0  0  0  0
   41.2690   22.6390   36.3570 C   0  0  0  0  0  0  0  0  0  0  0  0
   42.1910   22.4960   35.7900 H   0  0  0  0  0  0  0  0  0  0  0  0
   40.9340   21.9330   37.4990 C   0  0  0  0  0  0  0  0  0  0  0  0
   41.4850   21.1490   38.0200 H   0  0  0  0  0  0  0  0  0  0  0  0
   39.7200   22.3800   37.9280 N   0  0  0  0  0  0  0  0  0  0  0  0
   39.1310   22.0960   38.7520 H   0  0  0  0  0  0  0  0  0  0  0  0
   39.3190   23.3270   37.0840 N   0  0  0  0  0  0  0  0  0  0  0  0
  1 12  1  0  0  0  0
  2  1  2  0  0  0  0
  3  9  1  0  0  0  0
  4  1  1  0  0  0  0
  4  3  2  0  0  0  0
  5  4  1  0  0  0  0
  6  5  2  0  0  0  0
  6  7  1  0  0  0  0
  7  8  2  0  0  0  0
  8  3  1  0  0  0  0
 10  5  1  0  0  0  0
 11  7  1  0  0  0  0
 12 13  1  0  0  0  0
 12 19  2  0  0  0  0
 13 15  2  0  0  0  0
 14 13  1  0  0  0  0
 15 17  1  0  0  0  0
 15 16  1  0  0  0  0
 17 18  1  0  0  0  0
 19 17  1  0  0  0  0
M  END
>  <minimizedAffinity>
-3.79919672

$$$$

 OpenBabel03262522093D

 19 20  0  0  0  0  0  0  0  0999 V2000
   37.4880   27.2800   32.5480 C   0  0  0  0  0  0  0  0  0  0  0  0
   37.6610   28.1980   31.7510 O   0  0  0  0  0  0  0  0  0  0  0  0
   37.1110   24.8340   32.3960 C   0  0  0  0  0  0  0  0  0  0  0  0
   36.7020   26.1540   32.0280 C   0  0  0  0  0  0  0  0  0  0  0  0
   35.5790   26.2640   31.1970 C   0  0  0  0  0  0  0  0  0  0  0  0
   34.9520   25.1320   30.7930 N   0  0  0  0  0  0  0  0  0  0  0  0
   35.3730   23.9140   31.1650 C   0  0  0  0  0  0  0  0  0  0  0  0
   36.4350   23.7400   31.9540 N   0  0  0  0  0  0  0  0  0  0  0  0
   37.9780   24.7420   33.0380 H   0  0  0  0  0  0  0  0  0  0  0  0
   35.3050   27.2770   30.9430 H   0  0  0  0  0  0  0  0  0  0  0  0
   34.8530   23.0270   30.8280 H   0  0  0  0  0  0  0  0  0  0  0  0
   38.0050   27.2860   33.8910 C   0  0  0  0  0  0  0  0  0  0  0  0
   39.2720   26.9090   34.2250 C   0  0  0  0  0  0  0  0  0  0  0  0
   40.0770   26.5570   33.5770 H   0  0  0  0  0  0  0  0  0  0  0  0
   39.3780   27.0560   35.5970 C   0  0  0  0  0  0  0  0  0  0  0  0
   40.2260   26.8610   36.2550 H   0  0  0  0  0  0  0  0  0  0  0  0
   38.1820   27.5150   36.0640 N   0  0  0  0  0  0  0  0  0  0  0  0
   37.8660   27.7480   37.0390 H   0  0  0  0  0  0  0  0  0  0  0  0
   37.3670   27.6470   35.0200 N   0  0  0  0  0  0  0  0  0  0  0  0
  1 12  1  0  0  0  0
  2  1  2  0  0  0  0
  3  9  1  0  0  0  0
  4  3  1  0  0  0  0
  4  1  1  0  0  0  0
  5  4  2  0  0  0  0
  6  7  2  0  0  0  0
  6  5  1  0  0  0  0
  7  8  1  0  0  0  0
  8  3  2  0  0  0  0
 10  5  1  0  0  0  0
 11  7  1  0  0  0  0
 12 13  1  0  0  0  0
 12 19  2  0  0  0  0
 13 15  2  0  0  0  0
 14 13  1  0  0  0  0
 15 17  1  0  0  0  0
 15 16  1  0  0  0  0
 17 18  1  0  0  0  0
 19 17  1  0  0  0  0
M  END
>  <minimizedAffinity>
-3.79472589

$$$$

 OpenBabel03262522093D

 19 20  0  0  0  0  0  0  0  0999 V2000
   38.1840   24.3300   36.5190 C   0  0  0  0  0  0  0  0  0  0  0  0
   37.3160   23.8060   37.2100 O   0  0  0  0  0  0  0  0  0  0  0  0
   39.7740   22.7380   37.5600 C   0  0  0  0  0  0  0  0  0  0  0  0
   39.4530   23.5930   36.4610 C   0  0  0  0  0  0  0  0  0  0  0  0
   40.3810   23.6590   35.4120 C   0  0  0  0  0  0  0  0  0  0  0  0
   41.5140   22.9200   35.4960 N   0  0  0  0  0  0  0  0  0  0  0  0
   41.7720   22.1310   36.5500 C   0  0  0  0  0  0  0  0  0  0  0  0
   40.9320   22.0240   37.5800 N   0  0  0  0  0  0  0  0  0  0  0  0
   39.0620   22.6840   38.3740 H   0  0  0  0  0  0  0  0  0  0  0  0
   40.0990   24.3160   34.6030 H   0  0  0  0  0  0  0  0  0  0  0  0
   42.6850   21.5510   36.5900 H   0  0  0  0  0  0  0  0  0  0  0  0
   37.9960   25.5700   35.8130 C   0  0  0  0  0  0  0  0  0  0  0  0
   38.3400   26.7930   36.3090 C   0  0  0  0  0  0  0  0  0  0  0  0
   38.7920   27.0410   37.2720 H   0  0  0  0  0  0  0  0  0  0  0  0
   38.0030   27.7210   35.3390 C   0  0  0  0  0  0  0  0  0  0  0  0
   38.1140   28.8050   35.3440 H   0  0  0  0  0  0  0  0  0  0  0  0
   37.4660   27.0470   34.2820 N   0  0  0  0  0  0  0  0  0  0  0  0
   37.0920   27.3920   33.3620 H   0  0  0  0  0  0  0  0  0  0  0  0
   37.4700   25.7520   34.5870 N   0  0  0  0  0  0  0  0  0  0  0  0
  1  2  2  0  0  0  0
  3  8  1  0  0  0  0
  3  9  1  0  0  0  0
  4  1  1  0  0  0  0
  4  3  2  0  0  0  0
  5  6  2  0  0  0  0
  5  4  1  0  0  0  0
  6  7  1  0  0  0  0
  7 11  1  0  0  0  0
  7  8  2  0  0  0  0
 10  5  1  0  0  0  0
 12 13  1  0  0  0  0
 12  1  1  0  0  0  0
 13 14  1  0  0  0  0
 15 16  1  0  0  0  0
 15 13  2  0  0  0  0
 17 19  1  0  0  0  0
 17 15  1  0  0  0  0
 18 17  1  0  0  0  0
 19 12  2  0  0  0  0
M  END
>  <minimizedAffinity>
-3.70445418

$$$$
