
 OpenBabel03272510253D

 44 48  0  0  1  0  0  0  0  0999 V2000
   36.1950   30.2410   47.0110 C   0  0  0  0  0  0  0  0  0  0  0  0
   37.0460   30.7660   47.9810 C   0  0  0  0  0  0  0  0  0  0  0  0
   38.0520   31.6530   47.6370 C   0  0  0  0  0  0  0  0  0  0  0  0
   38.1680   31.9880   46.2940 C   0  0  0  0  0  0  0  0  0  0  0  0
   39.0740   32.8310   45.7200 N   0  0  0  0  0  0  0  0  0  0  0  0
   38.7950   32.8340   44.4010 C   0  0  0  0  0  0  0  0  0  0  0  0
   37.7760   32.0450   44.1420 N   0  0  0  0  0  0  0  0  0  0  0  0
   37.3420   31.4860   45.3010 C   0  0  0  0  0  0  0  0  0  0  0  0
   36.3320   30.5910   45.6740 C   0  0  0  0  0  0  0  0  0  0  0  0
   35.3960   29.5450   47.2400 H   0  0  0  0  0  0  0  0  0  0  0  0
   38.7070   32.0560   48.3940 H   0  0  0  0  0  0  0  0  0  0  0  0
   39.8310   33.3640   46.2170 H   0  0  0  0  0  0  0  0  0  0  0  0
   35.6950   30.2100   44.8880 H   0  0  0  0  0  0  0  0  0  0  0  0
   37.4040   30.0700   51.6540 C   0  0  0  0  0  0  0  0  0  0  0  0
   37.7230   30.5350   50.3790 C   0  0  0  0  0  0  0  0  0  0  0  0
   36.8210   30.3310   49.3410 C   0  0  0  0  0  0  0  0  0  0  0  0
   35.6650   29.6780   49.6410 N   0  0  0  0  0  0  0  0  0  0  0  0
   35.3610   29.2320   50.8680 C   0  0  0  0  0  0  0  0  0  0  0  0
   36.2180   29.4260   51.8570 N   0  0  0  0  0  0  0  0  0  0  0  0
   38.1630   30.2710   52.4010 H   0  0  0  0  0  0  0  0  0  0  0  0
   38.6370   31.0420   50.1740 H   0  0  0  0  0  0  0  0  0  0  0  0
   34.4270   28.7210   51.0450 H   0  0  0  0  0  0  0  0  0  0  0  0
   39.5400   33.6060   43.4990 O   0  0  0  0  0  0  0  0  0  0  0  0
   39.7740   31.7190   42.2350 N   0  0  0  0  0  0  0  0  0  0  0  0
   39.5240   33.1730   42.1460 C   0  0  1  0  0  0  0  0  0  0  0  0
   38.2270   33.3860   41.5130 C   0  0  0  0  0  0  0  0  0  0  0  0
   38.2940   32.9150   40.1880 O   0  0  0  0  0  0  0  0  0  0  0  0
   38.6780   31.6170   40.0510 C   0  0  0  0  0  0  0  0  0  0  0  0
   39.8980   31.2690   40.8660 C   0  0  2  0  0  0  0  0  0  0  0  0
   40.7210   31.6410   42.6660 H   0  0  0  0  0  0  0  0  0  0  0  0
   40.3150   33.6480   41.5410 H   0  0  0  0  0  0  0  0  0  0  0  0
   38.1050   34.5040   41.3730 H   0  0  0  0  0  0  0  0  0  0  0  0
   37.3020   33.0270   41.8690 H   0  0  0  0  0  0  0  0  0  0  0  0
   37.8600   30.9300   40.4110 H   0  0  0  0  0  0  0  0  0  0  0  0
   38.9270   31.4320   39.0070 H   0  0  0  0  0  0  0  0  0  0  0  0
   40.8360   31.6310   40.3880 H   0  0  0  0  0  0  0  0  0  0  0  0
   39.9220   29.7640   40.9280 C   0  0  0  0  0  0  0  0  0  0  0  0
   41.0000   28.8870   40.9890 C   0  0  0  0  0  0  0  0  0  0  0  0
   42.0050   29.3260   40.9930 H   0  0  0  0  0  0  0  0  0  0  0  0
   40.4870   27.5940   41.0320 C   0  0  0  0  0  0  0  0  0  0  0  0
   41.1810   26.7600   41.0830 H   0  0  0  0  0  0  0  0  0  0  0  0
   39.1530   27.6960   40.9990 N   0  0  0  0  0  0  0  0  0  0  0  0
   38.5390   26.8500   41.0210 H   0  0  0  0  0  0  0  0  0  0  0  0
   38.8120   28.9820   40.9380 N   0  0  0  0  0  0  0  0  0  0  0  0
  1 10  1  0  0  0  0
  1  2  1  0  0  0  0
  2 16  1  0  0  0  0
  3  2  2  0  0  0  0
  3 11  1  0  0  0  0
  4  3  1  0  0  0  0
  5 12  1  0  0  0  0
  5  4  1  0  0  0  0
  6  5  1  0  0  0  0
  7  6  2  0  0  0  0
  7  8  1  0  0  0  0
  8  9  1  0  0  0  0
  8  4  2  0  0  0  0
  9  1  2  0  0  0  0
 13  9  1  0  0  0  0
 14 19  1  0  0  0  0
 14 20  1  0  0  0  0
 15 14  2  0  0  0  0
 16 17  2  0  0  0  0
 16 15  1  0  0  0  0
 17 18  1  0  0  0  0
 18 22  1  0  0  0  0
 18 19  2  0  0  0  0
 21 15  1  0  0  0  0
 23  6  1  0  0  0  0
 24 30  1  0  0  0  0
 25 31  1  6  0  0  0
 25 24  1  0  0  0  0
 25 23  1  0  0  0  0
 26 33  1  0  0  0  0
 26 25  1  0  0  0  0
 27 26  1  0  0  0  0
 28 27  1  0  0  0  0
 28 34  1  0  0  0  0
 28 29  1  0  0  0  0
 29 36  1  6  0  0  0
 29 37  1  0  0  0  0
 29 24  1  0  0  0  0
 32 26  1  0  0  0  0
 35 28  1  0  0  0  0
 37 44  2  0  0  0  0
 37 38  1  0  0  0  0
 38 39  1  0  0  0  0
 38 40  2  0  0  0  0
 40 41  1  0  0  0  0
 42 43  1  0  0  0  0
 42 40  1  0  0  0  0
 44 42  1  0  0  0  0
M  END
>  <minimizedAffinity>
-5.88402891

>  <minimizedRMSD>
0.557301581

$$$$
