
 OpenBabel03272510253D

 44 48  0  0  1  0  0  0  0  0999 V2000
   35.8970   30.1280   47.0230 C   0  0  0  0  0  0  0  0  0  0  0  0
   36.8620   30.6700   47.8690 C   0  0  0  0  0  0  0  0  0  0  0  0
   37.8420   31.5160   47.3770 C   0  0  0  0  0  0  0  0  0  0  0  0
   37.8140   31.7930   46.0160 C   0  0  0  0  0  0  0  0  0  0  0  0
   38.6670   32.5890   45.3090 N   0  0  0  0  0  0  0  0  0  0  0  0
   38.2410   32.5450   44.0300 C   0  0  0  0  0  0  0  0  0  0  0  0
   37.1840   31.7730   43.9210 N   0  0  0  0  0  0  0  0  0  0  0  0
   36.8710   31.2720   45.1440 C   0  0  0  0  0  0  0  0  0  0  0  0
   35.8900   30.4200   45.6650 C   0  0  0  0  0  0  0  0  0  0  0  0
   35.1150   29.4620   47.3700 H   0  0  0  0  0  0  0  0  0  0  0  0
   38.5860   31.9320   48.0390 H   0  0  0  0  0  0  0  0  0  0  0  0
   39.4860   33.1210   45.6960 H   0  0  0  0  0  0  0  0  0  0  0  0
   35.1610   30.0230   44.9720 H   0  0  0  0  0  0  0  0  0  0  0  0
   37.5970   30.1560   51.5150 C   0  0  0  0  0  0  0  0  0  0  0  0
   37.7780   30.5650   50.1950 C   0  0  0  0  0  0  0  0  0  0  0  0
   36.7830   30.2960   49.2630 C   0  0  0  0  0  0  0  0  0  0  0  0
   35.6760   29.6400   49.7060 N   0  0  0  0  0  0  0  0  0  0  0  0
   35.5040   29.2470   50.9770 C   0  0  0  0  0  0  0  0  0  0  0  0
   36.4500   29.5020   51.8650 N   0  0  0  0  0  0  0  0  0  0  0  0
   38.4210   30.4050   52.1740 H   0  0  0  0  0  0  0  0  0  0  0  0
   38.6560   31.0760   49.8780 H   0  0  0  0  0  0  0  0  0  0  0  0
   34.6030   28.7300   51.2690 H   0  0  0  0  0  0  0  0  0  0  0  0
   38.8970   33.2600   43.0190 O   0  0  0  0  0  0  0  0  0  0  0  0
   39.4900   31.1010   42.5730 N   0  0  0  0  0  0  0  0  0  0  0  0
   39.5910   32.4810   42.0540 C   0  0  1  0  0  0  0  0  0  0  0  0
   38.9560   32.5330   40.7420 C   0  0  0  0  0  0  0  0  0  0  0  0
   39.6930   31.7240   39.8560 O   0  0  0  0  0  0  0  0  0  0  0  0
   39.8570   30.4320   40.2490 C   0  0  0  0  0  0  0  0  0  0  0  0
   40.3020   30.3000   41.6840 C   0  0  2  0  0  0  0  0  0  0  0  0
   39.9850   31.1290   43.4920 H   0  0  0  0  0  0  0  0  0  0  0  0
   40.6530   32.7670   41.9650 H   0  0  0  0  0  0  0  0  0  0  0  0
   39.1310   33.5750   40.3290 H   0  0  0  0  0  0  0  0  0  0  0  0
   37.9500   32.2950   40.5340 H   0  0  0  0  0  0  0  0  0  0  0  0
   38.8780   29.8770   40.1770 H   0  0  0  0  0  0  0  0  0  0  0  0
   40.6260   29.9710   39.6320 H   0  0  0  0  0  0  0  0  0  0  0  0
   41.3890   30.5080   41.8050 H   0  0  0  0  0  0  0  0  0  0  0  0
   40.0270   28.8660   42.0570 C   0  0  0  0  0  0  0  0  0  0  0  0
   39.2420   28.3430   43.0790 C   0  0  0  0  0  0  0  0  0  0  0  0
   38.7290   29.0570   43.7350 H   0  0  0  0  0  0  0  0  0  0  0  0
   39.3170   26.9550   42.9980 C   0  0  0  0  0  0  0  0  0  0  0  0
   38.7650   26.3610   43.7200 H   0  0  0  0  0  0  0  0  0  0  0  0
   40.1180   26.6620   41.9670 N   0  0  0  0  0  0  0  0  0  0  0  0
   40.3310   25.6740   41.7030 H   0  0  0  0  0  0  0  0  0  0  0  0
   40.5420   27.7930   41.4050 N   0  0  0  0  0  0  0  0  0  0  0  0
  1 10  1  0  0  0  0
  1  2  1  0  0  0  0
  2 16  1  0  0  0  0
  3  2  2  0  0  0  0
  3 11  1  0  0  0  0
  4  3  1  0  0  0  0
  5 12  1  0  0  0  0
  5  4  1  0  0  0  0
  6  5  1  0  0  0  0
  7  6  2  0  0  0  0
  7  8  1  0  0  0  0
  8  9  1  0  0  0  0
  8  4  2  0  0  0  0
  9  1  2  0  0  0  0
 13  9  1  0  0  0  0
 14 19  1  0  0  0  0
 14 20  1  0  0  0  0
 15 14  2  0  0  0  0
 16 17  2  0  0  0  0
 16 15  1  0  0  0  0
 17 18  1  0  0  0  0
 18 22  1  0  0  0  0
 18 19  2  0  0  0  0
 21 15  1  0  0  0  0
 23  6  1  0  0  0  0
 24 30  1  0  0  0  0
 25 31  1  6  0  0  0
 25 24  1  0  0  0  0
 25 23  1  0  0  0  0
 26 25  1  0  0  0  0
 27 28  1  0  0  0  0
 27 26  1  0  0  0  0
 28 29  1  0  0  0  0
 29 36  1  1  0  0  0
 29 37  1  0  0  0  0
 29 24  1  0  0  0  0
 32 26  1  0  0  0  0
 33 26  1  0  0  0  0
 34 28  1  0  0  0  0
 35 28  1  0  0  0  0
 37 38  1  0  0  0  0
 38 39  1  0  0  0  0
 40 38  2  0  0  0  0
 40 41  1  0  0  0  0
 42 40  1  0  0  0  0
 43 42  1  0  0  0  0
 44 42  1  0  0  0  0
 44 37  2  0  0  0  0
M  END
>  <minimizedAffinity>
-6.11831045

>  <minimizedRMSD>
1.49967504

$$$$
