
 OpenBabel03272510253D

 44 48  0  0  1  0  0  0  0  0999 V2000
   36.1320   30.2310   46.9640 C   0  0  0  0  0  0  0  0  0  0  0  0
   37.0250   30.7680   47.8890 C   0  0  0  0  0  0  0  0  0  0  0  0
   38.0080   31.6570   47.4910 C   0  0  0  0  0  0  0  0  0  0  0  0
   38.0590   31.9830   46.1420 C   0  0  0  0  0  0  0  0  0  0  0  0
   38.9320   32.8270   45.5190 N   0  0  0  0  0  0  0  0  0  0  0  0
   38.5900   32.8190   44.2150 C   0  0  0  0  0  0  0  0  0  0  0  0
   37.5640   32.0220   44.0110 N   0  0  0  0  0  0  0  0  0  0  0  0
   37.1890   31.4690   45.1920 C   0  0  0  0  0  0  0  0  0  0  0  0
   36.2030   30.5720   45.6190 C   0  0  0  0  0  0  0  0  0  0  0  0
   35.3490   29.5320   47.2360 H   0  0  0  0  0  0  0  0  0  0  0  0
   38.6970   32.0690   48.2130 H   0  0  0  0  0  0  0  0  0  0  0  0
   39.7080   33.3670   45.9760 H   0  0  0  0  0  0  0  0  0  0  0  0
   35.5320   30.1820   44.8680 H   0  0  0  0  0  0  0  0  0  0  0  0
   37.5610   30.1010   51.5450 C   0  0  0  0  0  0  0  0  0  0  0  0
   37.8160   30.5590   50.2540 C   0  0  0  0  0  0  0  0  0  0  0  0
   36.8680   30.3410   49.2610 C   0  0  0  0  0  0  0  0  0  0  0  0
   35.7310   29.6850   49.6200 N   0  0  0  0  0  0  0  0  0  0  0  0
   35.4880   29.2460   50.8630 C   0  0  0  0  0  0  0  0  0  0  0  0
   36.3900   29.4520   51.8090 N   0  0  0  0  0  0  0  0  0  0  0  0
   38.3530   30.3120   52.2550 H   0  0  0  0  0  0  0  0  0  0  0  0
   38.7160   31.0690   50.0020 H   0  0  0  0  0  0  0  0  0  0  0  0
   34.5660   28.7310   51.0880 H   0  0  0  0  0  0  0  0  0  0  0  0
   39.2870   33.5870   43.2730 O   0  0  0  0  0  0  0  0  0  0  0  0
   39.7520   31.5310   42.3970 N   0  0  0  0  0  0  0  0  0  0  0  0
   39.5690   32.9510   42.0340 C   0  0  1  0  0  0  0  0  0  0  0  0
   38.4570   33.0530   41.0960 C   0  0  0  0  0  0  0  0  0  0  0  0
   38.8110   32.3850   39.9090 O   0  0  0  0  0  0  0  0  0  0  0  0
   39.1820   31.0840   40.0620 C   0  0  0  0  0  0  0  0  0  0  0  0
   40.1740   30.8770   41.1790 C   0  0  2  0  0  0  0  0  0  0  0  0
   40.5740   31.5280   43.0420 H   0  0  0  0  0  0  0  0  0  0  0  0
   40.4900   33.3350   41.5620 H   0  0  0  0  0  0  0  0  0  0  0  0
   38.4000   34.1350   40.7630 H   0  0  0  0  0  0  0  0  0  0  0  0
   37.4660   32.7450   41.2800 H   0  0  0  0  0  0  0  0  0  0  0  0
   38.2850   30.4530   40.3240 H   0  0  0  0  0  0  0  0  0  0  0  0
   39.6570   30.7430   39.1440 H   0  0  0  0  0  0  0  0  0  0  0  0
   41.2060   31.1690   40.8800 H   0  0  0  0  0  0  0  0  0  0  0  0
   40.1420   29.3990   41.4730 C   0  0  0  0  0  0  0  0  0  0  0  0
   40.0450   28.3170   40.6060 C   0  0  0  0  0  0  0  0  0  0  0  0
   39.9790   28.5350   39.5330 H   0  0  0  0  0  0  0  0  0  0  0  0
   40.0570   27.1580   41.3780 C   0  0  0  0  0  0  0  0  0  0  0  0
   39.9890   26.1980   40.8770 H   0  0  0  0  0  0  0  0  0  0  0  0
   40.1580   27.5370   42.6590 N   0  0  0  0  0  0  0  0  0  0  0  0
   40.1860   26.8390   43.4360 H   0  0  0  0  0  0  0  0  0  0  0  0
   40.2080   28.8660   42.7190 N   0  0  0  0  0  0  0  0  0  0  0  0
  1 10  1  0  0  0  0
  1  2  1  0  0  0  0
  2 16  1  0  0  0  0
  3  2  2  0  0  0  0
  3 11  1  0  0  0  0
  4  3  1  0  0  0  0
  5 12  1  0  0  0  0
  5  4  1  0  0  0  0
  6  5  1  0  0  0  0
  7  6  2  0  0  0  0
  7  8  1  0  0  0  0
  8  9  1  0  0  0  0
  8  4  2  0  0  0  0
  9  1  2  0  0  0  0
 13  9  1  0  0  0  0
 14 19  1  0  0  0  0
 14 20  1  0  0  0  0
 15 14  2  0  0  0  0
 16 17  2  0  0  0  0
 16 15  1  0  0  0  0
 17 18  1  0  0  0  0
 18 22  1  0  0  0  0
 18 19  2  0  0  0  0
 21 15  1  0  0  0  0
 23  6  1  0  0  0  0
 24 30  1  0  0  0  0
 25 31  1  6  0  0  0
 25 24  1  0  0  0  0
 25 23  1  0  0  0  0
 26 33  1  0  0  0  0
 26 25  1  0  0  0  0
 27 28  1  0  0  0  0
 27 26  1  0  0  0  0
 28 34  1  0  0  0  0
 28 29  1  0  0  0  0
 29 36  1  6  0  0  0
 29 37  1  0  0  0  0
 29 24  1  0  0  0  0
 32 26  1  0  0  0  0
 35 28  1  0  0  0  0
 37 44  2  0  0  0  0
 38 40  2  0  0  0  0
 38 37  1  0  0  0  0
 39 38  1  0  0  0  0
 40 42  1  0  0  0  0
 41 40  1  0  0  0  0
 42 44  1  0  0  0  0
 42 43  1  0  0  0  0
M  END
>  <minimizedAffinity>
-6.08607674

>  <minimizedRMSD>
0.987982035

$$$$
