
 OpenBabel03262521503D

 31 33  0  0  1  0  0  0  0  0999 V2000
   35.7340   21.0460   35.9980 C   0  0  0  0  0  0  0  0  0  0  0  0
   35.6340   20.6700   34.6610 C   0  0  0  0  0  0  0  0  0  0  0  0
   36.6520   21.0890   33.8060 C   0  0  0  0  0  0  0  0  0  0  0  0
   37.6650   21.8300   34.3280 N   0  0  0  0  0  0  0  0  0  0  0  0
   37.7260   22.1760   35.6380 C   0  0  0  0  0  0  0  0  0  0  0  0
   36.7540   21.7790   36.4710 N   0  0  0  0  0  0  0  0  0  0  0  0
   38.8090   22.9410   36.0820 N   0  0  0  0  0  0  0  0  0  0  0  0
   39.2850   22.8380   37.4700 C   0  0  0  0  0  0  0  0  0  0  0  0
   40.7330   22.5430   37.4740 C   0  0  0  0  0  0  0  0  0  0  0  0
   41.4450   22.7860   36.2990 N   0  0  0  0  0  0  0  0  0  0  0  0
   40.9470   23.6970   35.3310 C   0  0  0  0  0  0  0  0  0  0  0  0
   39.4970   23.8570   35.1980 C   0  0  2  0  0  0  0  0  0  0  0  0
   34.9160   20.6890   36.5950 H   0  0  0  0  0  0  0  0  0  0  0  0
   34.8390   20.0870   34.2440 H   0  0  0  0  0  0  0  0  0  0  0  0
   36.6970   20.8650   32.7430 H   0  0  0  0  0  0  0  0  0  0  0  0
   39.0900   23.7930   38.0020 H   0  0  0  0  0  0  0  0  0  0  0  0
   38.7010   22.0580   38.0040 H   0  0  0  0  0  0  0  0  0  0  0  0
   41.2320   23.0940   38.3190 H   0  0  0  0  0  0  0  0  0  0  0  0
   40.8780   21.4650   37.7650 H   0  0  0  0  0  0  0  0  0  0  0  0
   42.4420   23.0010   36.4850 H   0  0  0  0  0  0  0  0  0  0  0  0
   41.4500   23.4110   34.3680 H   0  0  0  0  0  0  0  0  0  0  0  0
   41.4010   24.6850   35.5700 H   0  0  0  0  0  0  0  0  0  0  0  0
   39.2130   23.5980   34.1530 H   0  0  0  0  0  0  0  0  0  0  0  0
   39.0150   25.2590   35.3870 C   0  0  0  0  0  0  0  0  0  0  0  0
   37.8240   25.8960   35.6700 C   0  0  0  0  0  0  0  0  0  0  0  0
   36.9560   25.2650   35.8040 H   0  0  0  0  0  0  0  0  0  0  0  0
   38.0430   27.2580   35.7140 C   0  0  0  0  0  0  0  0  0  0  0  0
   37.2690   27.9550   35.9160 H   0  0  0  0  0  0  0  0  0  0  0  0
   39.3750   27.3840   35.4520 N   0  0  0  0  0  0  0  0  0  0  0  0
   39.8130   28.3470   35.4270 H   0  0  0  0  0  0  0  0  0  0  0  0
   39.9540   26.2220   35.2600 N   0  0  0  0  0  0  0  0  0  0  0  0
  1  6  1  0  0  0  0
  1 13  1  0  0  0  0
  2  1  2  0  0  0  0
  3  4  2  0  0  0  0
  3  2  1  0  0  0  0
  4  5  1  0  0  0  0
  5  7  1  0  0  0  0
  5  6  2  0  0  0  0
  7  8  1  0  0  0  0
  8  9  1  0  0  0  0
  8 16  1  0  0  0  0
  8 17  1  0  0  0  0
  9 19  1  0  0  0  0
  9 18  1  0  0  0  0
 10 20  1  0  0  0  0
 10  9  1  0  0  0  0
 11 22  1  0  0  0  0
 11 10  1  0  0  0  0
 12 23  1  6  0  0  0
 12 11  1  0  0  0  0
 12 24  1  0  0  0  0
 12  7  1  0  0  0  0
 14  2  1  0  0  0  0
 15  3  1  0  0  0  0
 21 11  1  0  0  0  0
 24 25  1  0  0  0  0
 25 27  2  0  0  0  0
 25 26  1  0  0  0  0
 27 28  1  0  0  0  0
 29 27  1  0  0  0  0
 30 29  1  0  0  0  0
 31 24  2  0  0  0  0
 31 29  1  0  0  0  0
M  END
>  <minimizedAffinity>
-4.95440388

$$$$

 OpenBabel03262521503D

 31 33  0  0  1  0  0  0  0  0999 V2000
   36.0940   23.1590   31.8660 C   0  0  0  0  0  0  0  0  0  0  0  0
   35.8650   24.5030   31.5850 C   0  0  0  0  0  0  0  0  0  0  0  0
   36.7290   25.4290   32.1660 C   0  0  0  0  0  0  0  0  0  0  0  0
   37.7300   24.9640   32.9600 N   0  0  0  0  0  0  0  0  0  0  0  0
   37.9190   23.6440   33.2100 C   0  0  0  0  0  0  0  0  0  0  0  0
   37.0950   22.7440   32.6580 N   0  0  0  0  0  0  0  0  0  0  0  0
   38.9770   23.2610   34.0410 N   0  0  0  0  0  0  0  0  0  0  0  0
   39.6260   21.9520   33.8800 C   0  0  0  0  0  0  0  0  0  0  0  0
   41.0830   22.1390   33.7280 C   0  0  0  0  0  0  0  0  0  0  0  0
   41.6230   23.3620   34.1280 N   0  0  0  0  0  0  0  0  0  0  0  0
   40.9320   24.1830   35.0580 C   0  0  0  0  0  0  0  0  0  0  0  0
   39.4680   24.1350   35.0850 C   0  0  2  0  0  0  0  0  0  0  0  0
   35.3890   22.5060   31.3860 H   0  0  0  0  0  0  0  0  0  0  0  0
   35.0800   24.8760   30.9610 H   0  0  0  0  0  0  0  0  0  0  0  0
   36.6650   26.5060   32.0290 H   0  0  0  0  0  0  0  0  0  0  0  0
   39.4140   21.3190   34.7670 H   0  0  0  0  0  0  0  0  0  0  0  0
   39.1830   21.4250   33.0070 H   0  0  0  0  0  0  0  0  0  0  0  0
   41.6320   21.3120   34.2590 H   0  0  0  0  0  0  0  0  0  0  0  0
   41.3580   21.9620   32.6510 H   0  0  0  0  0  0  0  0  0  0  0  0
   42.6120   23.2730   34.4260 H   0  0  0  0  0  0  0  0  0  0  0  0
   41.3370   25.2190   34.8970 H   0  0  0  0  0  0  0  0  0  0  0  0
   41.3230   23.9120   36.0640 H   0  0  0  0  0  0  0  0  0  0  0  0
   39.0830   25.1600   34.8800 H   0  0  0  0  0  0  0  0  0  0  0  0
   38.8910   23.7700   36.4150 C   0  0  0  0  0  0  0  0  0  0  0  0
   37.7090   23.9670   37.0990 C   0  0  0  0  0  0  0  0  0  0  0  0
   36.9430   24.5360   36.5900 H   0  0  0  0  0  0  0  0  0  0  0  0
   37.7990   23.3570   38.3330 C   0  0  0  0  0  0  0  0  0  0  0  0
   37.0060   23.3750   39.0390 H   0  0  0  0  0  0  0  0  0  0  0  0
   39.0480   22.8110   38.3390 N   0  0  0  0  0  0  0  0  0  0  0  0
   39.3790   22.2740   39.1890 H   0  0  0  0  0  0  0  0  0  0  0  0
   39.6950   23.0460   37.2230 N   0  0  0  0  0  0  0  0  0  0  0  0
  1  6  1  0  0  0  0
  2  1  2  0  0  0  0
  2  3  1  0  0  0  0
  3  4  2  0  0  0  0
  4  5  1  0  0  0  0
  5  7  1  0  0  0  0
  6  5  2  0  0  0  0
  7 12  1  0  0  0  0
  8  7  1  0  0  0  0
  8 16  1  0  0  0  0
  9  8  1  0  0  0  0
  9 10  1  0  0  0  0
  9 18  1  0  0  0  0
 10 20  1  0  0  0  0
 10 11  1  0  0  0  0
 11 12  1  0  0  0  0
 11 22  1  0  0  0  0
 12 23  1  6  0  0  0
 12 24  1  0  0  0  0
 13  1  1  0  0  0  0
 14  2  1  0  0  0  0
 15  3  1  0  0  0  0
 17  8  1  0  0  0  0
 19  9  1  0  0  0  0
 21 11  1  0  0  0  0
 24 25  1  0  0  0  0
 24 31  2  0  0  0  0
 25 27  2  0  0  0  0
 26 25  1  0  0  0  0
 27 29  1  0  0  0  0
 27 28  1  0  0  0  0
 29 30  1  0  0  0  0
 31 29  1  0  0  0  0
M  END
>  <minimizedAffinity>
-4.79567003

$$$$

 OpenBabel03262521503D

 31 33  0  0  1  0  0  0  0  0999 V2000
   36.9250   26.5820   32.6410 C   0  0  0  0  0  0  0  0  0  0  0  0
   37.9530   27.5090   32.4880 C   0  0  0  0  0  0  0  0  0  0  0  0
   39.2180   27.1350   32.9390 C   0  0  0  0  0  0  0  0  0  0  0  0
   39.3630   25.9010   33.4930 N   0  0  0  0  0  0  0  0  0  0  0  0
   38.3340   25.0260   33.6240 C   0  0  0  0  0  0  0  0  0  0  0  0
   37.1140   25.3740   33.1940 N   0  0  0  0  0  0  0  0  0  0  0  0
   38.5820   23.7790   34.2070 N   0  0  0  0  0  0  0  0  0  0  0  0
   37.7730   22.6050   33.8450 C   0  0  0  0  0  0  0  0  0  0  0  0
   38.6640   21.5060   33.4200 C   0  0  0  0  0  0  0  0  0  0  0  0
   40.0100   21.5900   33.7750 N   0  0  0  0  0  0  0  0  0  0  0  0
   40.4160   22.3990   34.8690 C   0  0  0  0  0  0  0  0  0  0  0  0
   39.6360   23.6000   35.1810 C   0  0  2  0  0  0  0  0  0  0  0  0
   35.9820   26.9410   32.2720 H   0  0  0  0  0  0  0  0  0  0  0  0
   37.8460   28.4810   32.0540 H   0  0  0  0  0  0  0  0  0  0  0  0
   40.1050   27.7600   32.8800 H   0  0  0  0  0  0  0  0  0  0  0  0
   37.1670   22.2880   34.7190 H   0  0  0  0  0  0  0  0  0  0  0  0
   37.0510   22.8850   33.0480 H   0  0  0  0  0  0  0  0  0  0  0  0
   38.2550   20.5220   33.7830 H   0  0  0  0  0  0  0  0  0  0  0  0
   38.5940   21.4000   32.3010 H   0  0  0  0  0  0  0  0  0  0  0  0
   40.4490   20.6550   33.8660 H   0  0  0  0  0  0  0  0  0  0  0  0
   41.5050   22.6140   34.6910 H   0  0  0  0  0  0  0  0  0  0  0  0
   40.4310   21.7340   35.7610 H   0  0  0  0  0  0  0  0  0  0  0  0
   40.3140   24.4810   35.1160 H   0  0  0  0  0  0  0  0  0  0  0  0
   39.0980   23.6360   36.5750 C   0  0  0  0  0  0  0  0  0  0  0  0
   38.1500   24.3460   37.2820 C   0  0  0  0  0  0  0  0  0  0  0  0
   37.6070   25.1060   36.7360 H   0  0  0  0  0  0  0  0  0  0  0  0
   38.1260   23.8900   38.5840 C   0  0  0  0  0  0  0  0  0  0  0  0
   37.4710   24.2900   39.3180 H   0  0  0  0  0  0  0  0  0  0  0  0
   39.0740   22.9110   38.6060 N   0  0  0  0  0  0  0  0  0  0  0  0
   39.2610   22.3850   39.5050 H   0  0  0  0  0  0  0  0  0  0  0  0
   39.6480   22.7530   37.4370 N   0  0  0  0  0  0  0  0  0  0  0  0
  1  6  1  0  0  0  0
  2  1  2  0  0  0  0
  2  3  1  0  0  0  0
  3  4  2  0  0  0  0
  4  5  1  0  0  0  0
  5  7  1  0  0  0  0
  6  5  2  0  0  0  0
  7 12  1  0  0  0  0
  8  7  1  0  0  0  0
  8 16  1  0  0  0  0
  9 10  1  0  0  0  0
  9 18  1  0  0  0  0
  9  8  1  0  0  0  0
 10 20  1  0  0  0  0
 10 11  1  0  0  0  0
 11 12  1  0  0  0  0
 11 22  1  0  0  0  0
 12 23  1  6  0  0  0
 12 24  1  0  0  0  0
 13  1  1  0  0  0  0
 14  2  1  0  0  0  0
 15  3  1  0  0  0  0
 17  8  1  0  0  0  0
 19  9  1  0  0  0  0
 21 11  1  0  0  0  0
 24 25  1  0  0  0  0
 24 31  2  0  0  0  0
 25 27  2  0  0  0  0
 26 25  1  0  0  0  0
 27 29  1  0  0  0  0
 27 28  1  0  0  0  0
 29 30  1  0  0  0  0
 31 29  1  0  0  0  0
M  END
>  <minimizedAffinity>
-4.74989796

$$$$

 OpenBabel03262521503D

 31 33  0  0  1  0  0  0  0  0999 V2000
   39.1550   23.7710   30.9830 C   0  0  0  0  0  0  0  0  0  0  0  0
   37.9050   23.1900   30.7830 C   0  0  0  0  0  0  0  0  0  0  0  0
   37.0380   23.1580   31.8730 C   0  0  0  0  0  0  0  0  0  0  0  0
   37.4640   23.6910   33.0500 N   0  0  0  0  0  0  0  0  0  0  0  0
   38.6920   24.2490   33.2040 C   0  0  0  0  0  0  0  0  0  0  0  0
   39.5340   24.2860   32.1630 N   0  0  0  0  0  0  0  0  0  0  0  0
   39.0400   24.7720   34.4540 N   0  0  0  0  0  0  0  0  0  0  0  0
   39.9980   25.8820   34.5640 C   0  0  0  0  0  0  0  0  0  0  0  0
   39.3940   26.9770   35.3500 C   0  0  0  0  0  0  0  0  0  0  0  0
   38.2840   26.6720   36.1360 N   0  0  0  0  0  0  0  0  0  0  0  0
   38.0380   25.3360   36.5470 C   0  0  0  0  0  0  0  0  0  0  0  0
   38.4760   24.2420   35.6750 C   0  0  2  0  0  0  0  0  0  0  0  0
   39.7670   23.7590   30.1010 H   0  0  0  0  0  0  0  0  0  0  0  0
   37.5630   22.7690   29.8610 H   0  0  0  0  0  0  0  0  0  0  0  0
   36.0350   22.7370   31.8550 H   0  0  0  0  0  0  0  0  0  0  0  0
   40.9260   25.5250   35.0580 H   0  0  0  0  0  0  0  0  0  0  0  0
   40.2960   26.2160   33.5460 H   0  0  0  0  0  0  0  0  0  0  0  0
   40.1780   27.4560   36.0010 H   0  0  0  0  0  0  0  0  0  0  0  0
   39.1180   27.8130   34.6470 H   0  0  0  0  0  0  0  0  0  0  0  0
   38.2040   27.2990   36.9590 H   0  0  0  0  0  0  0  0  0  0  0  0
   36.9420   25.2960   36.7890 H   0  0  0  0  0  0  0  0  0  0  0  0
   38.5220   25.2210   37.5430 H   0  0  0  0  0  0  0  0  0  0  0  0
   37.5820   23.6360   35.4030 H   0  0  0  0  0  0  0  0  0  0  0  0
   39.4070   23.2720   36.3290 C   0  0  0  0  0  0  0  0  0  0  0  0
   40.4300   22.4280   35.9460 C   0  0  0  0  0  0  0  0  0  0  0  0
   40.6780   22.4130   34.8940 H   0  0  0  0  0  0  0  0  0  0  0  0
   40.9110   21.7730   37.0610 C   0  0  0  0  0  0  0  0  0  0  0  0
   41.7030   21.0690   37.0130 H   0  0  0  0  0  0  0  0  0  0  0  0
   40.1470   22.2570   38.0810 N   0  0  0  0  0  0  0  0  0  0  0  0
   40.3140   21.9120   39.0680 H   0  0  0  0  0  0  0  0  0  0  0  0
   39.2650   23.1350   37.6650 N   0  0  0  0  0  0  0  0  0  0  0  0
  1  6  1  0  0  0  0
  2  1  2  0  0  0  0
  2  3  1  0  0  0  0
  3  4  2  0  0  0  0
  4  5  1  0  0  0  0
  5  7  1  0  0  0  0
  6  5  2  0  0  0  0
  7  8  1  0  0  0  0
  7 12  1  0  0  0  0
  8 16  1  0  0  0  0
  8  9  1  0  0  0  0
  9 18  1  0  0  0  0
  9 10  1  0  0  0  0
 10 11  1  0  0  0  0
 10 20  1  0  0  0  0
 11 21  1  0  0  0  0
 11 22  1  0  0  0  0
 12 23  1  6  0  0  0
 12 24  1  0  0  0  0
 12 11  1  0  0  0  0
 13  1  1  0  0  0  0
 14  2  1  0  0  0  0
 15  3  1  0  0  0  0
 17  8  1  0  0  0  0
 19  9  1  0  0  0  0
 24 31  2  0  0  0  0
 25 24  1  0  0  0  0
 25 27  2  0  0  0  0
 26 25  1  0  0  0  0
 27 29  1  0  0  0  0
 28 27  1  0  0  0  0
 29 30  1  0  0  0  0
 31 29  1  0  0  0  0
M  END
>  <minimizedAffinity>
-4.70032501

$$$$

 OpenBabel03262521503D

 31 33  0  0  1  0  0  0  0  0999 V2000
   39.5160   22.7140   37.6990 C   0  0  0  0  0  0  0  0  0  0  0  0
   38.7770   23.4440   38.6270 C   0  0  0  0  0  0  0  0  0  0  0  0
   38.0270   24.5130   38.1420 C   0  0  0  0  0  0  0  0  0  0  0  0
   38.0640   24.7710   36.8080 N   0  0  0  0  0  0  0  0  0  0  0  0
   38.7970   24.0350   35.9350 C   0  0  0  0  0  0  0  0  0  0  0  0
   39.5230   23.0050   36.3890 N   0  0  0  0  0  0  0  0  0  0  0  0
   38.7710   24.3780   34.5790 N   0  0  0  0  0  0  0  0  0  0  0  0
   38.9830   23.3570   33.5410 C   0  0  0  0  0  0  0  0  0  0  0  0
   37.8610   23.3930   32.5800 C   0  0  0  0  0  0  0  0  0  0  0  0
   37.0610   24.5350   32.5620 N   0  0  0  0  0  0  0  0  0  0  0  0
   37.5550   25.7680   33.0640 C   0  0  0  0  0  0  0  0  0  0  0  0
   38.5380   25.7400   34.1510 C   0  0  2  0  0  0  0  0  0  0  0  0
   40.0680   21.9090   38.1450 H   0  0  0  0  0  0  0  0  0  0  0  0
   38.7440   23.2460   39.6790 H   0  0  0  0  0  0  0  0  0  0  0  0
   37.4070   25.1620   38.7560 H   0  0  0  0  0  0  0  0  0  0  0  0
   39.9410   23.5550   33.0150 H   0  0  0  0  0  0  0  0  0  0  0  0
   39.0880   22.3600   34.0190 H   0  0  0  0  0  0  0  0  0  0  0  0
   38.2450   23.2050   31.5380 H   0  0  0  0  0  0  0  0  0  0  0  0
   37.2040   22.4970   32.7620 H   0  0  0  0  0  0  0  0  0  0  0  0
   36.6320   24.6970   31.6320 H   0  0  0  0  0  0  0  0  0  0  0  0
   36.6430   26.3760   33.3100 H   0  0  0  0  0  0  0  0  0  0  0  0
   37.9920   26.3070   32.1940 H   0  0  0  0  0  0  0  0  0  0  0  0
   38.1160   26.3010   35.0150 H   0  0  0  0  0  0  0  0  0  0  0  0
   39.8220   26.4370   33.8350 C   0  0  0  0  0  0  0  0  0  0  0  0
   40.3850   27.0930   32.7600 C   0  0  0  0  0  0  0  0  0  0  0  0
   39.7850   27.1560   31.8620 H   0  0  0  0  0  0  0  0  0  0  0  0
   41.6450   27.5320   33.1110 C   0  0  0  0  0  0  0  0  0  0  0  0
   42.2720   28.0650   32.4420 H   0  0  0  0  0  0  0  0  0  0  0  0
   41.7890   27.1150   34.4020 N   0  0  0  0  0  0  0  0  0  0  0  0
   42.6850   27.3270   34.9220 H   0  0  0  0  0  0  0  0  0  0  0  0
   40.7290   26.4750   34.8350 N   0  0  0  0  0  0  0  0  0  0  0  0
  1 13  1  0  0  0  0
  1  2  1  0  0  0  0
  2 14  1  0  0  0  0
  3  2  2  0  0  0  0
  3 15  1  0  0  0  0
  4  3  1  0  0  0  0
  5  6  1  0  0  0  0
  5  4  2  0  0  0  0
  6  1  2  0  0  0  0
  7  5  1  0  0  0  0
  8 17  1  0  0  0  0
  8  7  1  0  0  0  0
  9 19  1  0  0  0  0
  9  8  1  0  0  0  0
 10  9  1  0  0  0  0
 10 11  1  0  0  0  0
 11 21  1  0  0  0  0
 11 12  1  0  0  0  0
 12  7  1  0  0  0  0
 12 23  1  1  0  0  0
 16  8  1  0  0  0  0
 18  9  1  0  0  0  0
 20 10  1  0  0  0  0
 22 11  1  0  0  0  0
 24 12  1  0  0  0  0
 24 31  2  0  0  0  0
 25 27  2  0  0  0  0
 25 24  1  0  0  0  0
 26 25  1  0  0  0  0
 27 29  1  0  0  0  0
 28 27  1  0  0  0  0
 29 31  1  0  0  0  0
 29 30  1  0  0  0  0
M  END
>  <minimizedAffinity>
-4.69956303

$$$$

 OpenBabel03262521503D

 31 33  0  0  1  0  0  0  0  0999 V2000
   36.9800   27.7600   34.4790 C   0  0  0  0  0  0  0  0  0  0  0  0
   36.7300   27.5190   33.1300 C   0  0  0  0  0  0  0  0  0  0  0  0
   37.0470   26.2530   32.6410 C   0  0  0  0  0  0  0  0  0  0  0  0
   37.5740   25.3450   33.5050 N   0  0  0  0  0  0  0  0  0  0  0  0
   37.8030   25.6180   34.8140 C   0  0  0  0  0  0  0  0  0  0  0  0
   37.5030   26.8320   35.2960 N   0  0  0  0  0  0  0  0  0  0  0  0
   38.3490   24.6180   35.6250 N   0  0  0  0  0  0  0  0  0  0  0  0
   38.0640   24.5790   37.0670 C   0  0  0  0  0  0  0  0  0  0  0  0
   37.5430   23.2450   37.4300 C   0  0  0  0  0  0  0  0  0  0  0  0
   37.7600   22.2000   36.5320 N   0  0  0  0  0  0  0  0  0  0  0  0
   38.8110   22.2750   35.5810 C   0  0  0  0  0  0  0  0  0  0  0  0
   39.2100   23.5920   35.0780 C   0  0  2  0  0  0  0  0  0  0  0  0
   36.7120   28.7540   34.7820 H   0  0  0  0  0  0  0  0  0  0  0  0
   36.3150   28.2290   32.4450 H   0  0  0  0  0  0  0  0  0  0  0  0
   36.9020   25.9340   31.6120 H   0  0  0  0  0  0  0  0  0  0  0  0
   38.9930   24.7930   37.6360 H   0  0  0  0  0  0  0  0  0  0  0  0
   37.3470   25.3890   37.3240 H   0  0  0  0  0  0  0  0  0  0  0  0
   37.9390   22.9420   38.4390 H   0  0  0  0  0  0  0  0  0  0  0  0
   36.4360   23.3320   37.6190 H   0  0  0  0  0  0  0  0  0  0  0  0
   37.7980   21.2790   37.0070 H   0  0  0  0  0  0  0  0  0  0  0  0
   38.5250   21.5580   34.7640 H   0  0  0  0  0  0  0  0  0  0  0  0
   39.6930   21.7840   36.0510 H   0  0  0  0  0  0  0  0  0  0  0  0
   39.0820   23.5940   33.9710 H   0  0  0  0  0  0  0  0  0  0  0  0
   40.6520   23.9200   35.2940 C   0  0  0  0  0  0  0  0  0  0  0  0
   41.5500   24.8820   34.8790 C   0  0  0  0  0  0  0  0  0  0  0  0
   41.1720   25.6410   34.2070 H   0  0  0  0  0  0  0  0  0  0  0  0
   42.7790   24.6270   35.4530 C   0  0  0  0  0  0  0  0  0  0  0  0
   43.6290   25.2370   35.2770 H   0  0  0  0  0  0  0  0  0  0  0  0
   42.5650   23.5060   36.1990 N   0  0  0  0  0  0  0  0  0  0  0  0
   43.3630   23.0900   36.7550 H   0  0  0  0  0  0  0  0  0  0  0  0
   41.3250   23.0850   36.1150 N   0  0  0  0  0  0  0  0  0  0  0  0
  1 13  1  0  0  0  0
  1  6  1  0  0  0  0
  2  1  2  0  0  0  0
  3  2  1  0  0  0  0
  3  4  2  0  0  0  0
  4  5  1  0  0  0  0
  5  6  2  0  0  0  0
  5  7  1  0  0  0  0
  7  8  1  0  0  0  0
  8 17  1  0  0  0  0
  8  9  1  0  0  0  0
  8 16  1  0  0  0  0
  9 19  1  0  0  0  0
  9 18  1  0  0  0  0
 10 20  1  0  0  0  0
 10  9  1  0  0  0  0
 11 22  1  0  0  0  0
 11 10  1  0  0  0  0
 12 23  1  6  0  0  0
 12 24  1  0  0  0  0
 12 11  1  0  0  0  0
 12  7  1  0  0  0  0
 14  2  1  0  0  0  0
 15  3  1  0  0  0  0
 21 11  1  0  0  0  0
 24 31  2  0  0  0  0
 25 24  1  0  0  0  0
 25 27  2  0  0  0  0
 26 25  1  0  0  0  0
 27 29  1  0  0  0  0
 28 27  1  0  0  0  0
 29 30  1  0  0  0  0
 31 29  1  0  0  0  0
M  END
>  <minimizedAffinity>
-4.67490911

$$$$

 OpenBabel03262521503D

 31 33  0  0  1  0  0  0  0  0999 V2000
   41.7580   25.8410   33.6160 C   0  0  0  0  0  0  0  0  0  0  0  0
   41.0830   27.0500   33.7600 C   0  0  0  0  0  0  0  0  0  0  0  0
   39.9740   27.0620   34.6030 C   0  0  0  0  0  0  0  0  0  0  0  0
   39.6270   25.9030   35.2240 N   0  0  0  0  0  0  0  0  0  0  0  0
   40.3120   24.7430   35.0570 C   0  0  0  0  0  0  0  0  0  0  0  0
   41.3800   24.7200   34.2490 N   0  0  0  0  0  0  0  0  0  0  0  0
   39.8780   23.6020   35.7390 N   0  0  0  0  0  0  0  0  0  0  0  0
   40.8290   22.5460   36.1190 C   0  0  0  0  0  0  0  0  0  0  0  0
   40.7130   22.2770   37.5670 C   0  0  0  0  0  0  0  0  0  0  0  0
   39.5620   22.7210   38.2170 N   0  0  0  0  0  0  0  0  0  0  0  0
   38.3730   22.9720   37.4830 C   0  0  0  0  0  0  0  0  0  0  0  0
   38.4870   23.4190   36.0920 C   0  0  2  0  0  0  0  0  0  0  0  0
   42.6000   25.9090   32.9520 H   0  0  0  0  0  0  0  0  0  0  0  0
   41.3510   27.9660   33.2750 H   0  0  0  0  0  0  0  0  0  0  0  0
   39.3590   27.9360   34.8050 H   0  0  0  0  0  0  0  0  0  0  0  0
   40.6090   21.6230   35.5420 H   0  0  0  0  0  0  0  0  0  0  0  0
   41.8580   22.8550   35.8350 H   0  0  0  0  0  0  0  0  0  0  0  0
   40.8350   21.1750   37.7620 H   0  0  0  0  0  0  0  0  0  0  0  0
   41.6100   22.7170   38.0860 H   0  0  0  0  0  0  0  0  0  0  0  0
   39.3320   22.1390   39.0440 H   0  0  0  0  0  0  0  0  0  0  0  0
   37.7710   23.6720   38.1240 H   0  0  0  0  0  0  0  0  0  0  0  0
   37.7820   22.0290   37.5140 H   0  0  0  0  0  0  0  0  0  0  0  0
   37.9800   24.4060   36.0020 H   0  0  0  0  0  0  0  0  0  0  0  0
   37.7870   22.5400   35.1060 C   0  0  0  0  0  0  0  0  0  0  0  0
   37.7930   22.3360   33.7420 C   0  0  0  0  0  0  0  0  0  0  0  0
   38.4690   22.9500   33.1620 H   0  0  0  0  0  0  0  0  0  0  0  0
   36.8840   21.3450   33.4330 C   0  0  0  0  0  0  0  0  0  0  0  0
   36.7140   21.0150   32.4380 H   0  0  0  0  0  0  0  0  0  0  0  0
   36.3630   20.9890   34.6410 N   0  0  0  0  0  0  0  0  0  0  0  0
   35.6270   20.2310   34.6900 H   0  0  0  0  0  0  0  0  0  0  0  0
   36.8840   21.6810   35.6270 N   0  0  0  0  0  0  0  0  0  0  0  0
  1  2  2  0  0  0  0
  1  6  1  0  0  0  0
  2  3  1  0  0  0  0
  3 15  1  0  0  0  0
  3  4  2  0  0  0  0
  5  4  1  0  0  0  0
  5  7  1  0  0  0  0
  6  5  2  0  0  0  0
  7 12  1  0  0  0  0
  7  8  1  0  0  0  0
  8  9  1  0  0  0  0
  9 18  1  0  0  0  0
  9 19  1  0  0  0  0
  9 10  1  0  0  0  0
 10 20  1  0  0  0  0
 11 22  1  0  0  0  0
 11 21  1  0  0  0  0
 11 10  1  0  0  0  0
 12 23  1  6  0  0  0
 12 11  1  0  0  0  0
 13  1  1  0  0  0  0
 14  2  1  0  0  0  0
 16  8  1  0  0  0  0
 17  8  1  0  0  0  0
 24 31  2  0  0  0  0
 24 12  1  0  0  0  0
 25 24  1  0  0  0  0
 26 25  1  0  0  0  0
 27 25  2  0  0  0  0
 27 29  1  0  0  0  0
 28 27  1  0  0  0  0
 29 30  1  0  0  0  0
 29 31  1  0  0  0  0
M  END
>  <minimizedAffinity>
-4.60678625

$$$$

 OpenBabel03262521503D

 31 33  0  0  1  0  0  0  0  0999 V2000
   37.9660   24.2800   37.9410 C   0  0  0  0  0  0  0  0  0  0  0  0
   38.9360   23.3710   38.3560 C   0  0  0  0  0  0  0  0  0  0  0  0
   39.6390   22.6940   37.3610 C   0  0  0  0  0  0  0  0  0  0  0  0
   39.3360   22.9640   36.0630 N   0  0  0  0  0  0  0  0  0  0  0  0
   38.3830   23.8580   35.7000 C   0  0  0  0  0  0  0  0  0  0  0  0
   37.6990   24.5150   36.6470 N   0  0  0  0  0  0  0  0  0  0  0  0
   38.1420   24.0680   34.3380 N   0  0  0  0  0  0  0  0  0  0  0  0
   37.6410   25.3630   33.8530 C   0  0  0  0  0  0  0  0  0  0  0  0
   38.5310   25.8670   32.7870 C   0  0  0  0  0  0  0  0  0  0  0  0
   39.3870   24.9530   32.1740 N   0  0  0  0  0  0  0  0  0  0  0  0
   39.1010   23.5630   32.2100 C   0  0  0  0  0  0  0  0  0  0  0  0
   38.3740   23.0250   33.3630 C   0  0  2  0  0  0  0  0  0  0  0  0
   37.4660   24.7600   38.7610 H   0  0  0  0  0  0  0  0  0  0  0  0
   39.1790   23.1540   39.3750 H   0  0  0  0  0  0  0  0  0  0  0  0
   40.4210   21.9610   37.5460 H   0  0  0  0  0  0  0  0  0  0  0  0
   36.6090   25.2400   33.4620 H   0  0  0  0  0  0  0  0  0  0  0  0
   37.5700   26.0740   34.7040 H   0  0  0  0  0  0  0  0  0  0  0  0
   37.9200   26.3790   31.9910 H   0  0  0  0  0  0  0  0  0  0  0  0
   39.1470   26.7130   33.2030 H   0  0  0  0  0  0  0  0  0  0  0  0
   39.6180   25.2260   31.2000 H   0  0  0  0  0  0  0  0  0  0  0  0
   40.0860   23.0520   32.0310 H   0  0  0  0  0  0  0  0  0  0  0  0
   38.5280   23.3380   31.2820 H   0  0  0  0  0  0  0  0  0  0  0  0
   39.0100   22.2460   33.8420 H   0  0  0  0  0  0  0  0  0  0  0  0
   37.1060   22.3170   33.0120 C   0  0  0  0  0  0  0  0  0  0  0  0
   36.1460   22.3790   32.0230 C   0  0  0  0  0  0  0  0  0  0  0  0
   36.2880   23.1290   31.2560 H   0  0  0  0  0  0  0  0  0  0  0  0
   35.1850   21.4190   32.2680 C   0  0  0  0  0  0  0  0  0  0  0  0
   34.3430   21.2790   31.6380 H   0  0  0  0  0  0  0  0  0  0  0  0
   35.6150   20.8110   33.4100 N   0  0  0  0  0  0  0  0  0  0  0  0
   35.0480   20.0190   33.8250 H   0  0  0  0  0  0  0  0  0  0  0  0
   36.7360   21.3270   33.8540 N   0  0  0  0  0  0  0  0  0  0  0  0
  1  2  1  0  0  0  0
  1 13  1  0  0  0  0
  2 14  1  0  0  0  0
  3 15  1  0  0  0  0
  3  2  2  0  0  0  0
  4  3  1  0  0  0  0
  5  4  2  0  0  0  0
  5  6  1  0  0  0  0
  6  1  2  0  0  0  0
  7  5  1  0  0  0  0
  8  7  1  0  0  0  0
  8 17  1  0  0  0  0
  9 19  1  0  0  0  0
  9  8  1  0  0  0  0
 10 11  1  0  0  0  0
 10  9  1  0  0  0  0
 11 12  1  0  0  0  0
 12 23  1  1  0  0  0
 12  7  1  0  0  0  0
 16  8  1  0  0  0  0
 18  9  1  0  0  0  0
 20 10  1  0  0  0  0
 21 11  1  0  0  0  0
 22 11  1  0  0  0  0
 24 12  1  0  0  0  0
 24 31  2  0  0  0  0
 25 27  2  0  0  0  0
 25 24  1  0  0  0  0
 26 25  1  0  0  0  0
 27 29  1  0  0  0  0
 28 27  1  0  0  0  0
 29 30  1  0  0  0  0
 29 31  1  0  0  0  0
M  END
>  <minimizedAffinity>
-4.60005522

$$$$

 OpenBabel03262521503D

 31 33  0  0  1  0  0  0  0  0999 V2000
   38.1410   22.8040   30.6260 C   0  0  0  0  0  0  0  0  0  0  0  0
   36.9900   22.1090   30.9900 C   0  0  0  0  0  0  0  0  0  0  0  0
   35.9550   22.8490   31.5590 C   0  0  0  0  0  0  0  0  0  0  0  0
   36.1340   24.1880   31.7190 N   0  0  0  0  0  0  0  0  0  0  0  0
   37.2730   24.8280   31.3500 C   0  0  0  0  0  0  0  0  0  0  0  0
   38.2750   24.1270   30.8030 N   0  0  0  0  0  0  0  0  0  0  0  0
   37.3640   26.2080   31.5550 N   0  0  0  0  0  0  0  0  0  0  0  0
   38.2040   27.0440   30.6830 C   0  0  0  0  0  0  0  0  0  0  0  0
   37.3960   28.1520   30.1360 C   0  0  0  0  0  0  0  0  0  0  0  0
   36.1940   28.4530   30.7760 N   0  0  0  0  0  0  0  0  0  0  0  0
   35.9820   28.0710   32.1270 C   0  0  0  0  0  0  0  0  0  0  0  0
   36.6420   26.8600   32.6250 C   0  0  2  0  0  0  0  0  0  0  0  0
   38.8920   22.1690   30.1970 H   0  0  0  0  0  0  0  0  0  0  0  0
   36.8410   21.0570   30.8670 H   0  0  0  0  0  0  0  0  0  0  0  0
   35.0040   22.4340   31.8860 H   0  0  0  0  0  0  0  0  0  0  0  0
   39.0590   27.4480   31.2670 H   0  0  0  0  0  0  0  0  0  0  0  0
   38.6440   26.4150   29.8800 H   0  0  0  0  0  0  0  0  0  0  0  0
   38.0190   29.0880   30.0800 H   0  0  0  0  0  0  0  0  0  0  0  0
   37.1810   27.9380   29.0510 H   0  0  0  0  0  0  0  0  0  0  0  0
   35.9290   29.4500   30.6610 H   0  0  0  0  0  0  0  0  0  0  0  0
   34.8660   28.0510   32.2590 H   0  0  0  0  0  0  0  0  0  0  0  0
   36.2960   28.9380   32.7490 H   0  0  0  0  0  0  0  0  0  0  0  0
   35.8550   26.1580   32.9820 H   0  0  0  0  0  0  0  0  0  0  0  0
   37.5180   27.0860   33.8140 C   0  0  0  0  0  0  0  0  0  0  0  0
   38.7880   26.7330   34.2240 C   0  0  0  0  0  0  0  0  0  0  0  0
   39.3650   26.1230   33.5430 H   0  0  0  0  0  0  0  0  0  0  0  0
   39.0230   27.2740   35.4710 C   0  0  0  0  0  0  0  0  0  0  0  0
   39.9380   27.1360   35.9910 H   0  0  0  0  0  0  0  0  0  0  0  0
   37.8690   27.9380   35.7640 N   0  0  0  0  0  0  0  0  0  0  0  0
   37.7820   28.4540   36.6830 H   0  0  0  0  0  0  0  0  0  0  0  0
   36.9820   27.8360   34.8020 N   0  0  0  0  0  0  0  0  0  0  0  0
  1  6  2  0  0  0  0
  1  2  1  0  0  0  0
  2  3  2  0  0  0  0
  3  4  1  0  0  0  0
  3 15  1  0  0  0  0
  5  7  1  0  0  0  0
  5  4  2  0  0  0  0
  6  5  1  0  0  0  0
  7 12  1  0  0  0  0
  8 16  1  0  0  0  0
  8  7  1  0  0  0  0
  9  8  1  0  0  0  0
  9 10  1  0  0  0  0
 10 11  1  0  0  0  0
 11 21  1  0  0  0  0
 11 12  1  0  0  0  0
 11 22  1  0  0  0  0
 12 23  1  1  0  0  0
 12 24  1  0  0  0  0
 13  1  1  0  0  0  0
 14  2  1  0  0  0  0
 17  8  1  0  0  0  0
 18  9  1  0  0  0  0
 19  9  1  0  0  0  0
 20 10  1  0  0  0  0
 24 25  1  0  0  0  0
 24 31  2  0  0  0  0
 25 27  2  0  0  0  0
 26 25  1  0  0  0  0
 27 29  1  0  0  0  0
 27 28  1  0  0  0  0
 29 30  1  0  0  0  0
 31 29  1  0  0  0  0
M  END
>  <minimizedAffinity>
-4.44341516

$$$$
