
 OpenBabel03272509523D

 42 45  0  0  0  0  0  0  0  0999 V2000
   34.4710   28.6340   48.1600 C   0  0  0  0  0  0  0  0  0  0  0  0
   35.2930   28.8530   47.4650 H   0  0  0  0  0  0  0  0  0  0  0  0
   33.8170   29.5470   48.2500 H   0  0  0  0  0  0  0  0  0  0  0  0
   33.5900   27.5140   47.7120 C   0  0  0  0  0  0  0  0  0  0  0  0
   33.7730   26.5660   48.2530 H   0  0  0  0  0  0  0  0  0  0  0  0
   33.8210   27.3150   46.6360 H   0  0  0  0  0  0  0  0  0  0  0  0
   32.1430   27.8570   47.7450 C   0  0  0  0  0  0  0  0  0  0  0  0
   31.3870   27.3380   48.7860 C   0  0  0  0  0  0  0  0  0  0  0  0
   30.0520   27.5860   48.9180 C   0  0  0  0  0  0  0  0  0  0  0  0
   29.4590   28.3490   48.0200 N   0  0  0  0  0  0  0  0  0  0  0  0
   30.1970   28.8690   46.9830 C   0  0  0  0  0  0  0  0  0  0  0  0
   31.5230   28.6340   46.8370 N   0  0  0  0  0  0  0  0  0  0  0  0
   31.8730   26.7050   49.5330 H   0  0  0  0  0  0  0  0  0  0  0  0
   29.4490   27.1860   49.7290 H   0  0  0  0  0  0  0  0  0  0  0  0
   29.5670   29.7170   45.9740 C   0  0  0  0  0  0  0  0  0  0  0  0
   30.3750   30.4780   45.1230 C   0  0  0  0  0  0  0  0  0  0  0  0
   31.4590   30.5910   45.0340 H   0  0  0  0  0  0  0  0  0  0  0  0
   29.5180   31.1820   44.2710 C   0  0  0  0  0  0  0  0  0  0  0  0
   29.6900   31.8810   43.4680 H   0  0  0  0  0  0  0  0  0  0  0  0
   28.2630   30.8380   44.6220 N   0  0  0  0  0  0  0  0  0  0  0  0
   27.3600   31.1870   44.1820 H   0  0  0  0  0  0  0  0  0  0  0  0
   28.2850   29.9630   45.6390 N   0  0  0  0  0  0  0  0  0  0  0  0
   34.9970   28.3700   49.4630 O   0  0  0  0  0  0  0  0  0  0  0  0
   37.3380   30.1740   51.5260 C   0  0  0  0  0  0  0  0  0  0  0  0
   38.0780   30.8700   50.5210 C   0  0  0  0  0  0  0  0  0  0  0  0
   37.7060   30.6590   49.1990 C   0  0  0  0  0  0  0  0  0  0  0  0
   36.6650   29.8040   48.9810 N   0  0  0  0  0  0  0  0  0  0  0  0
   35.9930   29.1680   49.9460 C   0  0  0  0  0  0  0  0  0  0  0  0
   36.3350   29.3580   51.2270 N   0  0  0  0  0  0  0  0  0  0  0  0
   37.6890   30.3920   52.5260 H   0  0  0  0  0  0  0  0  0  0  0  0
   38.8870   31.5320   50.7160 H   0  0  0  0  0  0  0  0  0  0  0  0
   38.9360   33.2730   49.0180 F   0  0  0  0  0  0  0  0  0  0  0  0
   38.9140   32.4890   47.9550 C   0  0  0  0  0  0  0  0  0  0  0  0
   38.3350   31.2720   48.0610 C   0  0  0  0  0  0  0  0  0  0  0  0
   38.3670   30.5250   46.8790 C   0  0  0  0  0  0  0  0  0  0  0  0
   38.9400   30.9940   45.7150 C   0  0  0  0  0  0  0  0  0  0  0  0
   39.5160   32.2390   45.6570 C   0  0  0  0  0  0  0  0  0  0  0  0
   39.4950   32.9870   46.8050 C   0  0  0  0  0  0  0  0  0  0  0  0
   37.9350   29.5230   46.8240 H   0  0  0  0  0  0  0  0  0  0  0  0
   38.9440   30.3840   44.8210 H   0  0  0  0  0  0  0  0  0  0  0  0
   39.9600   32.6020   44.7530 H   0  0  0  0  0  0  0  0  0  0  0  0
   39.9430   33.9680   46.7800 H   0  0  0  0  0  0  0  0  0  0  0  0
  1  3  1  0  0  0  0
  1 23  1  0  0  0  0
  2  1  1  0  0  0  0
  4  7  1  0  0  0  0
  4  1  1  0  0  0  0
  4  5  1  0  0  0  0
  6  4  1  0  0  0  0
  7  8  1  0  0  0  0
  8  9  2  0  0  0  0
  8 13  1  0  0  0  0
  9 14  1  0  0  0  0
 10  9  1  0  0  0  0
 11 10  2  0  0  0  0
 12 11  1  0  0  0  0
 12  7  2  0  0  0  0
 15 11  1  0  0  0  0
 16 15  1  0  0  0  0
 17 16  1  0  0  0  0
 18 20  1  0  0  0  0
 18 16  2  0  0  0  0
 19 18  1  0  0  0  0
 20 22  1  0  0  0  0
 21 20  1  0  0  0  0
 22 15  2  0  0  0  0
 23 28  1  0  0  0  0
 24 30  1  0  0  0  0
 25 31  1  0  0  0  0
 25 24  2  0  0  0  0
 26 25  1  0  0  0  0
 27 26  2  0  0  0  0
 27 28  1  0  0  0  0
 28 29  2  0  0  0  0
 29 24  1  0  0  0  0
 33 34  1  0  0  0  0
 33 32  1  0  0  0  0
 34 26  1  0  0  0  0
 35 34  2  0  0  0  0
 36 35  1  0  0  0  0
 37 36  2  0  0  0  0
 37 38  1  0  0  0  0
 38 33  2  0  0  0  0
 39 35  1  0  0  0  0
 40 36  1  0  0  0  0
 41 37  1  0  0  0  0
 42 38  1  0  0  0  0
M  END
>  <minimizedAffinity>
-6.49322701

>  <minimizedRMSD>
0.198568761

$$$$
