
 OpenBabel03272505343D

 34 36  0  0  1  0  0  0  0  0999 V2000
   37.0520   31.1020   49.2220 C   0  0  0  0  0  0  0  0  0  0  0  0
   37.3090   32.3120   49.8880 C   0  0  0  0  0  0  0  0  0  0  0  0
   38.1080   33.2620   49.2390 C   0  0  0  0  0  0  0  0  0  0  0  0
   38.5950   32.9620   47.9880 N   0  0  0  0  0  0  0  0  0  0  0  0
   38.3160   31.7850   47.3990 C   0  0  0  0  0  0  0  0  0  0  0  0
   37.5640   30.8830   48.0060 N   0  0  0  0  0  0  0  0  0  0  0  0
   38.8680   31.5680   46.1080 N   0  0  0  0  0  0  0  0  0  0  0  0
   40.1820   30.9510   45.9900 C   0  0  0  0  0  0  0  0  0  0  0  0
   41.0300   31.6340   44.9370 C   0  0  0  0  0  0  0  0  0  0  0  0
   40.3260   31.9250   43.7370 N   0  0  0  0  0  0  0  0  0  0  0  0
   38.9720   31.4380   43.7120 C   0  0  0  0  0  0  0  0  0  0  0  0
   38.1570   31.9470   44.8820 C   0  0  1  0  0  0  0  0  0  0  0  0
   36.9220   32.5500   50.8770 H   0  0  0  0  0  0  0  0  0  0  0  0
   38.3450   34.2190   49.6980 H   0  0  0  0  0  0  0  0  0  0  0  0
   40.0510   29.8970   45.6840 H   0  0  0  0  0  0  0  0  0  0  0  0
   40.6990   30.9650   46.9520 H   0  0  0  0  0  0  0  0  0  0  0  0
   41.3800   32.5960   45.3900 H   0  0  0  0  0  0  0  0  0  0  0  0
   41.9230   30.9890   44.7870 H   0  0  0  0  0  0  0  0  0  0  0  0
   40.7720   31.6520   42.8530 H   0  0  0  0  0  0  0  0  0  0  0  0
   38.4940   31.9160   42.8080 H   0  0  0  0  0  0  0  0  0  0  0  0
   38.8590   30.3580   43.6100 H   0  0  0  0  0  0  0  0  0  0  0  0
   38.0180   33.0420   44.8540 H   0  0  0  0  0  0  0  0  0  0  0  0
   36.8350   31.2700   44.8140 C   0  0  0  0  0  0  0  0  0  0  0  0
   35.9410   31.2620   43.7640 C   0  0  0  0  0  0  0  0  0  0  0  0
   36.0700   31.7630   42.7970 H   0  0  0  0  0  0  0  0  0  0  0  0
   34.8190   30.5050   44.1170 C   0  0  0  0  0  0  0  0  0  0  0  0
   33.9350   30.2920   43.5360 H   0  0  0  0  0  0  0  0  0  0  0  0
   35.0820   30.0780   45.3840 N   0  0  0  0  0  0  0  0  0  0  0  0
   34.4780   29.4830   45.9910 H   0  0  0  0  0  0  0  0  0  0  0  0
   36.2430   30.5190   45.7880 N   0  0  0  0  0  0  0  0  0  0  0  0
   36.2070   30.0890   49.9020 C   0  0  0  0  0  0  0  0  0  0  0  0
   34.8680   30.4810   49.8560 F   0  0  0  0  0  0  0  0  0  0  0  0
   36.4420   28.8750   49.3190 F   0  0  0  0  0  0  0  0  0  0  0  0
   36.5720   30.0890   51.2560 F   0  0  0  0  0  0  0  0  0  0  0  0
  1  2  1  0  0  0  0
  1 31  1  0  0  0  0
  2 13  1  0  0  0  0
  3 14  1  0  0  0  0
  3  2  2  0  0  0  0
  4  3  1  0  0  0  0
  5  4  2  0  0  0  0
  5  6  1  0  0  0  0
  6  1  2  0  0  0  0
  7  5  1  0  0  0  0
  8  7  1  0  0  0  0
  8 16  1  0  0  0  0
  9 17  1  0  0  0  0
  9  8  1  0  0  0  0
 10  9  1  0  0  0  0
 11 10  1  0  0  0  0
 11 12  1  0  0  0  0
 12 22  1  6  0  0  0
 12  7  1  0  0  0  0
 15  8  1  0  0  0  0
 18  9  1  0  0  0  0
 19 10  1  0  0  0  0
 20 11  1  0  0  0  0
 21 11  1  0  0  0  0
 23 12  1  0  0  0  0
 23 30  2  0  0  0  0
 24 26  2  0  0  0  0
 24 23  1  0  0  0  0
 25 24  1  0  0  0  0
 26 28  1  0  0  0  0
 27 26  1  0  0  0  0
 28 30  1  0  0  0  0
 28 29  1  0  0  0  0
 31 34  1  0  0  0  0
 32 31  1  0  0  0  0
 33 31  1  0  0  0  0
M  END
>  <minimizedAffinity>
-6.04984474

>  <minimizedRMSD>
0.601869702

$$$$
