
 OpenBabel03262521423D

 42 46  0  0  0  0  0  0  0  0999 V2000
   40.5070   25.1570   34.9530 C   0  0  0  0  0  0  0  0  0  0  0  0
   41.1370   26.0790   34.1730 N   0  0  0  0  0  0  0  0  0  0  0  0
   42.4750   25.9850   33.9600 C   0  0  0  0  0  0  0  0  0  0  0  0
   43.2230   25.0120   34.4900 N   0  0  0  0  0  0  0  0  0  0  0  0
   42.6460   24.0760   35.2710 C   0  0  0  0  0  0  0  0  0  0  0  0
   43.4070   23.0730   35.7970 C   0  0  0  0  0  0  0  0  0  0  0  0
   42.8490   22.0990   36.5790 C   0  0  0  0  0  0  0  0  0  0  0  0
   41.4870   22.1510   36.8300 C   0  0  0  0  0  0  0  0  0  0  0  0
   40.7280   23.1820   36.2870 C   0  0  0  0  0  0  0  0  0  0  0  0
   41.2750   24.1430   35.5110 C   0  0  0  0  0  0  0  0  0  0  0  0
   42.8280   26.7800   33.3260 H   0  0  0  0  0  0  0  0  0  0  0  0
   44.4510   23.0830   35.5720 H   0  0  0  0  0  0  0  0  0  0  0  0
   43.5200   21.3470   36.9500 H   0  0  0  0  0  0  0  0  0  0  0  0
   41.1740   21.3280   37.4600 H   0  0  0  0  0  0  0  0  0  0  0  0
   39.3360   23.0220   36.7140 C   0  0  0  0  0  0  0  0  0  0  0  0
   38.9200   23.3840   38.0140 C   0  0  0  0  0  0  0  0  0  0  0  0
   39.4990   23.8520   38.8510 H   0  0  0  0  0  0  0  0  0  0  0  0
   37.6180   23.1310   38.3230 C   0  0  0  0  0  0  0  0  0  0  0  0
   37.0220   23.2840   39.1980 H   0  0  0  0  0  0  0  0  0  0  0  0
   37.1900   22.5940   37.1870 N   0  0  0  0  0  0  0  0  0  0  0  0
   36.2440   22.2160   36.8830 H   0  0  0  0  0  0  0  0  0  0  0  0
   38.1510   22.5620   36.3660 N   0  0  0  0  0  0  0  0  0  0  0  0
   38.7830   25.1280   35.2550 S   0  0  0  0  0  0  0  0  0  0  0  0
   37.6330   27.5820   34.1320 F   0  0  0  0  0  0  0  0  0  0  0  0
   37.3340   26.4950   33.3570 C   0  0  0  0  0  0  0  0  0  0  0  0
   36.5730   26.6200   32.1990 C   0  0  0  0  0  0  0  0  0  0  0  0
   36.2990   25.4750   31.4460 C   0  0  0  0  0  0  0  0  0  0  0  0
   36.7700   24.2270   31.8350 C   0  0  0  0  0  0  0  0  0  0  0  0
   37.5200   24.1750   32.9970 C   0  0  0  0  0  0  0  0  0  0  0  0
   37.8120   25.2770   33.7650 C   0  0  0  0  0  0  0  0  0  0  0  0
   35.7000   25.5920   30.5370 H   0  0  0  0  0  0  0  0  0  0  0  0
   36.5290   23.3790   31.2170 H   0  0  0  0  0  0  0  0  0  0  0  0
   37.8550   23.1760   33.2400 H   0  0  0  0  0  0  0  0  0  0  0  0
   36.7590   28.4930   30.7720 C   0  0  0  0  0  0  0  0  0  0  0  0
   36.1220   27.9190   31.8550 C   0  0  0  0  0  0  0  0  0  0  0  0
   35.1340   28.6800   32.4600 C   0  0  0  0  0  0  0  0  0  0  0  0
   34.8600   29.9140   31.9600 N   0  0  0  0  0  0  0  0  0  0  0  0
   35.4950   30.4230   30.9220 C   0  0  0  0  0  0  0  0  0  0  0  0
   36.4530   29.7290   30.3060 N   0  0  0  0  0  0  0  0  0  0  0  0
   37.5600   28.0130   30.1920 H   0  0  0  0  0  0  0  0  0  0  0  0
   34.6500   28.2120   33.3030 H   0  0  0  0  0  0  0  0  0  0  0  0
   35.1880   31.4170   30.6160 H   0  0  0  0  0  0  0  0  0  0  0  0
  1 23  1  0  0  0  0
  1 10  1  0  0  0  0
  2  1  2  0  0  0  0
  3  2  1  0  0  0  0
  3  4  2  0  0  0  0
  4  5  1  0  0  0  0
  5 10  2  0  0  0  0
  5  6  1  0  0  0  0
  6  7  2  0  0  0  0
  7  8  1  0  0  0  0
  7 13  1  0  0  0  0
  8 14  1  0  0  0  0
  9 15  1  0  0  0  0
  9  8  2  0  0  0  0
 10  9  1  0  0  0  0
 11  3  1  0  0  0  0
 12  6  1  0  0  0  0
 15 16  1  0  0  0  0
 16 18  2  0  0  0  0
 16 17  1  0  0  0  0
 18 19  1  0  0  0  0
 20 18  1  0  0  0  0
 21 20  1  0  0  0  0
 22 15  2  0  0  0  0
 22 20  1  0  0  0  0
 25 30  1  0  0  0  0
 25 24  1  0  0  0  0
 26 25  2  0  0  0  0
 27 28  2  0  0  0  0
 27 26  1  0  0  0  0
 28 29  1  0  0  0  0
 29 33  1  0  0  0  0
 29 30  2  0  0  0  0
 30 23  1  0  0  0  0
 31 27  1  0  0  0  0
 32 28  1  0  0  0  0
 34 35  1  0  0  0  0
 35 26  1  0  0  0  0
 35 36  2  0  0  0  0
 36 41  1  0  0  0  0
 37 36  1  0  0  0  0
 38 37  2  0  0  0  0
 39 34  2  0  0  0  0
 39 38  1  0  0  0  0
 40 34  1  0  0  0  0
 42 38  1  0  0  0  0
M  END
>  <minimizedAffinity>
-6.46789789

$$$$

 OpenBabel03262521423D

 42 46  0  0  0  0  0  0  0  0999 V2000
   40.1700   25.9810   34.2680 C   0  0  0  0  0  0  0  0  0  0  0  0
   40.6310   27.0790   33.6060 N   0  0  0  0  0  0  0  0  0  0  0  0
   41.9630   27.3400   33.5740 C   0  0  0  0  0  0  0  0  0  0  0  0
   42.8660   26.5580   34.1720 N   0  0  0  0  0  0  0  0  0  0  0  0
   42.4590   25.4590   34.8410 C   0  0  0  0  0  0  0  0  0  0  0  0
   43.3830   24.6510   35.4370 C   0  0  0  0  0  0  0  0  0  0  0  0
   43.0040   23.5210   36.1080 C   0  0  0  0  0  0  0  0  0  0  0  0
   41.6550   23.2110   36.1750 C   0  0  0  0  0  0  0  0  0  0  0  0
   40.7270   24.0480   35.5640 C   0  0  0  0  0  0  0  0  0  0  0  0
   41.0980   25.1620   34.8960 C   0  0  0  0  0  0  0  0  0  0  0  0
   42.1730   28.2370   33.0160 H   0  0  0  0  0  0  0  0  0  0  0  0
   44.4080   24.9390   35.3560 H   0  0  0  0  0  0  0  0  0  0  0  0
   43.7960   22.9420   36.5460 H   0  0  0  0  0  0  0  0  0  0  0  0
   41.4910   22.2980   36.7340 H   0  0  0  0  0  0  0  0  0  0  0  0
   39.3840   23.5150   35.7940 C   0  0  0  0  0  0  0  0  0  0  0  0
   38.7110   23.7220   37.0180 C   0  0  0  0  0  0  0  0  0  0  0  0
   39.0230   24.3060   37.9220 H   0  0  0  0  0  0  0  0  0  0  0  0
   37.4930   23.1260   37.1450 C   0  0  0  0  0  0  0  0  0  0  0  0
   36.7620   23.0940   37.9260 H   0  0  0  0  0  0  0  0  0  0  0  0
   37.3850   22.5220   35.9680 N   0  0  0  0  0  0  0  0  0  0  0  0
   36.6240   21.9150   35.5390 H   0  0  0  0  0  0  0  0  0  0  0  0
   38.4230   22.7660   35.2900 N   0  0  0  0  0  0  0  0  0  0  0  0
   38.4880   25.4980   34.3330 S   0  0  0  0  0  0  0  0  0  0  0  0
   37.1680   27.7750   35.6280 F   0  0  0  0  0  0  0  0  0  0  0  0
   36.8420   27.7020   34.3020 C   0  0  0  0  0  0  0  0  0  0  0  0
   35.9840   28.6290   33.7170 C   0  0  0  0  0  0  0  0  0  0  0  0
   35.6870   28.5050   32.3570 C   0  0  0  0  0  0  0  0  0  0  0  0
   36.2290   27.4820   31.5890 C   0  0  0  0  0  0  0  0  0  0  0  0
   37.0750   26.5960   32.2360 C   0  0  0  0  0  0  0  0  0  0  0  0
   37.3920   26.6830   33.5700 C   0  0  0  0  0  0  0  0  0  0  0  0
   35.0100   29.2430   31.9130 H   0  0  0  0  0  0  0  0  0  0  0  0
   35.9660   27.4350   30.5470 H   0  0  0  0  0  0  0  0  0  0  0  0
   37.4620   25.8270   31.5820 H   0  0  0  0  0  0  0  0  0  0  0  0
   34.0860   29.6570   34.6750 C   0  0  0  0  0  0  0  0  0  0  0  0
   35.4630   29.6490   34.5510 C   0  0  0  0  0  0  0  0  0  0  0  0
   36.1480   30.6300   35.2500 C   0  0  0  0  0  0  0  0  0  0  0  0
   35.4390   31.5170   35.9960 N   0  0  0  0  0  0  0  0  0  0  0  0
   34.1230   31.4880   36.0870 C   0  0  0  0  0  0  0  0  0  0  0  0
   33.4190   30.5630   35.4320 N   0  0  0  0  0  0  0  0  0  0  0  0
   33.4100   28.9440   34.1820 H   0  0  0  0  0  0  0  0  0  0  0  0
   37.2210   30.6040   35.1380 H   0  0  0  0  0  0  0  0  0  0  0  0
   33.6710   32.2490   36.7130 H   0  0  0  0  0  0  0  0  0  0  0  0
  1 23  1  0  0  0  0
  1 10  1  0  0  0  0
  2  1  2  0  0  0  0
  3  2  1  0  0  0  0
  3  4  2  0  0  0  0
  4  5  1  0  0  0  0
  5 10  2  0  0  0  0
  5  6  1  0  0  0  0
  6  7  2  0  0  0  0
  7  8  1  0  0  0  0
  7 13  1  0  0  0  0
  8 14  1  0  0  0  0
  9 15  1  0  0  0  0
  9  8  2  0  0  0  0
 10  9  1  0  0  0  0
 11  3  1  0  0  0  0
 12  6  1  0  0  0  0
 15 16  1  0  0  0  0
 16 18  2  0  0  0  0
 16 17  1  0  0  0  0
 18 19  1  0  0  0  0
 20 18  1  0  0  0  0
 21 20  1  0  0  0  0
 22 15  2  0  0  0  0
 22 20  1  0  0  0  0
 25 24  1  0  0  0  0
 26 25  1  0  0  0  0
 26 35  1  0  0  0  0
 27 26  2  0  0  0  0
 28 29  2  0  0  0  0
 28 27  1  0  0  0  0
 29 30  1  0  0  0  0
 30 25  2  0  0  0  0
 30 23  1  0  0  0  0
 31 27  1  0  0  0  0
 32 28  1  0  0  0  0
 33 29  1  0  0  0  0
 34 39  1  0  0  0  0
 35 34  2  0  0  0  0
 35 36  1  0  0  0  0
 36 37  2  0  0  0  0
 37 38  1  0  0  0  0
 38 42  1  0  0  0  0
 39 38  2  0  0  0  0
 40 34  1  0  0  0  0
 41 36  1  0  0  0  0
M  END
>  <minimizedAffinity>
-6.43965054

$$$$

 OpenBabel03262521423D

 42 46  0  0  0  0  0  0  0  0999 V2000
   40.6100   25.3960   34.7440 C   0  0  0  0  0  0  0  0  0  0  0  0
   41.2240   26.4470   34.1310 N   0  0  0  0  0  0  0  0  0  0  0  0
   42.5790   26.5400   34.1440 C   0  0  0  0  0  0  0  0  0  0  0  0
   43.3590   25.6340   34.7400 N   0  0  0  0  0  0  0  0  0  0  0  0
   42.7990   24.5750   35.3610 C   0  0  0  0  0  0  0  0  0  0  0  0
   43.5950   23.6410   35.9540 C   0  0  0  0  0  0  0  0  0  0  0  0
   43.0590   22.5480   36.5780 C   0  0  0  0  0  0  0  0  0  0  0  0
   41.6810   22.4070   36.5980 C   0  0  0  0  0  0  0  0  0  0  0  0
   40.8830   23.3710   35.9900 C   0  0  0  0  0  0  0  0  0  0  0  0
   41.4100   24.4490   35.3690 C   0  0  0  0  0  0  0  0  0  0  0  0
   42.9160   27.4200   33.6220 H   0  0  0  0  0  0  0  0  0  0  0  0
   44.6510   23.8010   35.9110 H   0  0  0  0  0  0  0  0  0  0  0  0
   43.7590   21.8620   37.0170 H   0  0  0  0  0  0  0  0  0  0  0  0
   41.3870   21.5060   37.1210 H   0  0  0  0  0  0  0  0  0  0  0  0
   39.4770   23.0040   36.1650 C   0  0  0  0  0  0  0  0  0  0  0  0
   38.7540   23.3950   37.3130 C   0  0  0  0  0  0  0  0  0  0  0  0
   39.0690   24.0290   38.1820 H   0  0  0  0  0  0  0  0  0  0  0  0
   37.4720   22.9430   37.4020 C   0  0  0  0  0  0  0  0  0  0  0  0
   36.6930   23.0620   38.1260 H   0  0  0  0  0  0  0  0  0  0  0  0
   37.3750   22.2430   36.2780 N   0  0  0  0  0  0  0  0  0  0  0  0
   36.5810   21.6790   35.8490 H   0  0  0  0  0  0  0  0  0  0  0  0
   38.4750   22.3130   35.6600 N   0  0  0  0  0  0  0  0  0  0  0  0
   38.8800   25.1260   34.7470 S   0  0  0  0  0  0  0  0  0  0  0  0
   39.0210   26.1960   32.0200 F   0  0  0  0  0  0  0  0  0  0  0  0
   38.1270   26.8970   32.7820 C   0  0  0  0  0  0  0  0  0  0  0  0
   37.4150   27.9710   32.2570 C   0  0  0  0  0  0  0  0  0  0  0  0
   36.5140   28.6500   33.0820 C   0  0  0  0  0  0  0  0  0  0  0  0
   36.3230   28.2720   34.4050 C   0  0  0  0  0  0  0  0  0  0  0  0
   37.0640   27.1960   34.8620 C   0  0  0  0  0  0  0  0  0  0  0  0
   37.9580   26.5020   34.0830 C   0  0  0  0  0  0  0  0  0  0  0  0
   35.9620   29.4920   32.6520 H   0  0  0  0  0  0  0  0  0  0  0  0
   35.6160   28.8310   34.9950 H   0  0  0  0  0  0  0  0  0  0  0  0
   36.8650   26.9550   35.8970 H   0  0  0  0  0  0  0  0  0  0  0  0
   37.0560   29.4800   30.4750 C   0  0  0  0  0  0  0  0  0  0  0  0
   37.6530   28.3080   30.9010 C   0  0  0  0  0  0  0  0  0  0  0  0
   38.4010   27.6220   29.9570 C   0  0  0  0  0  0  0  0  0  0  0  0
   38.4970   28.1330   28.7010 N   0  0  0  0  0  0  0  0  0  0  0  0
   37.9080   29.2570   28.3380 C   0  0  0  0  0  0  0  0  0  0  0  0
   37.1790   29.9530   29.2100 N   0  0  0  0  0  0  0  0  0  0  0  0
   36.4350   30.1300   31.1080 H   0  0  0  0  0  0  0  0  0  0  0  0
   38.8570   26.7120   30.3110 H   0  0  0  0  0  0  0  0  0  0  0  0
   38.0590   29.5620   27.3080 H   0  0  0  0  0  0  0  0  0  0  0  0
  1 23  1  0  0  0  0
  1 10  1  0  0  0  0
  2  3  1  0  0  0  0
  2  1  2  0  0  0  0
  3  4  2  0  0  0  0
  4  5  1  0  0  0  0
  5 10  2  0  0  0  0
  5  6  1  0  0  0  0
  6  7  2  0  0  0  0
  7  8  1  0  0  0  0
  7 13  1  0  0  0  0
  8 14  1  0  0  0  0
  9 15  1  0  0  0  0
  9  8  2  0  0  0  0
 10  9  1  0  0  0  0
 11  3  1  0  0  0  0
 12  6  1  0  0  0  0
 15 16  1  0  0  0  0
 16 18  2  0  0  0  0
 16 17  1  0  0  0  0
 18 19  1  0  0  0  0
 20 18  1  0  0  0  0
 21 20  1  0  0  0  0
 22 15  2  0  0  0  0
 22 20  1  0  0  0  0
 24 25  1  0  0  0  0
 25 30  1  0  0  0  0
 26 25  2  0  0  0  0
 26 27  1  0  0  0  0
 27 28  2  0  0  0  0
 28 29  1  0  0  0  0
 28 32  1  0  0  0  0
 29 33  1  0  0  0  0
 30 23  1  0  0  0  0
 30 29  2  0  0  0  0
 31 27  1  0  0  0  0
 34 35  1  0  0  0  0
 34 40  1  0  0  0  0
 35 26  1  0  0  0  0
 36 41  1  0  0  0  0
 36 35  2  0  0  0  0
 37 36  1  0  0  0  0
 38 37  2  0  0  0  0
 38 39  1  0  0  0  0
 39 34  2  0  0  0  0
 42 38  1  0  0  0  0
M  END
>  <minimizedAffinity>
-6.436306

$$$$

 OpenBabel03262521423D

 42 46  0  0  0  0  0  0  0  0999 V2000
   38.7070   24.4840   35.6700 C   0  0  0  0  0  0  0  0  0  0  0  0
   37.6770   24.6100   36.5530 N   0  0  0  0  0  0  0  0  0  0  0  0
   37.7150   23.9440   37.7360 C   0  0  0  0  0  0  0  0  0  0  0  0
   38.7340   23.1540   38.0880 N   0  0  0  0  0  0  0  0  0  0  0  0
   39.7770   22.9960   37.2470 C   0  0  0  0  0  0  0  0  0  0  0  0
   40.8250   22.2040   37.6120 C   0  0  0  0  0  0  0  0  0  0  0  0
   41.9050   22.0370   36.7900 C   0  0  0  0  0  0  0  0  0  0  0  0
   41.9150   22.6900   35.5680 C   0  0  0  0  0  0  0  0  0  0  0  0
   40.8370   23.4930   35.2110 C   0  0  0  0  0  0  0  0  0  0  0  0
   39.7700   23.6640   36.0230 C   0  0  0  0  0  0  0  0  0  0  0  0
   36.8360   24.1420   38.3250 H   0  0  0  0  0  0  0  0  0  0  0  0
   40.7640   21.7220   38.5640 H   0  0  0  0  0  0  0  0  0  0  0  0
   42.6860   21.3970   37.1570 H   0  0  0  0  0  0  0  0  0  0  0  0
   42.8200   22.4730   35.0160 H   0  0  0  0  0  0  0  0  0  0  0  0
   41.0790   24.0490   33.8790 C   0  0  0  0  0  0  0  0  0  0  0  0
   41.0150   23.2410   32.7220 C   0  0  0  0  0  0  0  0  0  0  0  0
   40.7500   22.1570   32.6140 H   0  0  0  0  0  0  0  0  0  0  0  0
   41.3230   23.8490   31.5430 C   0  0  0  0  0  0  0  0  0  0  0  0
   41.3660   23.5160   30.5270 H   0  0  0  0  0  0  0  0  0  0  0  0
   41.5900   25.0810   31.9590 N   0  0  0  0  0  0  0  0  0  0  0  0
   41.8840   25.9650   31.4450 H   0  0  0  0  0  0  0  0  0  0  0  0
   41.4430   25.1270   33.2130 N   0  0  0  0  0  0  0  0  0  0  0  0
   38.8100   25.3340   34.1430 S   0  0  0  0  0  0  0  0  0  0  0  0
   38.0410   22.6020   33.4030 F   0  0  0  0  0  0  0  0  0  0  0  0
   37.2860   23.5270   32.7360 C   0  0  0  0  0  0  0  0  0  0  0  0
   36.2990   23.1400   31.8350 C   0  0  0  0  0  0  0  0  0  0  0  0
   35.5580   24.1300   31.1820 C   0  0  0  0  0  0  0  0  0  0  0  0
   35.7920   25.4790   31.4180 C   0  0  0  0  0  0  0  0  0  0  0  0
   36.7890   25.7920   32.3260 C   0  0  0  0  0  0  0  0  0  0  0  0
   37.5380   24.8500   32.9880 C   0  0  0  0  0  0  0  0  0  0  0  0
   34.7850   23.8070   30.4770 H   0  0  0  0  0  0  0  0  0  0  0  0
   35.1910   26.1980   30.8870 H   0  0  0  0  0  0  0  0  0  0  0  0
   36.9160   26.8570   32.4630 H   0  0  0  0  0  0  0  0  0  0  0  0
   35.0900   21.1860   32.3820 C   0  0  0  0  0  0  0  0  0  0  0  0
   36.1080   21.7500   31.6370 C   0  0  0  0  0  0  0  0  0  0  0  0
   36.8030   20.8910   30.8000 C   0  0  0  0  0  0  0  0  0  0  0  0
   36.4490   19.5800   30.7670 N   0  0  0  0  0  0  0  0  0  0  0  0
   35.4680   19.0840   31.4980 C   0  0  0  0  0  0  0  0  0  0  0  0
   34.7690   19.8700   32.3180 N   0  0  0  0  0  0  0  0  0  0  0  0
   34.4530   21.7390   33.0880 H   0  0  0  0  0  0  0  0  0  0  0  0
   37.5930   21.3530   30.2280 H   0  0  0  0  0  0  0  0  0  0  0  0
   35.2790   18.0220   31.3850 H   0  0  0  0  0  0  0  0  0  0  0  0
  1 10  2  0  0  0  0
  1  2  1  0  0  0  0
  2  3  2  0  0  0  0
  3  4  1  0  0  0  0
  3 11  1  0  0  0  0
  5  6  1  0  0  0  0
  5  4  2  0  0  0  0
  6 12  1  0  0  0  0
  7 13  1  0  0  0  0
  7  6  2  0  0  0  0
  8  7  1  0  0  0  0
  9  8  2  0  0  0  0
  9 10  1  0  0  0  0
 10  5  1  0  0  0  0
 14  8  1  0  0  0  0
 15  9  1  0  0  0  0
 16 15  1  0  0  0  0
 17 16  1  0  0  0  0
 18 20  1  0  0  0  0
 18 16  2  0  0  0  0
 19 18  1  0  0  0  0
 20 22  1  0  0  0  0
 21 20  1  0  0  0  0
 22 15  2  0  0  0  0
 23  1  1  0  0  0  0
 25 30  1  0  0  0  0
 25 24  1  0  0  0  0
 26 25  2  0  0  0  0
 27 28  2  0  0  0  0
 27 26  1  0  0  0  0
 28 29  1  0  0  0  0
 29 33  1  0  0  0  0
 29 30  2  0  0  0  0
 30 23  1  0  0  0  0
 31 27  1  0  0  0  0
 32 28  1  0  0  0  0
 34 40  1  0  0  0  0
 35 26  1  0  0  0  0
 35 34  2  0  0  0  0
 36 35  1  0  0  0  0
 37 36  2  0  0  0  0
 37 38  1  0  0  0  0
 38 39  2  0  0  0  0
 39 34  1  0  0  0  0
 41 36  1  0  0  0  0
 42 38  1  0  0  0  0
M  END
>  <minimizedAffinity>
-6.40184927

$$$$

 OpenBabel03262521423D

 42 46  0  0  0  0  0  0  0  0999 V2000
   36.8340   25.6940   32.1040 C   0  0  0  0  0  0  0  0  0  0  0  0
   35.8380   25.6740   31.1750 N   0  0  0  0  0  0  0  0  0  0  0  0
   35.2520   24.4970   30.8360 C   0  0  0  0  0  0  0  0  0  0  0  0
   35.6090   23.3300   31.3790 N   0  0  0  0  0  0  0  0  0  0  0  0
   36.5920   23.2970   32.3030 C   0  0  0  0  0  0  0  0  0  0  0  0
   36.9460   22.1080   32.8700 C   0  0  0  0  0  0  0  0  0  0  0  0
   37.9260   22.0440   33.8220 C   0  0  0  0  0  0  0  0  0  0  0  0
   38.5600   23.2160   34.2010 C   0  0  0  0  0  0  0  0  0  0  0  0
   38.1880   24.4190   33.6110 C   0  0  0  0  0  0  0  0  0  0  0  0
   37.2170   24.4870   32.6730 C   0  0  0  0  0  0  0  0  0  0  0  0
   34.4850   24.6410   30.0940 H   0  0  0  0  0  0  0  0  0  0  0  0
   36.4260   21.2350   32.5390 H   0  0  0  0  0  0  0  0  0  0  0  0
   38.1390   21.0680   34.2170 H   0  0  0  0  0  0  0  0  0  0  0  0
   39.3130   23.0270   34.9560 H   0  0  0  0  0  0  0  0  0  0  0  0
   39.0130   25.4940   34.1630 C   0  0  0  0  0  0  0  0  0  0  0  0
   40.3610   25.6590   33.7770 C   0  0  0  0  0  0  0  0  0  0  0  0
   40.9690   25.0930   33.0260 H   0  0  0  0  0  0  0  0  0  0  0  0
   41.0520   26.6510   34.4040 C   0  0  0  0  0  0  0  0  0  0  0  0
   42.0560   27.0130   34.3350 H   0  0  0  0  0  0  0  0  0  0  0  0
   40.1170   27.1350   35.2130 N   0  0  0  0  0  0  0  0  0  0  0  0
   40.1220   27.9250   35.9260 H   0  0  0  0  0  0  0  0  0  0  0  0
   39.0510   26.4790   35.0400 N   0  0  0  0  0  0  0  0  0  0  0  0
   37.6280   27.1470   32.6740 S   0  0  0  0  0  0  0  0  0  0  0  0
   36.4360   28.5970   34.9280 F   0  0  0  0  0  0  0  0  0  0  0  0
   36.0900   29.1670   33.7340 C   0  0  0  0  0  0  0  0  0  0  0  0
   35.2710   30.2910   33.6790 C   0  0  0  0  0  0  0  0  0  0  0  0
   34.9500   30.8310   32.4300 C   0  0  0  0  0  0  0  0  0  0  0  0
   35.4330   30.2670   31.2550 C   0  0  0  0  0  0  0  0  0  0  0  0
   36.2430   29.1510   31.3830 C   0  0  0  0  0  0  0  0  0  0  0  0
   36.5810   28.5910   32.5920 C   0  0  0  0  0  0  0  0  0  0  0  0
   34.3050   31.7150   32.4060 H   0  0  0  0  0  0  0  0  0  0  0  0
   35.1550   30.7250   30.3220 H   0  0  0  0  0  0  0  0  0  0  0  0
   36.5840   28.7660   30.4330 H   0  0  0  0  0  0  0  0  0  0  0  0
   33.5140   30.4760   35.2470 C   0  0  0  0  0  0  0  0  0  0  0  0
   34.8090   30.8190   34.9110 C   0  0  0  0  0  0  0  0  0  0  0  0
   35.4830   31.6290   35.8110 C   0  0  0  0  0  0  0  0  0  0  0  0
   34.8420   32.0240   36.9430 N   0  0  0  0  0  0  0  0  0  0  0  0
   33.6020   31.6710   37.2240 C   0  0  0  0  0  0  0  0  0  0  0  0
   32.9120   30.8930   36.3880 N   0  0  0  0  0  0  0  0  0  0  0  0
   32.8570   29.8420   34.6340 H   0  0  0  0  0  0  0  0  0  0  0  0
   36.4920   31.8840   35.5290 H   0  0  0  0  0  0  0  0  0  0  0  0
   33.1980   32.0490   38.1570 H   0  0  0  0  0  0  0  0  0  0  0  0
  1 10  1  0  0  0  0
  1 23  1  0  0  0  0
  2  1  2  0  0  0  0
  3  2  1  0  0  0  0
  3  4  2  0  0  0  0
  4  5  1  0  0  0  0
  5 10  2  0  0  0  0
  5  6  1  0  0  0  0
  6  7  2  0  0  0  0
  7  8  1  0  0  0  0
  7 13  1  0  0  0  0
  8 14  1  0  0  0  0
  9 15  1  0  0  0  0
  9  8  2  0  0  0  0
 10  9  1  0  0  0  0
 11  3  1  0  0  0  0
 12  6  1  0  0  0  0
 15 22  2  0  0  0  0
 16 15  1  0  0  0  0
 16 18  2  0  0  0  0
 17 16  1  0  0  0  0
 18 20  1  0  0  0  0
 19 18  1  0  0  0  0
 20 21  1  0  0  0  0
 22 20  1  0  0  0  0
 25 24  1  0  0  0  0
 26 25  1  0  0  0  0
 26 35  1  0  0  0  0
 27 26  2  0  0  0  0
 28 29  2  0  0  0  0
 28 27  1  0  0  0  0
 29 30  1  0  0  0  0
 30 23  1  0  0  0  0
 30 25  2  0  0  0  0
 31 27  1  0  0  0  0
 32 28  1  0  0  0  0
 33 29  1  0  0  0  0
 34 39  1  0  0  0  0
 35 34  2  0  0  0  0
 35 36  1  0  0  0  0
 36 37  2  0  0  0  0
 37 38  1  0  0  0  0
 38 42  1  0  0  0  0
 39 38  2  0  0  0  0
 40 34  1  0  0  0  0
 41 36  1  0  0  0  0
M  END
>  <minimizedAffinity>
-6.31217575

$$$$

 OpenBabel03262521423D

 42 46  0  0  0  0  0  0  0  0999 V2000
   38.9050   25.0280   35.5620 C   0  0  0  0  0  0  0  0  0  0  0  0
   37.6780   24.9220   36.1440 N   0  0  0  0  0  0  0  0  0  0  0  0
   37.4450   23.9470   37.0590 C   0  0  0  0  0  0  0  0  0  0  0  0
   38.3790   23.0660   37.4290 N   0  0  0  0  0  0  0  0  0  0  0  0
   39.6110   23.1290   36.8820 C   0  0  0  0  0  0  0  0  0  0  0  0
   40.5690   22.2420   37.2720 C   0  0  0  0  0  0  0  0  0  0  0  0
   41.8320   22.2900   36.7480 C   0  0  0  0  0  0  0  0  0  0  0  0
   42.1210   23.2640   35.8060 C   0  0  0  0  0  0  0  0  0  0  0  0
   41.1310   24.1600   35.4180 C   0  0  0  0  0  0  0  0  0  0  0  0
   39.8840   24.1170   35.9370 C   0  0  0  0  0  0  0  0  0  0  0  0
   36.4340   23.9890   37.4280 H   0  0  0  0  0  0  0  0  0  0  0  0
   40.2910   21.5110   38.0000 H   0  0  0  0  0  0  0  0  0  0  0  0
   42.5250   21.5550   37.1130 H   0  0  0  0  0  0  0  0  0  0  0  0
   43.1490   23.1920   35.4720 H   0  0  0  0  0  0  0  0  0  0  0  0
   41.6790   25.0650   34.4070 C   0  0  0  0  0  0  0  0  0  0  0  0
   41.8540   24.6530   33.0680 C   0  0  0  0  0  0  0  0  0  0  0  0
   41.5910   23.6820   32.5730 H   0  0  0  0  0  0  0  0  0  0  0  0
   42.4320   25.5560   32.2290 C   0  0  0  0  0  0  0  0  0  0  0  0
   42.6930   25.5420   31.1910 H   0  0  0  0  0  0  0  0  0  0  0  0
   42.6310   26.5760   33.0560 N   0  0  0  0  0  0  0  0  0  0  0  0
   43.0550   27.5410   32.9170 H   0  0  0  0  0  0  0  0  0  0  0  0
   42.2090   26.2560   34.2030 N   0  0  0  0  0  0  0  0  0  0  0  0
   39.3530   26.2750   34.4170 S   0  0  0  0  0  0  0  0  0  0  0  0
   37.5980   28.3010   35.6070 F   0  0  0  0  0  0  0  0  0  0  0  0
   37.2070   27.9950   34.3330 C   0  0  0  0  0  0  0  0  0  0  0  0
   36.1050   28.6090   33.7470 C   0  0  0  0  0  0  0  0  0  0  0  0
   35.7530   28.2560   32.4410 C   0  0  0  0  0  0  0  0  0  0  0  0
   36.4800   27.3110   31.7280 C   0  0  0  0  0  0  0  0  0  0  0  0
   37.5650   26.7390   32.3720 C   0  0  0  0  0  0  0  0  0  0  0  0
   37.9440   27.0590   33.6540 C   0  0  0  0  0  0  0  0  0  0  0  0
   34.8830   28.7500   31.9950 H   0  0  0  0  0  0  0  0  0  0  0  0
   36.1640   27.0780   30.7260 H   0  0  0  0  0  0  0  0  0  0  0  0
   38.0860   26.0160   31.7610 H   0  0  0  0  0  0  0  0  0  0  0  0
   34.0370   29.3740   34.5920 C   0  0  0  0  0  0  0  0  0  0  0  0
   35.4040   29.5640   34.5240 C   0  0  0  0  0  0  0  0  0  0  0  0
   35.9070   30.6530   35.2170 C   0  0  0  0  0  0  0  0  0  0  0  0
   35.0440   31.4470   35.9050 N   0  0  0  0  0  0  0  0  0  0  0  0
   33.7430   31.2270   35.9420 C   0  0  0  0  0  0  0  0  0  0  0  0
   33.2110   30.1920   35.2900 N   0  0  0  0  0  0  0  0  0  0  0  0
   33.4940   28.5560   34.0950 H   0  0  0  0  0  0  0  0  0  0  0  0
   36.9760   30.7820   35.1510 H   0  0  0  0  0  0  0  0  0  0  0  0
   33.1570   31.9310   36.5240 H   0  0  0  0  0  0  0  0  0  0  0  0
  1 10  2  0  0  0  0
  1  2  1  0  0  0  0
  2  3  2  0  0  0  0
  3 11  1  0  0  0  0
  3  4  1  0  0  0  0
  5  6  1  0  0  0  0
  5  4  2  0  0  0  0
  6 12  1  0  0  0  0
  7 13  1  0  0  0  0
  7  6  2  0  0  0  0
  8  7  1  0  0  0  0
  9  8  2  0  0  0  0
  9 10  1  0  0  0  0
 10  5  1  0  0  0  0
 14  8  1  0  0  0  0
 15  9  1  0  0  0  0
 16 15  1  0  0  0  0
 17 16  1  0  0  0  0
 18 20  1  0  0  0  0
 18 16  2  0  0  0  0
 19 18  1  0  0  0  0
 20 22  1  0  0  0  0
 21 20  1  0  0  0  0
 22 15  2  0  0  0  0
 23  1  1  0  0  0  0
 25 24  1  0  0  0  0
 26 25  1  0  0  0  0
 26 35  1  0  0  0  0
 27 26  2  0  0  0  0
 28 29  2  0  0  0  0
 28 27  1  0  0  0  0
 29 30  1  0  0  0  0
 30 25  2  0  0  0  0
 30 23  1  0  0  0  0
 31 27  1  0  0  0  0
 32 28  1  0  0  0  0
 33 29  1  0  0  0  0
 34 39  1  0  0  0  0
 35 34  2  0  0  0  0
 35 36  1  0  0  0  0
 36 37  2  0  0  0  0
 37 38  1  0  0  0  0
 38 42  1  0  0  0  0
 39 38  2  0  0  0  0
 40 34  1  0  0  0  0
 41 36  1  0  0  0  0
M  END
>  <minimizedAffinity>
-6.21924019

$$$$

 OpenBabel03262521423D

 42 46  0  0  0  0  0  0  0  0999 V2000
   40.8980   24.4390   34.8920 C   0  0  0  0  0  0  0  0  0  0  0  0
   41.6430   25.1210   33.9770 N   0  0  0  0  0  0  0  0  0  0  0  0
   42.9260   24.7470   33.7350 C   0  0  0  0  0  0  0  0  0  0  0  0
   43.5090   23.7220   34.3620 N   0  0  0  0  0  0  0  0  0  0  0  0
   42.8140   23.0160   35.2770 C   0  0  0  0  0  0  0  0  0  0  0  0
   43.4030   21.9580   35.9040 C   0  0  0  0  0  0  0  0  0  0  0  0
   42.7200   21.2120   36.8250 C   0  0  0  0  0  0  0  0  0  0  0  0
   41.4080   21.5540   37.1120 C   0  0  0  0  0  0  0  0  0  0  0  0
   40.8240   22.6370   36.4650 C   0  0  0  0  0  0  0  0  0  0  0  0
   41.4950   23.3740   35.5520 C   0  0  0  0  0  0  0  0  0  0  0  0
   43.3830   25.3770   32.9900 H   0  0  0  0  0  0  0  0  0  0  0  0
   44.4170   21.7400   35.6470 H   0  0  0  0  0  0  0  0  0  0  0  0
   43.2590   20.3970   37.2690 H   0  0  0  0  0  0  0  0  0  0  0  0
   40.9840   20.8890   37.8550 H   0  0  0  0  0  0  0  0  0  0  0  0
   39.4540   22.8010   36.9540 C   0  0  0  0  0  0  0  0  0  0  0  0
   39.1900   23.3330   38.2350 C   0  0  0  0  0  0  0  0  0  0  0  0
   39.8950   23.7300   39.0090 H   0  0  0  0  0  0  0  0  0  0  0  0
   37.8820   23.3790   38.6120 C   0  0  0  0  0  0  0  0  0  0  0  0
   37.3760   23.7140   39.4930 H   0  0  0  0  0  0  0  0  0  0  0  0
   37.2940   22.8610   37.5400 N   0  0  0  0  0  0  0  0  0  0  0  0
   36.2750   22.6670   37.3020 H   0  0  0  0  0  0  0  0  0  0  0  0
   38.1820   22.5720   36.6890 N   0  0  0  0  0  0  0  0  0  0  0  0
   39.2180   24.7790   35.2510 S   0  0  0  0  0  0  0  0  0  0  0  0
   38.6240   22.3820   33.6680 F   0  0  0  0  0  0  0  0  0  0  0  0
   37.9760   23.4780   33.1690 C   0  0  0  0  0  0  0  0  0  0  0  0
   37.1580   23.3860   32.0470 C   0  0  0  0  0  0  0  0  0  0  0  0
   36.5210   24.5400   31.5820 C   0  0  0  0  0  0  0  0  0  0  0  0
   36.6920   25.7640   32.2170 C   0  0  0  0  0  0  0  0  0  0  0  0
   37.5200   25.7840   33.3270 C   0  0  0  0  0  0  0  0  0  0  0  0
   38.1630   24.6720   33.8160 C   0  0  0  0  0  0  0  0  0  0  0  0
   35.8800   24.4490   30.6980 H   0  0  0  0  0  0  0  0  0  0  0  0
   36.1770   26.6200   31.8150 H   0  0  0  0  0  0  0  0  0  0  0  0
   37.6070   26.7650   33.7720 H   0  0  0  0  0  0  0  0  0  0  0  0
   35.8700   21.4260   31.7730 C   0  0  0  0  0  0  0  0  0  0  0  0
   37.0240   22.1110   31.4440 C   0  0  0  0  0  0  0  0  0  0  0  0
   37.8910   21.4700   30.5740 C   0  0  0  0  0  0  0  0  0  0  0  0
   37.5600   20.2350   30.1120 N   0  0  0  0  0  0  0  0  0  0  0  0
   36.4460   19.6170   30.4540 C   0  0  0  0  0  0  0  0  0  0  0  0
   35.5790   20.1940   31.2880 N   0  0  0  0  0  0  0  0  0  0  0  0
   35.0890   21.8050   32.4490 H   0  0  0  0  0  0  0  0  0  0  0  0
   38.7850   22.0230   30.3310 H   0  0  0  0  0  0  0  0  0  0  0  0
   36.2930   18.6350   30.0200 H   0  0  0  0  0  0  0  0  0  0  0  0
  1 23  1  0  0  0  0
  1 10  1  0  0  0  0
  2  1  2  0  0  0  0
  3  2  1  0  0  0  0
  3  4  2  0  0  0  0
  4  5  1  0  0  0  0
  5 10  2  0  0  0  0
  5  6  1  0  0  0  0
  6  7  2  0  0  0  0
  7  8  1  0  0  0  0
  7 13  1  0  0  0  0
  8 14  1  0  0  0  0
  9 15  1  0  0  0  0
  9  8  2  0  0  0  0
 10  9  1  0  0  0  0
 11  3  1  0  0  0  0
 12  6  1  0  0  0  0
 15 16  1  0  0  0  0
 16 18  2  0  0  0  0
 16 17  1  0  0  0  0
 18 19  1  0  0  0  0
 20 18  1  0  0  0  0
 21 20  1  0  0  0  0
 22 15  2  0  0  0  0
 22 20  1  0  0  0  0
 25 24  1  0  0  0  0
 25 30  1  0  0  0  0
 26 25  2  0  0  0  0
 27 26  1  0  0  0  0
 27 28  2  0  0  0  0
 28 29  1  0  0  0  0
 29 33  1  0  0  0  0
 29 30  2  0  0  0  0
 30 23  1  0  0  0  0
 31 27  1  0  0  0  0
 32 28  1  0  0  0  0
 34 40  1  0  0  0  0
 35 34  1  0  0  0  0
 35 26  1  0  0  0  0
 36 35  2  0  0  0  0
 37 38  2  0  0  0  0
 37 36  1  0  0  0  0
 38 39  1  0  0  0  0
 39 34  2  0  0  0  0
 41 36  1  0  0  0  0
 42 38  1  0  0  0  0
M  END
>  <minimizedAffinity>
-6.19828081

$$$$

 OpenBabel03262521423D

 42 46  0  0  0  0  0  0  0  0999 V2000
   32.9690   29.7910   33.4020 C   0  0  0  0  0  0  0  0  0  0  0  0
   32.2440   28.7930   32.8230 N   0  0  0  0  0  0  0  0  0  0  0  0
   31.1770   28.2650   33.4770 C   0  0  0  0  0  0  0  0  0  0  0  0
   30.7920   28.6840   34.6860 N   0  0  0  0  0  0  0  0  0  0  0  0
   31.4780   29.6690   35.3010 C   0  0  0  0  0  0  0  0  0  0  0  0
   31.0750   30.1090   36.5270 C   0  0  0  0  0  0  0  0  0  0  0  0
   31.7390   31.1180   37.1700 C   0  0  0  0  0  0  0  0  0  0  0  0
   32.8370   31.6880   36.5480 C   0  0  0  0  0  0  0  0  0  0  0  0
   33.2360   31.2260   35.2990 C   0  0  0  0  0  0  0  0  0  0  0  0
   32.5800   30.2330   34.6590 C   0  0  0  0  0  0  0  0  0  0  0  0
   30.7070   27.4890   32.8960 H   0  0  0  0  0  0  0  0  0  0  0  0
   30.2230   29.6320   36.9610 H   0  0  0  0  0  0  0  0  0  0  0  0
   31.3520   31.4020   38.1300 H   0  0  0  0  0  0  0  0  0  0  0  0
   33.2710   32.4700   37.1600 H   0  0  0  0  0  0  0  0  0  0  0  0
   34.4220   31.9710   34.8720 C   0  0  0  0  0  0  0  0  0  0  0  0
   35.6250   31.9220   35.6100 C   0  0  0  0  0  0  0  0  0  0  0  0
   35.8840   31.3330   36.5270 H   0  0  0  0  0  0  0  0  0  0  0  0
   36.6420   32.7060   35.1580 C   0  0  0  0  0  0  0  0  0  0  0  0
   37.6440   32.8840   35.4890 H   0  0  0  0  0  0  0  0  0  0  0  0
   36.0730   33.2710   34.1000 N   0  0  0  0  0  0  0  0  0  0  0  0
   36.4260   33.9720   33.3820 H   0  0  0  0  0  0  0  0  0  0  0  0
   34.8890   32.8400   33.9980 N   0  0  0  0  0  0  0  0  0  0  0  0
   34.3240   30.5980   32.6420 S   0  0  0  0  0  0  0  0  0  0  0  0
   35.5360   28.7340   34.5550 F   0  0  0  0  0  0  0  0  0  0  0  0
   36.1760   28.6890   33.3470 C   0  0  0  0  0  0  0  0  0  0  0  0
   37.2580   27.8410   33.1320 C   0  0  0  0  0  0  0  0  0  0  0  0
   37.8730   27.8380   31.8770 C   0  0  0  0  0  0  0  0  0  0  0  0
   37.4230   28.6610   30.8510 C   0  0  0  0  0  0  0  0  0  0  0  0
   36.3420   29.4790   31.1340 C   0  0  0  0  0  0  0  0  0  0  0  0
   35.7100   29.5110   32.3540 C   0  0  0  0  0  0  0  0  0  0  0  0
   38.7220   27.1640   31.7260 H   0  0  0  0  0  0  0  0  0  0  0  0
   37.9340   28.6170   29.9050 H   0  0  0  0  0  0  0  0  0  0  0  0
   36.0440   30.0900   30.2940 H   0  0  0  0  0  0  0  0  0  0  0  0
   37.6320   25.6660   33.9740 C   0  0  0  0  0  0  0  0  0  0  0  0
   37.6700   27.0260   34.2160 C   0  0  0  0  0  0  0  0  0  0  0  0
   38.1020   27.4140   35.4750 C   0  0  0  0  0  0  0  0  0  0  0  0
   38.4520   26.4540   36.3710 N   0  0  0  0  0  0  0  0  0  0  0  0
   38.4000   25.1640   36.0960 C   0  0  0  0  0  0  0  0  0  0  0  0
   37.9920   24.7420   34.8990 N   0  0  0  0  0  0  0  0  0  0  0  0
   37.3130   25.2090   33.0260 H   0  0  0  0  0  0  0  0  0  0  0  0
   38.1240   28.4790   35.6410 H   0  0  0  0  0  0  0  0  0  0  0  0
   38.7050   24.4940   36.8930 H   0  0  0  0  0  0  0  0  0  0  0  0
  1 10  1  0  0  0  0
  2  1  2  0  0  0  0
  2  3  1  0  0  0  0
  3  4  2  0  0  0  0
  4  5  1  0  0  0  0
  5  6  1  0  0  0  0
  6 12  1  0  0  0  0
  6  7  2  0  0  0  0
  7 13  1  0  0  0  0
  8 14  1  0  0  0  0
  8  7  1  0  0  0  0
  9  8  2  0  0  0  0
 10  9  1  0  0  0  0
 10  5  2  0  0  0  0
 11  3  1  0  0  0  0
 15  9  1  0  0  0  0
 15 16  1  0  0  0  0
 16 17  1  0  0  0  0
 18 19  1  0  0  0  0
 18 16  2  0  0  0  0
 20 18  1  0  0  0  0
 21 20  1  0  0  0  0
 22 20  1  0  0  0  0
 22 15  2  0  0  0  0
 23  1  1  0  0  0  0
 25 24  1  0  0  0  0
 26 25  1  0  0  0  0
 26 35  1  0  0  0  0
 27 26  2  0  0  0  0
 28 29  2  0  0  0  0
 28 27  1  0  0  0  0
 29 30  1  0  0  0  0
 30 23  1  0  0  0  0
 30 25  2  0  0  0  0
 31 27  1  0  0  0  0
 32 28  1  0  0  0  0
 33 29  1  0  0  0  0
 34 35  2  0  0  0  0
 34 39  1  0  0  0  0
 35 36  1  0  0  0  0
 36 41  1  0  0  0  0
 36 37  2  0  0  0  0
 38 37  1  0  0  0  0
 38 42  1  0  0  0  0
 39 38  2  0  0  0  0
 40 34  1  0  0  0  0
M  END
>  <minimizedAffinity>
-6.0377388

$$$$

 OpenBabel03262521423D

 42 46  0  0  0  0  0  0  0  0999 V2000
   35.3490   32.0280   33.6240 C   0  0  0  0  0  0  0  0  0  0  0  0
   36.4580   32.8070   33.4840 N   0  0  0  0  0  0  0  0  0  0  0  0
   36.9220   33.5200   34.5420 C   0  0  0  0  0  0  0  0  0  0  0  0
   36.3350   33.4970   35.7420 N   0  0  0  0  0  0  0  0  0  0  0  0
   35.2330   32.7410   35.9310 C   0  0  0  0  0  0  0  0  0  0  0  0
   34.6430   32.7040   37.1600 C   0  0  0  0  0  0  0  0  0  0  0  0
   33.5350   31.9350   37.3890 C   0  0  0  0  0  0  0  0  0  0  0  0
   33.0180   31.1910   36.3410 C   0  0  0  0  0  0  0  0  0  0  0  0
   33.6300   31.2430   35.0940 C   0  0  0  0  0  0  0  0  0  0  0  0
   34.7280   31.9980   34.8660 C   0  0  0  0  0  0  0  0  0  0  0  0
   37.8010   34.0840   34.2790 H   0  0  0  0  0  0  0  0  0  0  0  0
   35.0820   33.2990   37.9310 H   0  0  0  0  0  0  0  0  0  0  0  0
   33.1360   31.9630   38.3850 H   0  0  0  0  0  0  0  0  0  0  0  0
   32.1440   30.6310   36.6520 H   0  0  0  0  0  0  0  0  0  0  0  0
   32.8870   30.3920   34.1630 C   0  0  0  0  0  0  0  0  0  0  0  0
   31.6240   30.7780   33.6640 C   0  0  0  0  0  0  0  0  0  0  0  0
   31.0410   31.7200   33.8290 H   0  0  0  0  0  0  0  0  0  0  0  0
   30.9940   29.8800   32.8570 C   0  0  0  0  0  0  0  0  0  0  0  0
   30.0570   29.8770   32.3410 H   0  0  0  0  0  0  0  0  0  0  0  0
   31.8820   28.8920   32.8390 N   0  0  0  0  0  0  0  0  0  0  0  0
   31.8920   27.9440   32.3580 H   0  0  0  0  0  0  0  0  0  0  0  0
   32.8710   29.2230   33.5530 N   0  0  0  0  0  0  0  0  0  0  0  0
   34.6850   31.0150   32.3600 S   0  0  0  0  0  0  0  0  0  0  0  0
   35.9930   28.7670   33.7160 F   0  0  0  0  0  0  0  0  0  0  0  0
   36.4180   28.8790   32.4210 C   0  0  0  0  0  0  0  0  0  0  0  0
   37.3570   28.0000   31.8890 C   0  0  0  0  0  0  0  0  0  0  0  0
   37.7540   28.1630   30.5590 C   0  0  0  0  0  0  0  0  0  0  0  0
   37.2310   29.1790   29.7690 C   0  0  0  0  0  0  0  0  0  0  0  0
   36.3020   30.0170   30.3630 C   0  0  0  0  0  0  0  0  0  0  0  0
   35.8850   29.8900   31.6660 C   0  0  0  0  0  0  0  0  0  0  0  0
   38.4930   27.4620   30.1570 H   0  0  0  0  0  0  0  0  0  0  0  0
   37.5720   29.2580   28.7520 H   0  0  0  0  0  0  0  0  0  0  0  0
   35.9350   30.7830   29.6930 H   0  0  0  0  0  0  0  0  0  0  0  0
   37.2170   25.7630   32.6340 C   0  0  0  0  0  0  0  0  0  0  0  0
   37.8540   26.9850   32.7440 C   0  0  0  0  0  0  0  0  0  0  0  0
   38.8850   27.0580   33.6670 C   0  0  0  0  0  0  0  0  0  0  0  0
   39.1980   25.9500   34.3890 N   0  0  0  0  0  0  0  0  0  0  0  0
   38.5620   24.8010   34.2500 C   0  0  0  0  0  0  0  0  0  0  0  0
   37.5630   24.6810   33.3750 N   0  0  0  0  0  0  0  0  0  0  0  0
   36.3840   25.5520   31.9470 H   0  0  0  0  0  0  0  0  0  0  0  0
   39.3670   28.0210   33.7360 H   0  0  0  0  0  0  0  0  0  0  0  0
   38.9030   23.9890   34.8820 H   0  0  0  0  0  0  0  0  0  0  0  0
  1 10  1  0  0  0  0
  2  1  2  0  0  0  0
  2  3  1  0  0  0  0
  3  4  2  0  0  0  0
  4  5  1  0  0  0  0
  5  6  1  0  0  0  0
  6  7  2  0  0  0  0
  6 12  1  0  0  0  0
  7 13  1  0  0  0  0
  8 14  1  0  0  0  0
  8  7  1  0  0  0  0
  9  8  2  0  0  0  0
 10  9  1  0  0  0  0
 10  5  2  0  0  0  0
 11  3  1  0  0  0  0
 15  9  1  0  0  0  0
 16 17  1  0  0  0  0
 16 15  1  0  0  0  0
 18 16  2  0  0  0  0
 19 18  1  0  0  0  0
 20 18  1  0  0  0  0
 20 22  1  0  0  0  0
 21 20  1  0  0  0  0
 22 15  2  0  0  0  0
 23  1  1  0  0  0  0
 25 24  1  0  0  0  0
 26 25  1  0  0  0  0
 26 35  1  0  0  0  0
 27 26  2  0  0  0  0
 28 29  2  0  0  0  0
 28 27  1  0  0  0  0
 29 30  1  0  0  0  0
 30 23  1  0  0  0  0
 30 25  2  0  0  0  0
 31 27  1  0  0  0  0
 32 28  1  0  0  0  0
 33 29  1  0  0  0  0
 34 35  2  0  0  0  0
 34 39  1  0  0  0  0
 35 36  1  0  0  0  0
 36 41  1  0  0  0  0
 36 37  2  0  0  0  0
 38 37  1  0  0  0  0
 38 42  1  0  0  0  0
 39 38  2  0  0  0  0
 40 34  1  0  0  0  0
M  END
>  <minimizedAffinity>
-6.02192211

$$$$
