
 OpenBabel03272501333D

 26 28  0  0  1  0  0  0  0  0999 V2000
   37.7210   25.8300   35.0220 C   0  0  2  0  0  0  0  0  0  0  0  0
   39.2500   26.1370   35.2680 C   0  0  0  0  0  0  0  0  0  0  0  0
   38.6420   24.7420   35.2820 C   0  0  1  0  0  0  0  0  0  0  0  0
   37.1670   26.4120   35.7890 H   0  0  0  0  0  0  0  0  0  0  0  0
   39.8510   26.4390   34.4190 H   0  0  0  0  0  0  0  0  0  0  0  0
   39.5070   26.6000   36.2340 H   0  0  0  0  0  0  0  0  0  0  0  0
   39.0030   24.1080   34.4280 H   0  0  0  0  0  0  0  0  0  0  0  0
   38.7370   24.0770   36.6000 C   0  0  0  0  0  0  0  0  0  0  0  0
   37.9830   24.3280   37.7370 C   0  0  0  0  0  0  0  0  0  0  0  0
   37.2140   25.0770   37.7590 H   0  0  0  0  0  0  0  0  0  0  0  0
   38.4700   23.4310   38.6960 C   0  0  0  0  0  0  0  0  0  0  0  0
   38.0430   23.4230   39.6840 H   0  0  0  0  0  0  0  0  0  0  0  0
   39.4550   22.6970   38.1480 N   0  0  0  0  0  0  0  0  0  0  0  0
   39.9910   21.9490   38.6540 H   0  0  0  0  0  0  0  0  0  0  0  0
   39.6140   23.0830   36.8970 N   0  0  0  0  0  0  0  0  0  0  0  0
   37.3660   26.2380   33.6340 C   0  0  0  0  0  0  0  0  0  0  0  0
   37.5580   25.3960   32.6890 O   0  0  0  0  0  0  0  0  0  0  0  0
   35.7210   29.5550   34.2450 C   0  0  0  0  0  0  0  0  0  0  0  0
   36.2760   28.2990   34.4290 C   0  0  0  0  0  0  0  0  0  0  0  0
   36.8330   27.5570   33.3990 C   0  0  0  0  0  0  0  0  0  0  0  0
   36.8070   28.1260   32.1970 N   0  0  0  0  0  0  0  0  0  0  0  0
   36.2610   29.3630   32.0090 C   0  0  0  0  0  0  0  0  0  0  0  0
   35.7330   30.0620   32.9960 N   0  0  0  0  0  0  0  0  0  0  0  0
   35.3220   30.0260   35.1300 H   0  0  0  0  0  0  0  0  0  0  0  0
   36.2900   27.8490   35.4210 H   0  0  0  0  0  0  0  0  0  0  0  0
   36.2590   29.7980   31.0080 H   0  0  0  0  0  0  0  0  0  0  0  0
  1  2  1  0  0  0  0
  1  3  1  0  0  0  0
  1  4  1  1  0  0  0
  2  3  1  0  0  0  0
  2  6  1  0  0  0  0
  3  7  1  6  0  0  0
  3  8  1  0  0  0  0
  5  2  1  0  0  0  0
  8 15  2  0  0  0  0
  8  9  1  0  0  0  0
  9 10  1  0  0  0  0
  9 11  2  0  0  0  0
 11 12  1  0  0  0  0
 13 14  1  0  0  0  0
 13 11  1  0  0  0  0
 15 13  1  0  0  0  0
 16  1  1  0  0  0  0
 17 16  2  0  0  0  0
 18 19  1  0  0  0  0
 18 24  1  0  0  0  0
 19 25  1  0  0  0  0
 20 16  1  0  0  0  0
 20 19  2  0  0  0  0
 21 20  1  0  0  0  0
 22 21  2  0  0  0  0
 22 23  1  0  0  0  0
 23 18  2  0  0  0  0
 26 22  1  0  0  0  0
M  END
>  <minimizedAffinity>
-4.69581366

$$$$

 OpenBabel03272501333D

 26 28  0  0  1  0  0  0  0  0999 V2000
   37.4570   26.0910   35.2600 C   0  0  2  0  0  0  0  0  0  0  0  0
   38.8530   26.6410   35.7530 C   0  0  0  0  0  0  0  0  0  0  0  0
   38.5590   25.1750   35.4710 C   0  0  1  0  0  0  0  0  0  0  0  0
   36.7180   26.4100   36.0260 H   0  0  0  0  0  0  0  0  0  0  0  0
   39.4560   27.2010   35.0490 H   0  0  0  0  0  0  0  0  0  0  0  0
   38.9070   26.9660   36.8050 H   0  0  0  0  0  0  0  0  0  0  0  0
   39.1300   24.7850   34.5860 H   0  0  0  0  0  0  0  0  0  0  0  0
   38.6630   24.3170   36.6720 C   0  0  0  0  0  0  0  0  0  0  0  0
   37.9280   24.4020   37.8460 C   0  0  0  0  0  0  0  0  0  0  0  0
   37.1700   25.1490   37.9920 H   0  0  0  0  0  0  0  0  0  0  0  0
   38.4150   23.3650   38.6500 C   0  0  0  0  0  0  0  0  0  0  0  0
   38.0020   23.2130   39.6330 H   0  0  0  0  0  0  0  0  0  0  0  0
   39.3820   22.7110   37.9820 N   0  0  0  0  0  0  0  0  0  0  0  0
   39.9140   21.8890   38.3610 H   0  0  0  0  0  0  0  0  0  0  0  0
   39.5290   23.2790   36.8010 N   0  0  0  0  0  0  0  0  0  0  0  0
   37.1630   26.6640   33.9160 C   0  0  0  0  0  0  0  0  0  0  0  0
   36.6650   27.8410   33.8580 O   0  0  0  0  0  0  0  0  0  0  0  0
   38.8070   25.4600   30.7660 C   0  0  0  0  0  0  0  0  0  0  0  0
   38.5230   26.1630   31.9250 C   0  0  0  0  0  0  0  0  0  0  0  0
   37.4370   25.8800   32.7380 C   0  0  0  0  0  0  0  0  0  0  0  0
   36.6640   24.8740   32.3400 N   0  0  0  0  0  0  0  0  0  0  0  0
   36.9380   24.1770   31.1980 C   0  0  0  0  0  0  0  0  0  0  0  0
   37.9740   24.4550   30.4300 N   0  0  0  0  0  0  0  0  0  0  0  0
   39.6830   25.7820   30.2230 H   0  0  0  0  0  0  0  0  0  0  0  0
   39.1690   26.9830   32.2370 H   0  0  0  0  0  0  0  0  0  0  0  0
   36.2800   23.3570   30.9030 H   0  0  0  0  0  0  0  0  0  0  0  0
  1  3  1  0  0  0  0
  1  2  1  0  0  0  0
  1  4  1  1  0  0  0
  2  6  1  0  0  0  0
  3  7  1  6  0  0  0
  3  2  1  0  0  0  0
  3  8  1  0  0  0  0
  5  2  1  0  0  0  0
  8 15  2  0  0  0  0
  8  9  1  0  0  0  0
  9 10  1  0  0  0  0
  9 11  2  0  0  0  0
 11 12  1  0  0  0  0
 13 14  1  0  0  0  0
 13 11  1  0  0  0  0
 15 13  1  0  0  0  0
 16  1  1  0  0  0  0
 17 16  2  0  0  0  0
 18 19  1  0  0  0  0
 19 25  1  0  0  0  0
 19 20  2  0  0  0  0
 20 16  1  0  0  0  0
 21 20  1  0  0  0  0
 22 21  2  0  0  0  0
 23 18  2  0  0  0  0
 23 22  1  0  0  0  0
 24 18  1  0  0  0  0
 26 22  1  0  0  0  0
M  END
>  <minimizedAffinity>
-4.58058786

$$$$

 OpenBabel03272501333D

 26 28  0  0  1  0  0  0  0  0999 V2000
   37.4580   26.4350   34.8470 C   0  0  2  0  0  0  0  0  0  0  0  0
   38.3060   27.0270   36.0410 C   0  0  0  0  0  0  0  0  0  0  0  0
   38.4800   25.6250   35.4760 C   0  0  1  0  0  0  0  0  0  0  0  0
   36.3960   26.5070   35.1650 H   0  0  0  0  0  0  0  0  0  0  0  0
   39.0490   27.7810   35.8120 H   0  0  0  0  0  0  0  0  0  0  0  0
   37.7850   27.1360   37.0060 H   0  0  0  0  0  0  0  0  0  0  0  0
   39.4710   25.4880   34.9630 H   0  0  0  0  0  0  0  0  0  0  0  0
   38.1640   24.5580   36.4520 C   0  0  0  0  0  0  0  0  0  0  0  0
   38.1080   24.6590   37.8350 C   0  0  0  0  0  0  0  0  0  0  0  0
   38.3030   25.5820   38.3490 H   0  0  0  0  0  0  0  0  0  0  0  0
   37.7690   23.3740   38.2750 C   0  0  0  0  0  0  0  0  0  0  0  0
   37.6620   23.1820   39.3290 H   0  0  0  0  0  0  0  0  0  0  0  0
   37.6360   22.5670   37.2070 N   0  0  0  0  0  0  0  0  0  0  0  0
   37.3850   21.5490   37.2590 H   0  0  0  0  0  0  0  0  0  0  0  0
   37.8710   23.2750   36.1190 N   0  0  0  0  0  0  0  0  0  0  0  0
   37.7370   27.2310   33.6190 C   0  0  0  0  0  0  0  0  0  0  0  0
   38.8700   27.0770   33.0450 O   0  0  0  0  0  0  0  0  0  0  0  0
   35.8040   29.4480   31.2900 C   0  0  0  0  0  0  0  0  0  0  0  0
   36.7220   28.5460   31.8000 C   0  0  0  0  0  0  0  0  0  0  0  0
   36.7380   28.1460   33.1270 C   0  0  0  0  0  0  0  0  0  0  0  0
   35.8030   28.6850   33.9040 N   0  0  0  0  0  0  0  0  0  0  0  0
   34.8940   29.5760   33.4070 C   0  0  0  0  0  0  0  0  0  0  0  0
   34.8880   29.9500   32.1420 N   0  0  0  0  0  0  0  0  0  0  0  0
   35.9010   29.6740   30.2390 H   0  0  0  0  0  0  0  0  0  0  0  0
   37.4810   28.1120   31.1480 H   0  0  0  0  0  0  0  0  0  0  0  0
   34.1410   29.9970   34.0760 H   0  0  0  0  0  0  0  0  0  0  0  0
  1  4  1  1  0  0  0
  1  3  1  0  0  0  0
  1  2  1  0  0  0  0
  2  6  1  0  0  0  0
  3  7  1  6  0  0  0
  3  2  1  0  0  0  0
  3  8  1  0  0  0  0
  5  2  1  0  0  0  0
  8  9  1  0  0  0  0
  9 11  2  0  0  0  0
  9 10  1  0  0  0  0
 11 12  1  0  0  0  0
 13 14  1  0  0  0  0
 13 11  1  0  0  0  0
 15  8  2  0  0  0  0
 15 13  1  0  0  0  0
 16  1  1  0  0  0  0
 17 16  2  0  0  0  0
 18 19  2  0  0  0  0
 18 23  1  0  0  0  0
 19 20  1  0  0  0  0
 20 16  1  0  0  0  0
 20 21  2  0  0  0  0
 22 21  1  0  0  0  0
 22 26  1  0  0  0  0
 23 22  2  0  0  0  0
 24 18  1  0  0  0  0
 25 19  1  0  0  0  0
M  END
>  <minimizedAffinity>
-4.57661009

$$$$

 OpenBabel03272501333D

 26 28  0  0  1  0  0  0  0  0999 V2000
   38.0710   26.2290   34.6280 C   0  0  2  0  0  0  0  0  0  0  0  0
   38.2670   26.9900   35.9980 C   0  0  0  0  0  0  0  0  0  0  0  0
   38.8500   25.6200   35.6850 C   0  0  1  0  0  0  0  0  0  0  0  0
   36.9730   26.1330   34.4900 H   0  0  0  0  0  0  0  0  0  0  0  0
   38.9250   27.8500   36.0120 H   0  0  0  0  0  0  0  0  0  0  0  0
   37.3870   27.0390   36.6610 H   0  0  0  0  0  0  0  0  0  0  0  0
   39.9730   25.6350   35.6230 H   0  0  0  0  0  0  0  0  0  0  0  0
   38.3170   24.5450   36.5520 C   0  0  0  0  0  0  0  0  0  0  0  0
   38.1380   24.5710   37.9280 C   0  0  0  0  0  0  0  0  0  0  0  0
   38.3890   25.4310   38.5210 H   0  0  0  0  0  0  0  0  0  0  0  0
   37.6090   23.3150   38.2440 C   0  0  0  0  0  0  0  0  0  0  0  0
   37.3770   23.0750   39.2680 H   0  0  0  0  0  0  0  0  0  0  0  0
   37.4860   22.5950   37.1140 N   0  0  0  0  0  0  0  0  0  0  0  0
   37.1130   21.6140   37.0730 H   0  0  0  0  0  0  0  0  0  0  0  0
   37.9090   23.3300   36.1050 N   0  0  0  0  0  0  0  0  0  0  0  0
   38.7110   27.0240   33.5420 C   0  0  0  0  0  0  0  0  0  0  0  0
   39.9870   27.1280   33.5430 O   0  0  0  0  0  0  0  0  0  0  0  0
   35.7520   28.6410   31.8980 C   0  0  0  0  0  0  0  0  0  0  0  0
   36.5950   28.0670   32.8340 C   0  0  0  0  0  0  0  0  0  0  0  0
   37.8840   27.6490   32.5410 C   0  0  0  0  0  0  0  0  0  0  0  0
   38.2800   27.8330   31.2850 N   0  0  0  0  0  0  0  0  0  0  0  0
   37.4530   28.3990   30.3570 C   0  0  0  0  0  0  0  0  0  0  0  0
   36.2280   28.7930   30.6450 N   0  0  0  0  0  0  0  0  0  0  0  0
   34.7740   28.9220   32.2560 H   0  0  0  0  0  0  0  0  0  0  0  0
   36.2550   27.9250   33.8600 H   0  0  0  0  0  0  0  0  0  0  0  0
   37.8130   28.5340   29.3350 H   0  0  0  0  0  0  0  0  0  0  0  0
  1  4  1  6  0  0  0
  1  3  1  0  0  0  0
  1  2  1  0  0  0  0
  2  5  1  0  0  0  0
  2  6  1  0  0  0  0
  3  7  1  6  0  0  0
  3  2  1  0  0  0  0
  3  8  1  0  0  0  0
  8  9  1  0  0  0  0
  9 11  2  0  0  0  0
  9 10  1  0  0  0  0
 11 12  1  0  0  0  0
 13 11  1  0  0  0  0
 14 13  1  0  0  0  0
 15  8  2  0  0  0  0
 15 13  1  0  0  0  0
 16 17  2  0  0  0  0
 16  1  1  0  0  0  0
 18 24  1  0  0  0  0
 18 19  1  0  0  0  0
 19 25  1  0  0  0  0
 20 19  2  0  0  0  0
 20 16  1  0  0  0  0
 21 20  1  0  0  0  0
 22 23  1  0  0  0  0
 22 21  2  0  0  0  0
 23 18  2  0  0  0  0
 26 22  1  0  0  0  0
M  END
>  <minimizedAffinity>
-4.44770098

$$$$

 OpenBabel03272501333D

 26 28  0  0  1  0  0  0  0  0999 V2000
   38.3480   25.6650   35.1840 C   0  0  2  0  0  0  0  0  0  0  0  0
   38.5080   27.0400   35.9450 C   0  0  0  0  0  0  0  0  0  0  0  0
   37.2650   26.6270   35.1720 C   0  0  1  0  0  0  0  0  0  0  0  0
   39.1870   25.6210   34.4580 H   0  0  0  0  0  0  0  0  0  0  0  0
   38.4820   27.0280   37.0280 H   0  0  0  0  0  0  0  0  0  0  0  0
   39.1840   27.7790   35.4840 H   0  0  0  0  0  0  0  0  0  0  0  0
   36.3760   26.4670   35.8420 H   0  0  0  0  0  0  0  0  0  0  0  0
   36.9830   27.4970   34.0090 C   0  0  0  0  0  0  0  0  0  0  0  0
   37.5020   27.3960   32.7260 C   0  0  0  0  0  0  0  0  0  0  0  0
   38.1980   26.6260   32.4490 H   0  0  0  0  0  0  0  0  0  0  0  0
   36.9170   28.4530   32.0190 C   0  0  0  0  0  0  0  0  0  0  0  0
   37.1590   28.6000   30.9800 H   0  0  0  0  0  0  0  0  0  0  0  0
   36.1030   29.1350   32.8450 N   0  0  0  0  0  0  0  0  0  0  0  0
   35.5410   29.9760   32.5650 H   0  0  0  0  0  0  0  0  0  0  0  0
   36.1420   28.5630   34.0330 N   0  0  0  0  0  0  0  0  0  0  0  0
   38.3990   24.5580   36.1790 C   0  0  0  0  0  0  0  0  0  0  0  0
   37.3640   24.3480   36.9020 O   0  0  0  0  0  0  0  0  0  0  0  0
   40.8820   22.0600   37.4730 C   0  0  0  0  0  0  0  0  0  0  0  0
   39.7340   22.8150   37.2950 C   0  0  0  0  0  0  0  0  0  0  0  0
   39.6010   23.7710   36.3010 C   0  0  0  0  0  0  0  0  0  0  0  0
   40.6550   23.9310   35.5070 N   0  0  0  0  0  0  0  0  0  0  0  0
   41.7900   23.1900   35.6770 C   0  0  0  0  0  0  0  0  0  0  0  0
   41.9080   22.2830   36.6260 N   0  0  0  0  0  0  0  0  0  0  0  0
   40.8560   21.3490   38.2840 H   0  0  0  0  0  0  0  0  0  0  0  0
   38.8790   22.6700   37.9540 H   0  0  0  0  0  0  0  0  0  0  0  0
   42.6360   23.3500   35.0050 H   0  0  0  0  0  0  0  0  0  0  0  0
  1  4  1  6  0  0  0
  1  2  1  0  0  0  0
  1 16  1  0  0  0  0
  2  5  1  0  0  0  0
  3  1  1  0  0  0  0
  3  7  1  1  0  0  0
  3  2  1  0  0  0  0
  6  2  1  0  0  0  0
  8 15  2  0  0  0  0
  8  3  1  0  0  0  0
  9  8  1  0  0  0  0
 10  9  1  0  0  0  0
 11  9  2  0  0  0  0
 11 13  1  0  0  0  0
 12 11  1  0  0  0  0
 13 15  1  0  0  0  0
 14 13  1  0  0  0  0
 16 20  1  0  0  0  0
 16 17  2  0  0  0  0
 18 24  1  0  0  0  0
 19 18  1  0  0  0  0
 19 25  1  0  0  0  0
 20 19  2  0  0  0  0
 21 22  2  0  0  0  0
 21 20  1  0  0  0  0
 22 23  1  0  0  0  0
 23 18  2  0  0  0  0
 26 22  1  0  0  0  0
M  END
>  <minimizedAffinity>
-4.43189096

$$$$

 OpenBabel03272501333D

 26 28  0  0  1  0  0  0  0  0999 V2000
   39.8620   26.0420   35.0760 C   0  0  2  0  0  0  0  0  0  0  0  0
   40.8520   24.8180   34.9520 C   0  0  0  0  0  0  0  0  0  0  0  0
   39.3530   24.6900   35.1780 C   0  0  1  0  0  0  0  0  0  0  0  0
   40.2470   26.6580   35.9170 H   0  0  0  0  0  0  0  0  0  0  0  0
   41.2570   24.5890   33.9740 H   0  0  0  0  0  0  0  0  0  0  0  0
   41.5230   24.6410   35.8100 H   0  0  0  0  0  0  0  0  0  0  0  0
   38.8240   24.2310   34.2990 H   0  0  0  0  0  0  0  0  0  0  0  0
   39.0080   24.0630   36.4740 C   0  0  0  0  0  0  0  0  0  0  0  0
   37.9320   24.3530   37.2990 C   0  0  0  0  0  0  0  0  0  0  0  0
   37.2080   25.1070   37.0530 H   0  0  0  0  0  0  0  0  0  0  0  0
   38.0700   23.4820   38.3870 C   0  0  0  0  0  0  0  0  0  0  0  0
   37.3470   23.5060   39.1850 H   0  0  0  0  0  0  0  0  0  0  0  0
   39.1670   22.7260   38.2050 N   0  0  0  0  0  0  0  0  0  0  0  0
   39.5000   21.9900   38.8760 H   0  0  0  0  0  0  0  0  0  0  0  0
   39.7270   23.0730   37.0630 N   0  0  0  0  0  0  0  0  0  0  0  0
   39.8540   26.7860   33.7850 C   0  0  0  0  0  0  0  0  0  0  0  0
   40.8740   27.5020   33.4950 O   0  0  0  0  0  0  0  0  0  0  0  0
   36.4030   27.2860   32.4020 C   0  0  0  0  0  0  0  0  0  0  0  0
   37.5400   27.3790   33.1870 C   0  0  0  0  0  0  0  0  0  0  0  0
   38.7070   26.6830   32.9180 C   0  0  0  0  0  0  0  0  0  0  0  0
   38.6800   25.9020   31.8410 N   0  0  0  0  0  0  0  0  0  0  0  0
   37.5620   25.8050   31.0640 C   0  0  0  0  0  0  0  0  0  0  0  0
   36.4550   26.4720   31.3280 N   0  0  0  0  0  0  0  0  0  0  0  0
   35.5610   27.8810   32.7210 H   0  0  0  0  0  0  0  0  0  0  0  0
   37.5450   28.0260   34.0640 H   0  0  0  0  0  0  0  0  0  0  0  0
   37.5770   25.1540   30.1880 H   0  0  0  0  0  0  0  0  0  0  0  0
  1  3  1  0  0  0  0
  1  4  1  1  0  0  0
  2  1  1  0  0  0  0
  2  3  1  0  0  0  0
  2  6  1  0  0  0  0
  3  7  1  6  0  0  0
  3  8  1  0  0  0  0
  5  2  1  0  0  0  0
  8 15  2  0  0  0  0
  8  9  1  0  0  0  0
  9 11  2  0  0  0  0
 10  9  1  0  0  0  0
 11 12  1  0  0  0  0
 13 11  1  0  0  0  0
 13 14  1  0  0  0  0
 15 13  1  0  0  0  0
 16  1  1  0  0  0  0
 17 16  2  0  0  0  0
 18 24  1  0  0  0  0
 18 19  1  0  0  0  0
 19 25  1  0  0  0  0
 20 19  2  0  0  0  0
 20 16  1  0  0  0  0
 21 20  1  0  0  0  0
 22 23  1  0  0  0  0
 22 21  2  0  0  0  0
 23 18  2  0  0  0  0
 26 22  1  0  0  0  0
M  END
>  <minimizedAffinity>
-4.34882259

$$$$

 OpenBabel03272501333D

 26 28  0  0  1  0  0  0  0  0999 V2000
   38.1130   27.1910   34.3360 C   0  0  2  0  0  0  0  0  0  0  0  0
   36.7060   27.9090   34.3660 C   0  0  0  0  0  0  0  0  0  0  0  0
   37.0840   26.8000   33.3950 C   0  0  1  0  0  0  0  0  0  0  0  0
   38.8610   27.9980   34.1850 H   0  0  0  0  0  0  0  0  0  0  0  0
   36.0370   27.6820   35.1870 H   0  0  0  0  0  0  0  0  0  0  0  0
   36.6760   28.9430   33.9850 H   0  0  0  0  0  0  0  0  0  0  0  0
   36.5010   25.8560   33.5740 H   0  0  0  0  0  0  0  0  0  0  0  0
   37.0890   27.2380   31.9810 C   0  0  0  0  0  0  0  0  0  0  0  0
   38.0940   27.9100   31.3020 C   0  0  0  0  0  0  0  0  0  0  0  0
   39.0170   28.1890   31.7760 H   0  0  0  0  0  0  0  0  0  0  0  0
   37.5980   28.0810   30.0040 C   0  0  0  0  0  0  0  0  0  0  0  0
   38.1980   28.5850   29.2650 H   0  0  0  0  0  0  0  0  0  0  0  0
   36.3700   27.5380   29.9310 N   0  0  0  0  0  0  0  0  0  0  0  0
   35.7740   27.5300   29.0660 H   0  0  0  0  0  0  0  0  0  0  0  0
   36.0660   27.0340   31.1110 N   0  0  0  0  0  0  0  0  0  0  0  0
   38.3100   26.4680   35.6240 C   0  0  0  0  0  0  0  0  0  0  0  0
   38.4270   27.1610   36.6930 O   0  0  0  0  0  0  0  0  0  0  0  0
   37.7490   22.8990   36.6370 C   0  0  0  0  0  0  0  0  0  0  0  0
   37.6940   24.2810   36.5770 C   0  0  0  0  0  0  0  0  0  0  0  0
   38.3700   25.0270   35.6240 C   0  0  0  0  0  0  0  0  0  0  0  0
   39.0900   24.3310   34.7490 N   0  0  0  0  0  0  0  0  0  0  0  0
   39.1490   22.9680   34.8030 C   0  0  0  0  0  0  0  0  0  0  0  0
   38.5030   22.2670   35.7150 N   0  0  0  0  0  0  0  0  0  0  0  0
   37.1770   22.4400   37.4290 H   0  0  0  0  0  0  0  0  0  0  0  0
   37.0970   24.8360   37.3010 H   0  0  0  0  0  0  0  0  0  0  0  0
   39.7510   22.4310   34.0680 H   0  0  0  0  0  0  0  0  0  0  0  0
  1  4  1  6  0  0  0
  1  2  1  0  0  0  0
  1 16  1  0  0  0  0
  2  5  1  0  0  0  0
  3  7  1  1  0  0  0
  3  1  1  0  0  0  0
  3  2  1  0  0  0  0
  6  2  1  0  0  0  0
  8  3  1  0  0  0  0
  9 10  1  0  0  0  0
  9  8  1  0  0  0  0
 11  9  2  0  0  0  0
 12 11  1  0  0  0  0
 13 11  1  0  0  0  0
 13 15  1  0  0  0  0
 14 13  1  0  0  0  0
 15  8  2  0  0  0  0
 16 20  1  0  0  0  0
 16 17  2  0  0  0  0
 18 24  1  0  0  0  0
 19 18  1  0  0  0  0
 19 25  1  0  0  0  0
 20 19  2  0  0  0  0
 21 22  2  0  0  0  0
 21 20  1  0  0  0  0
 22 23  1  0  0  0  0
 23 18  2  0  0  0  0
 26 22  1  0  0  0  0
M  END
>  <minimizedAffinity>
-4.33946323

$$$$

 OpenBabel03272501333D

 26 28  0  0  1  0  0  0  0  0999 V2000
   39.0020   22.9360   33.8710 C   0  0  2  0  0  0  0  0  0  0  0  0
   37.9670   21.8270   34.3080 C   0  0  0  0  0  0  0  0  0  0  0  0
   38.0570   23.2110   34.9340 C   0  0  1  0  0  0  0  0  0  0  0  0
   40.0070   22.4790   33.9950 H   0  0  0  0  0  0  0  0  0  0  0  0
   37.1450   21.6050   33.6380 H   0  0  0  0  0  0  0  0  0  0  0  0
   38.3740   20.9740   34.8760 H   0  0  0  0  0  0  0  0  0  0  0  0
   37.1500   23.8390   34.7180 H   0  0  0  0  0  0  0  0  0  0  0  0
   38.4350   23.1830   36.3640 C   0  0  0  0  0  0  0  0  0  0  0  0
   37.7890   23.7970   37.4270 C   0  0  0  0  0  0  0  0  0  0  0  0
   36.9000   24.3860   37.2930 H   0  0  0  0  0  0  0  0  0  0  0  0
   38.5480   23.4570   38.5530 C   0  0  0  0  0  0  0  0  0  0  0  0
   38.2540   23.8170   39.5240 H   0  0  0  0  0  0  0  0  0  0  0  0
   39.5810   22.6870   38.1670 N   0  0  0  0  0  0  0  0  0  0  0  0
   40.3060   22.2950   38.8190 H   0  0  0  0  0  0  0  0  0  0  0  0
   39.5120   22.5230   36.8600 N   0  0  0  0  0  0  0  0  0  0  0  0
   38.7240   23.3220   32.4590 C   0  0  0  0  0  0  0  0  0  0  0  0
   39.4130   22.7660   31.5350 O   0  0  0  0  0  0  0  0  0  0  0  0
   35.5120   24.8560   31.2740 C   0  0  0  0  0  0  0  0  0  0  0  0
   36.5050   23.9440   31.5900 C   0  0  0  0  0  0  0  0  0  0  0  0
   37.7060   24.3040   32.1810 C   0  0  0  0  0  0  0  0  0  0  0  0
   37.8600   25.6000   32.4350 N   0  0  0  0  0  0  0  0  0  0  0  0
   36.8850   26.5040   32.1250 C   0  0  0  0  0  0  0  0  0  0  0  0
   35.7450   26.1520   31.5620 N   0  0  0  0  0  0  0  0  0  0  0  0
   34.6250   24.4450   30.8170 H   0  0  0  0  0  0  0  0  0  0  0  0
   36.3610   22.8850   31.3770 H   0  0  0  0  0  0  0  0  0  0  0  0
   37.0470   27.5610   32.3490 H   0  0  0  0  0  0  0  0  0  0  0  0
  1  4  1  1  0  0  0
  1  2  1  0  0  0  0
  1  3  1  0  0  0  0
  2  6  1  0  0  0  0
  2  3  1  0  0  0  0
  3  7  1  6  0  0  0
  3  8  1  0  0  0  0
  5  2  1  0  0  0  0
  8 15  2  0  0  0  0
  8  9  1  0  0  0  0
  9 11  2  0  0  0  0
 10  9  1  0  0  0  0
 11 12  1  0  0  0  0
 13 11  1  0  0  0  0
 13 14  1  0  0  0  0
 15 13  1  0  0  0  0
 16  1  1  0  0  0  0
 17 16  2  0  0  0  0
 18 23  2  0  0  0  0
 18 19  1  0  0  0  0
 19 20  2  0  0  0  0
 20 21  1  0  0  0  0
 20 16  1  0  0  0  0
 22 26  1  0  0  0  0
 22 21  2  0  0  0  0
 23 22  1  0  0  0  0
 24 18  1  0  0  0  0
 25 19  1  0  0  0  0
M  END
>  <minimizedAffinity>
-4.23292732

$$$$

 OpenBabel03272501333D

 26 28  0  0  1  0  0  0  0  0999 V2000
   37.7750   23.4290   33.6350 C   0  0  2  0  0  0  0  0  0  0  0  0
   37.2970   22.3360   32.6020 C   0  0  0  0  0  0  0  0  0  0  0  0
   37.7830   23.7260   32.2180 C   0  0  1  0  0  0  0  0  0  0  0  0
   36.9210   23.5850   34.3290 H   0  0  0  0  0  0  0  0  0  0  0  0
   37.9440   21.4860   32.4250 H   0  0  0  0  0  0  0  0  0  0  0  0
   36.2130   22.1370   32.5650 H   0  0  0  0  0  0  0  0  0  0  0  0
   38.7540   23.7000   31.6530 H   0  0  0  0  0  0  0  0  0  0  0  0
   36.7400   24.5520   31.5700 C   0  0  0  0  0  0  0  0  0  0  0  0
   35.3930   24.2550   31.4160 C   0  0  0  0  0  0  0  0  0  0  0  0
   34.9640   23.3390   31.7790 H   0  0  0  0  0  0  0  0  0  0  0  0
   34.8580   25.3600   30.7440 C   0  0  0  0  0  0  0  0  0  0  0  0
   33.8090   25.3790   30.4980 H   0  0  0  0  0  0  0  0  0  0  0  0
   35.8390   26.2520   30.5160 N   0  0  0  0  0  0  0  0  0  0  0  0
   35.7050   27.1700   30.0260 H   0  0  0  0  0  0  0  0  0  0  0  0
   36.9620   25.7690   31.0110 N   0  0  0  0  0  0  0  0  0  0  0  0
   38.9910   22.9280   34.3360 C   0  0  0  0  0  0  0  0  0  0  0  0
   39.9410   22.4480   33.6260 O   0  0  0  0  0  0  0  0  0  0  0  0
   38.0400   23.6330   37.8960 C   0  0  0  0  0  0  0  0  0  0  0  0
   38.0100   23.5210   36.5160 C   0  0  0  0  0  0  0  0  0  0  0  0
   39.0540   22.9910   35.7750 C   0  0  0  0  0  0  0  0  0  0  0  0
   40.1120   22.5860   36.4720 N   0  0  0  0  0  0  0  0  0  0  0  0
   40.1480   22.6940   37.8330 C   0  0  0  0  0  0  0  0  0  0  0  0
   39.1490   23.2000   38.5300 N   0  0  0  0  0  0  0  0  0  0  0  0
   37.1610   24.0630   38.3520 H   0  0  0  0  0  0  0  0  0  0  0  0
   37.1350   23.8560   35.9610 H   0  0  0  0  0  0  0  0  0  0  0  0
   41.0330   22.3500   38.3720 H   0  0  0  0  0  0  0  0  0  0  0  0
  1  4  1  1  0  0  0
  1 16  1  0  0  0  0
  2  1  1  0  0  0  0
  3  7  1  6  0  0  0
  3  2  1  0  0  0  0
  3  1  1  0  0  0  0
  5  2  1  0  0  0  0
  6  2  1  0  0  0  0
  8  3  1  0  0  0  0
  9  8  1  0  0  0  0
  9 10  1  0  0  0  0
 11  9  2  0  0  0  0
 12 11  1  0  0  0  0
 13 11  1  0  0  0  0
 13 15  1  0  0  0  0
 14 13  1  0  0  0  0
 15  8  2  0  0  0  0
 16 20  1  0  0  0  0
 17 16  2  0  0  0  0
 18 24  1  0  0  0  0
 18 23  1  0  0  0  0
 19 18  2  0  0  0  0
 20 21  2  0  0  0  0
 20 19  1  0  0  0  0
 21 22  1  0  0  0  0
 22 26  1  0  0  0  0
 22 23  2  0  0  0  0
 25 19  1  0  0  0  0
M  END
>  <minimizedAffinity>
-4.2322588

$$$$
