
 OpenBabel03272509063D

 39 42  0  0  0  0  0  0  0  0999 V2000
   33.0380   28.0050   48.1230 C   0  0  0  0  0  0  0  0  0  0  0  0
   32.1740   28.6150   47.8340 H   0  0  0  0  0  0  0  0  0  0  0  0
   32.6540   27.3750   48.9830 H   0  0  0  0  0  0  0  0  0  0  0  0
   33.4540   27.0080   47.1070 C   0  0  0  0  0  0  0  0  0  0  0  0
   33.6460   25.6620   47.4090 C   0  0  0  0  0  0  0  0  0  0  0  0
   34.0360   24.7400   46.4760 C   0  0  0  0  0  0  0  0  0  0  0  0
   34.2560   25.1260   45.1700 C   0  0  0  0  0  0  0  0  0  0  0  0
   34.0730   26.4280   44.8630 C   0  0  0  0  0  0  0  0  0  0  0  0
   33.6790   27.3690   45.7980 C   0  0  0  0  0  0  0  0  0  0  0  0
   33.4660   25.3870   48.4400 H   0  0  0  0  0  0  0  0  0  0  0  0
   34.1660   23.7160   46.7750 H   0  0  0  0  0  0  0  0  0  0  0  0
   34.5630   24.3620   44.4700 H   0  0  0  0  0  0  0  0  0  0  0  0
   34.2510   26.7250   43.8250 H   0  0  0  0  0  0  0  0  0  0  0  0
   33.5130   28.7420   45.3350 C   0  0  0  0  0  0  0  0  0  0  0  0
   32.3580   29.3220   44.8420 C   0  0  0  0  0  0  0  0  0  0  0  0
   31.3840   28.8490   44.7190 H   0  0  0  0  0  0  0  0  0  0  0  0
   32.5560   30.6420   44.4940 C   0  0  0  0  0  0  0  0  0  0  0  0
   31.8650   31.3600   44.0860 H   0  0  0  0  0  0  0  0  0  0  0  0
   33.8510   30.8550   44.7830 N   0  0  0  0  0  0  0  0  0  0  0  0
   34.4280   31.7200   44.6780 H   0  0  0  0  0  0  0  0  0  0  0  0
   34.3780   29.7660   45.2600 N   0  0  0  0  0  0  0  0  0  0  0  0
   35.1030   28.3060   49.4830 C   0  0  0  0  0  0  0  0  0  0  0  0
   34.1630   28.7660   48.6940 C   0  0  0  0  0  0  0  0  0  0  0  0
   37.4010   30.1930   51.5950 C   0  0  0  0  0  0  0  0  0  0  0  0
   38.0930   30.9730   50.6480 C   0  0  0  0  0  0  0  0  0  0  0  0
   37.7410   30.8210   49.2950 C   0  0  0  0  0  0  0  0  0  0  0  0
   36.7490   29.9270   48.9770 N   0  0  0  0  0  0  0  0  0  0  0  0
   36.1330   29.2160   49.9460 C   0  0  0  0  0  0  0  0  0  0  0  0
   36.4490   29.3430   51.2320 N   0  0  0  0  0  0  0  0  0  0  0  0
   37.7320   30.3700   52.6120 H   0  0  0  0  0  0  0  0  0  0  0  0
   38.8650   31.6750   50.8430 H   0  0  0  0  0  0  0  0  0  0  0  0
   38.3900   31.5800   48.2150 C   0  0  0  0  0  0  0  0  0  0  0  0
   38.5990   31.0470   46.9670 C   0  0  0  0  0  0  0  0  0  0  0  0
   39.2340   32.0390   46.1970 C   0  0  0  0  0  0  0  0  0  0  0  0
   39.3730   33.1130   47.0160 N   0  0  0  0  0  0  0  0  0  0  0  0
   38.8710   32.8360   48.2130 N   0  0  0  0  0  0  0  0  0  0  0  0
   38.3480   30.0630   46.5860 H   0  0  0  0  0  0  0  0  0  0  0  0
   39.5440   31.9730   45.1810 H   0  0  0  0  0  0  0  0  0  0  0  0
   39.8230   33.9990   46.6840 H   0  0  0  0  0  0  0  0  0  0  0  0
  1 23  1  0  0  0  0
  1  3  1  0  0  0  0
  2  1  1  0  0  0  0
  4  5  1  0  0  0  0
  4  1  1  0  0  0  0
  5 10  1  0  0  0  0
  6 11  1  0  0  0  0
  6  5  2  0  0  0  0
  7  6  1  0  0  0  0
  8  7  2  0  0  0  0
  8  9  1  0  0  0  0
  9  4  2  0  0  0  0
 12  7  1  0  0  0  0
 13  8  1  0  0  0  0
 14  9  1  0  0  0  0
 15 14  1  0  0  0  0
 16 15  1  0  0  0  0
 17 19  1  0  0  0  0
 17 15  2  0  0  0  0
 18 17  1  0  0  0  0
 19 21  1  0  0  0  0
 20 19  1  0  0  0  0
 21 14  2  0  0  0  0
 22 28  1  0  0  0  0
 23 22  2  0  0  0  0
 24 30  1  0  0  0  0
 25 31  1  0  0  0  0
 25 24  2  0  0  0  0
 26 25  1  0  0  0  0
 27 26  2  0  0  0  0
 27 28  1  0  0  0  0
 28 29  2  0  0  0  0
 29 24  1  0  0  0  0
 32 26  1  0  0  0  0
 33 32  1  0  0  0  0
 34 33  2  0  0  0  0
 34 35  1  0  0  0  0
 35 36  1  0  0  0  0
 36 32  2  0  0  0  0
 37 33  1  0  0  0  0
 38 34  1  0  0  0  0
 39 35  1  0  0  0  0
M  END
>  <minimizedAffinity>
-6.39248943

>  <minimizedRMSD>
0.374762088

$$$$
