
 OpenBabel03272509523D

 42 45  0  0  0  0  0  0  0  0999 V2000
   34.3500   28.7750   48.0730 C   0  0  0  0  0  0  0  0  0  0  0  0
   35.1530   29.0890   47.3920 H   0  0  0  0  0  0  0  0  0  0  0  0
   33.6750   29.6560   48.2700 H   0  0  0  0  0  0  0  0  0  0  0  0
   33.4890   27.6850   47.5230 C   0  0  0  0  0  0  0  0  0  0  0  0
   33.7770   26.6760   47.8760 H   0  0  0  0  0  0  0  0  0  0  0  0
   33.6190   27.6830   46.4130 H   0  0  0  0  0  0  0  0  0  0  0  0
   32.0370   27.9170   47.7460 C   0  0  0  0  0  0  0  0  0  0  0  0
   31.4730   27.3770   48.8930 C   0  0  0  0  0  0  0  0  0  0  0  0
   30.1520   27.5250   49.2000 C   0  0  0  0  0  0  0  0  0  0  0  0
   29.3830   28.2100   48.3750 N   0  0  0  0  0  0  0  0  0  0  0  0
   29.9300   28.7500   47.2350 C   0  0  0  0  0  0  0  0  0  0  0  0
   31.2390   28.6130   46.9140 N   0  0  0  0  0  0  0  0  0  0  0  0
   32.1040   26.8090   49.5810 H   0  0  0  0  0  0  0  0  0  0  0  0
   29.6980   27.1080   50.0950 H   0  0  0  0  0  0  0  0  0  0  0  0
   29.1030   29.5130   46.3030 C   0  0  0  0  0  0  0  0  0  0  0  0
   27.7950   29.8450   46.6690 C   0  0  0  0  0  0  0  0  0  0  0  0
   27.2020   29.6480   47.5650 H   0  0  0  0  0  0  0  0  0  0  0  0
   27.2460   30.5640   45.6010 C   0  0  0  0  0  0  0  0  0  0  0  0
   26.2800   31.0140   45.4390 H   0  0  0  0  0  0  0  0  0  0  0  0
   28.2060   30.6410   44.6590 N   0  0  0  0  0  0  0  0  0  0  0  0
   28.1320   31.1190   43.7120 H   0  0  0  0  0  0  0  0  0  0  0  0
   29.3180   30.0150   45.0710 N   0  0  0  0  0  0  0  0  0  0  0  0
   34.9070   28.3900   49.3320 O   0  0  0  0  0  0  0  0  0  0  0  0
   37.2100   30.0730   51.5350 C   0  0  0  0  0  0  0  0  0  0  0  0
   37.9850   30.8040   50.5820 C   0  0  0  0  0  0  0  0  0  0  0  0
   37.6470   30.6560   49.2430 C   0  0  0  0  0  0  0  0  0  0  0  0
   36.6040   29.8230   48.9580 N   0  0  0  0  0  0  0  0  0  0  0  0
   35.8980   29.1540   49.8770 C   0  0  0  0  0  0  0  0  0  0  0  0
   36.2080   29.2830   51.1740 N   0  0  0  0  0  0  0  0  0  0  0  0
   37.5360   30.2430   52.5520 H   0  0  0  0  0  0  0  0  0  0  0  0
   38.7950   31.4470   50.8280 H   0  0  0  0  0  0  0  0  0  0  0  0
   38.8320   33.2960   49.1850 F   0  0  0  0  0  0  0  0  0  0  0  0
   38.8730   32.5400   48.1010 C   0  0  0  0  0  0  0  0  0  0  0  0
   38.3140   31.3110   48.1500 C   0  0  0  0  0  0  0  0  0  0  0  0
   38.4120   30.5960   46.9520 C   0  0  0  0  0  0  0  0  0  0  0  0
   39.0270   31.1070   45.8270 C   0  0  0  0  0  0  0  0  0  0  0  0
   39.5810   32.3630   45.8270 C   0  0  0  0  0  0  0  0  0  0  0  0
   39.4940   33.0800   46.9920 C   0  0  0  0  0  0  0  0  0  0  0  0
   38.0030   29.5880   46.8510 H   0  0  0  0  0  0  0  0  0  0  0  0
   39.0820   30.5210   44.9180 H   0  0  0  0  0  0  0  0  0  0  0  0
   40.0560   32.7580   44.9530 H   0  0  0  0  0  0  0  0  0  0  0  0
   39.9230   34.0690   47.0130 H   0  0  0  0  0  0  0  0  0  0  0  0
  1  3  1  0  0  0  0
  1 23  1  0  0  0  0
  2  1  1  0  0  0  0
  4  7  1  0  0  0  0
  4  5  1  0  0  0  0
  4  1  1  0  0  0  0
  6  4  1  0  0  0  0
  7  8  1  0  0  0  0
  8  9  2  0  0  0  0
  8 13  1  0  0  0  0
  9 14  1  0  0  0  0
 10  9  1  0  0  0  0
 11 10  2  0  0  0  0
 12 11  1  0  0  0  0
 12  7  2  0  0  0  0
 15 16  1  0  0  0  0
 15 11  1  0  0  0  0
 16 17  1  0  0  0  0
 18 16  2  0  0  0  0
 19 18  1  0  0  0  0
 20 22  1  0  0  0  0
 20 18  1  0  0  0  0
 21 20  1  0  0  0  0
 22 15  2  0  0  0  0
 23 28  1  0  0  0  0
 24 30  1  0  0  0  0
 25 31  1  0  0  0  0
 25 24  2  0  0  0  0
 26 25  1  0  0  0  0
 27 26  2  0  0  0  0
 27 28  1  0  0  0  0
 28 29  2  0  0  0  0
 29 24  1  0  0  0  0
 33 34  1  0  0  0  0
 33 32  1  0  0  0  0
 34 26  1  0  0  0  0
 35 34  2  0  0  0  0
 36 37  2  0  0  0  0
 36 35  1  0  0  0  0
 37 38  1  0  0  0  0
 38 42  1  0  0  0  0
 38 33  2  0  0  0  0
 39 35  1  0  0  0  0
 40 36  1  0  0  0  0
 41 37  1  0  0  0  0
M  END
>  <minimizedAffinity>
-6.58271027

>  <minimizedRMSD>
0.49762243

$$$$
