
 OpenBabel03262521393D

 42 46  0  0  0  0  0  0  0  0999 V2000
   38.2620   31.4280   46.6890 C   0  0  0  0  0  0  0  0  0  0  0  0
   38.6660   31.4010   45.3880 N   0  0  0  0  0  0  0  0  0  0  0  0
   39.5300   32.3420   44.9290 C   0  0  0  0  0  0  0  0  0  0  0  0
   40.0170   33.3150   45.7050 N   0  0  0  0  0  0  0  0  0  0  0  0
   39.6460   33.3850   47.0000 C   0  0  0  0  0  0  0  0  0  0  0  0
   40.1560   34.3670   47.7960 C   0  0  0  0  0  0  0  0  0  0  0  0
   39.8130   34.4540   49.1180 C   0  0  0  0  0  0  0  0  0  0  0  0
   38.9300   33.5210   49.6360 C   0  0  0  0  0  0  0  0  0  0  0  0
   38.4180   32.5270   48.8090 C   0  0  0  0  0  0  0  0  0  0  0  0
   38.7580   32.4350   47.5040 C   0  0  0  0  0  0  0  0  0  0  0  0
   39.7560   32.1920   43.8860 H   0  0  0  0  0  0  0  0  0  0  0  0
   40.8310   35.0610   47.3450 H   0  0  0  0  0  0  0  0  0  0  0  0
   40.2630   35.2570   49.6720 H   0  0  0  0  0  0  0  0  0  0  0  0
   38.7420   33.7020   50.6870 H   0  0  0  0  0  0  0  0  0  0  0  0
   37.5030   31.6890   49.5840 C   0  0  0  0  0  0  0  0  0  0  0  0
   37.9820   30.7560   50.5300 C   0  0  0  0  0  0  0  0  0  0  0  0
   39.0310   30.5420   50.8620 H   0  0  0  0  0  0  0  0  0  0  0  0
   37.0450   29.9840   51.1450 C   0  0  0  0  0  0  0  0  0  0  0  0
   37.0900   29.2110   51.8840 H   0  0  0  0  0  0  0  0  0  0  0  0
   35.9340   30.4370   50.5770 N   0  0  0  0  0  0  0  0  0  0  0  0
   34.9090   30.1780   50.6950 H   0  0  0  0  0  0  0  0  0  0  0  0
   36.2410   31.3450   49.7530 N   0  0  0  0  0  0  0  0  0  0  0  0
   37.2020   30.2410   47.4200 S   0  0  0  0  0  0  0  0  0  0  0  0
   34.8040   28.7830   48.2720 F   0  0  0  0  0  0  0  0  0  0  0  0
   34.6820   29.2260   46.9840 C   0  0  0  0  0  0  0  0  0  0  0  0
   33.5350   28.9740   46.2380 C   0  0  0  0  0  0  0  0  0  0  0  0
   33.4670   29.4510   44.9260 C   0  0  0  0  0  0  0  0  0  0  0  0
   34.5180   30.1650   44.3630 C   0  0  0  0  0  0  0  0  0  0  0  0
   35.6290   30.3790   45.1610 C   0  0  0  0  0  0  0  0  0  0  0  0
   35.7340   29.9280   46.4550 C   0  0  0  0  0  0  0  0  0  0  0  0
   32.5570   29.2450   44.3540 H   0  0  0  0  0  0  0  0  0  0  0  0
   34.4110   30.5090   43.3480 H   0  0  0  0  0  0  0  0  0  0  0  0
   36.4060   30.9410   44.6630 H   0  0  0  0  0  0  0  0  0  0  0  0
   32.8470   26.9680   47.2760 C   0  0  0  0  0  0  0  0  0  0  0  0
   32.4990   28.2410   46.8670 C   0  0  0  0  0  0  0  0  0  0  0  0
   31.1940   28.6320   47.1220 C   0  0  0  0  0  0  0  0  0  0  0  0
   30.3580   27.7580   47.7430 N   0  0  0  0  0  0  0  0  0  0  0  0
   30.7350   26.5500   48.1170 C   0  0  0  0  0  0  0  0  0  0  0  0
   31.9800   26.1280   47.8950 N   0  0  0  0  0  0  0  0  0  0  0  0
   33.8420   26.5190   47.1430 H   0  0  0  0  0  0  0  0  0  0  0  0
   30.9440   29.6290   46.7940 H   0  0  0  0  0  0  0  0  0  0  0  0
   29.9780   25.9450   48.6050 H   0  0  0  0  0  0  0  0  0  0  0  0
  1 23  1  0  0  0  0
  1 10  1  0  0  0  0
  2  1  2  0  0  0  0
  3  2  1  0  0  0  0
  3  4  2  0  0  0  0
  4  5  1  0  0  0  0
  5 10  2  0  0  0  0
  5  6  1  0  0  0  0
  6  7  2  0  0  0  0
  7  8  1  0  0  0  0
  7 13  1  0  0  0  0
  8 14  1  0  0  0  0
  9 15  1  0  0  0  0
  9  8  2  0  0  0  0
 10  9  1  0  0  0  0
 11  3  1  0  0  0  0
 12  6  1  0  0  0  0
 15 22  2  0  0  0  0
 15 16  1  0  0  0  0
 16 17  1  0  0  0  0
 16 18  2  0  0  0  0
 18 19  1  0  0  0  0
 20 21  1  0  0  0  0
 20 18  1  0  0  0  0
 22 20  1  0  0  0  0
 25 24  1  0  0  0  0
 26 35  1  0  0  0  0
 26 25  2  0  0  0  0
 27 26  1  0  0  0  0
 28 27  2  0  0  0  0
 28 29  1  0  0  0  0
 29 30  2  0  0  0  0
 30 25  1  0  0  0  0
 30 23  1  0  0  0  0
 31 27  1  0  0  0  0
 32 28  1  0  0  0  0
 33 29  1  0  0  0  0
 34 39  1  0  0  0  0
 35 36  1  0  0  0  0
 35 34  2  0  0  0  0
 36 37  2  0  0  0  0
 37 38  1  0  0  0  0
 38 42  1  0  0  0  0
 39 38  2  0  0  0  0
 40 34  1  0  0  0  0
 41 36  1  0  0  0  0
M  END
>  <minimizedAffinity>
-6.51581621

>  <minimizedRMSD>
1.0047009

$$$$
