
 OpenBabel03272509343D

 40 44  0  0  1  0  0  0  0  0999 V2000
   37.5580   27.6070   34.1300 C   0  0  1  0  0  0  0  0  0  0  0  0
   38.1080   27.6180   35.4980 C   0  0  0  0  0  0  0  0  0  0  0  0
   37.2400   26.4680   35.1370 C   0  0  2  0  0  0  0  0  0  0  0  0
   38.1340   27.2120   33.3040 H   0  0  0  0  0  0  0  0  0  0  0  0
   37.6210   28.4200   36.1650 H   0  0  0  0  0  0  0  0  0  0  0  0
   39.1830   27.6960   35.4970 H   0  0  0  0  0  0  0  0  0  0  0  0
   36.1650   26.3200   35.1660 H   0  0  0  0  0  0  0  0  0  0  0  0
   38.0290   25.2120   35.0710 C   0  0  0  0  0  0  0  0  0  0  0  0
   38.3890   24.9320   33.7470 C   0  0  0  0  0  0  0  0  0  0  0  0
   39.2030   23.8600   33.4400 C   0  0  0  0  0  0  0  0  0  0  0  0
   39.6860   23.0340   34.4450 C   0  0  0  0  0  0  0  0  0  0  0  0
   39.3220   23.3260   35.7390 C   0  0  0  0  0  0  0  0  0  0  0  0
   39.7200   22.5770   36.8260 C   0  0  0  0  0  0  0  0  0  0  0  0
   39.3470   22.8530   38.1280 C   0  0  0  0  0  0  0  0  0  0  0  0
   38.5220   23.9530   38.3690 C   0  0  0  0  0  0  0  0  0  0  0  0
   38.1230   24.7020   37.2930 C   0  0  0  0  0  0  0  0  0  0  0  0
   38.5180   24.3890   36.0160 C   0  0  0  0  0  0  0  0  0  0  0  0
   38.2170   25.3580   32.7790 H   0  0  0  0  0  0  0  0  0  0  0  0
   39.5690   23.5100   32.4870 H   0  0  0  0  0  0  0  0  0  0  0  0
   40.3320   22.1550   34.3800 H   0  0  0  0  0  0  0  0  0  0  0  0
   40.3630   21.7170   36.6610 H   0  0  0  0  0  0  0  0  0  0  0  0
   39.6810   22.2400   38.9560 H   0  0  0  0  0  0  0  0  0  0  0  0
   38.1890   24.2310   39.3590 H   0  0  0  0  0  0  0  0  0  0  0  0
   37.4700   25.5690   37.5030 H   0  0  0  0  0  0  0  0  0  0  0  0
   34.6980   29.2440   32.2960 C   0  0  0  0  0  0  0  0  0  0  0  0
   35.8200   28.4060   32.5720 C   0  0  0  0  0  0  0  0  0  0  0  0
   36.3930   28.4600   33.8230 C   0  0  0  0  0  0  0  0  0  0  0  0
   35.8350   29.3310   34.7340 N   0  0  0  0  0  0  0  0  0  0  0  0
   34.7860   30.1040   34.4520 C   0  0  0  0  0  0  0  0  0  0  0  0
   34.1970   30.0810   33.2390 N   0  0  0  0  0  0  0  0  0  0  0  0
   34.2470   29.2030   31.3140 H   0  0  0  0  0  0  0  0  0  0  0  0
   36.1810   27.7550   31.7850 H   0  0  0  0  0  0  0  0  0  0  0  0
   34.3900   30.9340   35.5880 C   0  0  0  0  0  0  0  0  0  0  0  0
   33.1970   31.3370   36.1990 C   0  0  0  0  0  0  0  0  0  0  0  0
   32.3000   30.9700   35.7590 H   0  0  0  0  0  0  0  0  0  0  0  0
   33.5980   32.1390   37.2490 C   0  0  0  0  0  0  0  0  0  0  0  0
   32.8070   32.5750   37.8800 H   0  0  0  0  0  0  0  0  0  0  0  0
   34.9540   32.2230   37.2850 N   0  0  0  0  0  0  0  0  0  0  0  0
   35.4490   32.7860   38.0100 H   0  0  0  0  0  0  0  0  0  0  0  0
   35.4250   31.4940   36.2790 N   0  0  0  0  0  0  0  0  0  0  0  0
  1  4  1  6  0  0  0
  1  3  1  0  0  0  0
  1  2  1  0  0  0  0
  2  5  1  0  0  0  0
  3  7  1  1  0  0  0
  3  2  1  0  0  0  0
  6  2  1  0  0  0  0
  8  3  1  0  0  0  0
  8 17  1  0  0  0  0
  9  8  2  0  0  0  0
 10  9  1  0  0  0  0
 10 11  2  0  0  0  0
 11 12  1  0  0  0  0
 12 17  2  0  0  0  0
 12 13  1  0  0  0  0
 13 14  2  0  0  0  0
 14 15  1  0  0  0  0
 14 22  1  0  0  0  0
 15 23  1  0  0  0  0
 16 24  1  0  0  0  0
 16 15  2  0  0  0  0
 17 16  1  0  0  0  0
 18  9  1  0  0  0  0
 19 10  1  0  0  0  0
 20 11  1  0  0  0  0
 21 13  1  0  0  0  0
 25 26  2  0  0  0  0
 25 30  1  0  0  0  0
 26 27  1  0  0  0  0
 27  1  1  0  0  0  0
 27 28  2  0  0  0  0
 29 28  1  0  0  0  0
 29 33  1  0  0  0  0
 30 29  2  0  0  0  0
 31 25  1  0  0  0  0
 32 26  1  0  0  0  0
 33 34  1  0  0  0  0
 33 40  2  0  0  0  0
 34 36  2  0  0  0  0
 35 34  1  0  0  0  0
 36 38  1  0  0  0  0
 36 37  1  0  0  0  0
 38 39  1  0  0  0  0
 40 38  1  0  0  0  0
M  END
>  <minimizedAffinity>
-6.68252373

$$$$

 OpenBabel03272509343D

 40 44  0  0  1  0  0  0  0  0999 V2000
   37.9710   27.0390   33.2340 C   0  0  1  0  0  0  0  0  0  0  0  0
   37.7600   27.4220   31.8260 C   0  0  0  0  0  0  0  0  0  0  0  0
   36.5800   27.5070   32.7250 C   0  0  2  0  0  0  0  0  0  0  0  0
   38.3540   27.7530   33.9520 H   0  0  0  0  0  0  0  0  0  0  0  0
   37.7800   26.5180   31.1140 H   0  0  0  0  0  0  0  0  0  0  0  0
   38.4450   28.1940   31.5140 H   0  0  0  0  0  0  0  0  0  0  0  0
   35.8360   26.7810   33.0320 H   0  0  0  0  0  0  0  0  0  0  0  0
   36.1790   28.9210   32.9350 C   0  0  0  0  0  0  0  0  0  0  0  0
   35.8000   29.1280   34.2670 C   0  0  0  0  0  0  0  0  0  0  0  0
   35.4690   30.3860   34.7280 C   0  0  0  0  0  0  0  0  0  0  0  0
   35.5070   31.4800   33.8740 C   0  0  0  0  0  0  0  0  0  0  0  0
   35.8830   31.2570   32.5700 C   0  0  0  0  0  0  0  0  0  0  0  0
   35.9470   32.2530   31.6190 C   0  0  0  0  0  0  0  0  0  0  0  0
   36.3070   32.0360   30.3020 C   0  0  0  0  0  0  0  0  0  0  0  0
   36.6310   30.7380   29.9010 C   0  0  0  0  0  0  0  0  0  0  0  0
   36.5690   29.7440   30.8420 C   0  0  0  0  0  0  0  0  0  0  0  0
   36.2050   30.0060   32.1400 C   0  0  0  0  0  0  0  0  0  0  0  0
   35.6900   28.5360   35.1530 H   0  0  0  0  0  0  0  0  0  0  0  0
   35.1600   30.7120   35.7090 H   0  0  0  0  0  0  0  0  0  0  0  0
   35.2800   32.5300   34.0710 H   0  0  0  0  0  0  0  0  0  0  0  0
   35.7000   33.2690   31.9090 H   0  0  0  0  0  0  0  0  0  0  0  0
   36.3460   32.8450   29.5840 H   0  0  0  0  0  0  0  0  0  0  0  0
   36.9220   30.4920   28.8900 H   0  0  0  0  0  0  0  0  0  0  0  0
   36.8290   28.7220   30.5070 H   0  0  0  0  0  0  0  0  0  0  0  0
   37.8940   23.2790   32.9640 C   0  0  0  0  0  0  0  0  0  0  0  0
   37.8540   24.6580   32.6000 C   0  0  0  0  0  0  0  0  0  0  0  0
   38.0150   25.6060   33.5850 C   0  0  0  0  0  0  0  0  0  0  0  0
   38.2080   25.1510   34.8710 N   0  0  0  0  0  0  0  0  0  0  0  0
   38.2420   23.8560   35.1870 C   0  0  0  0  0  0  0  0  0  0  0  0
   38.0870   22.8970   34.2510 N   0  0  0  0  0  0  0  0  0  0  0  0
   37.7670   22.5320   32.1910 H   0  0  0  0  0  0  0  0  0  0  0  0
   37.6980   24.9100   31.5580 H   0  0  0  0  0  0  0  0  0  0  0  0
   38.4600   23.6400   36.6150 C   0  0  0  0  0  0  0  0  0  0  0  0
   37.9470   24.1360   37.8200 C   0  0  0  0  0  0  0  0  0  0  0  0
   37.1860   24.8750   37.7330 H   0  0  0  0  0  0  0  0  0  0  0  0
   38.6430   23.4590   38.8000 C   0  0  0  0  0  0  0  0  0  0  0  0
   38.3970   23.6950   39.8470 H   0  0  0  0  0  0  0  0  0  0  0  0
   39.5300   22.5970   38.2370 N   0  0  0  0  0  0  0  0  0  0  0  0
   40.1510   21.9920   38.8160 H   0  0  0  0  0  0  0  0  0  0  0  0
   39.4140   22.7120   36.9180 N   0  0  0  0  0  0  0  0  0  0  0  0
  1 27  1  0  0  0  0
  1  4  1  1  0  0  0
  2  3  1  0  0  0  0
  2  1  1  0  0  0  0
  3  8  1  0  0  0  0
  3  7  1  6  0  0  0
  3  1  1  0  0  0  0
  5  2  1  0  0  0  0
  6  2  1  0  0  0  0
  8  9  1  0  0  0  0
  9 10  2  0  0  0  0
  9 18  1  0  0  0  0
 10 19  1  0  0  0  0
 11 20  1  0  0  0  0
 11 10  1  0  0  0  0
 12 11  2  0  0  0  0
 13 21  1  0  0  0  0
 13 12  1  0  0  0  0
 14 13  2  0  0  0  0
 15 14  1  0  0  0  0
 15 16  2  0  0  0  0
 16 17  1  0  0  0  0
 17 12  1  0  0  0  0
 17  8  2  0  0  0  0
 22 14  1  0  0  0  0
 23 15  1  0  0  0  0
 24 16  1  0  0  0  0
 25 30  1  0  0  0  0
 26 25  2  0  0  0  0
 26 27  1  0  0  0  0
 27 28  2  0  0  0  0
 28 29  1  0  0  0  0
 29 33  1  0  0  0  0
 30 29  2  0  0  0  0
 31 25  1  0  0  0  0
 32 26  1  0  0  0  0
 33 40  2  0  0  0  0
 33 34  1  0  0  0  0
 34 36  2  0  0  0  0
 35 34  1  0  0  0  0
 36 37  1  0  0  0  0
 38 36  1  0  0  0  0
 38 39  1  0  0  0  0
 40 38  1  0  0  0  0
M  END
>  <minimizedAffinity>
-6.51728773

$$$$

 OpenBabel03272509343D

 40 44  0  0  1  0  0  0  0  0999 V2000
   39.0380   26.6780   34.5960 C   0  0  1  0  0  0  0  0  0  0  0  0
   38.0810   27.0590   35.6510 C   0  0  0  0  0  0  0  0  0  0  0  0
   38.0610   25.6400   35.2130 C   0  0  2  0  0  0  0  0  0  0  0  0
   40.0560   26.4090   34.8410 H   0  0  0  0  0  0  0  0  0  0  0  0
   37.2220   27.7150   35.2530 H   0  0  0  0  0  0  0  0  0  0  0  0
   38.5760   27.5120   36.4940 H   0  0  0  0  0  0  0  0  0  0  0  0
   37.5460   25.1250   34.4080 H   0  0  0  0  0  0  0  0  0  0  0  0
   38.5520   24.7480   36.2940 C   0  0  0  0  0  0  0  0  0  0  0  0
   37.8250   24.9640   37.4720 C   0  0  0  0  0  0  0  0  0  0  0  0
   38.0390   24.1900   38.5940 C   0  0  0  0  0  0  0  0  0  0  0  0
   38.9840   23.1730   38.5780 C   0  0  0  0  0  0  0  0  0  0  0  0
   39.6870   22.9760   37.4120 C   0  0  0  0  0  0  0  0  0  0  0  0
   40.6620   22.0130   37.2680 C   0  0  0  0  0  0  0  0  0  0  0  0
   41.3850   21.8180   36.1060 C   0  0  0  0  0  0  0  0  0  0  0  0
   41.1180   22.6360   35.0060 C   0  0  0  0  0  0  0  0  0  0  0  0
   40.1500   23.5950   35.1420 C   0  0  0  0  0  0  0  0  0  0  0  0
   39.4570   23.7530   36.3180 C   0  0  0  0  0  0  0  0  0  0  0  0
   37.0450   25.6180   37.8050 H   0  0  0  0  0  0  0  0  0  0  0  0
   37.5730   24.2240   39.5670 H   0  0  0  0  0  0  0  0  0  0  0  0
   39.2770   22.4760   39.3660 H   0  0  0  0  0  0  0  0  0  0  0  0
   40.8850   21.3650   38.1100 H   0  0  0  0  0  0  0  0  0  0  0  0
   42.1440   21.0490   36.0320 H   0  0  0  0  0  0  0  0  0  0  0  0
   41.6420   22.5420   34.0650 H   0  0  0  0  0  0  0  0  0  0  0  0
   39.9520   24.2340   34.2620 H   0  0  0  0  0  0  0  0  0  0  0  0
   39.1310   26.7780   30.8270 C   0  0  0  0  0  0  0  0  0  0  0  0
   39.4470   26.4330   32.1750 C   0  0  0  0  0  0  0  0  0  0  0  0
   38.7250   27.0140   33.1930 C   0  0  0  0  0  0  0  0  0  0  0  0
   37.7330   27.9010   32.8340 N   0  0  0  0  0  0  0  0  0  0  0  0
   37.4560   28.2080   31.5660 C   0  0  0  0  0  0  0  0  0  0  0  0
   38.1410   27.6590   30.5410 N   0  0  0  0  0  0  0  0  0  0  0  0
   39.6970   26.3220   30.0260 H   0  0  0  0  0  0  0  0  0  0  0  0
   40.2460   25.7220   32.3490 H   0  0  0  0  0  0  0  0  0  0  0  0
   36.3620   29.1700   31.4560 C   0  0  0  0  0  0  0  0  0  0  0  0
   35.2120   29.5050   32.1810 C   0  0  0  0  0  0  0  0  0  0  0  0
   35.0340   28.9370   33.0630 H   0  0  0  0  0  0  0  0  0  0  0  0
   34.6390   30.5370   31.4660 C   0  0  0  0  0  0  0  0  0  0  0  0
   33.7040   30.9660   31.8610 H   0  0  0  0  0  0  0  0  0  0  0  0
   35.3890   30.8220   30.3680 N   0  0  0  0  0  0  0  0  0  0  0  0
   35.1190   31.5760   29.7000 H   0  0  0  0  0  0  0  0  0  0  0  0
   36.4270   29.9930   30.3690 N   0  0  0  0  0  0  0  0  0  0  0  0
  1  4  1  1  0  0  0
  1  3  1  0  0  0  0
  1  2  1  0  0  0  0
  2  6  1  0  0  0  0
  3  7  1  6  0  0  0
  3  2  1  0  0  0  0
  3  8  1  0  0  0  0
  5  2  1  0  0  0  0
  8 17  2  0  0  0  0
  8  9  1  0  0  0  0
  9 18  1  0  0  0  0
  9 10  2  0  0  0  0
 10 19  1  0  0  0  0
 11 10  1  0  0  0  0
 11 20  1  0  0  0  0
 12 11  2  0  0  0  0
 13 12  1  0  0  0  0
 13 21  1  0  0  0  0
 14 13  2  0  0  0  0
 15 16  2  0  0  0  0
 15 14  1  0  0  0  0
 16 17  1  0  0  0  0
 17 12  1  0  0  0  0
 22 14  1  0  0  0  0
 23 15  1  0  0  0  0
 24 16  1  0  0  0  0
 25 26  1  0  0  0  0
 26 32  1  0  0  0  0
 26 27  2  0  0  0  0
 27  1  1  0  0  0  0
 28 27  1  0  0  0  0
 29 28  2  0  0  0  0
 30 25  2  0  0  0  0
 30 29  1  0  0  0  0
 31 25  1  0  0  0  0
 33 29  1  0  0  0  0
 33 34  1  0  0  0  0
 34 35  1  0  0  0  0
 36 37  1  0  0  0  0
 36 34  2  0  0  0  0
 38 40  1  0  0  0  0
 38 36  1  0  0  0  0
 39 38  1  0  0  0  0
 40 33  2  0  0  0  0
M  END
>  <minimizedAffinity>
-6.38287401

$$$$

 OpenBabel03272509343D

 40 44  0  0  1  0  0  0  0  0999 V2000
   38.3460   25.6900   32.3050 C   0  0  1  0  0  0  0  0  0  0  0  0
   38.1450   25.7180   30.8440 C   0  0  0  0  0  0  0  0  0  0  0  0
   37.0310   26.2350   31.6810 C   0  0  2  0  0  0  0  0  0  0  0  0
   38.8690   26.4920   32.8080 H   0  0  0  0  0  0  0  0  0  0  0  0
   37.9870   24.6680   30.3990 H   0  0  0  0  0  0  0  0  0  0  0  0
   38.9340   26.2530   30.3420 H   0  0  0  0  0  0  0  0  0  0  0  0
   36.1900   25.7520   32.1670 H   0  0  0  0  0  0  0  0  0  0  0  0
   36.8760   27.7010   31.5040 C   0  0  0  0  0  0  0  0  0  0  0  0
   37.1800   28.0680   30.1870 C   0  0  0  0  0  0  0  0  0  0  0  0
   37.0250   29.3690   29.7550 C   0  0  0  0  0  0  0  0  0  0  0  0
   36.5580   30.3470   30.6220 C   0  0  0  0  0  0  0  0  0  0  0  0
   36.2630   29.9680   31.9110 C   0  0  0  0  0  0  0  0  0  0  0  0
   35.8080   30.8430   32.8740 C   0  0  0  0  0  0  0  0  0  0  0  0
   35.5250   30.4740   34.1750 C   0  0  0  0  0  0  0  0  0  0  0  0
   35.7040   29.1400   34.5480 C   0  0  0  0  0  0  0  0  0  0  0  0
   36.1570   28.2650   33.5960 C   0  0  0  0  0  0  0  0  0  0  0  0
   36.4260   28.6780   32.3130 C   0  0  0  0  0  0  0  0  0  0  0  0
   37.5260   27.5830   29.2960 H   0  0  0  0  0  0  0  0  0  0  0  0
   37.2110   29.8120   28.7890 H   0  0  0  0  0  0  0  0  0  0  0  0
   36.3780   31.4110   30.4480 H   0  0  0  0  0  0  0  0  0  0  0  0
   35.6610   31.8840   32.6060 H   0  0  0  0  0  0  0  0  0  0  0  0
   35.1690   31.1910   34.9040 H   0  0  0  0  0  0  0  0  0  0  0  0
   35.5040   28.7780   35.5460 H   0  0  0  0  0  0  0  0  0  0  0  0
   36.2930   27.2130   33.9080 H   0  0  0  0  0  0  0  0  0  0  0  0
   37.6610   22.0560   33.0440 C   0  0  0  0  0  0  0  0  0  0  0  0
   37.8350   23.2770   32.3250 C   0  0  0  0  0  0  0  0  0  0  0  0
   38.1670   24.4150   33.0260 C   0  0  0  0  0  0  0  0  0  0  0  0
   38.3130   24.2930   34.3900 N   0  0  0  0  0  0  0  0  0  0  0  0
   38.1460   23.1410   35.0400 C   0  0  0  0  0  0  0  0  0  0  0  0
   37.8190   22.0050   34.3900 N   0  0  0  0  0  0  0  0  0  0  0  0
   37.3990   21.1610   32.4950 H   0  0  0  0  0  0  0  0  0  0  0  0
   37.6980   23.2640   31.2510 H   0  0  0  0  0  0  0  0  0  0  0  0
   38.3580   23.2810   36.4790 C   0  0  0  0  0  0  0  0  0  0  0  0
   37.7870   23.9990   37.5360 C   0  0  0  0  0  0  0  0  0  0  0  0
   36.9700   24.6320   37.2830 H   0  0  0  0  0  0  0  0  0  0  0  0
   38.5200   23.6270   38.6450 C   0  0  0  0  0  0  0  0  0  0  0  0
   38.2390   24.0780   39.6100 H   0  0  0  0  0  0  0  0  0  0  0  0
   39.4830   22.7350   38.2940 N   0  0  0  0  0  0  0  0  0  0  0  0
   40.1430   22.3340   38.9960 H   0  0  0  0  0  0  0  0  0  0  0  0
   39.3800   22.5310   36.9850 N   0  0  0  0  0  0  0  0  0  0  0  0
  1  4  1  1  0  0  0
  1 27  1  0  0  0  0
  2  3  1  0  0  0  0
  2  1  1  0  0  0  0
  3  7  1  1  0  0  0
  3  1  1  0  0  0  0
  5  2  1  0  0  0  0
  6  2  1  0  0  0  0
  8  3  1  0  0  0  0
  8 17  1  0  0  0  0
  9  8  2  0  0  0  0
 10  9  1  0  0  0  0
 10 11  2  0  0  0  0
 11 12  1  0  0  0  0
 12 17  2  0  0  0  0
 12 13  1  0  0  0  0
 13 14  2  0  0  0  0
 14 15  1  0  0  0  0
 14 22  1  0  0  0  0
 15 23  1  0  0  0  0
 16 24  1  0  0  0  0
 16 15  2  0  0  0  0
 17 16  1  0  0  0  0
 18  9  1  0  0  0  0
 19 10  1  0  0  0  0
 20 11  1  0  0  0  0
 21 13  1  0  0  0  0
 25 30  1  0  0  0  0
 26 27  1  0  0  0  0
 26 25  2  0  0  0  0
 27 28  2  0  0  0  0
 28 29  1  0  0  0  0
 29 33  1  0  0  0  0
 30 29  2  0  0  0  0
 31 25  1  0  0  0  0
 32 26  1  0  0  0  0
 33 40  2  0  0  0  0
 33 34  1  0  0  0  0
 34 36  2  0  0  0  0
 35 34  1  0  0  0  0
 36 37  1  0  0  0  0
 38 36  1  0  0  0  0
 38 39  1  0  0  0  0
 40 38  1  0  0  0  0
M  END
>  <minimizedAffinity>
-6.35568953

$$$$

 OpenBabel03272509343D

 40 44  0  0  1  0  0  0  0  0999 V2000
   38.5690   26.9410   34.7240 C   0  0  1  0  0  0  0  0  0  0  0  0
   38.1730   27.1790   36.1240 C   0  0  0  0  0  0  0  0  0  0  0  0
   37.8130   25.8600   35.5440 C   0  0  2  0  0  0  0  0  0  0  0  0
   39.5610   26.5850   34.4810 H   0  0  0  0  0  0  0  0  0  0  0  0
   37.3090   27.9350   36.2180 H   0  0  0  0  0  0  0  0  0  0  0  0
   39.0150   27.4550   36.7370 H   0  0  0  0  0  0  0  0  0  0  0  0
   36.9610   25.5180   34.9660 H   0  0  0  0  0  0  0  0  0  0  0  0
   38.5930   24.7720   36.1860 C   0  0  0  0  0  0  0  0  0  0  0  0
   38.1980   24.6110   37.5200 C   0  0  0  0  0  0  0  0  0  0  0  0
   38.7200   23.5990   38.3010 C   0  0  0  0  0  0  0  0  0  0  0  0
   39.6500   22.7140   37.7760 C   0  0  0  0  0  0  0  0  0  0  0  0
   40.0240   22.8870   36.4640 C   0  0  0  0  0  0  0  0  0  0  0  0
   40.9500   22.0880   35.8270 C   0  0  0  0  0  0  0  0  0  0  0  0
   41.3440   22.2650   34.5140 C   0  0  0  0  0  0  0  0  0  0  0  0
   40.7770   23.3080   33.7790 C   0  0  0  0  0  0  0  0  0  0  0  0
   39.8560   24.1060   34.4060 C   0  0  0  0  0  0  0  0  0  0  0  0
   39.4960   23.8930   35.7140 C   0  0  0  0  0  0  0  0  0  0  0  0
   37.5180   25.0820   38.2010 H   0  0  0  0  0  0  0  0  0  0  0  0
   38.5260   23.3410   39.3310 H   0  0  0  0  0  0  0  0  0  0  0  0
   40.1570   21.8690   38.2480 H   0  0  0  0  0  0  0  0  0  0  0  0
   41.4020   21.2710   36.3800 H   0  0  0  0  0  0  0  0  0  0  0  0
   42.0740   21.6150   34.0490 H   0  0  0  0  0  0  0  0  0  0  0  0
   41.0350   23.5070   32.7490 H   0  0  0  0  0  0  0  0  0  0  0  0
   39.4180   24.9270   33.8090 H   0  0  0  0  0  0  0  0  0  0  0  0
   35.7570   28.6410   32.8720 C   0  0  0  0  0  0  0  0  0  0  0  0
   36.5280   28.0820   33.9350 C   0  0  0  0  0  0  0  0  0  0  0  0
   37.7560   27.5310   33.6420 C   0  0  0  0  0  0  0  0  0  0  0  0
   38.1600   27.5590   32.3260 N   0  0  0  0  0  0  0  0  0  0  0  0
   37.4220   28.0870   31.3490 C   0  0  0  0  0  0  0  0  0  0  0  0
   36.2140   28.6360   31.5950 N   0  0  0  0  0  0  0  0  0  0  0  0
   34.7930   29.0740   33.1000 H   0  0  0  0  0  0  0  0  0  0  0  0
   36.1190   28.1120   34.9380 H   0  0  0  0  0  0  0  0  0  0  0  0
   38.0760   27.9910   30.0470 C   0  0  0  0  0  0  0  0  0  0  0  0
   39.2380   27.4150   29.5210 C   0  0  0  0  0  0  0  0  0  0  0  0
   39.8530   26.8890   30.2130 H   0  0  0  0  0  0  0  0  0  0  0  0
   39.2110   27.7370   28.1790 C   0  0  0  0  0  0  0  0  0  0  0  0
   40.0460   27.3780   27.5570 H   0  0  0  0  0  0  0  0  0  0  0  0
   38.1000   28.4660   27.8930 N   0  0  0  0  0  0  0  0  0  0  0  0
   37.9000   28.8060   26.9280 H   0  0  0  0  0  0  0  0  0  0  0  0
   37.4200   28.6160   29.0260 N   0  0  0  0  0  0  0  0  0  0  0  0
  1  4  1  6  0  0  0
  1  3  1  0  0  0  0
  1  2  1  0  0  0  0
  2  5  1  0  0  0  0
  2  6  1  0  0  0  0
  3  7  1  6  0  0  0
  3  2  1  0  0  0  0
  3  8  1  0  0  0  0
  8  9  1  0  0  0  0
  9 18  1  0  0  0  0
  9 10  2  0  0  0  0
 10 19  1  0  0  0  0
 11 20  1  0  0  0  0
 11 10  1  0  0  0  0
 12 11  2  0  0  0  0
 13 21  1  0  0  0  0
 13 12  1  0  0  0  0
 14 13  2  0  0  0  0
 15 16  2  0  0  0  0
 15 14  1  0  0  0  0
 16 17  1  0  0  0  0
 17  8  2  0  0  0  0
 17 12  1  0  0  0  0
 22 14  1  0  0  0  0
 23 15  1  0  0  0  0
 24 16  1  0  0  0  0
 25 31  1  0  0  0  0
 25 26  1  0  0  0  0
 26 32  1  0  0  0  0
 27 26  2  0  0  0  0
 27  1  1  0  0  0  0
 28 27  1  0  0  0  0
 29 30  1  0  0  0  0
 29 28  2  0  0  0  0
 30 25  2  0  0  0  0
 33 29  1  0  0  0  0
 34 33  1  0  0  0  0
 34 35  1  0  0  0  0
 36 34  2  0  0  0  0
 37 36  1  0  0  0  0
 38 36  1  0  0  0  0
 38 40  1  0  0  0  0
 39 38  1  0  0  0  0
 40 33  2  0  0  0  0
M  END
>  <minimizedAffinity>
-6.25261545

$$$$

 OpenBabel03272509343D

 40 44  0  0  1  0  0  0  0  0999 V2000
   38.3110   27.0800   33.9420 C   0  0  1  0  0  0  0  0  0  0  0  0
   37.6180   26.8410   35.2210 C   0  0  0  0  0  0  0  0  0  0  0  0
   37.7650   25.6740   34.3140 C   0  0  2  0  0  0  0  0  0  0  0  0
   39.3910   27.0460   33.8820 H   0  0  0  0  0  0  0  0  0  0  0  0
   36.5710   27.3180   35.2530 H   0  0  0  0  0  0  0  0  0  0  0  0
   38.2200   27.1380   36.0640 H   0  0  0  0  0  0  0  0  0  0  0  0
   37.1670   25.3040   33.4880 H   0  0  0  0  0  0  0  0  0  0  0  0
   38.6980   24.6730   34.8910 C   0  0  0  0  0  0  0  0  0  0  0  0
   39.6450   24.2820   33.9360 C   0  0  0  0  0  0  0  0  0  0  0  0
   40.6750   23.4230   34.2620 C   0  0  0  0  0  0  0  0  0  0  0  0
   40.7950   22.9270   35.5530 C   0  0  0  0  0  0  0  0  0  0  0  0
   39.8560   23.3230   36.4770 C   0  0  0  0  0  0  0  0  0  0  0  0
   39.8520   22.8930   37.7860 C   0  0  0  0  0  0  0  0  0  0  0  0
   38.9040   23.2730   38.7170 C   0  0  0  0  0  0  0  0  0  0  0  0
   37.8880   24.1450   38.3220 C   0  0  0  0  0  0  0  0  0  0  0  0
   37.8860   24.5770   37.0210 C   0  0  0  0  0  0  0  0  0  0  0  0
   38.8490   24.1720   36.1300 C   0  0  0  0  0  0  0  0  0  0  0  0
   39.8500   24.4830   32.9030 H   0  0  0  0  0  0  0  0  0  0  0  0
   41.4750   23.0270   33.6550 H   0  0  0  0  0  0  0  0  0  0  0  0
   41.5380   22.2470   35.9760 H   0  0  0  0  0  0  0  0  0  0  0  0
   40.6330   22.2150   38.1160 H   0  0  0  0  0  0  0  0  0  0  0  0
   38.9350   22.9130   39.7380 H   0  0  0  0  0  0  0  0  0  0  0  0
   37.1130   24.4860   38.9930 H   0  0  0  0  0  0  0  0  0  0  0  0
   37.0750   25.2670   36.7250 H   0  0  0  0  0  0  0  0  0  0  0  0
   35.6020   28.8180   31.9770 C   0  0  0  0  0  0  0  0  0  0  0  0
   36.3010   28.2060   33.0600 C   0  0  0  0  0  0  0  0  0  0  0  0
   37.5710   27.7230   32.8380 C   0  0  0  0  0  0  0  0  0  0  0  0
   38.0860   27.8670   31.5690 N   0  0  0  0  0  0  0  0  0  0  0  0
   37.4140   28.4430   30.5720 C   0  0  0  0  0  0  0  0  0  0  0  0
   36.1670   28.9280   30.7490 N   0  0  0  0  0  0  0  0  0  0  0  0
   34.6040   29.1970   32.1490 H   0  0  0  0  0  0  0  0  0  0  0  0
   35.8050   28.1430   34.0210 H   0  0  0  0  0  0  0  0  0  0  0  0
   38.1820   28.4720   29.3300 C   0  0  0  0  0  0  0  0  0  0  0  0
   39.2260   27.7410   28.7500 C   0  0  0  0  0  0  0  0  0  0  0  0
   39.6030   26.9290   29.3270 H   0  0  0  0  0  0  0  0  0  0  0  0
   39.4450   28.3520   27.5320 C   0  0  0  0  0  0  0  0  0  0  0  0
   40.2380   27.9330   26.8940 H   0  0  0  0  0  0  0  0  0  0  0  0
   38.5890   29.3950   27.3690 N   0  0  0  0  0  0  0  0  0  0  0  0
   38.5990   29.9830   26.5090 H   0  0  0  0  0  0  0  0  0  0  0  0
   37.8300   29.4620   28.4580 N   0  0  0  0  0  0  0  0  0  0  0  0
  1  4  1  1  0  0  0
  1  3  1  0  0  0  0
  1  2  1  0  0  0  0
  2  5  1  0  0  0  0
  2  6  1  0  0  0  0
  3  7  1  6  0  0  0
  3  8  1  0  0  0  0
  3  2  1  0  0  0  0
  8 17  1  0  0  0  0
  9 10  1  0  0  0  0
  9  8  2  0  0  0  0
 10 11  2  0  0  0  0
 11 20  1  0  0  0  0
 11 12  1  0  0  0  0
 12 13  1  0  0  0  0
 13 21  1  0  0  0  0
 13 14  2  0  0  0  0
 14 22  1  0  0  0  0
 15 14  1  0  0  0  0
 15 23  1  0  0  0  0
 16 15  2  0  0  0  0
 17 12  2  0  0  0  0
 17 16  1  0  0  0  0
 18  9  1  0  0  0  0
 19 10  1  0  0  0  0
 24 16  1  0  0  0  0
 25 31  1  0  0  0  0
 25 26  1  0  0  0  0
 26 32  1  0  0  0  0
 27 26  2  0  0  0  0
 27  1  1  0  0  0  0
 28 27  1  0  0  0  0
 29 30  1  0  0  0  0
 29 28  2  0  0  0  0
 30 25  2  0  0  0  0
 33 29  1  0  0  0  0
 34 35  1  0  0  0  0
 34 33  1  0  0  0  0
 36 34  2  0  0  0  0
 37 36  1  0  0  0  0
 38 36  1  0  0  0  0
 38 40  1  0  0  0  0
 39 38  1  0  0  0  0
 40 33  2  0  0  0  0
M  END
>  <minimizedAffinity>
-6.2325592

$$$$

 OpenBabel03272509343D

 40 44  0  0  1  0  0  0  0  0999 V2000
   40.0620   26.6230   32.9110 C   0  0  1  0  0  0  0  0  0  0  0  0
   40.2450   26.6370   31.4480 C   0  0  0  0  0  0  0  0  0  0  0  0
   38.8620   26.4230   31.9450 C   0  0  2  0  0  0  0  0  0  0  0  0
   39.9350   27.5450   33.4630 H   0  0  0  0  0  0  0  0  0  0  0  0
   40.7870   25.6980   31.0600 H   0  0  0  0  0  0  0  0  0  0  0  0
   40.7240   27.5430   31.1130 H   0  0  0  0  0  0  0  0  0  0  0  0
   38.3180   25.5350   32.2470 H   0  0  0  0  0  0  0  0  0  0  0  0
   38.0000   27.5880   31.6220 C   0  0  0  0  0  0  0  0  0  0  0  0
   38.1530   27.9510   30.2780 C   0  0  0  0  0  0  0  0  0  0  0  0
   37.3880   28.9530   29.7180 C   0  0  0  0  0  0  0  0  0  0  0  0
   36.4430   29.6260   30.4800 C   0  0  0  0  0  0  0  0  0  0  0  0
   36.3060   29.2550   31.7970 C   0  0  0  0  0  0  0  0  0  0  0  0
   35.4170   29.8530   32.6650 C   0  0  0  0  0  0  0  0  0  0  0  0
   35.2840   29.4980   33.9940 C   0  0  0  0  0  0  0  0  0  0  0  0
   36.0890   28.4750   34.4980 C   0  0  0  0  0  0  0  0  0  0  0  0
   36.9750   27.8760   33.6410 C   0  0  0  0  0  0  0  0  0  0  0  0
   37.0730   28.2630   32.3270 C   0  0  0  0  0  0  0  0  0  0  0  0
   38.7460   27.6380   29.4420 H   0  0  0  0  0  0  0  0  0  0  0  0
   37.3810   29.3500   28.7140 H   0  0  0  0  0  0  0  0  0  0  0  0
   35.7630   30.4330   30.1990 H   0  0  0  0  0  0  0  0  0  0  0  0
   34.7810   30.6500   32.2930 H   0  0  0  0  0  0  0  0  0  0  0  0
   34.5730   29.9920   34.6450 H   0  0  0  0  0  0  0  0  0  0  0  0
   36.0410   28.1430   35.5260 H   0  0  0  0  0  0  0  0  0  0  0  0
   37.6040   27.0680   34.0570 H   0  0  0  0  0  0  0  0  0  0  0  0
   41.7710   23.4290   33.9580 C   0  0  0  0  0  0  0  0  0  0  0  0
   41.4480   24.6050   33.2180 C   0  0  0  0  0  0  0  0  0  0  0  0
   40.4190   25.4040   33.6630 C   0  0  0  0  0  0  0  0  0  0  0  0
   39.7640   25.0070   34.8080 N   0  0  0  0  0  0  0  0  0  0  0  0
   40.0840   23.9020   35.4830 C   0  0  0  0  0  0  0  0  0  0  0  0
   41.0850   23.0940   35.0790 N   0  0  0  0  0  0  0  0  0  0  0  0
   42.5780   22.7990   33.6090 H   0  0  0  0  0  0  0  0  0  0  0  0
   42.0270   24.8280   32.3290 H   0  0  0  0  0  0  0  0  0  0  0  0
   39.2390   23.7090   36.6590 C   0  0  0  0  0  0  0  0  0  0  0  0
   37.9930   24.1550   37.1140 C   0  0  0  0  0  0  0  0  0  0  0  0
   37.4710   24.8190   36.4670 H   0  0  0  0  0  0  0  0  0  0  0  0
   37.8320   23.5450   38.3420 C   0  0  0  0  0  0  0  0  0  0  0  0
   36.9010   23.7580   38.8920 H   0  0  0  0  0  0  0  0  0  0  0  0
   38.9110   22.7700   38.6280 N   0  0  0  0  0  0  0  0  0  0  0  0
   38.9770   22.2270   39.5150 H   0  0  0  0  0  0  0  0  0  0  0  0
   39.7570   22.8740   37.6080 N   0  0  0  0  0  0  0  0  0  0  0  0
  1  4  1  1  0  0  0
  1 27  1  0  0  0  0
  2  3  1  0  0  0  0
  2  1  1  0  0  0  0
  3  7  1  6  0  0  0
  3  1  1  0  0  0  0
  5  2  1  0  0  0  0
  6  2  1  0  0  0  0
  8  3  1  0  0  0  0
  8 17  1  0  0  0  0
  9  8  2  0  0  0  0
 10  9  1  0  0  0  0
 10 11  2  0  0  0  0
 11 12  1  0  0  0  0
 12 17  2  0  0  0  0
 12 13  1  0  0  0  0
 13 14  2  0  0  0  0
 14 15  1  0  0  0  0
 14 22  1  0  0  0  0
 15 23  1  0  0  0  0
 16 24  1  0  0  0  0
 16 15  2  0  0  0  0
 17 16  1  0  0  0  0
 18  9  1  0  0  0  0
 19 10  1  0  0  0  0
 20 11  1  0  0  0  0
 21 13  1  0  0  0  0
 25 30  1  0  0  0  0
 26 27  1  0  0  0  0
 26 25  2  0  0  0  0
 27 28  2  0  0  0  0
 28 29  1  0  0  0  0
 29 33  1  0  0  0  0
 30 29  2  0  0  0  0
 31 25  1  0  0  0  0
 32 26  1  0  0  0  0
 33 34  1  0  0  0  0
 33 40  2  0  0  0  0
 34 36  2  0  0  0  0
 35 34  1  0  0  0  0
 36 38  1  0  0  0  0
 36 37  1  0  0  0  0
 38 39  1  0  0  0  0
 40 38  1  0  0  0  0
M  END
>  <minimizedAffinity>
-6.18021822

$$$$

 OpenBabel03272509343D

 40 44  0  0  1  0  0  0  0  0999 V2000
   39.2370   26.4040   34.4020 C   0  0  1  0  0  0  0  0  0  0  0  0
   39.9060   26.0950   33.1250 C   0  0  0  0  0  0  0  0  0  0  0  0
   38.4220   26.1650   33.1020 C   0  0  2  0  0  0  0  0  0  0  0  0
   39.1090   27.4270   34.7290 H   0  0  0  0  0  0  0  0  0  0  0  0
   40.3550   25.0350   33.1050 H   0  0  0  0  0  0  0  0  0  0  0  0
   40.6340   26.8450   32.8640 H   0  0  0  0  0  0  0  0  0  0  0  0
   37.6480   25.4330   33.3060 H   0  0  0  0  0  0  0  0  0  0  0  0
   37.9620   27.3400   32.3180 C   0  0  0  0  0  0  0  0  0  0  0  0
   38.5970   27.3720   31.0710 C   0  0  0  0  0  0  0  0  0  0  0  0
   38.2680   28.3240   30.1270 C   0  0  0  0  0  0  0  0  0  0  0  0
   37.2920   29.2740   30.3970 C   0  0  0  0  0  0  0  0  0  0  0  0
   36.6790   29.2250   31.6280 C   0  0  0  0  0  0  0  0  0  0  0  0
   35.7070   30.1170   32.0260 C   0  0  0  0  0  0  0  0  0  0  0  0
   35.0970   30.0850   33.2660 C   0  0  0  0  0  0  0  0  0  0  0  0
   35.4760   29.0950   34.1750 C   0  0  0  0  0  0  0  0  0  0  0  0
   36.4420   28.2050   33.7840 C   0  0  0  0  0  0  0  0  0  0  0  0
   37.0220   28.2760   32.5410 C   0  0  0  0  0  0  0  0  0  0  0  0
   39.3430   26.8040   30.5530 H   0  0  0  0  0  0  0  0  0  0  0  0
   38.6560   28.4870   29.1330 H   0  0  0  0  0  0  0  0  0  0  0  0
   36.9140   30.0870   29.7730 H   0  0  0  0  0  0  0  0  0  0  0  0
   35.3960   30.8940   31.3350 H   0  0  0  0  0  0  0  0  0  0  0  0
   34.3360   30.8050   33.5430 H   0  0  0  0  0  0  0  0  0  0  0  0
   35.0440   29.0070   35.1610 H   0  0  0  0  0  0  0  0  0  0  0  0
   36.7300   27.4280   34.5160 H   0  0  0  0  0  0  0  0  0  0  0  0
   37.7820   24.2080   37.1020 C   0  0  0  0  0  0  0  0  0  0  0  0
   37.9140   25.2530   36.1390 C   0  0  0  0  0  0  0  0  0  0  0  0
   39.0750   25.3280   35.4010 C   0  0  0  0  0  0  0  0  0  0  0  0
   40.0400   24.3770   35.6470 N   0  0  0  0  0  0  0  0  0  0  0  0
   39.8940   23.4090   36.5540 C   0  0  0  0  0  0  0  0  0  0  0  0
   38.7720   23.3020   37.2960 N   0  0  0  0  0  0  0  0  0  0  0  0
   36.8720   24.1480   37.6830 H   0  0  0  0  0  0  0  0  0  0  0  0
   37.0940   25.9500   36.0210 H   0  0  0  0  0  0  0  0  0  0  0  0
   41.0600   22.5320   36.6190 C   0  0  0  0  0  0  0  0  0  0  0  0
   42.2810   22.3950   35.9500 C   0  0  0  0  0  0  0  0  0  0  0  0
   42.4670   23.0940   35.1690 H   0  0  0  0  0  0  0  0  0  0  0  0
   42.8950   21.3200   36.5620 C   0  0  0  0  0  0  0  0  0  0  0  0
   43.8890   21.0280   36.1880 H   0  0  0  0  0  0  0  0  0  0  0  0
   42.1020   20.8250   37.5480 N   0  0  0  0  0  0  0  0  0  0  0  0
   42.3920   20.0090   38.1280 H   0  0  0  0  0  0  0  0  0  0  0  0
   40.9950   21.5610   37.5770 N   0  0  0  0  0  0  0  0  0  0  0  0
  1  4  1  1  0  0  0
  1 27  1  0  0  0  0
  2  1  1  0  0  0  0
  3  2  1  0  0  0  0
  3  7  1  6  0  0  0
  3  1  1  0  0  0  0
  5  2  1  0  0  0  0
  6  2  1  0  0  0  0
  8 17  1  0  0  0  0
  8  3  1  0  0  0  0
  9  8  2  0  0  0  0
 10 11  2  0  0  0  0
 10  9  1  0  0  0  0
 11 12  1  0  0  0  0
 12 13  2  0  0  0  0
 12 17  1  0  0  0  0
 13 14  1  0  0  0  0
 14 22  1  0  0  0  0
 14 15  2  0  0  0  0
 15 23  1  0  0  0  0
 16 15  1  0  0  0  0
 16 24  1  0  0  0  0
 17 16  2  0  0  0  0
 18  9  1  0  0  0  0
 19 10  1  0  0  0  0
 20 11  1  0  0  0  0
 21 13  1  0  0  0  0
 25 30  1  0  0  0  0
 25 31  1  0  0  0  0
 26 25  2  0  0  0  0
 27 28  2  0  0  0  0
 27 26  1  0  0  0  0
 28 29  1  0  0  0  0
 29 33  1  0  0  0  0
 29 30  2  0  0  0  0
 32 26  1  0  0  0  0
 33 40  2  0  0  0  0
 34 36  2  0  0  0  0
 34 33  1  0  0  0  0
 35 34  1  0  0  0  0
 36 38  1  0  0  0  0
 37 36  1  0  0  0  0
 38 40  1  0  0  0  0
 38 39  1  0  0  0  0
M  END
>  <minimizedAffinity>
-6.13582611

$$$$

 OpenBabel03272509343D

 40 44  0  0  1  0  0  0  0  0999 V2000
   34.6690   30.2840   33.1510 C   0  0  1  0  0  0  0  0  0  0  0  0
   34.3290   29.6130   34.4190 C   0  0  0  0  0  0  0  0  0  0  0  0
   35.5010   30.5250   34.4400 C   0  0  2  0  0  0  0  0  0  0  0  0
   34.1760   31.2020   32.8590 H   0  0  0  0  0  0  0  0  0  0  0  0
   34.5730   28.4880   34.4040 H   0  0  0  0  0  0  0  0  0  0  0  0
   33.3070   29.7980   34.7080 H   0  0  0  0  0  0  0  0  0  0  0  0
   36.5510   30.3800   34.2080 H   0  0  0  0  0  0  0  0  0  0  0  0
   35.2170   31.7290   35.2610 C   0  0  0  0  0  0  0  0  0  0  0  0
   34.2610   31.4360   36.2420 C   0  0  0  0  0  0  0  0  0  0  0  0
   33.8970   32.3740   37.1870 C   0  0  0  0  0  0  0  0  0  0  0  0
   34.4760   33.6350   37.1850 C   0  0  0  0  0  0  0  0  0  0  0  0
   35.4130   33.9040   36.2140 C   0  0  0  0  0  0  0  0  0  0  0  0
   36.0500   35.1210   36.0920 C   0  0  0  0  0  0  0  0  0  0  0  0
   36.9800   35.4050   35.1110 C   0  0  0  0  0  0  0  0  0  0  0  0
   37.3040   34.4110   34.1860 C   0  0  0  0  0  0  0  0  0  0  0  0
   36.6750   33.2000   34.3010 C   0  0  0  0  0  0  0  0  0  0  0  0
   35.7550   32.9620   35.2930 C   0  0  0  0  0  0  0  0  0  0  0  0
   33.6630   30.5950   36.5300 H   0  0  0  0  0  0  0  0  0  0  0  0
   33.1880   32.3110   37.9980 H   0  0  0  0  0  0  0  0  0  0  0  0
   34.3050   34.4850   37.8500 H   0  0  0  0  0  0  0  0  0  0  0  0
   35.8130   35.9080   36.8010 H   0  0  0  0  0  0  0  0  0  0  0  0
   37.4600   36.3740   35.0470 H   0  0  0  0  0  0  0  0  0  0  0  0
   38.0220   34.5600   33.3910 H   0  0  0  0  0  0  0  0  0  0  0  0
   36.9430   32.4240   33.5610 H   0  0  0  0  0  0  0  0  0  0  0  0
   36.7930   29.4490   30.1480 C   0  0  0  0  0  0  0  0  0  0  0  0
   36.1000   30.2020   31.1420 C   0  0  0  0  0  0  0  0  0  0  0  0
   35.3990   29.5260   32.1150 C   0  0  0  0  0  0  0  0  0  0  0  0
   35.4170   28.1490   32.0620 N   0  0  0  0  0  0  0  0  0  0  0  0
   36.0730   27.4660   31.1220 C   0  0  0  0  0  0  0  0  0  0  0  0
   36.7700   28.0930   30.1520 N   0  0  0  0  0  0  0  0  0  0  0  0
   37.3430   29.9780   29.3830 H   0  0  0  0  0  0  0  0  0  0  0  0
   36.1500   31.2840   31.0950 H   0  0  0  0  0  0  0  0  0  0  0  0
   35.9340   26.0220   31.2900 C   0  0  0  0  0  0  0  0  0  0  0  0
   35.0350   25.0240   30.8980 C   0  0  0  0  0  0  0  0  0  0  0  0
   34.2040   25.3460   30.3160 H   0  0  0  0  0  0  0  0  0  0  0  0
   35.5510   23.8600   31.4320 C   0  0  0  0  0  0  0  0  0  0  0  0
   34.9940   22.9290   31.2450 H   0  0  0  0  0  0  0  0  0  0  0  0
   36.6990   24.1230   32.1110 N   0  0  0  0  0  0  0  0  0  0  0  0
   37.2400   23.3700   32.5870 H   0  0  0  0  0  0  0  0  0  0  0  0
   36.9240   25.4300   32.0210 N   0  0  0  0  0  0  0  0  0  0  0  0
  1  4  1  6  0  0  0
  1  2  1  0  0  0  0
  1  3  1  0  0  0  0
  2  3  1  0  0  0  0
  2  6  1  0  0  0  0
  3  7  1  1  0  0  0
  3  8  1  0  0  0  0
  5  2  1  0  0  0  0
  8 17  2  0  0  0  0
  8  9  1  0  0  0  0
  9 18  1  0  0  0  0
  9 10  2  0  0  0  0
 10 19  1  0  0  0  0
 11 10  1  0  0  0  0
 11 20  1  0  0  0  0
 12 11  2  0  0  0  0
 13 12  1  0  0  0  0
 13 21  1  0  0  0  0
 14 13  2  0  0  0  0
 15 16  2  0  0  0  0
 15 14  1  0  0  0  0
 16 17  1  0  0  0  0
 17 12  1  0  0  0  0
 22 14  1  0  0  0  0
 23 15  1  0  0  0  0
 24 16  1  0  0  0  0
 25 30  2  0  0  0  0
 25 26  1  0  0  0  0
 26 27  2  0  0  0  0
 27  1  1  0  0  0  0
 28 27  1  0  0  0  0
 29 33  1  0  0  0  0
 29 28  2  0  0  0  0
 30 29  1  0  0  0  0
 31 25  1  0  0  0  0
 32 26  1  0  0  0  0
 33 40  2  0  0  0  0
 34 33  1  0  0  0  0
 34 36  2  0  0  0  0
 35 34  1  0  0  0  0
 36 38  1  0  0  0  0
 37 36  1  0  0  0  0
 38 39  1  0  0  0  0
 40 38  1  0  0  0  0
M  END
>  <minimizedAffinity>
-6.12275791

$$$$
