
 OpenBabel03272509523D

 42 45  0  0  0  0  0  0  0  0999 V2000
   34.2130   29.0700   47.8050 C   0  0  0  0  0  0  0  0  0  0  0  0
   34.8910   29.6510   47.1640 H   0  0  0  0  0  0  0  0  0  0  0  0
   33.4780   29.7740   48.2890 H   0  0  0  0  0  0  0  0  0  0  0  0
   33.4120   28.0510   47.0630 C   0  0  0  0  0  0  0  0  0  0  0  0
   33.8520   27.0360   47.0950 H   0  0  0  0  0  0  0  0  0  0  0  0
   33.3950   28.3560   45.9870 H   0  0  0  0  0  0  0  0  0  0  0  0
   31.9850   28.0100   47.4810 C   0  0  0  0  0  0  0  0  0  0  0  0
   31.6500   27.1590   48.5230 C   0  0  0  0  0  0  0  0  0  0  0  0
   30.3730   27.0380   48.9900 C   0  0  0  0  0  0  0  0  0  0  0  0
   29.4230   27.7610   48.4290 N   0  0  0  0  0  0  0  0  0  0  0  0
   29.7430   28.6080   47.3940 C   0  0  0  0  0  0  0  0  0  0  0  0
   31.0040   28.7410   46.9180 N   0  0  0  0  0  0  0  0  0  0  0  0
   32.4320   26.5570   48.9940 H   0  0  0  0  0  0  0  0  0  0  0  0
   30.0980   26.3750   49.8060 H   0  0  0  0  0  0  0  0  0  0  0  0
   28.7120   29.4210   46.7530 C   0  0  0  0  0  0  0  0  0  0  0  0
   28.9830   30.0110   45.5140 C   0  0  0  0  0  0  0  0  0  0  0  0
   29.8620   30.0020   44.8640 H   0  0  0  0  0  0  0  0  0  0  0  0
   27.8360   30.7190   45.1430 C   0  0  0  0  0  0  0  0  0  0  0  0
   27.5880   31.3180   44.2800 H   0  0  0  0  0  0  0  0  0  0  0  0
   26.9390   30.5410   46.1330 N   0  0  0  0  0  0  0  0  0  0  0  0
   25.9550   30.9400   46.1800 H   0  0  0  0  0  0  0  0  0  0  0  0
   27.4560   29.7670   47.0980 N   0  0  0  0  0  0  0  0  0  0  0  0
   34.9560   28.4550   48.8610 O   0  0  0  0  0  0  0  0  0  0  0  0
   37.1320   30.0010   51.2830 C   0  0  0  0  0  0  0  0  0  0  0  0
   37.9600   30.7820   50.4180 C   0  0  0  0  0  0  0  0  0  0  0  0
   37.6970   30.7120   49.0560 C   0  0  0  0  0  0  0  0  0  0  0  0
   36.6710   29.9010   48.6660 N   0  0  0  0  0  0  0  0  0  0  0  0
   35.9150   29.1830   49.5030 C   0  0  0  0  0  0  0  0  0  0  0  0
   36.1510   29.2370   50.8210 N   0  0  0  0  0  0  0  0  0  0  0  0
   37.4010   30.1110   52.3250 H   0  0  0  0  0  0  0  0  0  0  0  0
   38.7550   31.4070   50.7460 H   0  0  0  0  0  0  0  0  0  0  0  0
   38.7930   33.3880   49.1790 F   0  0  0  0  0  0  0  0  0  0  0  0
   38.9450   32.6730   48.0780 C   0  0  0  0  0  0  0  0  0  0  0  0
   38.4250   31.4260   48.0410 C   0  0  0  0  0  0  0  0  0  0  0  0
   38.6420   30.7570   46.8320 C   0  0  0  0  0  0  0  0  0  0  0  0
   39.3250   31.3270   45.7780 C   0  0  0  0  0  0  0  0  0  0  0  0
   39.8340   32.5990   45.8630 C   0  0  0  0  0  0  0  0  0  0  0  0
   39.6320   33.2710   47.0400 C   0  0  0  0  0  0  0  0  0  0  0  0
   38.2770   29.7410   46.6660 H   0  0  0  0  0  0  0  0  0  0  0  0
   39.4710   30.7750   44.8580 H   0  0  0  0  0  0  0  0  0  0  0  0
   40.3640   33.0390   45.0430 H   0  0  0  0  0  0  0  0  0  0  0  0
   40.0240   34.2720   47.1270 H   0  0  0  0  0  0  0  0  0  0  0  0
  1  3  1  0  0  0  0
  1 23  1  0  0  0  0
  2  1  1  0  0  0  0
  4  5  1  0  0  0  0
  4  7  1  0  0  0  0
  4  1  1  0  0  0  0
  6  4  1  0  0  0  0
  7  8  1  0  0  0  0
  8  9  2  0  0  0  0
  8 13  1  0  0  0  0
  9 14  1  0  0  0  0
 10  9  1  0  0  0  0
 11 10  2  0  0  0  0
 12 11  1  0  0  0  0
 12  7  2  0  0  0  0
 15 22  2  0  0  0  0
 15 11  1  0  0  0  0
 16 15  1  0  0  0  0
 17 16  1  0  0  0  0
 18 16  2  0  0  0  0
 18 20  1  0  0  0  0
 19 18  1  0  0  0  0
 20 21  1  0  0  0  0
 20 22  1  0  0  0  0
 23 28  1  0  0  0  0
 24 30  1  0  0  0  0
 25 31  1  0  0  0  0
 25 24  2  0  0  0  0
 26 25  1  0  0  0  0
 27 26  2  0  0  0  0
 27 28  1  0  0  0  0
 28 29  2  0  0  0  0
 29 24  1  0  0  0  0
 33 32  1  0  0  0  0
 34 33  1  0  0  0  0
 34 26  1  0  0  0  0
 35 34  2  0  0  0  0
 36 37  2  0  0  0  0
 36 35  1  0  0  0  0
 37 38  1  0  0  0  0
 38 42  1  0  0  0  0
 38 33  2  0  0  0  0
 39 35  1  0  0  0  0
 40 36  1  0  0  0  0
 41 37  1  0  0  0  0
M  END
>  <minimizedAffinity>
-6.61518145

>  <minimizedRMSD>
0.960678577

$$$$
