
 OpenBabel03272509523D

 42 45  0  0  0  0  0  0  0  0999 V2000
   34.2680   28.7470   48.0690 C   0  0  0  0  0  0  0  0  0  0  0  0
   35.0590   29.0620   47.3750 H   0  0  0  0  0  0  0  0  0  0  0  0
   33.6150   29.6360   48.3020 H   0  0  0  0  0  0  0  0  0  0  0  0
   33.3720   27.6870   47.5170 C   0  0  0  0  0  0  0  0  0  0  0  0
   33.6560   26.6640   47.8320 H   0  0  0  0  0  0  0  0  0  0  0  0
   33.4670   27.7140   46.4030 H   0  0  0  0  0  0  0  0  0  0  0  0
   31.9320   27.9330   47.7940 C   0  0  0  0  0  0  0  0  0  0  0  0
   31.4180   27.4440   48.9860 C   0  0  0  0  0  0  0  0  0  0  0  0
   30.1120   27.6100   49.3450 C   0  0  0  0  0  0  0  0  0  0  0  0
   29.3090   28.2630   48.5260 N   0  0  0  0  0  0  0  0  0  0  0  0
   29.8060   28.7520   47.3410 C   0  0  0  0  0  0  0  0  0  0  0  0
   31.0990   28.5960   46.9690 N   0  0  0  0  0  0  0  0  0  0  0  0
   32.0780   26.9040   49.6690 H   0  0  0  0  0  0  0  0  0  0  0  0
   29.6970   27.2330   50.2760 H   0  0  0  0  0  0  0  0  0  0  0  0
   28.9410   29.4770   46.4150 C   0  0  0  0  0  0  0  0  0  0  0  0
   27.6810   29.9040   46.8510 C   0  0  0  0  0  0  0  0  0  0  0  0
   27.1560   29.8110   47.8040 H   0  0  0  0  0  0  0  0  0  0  0  0
   27.0800   30.5610   45.7730 C   0  0  0  0  0  0  0  0  0  0  0  0
   26.1250   31.0450   45.6470 H   0  0  0  0  0  0  0  0  0  0  0  0
   27.9630   30.5120   44.7540 N   0  0  0  0  0  0  0  0  0  0  0  0
   27.8330   30.9160   43.7800 H   0  0  0  0  0  0  0  0  0  0  0  0
   29.0760   29.8670   45.1320 N   0  0  0  0  0  0  0  0  0  0  0  0
   34.8480   28.3230   49.3050 O   0  0  0  0  0  0  0  0  0  0  0  0
   37.1140   29.9970   51.5530 C   0  0  0  0  0  0  0  0  0  0  0  0
   37.8990   30.7380   50.6170 C   0  0  0  0  0  0  0  0  0  0  0  0
   37.5800   30.6000   49.2720 C   0  0  0  0  0  0  0  0  0  0  0  0
   36.5440   29.7660   48.9670 N   0  0  0  0  0  0  0  0  0  0  0  0
   35.8290   29.0870   49.8690 C   0  0  0  0  0  0  0  0  0  0  0  0
   36.1200   29.2060   51.1720 N   0  0  0  0  0  0  0  0  0  0  0  0
   37.4260   30.1600   52.5760 H   0  0  0  0  0  0  0  0  0  0  0  0
   38.7040   31.3820   50.8790 H   0  0  0  0  0  0  0  0  0  0  0  0
   38.7910   33.2290   49.2640 F   0  0  0  0  0  0  0  0  0  0  0  0
   38.8310   32.4910   48.1690 C   0  0  0  0  0  0  0  0  0  0  0  0
   38.2590   31.2660   48.1940 C   0  0  0  0  0  0  0  0  0  0  0  0
   38.3570   30.5710   46.9850 C   0  0  0  0  0  0  0  0  0  0  0  0
   38.9840   31.0940   45.8720 C   0  0  0  0  0  0  0  0  0  0  0  0
   39.5490   32.3450   45.8960 C   0  0  0  0  0  0  0  0  0  0  0  0
   39.4630   33.0430   47.0720 C   0  0  0  0  0  0  0  0  0  0  0  0
   37.9390   29.5690   46.8650 H   0  0  0  0  0  0  0  0  0  0  0  0
   39.0380   30.5230   44.9540 H   0  0  0  0  0  0  0  0  0  0  0  0
   40.0340   32.7500   45.0310 H   0  0  0  0  0  0  0  0  0  0  0  0
   39.9020   34.0280   47.1120 H   0  0  0  0  0  0  0  0  0  0  0  0
  1  3  1  0  0  0  0
  1 23  1  0  0  0  0
  2  1  1  0  0  0  0
  4  7  1  0  0  0  0
  4  5  1  0  0  0  0
  4  1  1  0  0  0  0
  6  4  1  0  0  0  0
  7  8  1  0  0  0  0
  8  9  2  0  0  0  0
  8 13  1  0  0  0  0
  9 14  1  0  0  0  0
 10  9  1  0  0  0  0
 11 10  2  0  0  0  0
 12 11  1  0  0  0  0
 12  7  2  0  0  0  0
 15 16  1  0  0  0  0
 15 11  1  0  0  0  0
 16 17  1  0  0  0  0
 18 16  2  0  0  0  0
 19 18  1  0  0  0  0
 20 22  1  0  0  0  0
 20 18  1  0  0  0  0
 21 20  1  0  0  0  0
 22 15  2  0  0  0  0
 23 28  1  0  0  0  0
 24 30  1  0  0  0  0
 25 31  1  0  0  0  0
 25 24  2  0  0  0  0
 26 25  1  0  0  0  0
 27 26  2  0  0  0  0
 27 28  1  0  0  0  0
 28 29  2  0  0  0  0
 29 24  1  0  0  0  0
 33 34  1  0  0  0  0
 33 32  1  0  0  0  0
 34 26  1  0  0  0  0
 35 34  2  0  0  0  0
 36 37  2  0  0  0  0
 36 35  1  0  0  0  0
 37 38  1  0  0  0  0
 38 42  1  0  0  0  0
 38 33  2  0  0  0  0
 39 35  1  0  0  0  0
 40 36  1  0  0  0  0
 41 37  1  0  0  0  0
M  END
>  <minimizedAffinity>
-6.59734154

>  <minimizedRMSD>
0.625401795

$$$$
