
 OpenBabel03272509523D

 42 45  0  0  0  0  0  0  0  0999 V2000
   34.3960   29.1290   47.7820 C   0  0  0  0  0  0  0  0  0  0  0  0
   35.0810   29.7380   47.1770 H   0  0  0  0  0  0  0  0  0  0  0  0
   33.6170   29.8040   48.2380 H   0  0  0  0  0  0  0  0  0  0  0  0
   33.6620   28.0930   46.9940 C   0  0  0  0  0  0  0  0  0  0  0  0
   34.1500   27.0990   47.0120 H   0  0  0  0  0  0  0  0  0  0  0  0
   33.6560   28.4240   45.9270 H   0  0  0  0  0  0  0  0  0  0  0  0
   32.2300   27.9730   47.3760 C   0  0  0  0  0  0  0  0  0  0  0  0
   31.8940   26.9930   48.2990 C   0  0  0  0  0  0  0  0  0  0  0  0
   30.6130   26.7920   48.7220 C   0  0  0  0  0  0  0  0  0  0  0  0
   29.6570   27.5600   48.2340 N   0  0  0  0  0  0  0  0  0  0  0  0
   29.9760   28.5340   47.3190 C   0  0  0  0  0  0  0  0  0  0  0  0
   31.2420   28.7480   46.8870 N   0  0  0  0  0  0  0  0  0  0  0  0
   32.6810   26.3540   48.7070 H   0  0  0  0  0  0  0  0  0  0  0  0
   30.3370   26.0280   49.4450 H   0  0  0  0  0  0  0  0  0  0  0  0
   28.9400   29.3990   46.7610 C   0  0  0  0  0  0  0  0  0  0  0  0
   27.7680   29.6170   47.4940 C   0  0  0  0  0  0  0  0  0  0  0  0
   27.4250   29.2580   48.4670 H   0  0  0  0  0  0  0  0  0  0  0  0
   26.9660   30.4710   46.7310 C   0  0  0  0  0  0  0  0  0  0  0  0
   25.9910   30.9030   46.8930 H   0  0  0  0  0  0  0  0  0  0  0  0
   27.6530   30.7350   45.6010 N   0  0  0  0  0  0  0  0  0  0  0  0
   27.3390   31.3520   44.7950 H   0  0  0  0  0  0  0  0  0  0  0  0
   28.8330   30.0970   45.6130 N   0  0  0  0  0  0  0  0  0  0  0  0
   35.1100   28.5270   48.8640 O   0  0  0  0  0  0  0  0  0  0  0  0
   37.2810   30.0640   51.2960 C   0  0  0  0  0  0  0  0  0  0  0  0
   38.0950   30.8670   50.4380 C   0  0  0  0  0  0  0  0  0  0  0  0
   37.8260   30.8130   49.0760 C   0  0  0  0  0  0  0  0  0  0  0  0
   36.8070   29.9960   48.6800 N   0  0  0  0  0  0  0  0  0  0  0  0
   36.0640   29.2580   49.5110 C   0  0  0  0  0  0  0  0  0  0  0  0
   36.3060   29.2950   50.8280 N   0  0  0  0  0  0  0  0  0  0  0  0
   37.5540   30.1630   52.3380 H   0  0  0  0  0  0  0  0  0  0  0  0
   38.8850   31.4960   50.7700 H   0  0  0  0  0  0  0  0  0  0  0  0
   38.8420   33.5200   49.2110 F   0  0  0  0  0  0  0  0  0  0  0  0
   39.0220   32.8110   48.1100 C   0  0  0  0  0  0  0  0  0  0  0  0
   38.5400   31.5500   48.0680 C   0  0  0  0  0  0  0  0  0  0  0  0
   38.7840   30.8900   46.8590 C   0  0  0  0  0  0  0  0  0  0  0  0
   39.4580   31.4810   45.8110 C   0  0  0  0  0  0  0  0  0  0  0  0
   39.9290   32.7670   45.9010 C   0  0  0  0  0  0  0  0  0  0  0  0
   39.6990   33.4310   47.0780 C   0  0  0  0  0  0  0  0  0  0  0  0
   38.4500   29.8640   46.6890 H   0  0  0  0  0  0  0  0  0  0  0  0
   39.6270   30.9360   44.8900 H   0  0  0  0  0  0  0  0  0  0  0  0
   40.4510   33.2240   45.0860 H   0  0  0  0  0  0  0  0  0  0  0  0
   40.0620   34.4430   47.1700 H   0  0  0  0  0  0  0  0  0  0  0  0
  1  3  1  0  0  0  0
  1 23  1  0  0  0  0
  2  1  1  0  0  0  0
  4  5  1  0  0  0  0
  4  7  1  0  0  0  0
  4  1  1  0  0  0  0
  6  4  1  0  0  0  0
  7  8  1  0  0  0  0
  8 13  1  0  0  0  0
  8  9  2  0  0  0  0
  9 14  1  0  0  0  0
 10  9  1  0  0  0  0
 11 10  2  0  0  0  0
 12 11  1  0  0  0  0
 12  7  2  0  0  0  0
 15 11  1  0  0  0  0
 15 16  1  0  0  0  0
 16 17  1  0  0  0  0
 18 19  1  0  0  0  0
 18 16  2  0  0  0  0
 20 22  1  0  0  0  0
 20 18  1  0  0  0  0
 21 20  1  0  0  0  0
 22 15  2  0  0  0  0
 23 28  1  0  0  0  0
 24 30  1  0  0  0  0
 25 31  1  0  0  0  0
 25 24  2  0  0  0  0
 26 25  1  0  0  0  0
 27 26  2  0  0  0  0
 27 28  1  0  0  0  0
 28 29  2  0  0  0  0
 29 24  1  0  0  0  0
 33 32  1  0  0  0  0
 34 33  1  0  0  0  0
 34 26  1  0  0  0  0
 35 34  2  0  0  0  0
 36 37  2  0  0  0  0
 36 35  1  0  0  0  0
 37 38  1  0  0  0  0
 38 42  1  0  0  0  0
 38 33  2  0  0  0  0
 39 35  1  0  0  0  0
 40 36  1  0  0  0  0
 41 37  1  0  0  0  0
M  END
>  <minimizedAffinity>
-6.66143894

>  <minimizedRMSD>
1.07827914

$$$$
