
 OpenBabel03272509333D

 40 44  0  0  1  0  0  0  0  0999 V2000
   36.7530   30.8730   45.1590 C   0  0  1  0  0  0  0  0  0  0  0  0
   37.8600   31.8050   45.4430 C   0  0  0  0  0  0  0  0  0  0  0  0
   38.2340   30.4080   45.1020 C   0  0  2  0  0  0  0  0  0  0  0  0
   36.3150   30.8170   44.1720 H   0  0  0  0  0  0  0  0  0  0  0  0
   37.9310   32.0810   46.5590 H   0  0  0  0  0  0  0  0  0  0  0  0
   37.8180   32.6790   44.8150 H   0  0  0  0  0  0  0  0  0  0  0  0
   38.3390   29.5080   45.6980 H   0  0  0  0  0  0  0  0  0  0  0  0
   38.9160   30.3530   43.7840 C   0  0  0  0  0  0  0  0  0  0  0  0
   39.2830   31.6400   43.3710 C   0  0  0  0  0  0  0  0  0  0  0  0
   40.0110   31.8370   42.2150 C   0  0  0  0  0  0  0  0  0  0  0  0
   40.3990   30.7570   41.4350 C   0  0  0  0  0  0  0  0  0  0  0  0
   40.0310   29.5010   41.8580 C   0  0  0  0  0  0  0  0  0  0  0  0
   40.3380   28.3480   41.1680 C   0  0  0  0  0  0  0  0  0  0  0  0
   39.9580   27.0840   41.5770 C   0  0  0  0  0  0  0  0  0  0  0  0
   39.2230   26.9530   42.7560 C   0  0  0  0  0  0  0  0  0  0  0  0
   38.9140   28.0950   43.4470 C   0  0  0  0  0  0  0  0  0  0  0  0
   39.3120   29.3320   43.0020 C   0  0  0  0  0  0  0  0  0  0  0  0
   39.1710   32.6430   43.7310 H   0  0  0  0  0  0  0  0  0  0  0  0
   40.3690   32.7490   41.7620 H   0  0  0  0  0  0  0  0  0  0  0  0
   40.9700   30.7340   40.5040 H   0  0  0  0  0  0  0  0  0  0  0  0
   40.9100   28.4260   40.2490 H   0  0  0  0  0  0  0  0  0  0  0  0
   40.2200   26.2010   41.0060 H   0  0  0  0  0  0  0  0  0  0  0  0
   38.8910   25.9980   43.1380 H   0  0  0  0  0  0  0  0  0  0  0  0
   38.3310   27.9740   44.3780 H   0  0  0  0  0  0  0  0  0  0  0  0
   34.0470   29.1910   47.1770 C   0  0  0  0  0  0  0  0  0  0  0  0
   34.7590   29.7400   46.0690 C   0  0  0  0  0  0  0  0  0  0  0  0
   36.0000   30.2940   46.2890 C   0  0  0  0  0  0  0  0  0  0  0  0
   36.4760   30.2780   47.5820 N   0  0  0  0  0  0  0  0  0  0  0  0
   35.7920   29.7590   48.6030 C   0  0  0  0  0  0  0  0  0  0  0  0
   34.5720   29.2080   48.4280 N   0  0  0  0  0  0  0  0  0  0  0  0
   33.0710   28.7570   47.0060 H   0  0  0  0  0  0  0  0  0  0  0  0
   34.2950   29.7010   45.0910 H   0  0  0  0  0  0  0  0  0  0  0  0
   36.5160   29.8670   49.8660 C   0  0  0  0  0  0  0  0  0  0  0  0
   36.2870   29.5580   51.2120 C   0  0  0  0  0  0  0  0  0  0  0  0
   35.3420   29.1230   51.4360 H   0  0  0  0  0  0  0  0  0  0  0  0
   37.4420   29.9460   51.8600 C   0  0  0  0  0  0  0  0  0  0  0  0
   37.4840   29.7930   52.9500 H   0  0  0  0  0  0  0  0  0  0  0  0
   38.3300   30.4610   50.9700 N   0  0  0  0  0  0  0  0  0  0  0  0
   39.2660   30.8110   51.2680 H   0  0  0  0  0  0  0  0  0  0  0  0
   37.7650   30.4110   49.7680 N   0  0  0  0  0  0  0  0  0  0  0  0
  1  4  1  6  0  0  0
  1  2  1  0  0  0  0
  1 27  1  0  0  0  0
  2  5  1  0  0  0  0
  3  1  1  0  0  0  0
  3  2  1  0  0  0  0
  3  7  1  1  0  0  0
  6  2  1  0  0  0  0
  8  3  1  0  0  0  0
  9 18  1  0  0  0  0
  9  8  1  0  0  0  0
 10  9  2  0  0  0  0
 11 12  2  0  0  0  0
 11 10  1  0  0  0  0
 12 17  1  0  0  0  0
 13 14  2  0  0  0  0
 13 12  1  0  0  0  0
 14 15  1  0  0  0  0
 15 23  1  0  0  0  0
 15 16  2  0  0  0  0
 16 24  1  0  0  0  0
 17 16  1  0  0  0  0
 17  8  2  0  0  0  0
 19 10  1  0  0  0  0
 20 11  1  0  0  0  0
 21 13  1  0  0  0  0
 22 14  1  0  0  0  0
 25 30  1  0  0  0  0
 26 27  1  0  0  0  0
 26 25  2  0  0  0  0
 27 28  2  0  0  0  0
 28 29  1  0  0  0  0
 29 33  1  0  0  0  0
 30 29  2  0  0  0  0
 31 25  1  0  0  0  0
 32 26  1  0  0  0  0
 33 34  1  0  0  0  0
 34 35  1  0  0  0  0
 34 36  2  0  0  0  0
 36 37  1  0  0  0  0
 38 39  1  0  0  0  0
 38 36  1  0  0  0  0
 40 33  2  0  0  0  0
 40 38  1  0  0  0  0
M  END
>  <minimizedAffinity>
-6.20708942

>  <minimizedRMSD>
3.36109543

$$$$
