
 OpenBabel03272509523D

 42 45  0  0  0  0  0  0  0  0999 V2000
   34.3350   28.7730   48.0970 C   0  0  0  0  0  0  0  0  0  0  0  0
   35.1130   29.1100   47.3980 H   0  0  0  0  0  0  0  0  0  0  0  0
   33.6390   29.6340   48.3080 H   0  0  0  0  0  0  0  0  0  0  0  0
   33.4930   27.6590   47.5660 C   0  0  0  0  0  0  0  0  0  0  0  0
   33.7890   26.6630   47.9500 H   0  0  0  0  0  0  0  0  0  0  0  0
   33.6380   27.6270   46.4580 H   0  0  0  0  0  0  0  0  0  0  0  0
   32.0360   27.8780   47.7650 C   0  0  0  0  0  0  0  0  0  0  0  0
   31.4430   27.2750   48.8640 C   0  0  0  0  0  0  0  0  0  0  0  0
   30.1150   27.4060   49.1460 C   0  0  0  0  0  0  0  0  0  0  0  0
   29.3670   28.1370   48.3410 N   0  0  0  0  0  0  0  0  0  0  0  0
   29.9420   28.7410   47.2480 C   0  0  0  0  0  0  0  0  0  0  0  0
   31.2590   28.6210   46.9530 N   0  0  0  0  0  0  0  0  0  0  0  0
   32.0570   26.6680   49.5350 H   0  0  0  0  0  0  0  0  0  0  0  0
   29.6390   26.9390   50.0040 H   0  0  0  0  0  0  0  0  0  0  0  0
   29.1390   29.5550   46.3400 C   0  0  0  0  0  0  0  0  0  0  0  0
   27.8060   29.8240   46.6650 C   0  0  0  0  0  0  0  0  0  0  0  0
   27.1770   29.5400   47.5130 H   0  0  0  0  0  0  0  0  0  0  0  0
   27.2880   30.6140   45.6330 C   0  0  0  0  0  0  0  0  0  0  0  0
   26.3180   31.0510   45.4590 H   0  0  0  0  0  0  0  0  0  0  0  0
   28.2900   30.7910   44.7480 N   0  0  0  0  0  0  0  0  0  0  0  0
   28.2460   31.3420   43.8410 H   0  0  0  0  0  0  0  0  0  0  0  0
   29.3980   30.1620   45.1640 N   0  0  0  0  0  0  0  0  0  0  0  0
   34.9300   28.4050   49.3430 O   0  0  0  0  0  0  0  0  0  0  0  0
   37.2790   30.1390   51.4570 C   0  0  0  0  0  0  0  0  0  0  0  0
   38.0430   30.8350   50.4690 C   0  0  0  0  0  0  0  0  0  0  0  0
   37.6820   30.6480   49.1410 C   0  0  0  0  0  0  0  0  0  0  0  0
   36.6300   29.8150   48.8990 N   0  0  0  0  0  0  0  0  0  0  0  0
   35.9350   29.1790   49.8480 C   0  0  0  0  0  0  0  0  0  0  0  0
   36.2650   29.3450   51.1360 N   0  0  0  0  0  0  0  0  0  0  0  0
   37.6220   30.3380   52.4630 H   0  0  0  0  0  0  0  0  0  0  0  0
   38.8610   31.4800   50.6830 H   0  0  0  0  0  0  0  0  0  0  0  0
   38.9190   33.2620   48.9950 F   0  0  0  0  0  0  0  0  0  0  0  0
   38.9180   32.4810   47.9280 C   0  0  0  0  0  0  0  0  0  0  0  0
   38.3360   31.2650   48.0180 C   0  0  0  0  0  0  0  0  0  0  0  0
   38.3910   30.5220   46.8350 C   0  0  0  0  0  0  0  0  0  0  0  0
   38.9900   30.9950   45.6850 C   0  0  0  0  0  0  0  0  0  0  0  0
   39.5680   32.2390   45.6430 C   0  0  0  0  0  0  0  0  0  0  0  0
   39.5230   32.9830   46.7930 C   0  0  0  0  0  0  0  0  0  0  0  0
   37.9600   29.5200   46.7670 H   0  0  0  0  0  0  0  0  0  0  0  0
   39.0110   30.3870   44.7890 H   0  0  0  0  0  0  0  0  0  0  0  0
   40.0310   32.6040   44.7490 H   0  0  0  0  0  0  0  0  0  0  0  0
   39.9730   33.9640   46.7810 H   0  0  0  0  0  0  0  0  0  0  0  0
  1  3  1  0  0  0  0
  1 23  1  0  0  0  0
  2  1  1  0  0  0  0
  4  7  1  0  0  0  0
  4  5  1  0  0  0  0
  4  1  1  0  0  0  0
  6  4  1  0  0  0  0
  7  8  1  0  0  0  0
  8  9  2  0  0  0  0
  8 13  1  0  0  0  0
  9 14  1  0  0  0  0
 10  9  1  0  0  0  0
 11 10  2  0  0  0  0
 12 11  1  0  0  0  0
 12  7  2  0  0  0  0
 15 16  1  0  0  0  0
 15 11  1  0  0  0  0
 16 17  1  0  0  0  0
 18 16  2  0  0  0  0
 19 18  1  0  0  0  0
 20 22  1  0  0  0  0
 20 18  1  0  0  0  0
 21 20  1  0  0  0  0
 22 15  2  0  0  0  0
 23 28  1  0  0  0  0
 24 30  1  0  0  0  0
 25 31  1  0  0  0  0
 25 24  2  0  0  0  0
 26 25  1  0  0  0  0
 27 26  2  0  0  0  0
 27 28  1  0  0  0  0
 28 29  2  0  0  0  0
 29 24  1  0  0  0  0
 33 34  1  0  0  0  0
 33 32  1  0  0  0  0
 34 26  1  0  0  0  0
 35 34  2  0  0  0  0
 36 35  1  0  0  0  0
 37 36  2  0  0  0  0
 37 38  1  0  0  0  0
 38 33  2  0  0  0  0
 39 35  1  0  0  0  0
 40 36  1  0  0  0  0
 41 37  1  0  0  0  0
 42 38  1  0  0  0  0
M  END
>  <minimizedAffinity>
-6.56018877

>  <minimizedRMSD>
0.581073046

$$$$
