
 OpenBabel03272508463D

 26 28  0  0  0  0  0  0  0  0999 V2000
   37.9440   26.3910   34.2730 C   0  0  0  0  0  0  0  0  0  0  0  0
   37.8980   27.3170   35.2910 C   0  0  0  0  0  0  0  0  0  0  0  0
   38.3040   26.5780   36.4160 C   0  0  0  0  0  0  0  0  0  0  0  0
   38.5610   25.2930   36.0180 C   0  0  0  0  0  0  0  0  0  0  0  0
   38.3410   25.2040   34.7410 O   0  0  0  0  0  0  0  0  0  0  0  0
   37.6290   28.3550   35.2910 H   0  0  0  0  0  0  0  0  0  0  0  0
   38.3950   26.9760   37.4300 H   0  0  0  0  0  0  0  0  0  0  0  0
   39.0080   24.1670   36.8290 C   0  0  0  0  0  0  0  0  0  0  0  0
   40.0550   23.3270   36.5140 C   0  0  0  0  0  0  0  0  0  0  0  0
   40.6960   23.3790   35.6240 H   0  0  0  0  0  0  0  0  0  0  0  0
   40.1880   22.3810   37.5100 C   0  0  0  0  0  0  0  0  0  0  0  0
   40.9310   21.5940   37.5210 H   0  0  0  0  0  0  0  0  0  0  0  0
   39.2160   22.6670   38.4110 N   0  0  0  0  0  0  0  0  0  0  0  0
   39.0840   22.1020   39.2780 H   0  0  0  0  0  0  0  0  0  0  0  0
   38.5160   23.7230   38.0140 N   0  0  0  0  0  0  0  0  0  0  0  0
   37.6010   26.6840   32.8750 C   0  0  0  0  0  0  0  0  0  0  0  0
   38.0840   27.7160   32.3630 O   0  0  0  0  0  0  0  0  0  0  0  0
   36.2860   23.5860   31.5030 C   0  0  0  0  0  0  0  0  0  0  0  0
   35.1490   23.9900   30.8090 C   0  0  0  0  0  0  0  0  0  0  0  0
   34.8120   25.3460   30.8000 C   0  0  0  0  0  0  0  0  0  0  0  0
   35.6230   26.1920   31.4770 N   0  0  0  0  0  0  0  0  0  0  0  0
   36.7240   25.7750   32.1450 C   0  0  0  0  0  0  0  0  0  0  0  0
   37.0470   24.4640   32.1510 N   0  0  0  0  0  0  0  0  0  0  0  0
   36.5000   22.5260   31.4760 H   0  0  0  0  0  0  0  0  0  0  0  0
   34.4690   23.3650   30.2550 H   0  0  0  0  0  0  0  0  0  0  0  0
   33.9610   25.7990   30.3040 H   0  0  0  0  0  0  0  0  0  0  0  0
  1  5  1  0  0  0  0
  1  2  2  0  0  0  0
  2  6  1  0  0  0  0
  2  3  1  0  0  0  0
  3  7  1  0  0  0  0
  4  3  2  0  0  0  0
  4  8  1  0  0  0  0
  5  4  1  0  0  0  0
  8 15  2  0  0  0  0
  9  8  1  0  0  0  0
  9 11  2  0  0  0  0
 10  9  1  0  0  0  0
 11 12  1  0  0  0  0
 11 13  1  0  0  0  0
 13 14  1  0  0  0  0
 15 13  1  0  0  0  0
 16  1  1  0  0  0  0
 17 16  2  0  0  0  0
 18 23  1  0  0  0  0
 19 18  2  0  0  0  0
 20 19  1  0  0  0  0
 20 21  2  0  0  0  0
 21 22  1  0  0  0  0
 22 23  2  0  0  0  0
 22 16  1  0  0  0  0
 24 18  1  0  0  0  0
 25 19  1  0  0  0  0
 26 20  1  0  0  0  0
M  END
>  <minimizedAffinity>
-5.11666918

$$$$

 OpenBabel03272508463D

 26 28  0  0  0  0  0  0  0  0999 V2000
   37.4740   25.9650   34.0680 C   0  0  0  0  0  0  0  0  0  0  0  0
   37.7330   27.0440   34.8840 C   0  0  0  0  0  0  0  0  0  0  0  0
   38.3330   26.4580   36.0120 C   0  0  0  0  0  0  0  0  0  0  0  0
   38.3950   25.1050   35.8130 C   0  0  0  0  0  0  0  0  0  0  0  0
   37.8790   24.8340   34.6510 O   0  0  0  0  0  0  0  0  0  0  0  0
   37.5490   28.0920   34.7490 H   0  0  0  0  0  0  0  0  0  0  0  0
   38.6850   27.0040   36.8910 H   0  0  0  0  0  0  0  0  0  0  0  0
   38.9330   24.0830   36.7030 C   0  0  0  0  0  0  0  0  0  0  0  0
   40.0360   23.2990   36.4370 C   0  0  0  0  0  0  0  0  0  0  0  0
   40.6620   23.3260   35.5350 H   0  0  0  0  0  0  0  0  0  0  0  0
   40.2500   22.4480   37.5030 C   0  0  0  0  0  0  0  0  0  0  0  0
   41.0490   21.7210   37.5640 H   0  0  0  0  0  0  0  0  0  0  0  0
   39.2700   22.7350   38.3950 N   0  0  0  0  0  0  0  0  0  0  0  0
   39.1900   22.2330   39.3060 H   0  0  0  0  0  0  0  0  0  0  0  0
   38.4890   23.7010   37.9270 N   0  0  0  0  0  0  0  0  0  0  0  0
   36.8390   26.0630   32.7470 C   0  0  0  0  0  0  0  0  0  0  0  0
   36.4580   25.0030   32.2080 O   0  0  0  0  0  0  0  0  0  0  0  0
   37.5700   28.9710   30.6950 C   0  0  0  0  0  0  0  0  0  0  0  0
   36.4740   29.8050   30.9030 C   0  0  0  0  0  0  0  0  0  0  0  0
   35.4570   29.3780   31.7600 C   0  0  0  0  0  0  0  0  0  0  0  0
   35.6030   28.1640   32.3410 N   0  0  0  0  0  0  0  0  0  0  0  0
   36.6780   27.3710   32.1220 C   0  0  0  0  0  0  0  0  0  0  0  0
   37.6600   27.7870   31.2940 N   0  0  0  0  0  0  0  0  0  0  0  0
   38.3280   29.3530   30.0230 H   0  0  0  0  0  0  0  0  0  0  0  0
   36.3040   30.7760   30.4700 H   0  0  0  0  0  0  0  0  0  0  0  0
   34.5520   29.9190   32.0130 H   0  0  0  0  0  0  0  0  0  0  0  0
  1  5  1  0  0  0  0
  1  2  2  0  0  0  0
  2  3  1  0  0  0  0
  3  7  1  0  0  0  0
  4  3  2  0  0  0  0
  4  8  1  0  0  0  0
  5  4  1  0  0  0  0
  6  2  1  0  0  0  0
  8 15  2  0  0  0  0
  9  8  1  0  0  0  0
  9 11  2  0  0  0  0
 10  9  1  0  0  0  0
 11 12  1  0  0  0  0
 11 13  1  0  0  0  0
 13 14  1  0  0  0  0
 15 13  1  0  0  0  0
 16  1  1  0  0  0  0
 17 16  2  0  0  0  0
 18 19  2  0  0  0  0
 18 23  1  0  0  0  0
 19 20  1  0  0  0  0
 20 26  1  0  0  0  0
 20 21  2  0  0  0  0
 22 21  1  0  0  0  0
 22 16  1  0  0  0  0
 23 22  2  0  0  0  0
 24 18  1  0  0  0  0
 25 19  1  0  0  0  0
M  END
>  <minimizedAffinity>
-5.07655811

$$$$

 OpenBabel03272508463D

 26 28  0  0  0  0  0  0  0  0999 V2000
   37.9120   25.4910   35.5590 C   0  0  0  0  0  0  0  0  0  0  0  0
   38.1490   26.8020   35.9050 C   0  0  0  0  0  0  0  0  0  0  0  0
   37.8060   27.5090   34.7390 C   0  0  0  0  0  0  0  0  0  0  0  0
   37.3970   26.6080   33.7930 C   0  0  0  0  0  0  0  0  0  0  0  0
   37.4690   25.4150   34.3010 O   0  0  0  0  0  0  0  0  0  0  0  0
   38.5050   27.2390   36.8170 H   0  0  0  0  0  0  0  0  0  0  0  0
   37.8610   28.5950   34.6240 H   0  0  0  0  0  0  0  0  0  0  0  0
   36.9460   26.8690   32.4310 C   0  0  0  0  0  0  0  0  0  0  0  0
   37.2430   27.9990   31.6990 C   0  0  0  0  0  0  0  0  0  0  0  0
   37.8500   28.8540   32.0240 H   0  0  0  0  0  0  0  0  0  0  0  0
   36.6490   27.8990   30.4570 C   0  0  0  0  0  0  0  0  0  0  0  0
   36.7150   28.6460   29.6770 H   0  0  0  0  0  0  0  0  0  0  0  0
   36.0020   26.7070   30.4620 N   0  0  0  0  0  0  0  0  0  0  0  0
   35.4600   26.3710   29.6370 H   0  0  0  0  0  0  0  0  0  0  0  0
   36.1750   26.0940   31.6260 N   0  0  0  0  0  0  0  0  0  0  0  0
   38.1250   24.3490   36.4580 C   0  0  0  0  0  0  0  0  0  0  0  0
   37.1660   23.9840   37.1690 O   0  0  0  0  0  0  0  0  0  0  0  0
   40.8090   22.1530   37.5450 C   0  0  0  0  0  0  0  0  0  0  0  0
   41.8290   22.4020   36.6310 C   0  0  0  0  0  0  0  0  0  0  0  0
   41.6100   23.3370   35.6160 C   0  0  0  0  0  0  0  0  0  0  0  0
   40.4030   23.9490   35.5860 N   0  0  0  0  0  0  0  0  0  0  0  0
   39.4260   23.6900   36.4860 C   0  0  0  0  0  0  0  0  0  0  0  0
   39.6420   22.7870   37.4660 N   0  0  0  0  0  0  0  0  0  0  0  0
   41.0330   21.4210   38.3100 H   0  0  0  0  0  0  0  0  0  0  0  0
   42.8040   21.9470   36.6050 H   0  0  0  0  0  0  0  0  0  0  0  0
   42.3090   23.6290   34.8410 H   0  0  0  0  0  0  0  0  0  0  0  0
  1  2  2  0  0  0  0
  1 16  1  0  0  0  0
  2  6  1  0  0  0  0
  3  2  1  0  0  0  0
  4  5  1  0  0  0  0
  4  3  2  0  0  0  0
  5  1  1  0  0  0  0
  7  3  1  0  0  0  0
  8  4  1  0  0  0  0
  9 10  1  0  0  0  0
  9  8  1  0  0  0  0
 11 13  1  0  0  0  0
 11  9  2  0  0  0  0
 12 11  1  0  0  0  0
 13 15  1  0  0  0  0
 14 13  1  0  0  0  0
 15  8  2  0  0  0  0
 16 22  1  0  0  0  0
 16 17  2  0  0  0  0
 18 24  1  0  0  0  0
 19 18  2  0  0  0  0
 20 19  1  0  0  0  0
 21 20  2  0  0  0  0
 21 22  1  0  0  0  0
 22 23  2  0  0  0  0
 23 18  1  0  0  0  0
 25 19  1  0  0  0  0
 26 20  1  0  0  0  0
M  END
>  <minimizedAffinity>
-5.04849386

$$$$

 OpenBabel03272508463D

 26 28  0  0  0  0  0  0  0  0999 V2000
   37.6070   24.0270   32.9770 C   0  0  0  0  0  0  0  0  0  0  0  0
   37.9150   25.3510   33.1900 C   0  0  0  0  0  0  0  0  0  0  0  0
   38.3380   25.3710   34.5300 C   0  0  0  0  0  0  0  0  0  0  0  0
   38.2600   24.0980   35.0260 C   0  0  0  0  0  0  0  0  0  0  0  0
   37.8230   23.3150   34.0860 O   0  0  0  0  0  0  0  0  0  0  0  0
   37.8680   26.2020   32.5380 H   0  0  0  0  0  0  0  0  0  0  0  0
   38.6710   26.2620   35.0710 H   0  0  0  0  0  0  0  0  0  0  0  0
   38.5920   23.6270   36.3650 C   0  0  0  0  0  0  0  0  0  0  0  0
   38.0260   24.0910   37.5340 C   0  0  0  0  0  0  0  0  0  0  0  0
   37.2570   24.8690   37.6300 H   0  0  0  0  0  0  0  0  0  0  0  0
   38.5820   23.4170   38.6020 C   0  0  0  0  0  0  0  0  0  0  0  0
   38.3240   23.5800   39.6400 H   0  0  0  0  0  0  0  0  0  0  0  0
   39.4770   22.5550   38.0580 N   0  0  0  0  0  0  0  0  0  0  0  0
   40.0500   21.9110   38.6450 H   0  0  0  0  0  0  0  0  0  0  0  0
   39.4860   22.6750   36.7360 N   0  0  0  0  0  0  0  0  0  0  0  0
   37.1100   23.4890   31.7030 C   0  0  0  0  0  0  0  0  0  0  0  0
   37.2120   24.2120   30.6900 O   0  0  0  0  0  0  0  0  0  0  0  0
   36.7550   19.9440   30.9860 C   0  0  0  0  0  0  0  0  0  0  0  0
   35.5200   19.6180   31.5410 C   0  0  0  0  0  0  0  0  0  0  0  0
   34.7820   20.6190   32.1770 C   0  0  0  0  0  0  0  0  0  0  0  0
   35.3220   21.8600   32.2130 N   0  0  0  0  0  0  0  0  0  0  0  0
   36.5250   22.1530   31.6670 C   0  0  0  0  0  0  0  0  0  0  0  0
   37.2350   21.1830   31.0520 N   0  0  0  0  0  0  0  0  0  0  0  0
   37.2820   19.1300   30.5060 H   0  0  0  0  0  0  0  0  0  0  0  0
   35.0430   18.6530   31.5430 H   0  0  0  0  0  0  0  0  0  0  0  0
   33.8130   20.5100   32.6500 H   0  0  0  0  0  0  0  0  0  0  0  0
  1  2  2  0  0  0  0
  1  5  1  0  0  0  0
  2  3  1  0  0  0  0
  3  4  2  0  0  0  0
  3  7  1  0  0  0  0
  4  8  1  0  0  0  0
  5  4  1  0  0  0  0
  6  2  1  0  0  0  0
  8 15  2  0  0  0  0
  8  9  1  0  0  0  0
  9 10  1  0  0  0  0
  9 11  2  0  0  0  0
 11 12  1  0  0  0  0
 13 11  1  0  0  0  0
 13 14  1  0  0  0  0
 15 13  1  0  0  0  0
 16  1  1  0  0  0  0
 17 16  2  0  0  0  0
 18 23  2  0  0  0  0
 18 19  1  0  0  0  0
 19 25  1  0  0  0  0
 19 20  2  0  0  0  0
 20 21  1  0  0  0  0
 20 26  1  0  0  0  0
 22 16  1  0  0  0  0
 22 21  2  0  0  0  0
 23 22  1  0  0  0  0
 24 18  1  0  0  0  0
M  END
>  <minimizedAffinity>
-4.95096779

$$$$

 OpenBabel03272508463D

 26 28  0  0  0  0  0  0  0  0999 V2000
   37.5510   26.4400   34.2740 C   0  0  0  0  0  0  0  0  0  0  0  0
   37.8780   27.5000   35.0900 C   0  0  0  0  0  0  0  0  0  0  0  0
   38.2770   26.8740   36.2840 C   0  0  0  0  0  0  0  0  0  0  0  0
   38.1690   25.5200   36.1180 C   0  0  0  0  0  0  0  0  0  0  0  0
   37.7350   25.2840   34.9160 O   0  0  0  0  0  0  0  0  0  0  0  0
   37.8570   28.5580   34.9170 H   0  0  0  0  0  0  0  0  0  0  0  0
   38.6150   27.3950   37.1830 H   0  0  0  0  0  0  0  0  0  0  0  0
   38.4690   24.4640   37.0780 C   0  0  0  0  0  0  0  0  0  0  0  0
   37.9380   24.3700   38.3470 C   0  0  0  0  0  0  0  0  0  0  0  0
   37.2240   25.0610   38.8150 H   0  0  0  0  0  0  0  0  0  0  0  0
   38.4470   23.2460   38.9650 C   0  0  0  0  0  0  0  0  0  0  0  0
   38.2020   22.9270   39.9700 H   0  0  0  0  0  0  0  0  0  0  0  0
   39.2800   22.6800   38.0560 N   0  0  0  0  0  0  0  0  0  0  0  0
   39.8070   21.8050   38.2620 H   0  0  0  0  0  0  0  0  0  0  0  0
   39.2960   23.3960   36.9390 N   0  0  0  0  0  0  0  0  0  0  0  0
   37.0680   26.5800   32.8940 C   0  0  0  0  0  0  0  0  0  0  0  0
   36.2780   27.5170   32.6480 O   0  0  0  0  0  0  0  0  0  0  0  0
   39.0330   25.1870   30.1730 C   0  0  0  0  0  0  0  0  0  0  0  0
   38.4420   23.9490   29.9400 C   0  0  0  0  0  0  0  0  0  0  0  0
   37.3480   23.5680   30.7200 C   0  0  0  0  0  0  0  0  0  0  0  0
   36.9270   24.4390   31.6670 N   0  0  0  0  0  0  0  0  0  0  0  0
   37.5190   25.6390   31.8750 C   0  0  0  0  0  0  0  0  0  0  0  0
   38.5760   26.0040   31.1180 N   0  0  0  0  0  0  0  0  0  0  0  0
   39.8760   25.4310   29.5390 H   0  0  0  0  0  0  0  0  0  0  0  0
   38.7330   23.2180   29.2050 H   0  0  0  0  0  0  0  0  0  0  0  0
   36.7930   22.6390   30.6500 H   0  0  0  0  0  0  0  0  0  0  0  0
  1  5  1  0  0  0  0
  1  2  2  0  0  0  0
  2  3  1  0  0  0  0
  3  7  1  0  0  0  0
  4  3  2  0  0  0  0
  4  8  1  0  0  0  0
  5  4  1  0  0  0  0
  6  2  1  0  0  0  0
  8  9  1  0  0  0  0
  9 10  1  0  0  0  0
  9 11  2  0  0  0  0
 11 12  1  0  0  0  0
 13 14  1  0  0  0  0
 13 11  1  0  0  0  0
 15  8  2  0  0  0  0
 15 13  1  0  0  0  0
 16  1  1  0  0  0  0
 17 16  2  0  0  0  0
 18 23  1  0  0  0  0
 19 18  2  0  0  0  0
 19 20  1  0  0  0  0
 20 21  2  0  0  0  0
 21 22  1  0  0  0  0
 22 16  1  0  0  0  0
 23 22  2  0  0  0  0
 24 18  1  0  0  0  0
 25 19  1  0  0  0  0
 26 20  1  0  0  0  0
M  END
>  <minimizedAffinity>
-4.9381237

$$$$

 OpenBabel03272508463D

 26 28  0  0  0  0  0  0  0  0999 V2000
   37.7660   23.6440   33.3290 C   0  0  0  0  0  0  0  0  0  0  0  0
   37.0460   24.2640   32.3320 C   0  0  0  0  0  0  0  0  0  0  0  0
   36.3050   23.2120   31.7680 C   0  0  0  0  0  0  0  0  0  0  0  0
   36.6140   22.0590   32.4380 C   0  0  0  0  0  0  0  0  0  0  0  0
   37.4850   22.3380   33.3620 O   0  0  0  0  0  0  0  0  0  0  0  0
   37.0150   25.2890   32.0160 H   0  0  0  0  0  0  0  0  0  0  0  0
   35.6030   23.3130   30.9360 H   0  0  0  0  0  0  0  0  0  0  0  0
   36.0970   20.7140   32.2120 C   0  0  0  0  0  0  0  0  0  0  0  0
   35.6130   19.8740   33.1930 C   0  0  0  0  0  0  0  0  0  0  0  0
   35.5450   20.0870   34.2680 H   0  0  0  0  0  0  0  0  0  0  0  0
   35.2110   18.6890   32.6110 C   0  0  0  0  0  0  0  0  0  0  0  0
   34.7910   17.8480   33.1470 H   0  0  0  0  0  0  0  0  0  0  0  0
   35.4610   18.8350   31.2860 N   0  0  0  0  0  0  0  0  0  0  0  0
   35.2500   18.0780   30.6000 H   0  0  0  0  0  0  0  0  0  0  0  0
   35.9840   20.0300   31.0450 N   0  0  0  0  0  0  0  0  0  0  0  0
   38.7080   24.3350   34.2190 C   0  0  0  0  0  0  0  0  0  0  0  0
   39.4180   25.2350   33.7260 O   0  0  0  0  0  0  0  0  0  0  0  0
   37.8170   24.1040   37.7350 C   0  0  0  0  0  0  0  0  0  0  0  0
   38.8170   23.3000   38.2760 C   0  0  0  0  0  0  0  0  0  0  0  0
   39.8230   22.8190   37.4350 C   0  0  0  0  0  0  0  0  0  0  0  0
   39.7600   23.1710   36.1290 N   0  0  0  0  0  0  0  0  0  0  0  0
   38.7780   23.9540   35.6260 C   0  0  0  0  0  0  0  0  0  0  0  0
   37.8070   24.4170   36.4420 N   0  0  0  0  0  0  0  0  0  0  0  0
   37.0650   24.4490   38.4330 H   0  0  0  0  0  0  0  0  0  0  0  0
   38.9170   22.9890   39.3020 H   0  0  0  0  0  0  0  0  0  0  0  0
   40.6580   22.1880   37.7160 H   0  0  0  0  0  0  0  0  0  0  0  0
  1  5  1  0  0  0  0
  1 16  1  0  0  0  0
  2  1  2  0  0  0  0
  3  2  1  0  0  0  0
  3  4  2  0  0  0  0
  4  5  1  0  0  0  0
  6  2  1  0  0  0  0
  7  3  1  0  0  0  0
  8  4  1  0  0  0  0
  8  9  1  0  0  0  0
  9 10  1  0  0  0  0
 11 12  1  0  0  0  0
 11  9  2  0  0  0  0
 13 11  1  0  0  0  0
 14 13  1  0  0  0  0
 15 13  1  0  0  0  0
 15  8  2  0  0  0  0
 16 22  1  0  0  0  0
 17 16  2  0  0  0  0
 18 19  1  0  0  0  0
 18 24  1  0  0  0  0
 19 25  1  0  0  0  0
 20 26  1  0  0  0  0
 20 19  2  0  0  0  0
 21 20  1  0  0  0  0
 22 21  2  0  0  0  0
 22 23  1  0  0  0  0
 23 18  2  0  0  0  0
M  END
>  <minimizedAffinity>
-4.87383842

$$$$

 OpenBabel03272508463D

 26 28  0  0  0  0  0  0  0  0999 V2000
   37.9270   25.0200   34.0180 C   0  0  0  0  0  0  0  0  0  0  0  0
   37.8280   26.1530   34.7930 C   0  0  0  0  0  0  0  0  0  0  0  0
   37.6620   27.1780   33.8460 C   0  0  0  0  0  0  0  0  0  0  0  0
   37.6710   26.6160   32.5970 C   0  0  0  0  0  0  0  0  0  0  0  0
   37.8300   25.3330   32.7230 O   0  0  0  0  0  0  0  0  0  0  0  0
   37.8620   26.2870   35.8570 H   0  0  0  0  0  0  0  0  0  0  0  0
   37.5450   28.2390   34.0810 H   0  0  0  0  0  0  0  0  0  0  0  0
   37.5310   27.2790   31.3060 C   0  0  0  0  0  0  0  0  0  0  0  0
   38.5660   27.8320   30.5820 C   0  0  0  0  0  0  0  0  0  0  0  0
   39.6270   27.8560   30.8620 H   0  0  0  0  0  0  0  0  0  0  0  0
   38.0610   28.3690   29.4140 C   0  0  0  0  0  0  0  0  0  0  0  0
   38.6510   28.8680   28.6560 H   0  0  0  0  0  0  0  0  0  0  0  0
   36.7260   28.1290   29.4550 N   0  0  0  0  0  0  0  0  0  0  0  0
   36.0880   28.4330   28.6880 H   0  0  0  0  0  0  0  0  0  0  0  0
   36.4090   27.4850   30.5710 N   0  0  0  0  0  0  0  0  0  0  0  0
   38.1150   23.6660   34.5550 C   0  0  0  0  0  0  0  0  0  0  0  0
   37.9660   22.7050   33.7710 O   0  0  0  0  0  0  0  0  0  0  0  0
   37.7910   23.6910   38.1750 C   0  0  0  0  0  0  0  0  0  0  0  0
   39.0190   23.2090   38.6190 C   0  0  0  0  0  0  0  0  0  0  0  0
   39.9880   22.8630   37.6740 C   0  0  0  0  0  0  0  0  0  0  0  0
   39.6660   23.0220   36.3680 N   0  0  0  0  0  0  0  0  0  0  0  0
   38.4650   23.4930   35.9610 C   0  0  0  0  0  0  0  0  0  0  0  0
   37.5310   23.8270   36.8770 N   0  0  0  0  0  0  0  0  0  0  0  0
   37.0790   23.9440   38.9500 H   0  0  0  0  0  0  0  0  0  0  0  0
   39.3300   23.0620   39.6390 H   0  0  0  0  0  0  0  0  0  0  0  0
   40.9810   22.4780   37.8740 H   0  0  0  0  0  0  0  0  0  0  0  0
  1 16  1  0  0  0  0
  1  2  2  0  0  0  0
  2  6  1  0  0  0  0
  3  7  1  0  0  0  0
  3  2  1  0  0  0  0
  4  5  1  0  0  0  0
  4  3  2  0  0  0  0
  5  1  1  0  0  0  0
  8  4  1  0  0  0  0
  9 10  1  0  0  0  0
  9  8  1  0  0  0  0
 11 13  1  0  0  0  0
 11  9  2  0  0  0  0
 12 11  1  0  0  0  0
 13 15  1  0  0  0  0
 14 13  1  0  0  0  0
 15  8  2  0  0  0  0
 16 22  1  0  0  0  0
 17 16  2  0  0  0  0
 18 19  1  0  0  0  0
 18 24  1  0  0  0  0
 19 25  1  0  0  0  0
 20 26  1  0  0  0  0
 20 19  2  0  0  0  0
 21 20  1  0  0  0  0
 22 21  2  0  0  0  0
 22 23  1  0  0  0  0
 23 18  2  0  0  0  0
M  END
>  <minimizedAffinity>
-4.80682707

$$$$

 OpenBabel03272508463D

 26 28  0  0  0  0  0  0  0  0999 V2000
   37.1870   24.4030   31.8580 C   0  0  0  0  0  0  0  0  0  0  0  0
   36.0680   24.6050   31.0820 C   0  0  0  0  0  0  0  0  0  0  0  0
   35.3630   23.3960   31.2160 C   0  0  0  0  0  0  0  0  0  0  0  0
   36.0790   22.5680   32.0370 C   0  0  0  0  0  0  0  0  0  0  0  0
   37.1600   23.1860   32.4070 O   0  0  0  0  0  0  0  0  0  0  0  0
   35.7550   25.4490   30.4990 H   0  0  0  0  0  0  0  0  0  0  0  0
   34.4050   23.1710   30.7380 H   0  0  0  0  0  0  0  0  0  0  0  0
   35.7480   21.2140   32.4670 C   0  0  0  0  0  0  0  0  0  0  0  0
   35.4460   20.1650   31.6250 C   0  0  0  0  0  0  0  0  0  0  0  0
   35.4100   20.1900   30.5270 H   0  0  0  0  0  0  0  0  0  0  0  0
   35.1880   19.0400   32.3820 C   0  0  0  0  0  0  0  0  0  0  0  0
   34.9230   18.0710   31.9800 H   0  0  0  0  0  0  0  0  0  0  0  0
   35.3400   19.4320   33.6720 N   0  0  0  0  0  0  0  0  0  0  0  0
   35.2010   18.7720   34.4670 H   0  0  0  0  0  0  0  0  0  0  0  0
   35.6710   20.7150   33.7270 N   0  0  0  0  0  0  0  0  0  0  0  0
   38.2530   25.3970   32.0430 C   0  0  0  0  0  0  0  0  0  0  0  0
   38.9900   25.6450   31.0650 O   0  0  0  0  0  0  0  0  0  0  0  0
   37.3700   27.0860   35.1360 C   0  0  0  0  0  0  0  0  0  0  0  0
   38.5960   27.2840   35.7650 C   0  0  0  0  0  0  0  0  0  0  0  0
   39.7570   26.8370   35.1320 C   0  0  0  0  0  0  0  0  0  0  0  0
   39.6140   26.2310   33.9300 N   0  0  0  0  0  0  0  0  0  0  0  0
   38.4110   26.0490   33.3380 C   0  0  0  0  0  0  0  0  0  0  0  0
   37.2900   26.4830   33.9530 N   0  0  0  0  0  0  0  0  0  0  0  0
   36.5040   27.4530   35.6720 H   0  0  0  0  0  0  0  0  0  0  0  0
   38.7700   27.7580   36.7170 H   0  0  0  0  0  0  0  0  0  0  0  0
   40.7730   26.9230   35.5010 H   0  0  0  0  0  0  0  0  0  0  0  0
  1 16  1  0  0  0  0
  1  5  1  0  0  0  0
  2  3  1  0  0  0  0
  2  1  2  0  0  0  0
  3  4  2  0  0  0  0
  4  5  1  0  0  0  0
  4  8  1  0  0  0  0
  6  2  1  0  0  0  0
  7  3  1  0  0  0  0
  8 15  2  0  0  0  0
  9 11  2  0  0  0  0
  9  8  1  0  0  0  0
 10  9  1  0  0  0  0
 11 13  1  0  0  0  0
 12 11  1  0  0  0  0
 13 15  1  0  0  0  0
 13 14  1  0  0  0  0
 16 22  1  0  0  0  0
 17 16  2  0  0  0  0
 18 24  1  0  0  0  0
 18 19  1  0  0  0  0
 19 25  1  0  0  0  0
 20 26  1  0  0  0  0
 20 19  2  0  0  0  0
 21 20  1  0  0  0  0
 22 21  2  0  0  0  0
 22 23  1  0  0  0  0
 23 18  2  0  0  0  0
M  END
>  <minimizedAffinity>
-4.77175522

$$$$

 OpenBabel03272508463D

 26 28  0  0  0  0  0  0  0  0999 V2000
   38.4210   25.3100   33.3860 C   0  0  0  0  0  0  0  0  0  0  0  0
   37.9330   24.1050   32.9310 C   0  0  0  0  0  0  0  0  0  0  0  0
   38.0060   23.2800   34.0660 C   0  0  0  0  0  0  0  0  0  0  0  0
   38.5180   24.0150   35.1020 C   0  0  0  0  0  0  0  0  0  0  0  0
   38.7580   25.2180   34.6750 O   0  0  0  0  0  0  0  0  0  0  0  0
   37.5720   23.8080   31.9660 H   0  0  0  0  0  0  0  0  0  0  0  0
   37.7010   22.2300   34.1010 H   0  0  0  0  0  0  0  0  0  0  0  0
   38.7770   23.5890   36.4720 C   0  0  0  0  0  0  0  0  0  0  0  0
   38.1230   24.0660   37.5880 C   0  0  0  0  0  0  0  0  0  0  0  0
   37.3260   24.8220   37.6130 H   0  0  0  0  0  0  0  0  0  0  0  0
   38.6280   23.4380   38.7080 C   0  0  0  0  0  0  0  0  0  0  0  0
   38.2980   23.6200   39.7230 H   0  0  0  0  0  0  0  0  0  0  0  0
   39.5810   22.5900   38.2470 N   0  0  0  0  0  0  0  0  0  0  0  0
   40.1330   21.9800   38.8880 H   0  0  0  0  0  0  0  0  0  0  0  0
   39.6720   22.6760   36.9260 N   0  0  0  0  0  0  0  0  0  0  0  0
   38.5490   26.5150   32.5550 C   0  0  0  0  0  0  0  0  0  0  0  0
   39.5150   26.5750   31.7650 O   0  0  0  0  0  0  0  0  0  0  0  0
   36.5030   29.3830   31.6660 C   0  0  0  0  0  0  0  0  0  0  0  0
   35.7360   29.6070   32.8060 C   0  0  0  0  0  0  0  0  0  0  0  0
   35.9100   28.7680   33.9100 C   0  0  0  0  0  0  0  0  0  0  0  0
   36.8270   27.7780   33.7980 N   0  0  0  0  0  0  0  0  0  0  0  0
   37.5610   27.5800   32.6790 C   0  0  0  0  0  0  0  0  0  0  0  0
   37.3900   28.3930   31.6140 N   0  0  0  0  0  0  0  0  0  0  0  0
   36.3270   30.0630   30.8430 H   0  0  0  0  0  0  0  0  0  0  0  0
   34.9950   30.3750   32.9520 H   0  0  0  0  0  0  0  0  0  0  0  0
   35.3860   28.8250   34.8570 H   0  0  0  0  0  0  0  0  0  0  0  0
  1  5  1  0  0  0  0
  2  1  2  0  0  0  0
  2  3  1  0  0  0  0
  3  7  1  0  0  0  0
  3  4  2  0  0  0  0
  4  8  1  0  0  0  0
  5  4  1  0  0  0  0
  6  2  1  0  0  0  0
  8 15  2  0  0  0  0
  8  9  1  0  0  0  0
  9 10  1  0  0  0  0
  9 11  2  0  0  0  0
 11 12  1  0  0  0  0
 13 11  1  0  0  0  0
 13 14  1  0  0  0  0
 15 13  1  0  0  0  0
 16 22  1  0  0  0  0
 16  1  1  0  0  0  0
 17 16  2  0  0  0  0
 18 19  1  0  0  0  0
 19 25  1  0  0  0  0
 19 20  2  0  0  0  0
 20 26  1  0  0  0  0
 21 20  1  0  0  0  0
 22 21  2  0  0  0  0
 23 18  2  0  0  0  0
 23 22  1  0  0  0  0
 24 18  1  0  0  0  0
M  END
>  <minimizedAffinity>
-4.70225716

$$$$
