
 OpenBabel03262520593D

 34 36  0  0  1  0  0  0  0  0999 V2000
   39.7550   33.1710   45.9540 N   0  0  0  0  0  0  0  0  0  0  0  0
   38.5270   32.4880   46.1170 C   0  0  1  0  0  0  0  0  0  0  0  0
   37.8470   32.3240   44.7810 C   0  0  0  0  0  0  0  0  0  0  0  0
   38.7610   31.5740   43.9170 N   0  0  0  0  0  0  0  0  0  0  0  0
   39.8870   32.4770   43.6540 C   0  0  0  0  0  0  0  0  0  0  0  0
   40.6340   32.6080   44.9790 C   0  0  2  0  0  0  0  0  0  0  0  0
   40.1710   33.6360   46.7560 H   0  0  0  0  0  0  0  0  0  0  0  0
   37.8930   33.0560   46.8280 H   0  0  0  0  0  0  0  0  0  0  0  0
   36.9660   31.6660   44.9300 H   0  0  0  0  0  0  0  0  0  0  0  0
   37.5640   33.2990   44.3470 H   0  0  0  0  0  0  0  0  0  0  0  0
   38.2240   31.4140   43.0160 H   0  0  0  0  0  0  0  0  0  0  0  0
   39.5610   33.4910   43.3610 H   0  0  0  0  0  0  0  0  0  0  0  0
   40.5850   32.0460   42.9110 H   0  0  0  0  0  0  0  0  0  0  0  0
   41.5140   33.2870   44.8700 H   0  0  0  0  0  0  0  0  0  0  0  0
   41.1530   31.3000   45.3270 N   0  0  0  0  0  0  0  0  0  0  0  0
   42.0910   31.1080   44.9300 H   0  0  0  0  0  0  0  0  0  0  0  0
   40.5340   30.5420   44.9130 H   0  0  0  0  0  0  0  0  0  0  0  0
   38.7730   30.7750   46.7580 S   0  0  0  0  0  0  0  0  0  0  0  0
   37.2860   30.7390   50.5330 C   0  0  0  0  0  0  0  0  0  0  0  0
   38.1310   30.9830   49.4480 C   0  0  0  0  0  0  0  0  0  0  0  0
   37.7800   30.5260   48.2070 C   0  0  0  0  0  0  0  0  0  0  0  0
   36.5960   29.8430   48.0960 N   0  0  0  0  0  0  0  0  0  0  0  0
   35.8180   29.6300   49.1460 C   0  0  0  0  0  0  0  0  0  0  0  0
   36.1520   30.0730   50.3690 N   0  0  0  0  0  0  0  0  0  0  0  0
   37.5480   31.0940   51.5240 H   0  0  0  0  0  0  0  0  0  0  0  0
   39.0400   31.5190   49.5890 H   0  0  0  0  0  0  0  0  0  0  0  0
   34.5520   28.8870   48.9680 C   0  0  0  0  0  0  0  0  0  0  0  0
   34.0470   27.8950   48.1790 C   0  0  0  0  0  0  0  0  0  0  0  0
   34.7200   27.4930   47.4530 H   0  0  0  0  0  0  0  0  0  0  0  0
   32.7400   27.6970   48.5830 C   0  0  0  0  0  0  0  0  0  0  0  0
   32.1460   26.9310   48.0710 H   0  0  0  0  0  0  0  0  0  0  0  0
   32.4760   28.5520   49.5880 N   0  0  0  0  0  0  0  0  0  0  0  0
   31.5370   28.5730   50.0460 H   0  0  0  0  0  0  0  0  0  0  0  0
   33.5700   29.2790   49.8300 N   0  0  0  0  0  0  0  0  0  0  0  0
  1  2  1  0  0  0  0
  1  7  1  0  0  0  0
  2 18  1  0  0  0  0
  2  8  1  1  0  0  0
  3  9  1  0  0  0  0
  3  2  1  0  0  0  0
  4  3  1  0  0  0  0
  5  4  1  0  0  0  0
  5  6  1  0  0  0  0
  6 14  1  6  0  0  0
  6 15  1  0  0  0  0
  6  1  1  0  0  0  0
 10  3  1  0  0  0  0
 11  4  1  0  0  0  0
 12  5  1  0  0  0  0
 13  5  1  0  0  0  0
 16 15  1  0  0  0  0
 17 15  1  0  0  0  0
 18 21  1  0  0  0  0
 19 25  1  0  0  0  0
 20 26  1  0  0  0  0
 20 19  2  0  0  0  0
 21 20  1  0  0  0  0
 22 21  2  0  0  0  0
 22 23  1  0  0  0  0
 23 24  2  0  0  0  0
 24 19  1  0  0  0  0
 27 23  1  0  0  0  0
 27 34  2  0  0  0  0
 28 30  2  0  0  0  0
 28 27  1  0  0  0  0
 29 28  1  0  0  0  0
 30 32  1  0  0  0  0
 31 30  1  0  0  0  0
 32 34  1  0  0  0  0
 32 33  1  0  0  0  0
M  END
>  <minimizedAffinity>
-5.67173958

>  <minimizedRMSD>
1.07191622

$$$$
