
 OpenBabel03272509523D

 42 45  0  0  0  0  0  0  0  0999 V2000
   34.2420   28.7920   48.0770 C   0  0  0  0  0  0  0  0  0  0  0  0
   35.0700   29.1040   47.4260 H   0  0  0  0  0  0  0  0  0  0  0  0
   33.5630   29.6740   48.2520 H   0  0  0  0  0  0  0  0  0  0  0  0
   33.3960   27.7070   47.4910 C   0  0  0  0  0  0  0  0  0  0  0  0
   33.7220   26.6900   47.7820 H   0  0  0  0  0  0  0  0  0  0  0  0
   33.4960   27.7670   46.3790 H   0  0  0  0  0  0  0  0  0  0  0  0
   31.9450   27.8840   47.7650 C   0  0  0  0  0  0  0  0  0  0  0  0
   31.4190   27.2310   48.8700 C   0  0  0  0  0  0  0  0  0  0  0  0
   30.1030   27.3200   49.2170 C   0  0  0  0  0  0  0  0  0  0  0  0
   29.3010   28.0570   48.4720 N   0  0  0  0  0  0  0  0  0  0  0  0
   29.8090   28.7090   47.3740 C   0  0  0  0  0  0  0  0  0  0  0  0
   31.1130   28.6320   47.0150 N   0  0  0  0  0  0  0  0  0  0  0  0
   32.0780   26.6190   49.4910 H   0  0  0  0  0  0  0  0  0  0  0  0
   29.6790   26.8130   50.0800 H   0  0  0  0  0  0  0  0  0  0  0  0
   28.9460   29.5310   46.5310 C   0  0  0  0  0  0  0  0  0  0  0  0
   27.6450   29.8150   46.9610 C   0  0  0  0  0  0  0  0  0  0  0  0
   27.0840   29.5390   47.8570 H   0  0  0  0  0  0  0  0  0  0  0  0
   27.0550   30.6090   45.9720 C   0  0  0  0  0  0  0  0  0  0  0  0
   26.0790   31.0580   45.8760 H   0  0  0  0  0  0  0  0  0  0  0  0
   27.9840   30.7740   45.0100 N   0  0  0  0  0  0  0  0  0  0  0  0
   27.8750   31.3250   44.1080 H   0  0  0  0  0  0  0  0  0  0  0  0
   29.1160   30.1340   45.3370 N   0  0  0  0  0  0  0  0  0  0  0  0
   34.7510   28.3990   49.3540 O   0  0  0  0  0  0  0  0  0  0  0  0
   37.1020   29.9750   51.5850 C   0  0  0  0  0  0  0  0  0  0  0  0
   37.8930   30.7050   50.6450 C   0  0  0  0  0  0  0  0  0  0  0  0
   37.5490   30.5940   49.3050 C   0  0  0  0  0  0  0  0  0  0  0  0
   36.4830   29.7960   49.0060 N   0  0  0  0  0  0  0  0  0  0  0  0
   35.7630   29.1260   49.9110 C   0  0  0  0  0  0  0  0  0  0  0  0
   36.0780   29.2190   51.2100 N   0  0  0  0  0  0  0  0  0  0  0  0
   37.4350   30.1150   52.6050 H   0  0  0  0  0  0  0  0  0  0  0  0
   38.7210   31.3210   50.9030 H   0  0  0  0  0  0  0  0  0  0  0  0
   38.7720   33.2170   49.2890 F   0  0  0  0  0  0  0  0  0  0  0  0
   38.8070   32.4760   48.1950 C   0  0  0  0  0  0  0  0  0  0  0  0
   38.2300   31.2550   48.2240 C   0  0  0  0  0  0  0  0  0  0  0  0
   38.3240   30.5560   47.0160 C   0  0  0  0  0  0  0  0  0  0  0  0
   38.9510   31.0730   45.9020 C   0  0  0  0  0  0  0  0  0  0  0  0
   39.5230   32.3210   45.9220 C   0  0  0  0  0  0  0  0  0  0  0  0
   39.4410   33.0220   47.0960 C   0  0  0  0  0  0  0  0  0  0  0  0
   37.9010   29.5550   46.9000 H   0  0  0  0  0  0  0  0  0  0  0  0
   39.0020   30.4990   44.9850 H   0  0  0  0  0  0  0  0  0  0  0  0
   40.0090   32.7210   45.0560 H   0  0  0  0  0  0  0  0  0  0  0  0
   39.8850   34.0050   47.1330 H   0  0  0  0  0  0  0  0  0  0  0  0
  1  3  1  0  0  0  0
  1 23  1  0  0  0  0
  2  1  1  0  0  0  0
  4  7  1  0  0  0  0
  4  5  1  0  0  0  0
  4  1  1  0  0  0  0
  6  4  1  0  0  0  0
  7  8  1  0  0  0  0
  8  9  2  0  0  0  0
  8 13  1  0  0  0  0
  9 14  1  0  0  0  0
 10  9  1  0  0  0  0
 11 10  2  0  0  0  0
 12 11  1  0  0  0  0
 12  7  2  0  0  0  0
 15 16  1  0  0  0  0
 15 11  1  0  0  0  0
 16 17  1  0  0  0  0
 18 16  2  0  0  0  0
 19 18  1  0  0  0  0
 20 22  1  0  0  0  0
 20 18  1  0  0  0  0
 21 20  1  0  0  0  0
 22 15  2  0  0  0  0
 23 28  1  0  0  0  0
 24 30  1  0  0  0  0
 25 31  1  0  0  0  0
 25 24  2  0  0  0  0
 26 25  1  0  0  0  0
 27 26  2  0  0  0  0
 27 28  1  0  0  0  0
 28 29  2  0  0  0  0
 29 24  1  0  0  0  0
 33 34  1  0  0  0  0
 33 32  1  0  0  0  0
 34 26  1  0  0  0  0
 35 34  2  0  0  0  0
 36 37  2  0  0  0  0
 36 35  1  0  0  0  0
 37 38  1  0  0  0  0
 38 42  1  0  0  0  0
 38 33  2  0  0  0  0
 39 35  1  0  0  0  0
 40 36  1  0  0  0  0
 41 37  1  0  0  0  0
M  END
>  <minimizedAffinity>
-6.58184481

>  <minimizedRMSD>
0.849437416

$$$$
