
 OpenBabel03272509103D

 39 42  0  0  0  0  0  0  0  0999 V2000
   35.0680   29.6490   33.6430 C   0  0  0  0  0  0  0  0  0  0  0  0
   34.5620   29.8280   34.5990 H   0  0  0  0  0  0  0  0  0  0  0  0
   34.2230   29.4010   32.9290 H   0  0  0  0  0  0  0  0  0  0  0  0
   35.6990   30.8510   33.0470 C   0  0  0  0  0  0  0  0  0  0  0  0
   36.2280   30.8620   31.7580 C   0  0  0  0  0  0  0  0  0  0  0  0
   36.8170   31.9680   31.2070 C   0  0  0  0  0  0  0  0  0  0  0  0
   36.9070   33.1380   31.9300 C   0  0  0  0  0  0  0  0  0  0  0  0
   36.3970   33.1420   33.1810 C   0  0  0  0  0  0  0  0  0  0  0  0
   35.7990   32.0300   33.7490 C   0  0  0  0  0  0  0  0  0  0  0  0
   36.1440   29.9310   31.2140 H   0  0  0  0  0  0  0  0  0  0  0  0
   37.2060   31.9090   30.2070 H   0  0  0  0  0  0  0  0  0  0  0  0
   37.3800   33.9840   31.4520 H   0  0  0  0  0  0  0  0  0  0  0  0
   36.4730   34.0750   33.7480 H   0  0  0  0  0  0  0  0  0  0  0  0
   35.2850   32.1690   35.1060 C   0  0  0  0  0  0  0  0  0  0  0  0
   34.1210   32.8080   35.4970 C   0  0  0  0  0  0  0  0  0  0  0  0
   33.3990   33.3100   34.8550 H   0  0  0  0  0  0  0  0  0  0  0  0
   33.9390   32.7500   36.8620 C   0  0  0  0  0  0  0  0  0  0  0  0
   33.1440   33.1450   37.4710 H   0  0  0  0  0  0  0  0  0  0  0  0
   35.0120   32.0660   37.2970 N   0  0  0  0  0  0  0  0  0  0  0  0
   35.2820   31.7900   38.2680 H   0  0  0  0  0  0  0  0  0  0  0  0
   35.7640   31.7450   36.2870 N   0  0  0  0  0  0  0  0  0  0  0  0
   36.6730   28.0040   34.6020 C   0  0  0  0  0  3  0  0  0  0  0  0
   35.9340   28.4580   33.6200 C   0  0  0  0  0  3  0  0  0  0  0  0
   38.6500   25.3600   33.0530 C   0  0  0  0  0  0  0  0  0  0  0  0
   38.9360   24.5270   34.1530 C   0  0  0  0  0  0  0  0  0  0  0  0
   38.4320   24.9090   35.4090 C   0  0  0  0  0  0  0  0  0  0  0  0
   37.6940   26.0640   35.4900 N   0  0  0  0  0  0  0  0  0  0  0  0
   37.4650   26.8090   34.3860 C   0  0  0  0  0  0  0  0  0  0  0  0
   37.9320   26.4660   33.1880 N   0  0  0  0  0  0  0  0  0  0  0  0
   39.0750   24.9940   32.1240 H   0  0  0  0  0  0  0  0  0  0  0  0
   39.4990   23.6280   34.1410 H   0  0  0  0  0  0  0  0  0  0  0  0
   38.6610   24.1220   36.6300 C   0  0  0  0  0  0  0  0  0  0  0  0
   37.9340   24.3200   37.7770 C   0  0  0  0  0  0  0  0  0  0  0  0
   38.4130   23.4050   38.7320 C   0  0  0  0  0  0  0  0  0  0  0  0
   39.4000   22.7060   38.1140 N   0  0  0  0  0  0  0  0  0  0  0  0
   39.5430   23.1350   36.8660 N   0  0  0  0  0  0  0  0  0  0  0  0
   37.1330   25.0260   37.9740 H   0  0  0  0  0  0  0  0  0  0  0  0
   38.0790   23.2780   39.7340 H   0  0  0  0  0  0  0  0  0  0  0  0
   39.9290   21.9510   38.6110 H   0  0  0  0  0  0  0  0  0  0  0  0
  1  2  1  0  0  0  0
  3  1  1  0  0  0  0
  4  1  1  0  0  0  0
  4  9  1  0  0  0  0
  5  4  2  0  0  0  0
  6  5  1  0  0  0  0
  6  7  2  0  0  0  0
  7  8  1  0  0  0  0
  8 13  1  0  0  0  0
  8  9  2  0  0  0  0
  9 14  1  0  0  0  0
 10  5  1  0  0  0  0
 11  6  1  0  0  0  0
 12  7  1  0  0  0  0
 14 15  1  0  0  0  0
 14 21  2  0  0  0  0
 15 17  2  0  0  0  0
 16 15  1  0  0  0  0
 17 19  1  0  0  0  0
 17 18  1  0  0  0  0
 19 20  1  0  0  0  0
 21 19  1  0  0  0  0
 23  1  1  0  0  0  0
 23 22  2  0  0  0  0
 24 29  2  0  0  0  0
 24 25  1  0  0  0  0
 25 26  2  0  0  0  0
 26 27  1  0  0  0  0
 26 32  1  0  0  0  0
 28 22  1  0  0  0  0
 28 27  2  0  0  0  0
 29 28  1  0  0  0  0
 30 24  1  0  0  0  0
 31 25  1  0  0  0  0
 32 36  2  0  0  0  0
 32 33  1  0  0  0  0
 33 37  1  0  0  0  0
 33 34  2  0  0  0  0
 34 38  1  0  0  0  0
 35 39  1  0  0  0  0
 35 34  1  0  0  0  0
 36 35  1  0  0  0  0
M  END
>  <minimizedAffinity>
-6.38987017

$$$$

 OpenBabel03272509103D

 39 42  0  0  0  0  0  0  0  0999 V2000
   34.9510   29.6460   33.5130 C   0  0  0  0  0  0  0  0  0  0  0  0
   33.9910   29.2260   33.1910 H   0  0  0  0  0  0  0  0  0  0  0  0
   35.2480   30.3320   32.6620 H   0  0  0  0  0  0  0  0  0  0  0  0
   34.8660   30.5480   34.6870 C   0  0  0  0  0  0  0  0  0  0  0  0
   35.9190   31.3720   35.0800 C   0  0  0  0  0  0  0  0  0  0  0  0
   35.8470   32.2000   36.1670 C   0  0  0  0  0  0  0  0  0  0  0  0
   34.6970   32.2480   36.9270 C   0  0  0  0  0  0  0  0  0  0  0  0
   33.6680   31.4550   36.5570 C   0  0  0  0  0  0  0  0  0  0  0  0
   33.7300   30.6130   35.4600 C   0  0  0  0  0  0  0  0  0  0  0  0
   36.8080   31.3140   34.4660 H   0  0  0  0  0  0  0  0  0  0  0  0
   36.6960   32.8110   36.4160 H   0  0  0  0  0  0  0  0  0  0  0  0
   34.6890   32.9180   37.7750 H   0  0  0  0  0  0  0  0  0  0  0  0
   32.7610   31.4990   37.1660 H   0  0  0  0  0  0  0  0  0  0  0  0
   32.5480   29.8120   35.1660 C   0  0  0  0  0  0  0  0  0  0  0  0
   32.1200   28.6780   35.8350 C   0  0  0  0  0  0  0  0  0  0  0  0
   32.5960   28.2000   36.6910 H   0  0  0  0  0  0  0  0  0  0  0  0
   30.9590   28.1700   35.2910 C   0  0  0  0  0  0  0  0  0  0  0  0
   30.3800   27.3090   35.5780 H   0  0  0  0  0  0  0  0  0  0  0  0
   30.6880   29.0120   34.2790 N   0  0  0  0  0  0  0  0  0  0  0  0
   29.8970   29.0060   33.5960 H   0  0  0  0  0  0  0  0  0  0  0  0
   31.6000   29.9370   34.2240 N   0  0  0  0  0  0  0  0  0  0  0  0
   36.3810   27.9500   34.6470 C   0  0  0  0  0  3  0  0  0  0  0  0
   36.0500   28.6680   33.6020 C   0  0  0  0  0  3  0  0  0  0  0  0
   39.3560   26.1980   33.4740 C   0  0  0  0  0  0  0  0  0  0  0  0
   39.5540   25.2450   34.4930 C   0  0  0  0  0  0  0  0  0  0  0  0
   38.6440   25.2380   35.5650 C   0  0  0  0  0  0  0  0  0  0  0  0
   37.6210   26.1540   35.5560 N   0  0  0  0  0  0  0  0  0  0  0  0
   37.5010   27.0360   34.5400 C   0  0  0  0  0  0  0  0  0  0  0  0
   38.3500   27.0610   33.5160 N   0  0  0  0  0  0  0  0  0  0  0  0
   40.1000   26.1360   32.6870 H   0  0  0  0  0  0  0  0  0  0  0  0
   40.3260   24.5190   34.5440 H   0  0  0  0  0  0  0  0  0  0  0  0
   38.7440   24.2920   36.6860 C   0  0  0  0  0  0  0  0  0  0  0  0
   37.9110   24.3540   37.7760 C   0  0  0  0  0  0  0  0  0  0  0  0
   38.2850   23.3100   38.6410 C   0  0  0  0  0  0  0  0  0  0  0  0
   39.3190   22.6740   38.0310 N   0  0  0  0  0  0  0  0  0  0  0  0
   39.5870   23.2610   36.8710 N   0  0  0  0  0  0  0  0  0  0  0  0
   37.1040   25.0480   37.9890 H   0  0  0  0  0  0  0  0  0  0  0  0
   37.8540   23.0590   39.5810 H   0  0  0  0  0  0  0  0  0  0  0  0
   39.7880   21.8470   38.4710 H   0  0  0  0  0  0  0  0  0  0  0  0
  1 23  1  0  0  0  0
  1  4  1  0  0  0  0
  2  1  1  0  0  0  0
  3  1  1  0  0  0  0
  4  5  2  0  0  0  0
  4  9  1  0  0  0  0
  5  6  1  0  0  0  0
  6 11  1  0  0  0  0
  6  7  2  0  0  0  0
  7 12  1  0  0  0  0
  8  7  1  0  0  0  0
  8 13  1  0  0  0  0
  9  8  2  0  0  0  0
 10  5  1  0  0  0  0
 14  9  1  0  0  0  0
 14 15  1  0  0  0  0
 15 16  1  0  0  0  0
 17 18  1  0  0  0  0
 17 15  2  0  0  0  0
 19 17  1  0  0  0  0
 20 19  1  0  0  0  0
 21 19  1  0  0  0  0
 21 14  2  0  0  0  0
 23 22  2  0  0  0  0
 24 29  2  0  0  0  0
 24 25  1  0  0  0  0
 25 31  1  0  0  0  0
 25 26  2  0  0  0  0
 26 32  1  0  0  0  0
 27 26  1  0  0  0  0
 28 22  1  0  0  0  0
 28 27  2  0  0  0  0
 29 28  1  0  0  0  0
 30 24  1  0  0  0  0
 32 36  2  0  0  0  0
 32 33  1  0  0  0  0
 33 37  1  0  0  0  0
 33 34  2  0  0  0  0
 34 38  1  0  0  0  0
 35 39  1  0  0  0  0
 35 34  1  0  0  0  0
 36 35  1  0  0  0  0
M  END
>  <minimizedAffinity>
-6.38431072

$$$$

 OpenBabel03272509103D

 39 42  0  0  0  0  0  0  0  0999 V2000
   35.1120   29.6170   33.4120 C   0  0  0  0  0  0  0  0  0  0  0  0
   34.0980   29.3110   33.6940 H   0  0  0  0  0  0  0  0  0  0  0  0
   35.0230   29.8750   32.3120 H   0  0  0  0  0  0  0  0  0  0  0  0
   35.5710   30.8800   34.0400 C   0  0  0  0  0  0  0  0  0  0  0  0
   35.6450   31.0490   35.4210 C   0  0  0  0  0  0  0  0  0  0  0  0
   36.0610   32.2150   36.0050 C   0  0  0  0  0  0  0  0  0  0  0  0
   36.4310   33.2880   35.2210 C   0  0  0  0  0  0  0  0  0  0  0  0
   36.3640   33.1380   33.8810 C   0  0  0  0  0  0  0  0  0  0  0  0
   35.9450   31.9640   33.2800 C   0  0  0  0  0  0  0  0  0  0  0  0
   35.3490   30.1910   36.0100 H   0  0  0  0  0  0  0  0  0  0  0  0
   36.0960   32.2800   37.0770 H   0  0  0  0  0  0  0  0  0  0  0  0
   36.7520   34.1860   35.7280 H   0  0  0  0  0  0  0  0  0  0  0  0
   36.6580   33.9940   33.2680 H   0  0  0  0  0  0  0  0  0  0  0  0
   35.9230   31.9310   31.8220 C   0  0  0  0  0  0  0  0  0  0  0  0
   36.9720   31.6100   30.9790 C   0  0  0  0  0  0  0  0  0  0  0  0
   37.9840   31.3290   31.2660 H   0  0  0  0  0  0  0  0  0  0  0  0
   36.6020   31.6800   29.6520 C   0  0  0  0  0  0  0  0  0  0  0  0
   37.1790   31.4920   28.7630 H   0  0  0  0  0  0  0  0  0  0  0  0
   35.3100   32.0500   29.7020 N   0  0  0  0  0  0  0  0  0  0  0  0
   34.6320   32.2220   28.9260 H   0  0  0  0  0  0  0  0  0  0  0  0
   34.9420   32.1870   30.9410 N   0  0  0  0  0  0  0  0  0  0  0  0
   36.4790   27.8500   34.5140 C   0  0  0  0  0  3  0  0  0  0  0  0
   36.1150   28.5390   33.4610 C   0  0  0  0  0  3  0  0  0  0  0  0
   39.1080   25.7130   33.1650 C   0  0  0  0  0  0  0  0  0  0  0  0
   39.3520   24.8370   34.2410 C   0  0  0  0  0  0  0  0  0  0  0  0
   38.5930   25.0140   35.4120 C   0  0  0  0  0  0  0  0  0  0  0  0
   37.6630   26.0240   35.4380 N   0  0  0  0  0  0  0  0  0  0  0  0
   37.4900   26.8220   34.3620 C   0  0  0  0  0  0  0  0  0  0  0  0
   38.1960   26.6730   33.2450 N   0  0  0  0  0  0  0  0  0  0  0  0
   39.7340   25.5090   32.3030 H   0  0  0  0  0  0  0  0  0  0  0  0
   40.0570   24.0450   34.2690 H   0  0  0  0  0  0  0  0  0  0  0  0
   38.7560   24.1630   36.6000 C   0  0  0  0  0  0  0  0  0  0  0  0
   38.0050   24.3390   37.7370 C   0  0  0  0  0  0  0  0  0  0  0  0
   38.4190   23.3610   38.6590 C   0  0  0  0  0  0  0  0  0  0  0  0
   39.3930   22.6500   38.0350 N   0  0  0  0  0  0  0  0  0  0  0  0
   39.5890   23.1300   36.8130 N   0  0  0  0  0  0  0  0  0  0  0  0
   37.2290   25.0680   37.9450 H   0  0  0  0  0  0  0  0  0  0  0  0
   38.0520   23.2020   39.6450 H   0  0  0  0  0  0  0  0  0  0  0  0
   39.8770   21.8510   38.5100 H   0  0  0  0  0  0  0  0  0  0  0  0
  1 23  1  0  0  0  0
  1  2  1  0  0  0  0
  1  4  1  0  0  0  0
  3  1  1  0  0  0  0
  4  5  1  0  0  0  0
  5  6  2  0  0  0  0
  5 10  1  0  0  0  0
  6 11  1  0  0  0  0
  7 12  1  0  0  0  0
  7  6  1  0  0  0  0
  8  7  2  0  0  0  0
  9  8  1  0  0  0  0
  9  4  2  0  0  0  0
 13  8  1  0  0  0  0
 14  9  1  0  0  0  0
 15 16  1  0  0  0  0
 15 14  1  0  0  0  0
 17 19  1  0  0  0  0
 17 15  2  0  0  0  0
 18 17  1  0  0  0  0
 19 21  1  0  0  0  0
 20 19  1  0  0  0  0
 21 14  2  0  0  0  0
 23 22  2  0  0  0  0
 24 29  2  0  0  0  0
 24 25  1  0  0  0  0
 25 31  1  0  0  0  0
 25 26  2  0  0  0  0
 26 27  1  0  0  0  0
 26 32  1  0  0  0  0
 28 22  1  0  0  0  0
 28 27  2  0  0  0  0
 29 28  1  0  0  0  0
 30 24  1  0  0  0  0
 32 36  2  0  0  0  0
 32 33  1  0  0  0  0
 33 37  1  0  0  0  0
 33 34  2  0  0  0  0
 34 38  1  0  0  0  0
 35 39  1  0  0  0  0
 35 34  1  0  0  0  0
 36 35  1  0  0  0  0
M  END
>  <minimizedAffinity>
-6.14619207

$$$$

 OpenBabel03272509103D

 39 42  0  0  0  0  0  0  0  0999 V2000
   36.0930   28.5010   34.6870 C   0  0  0  0  0  0  0  0  0  0  0  0
   35.9770   28.9300   35.6890 H   0  0  0  0  0  0  0  0  0  0  0  0
   35.2220   27.7820   34.5960 H   0  0  0  0  0  0  0  0  0  0  0  0
   35.8820   29.4620   33.5780 C   0  0  0  0  0  0  0  0  0  0  0  0
   36.1750   29.1560   32.2510 C   0  0  0  0  0  0  0  0  0  0  0  0
   35.9890   30.0430   31.2250 C   0  0  0  0  0  0  0  0  0  0  0  0
   35.4900   31.3020   31.4810 C   0  0  0  0  0  0  0  0  0  0  0  0
   35.2000   31.6130   32.7640 C   0  0  0  0  0  0  0  0  0  0  0  0
   35.3850   30.7250   33.8090 C   0  0  0  0  0  0  0  0  0  0  0  0
   36.5650   28.1610   32.0800 H   0  0  0  0  0  0  0  0  0  0  0  0
   36.2350   29.7430   30.2230 H   0  0  0  0  0  0  0  0  0  0  0  0
   35.3600   31.9660   30.6390 H   0  0  0  0  0  0  0  0  0  0  0  0
   34.8060   32.6150   32.9570 H   0  0  0  0  0  0  0  0  0  0  0  0
   35.0290   31.1830   35.1460 C   0  0  0  0  0  0  0  0  0  0  0  0
   33.7660   31.2070   35.7110 C   0  0  0  0  0  0  0  0  0  0  0  0
   32.8330   30.8870   35.2500 H   0  0  0  0  0  0  0  0  0  0  0  0
   33.7900   31.7050   36.9970 C   0  0  0  0  0  0  0  0  0  0  0  0
   32.9850   31.8510   37.6970 H   0  0  0  0  0  0  0  0  0  0  0  0
   35.0880   31.9850   37.2050 N   0  0  0  0  0  0  0  0  0  0  0  0
   35.5620   32.3810   38.0480 H   0  0  0  0  0  0  0  0  0  0  0  0
   35.7760   31.6820   36.1440 N   0  0  0  0  0  0  0  0  0  0  0  0
   37.3190   26.3560   34.3740 C   0  0  0  0  0  3  0  0  0  0  0  0
   37.2890   27.6580   34.5140 C   0  0  0  0  0  3  0  0  0  0  0  0
   40.5820   25.3290   33.1080 C   0  0  0  0  0  0  0  0  0  0  0  0
   40.9780   24.3750   34.0650 C   0  0  0  0  0  0  0  0  0  0  0  0
   40.0970   24.1130   35.1300 C   0  0  0  0  0  0  0  0  0  0  0  0
   38.9080   24.7980   35.1740 N   0  0  0  0  0  0  0  0  0  0  0  0
   38.6020   25.6990   34.2150 C   0  0  0  0  0  0  0  0  0  0  0  0
   39.4200   25.9630   33.2000 N   0  0  0  0  0  0  0  0  0  0  0  0
   41.3160   25.4710   32.3230 H   0  0  0  0  0  0  0  0  0  0  0  0
   41.8830   23.8210   34.0750 H   0  0  0  0  0  0  0  0  0  0  0  0
   40.3980   23.1380   36.1890 C   0  0  0  0  0  0  0  0  0  0  0  0
   41.5510   22.3920   36.1930 C   0  0  0  0  0  0  0  0  0  0  0  0
   41.5100   21.5750   37.3380 C   0  0  0  0  0  0  0  0  0  0  0  0
   40.3400   21.8690   37.9620 N   0  0  0  0  0  0  0  0  0  0  0  0
   39.6840   22.7970   37.2760 N   0  0  0  0  0  0  0  0  0  0  0  0
   42.3730   22.3870   35.4830 H   0  0  0  0  0  0  0  0  0  0  0  0
   42.2390   20.8700   37.6590 H   0  0  0  0  0  0  0  0  0  0  0  0
   40.0600   21.3930   38.8520 H   0  0  0  0  0  0  0  0  0  0  0  0
  1  2  1  0  0  0  0
  3  1  1  0  0  0  0
  4  9  1  0  0  0  0
  4  1  1  0  0  0  0
  5  4  2  0  0  0  0
  6  7  2  0  0  0  0
  6  5  1  0  0  0  0
  7  8  1  0  0  0  0
  8 13  1  0  0  0  0
  8  9  2  0  0  0  0
  9 14  1  0  0  0  0
 10  5  1  0  0  0  0
 11  6  1  0  0  0  0
 12  7  1  0  0  0  0
 14 15  1  0  0  0  0
 14 21  2  0  0  0  0
 15 17  2  0  0  0  0
 16 15  1  0  0  0  0
 17 19  1  0  0  0  0
 17 18  1  0  0  0  0
 19 20  1  0  0  0  0
 21 19  1  0  0  0  0
 22 23  2  0  0  0  0
 23  1  1  0  0  0  0
 24 29  2  0  0  0  0
 24 25  1  0  0  0  0
 25 31  1  0  0  0  0
 25 26  2  0  0  0  0
 26 27  1  0  0  0  0
 26 32  1  0  0  0  0
 28 22  1  0  0  0  0
 28 27  2  0  0  0  0
 29 28  1  0  0  0  0
 30 24  1  0  0  0  0
 32 33  1  0  0  0  0
 32 36  2  0  0  0  0
 33 34  2  0  0  0  0
 34 38  1  0  0  0  0
 34 35  1  0  0  0  0
 35 39  1  0  0  0  0
 36 35  1  0  0  0  0
 37 33  1  0  0  0  0
M  END
>  <minimizedAffinity>
-6.10820675

$$$$

 OpenBabel03272509103D

 39 42  0  0  0  0  0  0  0  0999 V2000
   39.2110   25.3520   34.6250 C   0  0  0  0  0  0  0  0  0  0  0  0
   39.4590   25.3520   35.6930 H   0  0  0  0  0  0  0  0  0  0  0  0
   40.2190   25.4120   34.1110 H   0  0  0  0  0  0  0  0  0  0  0  0
   38.6310   24.0810   34.1290 C   0  0  0  0  0  0  0  0  0  0  0  0
   38.3890   23.8420   32.7780 C   0  0  0  0  0  0  0  0  0  0  0  0
   37.8470   22.6730   32.3160 C   0  0  0  0  0  0  0  0  0  0  0  0
   37.5170   21.6660   33.1980 C   0  0  0  0  0  0  0  0  0  0  0  0
   37.7480   21.8830   34.5110 C   0  0  0  0  0  0  0  0  0  0  0  0
   38.2950   23.0620   34.9900 C   0  0  0  0  0  0  0  0  0  0  0  0
   38.6570   24.6490   32.1090 H   0  0  0  0  0  0  0  0  0  0  0  0
   37.6850   22.5530   31.2600 H   0  0  0  0  0  0  0  0  0  0  0  0
   37.0930   20.7620   32.7860 H   0  0  0  0  0  0  0  0  0  0  0  0
   37.4830   21.0800   35.2040 H   0  0  0  0  0  0  0  0  0  0  0  0
   38.4960   23.1670   36.4300 C   0  0  0  0  0  0  0  0  0  0  0  0
   37.6850   23.8210   37.3410 C   0  0  0  0  0  0  0  0  0  0  0  0
   36.7640   24.3630   37.1310 H   0  0  0  0  0  0  0  0  0  0  0  0
   38.1750   23.7230   38.6260 C   0  0  0  0  0  0  0  0  0  0  0  0
   37.7820   24.1170   39.5480 H   0  0  0  0  0  0  0  0  0  0  0  0
   39.2980   22.9990   38.4830 N   0  0  0  0  0  0  0  0  0  0  0  0
   39.9890   22.6830   39.2010 H   0  0  0  0  0  0  0  0  0  0  0  0
   39.4640   22.6920   37.2300 N   0  0  0  0  0  0  0  0  0  0  0  0
   37.1900   26.7400   34.1870 C   0  0  0  0  0  3  0  0  0  0  0  0
   38.4860   26.5490   34.1630 C   0  0  0  0  0  3  0  0  0  0  0  0
   36.1940   29.4780   31.9930 C   0  0  0  0  0  0  0  0  0  0  0  0
   35.6210   30.3870   32.9040 C   0  0  0  0  0  0  0  0  0  0  0  0
   35.5960   30.0220   34.2620 C   0  0  0  0  0  0  0  0  0  0  0  0
   36.1290   28.8090   34.6200 N   0  0  0  0  0  0  0  0  0  0  0  0
   36.6600   27.9920   33.6840 C   0  0  0  0  0  0  0  0  0  0  0  0
   36.6940   28.3170   32.3940 N   0  0  0  0  0  0  0  0  0  0  0  0
   36.1720   29.8350   30.9690 H   0  0  0  0  0  0  0  0  0  0  0  0
   35.1980   31.3340   32.6780 H   0  0  0  0  0  0  0  0  0  0  0  0
   35.0270   30.8870   35.3070 C   0  0  0  0  0  0  0  0  0  0  0  0
   35.7960   31.7630   36.0330 C   0  0  0  0  0  0  0  0  0  0  0  0
   34.9350   32.4200   36.9310 C   0  0  0  0  0  0  0  0  0  0  0  0
   33.6980   31.9100   36.7010 N   0  0  0  0  0  0  0  0  0  0  0  0
   33.7580   31.0000   35.7360 N   0  0  0  0  0  0  0  0  0  0  0  0
   36.8620   31.9580   35.9750 H   0  0  0  0  0  0  0  0  0  0  0  0
   35.1890   33.1650   37.6470 H   0  0  0  0  0  0  0  0  0  0  0  0
   32.8630   32.2330   37.2440 H   0  0  0  0  0  0  0  0  0  0  0  0
  1  2  1  0  0  0  0
  3  1  1  0  0  0  0
  4  1  1  0  0  0  0
  4  9  1  0  0  0  0
  5  4  2  0  0  0  0
  6  5  1  0  0  0  0
  6  7  2  0  0  0  0
  7  8  1  0  0  0  0
  8  9  2  0  0  0  0
  8 13  1  0  0  0  0
  9 14  1  0  0  0  0
 10  5  1  0  0  0  0
 11  6  1  0  0  0  0
 12  7  1  0  0  0  0
 14 21  2  0  0  0  0
 14 15  1  0  0  0  0
 15 17  2  0  0  0  0
 16 15  1  0  0  0  0
 17 18  1  0  0  0  0
 19 17  1  0  0  0  0
 19 20  1  0  0  0  0
 21 19  1  0  0  0  0
 23 22  2  0  0  0  0
 23  1  1  0  0  0  0
 24 29  2  0  0  0  0
 24 25  1  0  0  0  0
 25 26  2  0  0  0  0
 26 27  1  0  0  0  0
 26 32  1  0  0  0  0
 28 22  1  0  0  0  0
 28 27  2  0  0  0  0
 29 28  1  0  0  0  0
 30 24  1  0  0  0  0
 31 25  1  0  0  0  0
 32 36  2  0  0  0  0
 32 33  1  0  0  0  0
 33 34  2  0  0  0  0
 34 38  1  0  0  0  0
 35 34  1  0  0  0  0
 35 39  1  0  0  0  0
 36 35  1  0  0  0  0
 37 33  1  0  0  0  0
M  END
>  <minimizedAffinity>
-6.10625362

$$$$

 OpenBabel03272509103D

 39 42  0  0  0  0  0  0  0  0999 V2000
   35.5840   29.8350   34.6250 C   0  0  0  0  0  0  0  0  0  0  0  0
   36.3550   30.5790   34.8620 H   0  0  0  0  0  0  0  0  0  0  0  0
   34.9800   29.7540   35.5800 H   0  0  0  0  0  0  0  0  0  0  0  0
   34.5950   30.2770   33.6120 C   0  0  0  0  0  0  0  0  0  0  0  0
   34.9400   30.5400   32.2880 C   0  0  0  0  0  0  0  0  0  0  0  0
   34.0320   30.9550   31.3520 C   0  0  0  0  0  0  0  0  0  0  0  0
   32.7090   31.1290   31.7000 C   0  0  0  0  0  0  0  0  0  0  0  0
   32.3600   30.8770   32.9800 C   0  0  0  0  0  0  0  0  0  0  0  0
   33.2700   30.4570   33.9350 C   0  0  0  0  0  0  0  0  0  0  0  0
   35.9850   30.3960   32.0440 H   0  0  0  0  0  0  0  0  0  0  0  0
   34.3650   31.1410   30.3470 H   0  0  0  0  0  0  0  0  0  0  0  0
   32.0300   31.4570   30.9260 H   0  0  0  0  0  0  0  0  0  0  0  0
   31.3090   31.0180   33.2470 H   0  0  0  0  0  0  0  0  0  0  0  0
   32.7620   30.2160   35.2800 C   0  0  0  0  0  0  0  0  0  0  0  0
   32.1490   29.0660   35.7470 C   0  0  0  0  0  0  0  0  0  0  0  0
   31.9470   28.1540   35.1860 H   0  0  0  0  0  0  0  0  0  0  0  0
   31.7920   29.1790   37.0740 C   0  0  0  0  0  0  0  0  0  0  0  0
   31.3040   28.4700   37.7210 H   0  0  0  0  0  0  0  0  0  0  0  0
   32.1960   30.4170   37.4080 N   0  0  0  0  0  0  0  0  0  0  0  0
   32.1260   30.9220   38.3190 H   0  0  0  0  0  0  0  0  0  0  0  0
   32.7450   30.9900   36.3770 N   0  0  0  0  0  0  0  0  0  0  0  0
   37.0970   27.8940   35.0050 C   0  0  0  0  0  3  0  0  0  0  0  0
   36.0950   28.4730   34.3910 C   0  0  0  0  0  3  0  0  0  0  0  0
   37.6040   24.8070   33.1290 C   0  0  0  0  0  0  0  0  0  0  0  0
   38.1800   23.9670   34.1020 C   0  0  0  0  0  0  0  0  0  0  0  0
   38.3780   24.4980   35.3890 C   0  0  0  0  0  0  0  0  0  0  0  0
   37.9990   25.7970   35.6220 N   0  0  0  0  0  0  0  0  0  0  0  0
   37.4540   26.5380   34.6340 C   0  0  0  0  0  0  0  0  0  0  0  0
   37.2580   26.0570   33.4090 N   0  0  0  0  0  0  0  0  0  0  0  0
   37.4870   24.3220   32.1660 H   0  0  0  0  0  0  0  0  0  0  0  0
   38.4880   22.9600   33.9710 H   0  0  0  0  0  0  0  0  0  0  0  0
   38.9670   23.7180   36.4880 C   0  0  0  0  0  0  0  0  0  0  0  0
   40.1940   23.1100   36.3800 C   0  0  0  0  0  0  0  0  0  0  0  0
   40.4410   22.4610   37.6040 C   0  0  0  0  0  0  0  0  0  0  0  0
   39.3570   22.7110   38.3830 N   0  0  0  0  0  0  0  0  0  0  0  0
   38.4850   23.4580   37.7160 N   0  0  0  0  0  0  0  0  0  0  0  0
   40.8850   23.0950   35.5440 H   0  0  0  0  0  0  0  0  0  0  0  0
   41.2970   21.8910   37.8750 H   0  0  0  0  0  0  0  0  0  0  0  0
   39.2860   22.3360   39.3580 H   0  0  0  0  0  0  0  0  0  0  0  0
  1  2  1  0  0  0  0
  1  3  1  0  0  0  0
  4  9  1  0  0  0  0
  4  1  1  0  0  0  0
  5  4  2  0  0  0  0
  6  7  2  0  0  0  0
  6  5  1  0  0  0  0
  7  8  1  0  0  0  0
  8 13  1  0  0  0  0
  8  9  2  0  0  0  0
  9 14  1  0  0  0  0
 10  5  1  0  0  0  0
 11  6  1  0  0  0  0
 12  7  1  0  0  0  0
 14 15  1  0  0  0  0
 14 21  2  0  0  0  0
 15 17  2  0  0  0  0
 16 15  1  0  0  0  0
 17 19  1  0  0  0  0
 17 18  1  0  0  0  0
 19 20  1  0  0  0  0
 21 19  1  0  0  0  0
 23  1  1  0  0  0  0
 23 22  2  0  0  0  0
 24 29  2  0  0  0  0
 24 25  1  0  0  0  0
 25 26  2  0  0  0  0
 26 27  1  0  0  0  0
 26 32  1  0  0  0  0
 28 22  1  0  0  0  0
 28 27  2  0  0  0  0
 29 28  1  0  0  0  0
 30 24  1  0  0  0  0
 31 25  1  0  0  0  0
 32 36  2  0  0  0  0
 33 32  1  0  0  0  0
 33 34  2  0  0  0  0
 34 38  1  0  0  0  0
 34 35  1  0  0  0  0
 35 39  1  0  0  0  0
 36 35  1  0  0  0  0
 37 33  1  0  0  0  0
M  END
>  <minimizedAffinity>
-6.07343197

$$$$

 OpenBabel03272509103D

 39 42  0  0  0  0  0  0  0  0999 V2000
   35.8740   29.4840   34.5470 C   0  0  0  0  0  0  0  0  0  0  0  0
   36.5980   30.1990   34.1390 H   0  0  0  0  0  0  0  0  0  0  0  0
   35.8570   29.7150   35.6560 H   0  0  0  0  0  0  0  0  0  0  0  0
   34.4740   29.7110   34.1120 C   0  0  0  0  0  0  0  0  0  0  0  0
   33.8490   28.9230   33.1490 C   0  0  0  0  0  0  0  0  0  0  0  0
   32.5600   29.1340   32.7400 C   0  0  0  0  0  0  0  0  0  0  0  0
   31.8190   30.1610   33.2860 C   0  0  0  0  0  0  0  0  0  0  0  0
   32.4130   30.9320   34.2220 C   0  0  0  0  0  0  0  0  0  0  0  0
   33.7150   30.7290   34.6430 C   0  0  0  0  0  0  0  0  0  0  0  0
   34.4540   28.1260   32.7370 H   0  0  0  0  0  0  0  0  0  0  0  0
   32.1370   28.4890   31.9910 H   0  0  0  0  0  0  0  0  0  0  0  0
   30.8060   30.2870   32.9310 H   0  0  0  0  0  0  0  0  0  0  0  0
   31.8180   31.7440   34.6500 H   0  0  0  0  0  0  0  0  0  0  0  0
   34.2350   31.6300   35.6640 C   0  0  0  0  0  0  0  0  0  0  0  0
   34.9460   32.8000   35.4610 C   0  0  0  0  0  0  0  0  0  0  0  0
   35.2320   33.2390   34.5060 H   0  0  0  0  0  0  0  0  0  0  0  0
   35.2850   33.4070   36.6520 C   0  0  0  0  0  0  0  0  0  0  0  0
   35.8300   34.3170   36.8340 H   0  0  0  0  0  0  0  0  0  0  0  0
   34.7700   32.5860   37.5840 N   0  0  0  0  0  0  0  0  0  0  0  0
   34.7900   32.6590   38.6260 H   0  0  0  0  0  0  0  0  0  0  0  0
   34.1780   31.5840   37.0050 N   0  0  0  0  0  0  0  0  0  0  0  0
   37.3240   27.5940   33.8190 C   0  0  0  0  0  3  0  0  0  0  0  0
   36.2920   28.0730   34.4690 C   0  0  0  0  0  3  0  0  0  0  0  0
   37.7070   24.0900   32.8840 C   0  0  0  0  0  0  0  0  0  0  0  0
   38.0750   23.5000   34.1090 C   0  0  0  0  0  0  0  0  0  0  0  0
   38.1820   24.3400   35.2320 C   0  0  0  0  0  0  0  0  0  0  0  0
   37.9210   25.6780   35.0710 N   0  0  0  0  0  0  0  0  0  0  0  0
   37.5730   26.1660   33.8600 C   0  0  0  0  0  0  0  0  0  0  0  0
   37.4660   25.3900   32.7840 N   0  0  0  0  0  0  0  0  0  0  0  0
   37.6480   23.3740   32.0710 H   0  0  0  0  0  0  0  0  0  0  0  0
   38.2860   22.4750   34.2840 H   0  0  0  0  0  0  0  0  0  0  0  0
   38.5560   23.8420   36.5640 C   0  0  0  0  0  0  0  0  0  0  0  0
   37.9460   24.2850   37.7120 C   0  0  0  0  0  0  0  0  0  0  0  0
   38.5450   23.6050   38.7870 C   0  0  0  0  0  0  0  0  0  0  0  0
   39.4820   22.7900   38.2350 N   0  0  0  0  0  0  0  0  0  0  0  0
   39.4840   22.9350   36.9160 N   0  0  0  0  0  0  0  0  0  0  0  0
   37.1510   25.0140   37.8330 H   0  0  0  0  0  0  0  0  0  0  0  0
   38.3190   23.7000   39.8220 H   0  0  0  0  0  0  0  0  0  0  0  0
   40.0800   22.1660   38.8270 H   0  0  0  0  0  0  0  0  0  0  0  0
  1  3  1  0  0  0  0
  2  1  1  0  0  0  0
  4  1  1  0  0  0  0
  4  9  1  0  0  0  0
  5  4  2  0  0  0  0
  6  5  1  0  0  0  0
  6  7  2  0  0  0  0
  7  8  1  0  0  0  0
  8  9  2  0  0  0  0
  8 13  1  0  0  0  0
  9 14  1  0  0  0  0
 10  5  1  0  0  0  0
 11  6  1  0  0  0  0
 12  7  1  0  0  0  0
 14 21  2  0  0  0  0
 15 14  1  0  0  0  0
 15 17  2  0  0  0  0
 16 15  1  0  0  0  0
 17 18  1  0  0  0  0
 17 19  1  0  0  0  0
 19 20  1  0  0  0  0
 21 19  1  0  0  0  0
 22 28  1  0  0  0  0
 22 23  2  0  0  0  0
 23  1  1  0  0  0  0
 24 25  1  0  0  0  0
 25 31  1  0  0  0  0
 25 26  2  0  0  0  0
 26 32  1  0  0  0  0
 27 26  1  0  0  0  0
 28 27  2  0  0  0  0
 29 24  2  0  0  0  0
 29 28  1  0  0  0  0
 30 24  1  0  0  0  0
 32 36  2  0  0  0  0
 32 33  1  0  0  0  0
 33 37  1  0  0  0  0
 33 34  2  0  0  0  0
 34 38  1  0  0  0  0
 35 34  1  0  0  0  0
 35 39  1  0  0  0  0
 36 35  1  0  0  0  0
M  END
>  <minimizedAffinity>
-6.01824045

$$$$

 OpenBabel03272509103D

 39 42  0  0  0  0  0  0  0  0999 V2000
   35.9220   29.3690   34.4920 C   0  0  0  0  0  0  0  0  0  0  0  0
   36.6650   30.0760   34.1050 H   0  0  0  0  0  0  0  0  0  0  0  0
   35.8780   29.5980   35.6010 H   0  0  0  0  0  0  0  0  0  0  0  0
   34.5370   29.6150   34.0210 C   0  0  0  0  0  0  0  0  0  0  0  0
   33.4260   29.4820   34.8510 C   0  0  0  0  0  0  0  0  0  0  0  0
   32.1460   29.7010   34.4190 C   0  0  0  0  0  0  0  0  0  0  0  0
   31.9100   30.0720   33.1120 C   0  0  0  0  0  0  0  0  0  0  0  0
   32.9790   30.2050   32.2960 C   0  0  0  0  0  0  0  0  0  0  0  0
   34.2770   29.9860   32.7220 C   0  0  0  0  0  0  0  0  0  0  0  0
   33.6400   29.1900   35.8700 H   0  0  0  0  0  0  0  0  0  0  0  0
   31.3320   29.5820   35.1110 H   0  0  0  0  0  0  0  0  0  0  0  0
   30.8830   30.2340   32.8180 H   0  0  0  0  0  0  0  0  0  0  0  0
   32.7820   30.4990   31.2610 H   0  0  0  0  0  0  0  0  0  0  0  0
   35.3410   30.1680   31.7420 C   0  0  0  0  0  0  0  0  0  0  0  0
   36.0060   31.3440   31.4410 C   0  0  0  0  0  0  0  0  0  0  0  0
   35.8440   32.3240   31.8870 H   0  0  0  0  0  0  0  0  0  0  0  0
   36.9580   31.1570   30.4610 C   0  0  0  0  0  0  0  0  0  0  0  0
   37.6340   31.8640   30.0110 H   0  0  0  0  0  0  0  0  0  0  0  0
   36.8610   29.8490   30.1690 N   0  0  0  0  0  0  0  0  0  0  0  0
   37.3970   29.2740   29.4810 H   0  0  0  0  0  0  0  0  0  0  0  0
   35.9390   29.3040   30.9060 N   0  0  0  0  0  0  0  0  0  0  0  0
   37.3400   27.4570   33.7600 C   0  0  0  0  0  3  0  0  0  0  0  0
   36.3240   27.9530   34.4210 C   0  0  0  0  0  3  0  0  0  0  0  0
   37.6710   23.9400   32.8540 C   0  0  0  0  0  0  0  0  0  0  0  0
   38.0540   23.3590   34.0790 C   0  0  0  0  0  0  0  0  0  0  0  0
   38.1870   24.2080   35.1910 C   0  0  0  0  0  0  0  0  0  0  0  0
   37.9380   25.5480   35.0210 N   0  0  0  0  0  0  0  0  0  0  0  0
   37.5750   26.0270   33.8110 C   0  0  0  0  0  0  0  0  0  0  0  0
   37.4430   25.2420   32.7450 N   0  0  0  0  0  0  0  0  0  0  0  0
   37.5920   23.2170   32.0490 H   0  0  0  0  0  0  0  0  0  0  0  0
   38.2570   22.3330   34.2610 H   0  0  0  0  0  0  0  0  0  0  0  0
   38.5790   23.7200   36.5220 C   0  0  0  0  0  0  0  0  0  0  0  0
   38.0150   24.2040   37.6770 C   0  0  0  0  0  0  0  0  0  0  0  0
   38.6180   23.5200   38.7480 C   0  0  0  0  0  0  0  0  0  0  0  0
   39.5090   22.6630   38.1870 N   0  0  0  0  0  0  0  0  0  0  0  0
   39.4820   22.7850   36.8660 N   0  0  0  0  0  0  0  0  0  0  0  0
   37.2500   24.9640   37.8060 H   0  0  0  0  0  0  0  0  0  0  0  0
   38.4230   23.6410   39.7870 H   0  0  0  0  0  0  0  0  0  0  0  0
   40.1000   22.0270   38.7740 H   0  0  0  0  0  0  0  0  0  0  0  0
  1  3  1  0  0  0  0
  2  1  1  0  0  0  0
  4  1  1  0  0  0  0
  4  5  1  0  0  0  0
  5 10  1  0  0  0  0
  6  5  2  0  0  0  0
  6 11  1  0  0  0  0
  7  6  1  0  0  0  0
  8  9  1  0  0  0  0
  8  7  2  0  0  0  0
  9  4  2  0  0  0  0
 12  7  1  0  0  0  0
 13  8  1  0  0  0  0
 14  9  1  0  0  0  0
 15 14  1  0  0  0  0
 15 16  1  0  0  0  0
 17 15  2  0  0  0  0
 18 17  1  0  0  0  0
 19 17  1  0  0  0  0
 19 21  1  0  0  0  0
 20 19  1  0  0  0  0
 21 14  2  0  0  0  0
 22 28  1  0  0  0  0
 22 23  2  0  0  0  0
 23  1  1  0  0  0  0
 24 25  1  0  0  0  0
 25 31  1  0  0  0  0
 25 26  2  0  0  0  0
 26 32  1  0  0  0  0
 27 26  1  0  0  0  0
 28 27  2  0  0  0  0
 29 24  2  0  0  0  0
 29 28  1  0  0  0  0
 30 24  1  0  0  0  0
 32 36  2  0  0  0  0
 32 33  1  0  0  0  0
 33 37  1  0  0  0  0
 33 34  2  0  0  0  0
 34 38  1  0  0  0  0
 35 34  1  0  0  0  0
 35 39  1  0  0  0  0
 36 35  1  0  0  0  0
M  END
>  <minimizedAffinity>
-5.92508841

$$$$

 OpenBabel03272509103D

 39 42  0  0  0  0  0  0  0  0999 V2000
   38.8280   25.4470   34.7290 C   0  0  0  0  0  0  0  0  0  0  0  0
   38.9640   25.4920   35.8160 H   0  0  0  0  0  0  0  0  0  0  0  0
   39.8820   25.5180   34.3190 H   0  0  0  0  0  0  0  0  0  0  0  0
   38.3350   24.1430   34.2250 C   0  0  0  0  0  0  0  0  0  0  0  0
   37.9780   23.9370   32.8940 C   0  0  0  0  0  0  0  0  0  0  0  0
   37.5160   22.7370   32.4250 C   0  0  0  0  0  0  0  0  0  0  0  0
   37.3870   21.6630   33.2810 C   0  0  0  0  0  0  0  0  0  0  0  0
   37.7300   21.8480   34.5740 C   0  0  0  0  0  0  0  0  0  0  0  0
   38.1980   23.0570   35.0590 C   0  0  0  0  0  0  0  0  0  0  0  0
   38.0890   24.7970   32.2460 H   0  0  0  0  0  0  0  0  0  0  0  0
   37.2570   22.6460   31.3860 H   0  0  0  0  0  0  0  0  0  0  0  0
   37.0180   20.7370   32.8640 H   0  0  0  0  0  0  0  0  0  0  0  0
   37.6240   20.9910   35.2450 H   0  0  0  0  0  0  0  0  0  0  0  0
   38.5380   23.1220   36.4750 C   0  0  0  0  0  0  0  0  0  0  0  0
   37.7940   23.7050   37.4860 C   0  0  0  0  0  0  0  0  0  0  0  0
   36.8340   24.2100   37.3890 H   0  0  0  0  0  0  0  0  0  0  0  0
   38.4140   23.5850   38.7120 C   0  0  0  0  0  0  0  0  0  0  0  0
   38.0990   23.9280   39.6820 H   0  0  0  0  0  0  0  0  0  0  0  0
   39.5470   22.9190   38.4310 N   0  0  0  0  0  0  0  0  0  0  0  0
   40.3190   22.6110   39.0650 H   0  0  0  0  0  0  0  0  0  0  0  0
   39.6000   22.6640   37.1570 N   0  0  0  0  0  0  0  0  0  0  0  0
   37.0140   27.1480   34.5810 C   0  0  0  0  0  3  0  0  0  0  0  0
   38.1250   26.6050   34.1490 C   0  0  0  0  0  3  0  0  0  0  0  0
   35.1550   30.1680   33.7320 C   0  0  0  0  0  0  0  0  0  0  0  0
   35.5470   30.3850   32.3960 C   0  0  0  0  0  0  0  0  0  0  0  0
   36.4500   29.4710   31.8240 C   0  0  0  0  0  0  0  0  0  0  0  0
   36.8960   28.4270   32.5960 N   0  0  0  0  0  0  0  0  0  0  0  0
   36.4720   28.2900   33.8710 C   0  0  0  0  0  0  0  0  0  0  0  0
   35.6180   29.1420   34.4330 N   0  0  0  0  0  0  0  0  0  0  0  0
   34.4590   30.9160   34.0950 H   0  0  0  0  0  0  0  0  0  0  0  0
   35.2310   31.1740   31.7600 H   0  0  0  0  0  0  0  0  0  0  0  0
   36.9300   29.5900   30.4390 C   0  0  0  0  0  0  0  0  0  0  0  0
   37.4460   28.5220   29.7470 C   0  0  0  0  0  0  0  0  0  0  0  0
   37.8000   28.9910   28.4690 C   0  0  0  0  0  0  0  0  0  0  0  0
   37.4810   30.3110   28.4560 N   0  0  0  0  0  0  0  0  0  0  0  0
   36.9650   30.6610   29.6280 N   0  0  0  0  0  0  0  0  0  0  0  0
   37.5800   27.4930   30.0650 H   0  0  0  0  0  0  0  0  0  0  0  0
   38.2290   28.4350   27.6690 H   0  0  0  0  0  0  0  0  0  0  0  0
   37.6470   30.9050   27.6090 H   0  0  0  0  0  0  0  0  0  0  0  0
  1  2  1  0  0  0  0
  3  1  1  0  0  0  0
  4  1  1  0  0  0  0
  4  9  1  0  0  0  0
  5  4  2  0  0  0  0
  6  5  1  0  0  0  0
  6  7  2  0  0  0  0
  7  8  1  0  0  0  0
  8  9  2  0  0  0  0
  8 13  1  0  0  0  0
  9 14  1  0  0  0  0
 10  5  1  0  0  0  0
 11  6  1  0  0  0  0
 12  7  1  0  0  0  0
 14 21  2  0  0  0  0
 14 15  1  0  0  0  0
 15 17  2  0  0  0  0
 16 15  1  0  0  0  0
 17 18  1  0  0  0  0
 19 17  1  0  0  0  0
 19 20  1  0  0  0  0
 21 19  1  0  0  0  0
 23 22  2  0  0  0  0
 23  1  1  0  0  0  0
 24 30  1  0  0  0  0
 24 29  1  0  0  0  0
 25 24  2  0  0  0  0
 26 25  1  0  0  0  0
 26 27  2  0  0  0  0
 27 28  1  0  0  0  0
 28 29  2  0  0  0  0
 28 22  1  0  0  0  0
 31 25  1  0  0  0  0
 32 26  1  0  0  0  0
 33 37  1  0  0  0  0
 33 32  1  0  0  0  0
 34 33  2  0  0  0  0
 35 34  1  0  0  0  0
 35 36  1  0  0  0  0
 36 32  2  0  0  0  0
 38 34  1  0  0  0  0
 39 35  1  0  0  0  0
M  END
>  <minimizedAffinity>
-5.801301

$$$$
