
 OpenBabel03272509523D

 42 45  0  0  0  0  0  0  0  0999 V2000
   34.1840   28.8410   48.0670 C   0  0  0  0  0  0  0  0  0  0  0  0
   34.9870   29.1960   47.4070 H   0  0  0  0  0  0  0  0  0  0  0  0
   33.5000   29.7050   48.3040 H   0  0  0  0  0  0  0  0  0  0  0  0
   33.3340   27.7740   47.4570 C   0  0  0  0  0  0  0  0  0  0  0  0
   33.6650   26.7490   47.7120 H   0  0  0  0  0  0  0  0  0  0  0  0
   33.4220   27.8690   46.3460 H   0  0  0  0  0  0  0  0  0  0  0  0
   31.8860   27.9390   47.7510 C   0  0  0  0  0  0  0  0  0  0  0  0
   31.3870   27.3060   48.8800 C   0  0  0  0  0  0  0  0  0  0  0  0
   30.0760   27.3870   49.2480 C   0  0  0  0  0  0  0  0  0  0  0  0
   29.2510   28.0960   48.5000 N   0  0  0  0  0  0  0  0  0  0  0  0
   29.7330   28.7280   47.3780 C   0  0  0  0  0  0  0  0  0  0  0  0
   31.0310   28.6590   46.9980 N   0  0  0  0  0  0  0  0  0  0  0  0
   32.0650   26.7180   49.5040 H   0  0  0  0  0  0  0  0  0  0  0  0
   29.6730   26.8960   50.1300 H   0  0  0  0  0  0  0  0  0  0  0  0
   28.8440   29.5190   46.5320 C   0  0  0  0  0  0  0  0  0  0  0  0
   29.3250   30.0160   45.3160 C   0  0  0  0  0  0  0  0  0  0  0  0
   30.2930   29.9410   44.8160 H   0  0  0  0  0  0  0  0  0  0  0  0
   28.2750   30.7260   44.7240 C   0  0  0  0  0  0  0  0  0  0  0  0
   28.1870   31.2700   43.7970 H   0  0  0  0  0  0  0  0  0  0  0  0
   27.2300   30.6380   45.5690 N   0  0  0  0  0  0  0  0  0  0  0  0
   26.2650   31.0630   45.4350 H   0  0  0  0  0  0  0  0  0  0  0  0
   27.5620   29.9180   46.6520 N   0  0  0  0  0  0  0  0  0  0  0  0
   34.7370   28.3960   49.3070 O   0  0  0  0  0  0  0  0  0  0  0  0
   37.0740   29.9580   51.5640 C   0  0  0  0  0  0  0  0  0  0  0  0
   37.8730   30.6920   50.6330 C   0  0  0  0  0  0  0  0  0  0  0  0
   37.5370   30.5890   49.2890 C   0  0  0  0  0  0  0  0  0  0  0  0
   36.4730   29.7930   48.9790 N   0  0  0  0  0  0  0  0  0  0  0  0
   35.7460   29.1190   49.8760 C   0  0  0  0  0  0  0  0  0  0  0  0
   36.0520   29.2050   51.1770 N   0  0  0  0  0  0  0  0  0  0  0  0
   37.4000   30.0920   52.5860 H   0  0  0  0  0  0  0  0  0  0  0  0
   38.6990   31.3070   50.9000 H   0  0  0  0  0  0  0  0  0  0  0  0
   38.7620   33.2120   49.2960 F   0  0  0  0  0  0  0  0  0  0  0  0
   38.8040   32.4760   48.1990 C   0  0  0  0  0  0  0  0  0  0  0  0
   38.2270   31.2550   48.2170 C   0  0  0  0  0  0  0  0  0  0  0  0
   38.3290   30.5620   47.0070 C   0  0  0  0  0  0  0  0  0  0  0  0
   38.9650   31.0850   45.9000 C   0  0  0  0  0  0  0  0  0  0  0  0
   39.5370   32.3320   45.9300 C   0  0  0  0  0  0  0  0  0  0  0  0
   39.4460   33.0280   47.1070 C   0  0  0  0  0  0  0  0  0  0  0  0
   37.9070   29.5620   46.8820 H   0  0  0  0  0  0  0  0  0  0  0  0
   39.0220   30.5150   44.9810 H   0  0  0  0  0  0  0  0  0  0  0  0
   40.0290   32.7370   45.0690 H   0  0  0  0  0  0  0  0  0  0  0  0
   39.8900   34.0100   47.1520 H   0  0  0  0  0  0  0  0  0  0  0  0
  1  3  1  0  0  0  0
  1 23  1  0  0  0  0
  2  1  1  0  0  0  0
  4  5  1  0  0  0  0
  4  7  1  0  0  0  0
  4  1  1  0  0  0  0
  6  4  1  0  0  0  0
  7  8  1  0  0  0  0
  8  9  2  0  0  0  0
  8 13  1  0  0  0  0
  9 14  1  0  0  0  0
 10  9  1  0  0  0  0
 11 10  2  0  0  0  0
 12 11  1  0  0  0  0
 12  7  2  0  0  0  0
 15 22  2  0  0  0  0
 15 11  1  0  0  0  0
 16 15  1  0  0  0  0
 17 16  1  0  0  0  0
 18 16  2  0  0  0  0
 18 20  1  0  0  0  0
 19 18  1  0  0  0  0
 20 22  1  0  0  0  0
 21 20  1  0  0  0  0
 23 28  1  0  0  0  0
 24 30  1  0  0  0  0
 25 31  1  0  0  0  0
 25 24  2  0  0  0  0
 26 25  1  0  0  0  0
 27 26  2  0  0  0  0
 27 28  1  0  0  0  0
 28 29  2  0  0  0  0
 29 24  1  0  0  0  0
 33 34  1  0  0  0  0
 33 32  1  0  0  0  0
 34 26  1  0  0  0  0
 35 34  2  0  0  0  0
 36 37  2  0  0  0  0
 36 35  1  0  0  0  0
 37 38  1  0  0  0  0
 38 42  1  0  0  0  0
 38 33  2  0  0  0  0
 39 35  1  0  0  0  0
 40 36  1  0  0  0  0
 41 37  1  0  0  0  0
M  END
>  <minimizedAffinity>
-6.5187993

>  <minimizedRMSD>
0.766156912

$$$$
