
 OpenBabel03272509523D

 42 45  0  0  0  0  0  0  0  0999 V2000
   34.3200   28.9060   48.0450 C   0  0  0  0  0  0  0  0  0  0  0  0
   35.0880   29.2910   47.3610 H   0  0  0  0  0  0  0  0  0  0  0  0
   33.6280   29.7500   48.3270 H   0  0  0  0  0  0  0  0  0  0  0  0
   33.4690   27.8320   47.4480 C   0  0  0  0  0  0  0  0  0  0  0  0
   33.7950   26.8100   47.7230 H   0  0  0  0  0  0  0  0  0  0  0  0
   33.5640   27.9070   46.3370 H   0  0  0  0  0  0  0  0  0  0  0  0
   32.0200   28.0080   47.7310 C   0  0  0  0  0  0  0  0  0  0  0  0
   31.5260   27.4560   48.9040 C   0  0  0  0  0  0  0  0  0  0  0  0
   30.2150   27.5540   49.2660 C   0  0  0  0  0  0  0  0  0  0  0  0
   29.3850   28.2000   48.4690 N   0  0  0  0  0  0  0  0  0  0  0  0
   29.8610   28.7510   47.3030 C   0  0  0  0  0  0  0  0  0  0  0  0
   31.1600   28.6630   46.9280 N   0  0  0  0  0  0  0  0  0  0  0  0
   32.2080   26.9200   49.5690 H   0  0  0  0  0  0  0  0  0  0  0  0
   29.8160   27.1270   50.1820 H   0  0  0  0  0  0  0  0  0  0  0  0
   28.9670   29.4710   46.4000 C   0  0  0  0  0  0  0  0  0  0  0  0
   27.7090   29.8690   46.8630 C   0  0  0  0  0  0  0  0  0  0  0  0
   27.2010   29.7550   47.8250 H   0  0  0  0  0  0  0  0  0  0  0  0
   27.0760   30.5280   45.8040 C   0  0  0  0  0  0  0  0  0  0  0  0
   26.1090   30.9950   45.7020 H   0  0  0  0  0  0  0  0  0  0  0  0
   27.9410   30.5070   44.7700 N   0  0  0  0  0  0  0  0  0  0  0  0
   27.7870   30.9200   43.8020 H   0  0  0  0  0  0  0  0  0  0  0  0
   29.0720   29.8780   45.1200 N   0  0  0  0  0  0  0  0  0  0  0  0
   34.9320   28.4500   49.2540 O   0  0  0  0  0  0  0  0  0  0  0  0
   37.2340   30.0900   51.4900 C   0  0  0  0  0  0  0  0  0  0  0  0
   38.0210   30.8250   50.5500 C   0  0  0  0  0  0  0  0  0  0  0  0
   37.6910   30.6940   49.2070 C   0  0  0  0  0  0  0  0  0  0  0  0
   36.6420   29.8740   48.9070 N   0  0  0  0  0  0  0  0  0  0  0  0
   35.9260   29.2000   49.8130 C   0  0  0  0  0  0  0  0  0  0  0  0
   36.2270   29.3130   51.1140 N   0  0  0  0  0  0  0  0  0  0  0  0
   37.5550   30.2470   52.5120 H   0  0  0  0  0  0  0  0  0  0  0  0
   38.8350   31.4580   50.8090 H   0  0  0  0  0  0  0  0  0  0  0  0
   38.8200   33.3590   49.1580 F   0  0  0  0  0  0  0  0  0  0  0  0
   38.9040   32.5960   48.0820 C   0  0  0  0  0  0  0  0  0  0  0  0
   38.3700   31.3550   48.1260 C   0  0  0  0  0  0  0  0  0  0  0  0
   38.5130   30.6350   46.9370 C   0  0  0  0  0  0  0  0  0  0  0  0
   39.1450   31.1500   45.8240 C   0  0  0  0  0  0  0  0  0  0  0  0
   39.6710   32.4180   45.8270 C   0  0  0  0  0  0  0  0  0  0  0  0
   39.5400   33.1410   46.9840 C   0  0  0  0  0  0  0  0  0  0  0  0
   38.1290   29.6170   46.8340 H   0  0  0  0  0  0  0  0  0  0  0  0
   39.2350   30.5590   44.9210 H   0  0  0  0  0  0  0  0  0  0  0  0
   40.1600   32.8170   44.9620 H   0  0  0  0  0  0  0  0  0  0  0  0
   39.9480   34.1400   47.0080 H   0  0  0  0  0  0  0  0  0  0  0  0
  1  3  1  0  0  0  0
  1 23  1  0  0  0  0
  2  1  1  0  0  0  0
  4  5  1  0  0  0  0
  4  7  1  0  0  0  0
  4  1  1  0  0  0  0
  6  4  1  0  0  0  0
  7  8  1  0  0  0  0
  8  9  2  0  0  0  0
  8 13  1  0  0  0  0
  9 14  1  0  0  0  0
 10  9  1  0  0  0  0
 11 10  2  0  0  0  0
 12 11  1  0  0  0  0
 12  7  2  0  0  0  0
 15 16  1  0  0  0  0
 15 11  1  0  0  0  0
 16 17  1  0  0  0  0
 18 16  2  0  0  0  0
 19 18  1  0  0  0  0
 20 22  1  0  0  0  0
 20 18  1  0  0  0  0
 21 20  1  0  0  0  0
 22 15  2  0  0  0  0
 23 28  1  0  0  0  0
 24 30  1  0  0  0  0
 25 31  1  0  0  0  0
 25 24  2  0  0  0  0
 26 25  1  0  0  0  0
 27 26  2  0  0  0  0
 27 28  1  0  0  0  0
 28 29  2  0  0  0  0
 29 24  1  0  0  0  0
 33 34  1  0  0  0  0
 33 32  1  0  0  0  0
 34 26  1  0  0  0  0
 35 34  2  0  0  0  0
 36 37  2  0  0  0  0
 36 35  1  0  0  0  0
 37 38  1  0  0  0  0
 38 42  1  0  0  0  0
 38 33  2  0  0  0  0
 39 35  1  0  0  0  0
 40 36  1  0  0  0  0
 41 37  1  0  0  0  0
M  END
>  <minimizedAffinity>
-6.59508133

>  <minimizedRMSD>
0.64901197

$$$$
