
 OpenBabel03262522533D

 32 35  0  0  0  0  0  0  0  0999 V2000
   38.4220   24.9690   34.8310 C   0  0  0  0  0  0  0  0  0  0  0  0
   38.0190   24.9000   33.5650 C   0  0  0  0  0  0  0  0  0  0  0  0
   37.3090   25.9530   33.0280 C   0  0  0  0  0  0  0  0  0  0  0  0
   37.0730   27.0050   33.8590 C   0  0  0  0  0  0  0  0  0  0  0  0
   37.8690   26.4870   35.4190 S   0  0  0  0  0  0  0  0  0  0  0  0
   38.2550   24.0050   32.9600 H   0  0  0  0  0  0  0  0  0  0  0  0
   36.9350   25.9960   32.0060 H   0  0  0  0  0  0  0  0  0  0  0  0
   39.5240   22.9010   37.6270 C   0  0  0  0  0  0  0  0  0  0  0  0
   40.5740   22.1570   37.0970 C   0  0  0  0  0  0  0  0  0  0  0  0
   40.9090   22.3730   35.7570 C   0  0  0  0  0  0  0  0  0  0  0  0
   40.2030   23.2930   35.0230 N   0  0  0  0  0  0  0  0  0  0  0  0
   39.1870   23.9810   35.6140 C   0  0  0  0  0  0  0  0  0  0  0  0
   38.8370   23.8090   36.8810 N   0  0  0  0  0  0  0  0  0  0  0  0
   39.1920   22.8050   38.6500 H   0  0  0  0  0  0  0  0  0  0  0  0
   41.0940   21.4470   37.7250 H   0  0  0  0  0  0  0  0  0  0  0  0
   41.7140   21.8180   35.3110 H   0  0  0  0  0  0  0  0  0  0  0  0
   36.3570   28.2530   33.5870 C   0  0  0  0  0  0  0  0  0  0  0  0
   36.0990   28.6210   32.3180 C   0  0  0  0  0  0  0  0  0  0  0  0
   35.4280   29.7960   32.0980 C   0  0  0  0  0  0  0  0  0  0  0  0
   35.0280   30.5800   33.1440 N   0  0  0  0  0  0  0  0  0  0  0  0
   35.3340   30.1260   34.3890 C   0  0  0  0  0  0  0  0  0  0  0  0
   35.9930   28.9780   34.6590 N   0  0  0  0  0  0  0  0  0  0  0  0
   36.3910   28.0400   31.4450 H   0  0  0  0  0  0  0  0  0  0  0  0
   35.1720   30.1780   31.1260 H   0  0  0  0  0  0  0  0  0  0  0  0
   34.9150   30.9520   35.5230 C   0  0  0  0  0  0  0  0  0  0  0  0
   33.6350   31.1590   35.9900 C   0  0  0  0  0  0  0  0  0  0  0  0
   32.7750   30.6820   35.5080 H   0  0  0  0  0  0  0  0  0  0  0  0
   33.6410   32.0000   37.0780 C   0  0  0  0  0  0  0  0  0  0  0  0
   32.7150   32.2610   37.5610 H   0  0  0  0  0  0  0  0  0  0  0  0
   34.9300   32.2970   37.2620 N   0  0  0  0  0  0  0  0  0  0  0  0
   35.2330   32.9390   38.0470 H   0  0  0  0  0  0  0  0  0  0  0  0
   35.6880   31.6830   36.3480 N   0  0  0  0  0  0  0  0  0  0  0  0
  1  5  1  0  0  0  0
  1 12  1  0  0  0  0
  2  1  2  0  0  0  0
  3  2  1  0  0  0  0
  3  4  2  0  0  0  0
  4  5  1  0  0  0  0
  6  2  1  0  0  0  0
  7  3  1  0  0  0  0
  8 14  1  0  0  0  0
  9  8  1  0  0  0  0
  9 15  1  0  0  0  0
 10  9  2  0  0  0  0
 11 12  2  0  0  0  0
 11 10  1  0  0  0  0
 12 13  1  0  0  0  0
 13  8  2  0  0  0  0
 16 10  1  0  0  0  0
 17  4  1  0  0  0  0
 17 22  1  0  0  0  0
 18 17  2  0  0  0  0
 19 18  1  0  0  0  0
 19 20  2  0  0  0  0
 20 21  1  0  0  0  0
 21 22  2  0  0  0  0
 21 25  1  0  0  0  0
 23 18  1  0  0  0  0
 24 19  1  0  0  0  0
 25 26  1  0  0  0  0
 25 32  2  0  0  0  0
 26 28  2  0  0  0  0
 27 26  1  0  0  0  0
 28 30  1  0  0  0  0
 28 29  1  0  0  0  0
 30 31  1  0  0  0  0
 32 30  1  0  0  0  0
M  END
>  <minimizedAffinity>
-5.65835667

$$$$

 OpenBabel03262522533D

 32 35  0  0  0  0  0  0  0  0999 V2000
   38.0590   25.1780   34.8910 C   0  0  0  0  0  0  0  0  0  0  0  0
   38.0700   24.8230   33.6080 C   0  0  0  0  0  0  0  0  0  0  0  0
   37.5970   25.7070   32.6620 C   0  0  0  0  0  0  0  0  0  0  0  0
   37.1440   26.9020   33.1290 C   0  0  0  0  0  0  0  0  0  0  0  0
   37.3950   26.7640   34.9330 S   0  0  0  0  0  0  0  0  0  0  0  0
   38.4580   23.8290   33.3160 H   0  0  0  0  0  0  0  0  0  0  0  0
   37.5640   25.5140   31.5900 H   0  0  0  0  0  0  0  0  0  0  0  0
   38.1900   23.8390   38.2810 C   0  0  0  0  0  0  0  0  0  0  0  0
   39.3060   23.0090   38.2690 C   0  0  0  0  0  0  0  0  0  0  0  0
   40.0260   22.9100   37.0740 C   0  0  0  0  0  0  0  0  0  0  0  0
   39.6140   23.6220   35.9750 N   0  0  0  0  0  0  0  0  0  0  0  0
   38.5090   24.4130   36.0670 C   0  0  0  0  0  0  0  0  0  0  0  0
   37.7990   24.5370   37.1800 N   0  0  0  0  0  0  0  0  0  0  0  0
   37.5710   23.9810   39.1550 H   0  0  0  0  0  0  0  0  0  0  0  0
   39.5830   22.4740   39.1660 H   0  0  0  0  0  0  0  0  0  0  0  0
   40.8940   22.2800   37.0230 H   0  0  0  0  0  0  0  0  0  0  0  0
   36.5880   28.0340   32.3830 C   0  0  0  0  0  0  0  0  0  0  0  0
   35.5280   28.7060   32.8670 C   0  0  0  0  0  0  0  0  0  0  0  0
   35.0310   29.7590   32.1430 C   0  0  0  0  0  0  0  0  0  0  0  0
   35.5990   30.1200   30.9540 N   0  0  0  0  0  0  0  0  0  0  0  0
   36.6660   29.3810   30.5460 C   0  0  0  0  0  0  0  0  0  0  0  0
   37.1920   28.3360   31.2220 N   0  0  0  0  0  0  0  0  0  0  0  0
   35.0330   28.4670   33.8070 H   0  0  0  0  0  0  0  0  0  0  0  0
   34.1910   30.3600   32.4410 H   0  0  0  0  0  0  0  0  0  0  0  0
   37.2880   29.7510   29.2740 C   0  0  0  0  0  0  0  0  0  0  0  0
   37.2740   30.9820   28.6530 C   0  0  0  0  0  0  0  0  0  0  0  0
   36.7560   31.8350   29.1040 H   0  0  0  0  0  0  0  0  0  0  0  0
   37.9710   30.9400   27.4680 C   0  0  0  0  0  0  0  0  0  0  0  0
   38.0540   31.8250   26.8610 H   0  0  0  0  0  0  0  0  0  0  0  0
   38.4030   29.6790   27.3810 N   0  0  0  0  0  0  0  0  0  0  0  0
   38.9800   29.3590   26.5530 H   0  0  0  0  0  0  0  0  0  0  0  0
   38.0050   28.9720   28.4420 N   0  0  0  0  0  0  0  0  0  0  0  0
  1  5  1  0  0  0  0
  1 12  1  0  0  0  0
  2  1  2  0  0  0  0
  3  4  2  0  0  0  0
  3  2  1  0  0  0  0
  4  5  1  0  0  0  0
  6  2  1  0  0  0  0
  7  3  1  0  0  0  0
  8 14  1  0  0  0  0
  9  8  1  0  0  0  0
  9 15  1  0  0  0  0
 10  9  2  0  0  0  0
 11 12  2  0  0  0  0
 11 10  1  0  0  0  0
 12 13  1  0  0  0  0
 13  8  2  0  0  0  0
 16 10  1  0  0  0  0
 17 18  1  0  0  0  0
 17  4  1  0  0  0  0
 18 23  1  0  0  0  0
 19 24  1  0  0  0  0
 19 18  2  0  0  0  0
 20 19  1  0  0  0  0
 21 20  2  0  0  0  0
 21 22  1  0  0  0  0
 22 17  2  0  0  0  0
 25 21  1  0  0  0  0
 26 27  1  0  0  0  0
 26 25  1  0  0  0  0
 28 26  2  0  0  0  0
 29 28  1  0  0  0  0
 30 28  1  0  0  0  0
 30 32  1  0  0  0  0
 31 30  1  0  0  0  0
 32 25  2  0  0  0  0
M  END
>  <minimizedAffinity>
-5.46273565

$$$$

 OpenBabel03262522533D

 32 35  0  0  0  0  0  0  0  0999 V2000
   35.5850   29.2230   32.8470 C   0  0  0  0  0  0  0  0  0  0  0  0
   35.8990   29.1460   34.1380 C   0  0  0  0  0  0  0  0  0  0  0  0
   36.6280   28.0650   34.5880 C   0  0  0  0  0  0  0  0  0  0  0  0
   36.9750   27.1420   33.6510 C   0  0  0  0  0  0  0  0  0  0  0  0
   36.2550   27.8190   32.1150 S   0  0  0  0  0  0  0  0  0  0  0  0
   35.5760   29.9440   34.8320 H   0  0  0  0  0  0  0  0  0  0  0  0
   36.9370   27.9090   35.6210 H   0  0  0  0  0  0  0  0  0  0  0  0
   34.8430   32.1460   30.7950 C   0  0  0  0  0  0  0  0  0  0  0  0
   33.4540   32.2220   30.8130 C   0  0  0  0  0  0  0  0  0  0  0  0
   32.7620   31.2520   31.5450 C   0  0  0  0  0  0  0  0  0  0  0  0
   33.4640   30.2760   32.2080 N   0  0  0  0  0  0  0  0  0  0  0  0
   34.8240   30.2700   32.1410 C   0  0  0  0  0  0  0  0  0  0  0  0
   35.5200   31.1700   31.4600 N   0  0  0  0  0  0  0  0  0  0  0  0
   35.4650   32.8490   30.2590 H   0  0  0  0  0  0  0  0  0  0  0  0
   32.9560   33.0150   30.2720 H   0  0  0  0  0  0  0  0  0  0  0  0
   31.6890   31.2770   31.5840 H   0  0  0  0  0  0  0  0  0  0  0  0
   37.7380   25.9020   33.8150 C   0  0  0  0  0  0  0  0  0  0  0  0
   38.2510   25.2770   32.7400 C   0  0  0  0  0  0  0  0  0  0  0  0
   38.9590   24.1170   32.9300 C   0  0  0  0  0  0  0  0  0  0  0  0
   39.1400   23.6050   34.1840 N   0  0  0  0  0  0  0  0  0  0  0  0
   38.5840   24.3070   35.2080 C   0  0  0  0  0  0  0  0  0  0  0  0
   37.8780   25.4520   35.0740 N   0  0  0  0  0  0  0  0  0  0  0  0
   38.1420   25.6350   31.7180 H   0  0  0  0  0  0  0  0  0  0  0  0
   39.4090   23.5440   32.1400 H   0  0  0  0  0  0  0  0  0  0  0  0
   38.7660   23.7750   36.5590 C   0  0  0  0  0  0  0  0  0  0  0  0
   38.0620   24.1040   37.6980 C   0  0  0  0  0  0  0  0  0  0  0  0
   37.2550   24.8430   37.6680 H   0  0  0  0  0  0  0  0  0  0  0  0
   38.5240   23.3910   38.7800 C   0  0  0  0  0  0  0  0  0  0  0  0
   38.0760   23.5350   39.7480 H   0  0  0  0  0  0  0  0  0  0  0  0
   39.5060   22.6340   38.2860 N   0  0  0  0  0  0  0  0  0  0  0  0
   40.0480   21.9730   38.9100 H   0  0  0  0  0  0  0  0  0  0  0  0
   39.6550   22.8550   36.9760 N   0  0  0  0  0  0  0  0  0  0  0  0
  1  2  2  0  0  0  0
  2  3  1  0  0  0  0
  2  6  1  0  0  0  0
  3  7  1  0  0  0  0
  4 17  1  0  0  0  0
  4  3  2  0  0  0  0
  5  1  1  0  0  0  0
  5  4  1  0  0  0  0
  8  9  2  0  0  0  0
  8 13  1  0  0  0  0
  9 10  1  0  0  0  0
 10 16  1  0  0  0  0
 10 11  2  0  0  0  0
 12 11  1  0  0  0  0
 12  1  1  0  0  0  0
 13 12  2  0  0  0  0
 14  8  1  0  0  0  0
 15  9  1  0  0  0  0
 17 22  1  0  0  0  0
 18 19  1  0  0  0  0
 18 17  2  0  0  0  0
 19 20  2  0  0  0  0
 20 21  1  0  0  0  0
 21 25  1  0  0  0  0
 22 21  2  0  0  0  0
 23 18  1  0  0  0  0
 24 19  1  0  0  0  0
 25 32  2  0  0  0  0
 25 26  1  0  0  0  0
 26 28  2  0  0  0  0
 27 26  1  0  0  0  0
 28 29  1  0  0  0  0
 30 28  1  0  0  0  0
 30 31  1  0  0  0  0
 32 30  1  0  0  0  0
M  END
>  <minimizedAffinity>
-5.45950937

$$$$

 OpenBabel03262522533D

 32 35  0  0  0  0  0  0  0  0999 V2000
   37.5740   27.8310   30.9900 C   0  0  0  0  0  0  0  0  0  0  0  0
   37.1540   27.9850   32.2440 C   0  0  0  0  0  0  0  0  0  0  0  0
   37.1460   26.8940   33.0880 C   0  0  0  0  0  0  0  0  0  0  0  0
   37.5790   25.7190   32.5550 C   0  0  0  0  0  0  0  0  0  0  0  0
   38.0000   26.1720   30.8370 S   0  0  0  0  0  0  0  0  0  0  0  0
   36.8200   28.9790   32.5940 H   0  0  0  0  0  0  0  0  0  0  0  0
   36.8230   26.9140   34.1280 H   0  0  0  0  0  0  0  0  0  0  0  0
   37.1000   30.9270   29.1200 C   0  0  0  0  0  0  0  0  0  0  0  0
   37.8390   30.7300   27.9580 C   0  0  0  0  0  0  0  0  0  0  0  0
   38.5100   29.5110   27.8150 C   0  0  0  0  0  0  0  0  0  0  0  0
   38.4190   28.5690   28.8100 N   0  0  0  0  0  0  0  0  0  0  0  0
   37.6750   28.8370   29.9180 C   0  0  0  0  0  0  0  0  0  0  0  0
   37.0220   29.9780   30.0930 N   0  0  0  0  0  0  0  0  0  0  0  0
   36.5480   31.8330   29.3200 H   0  0  0  0  0  0  0  0  0  0  0  0
   37.8740   31.5090   27.2090 H   0  0  0  0  0  0  0  0  0  0  0  0
   39.0920   29.3210   26.9320 H   0  0  0  0  0  0  0  0  0  0  0  0
   37.6850   24.4030   33.1900 C   0  0  0  0  0  0  0  0  0  0  0  0
   37.3890   23.2910   32.4920 C   0  0  0  0  0  0  0  0  0  0  0  0
   37.4980   22.0750   33.1170 C   0  0  0  0  0  0  0  0  0  0  0  0
   37.9000   21.9910   34.4200 N   0  0  0  0  0  0  0  0  0  0  0  0
   38.1770   23.1680   35.0430 C   0  0  0  0  0  0  0  0  0  0  0  0
   38.0840   24.3910   34.4730 N   0  0  0  0  0  0  0  0  0  0  0  0
   37.0650   23.2920   31.4530 H   0  0  0  0  0  0  0  0  0  0  0  0
   37.2860   21.1300   32.6500 H   0  0  0  0  0  0  0  0  0  0  0  0
   38.6070   23.1010   36.4400 C   0  0  0  0  0  0  0  0  0  0  0  0
   38.0230   23.7030   37.5340 C   0  0  0  0  0  0  0  0  0  0  0  0
   37.1260   24.3210   37.4250 H   0  0  0  0  0  0  0  0  0  0  0  0
   38.7170   23.4070   38.6840 C   0  0  0  0  0  0  0  0  0  0  0  0
   38.3870   23.8030   39.6280 H   0  0  0  0  0  0  0  0  0  0  0  0
   39.7200   22.6250   38.2750 N   0  0  0  0  0  0  0  0  0  0  0  0
   40.4260   22.2420   38.9650 H   0  0  0  0  0  0  0  0  0  0  0  0
   39.6620   22.4400   36.9530 N   0  0  0  0  0  0  0  0  0  0  0  0
  1  2  2  0  0  0  0
  2  6  1  0  0  0  0
  2  3  1  0  0  0  0
  3  7  1  0  0  0  0
  4  3  2  0  0  0  0
  4 17  1  0  0  0  0
  5  1  1  0  0  0  0
  5  4  1  0  0  0  0
  8 14  1  0  0  0  0
  8 13  1  0  0  0  0
  9  8  2  0  0  0  0
 10  9  1  0  0  0  0
 10 11  2  0  0  0  0
 11 12  1  0  0  0  0
 12 13  2  0  0  0  0
 12  1  1  0  0  0  0
 15  9  1  0  0  0  0
 16 10  1  0  0  0  0
 17 22  1  0  0  0  0
 18 19  1  0  0  0  0
 18 17  2  0  0  0  0
 19 20  2  0  0  0  0
 20 21  1  0  0  0  0
 21 25  1  0  0  0  0
 22 21  2  0  0  0  0
 23 18  1  0  0  0  0
 24 19  1  0  0  0  0
 25 32  2  0  0  0  0
 25 26  1  0  0  0  0
 26 28  2  0  0  0  0
 27 26  1  0  0  0  0
 28 29  1  0  0  0  0
 30 28  1  0  0  0  0
 30 31  1  0  0  0  0
 32 30  1  0  0  0  0
M  END
>  <minimizedAffinity>
-5.44383097

$$$$

 OpenBabel03262522533D

 32 35  0  0  0  0  0  0  0  0999 V2000
   37.1410   26.9160   33.1070 C   0  0  0  0  0  0  0  0  0  0  0  0
   37.5240   25.7190   32.6690 C   0  0  0  0  0  0  0  0  0  0  0  0
   37.9830   24.7870   33.5760 C   0  0  0  0  0  0  0  0  0  0  0  0
   38.0060   25.1790   34.8800 C   0  0  0  0  0  0  0  0  0  0  0  0
   37.3710   26.8890   34.8110 S   0  0  0  0  0  0  0  0  0  0  0  0
   37.4720   25.4850   31.5900 H   0  0  0  0  0  0  0  0  0  0  0  0
   38.3180   23.7830   33.3220 H   0  0  0  0  0  0  0  0  0  0  0  0
   34.9980   29.6830   32.0790 C   0  0  0  0  0  0  0  0  0  0  0  0
   35.6250   30.1860   30.9430 C   0  0  0  0  0  0  0  0  0  0  0  0
   36.8040   29.5610   30.5240 C   0  0  0  0  0  0  0  0  0  0  0  0
   37.2930   28.4930   31.2350 N   0  0  0  0  0  0  0  0  0  0  0  0
   36.6200   28.0600   32.3370 C   0  0  0  0  0  0  0  0  0  0  0  0
   35.4990   28.6220   32.7690 N   0  0  0  0  0  0  0  0  0  0  0  0
   34.0840   30.0970   32.4790 H   0  0  0  0  0  0  0  0  0  0  0  0
   35.1920   31.0290   30.4240 H   0  0  0  0  0  0  0  0  0  0  0  0
   37.3180   29.9190   29.6520 H   0  0  0  0  0  0  0  0  0  0  0  0
   38.4350   24.4260   36.0610 C   0  0  0  0  0  0  0  0  0  0  0  0
   37.8090   24.6040   37.2390 C   0  0  0  0  0  0  0  0  0  0  0  0
   38.2360   23.8840   38.3260 C   0  0  0  0  0  0  0  0  0  0  0  0
   39.2750   23.0030   38.2170 N   0  0  0  0  0  0  0  0  0  0  0  0
   39.8450   22.8910   36.9870 C   0  0  0  0  0  0  0  0  0  0  0  0
   39.4620   23.5780   35.8870 N   0  0  0  0  0  0  0  0  0  0  0  0
   36.9770   25.2890   37.3890 H   0  0  0  0  0  0  0  0  0  0  0  0
   37.8050   23.9520   39.3080 H   0  0  0  0  0  0  0  0  0  0  0  0
   40.9600   21.9540   36.8490 C   0  0  0  0  0  0  0  0  0  0  0  0
   41.6950   21.6760   35.7160 C   0  0  0  0  0  0  0  0  0  0  0  0
   41.4790   22.1780   34.7670 H   0  0  0  0  0  0  0  0  0  0  0  0
   42.6640   20.7360   35.9800 C   0  0  0  0  0  0  0  0  0  0  0  0
   43.3250   20.4100   35.1950 H   0  0  0  0  0  0  0  0  0  0  0  0
   42.5060   20.4500   37.2750 N   0  0  0  0  0  0  0  0  0  0  0  0
   43.1300   19.7430   37.7550 H   0  0  0  0  0  0  0  0  0  0  0  0
   41.5030   21.1640   37.7940 N   0  0  0  0  0  0  0  0  0  0  0  0
  1  5  1  0  0  0  0
  2  1  2  0  0  0  0
  2  3  1  0  0  0  0
  3  4  2  0  0  0  0
  4 17  1  0  0  0  0
  5  4  1  0  0  0  0
  6  2  1  0  0  0  0
  7  3  1  0  0  0  0
  8 14  1  0  0  0  0
  8 13  1  0  0  0  0
  9  8  2  0  0  0  0
 10  9  1  0  0  0  0
 10 11  2  0  0  0  0
 11 12  1  0  0  0  0
 12 13  2  0  0  0  0
 12  1  1  0  0  0  0
 15  9  1  0  0  0  0
 16 10  1  0  0  0  0
 17 18  1  0  0  0  0
 18 23  1  0  0  0  0
 18 19  2  0  0  0  0
 19 24  1  0  0  0  0
 20 19  1  0  0  0  0
 21 20  2  0  0  0  0
 22 17  2  0  0  0  0
 22 21  1  0  0  0  0
 25 21  1  0  0  0  0
 25 32  2  0  0  0  0
 26 28  2  0  0  0  0
 26 25  1  0  0  0  0
 27 26  1  0  0  0  0
 28 30  1  0  0  0  0
 29 28  1  0  0  0  0
 30 31  1  0  0  0  0
 30 32  1  0  0  0  0
M  END
>  <minimizedAffinity>
-5.41093302

$$$$

 OpenBabel03262522533D

 32 35  0  0  0  0  0  0  0  0999 V2000
   36.0890   28.8040   33.9870 C   0  0  0  0  0  0  0  0  0  0  0  0
   35.9780   28.3110   32.7560 C   0  0  0  0  0  0  0  0  0  0  0  0
   36.5350   27.0820   32.4710 C   0  0  0  0  0  0  0  0  0  0  0  0
   37.1700   26.4570   33.5010 C   0  0  0  0  0  0  0  0  0  0  0  0
   36.9710   27.6320   34.8840 S   0  0  0  0  0  0  0  0  0  0  0  0
   35.4430   28.8870   31.9780 H   0  0  0  0  0  0  0  0  0  0  0  0
   36.4990   26.5920   31.4990 H   0  0  0  0  0  0  0  0  0  0  0  0
   34.0550   31.8070   34.3760 C   0  0  0  0  0  0  0  0  0  0  0  0
   34.6040   32.4390   35.4880 C   0  0  0  0  0  0  0  0  0  0  0  0
   35.6930   31.8220   36.1110 C   0  0  0  0  0  0  0  0  0  0  0  0
   36.1730   30.6350   35.6160 N   0  0  0  0  0  0  0  0  0  0  0  0
   35.5800   30.0790   34.5230 C   0  0  0  0  0  0  0  0  0  0  0  0
   34.5470   30.6300   33.9010 N   0  0  0  0  0  0  0  0  0  0  0  0
   33.2140   32.2050   33.8280 H   0  0  0  0  0  0  0  0  0  0  0  0
   34.1830   33.3730   35.8320 H   0  0  0  0  0  0  0  0  0  0  0  0
   36.1450   32.2780   36.9720 H   0  0  0  0  0  0  0  0  0  0  0  0
   37.8510   25.1600   33.5130 C   0  0  0  0  0  0  0  0  0  0  0  0
   37.9940   24.4630   32.3710 C   0  0  0  0  0  0  0  0  0  0  0  0
   38.6370   23.2520   32.4180 C   0  0  0  0  0  0  0  0  0  0  0  0
   39.1230   22.7620   33.5980 N   0  0  0  0  0  0  0  0  0  0  0  0
   38.9300   23.5380   34.6980 C   0  0  0  0  0  0  0  0  0  0  0  0
   38.3030   24.7360   34.7050 N   0  0  0  0  0  0  0  0  0  0  0  0
   37.6310   24.7990   31.4020 H   0  0  0  0  0  0  0  0  0  0  0  0
   38.8040   22.6190   31.5650 H   0  0  0  0  0  0  0  0  0  0  0  0
   39.4410   23.0320   35.9720 C   0  0  0  0  0  0  0  0  0  0  0  0
   40.6440   22.4010   36.2090 C   0  0  0  0  0  0  0  0  0  0  0  0
   41.3560   22.2230   35.3960 H   0  0  0  0  0  0  0  0  0  0  0  0
   40.7690   22.0700   37.5370 C   0  0  0  0  0  0  0  0  0  0  0  0
   41.6570   21.5700   37.8850 H   0  0  0  0  0  0  0  0  0  0  0  0
   39.6370   22.5040   38.0970 N   0  0  0  0  0  0  0  0  0  0  0  0
   39.4610   22.3790   39.1330 H   0  0  0  0  0  0  0  0  0  0  0  0
   38.8480   23.0720   37.1800 N   0  0  0  0  0  0  0  0  0  0  0  0
  1 12  1  0  0  0  0
  1  5  1  0  0  0  0
  2  1  2  0  0  0  0
  3  2  1  0  0  0  0
  3  4  2  0  0  0  0
  4 17  1  0  0  0  0
  4  5  1  0  0  0  0
  6  2  1  0  0  0  0
  7  3  1  0  0  0  0
  8  9  1  0  0  0  0
  9 15  1  0  0  0  0
  9 10  2  0  0  0  0
 10 16  1  0  0  0  0
 11 10  1  0  0  0  0
 12 11  2  0  0  0  0
 13  8  2  0  0  0  0
 13 12  1  0  0  0  0
 14  8  1  0  0  0  0
 17 22  1  0  0  0  0
 18 19  1  0  0  0  0
 18 17  2  0  0  0  0
 19 20  2  0  0  0  0
 20 21  1  0  0  0  0
 21 22  2  0  0  0  0
 21 25  1  0  0  0  0
 23 18  1  0  0  0  0
 24 19  1  0  0  0  0
 25 26  1  0  0  0  0
 25 32  2  0  0  0  0
 26 28  2  0  0  0  0
 27 26  1  0  0  0  0
 28 29  1  0  0  0  0
 28 30  1  0  0  0  0
 30 31  1  0  0  0  0
 32 30  1  0  0  0  0
M  END
>  <minimizedAffinity>
-5.37179422

$$$$

 OpenBabel03262522533D

 32 35  0  0  0  0  0  0  0  0999 V2000
   38.7480   25.4840   35.4450 C   0  0  0  0  0  0  0  0  0  0  0  0
   38.3600   26.6250   36.0090 C   0  0  0  0  0  0  0  0  0  0  0  0
   37.7380   27.5810   35.2330 C   0  0  0  0  0  0  0  0  0  0  0  0
   37.5670   27.2700   33.9190 C   0  0  0  0  0  0  0  0  0  0  0  0
   38.3010   25.6030   33.7890 S   0  0  0  0  0  0  0  0  0  0  0  0
   38.5380   26.7950   37.0870 H   0  0  0  0  0  0  0  0  0  0  0  0
   37.3820   28.5440   35.5960 H   0  0  0  0  0  0  0  0  0  0  0  0
   41.1550   22.8030   36.0130 C   0  0  0  0  0  0  0  0  0  0  0  0
   40.7050   22.1930   37.1790 C   0  0  0  0  0  0  0  0  0  0  0  0
   39.5530   22.7110   37.7780 C   0  0  0  0  0  0  0  0  0  0  0  0
   38.9190   23.7860   37.2060 N   0  0  0  0  0  0  0  0  0  0  0  0
   39.4230   24.3290   36.0630 C   0  0  0  0  0  0  0  0  0  0  0  0
   40.5110   23.8680   35.4620 N   0  0  0  0  0  0  0  0  0  0  0  0
   42.0340   22.4750   35.4780 H   0  0  0  0  0  0  0  0  0  0  0  0
   41.2470   21.3480   37.5820 H   0  0  0  0  0  0  0  0  0  0  0  0
   39.1730   22.2680   38.6800 H   0  0  0  0  0  0  0  0  0  0  0  0
   36.9500   28.0660   32.8550 C   0  0  0  0  0  0  0  0  0  0  0  0
   35.7660   28.6700   33.0650 C   0  0  0  0  0  0  0  0  0  0  0  0
   35.2160   29.4070   32.0480 C   0  0  0  0  0  0  0  0  0  0  0  0
   35.8540   29.5270   30.8450 N   0  0  0  0  0  0  0  0  0  0  0  0
   37.0450   28.8800   30.7280 C   0  0  0  0  0  0  0  0  0  0  0  0
   37.6290   28.1420   31.6980 N   0  0  0  0  0  0  0  0  0  0  0  0
   35.2110   28.6130   33.9990 H   0  0  0  0  0  0  0  0  0  0  0  0
   34.2780   29.9280   32.1130 H   0  0  0  0  0  0  0  0  0  0  0  0
   37.7440   28.9950   29.4480 C   0  0  0  0  0  0  0  0  0  0  0  0
   38.7510   28.1890   28.9600 C   0  0  0  0  0  0  0  0  0  0  0  0
   39.1260   27.3410   29.5420 H   0  0  0  0  0  0  0  0  0  0  0  0
   39.1580   28.6140   27.7170 C   0  0  0  0  0  0  0  0  0  0  0  0
   39.9410   28.0870   27.1980 H   0  0  0  0  0  0  0  0  0  0  0  0
   38.3920   29.6770   27.4610 N   0  0  0  0  0  0  0  0  0  0  0  0
   38.4920   30.2120   26.5530 H   0  0  0  0  0  0  0  0  0  0  0  0
   37.5560   29.9090   28.4770 N   0  0  0  0  0  0  0  0  0  0  0  0
  1  2  2  0  0  0  0
  1 12  1  0  0  0  0
  2  6  1  0  0  0  0
  3  7  1  0  0  0  0
  3  2  1  0  0  0  0
  4  3  2  0  0  0  0
  5  4  1  0  0  0  0
  5  1  1  0  0  0  0
  8  9  1  0  0  0  0
  9 15  1  0  0  0  0
  9 10  2  0  0  0  0
 10 16  1  0  0  0  0
 11 10  1  0  0  0  0
 12 11  2  0  0  0  0
 13  8  2  0  0  0  0
 13 12  1  0  0  0  0
 14  8  1  0  0  0  0
 17 18  1  0  0  0  0
 17  4  1  0  0  0  0
 18 23  1  0  0  0  0
 19 24  1  0  0  0  0
 19 18  2  0  0  0  0
 20 19  1  0  0  0  0
 21 20  2  0  0  0  0
 21 22  1  0  0  0  0
 22 17  2  0  0  0  0
 25 21  1  0  0  0  0
 26 25  1  0  0  0  0
 26 27  1  0  0  0  0
 28 26  2  0  0  0  0
 29 28  1  0  0  0  0
 30 28  1  0  0  0  0
 30 32  1  0  0  0  0
 31 30  1  0  0  0  0
 32 25  2  0  0  0  0
M  END
>  <minimizedAffinity>
-5.31607103

$$$$

 OpenBabel03262522533D

 32 35  0  0  0  0  0  0  0  0999 V2000
   38.4530   25.6760   35.5430 C   0  0  0  0  0  0  0  0  0  0  0  0
   38.2640   26.8970   36.0370 C   0  0  0  0  0  0  0  0  0  0  0  0
   37.6520   27.8520   35.2520 C   0  0  0  0  0  0  0  0  0  0  0  0
   37.2810   27.4560   34.0040 C   0  0  0  0  0  0  0  0  0  0  0  0
   37.8110   25.7090   33.9490 S   0  0  0  0  0  0  0  0  0  0  0  0
   38.5970   27.1330   37.0650 H   0  0  0  0  0  0  0  0  0  0  0  0
   37.4500   28.8770   35.5610 H   0  0  0  0  0  0  0  0  0  0  0  0
   40.7040   22.8680   36.1380 C   0  0  0  0  0  0  0  0  0  0  0  0
   40.2600   22.3350   37.3440 C   0  0  0  0  0  0  0  0  0  0  0  0
   39.1670   22.9510   37.9610 C   0  0  0  0  0  0  0  0  0  0  0  0
   38.5810   24.0420   37.3670 N   0  0  0  0  0  0  0  0  0  0  0  0
   39.0750   24.5040   36.1850 C   0  0  0  0  0  0  0  0  0  0  0  0
   40.1080   23.9500   35.5660 N   0  0  0  0  0  0  0  0  0  0  0  0
   41.5390   22.4620   35.5870 H   0  0  0  0  0  0  0  0  0  0  0  0
   40.7610   21.4740   37.7630 H   0  0  0  0  0  0  0  0  0  0  0  0
   38.7940   22.5700   38.8930 H   0  0  0  0  0  0  0  0  0  0  0  0
   36.6200   28.2290   32.9500 C   0  0  0  0  0  0  0  0  0  0  0  0
   37.2790   28.5250   31.8150 C   0  0  0  0  0  0  0  0  0  0  0  0
   36.6310   29.2510   30.8480 C   0  0  0  0  0  0  0  0  0  0  0  0
   35.3420   29.6660   31.0320 N   0  0  0  0  0  0  0  0  0  0  0  0
   34.7590   29.3190   32.2110 C   0  0  0  0  0  0  0  0  0  0  0  0
   35.3540   28.6070   33.1940 N   0  0  0  0  0  0  0  0  0  0  0  0
   38.3040   28.2220   31.6090 H   0  0  0  0  0  0  0  0  0  0  0  0
   37.0670   29.5380   29.9090 H   0  0  0  0  0  0  0  0  0  0  0  0
   33.3790   29.7560   32.4280 C   0  0  0  0  0  0  0  0  0  0  0  0
   32.8490   31.0120   32.2280 C   0  0  0  0  0  0  0  0  0  0  0  0
   33.4720   31.8350   31.8640 H   0  0  0  0  0  0  0  0  0  0  0  0
   31.5100   31.0340   32.5430 C   0  0  0  0  0  0  0  0  0  0  0  0
   30.9480   31.9460   32.4400 H   0  0  0  0  0  0  0  0  0  0  0  0
   31.2400   29.7860   32.9330 N   0  0  0  0  0  0  0  0  0  0  0  0
   30.2640   29.5120   33.2380 H   0  0  0  0  0  0  0  0  0  0  0  0
   32.3370   29.0260   32.8680 N   0  0  0  0  0  0  0  0  0  0  0  0
  1  2  2  0  0  0  0
  1 12  1  0  0  0  0
  2  6  1  0  0  0  0
  3  7  1  0  0  0  0
  3  2  1  0  0  0  0
  4  3  2  0  0  0  0
  5  4  1  0  0  0  0
  5  1  1  0  0  0  0
  8  9  1  0  0  0  0
  9 15  1  0  0  0  0
  9 10  2  0  0  0  0
 10 16  1  0  0  0  0
 11 10  1  0  0  0  0
 12 11  2  0  0  0  0
 13  8  2  0  0  0  0
 13 12  1  0  0  0  0
 14  8  1  0  0  0  0
 17 22  1  0  0  0  0
 17  4  1  0  0  0  0
 18 17  2  0  0  0  0
 19 20  2  0  0  0  0
 19 18  1  0  0  0  0
 20 21  1  0  0  0  0
 21 25  1  0  0  0  0
 21 22  2  0  0  0  0
 23 18  1  0  0  0  0
 24 19  1  0  0  0  0
 25 32  2  0  0  0  0
 26 25  1  0  0  0  0
 26 28  2  0  0  0  0
 27 26  1  0  0  0  0
 28 30  1  0  0  0  0
 29 28  1  0  0  0  0
 30 31  1  0  0  0  0
 32 30  1  0  0  0  0
M  END
>  <minimizedAffinity>
-5.26905489

$$$$

 OpenBabel03262522533D

 32 35  0  0  0  0  0  0  0  0999 V2000
   36.4240   27.8060   32.2270 C   0  0  0  0  0  0  0  0  0  0  0  0
   35.8880   26.9090   31.4040 C   0  0  0  0  0  0  0  0  0  0  0  0
   36.2030   25.5760   31.5650 C   0  0  0  0  0  0  0  0  0  0  0  0
   37.0610   25.2800   32.5800 C   0  0  0  0  0  0  0  0  0  0  0  0
   37.4200   26.9150   33.3100 S   0  0  0  0  0  0  0  0  0  0  0  0
   35.1980   27.2380   30.6050 H   0  0  0  0  0  0  0  0  0  0  0  0
   35.8190   24.7660   30.9480 H   0  0  0  0  0  0  0  0  0  0  0  0
   35.4780   31.1360   33.3770 C   0  0  0  0  0  0  0  0  0  0  0  0
   35.8790   31.9730   32.3400 C   0  0  0  0  0  0  0  0  0  0  0  0
   36.4820   31.3800   31.2270 C   0  0  0  0  0  0  0  0  0  0  0  0
   36.6570   30.0190   31.1960 N   0  0  0  0  0  0  0  0  0  0  0  0
   36.2380   29.2680   32.2520 C   0  0  0  0  0  0  0  0  0  0  0  0
   35.6600   29.7880   33.3260 N   0  0  0  0  0  0  0  0  0  0  0  0
   35.0030   31.4990   34.2770 H   0  0  0  0  0  0  0  0  0  0  0  0
   35.7140   33.0380   32.4210 H   0  0  0  0  0  0  0  0  0  0  0  0
   36.8060   31.9920   30.4050 H   0  0  0  0  0  0  0  0  0  0  0  0
   37.5790   23.9750   32.9980 C   0  0  0  0  0  0  0  0  0  0  0  0
   37.4860   22.9160   32.1730 C   0  0  0  0  0  0  0  0  0  0  0  0
   37.9810   21.7090   32.5960 C   0  0  0  0  0  0  0  0  0  0  0  0
   38.5570   21.5810   33.8290 N   0  0  0  0  0  0  0  0  0  0  0  0
   38.6050   22.7070   34.5910 C   0  0  0  0  0  0  0  0  0  0  0  0
   38.1320   23.9180   34.2220 N   0  0  0  0  0  0  0  0  0  0  0  0
   37.0400   22.9540   31.1810 H   0  0  0  0  0  0  0  0  0  0  0  0
   37.9570   20.8050   32.0150 H   0  0  0  0  0  0  0  0  0  0  0  0
   39.2170   22.5920   35.9160 C   0  0  0  0  0  0  0  0  0  0  0  0
   40.4740   22.1180   36.2270 C   0  0  0  0  0  0  0  0  0  0  0  0
   41.1540   21.7680   35.4440 H   0  0  0  0  0  0  0  0  0  0  0  0
   40.6910   22.1650   37.5840 C   0  0  0  0  0  0  0  0  0  0  0  0
   41.6300   21.8280   37.9900 H   0  0  0  0  0  0  0  0  0  0  0  0
   39.5600   22.6670   38.0860 N   0  0  0  0  0  0  0  0  0  0  0  0
   39.4470   22.8160   39.1270 H   0  0  0  0  0  0  0  0  0  0  0  0
   38.6860   22.9220   37.1080 N   0  0  0  0  0  0  0  0  0  0  0  0
  1 12  1  0  0  0  0
  1  5  1  0  0  0  0
  2  3  1  0  0  0  0
  2  1  2  0  0  0  0
  3  4  2  0  0  0  0
  4 17  1  0  0  0  0
  4  5  1  0  0  0  0
  6  2  1  0  0  0  0
  7  3  1  0  0  0  0
  8 14  1  0  0  0  0
  9 15  1  0  0  0  0
  9  8  2  0  0  0  0
 10  9  1  0  0  0  0
 11 10  2  0  0  0  0
 11 12  1  0  0  0  0
 12 13  2  0  0  0  0
 13  8  1  0  0  0  0
 16 10  1  0  0  0  0
 17 22  1  0  0  0  0
 18 19  1  0  0  0  0
 18 17  2  0  0  0  0
 19 20  2  0  0  0  0
 20 21  1  0  0  0  0
 21 25  1  0  0  0  0
 22 21  2  0  0  0  0
 23 18  1  0  0  0  0
 24 19  1  0  0  0  0
 25 26  1  0  0  0  0
 25 32  2  0  0  0  0
 26 28  2  0  0  0  0
 27 26  1  0  0  0  0
 28 29  1  0  0  0  0
 28 30  1  0  0  0  0
 30 31  1  0  0  0  0
 32 30  1  0  0  0  0
M  END
>  <minimizedAffinity>
-5.21887636

$$$$
