
 OpenBabel03272509523D

 42 45  0  0  0  0  0  0  0  0999 V2000
   34.4620   28.6450   48.1440 C   0  0  0  0  0  0  0  0  0  0  0  0
   35.2830   28.8760   47.4520 H   0  0  0  0  0  0  0  0  0  0  0  0
   33.8000   29.5520   48.2400 H   0  0  0  0  0  0  0  0  0  0  0  0
   33.5900   27.5210   47.6860 C   0  0  0  0  0  0  0  0  0  0  0  0
   33.7870   26.5680   48.2140 H   0  0  0  0  0  0  0  0  0  0  0  0
   33.8180   27.3390   46.6060 H   0  0  0  0  0  0  0  0  0  0  0  0
   32.1400   27.8490   47.7310 C   0  0  0  0  0  0  0  0  0  0  0  0
   31.3920   27.2940   48.7590 C   0  0  0  0  0  0  0  0  0  0  0  0
   30.0550   27.5240   48.8990 C   0  0  0  0  0  0  0  0  0  0  0  0
   29.4520   28.3060   48.0240 N   0  0  0  0  0  0  0  0  0  0  0  0
   30.1820   28.8610   47.0000 C   0  0  0  0  0  0  0  0  0  0  0  0
   31.5100   28.6440   46.8450 N   0  0  0  0  0  0  0  0  0  0  0  0
   31.8850   26.6460   49.4880 H   0  0  0  0  0  0  0  0  0  0  0  0
   29.4570   27.0960   49.7000 H   0  0  0  0  0  0  0  0  0  0  0  0
   29.5420   29.7300   46.0160 C   0  0  0  0  0  0  0  0  0  0  0  0
   30.3410   30.4540   45.1240 C   0  0  0  0  0  0  0  0  0  0  0  0
   31.4220   30.5220   44.9850 H   0  0  0  0  0  0  0  0  0  0  0  0
   29.4740   31.1890   44.3090 C   0  0  0  0  0  0  0  0  0  0  0  0
   29.6370   31.8760   43.4940 H   0  0  0  0  0  0  0  0  0  0  0  0
   28.2240   30.8970   44.7190 N   0  0  0  0  0  0  0  0  0  0  0  0
   27.3160   31.2800   44.3180 H   0  0  0  0  0  0  0  0  0  0  0  0
   28.2560   30.0270   45.7380 N   0  0  0  0  0  0  0  0  0  0  0  0
   34.9880   28.3750   49.4460 O   0  0  0  0  0  0  0  0  0  0  0  0
   37.3310   30.1690   51.5150 C   0  0  0  0  0  0  0  0  0  0  0  0
   38.0740   30.8640   50.5120 C   0  0  0  0  0  0  0  0  0  0  0  0
   37.7030   30.6570   49.1900 C   0  0  0  0  0  0  0  0  0  0  0  0
   36.6610   29.8050   48.9680 N   0  0  0  0  0  0  0  0  0  0  0  0
   35.9860   29.1700   49.9320 C   0  0  0  0  0  0  0  0  0  0  0  0
   36.3270   29.3560   51.2140 N   0  0  0  0  0  0  0  0  0  0  0  0
   37.6820   30.3840   52.5160 H   0  0  0  0  0  0  0  0  0  0  0  0
   38.8850   31.5240   50.7100 H   0  0  0  0  0  0  0  0  0  0  0  0
   38.9350   33.2710   49.0130 F   0  0  0  0  0  0  0  0  0  0  0  0
   38.9160   32.4870   47.9490 C   0  0  0  0  0  0  0  0  0  0  0  0
   38.3360   31.2710   48.0530 C   0  0  0  0  0  0  0  0  0  0  0  0
   38.3700   30.5240   46.8710 C   0  0  0  0  0  0  0  0  0  0  0  0
   38.9470   30.9930   45.7090 C   0  0  0  0  0  0  0  0  0  0  0  0
   39.5240   32.2380   45.6530 C   0  0  0  0  0  0  0  0  0  0  0  0
   39.5000   32.9850   46.8010 C   0  0  0  0  0  0  0  0  0  0  0  0
   37.9390   29.5220   46.8140 H   0  0  0  0  0  0  0  0  0  0  0  0
   38.9530   30.3830   44.8150 H   0  0  0  0  0  0  0  0  0  0  0  0
   39.9700   32.6010   44.7500 H   0  0  0  0  0  0  0  0  0  0  0  0
   39.9480   33.9660   46.7780 H   0  0  0  0  0  0  0  0  0  0  0  0
  1  3  1  0  0  0  0
  1 23  1  0  0  0  0
  2  1  1  0  0  0  0
  4  7  1  0  0  0  0
  4  1  1  0  0  0  0
  4  5  1  0  0  0  0
  6  4  1  0  0  0  0
  7  8  1  0  0  0  0
  8  9  2  0  0  0  0
  8 13  1  0  0  0  0
  9 14  1  0  0  0  0
 10  9  1  0  0  0  0
 11 10  2  0  0  0  0
 12 11  1  0  0  0  0
 12  7  2  0  0  0  0
 15 11  1  0  0  0  0
 16 15  1  0  0  0  0
 17 16  1  0  0  0  0
 18 20  1  0  0  0  0
 18 16  2  0  0  0  0
 19 18  1  0  0  0  0
 20 22  1  0  0  0  0
 21 20  1  0  0  0  0
 22 15  2  0  0  0  0
 23 28  1  0  0  0  0
 24 30  1  0  0  0  0
 25 31  1  0  0  0  0
 25 24  2  0  0  0  0
 26 25  1  0  0  0  0
 27 26  2  0  0  0  0
 27 28  1  0  0  0  0
 28 29  2  0  0  0  0
 29 24  1  0  0  0  0
 33 34  1  0  0  0  0
 33 32  1  0  0  0  0
 34 26  1  0  0  0  0
 35 34  2  0  0  0  0
 36 35  1  0  0  0  0
 37 36  2  0  0  0  0
 37 38  1  0  0  0  0
 38 33  2  0  0  0  0
 39 35  1  0  0  0  0
 40 36  1  0  0  0  0
 41 37  1  0  0  0  0
 42 38  1  0  0  0  0
M  END
>  <minimizedAffinity>
-6.48914814

>  <minimizedRMSD>
0.266966343

$$$$
