
 OpenBabel03262523233D

 39 42  0  0  1  0  0  0  0  0999 V2000
   39.6770   33.1320   44.7300 C   0  0  0  0  0  0  0  0  0  0  0  0
   40.5760   32.1450   44.3400 C   0  0  0  0  0  0  0  0  0  0  0  0
   40.6460   31.0020   45.1050 C   0  0  0  0  0  0  0  0  0  0  0  0
   39.8390   30.9030   46.1910 N   0  0  0  0  0  0  0  0  0  0  0  0
   38.9670   31.8860   46.5500 C   0  0  0  0  0  0  0  0  0  0  0  0
   38.8870   32.9920   45.8260 N   0  0  0  0  0  0  0  0  0  0  0  0
   38.1430   31.6970   47.7270 N   0  0  0  0  0  0  0  0  0  0  0  0
   37.9860   32.7840   48.6550 C   0  0  0  0  0  0  0  0  0  0  0  0
   37.7650   32.3090   50.0730 C   0  0  0  0  0  0  0  0  0  0  0  0
   38.3070   30.9050   50.1790 C   0  0  0  0  0  0  0  0  0  0  0  0
   37.3630   30.0430   49.3700 C   0  0  0  0  0  0  0  0  0  0  0  0
   37.4980   30.3950   47.9320 C   0  0  1  0  0  0  0  0  0  0  0  0
   39.6180   34.0320   44.1330 H   0  0  0  0  0  0  0  0  0  0  0  0
   41.2120   32.2380   43.4730 H   0  0  0  0  0  0  0  0  0  0  0  0
   41.3110   30.1970   44.8710 H   0  0  0  0  0  0  0  0  0  0  0  0
   37.1400   33.4280   48.3820 H   0  0  0  0  0  0  0  0  0  0  0  0
   38.9080   33.4070   48.5960 H   0  0  0  0  0  0  0  0  0  0  0  0
   36.6730   32.2730   50.3110 H   0  0  0  0  0  0  0  0  0  0  0  0
   38.3440   32.9410   50.7720 H   0  0  0  0  0  0  0  0  0  0  0  0
   39.3100   30.8800   49.7330 H   0  0  0  0  0  0  0  0  0  0  0  0
   38.2700   30.5310   51.2300 H   0  0  0  0  0  0  0  0  0  0  0  0
   36.3880   30.2030   49.8360 H   0  0  0  0  0  0  0  0  0  0  0  0
   37.7110   28.9860   49.5620 H   0  0  0  0  0  0  0  0  0  0  0  0
   38.2020   29.6760   47.4360 H   0  0  0  0  0  0  0  0  0  0  0  0
   36.2380   30.2950   47.1810 C   0  0  0  0  0  0  0  0  0  0  0  0
   34.9310   30.2050   47.7090 C   0  0  0  0  0  0  0  0  0  0  0  0
   33.8960   30.1390   46.8310 C   0  0  0  0  0  0  0  0  0  0  0  0
   34.1830   30.1650   45.4270 C   0  0  0  0  0  0  0  0  0  0  0  0
   36.0670   30.2900   45.4650 S   0  0  0  0  0  0  0  0  0  0  0  0
   34.6830   30.1850   48.7640 H   0  0  0  0  0  0  0  0  0  0  0  0
   32.8530   30.0690   46.9830 H   0  0  0  0  0  0  0  0  0  0  0  0
   33.4740   30.1220   44.2430 C   0  0  0  0  0  0  0  0  0  0  0  0
   33.0200   29.0470   43.5570 C   0  0  0  0  0  0  0  0  0  0  0  0
   33.1270   27.9980   43.8090 H   0  0  0  0  0  0  0  0  0  0  0  0
   32.3640   29.5420   42.4220 C   0  0  0  0  0  0  0  0  0  0  0  0
   31.8830   28.9280   41.6590 H   0  0  0  0  0  0  0  0  0  0  0  0
   32.4540   30.9040   42.4790 N   0  0  0  0  0  0  0  0  0  0  0  0
   32.0310   31.5000   41.7270 H   0  0  0  0  0  0  0  0  0  0  0  0
   33.1320   31.2400   43.5910 N   0  0  0  0  0  0  0  0  0  0  0  0
  1  6  1  0  0  0  0
  2  1  2  0  0  0  0
  2  3  1  0  0  0  0
  3  4  2  0  0  0  0
  4  5  1  0  0  0  0
  5  7  1  0  0  0  0
  6  5  2  0  0  0  0
  7 12  1  0  0  0  0
  7  8  1  0  0  0  0
  8  9  1  0  0  0  0
  9 10  1  0  0  0  0
  9 18  1  0  0  0  0
  9 19  1  0  0  0  0
 10 21  1  0  0  0  0
 11 23  1  0  0  0  0
 11 22  1  0  0  0  0
 11 10  1  0  0  0  0
 12 24  1  6  0  0  0
 12 11  1  0  0  0  0
 13  1  1  0  0  0  0
 14  2  1  0  0  0  0
 15  3  1  0  0  0  0
 16  8  1  0  0  0  0
 17  8  1  0  0  0  0
 20 10  1  0  0  0  0
 25 26  2  0  0  0  0
 25 12  1  0  0  0  0
 26 30  1  0  0  0  0
 27 31  1  0  0  0  0
 27 26  1  0  0  0  0
 28 29  1  0  0  0  0
 28 27  2  0  0  0  0
 29 25  1  0  0  0  0
 32 28  1  0  0  0  0
 33 34  1  0  0  0  0
 33 32  1  0  0  0  0
 35 37  1  0  0  0  0
 35 33  2  0  0  0  0
 36 35  1  0  0  0  0
 37 39  1  0  0  0  0
 38 37  1  0  0  0  0
 39 32  2  0  0  0  0
M  END
>  <minimizedAffinity>
-5.47690821

>  <minimizedRMSD>
0.190525606

$$$$
