
 OpenBabel03272510223D

 35 38  0  0  0  0  0  0  0  0999 V2000
   40.3060   24.2180   34.0980 Br  0  0  0  0  0  0  0  0  0  0  0  0
   38.9910   25.5890   33.9300 C   0  0  0  0  0  0  0  0  0  0  0  0
   37.9900   25.7260   34.8900 C   0  0  0  0  0  0  0  0  0  0  0  0
   37.0730   26.7320   34.7140 C   0  0  0  0  0  0  0  0  0  0  0  0
   37.1070   27.5990   33.6350 C   0  0  0  0  0  0  0  0  0  0  0  0
   38.0960   27.4440   32.7110 C   0  0  0  0  0  0  0  0  0  0  0  0
   39.0240   26.4400   32.8730 C   0  0  0  0  0  0  0  0  0  0  0  0
   36.2720   26.8900   35.4230 H   0  0  0  0  0  0  0  0  0  0  0  0
   38.1570   28.1020   31.8540 H   0  0  0  0  0  0  0  0  0  0  0  0
   39.8050   26.3460   32.1100 H   0  0  0  0  0  0  0  0  0  0  0  0
   38.1060   24.6020   38.3600 C   0  0  0  0  0  0  0  0  0  0  0  0
   37.8180   23.2050   38.2640 C   0  0  0  0  0  0  0  0  0  0  0  0
   37.5920   22.6840   37.0100 C   0  0  0  0  0  0  0  0  0  0  0  0
   37.6500   23.5130   35.9210 N   0  0  0  0  0  0  0  0  0  0  0  0
   37.9240   24.8330   36.0340 C   0  0  0  0  0  0  0  0  0  0  0  0
   38.1530   25.3740   37.2690 N   0  0  0  0  0  0  0  0  0  0  0  0
   38.2900   25.0430   39.3360 H   0  0  0  0  0  0  0  0  0  0  0  0
   37.7870   22.6140   39.1460 H   0  0  0  0  0  0  0  0  0  0  0  0
   37.3690   21.6270   36.8800 H   0  0  0  0  0  0  0  0  0  0  0  0
   36.1350   28.6710   33.4440 C   0  0  0  0  0  0  0  0  0  0  0  0
   35.5120   28.9720   32.2550 C   0  0  0  0  0  0  0  0  0  0  0  0
   34.5960   30.0030   32.1340 C   0  0  0  0  0  0  0  0  0  0  0  0
   34.2920   30.7430   33.2000 N   0  0  0  0  0  0  0  0  0  0  0  0
   34.8850   30.4680   34.3670 C   0  0  0  0  0  0  0  0  0  0  0  0
   35.7750   29.4650   34.4790 N   0  0  0  0  0  0  0  0  0  0  0  0
   35.7620   28.3670   31.3890 H   0  0  0  0  0  0  0  0  0  0  0  0
   34.1390   30.1880   31.1620 H   0  0  0  0  0  0  0  0  0  0  0  0
   34.6560   31.1870   35.6170 C   0  0  0  0  0  0  0  0  0  0  0  0
   33.3710   31.2770   36.1480 C   0  0  0  0  0  0  0  0  0  0  0  0
   32.4550   30.8790   35.7620 H   0  0  0  0  0  0  0  0  0  0  0  0
   33.4310   32.0110   37.3380 C   0  0  0  0  0  0  0  0  0  0  0  0
   32.5790   32.2400   37.9670 H   0  0  0  0  0  0  0  0  0  0  0  0
   34.7500   32.3350   37.4800 N   0  0  0  0  0  0  0  0  0  0  0  0
   35.1020   32.8890   38.2880 H   0  0  0  0  0  0  0  0  0  0  0  0
   35.4630   31.8610   36.4880 N   0  0  0  0  0  0  0  0  0  0  0  0
  2  1  1  0  0  0  0
  2  3  1  0  0  0  0
  3 15  1  0  0  0  0
  4  3  2  0  0  0  0
  4  8  1  0  0  0  0
  5  4  1  0  0  0  0
  6  7  1  0  0  0  0
  6  5  2  0  0  0  0
  7  2  2  0  0  0  0
  9  6  1  0  0  0  0
 10  7  1  0  0  0  0
 11 17  1  0  0  0  0
 12 11  1  0  0  0  0
 12 18  1  0  0  0  0
 13 12  2  0  0  0  0
 14 15  2  0  0  0  0
 14 13  1  0  0  0  0
 15 16  1  0  0  0  0
 16 11  2  0  0  0  0
 19 13  1  0  0  0  0
 20  5  1  0  0  0  0
 20 25  1  0  0  0  0
 21 20  2  0  0  0  0
 22 21  1  0  0  0  0
 22 23  2  0  0  0  0
 23 24  1  0  0  0  0
 24 25  2  0  0  0  0
 24 28  1  0  0  0  0
 26 21  1  0  0  0  0
 27 22  1  0  0  0  0
 28 29  1  0  0  0  0
 28 35  2  0  0  0  0
 29 31  2  0  0  0  0
 30 29  1  0  0  0  0
 31 33  1  0  0  0  0
 31 32  1  0  0  0  0
 33 34  1  0  0  0  0
 35 33  1  0  0  0  0
M  END
>  <minimizedAffinity>
-6.09475708

$$$$

 OpenBabel03272510223D

 35 38  0  0  0  0  0  0  0  0999 V2000
   35.7190   31.2890   31.8420 Br  0  0  0  0  0  0  0  0  0  0  0  0
   36.2890   29.5480   32.3700 C   0  0  0  0  0  0  0  0  0  0  0  0
   36.0360   29.0850   33.6610 C   0  0  0  0  0  0  0  0  0  0  0  0
   36.4700   27.8230   33.9810 C   0  0  0  0  0  0  0  0  0  0  0  0
   37.1390   27.0090   33.0830 C   0  0  0  0  0  0  0  0  0  0  0  0
   37.3740   27.4840   31.8280 C   0  0  0  0  0  0  0  0  0  0  0  0
   36.9440   28.7470   31.4910 C   0  0  0  0  0  0  0  0  0  0  0  0
   36.3050   27.4080   34.9650 H   0  0  0  0  0  0  0  0  0  0  0  0
   37.8930   26.8770   31.0970 H   0  0  0  0  0  0  0  0  0  0  0  0
   37.1500   29.0960   30.4720 H   0  0  0  0  0  0  0  0  0  0  0  0
   33.2840   30.4890   35.6050 C   0  0  0  0  0  0  0  0  0  0  0  0
   33.9300   31.4510   36.4420 C   0  0  0  0  0  0  0  0  0  0  0  0
   35.2940   31.5930   36.3190 C   0  0  0  0  0  0  0  0  0  0  0  0
   35.9680   30.8200   35.4120 N   0  0  0  0  0  0  0  0  0  0  0  0
   35.3370   29.9140   34.6280 C   0  0  0  0  0  0  0  0  0  0  0  0
   33.9830   29.7540   34.7320 N   0  0  0  0  0  0  0  0  0  0  0  0
   32.2090   30.3530   35.6790 H   0  0  0  0  0  0  0  0  0  0  0  0
   33.3520   32.0220   37.1270 H   0  0  0  0  0  0  0  0  0  0  0  0
   35.8350   32.3110   36.9320 H   0  0  0  0  0  0  0  0  0  0  0  0
   37.6020   25.6660   33.4190 C   0  0  0  0  0  0  0  0  0  0  0  0
   37.8580   24.6660   32.5090 C   0  0  0  0  0  0  0  0  0  0  0  0
   38.2970   23.4090   32.8880 C   0  0  0  0  0  0  0  0  0  0  0  0
   38.4860   23.1380   34.1790 N   0  0  0  0  0  0  0  0  0  0  0  0
   38.2450   24.0950   35.0820 C   0  0  0  0  0  0  0  0  0  0  0  0
   37.8170   25.3160   34.7090 N   0  0  0  0  0  0  0  0  0  0  0  0
   37.7030   24.8900   31.4590 H   0  0  0  0  0  0  0  0  0  0  0  0
   38.4800   22.6630   32.1160 H   0  0  0  0  0  0  0  0  0  0  0  0
   38.4040   23.9500   36.5260 C   0  0  0  0  0  0  0  0  0  0  0  0
   37.7780   24.8450   37.3920 C   0  0  0  0  0  0  0  0  0  0  0  0
   37.1560   25.6830   37.1580 H   0  0  0  0  0  0  0  0  0  0  0  0
   38.0900   24.4830   38.7080 C   0  0  0  0  0  0  0  0  0  0  0  0
   37.7410   25.0030   39.5910 H   0  0  0  0  0  0  0  0  0  0  0  0
   38.8920   23.3840   38.5850 N   0  0  0  0  0  0  0  0  0  0  0  0
   39.2840   22.8880   39.4120 H   0  0  0  0  0  0  0  0  0  0  0  0
   39.0760   23.0720   37.3250 N   0  0  0  0  0  0  0  0  0  0  0  0
  1  2  1  0  0  0  0
  2  3  1  0  0  0  0
  3  4  2  0  0  0  0
  3 15  1  0  0  0  0
  4  8  1  0  0  0  0
  5 20  1  0  0  0  0
  5  4  1  0  0  0  0
  6  5  2  0  0  0  0
  7  6  1  0  0  0  0
  7  2  2  0  0  0  0
  9  6  1  0  0  0  0
 10  7  1  0  0  0  0
 11 17  1  0  0  0  0
 11 12  1  0  0  0  0
 12 18  1  0  0  0  0
 13 12  2  0  0  0  0
 13 19  1  0  0  0  0
 14 13  1  0  0  0  0
 15 16  1  0  0  0  0
 15 14  2  0  0  0  0
 16 11  2  0  0  0  0
 20 25  1  0  0  0  0
 21 22  1  0  0  0  0
 21 20  2  0  0  0  0
 22 23  2  0  0  0  0
 23 24  1  0  0  0  0
 24 28  1  0  0  0  0
 25 24  2  0  0  0  0
 26 21  1  0  0  0  0
 27 22  1  0  0  0  0
 28 35  2  0  0  0  0
 28 29  1  0  0  0  0
 29 31  2  0  0  0  0
 30 29  1  0  0  0  0
 31 32  1  0  0  0  0
 33 31  1  0  0  0  0
 33 34  1  0  0  0  0
 35 33  1  0  0  0  0
M  END
>  <minimizedAffinity>
-6.05192137

$$$$

 OpenBabel03272510223D

 35 38  0  0  0  0  0  0  0  0999 V2000
   37.2990   28.5640   29.3950 Br  0  0  0  0  0  0  0  0  0  0  0  0
   36.6190   29.2370   31.0440 C   0  0  0  0  0  0  0  0  0  0  0  0
   36.1820   28.3600   32.0360 C   0  0  0  0  0  0  0  0  0  0  0  0
   35.7040   28.9050   33.2010 C   0  0  0  0  0  0  0  0  0  0  0  0
   35.6420   30.2700   33.4220 C   0  0  0  0  0  0  0  0  0  0  0  0
   36.0760   31.1060   32.4370 C   0  0  0  0  0  0  0  0  0  0  0  0
   36.5580   30.5750   31.2620 C   0  0  0  0  0  0  0  0  0  0  0  0
   35.3500   28.2790   34.0080 H   0  0  0  0  0  0  0  0  0  0  0  0
   36.0440   32.1800   32.5710 H   0  0  0  0  0  0  0  0  0  0  0  0
   36.8990   31.2780   30.4920 H   0  0  0  0  0  0  0  0  0  0  0  0
   37.4110   24.9280   32.2010 C   0  0  0  0  0  0  0  0  0  0  0  0
   36.4080   24.1850   31.5040 C   0  0  0  0  0  0  0  0  0  0  0  0
   35.3350   24.8810   30.9950 C   0  0  0  0  0  0  0  0  0  0  0  0
   35.2720   26.2370   31.1730 N   0  0  0  0  0  0  0  0  0  0  0  0
   36.2330   26.9220   31.8370 C   0  0  0  0  0  0  0  0  0  0  0  0
   37.3080   26.2530   32.3520 N   0  0  0  0  0  0  0  0  0  0  0  0
   38.2700   24.4070   32.6150 H   0  0  0  0  0  0  0  0  0  0  0  0
   36.5130   23.1330   31.3980 H   0  0  0  0  0  0  0  0  0  0  0  0
   34.5440   24.3640   30.4560 H   0  0  0  0  0  0  0  0  0  0  0  0
   35.1360   30.8550   34.6590 C   0  0  0  0  0  0  0  0  0  0  0  0
   35.8210   31.7450   35.4540 C   0  0  0  0  0  0  0  0  0  0  0  0
   35.2870   32.2670   36.6200 C   0  0  0  0  0  0  0  0  0  0  0  0
   34.0620   31.9070   37.0030 N   0  0  0  0  0  0  0  0  0  0  0  0
   33.3770   31.0440   36.2460 C   0  0  0  0  0  0  0  0  0  0  0  0
   33.9000   30.5380   35.1130 N   0  0  0  0  0  0  0  0  0  0  0  0
   36.8180   32.0350   35.1390 H   0  0  0  0  0  0  0  0  0  0  0  0
   35.8850   32.9670   37.2030 H   0  0  0  0  0  0  0  0  0  0  0  0
   32.0310   30.5560   36.5330 C   0  0  0  0  0  0  0  0  0  0  0  0
   31.8010   29.1910   36.6980 C   0  0  0  0  0  0  0  0  0  0  0  0
   32.4990   28.3810   36.6440 H   0  0  0  0  0  0  0  0  0  0  0  0
   30.4410   28.9970   36.9630 C   0  0  0  0  0  0  0  0  0  0  0  0
   29.9760   28.0340   37.1340 H   0  0  0  0  0  0  0  0  0  0  0  0
   29.9020   30.2520   36.9480 N   0  0  0  0  0  0  0  0  0  0  0  0
   28.8890   30.4230   37.1180 H   0  0  0  0  0  0  0  0  0  0  0  0
   30.8170   31.1570   36.7010 N   0  0  0  0  0  0  0  0  0  0  0  0
  1  2  1  0  0  0  0
  2  7  2  0  0  0  0
  2  3  1  0  0  0  0
  3  4  2  0  0  0  0
  4  5  1  0  0  0  0
  4  8  1  0  0  0  0
  5 20  1  0  0  0  0
  6  9  1  0  0  0  0
  6  5  2  0  0  0  0
  7  6  1  0  0  0  0
 10  7  1  0  0  0  0
 11 16  1  0  0  0  0
 11 17  1  0  0  0  0
 12 11  2  0  0  0  0
 13 14  2  0  0  0  0
 13 12  1  0  0  0  0
 14 15  1  0  0  0  0
 15  3  1  0  0  0  0
 15 16  2  0  0  0  0
 18 12  1  0  0  0  0
 19 13  1  0  0  0  0
 20 25  2  0  0  0  0
 20 21  1  0  0  0  0
 21 22  2  0  0  0  0
 22 23  1  0  0  0  0
 22 27  1  0  0  0  0
 24 28  1  0  0  0  0
 24 23  2  0  0  0  0
 25 24  1  0  0  0  0
 26 21  1  0  0  0  0
 28 29  1  0  0  0  0
 28 35  2  0  0  0  0
 29 31  2  0  0  0  0
 30 29  1  0  0  0  0
 31 32  1  0  0  0  0
 33 31  1  0  0  0  0
 33 34  1  0  0  0  0
 35 33  1  0  0  0  0
M  END
>  <minimizedAffinity>
-5.92456865

$$$$

 OpenBabel03272510223D

 35 38  0  0  0  0  0  0  0  0999 V2000
   39.5720   23.5690   35.0700 Br  0  0  0  0  0  0  0  0  0  0  0  0
   38.5260   25.0890   34.5900 C   0  0  0  0  0  0  0  0  0  0  0  0
   37.8020   25.0990   33.3990 C   0  0  0  0  0  0  0  0  0  0  0  0
   37.0680   26.2220   33.1090 C   0  0  0  0  0  0  0  0  0  0  0  0
   37.0230   27.3260   33.9440 C   0  0  0  0  0  0  0  0  0  0  0  0
   37.7380   27.2910   35.1030 C   0  0  0  0  0  0  0  0  0  0  0  0
   38.4790   26.1720   35.4080 C   0  0  0  0  0  0  0  0  0  0  0  0
   36.4860   26.2920   32.2010 H   0  0  0  0  0  0  0  0  0  0  0  0
   37.7280   28.1340   35.7820 H   0  0  0  0  0  0  0  0  0  0  0  0
   39.0420   26.1800   36.3490 H   0  0  0  0  0  0  0  0  0  0  0  0
   38.8250   22.9500   30.6320 C   0  0  0  0  0  0  0  0  0  0  0  0
   37.9480   21.8270   30.7460 C   0  0  0  0  0  0  0  0  0  0  0  0
   37.0270   21.8360   31.7690 C   0  0  0  0  0  0  0  0  0  0  0  0
   36.9890   22.9050   32.6250 N   0  0  0  0  0  0  0  0  0  0  0  0
   37.8290   23.9580   32.5000 C   0  0  0  0  0  0  0  0  0  0  0  0
   38.7520   23.9730   31.4920 N   0  0  0  0  0  0  0  0  0  0  0  0
   39.5630   22.9730   29.8350 H   0  0  0  0  0  0  0  0  0  0  0  0
   38.0260   21.0280   30.0500 H   0  0  0  0  0  0  0  0  0  0  0  0
   36.3360   21.0060   31.9010 H   0  0  0  0  0  0  0  0  0  0  0  0
   36.2430   28.5210   33.6410 C   0  0  0  0  0  0  0  0  0  0  0  0
   35.8650   28.9230   32.3810 C   0  0  0  0  0  0  0  0  0  0  0  0
   35.1230   30.0700   32.1550 C   0  0  0  0  0  0  0  0  0  0  0  0
   34.7510   30.8280   33.1860 N   0  0  0  0  0  0  0  0  0  0  0  0
   35.1070   30.4570   34.4210 C   0  0  0  0  0  0  0  0  0  0  0  0
   35.8280   29.3410   34.6360 N   0  0  0  0  0  0  0  0  0  0  0  0
   36.1700   28.3030   31.5440 H   0  0  0  0  0  0  0  0  0  0  0  0
   34.8580   30.3300   31.1310 H   0  0  0  0  0  0  0  0  0  0  0  0
   34.7760   31.1810   35.6450 C   0  0  0  0  0  0  0  0  0  0  0  0
   33.4640   31.2000   36.1140 C   0  0  0  0  0  0  0  0  0  0  0  0
   32.5940   30.7390   35.6950 H   0  0  0  0  0  0  0  0  0  0  0  0
   33.4230   31.9560   37.2920 C   0  0  0  0  0  0  0  0  0  0  0  0
   32.5310   32.1420   37.8770 H   0  0  0  0  0  0  0  0  0  0  0  0
   34.7120   32.3640   37.4880 N   0  0  0  0  0  0  0  0  0  0  0  0
   34.9910   32.9520   38.3010 H   0  0  0  0  0  0  0  0  0  0  0  0
   35.4980   31.9180   36.5380 N   0  0  0  0  0  0  0  0  0  0  0  0
  2  1  1  0  0  0  0
  2  7  1  0  0  0  0
  3  2  2  0  0  0  0
  4  3  1  0  0  0  0
  4  5  2  0  0  0  0
  5  6  1  0  0  0  0
  6  7  2  0  0  0  0
  6  9  1  0  0  0  0
  7 10  1  0  0  0  0
  8  4  1  0  0  0  0
 11 12  2  0  0  0  0
 11 16  1  0  0  0  0
 12 13  1  0  0  0  0
 13 19  1  0  0  0  0
 13 14  2  0  0  0  0
 15 14  1  0  0  0  0
 15  3  1  0  0  0  0
 16 15  2  0  0  0  0
 17 11  1  0  0  0  0
 18 12  1  0  0  0  0
 20  5  1  0  0  0  0
 20 25  1  0  0  0  0
 21 20  2  0  0  0  0
 22 21  1  0  0  0  0
 22 23  2  0  0  0  0
 23 24  1  0  0  0  0
 24 25  2  0  0  0  0
 24 28  1  0  0  0  0
 26 21  1  0  0  0  0
 27 22  1  0  0  0  0
 28 29  1  0  0  0  0
 28 35  2  0  0  0  0
 29 31  2  0  0  0  0
 30 29  1  0  0  0  0
 31 33  1  0  0  0  0
 31 32  1  0  0  0  0
 33 34  1  0  0  0  0
 35 33  1  0  0  0  0
M  END
>  <minimizedAffinity>
-5.76760483

$$$$

 OpenBabel03272510223D

 35 38  0  0  0  0  0  0  0  0999 V2000
   37.0540   22.8690   32.1510 Br  0  0  0  0  0  0  0  0  0  0  0  0
   36.8120   24.7550   32.2890 C   0  0  0  0  0  0  0  0  0  0  0  0
   37.5210   25.4890   33.2390 C   0  0  0  0  0  0  0  0  0  0  0  0
   37.3030   26.8430   33.2890 C   0  0  0  0  0  0  0  0  0  0  0  0
   36.4200   27.4940   32.4460 C   0  0  0  0  0  0  0  0  0  0  0  0
   35.7390   26.7550   31.5260 C   0  0  0  0  0  0  0  0  0  0  0  0
   35.9460   25.3950   31.4620 C   0  0  0  0  0  0  0  0  0  0  0  0
   37.8220   27.4670   34.0040 H   0  0  0  0  0  0  0  0  0  0  0  0
   35.0400   27.2260   30.8470 H   0  0  0  0  0  0  0  0  0  0  0  0
   35.3820   24.8330   30.7090 H   0  0  0  0  0  0  0  0  0  0  0  0
   38.8030   23.8700   36.2480 C   0  0  0  0  0  0  0  0  0  0  0  0
   40.1660   23.5910   35.9170 C   0  0  0  0  0  0  0  0  0  0  0  0
   40.6100   23.9670   34.6690 C   0  0  0  0  0  0  0  0  0  0  0  0
   39.7420   24.5830   33.8070 N   0  0  0  0  0  0  0  0  0  0  0  0
   38.4550   24.8370   34.1410 C   0  0  0  0  0  0  0  0  0  0  0  0
   37.9900   24.4740   35.3740 N   0  0  0  0  0  0  0  0  0  0  0  0
   38.4220   23.5860   37.2250 H   0  0  0  0  0  0  0  0  0  0  0  0
   40.7910   23.1100   36.6290 H   0  0  0  0  0  0  0  0  0  0  0  0
   41.6380   23.7780   34.3660 H   0  0  0  0  0  0  0  0  0  0  0  0
   36.1850   28.9330   32.4950 C   0  0  0  0  0  0  0  0  0  0  0  0
   36.3110   29.7940   31.4280 C   0  0  0  0  0  0  0  0  0  0  0  0
   36.0750   31.1540   31.5360 C   0  0  0  0  0  0  0  0  0  0  0  0
   35.7080   31.6680   32.7100 N   0  0  0  0  0  0  0  0  0  0  0  0
   35.5780   30.8510   33.7600 C   0  0  0  0  0  0  0  0  0  0  0  0
   35.8100   29.5290   33.6510 N   0  0  0  0  0  0  0  0  0  0  0  0
   36.6100   29.3710   30.4750 H   0  0  0  0  0  0  0  0  0  0  0  0
   36.1940   31.7780   30.6510 H   0  0  0  0  0  0  0  0  0  0  0  0
   35.1870   31.2640   35.1050 C   0  0  0  0  0  0  0  0  0  0  0  0
   33.8520   31.1920   35.4980 C   0  0  0  0  0  0  0  0  0  0  0  0
   33.0030   30.8600   34.9370 H   0  0  0  0  0  0  0  0  0  0  0  0
   33.7520   31.6420   36.8200 C   0  0  0  0  0  0  0  0  0  0  0  0
   32.8310   31.6960   37.3870 H   0  0  0  0  0  0  0  0  0  0  0  0
   35.0310   31.9680   37.1730 N   0  0  0  0  0  0  0  0  0  0  0  0
   35.2690   32.3390   38.1170 H   0  0  0  0  0  0  0  0  0  0  0  0
   35.8640   31.7520   36.1850 N   0  0  0  0  0  0  0  0  0  0  0  0
  1  2  1  0  0  0  0
  2  3  1  0  0  0  0
  3  4  2  0  0  0  0
  3 15  1  0  0  0  0
  4  8  1  0  0  0  0
  5 20  1  0  0  0  0
  5  4  1  0  0  0  0
  6  5  2  0  0  0  0
  7  6  1  0  0  0  0
  7  2  2  0  0  0  0
  9  6  1  0  0  0  0
 10  7  1  0  0  0  0
 11 17  1  0  0  0  0
 12 11  1  0  0  0  0
 12 18  1  0  0  0  0
 13 12  2  0  0  0  0
 14 15  2  0  0  0  0
 14 13  1  0  0  0  0
 15 16  1  0  0  0  0
 16 11  2  0  0  0  0
 19 13  1  0  0  0  0
 20 25  1  0  0  0  0
 21 22  1  0  0  0  0
 21 20  2  0  0  0  0
 22 23  2  0  0  0  0
 23 24  1  0  0  0  0
 24 28  1  0  0  0  0
 25 24  2  0  0  0  0
 26 21  1  0  0  0  0
 27 22  1  0  0  0  0
 28 29  1  0  0  0  0
 28 35  2  0  0  0  0
 29 31  2  0  0  0  0
 30 29  1  0  0  0  0
 31 33  1  0  0  0  0
 31 32  1  0  0  0  0
 33 34  1  0  0  0  0
 35 33  1  0  0  0  0
M  END
>  <minimizedAffinity>
-5.75233269

$$$$

 OpenBabel03272510223D

 35 38  0  0  0  0  0  0  0  0999 V2000
   34.4980   31.8090   32.2740 Br  0  0  0  0  0  0  0  0  0  0  0  0
   35.4220   30.2060   32.7350 C   0  0  0  0  0  0  0  0  0  0  0  0
   35.4600   29.7700   34.0590 C   0  0  0  0  0  0  0  0  0  0  0  0
   36.1400   28.6090   34.3260 C   0  0  0  0  0  0  0  0  0  0  0  0
   36.7780   27.8680   33.3460 C   0  0  0  0  0  0  0  0  0  0  0  0
   36.7260   28.3150   32.0600 C   0  0  0  0  0  0  0  0  0  0  0  0
   36.0470   29.4780   31.7740 C   0  0  0  0  0  0  0  0  0  0  0  0
   36.2070   28.2190   35.3330 H   0  0  0  0  0  0  0  0  0  0  0  0
   37.2120   27.7640   31.2650 H   0  0  0  0  0  0  0  0  0  0  0  0
   36.0260   29.8070   30.7290 H   0  0  0  0  0  0  0  0  0  0  0  0
   35.0120   32.1350   36.8020 C   0  0  0  0  0  0  0  0  0  0  0  0
   33.6280   31.9980   37.1320 C   0  0  0  0  0  0  0  0  0  0  0  0
   32.8830   31.0980   36.4040 C   0  0  0  0  0  0  0  0  0  0  0  0
   33.4890   30.3790   35.4080 N   0  0  0  0  0  0  0  0  0  0  0  0
   34.8020   30.5240   35.1120 C   0  0  0  0  0  0  0  0  0  0  0  0
   35.5630   31.4120   35.8200 N   0  0  0  0  0  0  0  0  0  0  0  0
   35.6260   32.8380   37.3570 H   0  0  0  0  0  0  0  0  0  0  0  0
   33.2150   32.5850   37.9160 H   0  0  0  0  0  0  0  0  0  0  0  0
   31.8250   30.9540   36.6150 H   0  0  0  0  0  0  0  0  0  0  0  0
   37.5020   26.6330   33.6260 C   0  0  0  0  0  0  0  0  0  0  0  0
   38.5530   26.5110   34.5060 C   0  0  0  0  0  0  0  0  0  0  0  0
   39.2010   25.3090   34.7310 C   0  0  0  0  0  0  0  0  0  0  0  0
   38.8070   24.2150   34.0800 N   0  0  0  0  0  0  0  0  0  0  0  0
   37.7870   24.3090   33.2200 C   0  0  0  0  0  0  0  0  0  0  0  0
   37.1590   25.4800   33.0040 N   0  0  0  0  0  0  0  0  0  0  0  0
   38.8710   27.4040   35.0340 H   0  0  0  0  0  0  0  0  0  0  0  0
   40.0270   25.2840   35.4410 H   0  0  0  0  0  0  0  0  0  0  0  0
   37.2430   23.2040   32.4350 C   0  0  0  0  0  0  0  0  0  0  0  0
   36.0110   23.3370   31.7990 C   0  0  0  0  0  0  0  0  0  0  0  0
   35.3470   24.1760   31.7890 H   0  0  0  0  0  0  0  0  0  0  0  0
   35.7270   22.1450   31.1220 C   0  0  0  0  0  0  0  0  0  0  0  0
   34.8330   21.9630   30.5390 H   0  0  0  0  0  0  0  0  0  0  0  0
   36.8000   21.3390   31.3750 N   0  0  0  0  0  0  0  0  0  0  0  0
   36.8710   20.3720   30.9950 H   0  0  0  0  0  0  0  0  0  0  0  0
   37.6790   21.9460   32.1340 N   0  0  0  0  0  0  0  0  0  0  0  0
  1  2  1  0  0  0  0
  2  3  1  0  0  0  0
  3  4  2  0  0  0  0
  3 15  1  0  0  0  0
  4  8  1  0  0  0  0
  5 20  1  0  0  0  0
  5  4  1  0  0  0  0
  6  5  2  0  0  0  0
  7  6  1  0  0  0  0
  7  2  2  0  0  0  0
  9  6  1  0  0  0  0
 10  7  1  0  0  0  0
 11 12  1  0  0  0  0
 11 17  1  0  0  0  0
 12 18  1  0  0  0  0
 13 19  1  0  0  0  0
 13 12  2  0  0  0  0
 14 13  1  0  0  0  0
 15 14  2  0  0  0  0
 15 16  1  0  0  0  0
 16 11  2  0  0  0  0
 20 21  1  0  0  0  0
 21 22  2  0  0  0  0
 21 26  1  0  0  0  0
 22 27  1  0  0  0  0
 23 22  1  0  0  0  0
 24 23  2  0  0  0  0
 25 24  1  0  0  0  0
 25 20  2  0  0  0  0
 28 24  1  0  0  0  0
 29 28  1  0  0  0  0
 30 29  1  0  0  0  0
 31 33  1  0  0  0  0
 31 29  2  0  0  0  0
 32 31  1  0  0  0  0
 33 35  1  0  0  0  0
 34 33  1  0  0  0  0
 35 28  2  0  0  0  0
M  END
>  <minimizedAffinity>
-5.71115685

$$$$

 OpenBabel03272510223D

 35 38  0  0  0  0  0  0  0  0999 V2000
   37.9280   22.1470   33.1090 Br  0  0  0  0  0  0  0  0  0  0  0  0
   37.5050   24.0010   32.9770 C   0  0  0  0  0  0  0  0  0  0  0  0
   37.6960   24.8470   34.0690 C   0  0  0  0  0  0  0  0  0  0  0  0
   37.3730   26.1720   33.9110 C   0  0  0  0  0  0  0  0  0  0  0  0
   36.8730   26.6880   32.7290 C   0  0  0  0  0  0  0  0  0  0  0  0
   36.6950   25.8410   31.6770 C   0  0  0  0  0  0  0  0  0  0  0  0
   37.0140   24.5100   31.8180 C   0  0  0  0  0  0  0  0  0  0  0  0
   37.4980   26.8780   34.7210 H   0  0  0  0  0  0  0  0  0  0  0  0
   36.3070   26.2060   30.7340 H   0  0  0  0  0  0  0  0  0  0  0  0
   36.8590   23.8580   30.9500 H   0  0  0  0  0  0  0  0  0  0  0  0
   40.0520   23.4190   36.4630 C   0  0  0  0  0  0  0  0  0  0  0  0
   39.2930   23.3550   37.6730 C   0  0  0  0  0  0  0  0  0  0  0  0
   37.9920   23.8040   37.6370 C   0  0  0  0  0  0  0  0  0  0  0  0
   37.4830   24.2860   36.4600 N   0  0  0  0  0  0  0  0  0  0  0  0
   38.2190   24.3380   35.3250 C   0  0  0  0  0  0  0  0  0  0  0  0
   39.5140   23.8990   35.3350 N   0  0  0  0  0  0  0  0  0  0  0  0
   41.0810   23.0730   36.4590 H   0  0  0  0  0  0  0  0  0  0  0  0
   39.7440   22.9700   38.5550 H   0  0  0  0  0  0  0  0  0  0  0  0
   37.3710   23.7770   38.5290 H   0  0  0  0  0  0  0  0  0  0  0  0
   36.5290   28.0950   32.5560 C   0  0  0  0  0  0  0  0  0  0  0  0
   36.5510   28.7760   31.3610 C   0  0  0  0  0  0  0  0  0  0  0  0
   36.2130   30.1150   31.2590 C   0  0  0  0  0  0  0  0  0  0  0  0
   35.8480   30.7870   32.3510 N   0  0  0  0  0  0  0  0  0  0  0  0
   35.8180   30.1460   33.5240 C   0  0  0  0  0  0  0  0  0  0  0  0
   36.1480   28.8450   33.6180 N   0  0  0  0  0  0  0  0  0  0  0  0
   36.8490   28.2250   30.4750 H   0  0  0  0  0  0  0  0  0  0  0  0
   36.2530   30.5930   30.2810 H   0  0  0  0  0  0  0  0  0  0  0  0
   35.4420   30.7450   34.8010 C   0  0  0  0  0  0  0  0  0  0  0  0
   34.1000   30.8210   35.1710 C   0  0  0  0  0  0  0  0  0  0  0  0
   33.2360   30.4890   34.6340 H   0  0  0  0  0  0  0  0  0  0  0  0
   34.0180   31.4320   36.4270 C   0  0  0  0  0  0  0  0  0  0  0  0
   33.0960   31.6220   36.9630 H   0  0  0  0  0  0  0  0  0  0  0  0
   35.3130   31.7010   36.7670 N   0  0  0  0  0  0  0  0  0  0  0  0
   35.5660   32.1630   37.6660 H   0  0  0  0  0  0  0  0  0  0  0  0
   36.1400   31.3060   35.8310 N   0  0  0  0  0  0  0  0  0  0  0  0
  2  1  1  0  0  0  0
  2  3  1  0  0  0  0
  3 15  1  0  0  0  0
  4  3  2  0  0  0  0
  4  8  1  0  0  0  0
  5  4  1  0  0  0  0
  6  7  1  0  0  0  0
  6  5  2  0  0  0  0
  7  2  2  0  0  0  0
  9  6  1  0  0  0  0
 10  7  1  0  0  0  0
 11 12  1  0  0  0  0
 12 18  1  0  0  0  0
 13 12  2  0  0  0  0
 13 19  1  0  0  0  0
 14 13  1  0  0  0  0
 15 16  1  0  0  0  0
 15 14  2  0  0  0  0
 16 11  2  0  0  0  0
 17 11  1  0  0  0  0
 20  5  1  0  0  0  0
 20 25  1  0  0  0  0
 21 20  2  0  0  0  0
 22 21  1  0  0  0  0
 22 23  2  0  0  0  0
 23 24  1  0  0  0  0
 24 25  2  0  0  0  0
 24 28  1  0  0  0  0
 26 21  1  0  0  0  0
 27 22  1  0  0  0  0
 28 29  1  0  0  0  0
 28 35  2  0  0  0  0
 29 31  2  0  0  0  0
 30 29  1  0  0  0  0
 31 33  1  0  0  0  0
 31 32  1  0  0  0  0
 33 34  1  0  0  0  0
 35 33  1  0  0  0  0
M  END
>  <minimizedAffinity>
-5.63728476

$$$$

 OpenBabel03272510223D

 35 38  0  0  0  0  0  0  0  0999 V2000
   35.2500   30.6240   31.6150 Br  0  0  0  0  0  0  0  0  0  0  0  0
   36.2430   29.2480   32.4840 C   0  0  0  0  0  0  0  0  0  0  0  0
   36.1020   29.0350   33.8540 C   0  0  0  0  0  0  0  0  0  0  0  0
   36.8430   28.0290   34.4210 C   0  0  0  0  0  0  0  0  0  0  0  0
   37.7120   27.2340   33.6930 C   0  0  0  0  0  0  0  0  0  0  0  0
   37.8320   27.4620   32.3560 C   0  0  0  0  0  0  0  0  0  0  0  0
   37.0950   28.4670   31.7710 C   0  0  0  0  0  0  0  0  0  0  0  0
   36.7790   27.8140   35.4790 H   0  0  0  0  0  0  0  0  0  0  0  0
   38.5000   26.8620   31.7510 H   0  0  0  0  0  0  0  0  0  0  0  0
   37.2160   28.6220   30.6920 H   0  0  0  0  0  0  0  0  0  0  0  0
   34.9650   31.6760   36.1020 C   0  0  0  0  0  0  0  0  0  0  0  0
   33.5550   31.4560   36.1820 C   0  0  0  0  0  0  0  0  0  0  0  0
   33.0300   30.4060   35.4630 C   0  0  0  0  0  0  0  0  0  0  0  0
   33.8670   29.6260   34.7100 N   0  0  0  0  0  0  0  0  0  0  0  0
   35.2000   29.8510   34.6480 C   0  0  0  0  0  0  0  0  0  0  0  0
   35.7460   30.8880   35.3530 N   0  0  0  0  0  0  0  0  0  0  0  0
   35.4100   32.4960   36.6580 H   0  0  0  0  0  0  0  0  0  0  0  0
   32.9580   32.0960   36.7840 H   0  0  0  0  0  0  0  0  0  0  0  0
   31.9630   30.1950   35.4880 H   0  0  0  0  0  0  0  0  0  0  0  0
   38.5020   26.1630   34.2910 C   0  0  0  0  0  0  0  0  0  0  0  0
   39.8730   26.1570   34.4030 C   0  0  0  0  0  0  0  0  0  0  0  0
   40.5700   25.1100   34.9820 C   0  0  0  0  0  0  0  0  0  0  0  0
   39.9030   24.0580   35.4570 N   0  0  0  0  0  0  0  0  0  0  0  0
   38.5690   24.0420   35.3610 C   0  0  0  0  0  0  0  0  0  0  0  0
   37.8970   25.0620   34.7960 N   0  0  0  0  0  0  0  0  0  0  0  0
   40.4120   27.0150   34.0150 H   0  0  0  0  0  0  0  0  0  0  0  0
   41.6560   25.1700   35.0380 H   0  0  0  0  0  0  0  0  0  0  0  0
   37.7040   22.9640   35.8330 C   0  0  0  0  0  0  0  0  0  0  0  0
   37.3250   21.9420   34.9650 C   0  0  0  0  0  0  0  0  0  0  0  0
   37.5800   21.8050   33.9350 H   0  0  0  0  0  0  0  0  0  0  0  0
   36.5050   21.0470   35.6630 C   0  0  0  0  0  0  0  0  0  0  0  0
   36.0620   20.1540   35.2390 H   0  0  0  0  0  0  0  0  0  0  0  0
   36.4220   21.5640   36.9240 N   0  0  0  0  0  0  0  0  0  0  0  0
   35.8690   21.1040   37.6780 H   0  0  0  0  0  0  0  0  0  0  0  0
   37.1140   22.6720   37.0270 N   0  0  0  0  0  0  0  0  0  0  0  0
  1  2  1  0  0  0  0
  2  3  1  0  0  0  0
  3  4  2  0  0  0  0
  3 15  1  0  0  0  0
  4  8  1  0  0  0  0
  5 20  1  0  0  0  0
  5  4  1  0  0  0  0
  6  5  2  0  0  0  0
  7  6  1  0  0  0  0
  7  2  2  0  0  0  0
  9  6  1  0  0  0  0
 10  7  1  0  0  0  0
 11 12  1  0  0  0  0
 11 17  1  0  0  0  0
 12 18  1  0  0  0  0
 13 19  1  0  0  0  0
 13 12  2  0  0  0  0
 14 13  1  0  0  0  0
 15 14  2  0  0  0  0
 15 16  1  0  0  0  0
 16 11  2  0  0  0  0
 20 21  2  0  0  0  0
 20 25  1  0  0  0  0
 21 22  1  0  0  0  0
 22 27  1  0  0  0  0
 22 23  2  0  0  0  0
 24 23  1  0  0  0  0
 24 28  1  0  0  0  0
 25 24  2  0  0  0  0
 26 21  1  0  0  0  0
 28 35  2  0  0  0  0
 29 31  2  0  0  0  0
 29 28  1  0  0  0  0
 30 29  1  0  0  0  0
 31 33  1  0  0  0  0
 32 31  1  0  0  0  0
 33 35  1  0  0  0  0
 33 34  1  0  0  0  0
M  END
>  <minimizedAffinity>
-5.63603544

$$$$

 OpenBabel03272510223D

 35 38  0  0  0  0  0  0  0  0999 V2000
   35.4240   33.0990   32.7130 Br  0  0  0  0  0  0  0  0  0  0  0  0
   35.7350   31.2210   32.6200 C   0  0  0  0  0  0  0  0  0  0  0  0
   35.3970   30.3960   33.6920 C   0  0  0  0  0  0  0  0  0  0  0  0
   35.6450   29.0520   33.5640 C   0  0  0  0  0  0  0  0  0  0  0  0
   36.2110   28.4980   32.4290 C   0  0  0  0  0  0  0  0  0  0  0  0
   36.5330   29.3240   31.3960 C   0  0  0  0  0  0  0  0  0  0  0  0
   36.2900   30.6750   31.5070 C   0  0  0  0  0  0  0  0  0  0  0  0
   35.4060   28.3610   34.3600 H   0  0  0  0  0  0  0  0  0  0  0  0
   36.9760   28.9290   30.4910 H   0  0  0  0  0  0  0  0  0  0  0  0
   36.5610   31.3090   30.6550 H   0  0  0  0  0  0  0  0  0  0  0  0
   32.8480   31.2810   36.1490 C   0  0  0  0  0  0  0  0  0  0  0  0
   33.5900   31.9610   37.1640 C   0  0  0  0  0  0  0  0  0  0  0  0
   34.9470   32.1000   36.9780 C   0  0  0  0  0  0  0  0  0  0  0  0
   35.5240   31.5880   35.8470 N   0  0  0  0  0  0  0  0  0  0  0  0
   34.8020   30.9460   34.8980 C   0  0  0  0  0  0  0  0  0  0  0  0
   33.4530   30.7960   35.0590 N   0  0  0  0  0  0  0  0  0  0  0  0
   31.7750   31.1550   36.2670 H   0  0  0  0  0  0  0  0  0  0  0  0
   33.0860   32.3370   38.0200 H   0  0  0  0  0  0  0  0  0  0  0  0
   35.5600   32.6100   37.7190 H   0  0  0  0  0  0  0  0  0  0  0  0
   36.4760   27.0700   32.2890 C   0  0  0  0  0  0  0  0  0  0  0  0
   36.0760   26.2900   31.2280 C   0  0  0  0  0  0  0  0  0  0  0  0
   36.3590   24.9370   31.1500 C   0  0  0  0  0  0  0  0  0  0  0  0
   37.0450   24.3490   32.1290 N   0  0  0  0  0  0  0  0  0  0  0  0
   37.4460   25.0870   33.1700 C   0  0  0  0  0  0  0  0  0  0  0  0
   37.1680   26.4020   33.2420 N   0  0  0  0  0  0  0  0  0  0  0  0
   35.5170   26.7720   30.4330 H   0  0  0  0  0  0  0  0  0  0  0  0
   36.0110   24.3780   30.2820 H   0  0  0  0  0  0  0  0  0  0  0  0
   38.2020   24.5880   34.3150 C   0  0  0  0  0  0  0  0  0  0  0  0
   37.8770   25.0070   35.6040 C   0  0  0  0  0  0  0  0  0  0  0  0
   37.1100   25.6840   35.9170 H   0  0  0  0  0  0  0  0  0  0  0  0
   38.7470   24.3840   36.5070 C   0  0  0  0  0  0  0  0  0  0  0  0
   38.7270   24.5230   37.5810 H   0  0  0  0  0  0  0  0  0  0  0  0
   39.5610   23.6130   35.7280 N   0  0  0  0  0  0  0  0  0  0  0  0
   40.3200   23.0240   36.1310 H   0  0  0  0  0  0  0  0  0  0  0  0
   39.2500   23.7270   34.4600 N   0  0  0  0  0  0  0  0  0  0  0  0
  2  1  1  0  0  0  0
  2  3  1  0  0  0  0
  3 15  1  0  0  0  0
  4  3  2  0  0  0  0
  4  8  1  0  0  0  0
  5  4  1  0  0  0  0
  6  7  1  0  0  0  0
  6  5  2  0  0  0  0
  7  2  2  0  0  0  0
  9  6  1  0  0  0  0
 10  7  1  0  0  0  0
 11 17  1  0  0  0  0
 11 12  1  0  0  0  0
 12 18  1  0  0  0  0
 13 12  2  0  0  0  0
 13 19  1  0  0  0  0
 14 13  1  0  0  0  0
 15 16  1  0  0  0  0
 15 14  2  0  0  0  0
 16 11  2  0  0  0  0
 20  5  1  0  0  0  0
 20 25  1  0  0  0  0
 21 20  2  0  0  0  0
 22 21  1  0  0  0  0
 22 23  2  0  0  0  0
 23 24  1  0  0  0  0
 24 25  2  0  0  0  0
 24 28  1  0  0  0  0
 26 21  1  0  0  0  0
 27 22  1  0  0  0  0
 28 35  2  0  0  0  0
 28 29  1  0  0  0  0
 29 30  1  0  0  0  0
 29 31  2  0  0  0  0
 31 32  1  0  0  0  0
 33 34  1  0  0  0  0
 33 31  1  0  0  0  0
 35 33  1  0  0  0  0
M  END
>  <minimizedAffinity>
-5.62828684

$$$$
