
 OpenBabel03272510183D

 35 38  0  0  0  0  0  0  0  0999 V2000
   37.3720   29.1690   50.8020 Br  0  0  0  0  0  0  0  0  0  0  0  0
   35.9740   29.2830   49.5110 C   0  0  0  0  0  0  0  0  0  0  0  0
   35.9820   30.2940   48.5500 C   0  0  0  0  0  0  0  0  0  0  0  0
   34.9480   30.3220   47.6480 C   0  0  0  0  0  0  0  0  0  0  0  0
   33.9160   29.4000   47.6590 C   0  0  0  0  0  0  0  0  0  0  0  0
   33.9310   28.4220   48.6070 C   0  0  0  0  0  0  0  0  0  0  0  0
   34.9610   28.3790   49.5190 C   0  0  0  0  0  0  0  0  0  0  0  0
   34.8970   31.0810   46.8800 H   0  0  0  0  0  0  0  0  0  0  0  0
   33.1430   27.6810   48.6480 H   0  0  0  0  0  0  0  0  0  0  0  0
   34.9410   27.5770   50.2670 H   0  0  0  0  0  0  0  0  0  0  0  0
   38.0050   33.1810   49.4920 C   0  0  0  0  0  0  0  0  0  0  0  0
   39.0450   33.1890   48.5120 C   0  0  0  0  0  0  0  0  0  0  0  0
   39.0250   32.2030   47.5510 C   0  0  0  0  0  0  0  0  0  0  0  0
   38.0250   31.2670   47.5740 N   0  0  0  0  0  0  0  0  0  0  0  0
   37.0500   31.2780   48.5110 C   0  0  0  0  0  0  0  0  0  0  0  0
   37.0470   32.2470   49.4760 N   0  0  0  0  0  0  0  0  0  0  0  0
   37.9930   33.9460   50.2640 H   0  0  0  0  0  0  0  0  0  0  0  0
   39.7940   33.9420   48.5470 H   0  0  0  0  0  0  0  0  0  0  0  0
   39.7930   32.1620   46.7820 H   0  0  0  0  0  0  0  0  0  0  0  0
   32.8150   29.4250   46.7020 C   0  0  0  0  0  0  0  0  0  0  0  0
   31.9220   28.4000   46.4930 C   0  0  0  0  0  0  0  0  0  0  0  0
   30.8950   28.4830   45.5690 C   0  0  0  0  0  0  0  0  0  0  0  0
   30.7480   29.5920   44.8440 N   0  0  0  0  0  0  0  0  0  0  0  0
   31.6040   30.6030   45.0300 C   0  0  0  0  0  0  0  0  0  0  0  0
   32.6010   30.5170   45.9300 N   0  0  0  0  0  0  0  0  0  0  0  0
   32.0450   27.4990   47.0840 H   0  0  0  0  0  0  0  0  0  0  0  0
   30.2230   27.6330   45.4530 H   0  0  0  0  0  0  0  0  0  0  0  0
   31.5720   31.8750   44.3140 C   0  0  0  0  0  0  0  0  0  0  0  0
   31.5960   33.0760   45.0220 C   0  0  0  0  0  0  0  0  0  0  0  0
   31.6360   33.2320   46.0790 H   0  0  0  0  0  0  0  0  0  0  0  0
   31.5570   34.1340   44.1050 C   0  0  0  0  0  0  0  0  0  0  0  0
   31.5640   35.1830   44.3710 H   0  0  0  0  0  0  0  0  0  0  0  0
   31.5120   33.5300   42.8820 N   0  0  0  0  0  0  0  0  0  0  0  0
   31.4750   34.0750   41.9940 H   0  0  0  0  0  0  0  0  0  0  0  0
   31.5200   32.2240   42.9970 N   0  0  0  0  0  0  0  0  0  0  0  0
  2  7  1  0  0  0  0
  2  1  1  0  0  0  0
  3  2  2  0  0  0  0
  4  5  2  0  0  0  0
  4  3  1  0  0  0  0
  5  6  1  0  0  0  0
  6  9  1  0  0  0  0
  6  7  2  0  0  0  0
  7 10  1  0  0  0  0
  8  4  1  0  0  0  0
 11 17  1  0  0  0  0
 12 18  1  0  0  0  0
 12 11  2  0  0  0  0
 13 14  2  0  0  0  0
 13 12  1  0  0  0  0
 14 15  1  0  0  0  0
 15  3  1  0  0  0  0
 15 16  2  0  0  0  0
 16 11  1  0  0  0  0
 19 13  1  0  0  0  0
 20  5  1  0  0  0  0
 21 20  1  0  0  0  0
 21 26  1  0  0  0  0
 22 21  2  0  0  0  0
 23 24  2  0  0  0  0
 23 22  1  0  0  0  0
 24 25  1  0  0  0  0
 25 20  2  0  0  0  0
 27 22  1  0  0  0  0
 28 29  1  0  0  0  0
 28 24  1  0  0  0  0
 29 30  1  0  0  0  0
 31 32  1  0  0  0  0
 31 29  2  0  0  0  0
 33 35  1  0  0  0  0
 33 31  1  0  0  0  0
 34 33  1  0  0  0  0
 35 28  2  0  0  0  0
M  END
>  <minimizedAffinity>
-6.3931036

>  <minimizedRMSD>
0.468693584

$$$$
