
 OpenBabel03262522383D

 26 28  0  0  0  0  0  0  0  0999 V2000
   38.9210   25.4110   34.9330 C   0  0  0  0  0  0  0  0  0  0  0  0
   39.8750   26.3520   34.6590 C   0  0  0  0  0  0  0  0  0  0  0  0
   39.8800   27.1290   33.5200 C   0  0  0  0  0  0  0  0  0  0  0  0
   38.8740   26.9730   32.5800 C   0  0  0  0  0  0  0  0  0  0  0  0
   37.9280   26.0240   32.8790 C   0  0  0  0  0  0  0  0  0  0  0  0
   37.9620   25.2950   33.9920 N   0  0  0  0  0  0  0  0  0  0  0  0
   40.6820   26.5150   35.3550 H   0  0  0  0  0  0  0  0  0  0  0  0
   40.6770   27.8700   33.3560 H   0  0  0  0  0  0  0  0  0  0  0  0
   38.8390   27.5670   31.6650 H   0  0  0  0  0  0  0  0  0  0  0  0
   39.6760   22.8130   37.5590 C   0  0  0  0  0  0  0  0  0  0  0  0
   39.7800   23.5100   36.3480 C   0  0  0  0  0  0  0  0  0  0  0  0
   38.9270   24.5940   36.1460 C   0  0  0  0  0  0  0  0  0  0  0  0
   38.0290   24.9430   37.1150 N   0  0  0  0  0  0  0  0  0  0  0  0
   37.9710   24.2280   38.2770 C   0  0  0  0  0  0  0  0  0  0  0  0
   38.7800   23.1820   38.4960 N   0  0  0  0  0  0  0  0  0  0  0  0
   40.3620   22.0030   37.6280 H   0  0  0  0  0  0  0  0  0  0  0  0
   40.4320   23.3300   35.5310 H   0  0  0  0  0  0  0  0  0  0  0  0
   37.2360   24.5540   39.0120 H   0  0  0  0  0  0  0  0  0  0  0  0
   36.8260   25.7860   31.9500 C   0  0  0  0  0  0  0  0  0  0  0  0
   36.0950   24.6350   31.8100 C   0  0  0  0  0  0  0  0  0  0  0  0
   36.2010   23.7160   32.3550 H   0  0  0  0  0  0  0  0  0  0  0  0
   35.1470   24.8330   30.8180 C   0  0  0  0  0  0  0  0  0  0  0  0
   34.3770   24.1730   30.4070 H   0  0  0  0  0  0  0  0  0  0  0  0
   35.3110   26.0880   30.3700 N   0  0  0  0  0  0  0  0  0  0  0  0
   34.8400   26.6570   29.6500 H   0  0  0  0  0  0  0  0  0  0  0  0
   36.2940   26.6280   31.0410 N   0  0  0  0  0  0  0  0  0  0  0  0
  1 12  1  0  0  0  0
  2  1  1  0  0  0  0
  2  7  1  0  0  0  0
  3  2  2  0  0  0  0
  4  5  2  0  0  0  0
  4  3  1  0  0  0  0
  5  6  1  0  0  0  0
  6  1  2  0  0  0  0
  8  3  1  0  0  0  0
  9  4  1  0  0  0  0
 10 16  1  0  0  0  0
 10 15  1  0  0  0  0
 11 10  2  0  0  0  0
 12 11  1  0  0  0  0
 12 13  2  0  0  0  0
 13 14  1  0  0  0  0
 14 15  2  0  0  0  0
 14 18  1  0  0  0  0
 17 11  1  0  0  0  0
 19  5  1  0  0  0  0
 20 19  1  0  0  0  0
 20 21  1  0  0  0  0
 22 20  2  0  0  0  0
 23 22  1  0  0  0  0
 24 22  1  0  0  0  0
 24 26  1  0  0  0  0
 25 24  1  0  0  0  0
 26 19  2  0  0  0  0
M  END
>  <minimizedAffinity>
-5.08770466

$$$$

 OpenBabel03262522383D

 26 28  0  0  0  0  0  0  0  0999 V2000
   37.2070   21.8530   33.2900 C   0  0  0  0  0  0  0  0  0  0  0  0
   37.3000   22.9900   32.5360 C   0  0  0  0  0  0  0  0  0  0  0  0
   37.7800   24.1900   33.0150 C   0  0  0  0  0  0  0  0  0  0  0  0
   38.2000   24.2830   34.3330 C   0  0  0  0  0  0  0  0  0  0  0  0
   38.0970   23.1280   35.0680 C   0  0  0  0  0  0  0  0  0  0  0  0
   37.6280   21.9890   34.5640 N   0  0  0  0  0  0  0  0  0  0  0  0
   36.9860   22.9760   31.5050 H   0  0  0  0  0  0  0  0  0  0  0  0
   37.8300   25.0720   32.3580 H   0  0  0  0  0  0  0  0  0  0  0  0
   38.5870   25.2120   34.7530 H   0  0  0  0  0  0  0  0  0  0  0  0
   35.2040   18.7150   32.6870 C   0  0  0  0  0  0  0  0  0  0  0  0
   35.5820   19.9250   33.2840 C   0  0  0  0  0  0  0  0  0  0  0  0
   36.6960   20.5850   32.7680 C   0  0  0  0  0  0  0  0  0  0  0  0
   37.3790   20.0470   31.7140 N   0  0  0  0  0  0  0  0  0  0  0  0
   36.9650   18.8640   31.1700 C   0  0  0  0  0  0  0  0  0  0  0  0
   35.8970   18.2100   31.6470 N   0  0  0  0  0  0  0  0  0  0  0  0
   34.3460   18.2820   33.1420 H   0  0  0  0  0  0  0  0  0  0  0  0
   35.1330   20.4330   34.1000 H   0  0  0  0  0  0  0  0  0  0  0  0
   37.5480   18.4850   30.3310 H   0  0  0  0  0  0  0  0  0  0  0  0
   38.5170   23.1240   36.4670 C   0  0  0  0  0  0  0  0  0  0  0  0
   37.9020   23.7560   37.5170 C   0  0  0  0  0  0  0  0  0  0  0  0
   37.0120   24.3570   37.4960 H   0  0  0  0  0  0  0  0  0  0  0  0
   38.6240   23.4970   38.6710 C   0  0  0  0  0  0  0  0  0  0  0  0
   38.4720   23.8100   39.7090 H   0  0  0  0  0  0  0  0  0  0  0  0
   39.6590   22.7190   38.3150 N   0  0  0  0  0  0  0  0  0  0  0  0
   40.4410   22.2900   38.8320 H   0  0  0  0  0  0  0  0  0  0  0  0
   39.5800   22.5130   37.0280 N   0  0  0  0  0  0  0  0  0  0  0  0
  1  6  1  0  0  0  0
  2  3  1  0  0  0  0
  2  1  2  0  0  0  0
  3  4  2  0  0  0  0
  4  9  1  0  0  0  0
  4  5  1  0  0  0  0
  5 19  1  0  0  0  0
  6  5  2  0  0  0  0
  7  2  1  0  0  0  0
  8  3  1  0  0  0  0
 10 16  1  0  0  0  0
 10 11  1  0  0  0  0
 11 17  1  0  0  0  0
 12 11  2  0  0  0  0
 12  1  1  0  0  0  0
 13 12  1  0  0  0  0
 14 15  1  0  0  0  0
 14 13  2  0  0  0  0
 15 10  2  0  0  0  0
 18 14  1  0  0  0  0
 19 26  2  0  0  0  0
 19 20  1  0  0  0  0
 20 22  2  0  0  0  0
 21 20  1  0  0  0  0
 22 23  1  0  0  0  0
 24 22  1  0  0  0  0
 24 25  1  0  0  0  0
 26 24  1  0  0  0  0
M  END
>  <minimizedAffinity>
-5.02745914

$$$$

 OpenBabel03262522383D

 26 28  0  0  0  0  0  0  0  0999 V2000
   38.3350   24.9120   33.2870 C   0  0  0  0  0  0  0  0  0  0  0  0
   39.6280   25.1180   32.8930 C   0  0  0  0  0  0  0  0  0  0  0  0
   40.7210   24.8990   33.7040 C   0  0  0  0  0  0  0  0  0  0  0  0
   40.5320   24.4430   35.0000 C   0  0  0  0  0  0  0  0  0  0  0  0
   39.2250   24.2430   35.3710 C   0  0  0  0  0  0  0  0  0  0  0  0
   38.1990   24.4680   34.5530 N   0  0  0  0  0  0  0  0  0  0  0  0
   39.8330   25.4740   31.8960 H   0  0  0  0  0  0  0  0  0  0  0  0
   41.7390   25.0840   33.3280 H   0  0  0  0  0  0  0  0  0  0  0  0
   41.3680   24.2560   35.6750 H   0  0  0  0  0  0  0  0  0  0  0  0
   35.6260   26.4940   31.1950 C   0  0  0  0  0  0  0  0  0  0  0  0
   36.7450   26.4150   32.0340 C   0  0  0  0  0  0  0  0  0  0  0  0
   37.1840   25.1480   32.4160 C   0  0  0  0  0  0  0  0  0  0  0  0
   36.5250   24.0370   31.9710 N   0  0  0  0  0  0  0  0  0  0  0  0
   35.4400   24.1730   31.1530 C   0  0  0  0  0  0  0  0  0  0  0  0
   34.9980   25.3800   30.7710 N   0  0  0  0  0  0  0  0  0  0  0  0
   35.3620   27.4960   30.9550 H   0  0  0  0  0  0  0  0  0  0  0  0
   37.3290   27.2020   32.4390 H   0  0  0  0  0  0  0  0  0  0  0  0
   34.9560   23.2520   30.8300 H   0  0  0  0  0  0  0  0  0  0  0  0
   38.9230   23.7620   36.7160 C   0  0  0  0  0  0  0  0  0  0  0  0
   37.8260   24.0690   37.4780 C   0  0  0  0  0  0  0  0  0  0  0  0
   37.0030   24.7090   37.2220 H   0  0  0  0  0  0  0  0  0  0  0  0
   37.9300   23.4020   38.6890 C   0  0  0  0  0  0  0  0  0  0  0  0
   37.2720   23.3770   39.5630 H   0  0  0  0  0  0  0  0  0  0  0  0
   39.0760   22.7050   38.6500 N   0  0  0  0  0  0  0  0  0  0  0  0
   39.5530   22.0770   39.3150 H   0  0  0  0  0  0  0  0  0  0  0  0
   39.6410   22.9270   37.4940 N   0  0  0  0  0  0  0  0  0  0  0  0
  1  6  1  0  0  0  0
  2  1  2  0  0  0  0
  2  3  1  0  0  0  0
  3  4  2  0  0  0  0
  4  5  1  0  0  0  0
  4  9  1  0  0  0  0
  5 19  1  0  0  0  0
  6  5  2  0  0  0  0
  7  2  1  0  0  0  0
  8  3  1  0  0  0  0
 10 11  1  0  0  0  0
 11 12  2  0  0  0  0
 11 17  1  0  0  0  0
 12  1  1  0  0  0  0
 13 12  1  0  0  0  0
 14 13  2  0  0  0  0
 15 14  1  0  0  0  0
 15 10  2  0  0  0  0
 16 10  1  0  0  0  0
 18 14  1  0  0  0  0
 19 20  1  0  0  0  0
 19 26  2  0  0  0  0
 20 22  2  0  0  0  0
 21 20  1  0  0  0  0
 22 23  1  0  0  0  0
 24 22  1  0  0  0  0
 24 25  1  0  0  0  0
 26 24  1  0  0  0  0
M  END
>  <minimizedAffinity>
-5.00389671

$$$$

 OpenBabel03262522383D

 26 28  0  0  0  0  0  0  0  0999 V2000
   37.9380   22.8570   34.4860 C   0  0  0  0  0  0  0  0  0  0  0  0
   38.0270   23.8880   33.5920 C   0  0  0  0  0  0  0  0  0  0  0  0
   37.5620   23.8220   32.2960 C   0  0  0  0  0  0  0  0  0  0  0  0
   36.9630   22.6570   31.8420 C   0  0  0  0  0  0  0  0  0  0  0  0
   36.8850   21.6370   32.7580 C   0  0  0  0  0  0  0  0  0  0  0  0
   37.3480   21.7450   34.0010 N   0  0  0  0  0  0  0  0  0  0  0  0
   38.4840   24.8180   33.8910 H   0  0  0  0  0  0  0  0  0  0  0  0
   37.6630   24.6870   31.6230 H   0  0  0  0  0  0  0  0  0  0  0  0
   36.5810   22.5610   30.8250 H   0  0  0  0  0  0  0  0  0  0  0  0
   40.0530   22.6670   37.6010 C   0  0  0  0  0  0  0  0  0  0  0  0
   39.7090   22.5300   36.2500 C   0  0  0  0  0  0  0  0  0  0  0  0
   38.4360   22.9410   35.8580 C   0  0  0  0  0  0  0  0  0  0  0  0
   37.5720   23.4560   36.7840 N   0  0  0  0  0  0  0  0  0  0  0  0
   37.9620   23.5680   38.0880 C   0  0  0  0  0  0  0  0  0  0  0  0
   39.1800   23.1810   38.4900 N   0  0  0  0  0  0  0  0  0  0  0  0
   41.0400   22.3310   37.8100 H   0  0  0  0  0  0  0  0  0  0  0  0
   40.2910   22.1460   35.4510 H   0  0  0  0  0  0  0  0  0  0  0  0
   37.2310   23.9870   38.7790 H   0  0  0  0  0  0  0  0  0  0  0  0
   36.2700   20.3690   32.3750 C   0  0  0  0  0  0  0  0  0  0  0  0
   35.5690   19.5120   33.1820 C   0  0  0  0  0  0  0  0  0  0  0  0
   35.3490   19.6210   34.2280 H   0  0  0  0  0  0  0  0  0  0  0  0
   35.1580   18.4270   32.4220 C   0  0  0  0  0  0  0  0  0  0  0  0
   34.5820   17.5340   32.6840 H   0  0  0  0  0  0  0  0  0  0  0  0
   35.6100   18.6350   31.1750 N   0  0  0  0  0  0  0  0  0  0  0  0
   35.5440   18.1030   30.2940 H   0  0  0  0  0  0  0  0  0  0  0  0
   36.2550   19.7710   31.1670 N   0  0  0  0  0  0  0  0  0  0  0  0
  1 12  1  0  0  0  0
  2  7  1  0  0  0  0
  2  1  2  0  0  0  0
  3  2  1  0  0  0  0
  4  3  2  0  0  0  0
  4  5  1  0  0  0  0
  5  6  2  0  0  0  0
  6  1  1  0  0  0  0
  8  3  1  0  0  0  0
  9  4  1  0  0  0  0
 10 16  1  0  0  0  0
 10 15  1  0  0  0  0
 11 10  2  0  0  0  0
 12 11  1  0  0  0  0
 12 13  2  0  0  0  0
 13 14  1  0  0  0  0
 14 15  2  0  0  0  0
 14 18  1  0  0  0  0
 17 11  1  0  0  0  0
 19  5  1  0  0  0  0
 19 20  1  0  0  0  0
 20 21  1  0  0  0  0
 22 23  1  0  0  0  0
 22 20  2  0  0  0  0
 24 22  1  0  0  0  0
 25 24  1  0  0  0  0
 26 24  1  0  0  0  0
 26 19  2  0  0  0  0
M  END
>  <minimizedAffinity>
-4.91038513

$$$$

 OpenBabel03262522383D

 26 28  0  0  0  0  0  0  0  0999 V2000
   37.7220   25.7760   33.6770 C   0  0  0  0  0  0  0  0  0  0  0  0
   38.3130   25.0940   32.6490 C   0  0  0  0  0  0  0  0  0  0  0  0
   39.0760   23.9590   32.8200 C   0  0  0  0  0  0  0  0  0  0  0  0
   39.2750   23.4530   34.0950 C   0  0  0  0  0  0  0  0  0  0  0  0
   38.6710   24.1550   35.1100 C   0  0  0  0  0  0  0  0  0  0  0  0
   37.9420   25.2480   34.8980 N   0  0  0  0  0  0  0  0  0  0  0  0
   38.1920   25.4440   31.6360 H   0  0  0  0  0  0  0  0  0  0  0  0
   39.5250   23.4540   31.9510 H   0  0  0  0  0  0  0  0  0  0  0  0
   39.8710   22.5580   34.2770 H   0  0  0  0  0  0  0  0  0  0  0  0
   35.8680   29.0250   34.1530 C   0  0  0  0  0  0  0  0  0  0  0  0
   36.6610   27.9170   34.4800 C   0  0  0  0  0  0  0  0  0  0  0  0
   36.9150   26.9800   33.4810 C   0  0  0  0  0  0  0  0  0  0  0  0
   36.3940   27.1610   32.2300 N   0  0  0  0  0  0  0  0  0  0  0  0
   35.6280   28.2600   31.9660 C   0  0  0  0  0  0  0  0  0  0  0  0
   35.3700   29.1770   32.9090 N   0  0  0  0  0  0  0  0  0  0  0  0
   35.7270   29.6870   34.9730 H   0  0  0  0  0  0  0  0  0  0  0  0
   37.1130   27.6740   35.4080 H   0  0  0  0  0  0  0  0  0  0  0  0
   35.2420   28.3510   30.9520 H   0  0  0  0  0  0  0  0  0  0  0  0
   38.8210   23.7000   36.4890 C   0  0  0  0  0  0  0  0  0  0  0  0
   38.1150   24.1290   37.5830 C   0  0  0  0  0  0  0  0  0  0  0  0
   37.3340   24.8650   37.6180 H   0  0  0  0  0  0  0  0  0  0  0  0
   38.5710   23.4420   38.6980 C   0  0  0  0  0  0  0  0  0  0  0  0
   38.2740   23.4870   39.7500 H   0  0  0  0  0  0  0  0  0  0  0  0
   39.5380   22.6130   38.2740 N   0  0  0  0  0  0  0  0  0  0  0  0
   40.1470   21.9270   38.7450 H   0  0  0  0  0  0  0  0  0  0  0  0
   39.6710   22.7780   36.9850 N   0  0  0  0  0  0  0  0  0  0  0  0
  1  6  1  0  0  0  0
  2  3  1  0  0  0  0
  2  1  2  0  0  0  0
  3  4  2  0  0  0  0
  4  9  1  0  0  0  0
  4  5  1  0  0  0  0
  5 19  1  0  0  0  0
  6  5  2  0  0  0  0
  7  2  1  0  0  0  0
  8  3  1  0  0  0  0
 10 11  1  0  0  0  0
 10 16  1  0  0  0  0
 11 17  1  0  0  0  0
 12  1  1  0  0  0  0
 12 11  2  0  0  0  0
 13 12  1  0  0  0  0
 14 13  2  0  0  0  0
 14 15  1  0  0  0  0
 15 10  2  0  0  0  0
 18 14  1  0  0  0  0
 19 26  2  0  0  0  0
 19 20  1  0  0  0  0
 20 21  1  0  0  0  0
 20 22  2  0  0  0  0
 22 23  1  0  0  0  0
 24 22  1  0  0  0  0
 24 25  1  0  0  0  0
 26 24  1  0  0  0  0
M  END
>  <minimizedAffinity>
-4.89697886

$$$$

 OpenBabel03262522383D

 26 28  0  0  0  0  0  0  0  0999 V2000
   38.3410   24.6680   36.1380 C   0  0  0  0  0  0  0  0  0  0  0  0
   37.8410   24.6760   37.4110 C   0  0  0  0  0  0  0  0  0  0  0  0
   38.3130   23.8710   38.4250 C   0  0  0  0  0  0  0  0  0  0  0  0
   39.3530   22.9900   38.1730 C   0  0  0  0  0  0  0  0  0  0  0  0
   39.8380   23.0020   36.8890 C   0  0  0  0  0  0  0  0  0  0  0  0
   39.3520   23.7980   35.9400 N   0  0  0  0  0  0  0  0  0  0  0  0
   37.0300   25.3410   37.6630 H   0  0  0  0  0  0  0  0  0  0  0  0
   37.8670   23.9240   39.4310 H   0  0  0  0  0  0  0  0  0  0  0  0
   39.7570   22.3350   38.9460 H   0  0  0  0  0  0  0  0  0  0  0  0
   36.9960   27.5710   34.1420 C   0  0  0  0  0  0  0  0  0  0  0  0
   37.4720   26.8630   35.2540 C   0  0  0  0  0  0  0  0  0  0  0  0
   37.8320   25.5290   35.0720 C   0  0  0  0  0  0  0  0  0  0  0  0
   37.7140   24.9550   33.8370 N   0  0  0  0  0  0  0  0  0  0  0  0
   37.2450   25.6930   32.7870 C   0  0  0  0  0  0  0  0  0  0  0  0
   36.8930   26.9770   32.9360 N   0  0  0  0  0  0  0  0  0  0  0  0
   36.7470   28.5790   34.3710 H   0  0  0  0  0  0  0  0  0  0  0  0
   37.6040   27.2010   36.2500 H   0  0  0  0  0  0  0  0  0  0  0  0
   37.1740   25.1810   31.8280 H   0  0  0  0  0  0  0  0  0  0  0  0
   40.9360   22.1100   36.5250 C   0  0  0  0  0  0  0  0  0  0  0  0
   41.7100   21.3620   37.3740 C   0  0  0  0  0  0  0  0  0  0  0  0
   41.6450   21.2990   38.4440 H   0  0  0  0  0  0  0  0  0  0  0  0
   42.6370   20.6580   36.6200 C   0  0  0  0  0  0  0  0  0  0  0  0
   43.4260   19.9570   36.9090 H   0  0  0  0  0  0  0  0  0  0  0  0
   42.4180   20.9830   35.3360 N   0  0  0  0  0  0  0  0  0  0  0  0
   42.8580   20.7070   34.4450 H   0  0  0  0  0  0  0  0  0  0  0  0
   41.4250   21.8290   35.3000 N   0  0  0  0  0  0  0  0  0  0  0  0
  1  2  1  0  0  0  0
  2  7  1  0  0  0  0
  2  3  2  0  0  0  0
  3  8  1  0  0  0  0
  4  3  1  0  0  0  0
  4  9  1  0  0  0  0
  5  4  2  0  0  0  0
  6  1  2  0  0  0  0
  6  5  1  0  0  0  0
 10 16  1  0  0  0  0
 10 11  1  0  0  0  0
 11 17  1  0  0  0  0
 12 11  2  0  0  0  0
 12  1  1  0  0  0  0
 13 12  1  0  0  0  0
 14 15  1  0  0  0  0
 14 13  2  0  0  0  0
 15 10  2  0  0  0  0
 18 14  1  0  0  0  0
 19  5  1  0  0  0  0
 19 20  1  0  0  0  0
 20 21  1  0  0  0  0
 22 23  1  0  0  0  0
 22 20  2  0  0  0  0
 24 22  1  0  0  0  0
 25 24  1  0  0  0  0
 26 24  1  0  0  0  0
 26 19  2  0  0  0  0
M  END
>  <minimizedAffinity>
-4.85507679

$$$$

 OpenBabel03262522383D

 26 28  0  0  0  0  0  0  0  0999 V2000
   36.1290   29.0250   32.6940 C   0  0  0  0  0  0  0  0  0  0  0  0
   36.3640   29.9340   31.7000 C   0  0  0  0  0  0  0  0  0  0  0  0
   36.1640   31.2910   31.8380 C   0  0  0  0  0  0  0  0  0  0  0  0
   35.6990   31.7950   33.0420 C   0  0  0  0  0  0  0  0  0  0  0  0
   35.4720   30.8630   34.0250 C   0  0  0  0  0  0  0  0  0  0  0  0
   35.6800   29.5610   33.8470 N   0  0  0  0  0  0  0  0  0  0  0  0
   36.7250   29.5970   30.7410 H   0  0  0  0  0  0  0  0  0  0  0  0
   36.3720   31.9720   30.9980 H   0  0  0  0  0  0  0  0  0  0  0  0
   35.5280   32.8620   33.1960 H   0  0  0  0  0  0  0  0  0  0  0  0
   37.2800   25.4570   33.0980 C   0  0  0  0  0  0  0  0  0  0  0  0
   37.1620   26.8260   33.3690 C   0  0  0  0  0  0  0  0  0  0  0  0
   36.3460   27.5880   32.5340 C   0  0  0  0  0  0  0  0  0  0  0  0
   35.6930   26.9910   31.4920 N   0  0  0  0  0  0  0  0  0  0  0  0
   35.8440   25.6510   31.2750 C   0  0  0  0  0  0  0  0  0  0  0  0
   36.6220   24.8970   32.0630 N   0  0  0  0  0  0  0  0  0  0  0  0
   37.9200   24.9550   33.7830 H   0  0  0  0  0  0  0  0  0  0  0  0
   37.6180   27.3930   34.1410 H   0  0  0  0  0  0  0  0  0  0  0  0
   35.2980   25.2320   30.4300 H   0  0  0  0  0  0  0  0  0  0  0  0
   34.9830   31.2970   35.3300 C   0  0  0  0  0  0  0  0  0  0  0  0
   33.7010   31.2010   35.8070 C   0  0  0  0  0  0  0  0  0  0  0  0
   32.8410   30.7930   35.3110 H   0  0  0  0  0  0  0  0  0  0  0  0
   33.6670   31.7310   37.0890 C   0  0  0  0  0  0  0  0  0  0  0  0
   32.8490   31.8420   37.8060 H   0  0  0  0  0  0  0  0  0  0  0  0
   34.9140   32.1380   37.3730 N   0  0  0  0  0  0  0  0  0  0  0  0
   35.3500   32.5840   38.1950 H   0  0  0  0  0  0  0  0  0  0  0  0
   35.6660   31.8780   36.3370 N   0  0  0  0  0  0  0  0  0  0  0  0
  1  6  1  0  0  0  0
  2  3  1  0  0  0  0
  2  1  2  0  0  0  0
  3  4  2  0  0  0  0
  4  9  1  0  0  0  0
  4  5  1  0  0  0  0
  5 19  1  0  0  0  0
  6  5  2  0  0  0  0
  7  2  1  0  0  0  0
  8  3  1  0  0  0  0
 10 11  1  0  0  0  0
 10 16  1  0  0  0  0
 11 17  1  0  0  0  0
 12  1  1  0  0  0  0
 12 11  2  0  0  0  0
 13 12  1  0  0  0  0
 14 13  2  0  0  0  0
 14 15  1  0  0  0  0
 15 10  2  0  0  0  0
 18 14  1  0  0  0  0
 19 20  1  0  0  0  0
 19 26  2  0  0  0  0
 20 22  2  0  0  0  0
 21 20  1  0  0  0  0
 22 24  1  0  0  0  0
 22 23  1  0  0  0  0
 24 25  1  0  0  0  0
 26 24  1  0  0  0  0
M  END
>  <minimizedAffinity>
-4.82714748

$$$$

 OpenBabel03262522383D

 26 28  0  0  0  0  0  0  0  0999 V2000
   36.3390   28.4140   33.5510 C   0  0  0  0  0  0  0  0  0  0  0  0
   36.2300   28.9790   32.3110 C   0  0  0  0  0  0  0  0  0  0  0  0
   35.6820   30.2230   32.0810 C   0  0  0  0  0  0  0  0  0  0  0  0
   35.2050   30.9690   33.1470 C   0  0  0  0  0  0  0  0  0  0  0  0
   35.3270   30.3800   34.3820 C   0  0  0  0  0  0  0  0  0  0  0  0
   35.8640   29.1760   34.5580 N   0  0  0  0  0  0  0  0  0  0  0  0
   36.5840   28.4420   31.4450 H   0  0  0  0  0  0  0  0  0  0  0  0
   35.6220   30.6240   31.0570 H   0  0  0  0  0  0  0  0  0  0  0  0
   34.7640   31.9580   33.0110 H   0  0  0  0  0  0  0  0  0  0  0  0
   37.7030   24.9220   33.1410 C   0  0  0  0  0  0  0  0  0  0  0  0
   37.1350   26.1510   32.7770 C   0  0  0  0  0  0  0  0  0  0  0  0
   36.9230   27.0930   33.7820 C   0  0  0  0  0  0  0  0  0  0  0  0
   37.2680   26.8010   35.0710 N   0  0  0  0  0  0  0  0  0  0  0  0
   37.8190   25.5880   35.3690 C   0  0  0  0  0  0  0  0  0  0  0  0
   38.0330   24.6650   34.4220 N   0  0  0  0  0  0  0  0  0  0  0  0
   37.8280   24.2660   32.3130 H   0  0  0  0  0  0  0  0  0  0  0  0
   36.8290   26.4840   31.8170 H   0  0  0  0  0  0  0  0  0  0  0  0
   38.0740   25.4130   36.4140 H   0  0  0  0  0  0  0  0  0  0  0  0
   34.8540   31.0890   35.5680 C   0  0  0  0  0  0  0  0  0  0  0  0
   33.5610   31.1900   36.0100 C   0  0  0  0  0  0  0  0  0  0  0  0
   32.6770   30.7690   35.5690 H   0  0  0  0  0  0  0  0  0  0  0  0
   33.5500   31.9490   37.1700 C   0  0  0  0  0  0  0  0  0  0  0  0
   32.7320   32.2600   37.8280 H   0  0  0  0  0  0  0  0  0  0  0  0
   34.8230   32.2980   37.4170 N   0  0  0  0  0  0  0  0  0  0  0  0
   35.2810   32.8510   38.1570 H   0  0  0  0  0  0  0  0  0  0  0  0
   35.5680   31.7880   36.4730 N   0  0  0  0  0  0  0  0  0  0  0  0
  1 12  1  0  0  0  0
  1  6  1  0  0  0  0
  2  1  2  0  0  0  0
  3  2  1  0  0  0  0
  3  4  2  0  0  0  0
  4  5  1  0  0  0  0
  5  6  2  0  0  0  0
  5 19  1  0  0  0  0
  7  2  1  0  0  0  0
  8  3  1  0  0  0  0
  9  4  1  0  0  0  0
 10 15  1  0  0  0  0
 11 10  2  0  0  0  0
 11 12  1  0  0  0  0
 12 13  2  0  0  0  0
 13 14  1  0  0  0  0
 14 18  1  0  0  0  0
 15 14  2  0  0  0  0
 16 10  1  0  0  0  0
 17 11  1  0  0  0  0
 19 20  1  0  0  0  0
 19 26  2  0  0  0  0
 20 22  2  0  0  0  0
 21 20  1  0  0  0  0
 22 24  1  0  0  0  0
 22 23  1  0  0  0  0
 24 25  1  0  0  0  0
 26 24  1  0  0  0  0
M  END
>  <minimizedAffinity>
-4.7752099

$$$$

 OpenBabel03262522383D

 26 28  0  0  0  0  0  0  0  0999 V2000
   37.5910   24.5840   33.2000 C   0  0  0  0  0  0  0  0  0  0  0  0
   37.4760   23.4450   32.4530 C   0  0  0  0  0  0  0  0  0  0  0  0
   37.7210   22.1790   32.9430 C   0  0  0  0  0  0  0  0  0  0  0  0
   38.1080   22.0190   34.2640 C   0  0  0  0  0  0  0  0  0  0  0  0
   38.2160   23.1780   34.9920 C   0  0  0  0  0  0  0  0  0  0  0  0
   37.9690   24.3800   34.4780 N   0  0  0  0  0  0  0  0  0  0  0  0
   37.1780   23.5100   31.4190 H   0  0  0  0  0  0  0  0  0  0  0  0
   37.6100   21.2990   32.2900 H   0  0  0  0  0  0  0  0  0  0  0  0
   38.3120   21.0370   34.6920 H   0  0  0  0  0  0  0  0  0  0  0  0
   36.7600   28.2420   32.8130 C   0  0  0  0  0  0  0  0  0  0  0  0
   36.9860   27.0180   33.4570 C   0  0  0  0  0  0  0  0  0  0  0  0
   37.3280   25.9210   32.6680 C   0  0  0  0  0  0  0  0  0  0  0  0
   37.4300   26.0630   31.3130 N   0  0  0  0  0  0  0  0  0  0  0  0
   37.1990   27.2800   30.7380 C   0  0  0  0  0  0  0  0  0  0  0  0
   36.8700   28.3510   31.4740 N   0  0  0  0  0  0  0  0  0  0  0  0
   36.5060   29.0220   33.4890 H   0  0  0  0  0  0  0  0  0  0  0  0
   36.9350   26.7920   34.4920 H   0  0  0  0  0  0  0  0  0  0  0  0
   37.2970   27.3320   29.6540 H   0  0  0  0  0  0  0  0  0  0  0  0
   38.6180   23.1120   36.3950 C   0  0  0  0  0  0  0  0  0  0  0  0
   37.9730   23.6740   37.4670 C   0  0  0  0  0  0  0  0  0  0  0  0
   37.0700   24.2530   37.4640 H   0  0  0  0  0  0  0  0  0  0  0  0
   38.6870   23.3730   38.6170 C   0  0  0  0  0  0  0  0  0  0  0  0
   38.5140   23.6280   39.6660 H   0  0  0  0  0  0  0  0  0  0  0  0
   39.7460   22.6400   38.2350 N   0  0  0  0  0  0  0  0  0  0  0  0
   40.5320   22.2050   38.7410 H   0  0  0  0  0  0  0  0  0  0  0  0
   39.6880   22.4990   36.9380 N   0  0  0  0  0  0  0  0  0  0  0  0
  1  6  1  0  0  0  0
  2  3  1  0  0  0  0
  2  1  2  0  0  0  0
  3  4  2  0  0  0  0
  4  9  1  0  0  0  0
  4  5  1  0  0  0  0
  5 19  1  0  0  0  0
  6  5  2  0  0  0  0
  7  2  1  0  0  0  0
  8  3  1  0  0  0  0
 10 11  1  0  0  0  0
 10 16  1  0  0  0  0
 11 17  1  0  0  0  0
 12  1  1  0  0  0  0
 12 11  2  0  0  0  0
 13 12  1  0  0  0  0
 14 13  2  0  0  0  0
 14 15  1  0  0  0  0
 15 10  2  0  0  0  0
 18 14  1  0  0  0  0
 19 26  2  0  0  0  0
 19 20  1  0  0  0  0
 20 22  2  0  0  0  0
 21 20  1  0  0  0  0
 22 23  1  0  0  0  0
 24 22  1  0  0  0  0
 24 25  1  0  0  0  0
 26 24  1  0  0  0  0
M  END
>  <minimizedAffinity>
-4.7391324

$$$$
