
 OpenBabel03272502403D

 39 42  0  0  1  0  0  0  0  0999 V2000
   35.9090   29.4820   33.5490 N   0  0  0  0  0  0  0  0  0  0  0  0
   36.2390   29.2960   32.1450 C   0  0  0  0  0  0  0  0  0  0  0  0
   37.0890   28.0610   32.1570 C   0  0  0  0  0  0  0  0  0  0  0  0
   37.3580   27.7640   33.7010 C   0  0  1  0  0  0  0  0  0  0  0  0
   36.0600   28.1840   34.2370 C   0  0  0  0  0  0  0  0  0  0  0  0
   35.3530   29.2150   31.5120 H   0  0  0  0  0  0  0  0  0  0  0  0
   36.9090   30.1410   31.8590 H   0  0  0  0  0  0  0  0  0  0  0  0
   38.0840   28.1480   31.7260 H   0  0  0  0  0  0  0  0  0  0  0  0
   36.5530   27.1480   31.8470 H   0  0  0  0  0  0  0  0  0  0  0  0
   38.1980   28.4440   33.8330 H   0  0  0  0  0  0  0  0  0  0  0  0
   35.2650   27.5550   33.7890 H   0  0  0  0  0  0  0  0  0  0  0  0
   35.9820   28.2970   35.3160 H   0  0  0  0  0  0  0  0  0  0  0  0
   38.1280   26.6540   36.1950 F   0  0  0  0  0  0  0  0  0  0  0  0
   37.9740   25.8940   35.0930 C   0  0  0  0  0  0  0  0  0  0  0  0
   37.6720   26.3350   33.8320 C   0  0  0  0  0  0  0  0  0  0  0  0
   37.5800   25.3840   32.8000 C   0  0  0  0  0  0  0  0  0  0  0  0
   37.7820   24.0410   33.0270 C   0  0  0  0  0  0  0  0  0  0  0  0
   38.0880   23.6190   34.3190 C   0  0  0  0  0  0  0  0  0  0  0  0
   38.1830   24.5630   35.3560 C   0  0  0  0  0  0  0  0  0  0  0  0
   37.3400   25.8070   31.8360 H   0  0  0  0  0  0  0  0  0  0  0  0
   37.7020   23.3400   32.2100 H   0  0  0  0  0  0  0  0  0  0  0  0
   38.2320   22.5650   34.4160 H   0  0  0  0  0  0  0  0  0  0  0  0
   38.5080   24.0020   36.6610 C   0  0  0  0  0  0  0  0  0  0  0  0
   37.9450   24.1720   37.8960 C   0  0  0  0  0  0  0  0  0  0  0  0
   37.1000   24.8030   38.1180 H   0  0  0  0  0  0  0  0  0  0  0  0
   38.5880   23.4310   38.8620 C   0  0  0  0  0  0  0  0  0  0  0  0
   38.3490   23.3820   39.9140 H   0  0  0  0  0  0  0  0  0  0  0  0
   39.5510   22.8140   38.1610 N   0  0  0  0  0  0  0  0  0  0  0  0
   40.2690   22.1430   38.5640 H   0  0  0  0  0  0  0  0  0  0  0  0
   39.5120   23.1390   36.8860 N   0  0  0  0  0  0  0  0  0  0  0  0
   35.5160   30.6750   34.1850 C   0  0  0  0  0  0  0  0  0  0  0  0
   35.9620   30.8370   35.5050 C   0  0  0  0  0  0  0  0  0  0  0  0
   35.5980   32.0020   36.2030 C   0  0  0  0  0  0  0  0  0  0  0  0
   34.8140   32.9090   35.5140 N   0  0  0  0  0  0  0  0  0  0  0  0
   34.4090   32.7210   34.2580 C   0  0  0  0  0  0  0  0  0  0  0  0
   34.7620   31.5950   33.5870 N   0  0  0  0  0  0  0  0  0  0  0  0
   36.5690   30.1450   36.0520 H   0  0  0  0  0  0  0  0  0  0  0  0
   35.9230   32.1500   37.2060 H   0  0  0  0  0  0  0  0  0  0  0  0
   33.8000   33.4970   33.8180 H   0  0  0  0  0  0  0  0  0  0  0  0
  1 31  1  0  0  0  0
  1  5  1  0  0  0  0
  2  3  1  0  0  0  0
  2  1  1  0  0  0  0
  3  4  1  0  0  0  0
  4 15  1  0  0  0  0
  4 10  1  1  0  0  0
  4  5  1  0  0  0  0
  5 12  1  0  0  0  0
  6  2  1  0  0  0  0
  7  2  1  0  0  0  0
  8  3  1  0  0  0  0
  9  3  1  0  0  0  0
 11  5  1  0  0  0  0
 14 19  1  0  0  0  0
 14 13  1  0  0  0  0
 15 14  2  0  0  0  0
 16 17  2  0  0  0  0
 16 15  1  0  0  0  0
 17 18  1  0  0  0  0
 18 22  1  0  0  0  0
 18 19  2  0  0  0  0
 19 23  1  0  0  0  0
 20 16  1  0  0  0  0
 21 17  1  0  0  0  0
 23 30  2  0  0  0  0
 23 24  1  0  0  0  0
 24 25  1  0  0  0  0
 24 26  2  0  0  0  0
 26 27  1  0  0  0  0
 28 29  1  0  0  0  0
 28 26  1  0  0  0  0
 30 28  1  0  0  0  0
 31 32  1  0  0  0  0
 32 37  1  0  0  0  0
 32 33  2  0  0  0  0
 33 38  1  0  0  0  0
 34 33  1  0  0  0  0
 35 34  2  0  0  0  0
 36 31  2  0  0  0  0
 36 35  1  0  0  0  0
 39 35  1  0  0  0  0
M  END
>  <minimizedAffinity>
-6.04491663

$$$$

 OpenBabel03272502403D

 39 42  0  0  1  0  0  0  0  0999 V2000
   37.1730   26.4970   31.6940 N   0  0  0  0  0  0  0  0  0  0  0  0
   37.7240   27.1110   30.4960 C   0  0  0  0  0  0  0  0  0  0  0  0
   37.1840   28.5080   30.5520 C   0  0  0  0  0  0  0  0  0  0  0  0
   36.1300   28.4920   31.7490 C   0  0  1  0  0  0  0  0  0  0  0  0
   36.8290   27.5700   32.6480 C   0  0  0  0  0  0  0  0  0  0  0  0
   38.8130   27.0600   30.4590 H   0  0  0  0  0  0  0  0  0  0  0  0
   37.2310   26.6140   29.6270 H   0  0  0  0  0  0  0  0  0  0  0  0
   36.6060   28.8450   29.6930 H   0  0  0  0  0  0  0  0  0  0  0  0
   37.9130   29.2540   30.9110 H   0  0  0  0  0  0  0  0  0  0  0  0
   35.2830   28.0990   31.1880 H   0  0  0  0  0  0  0  0  0  0  0  0
   37.8110   28.0070   32.9190 H   0  0  0  0  0  0  0  0  0  0  0  0
   36.2670   27.1810   33.4940 H   0  0  0  0  0  0  0  0  0  0  0  0
   34.9150   29.0470   34.2520 F   0  0  0  0  0  0  0  0  0  0  0  0
   35.4380   30.0210   33.4810 C   0  0  0  0  0  0  0  0  0  0  0  0
   35.9830   29.8720   32.2340 C   0  0  0  0  0  0  0  0  0  0  0  0
   36.4550   31.0200   31.5720 C   0  0  0  0  0  0  0  0  0  0  0  0
   36.3810   32.2710   32.1430 C   0  0  0  0  0  0  0  0  0  0  0  0
   35.8210   32.3950   33.4130 C   0  0  0  0  0  0  0  0  0  0  0  0
   35.3470   31.2520   34.0800 C   0  0  0  0  0  0  0  0  0  0  0  0
   36.8700   30.8220   30.5950 H   0  0  0  0  0  0  0  0  0  0  0  0
   36.7540   33.1290   31.6060 H   0  0  0  0  0  0  0  0  0  0  0  0
   35.7970   33.3950   33.7880 H   0  0  0  0  0  0  0  0  0  0  0  0
   34.7840   31.5090   35.3990 C   0  0  0  0  0  0  0  0  0  0  0  0
   33.5020   31.4540   35.8740 C   0  0  0  0  0  0  0  0  0  0  0  0
   32.6310   31.1890   35.2970 H   0  0  0  0  0  0  0  0  0  0  0  0
   33.4330   31.7810   37.2100 C   0  0  0  0  0  0  0  0  0  0  0  0
   32.5470   31.8160   37.8280 H   0  0  0  0  0  0  0  0  0  0  0  0
   34.7140   32.0330   37.5130 N   0  0  0  0  0  0  0  0  0  0  0  0
   35.0720   32.3240   38.4710 H   0  0  0  0  0  0  0  0  0  0  0  0
   35.5030   31.8770   36.4710 N   0  0  0  0  0  0  0  0  0  0  0  0
   36.9790   25.1240   31.9410 C   0  0  0  0  0  0  0  0  0  0  0  0
   35.8730   24.5420   31.3060 C   0  0  0  0  0  0  0  0  0  0  0  0
   35.6150   23.1760   31.5170 C   0  0  0  0  0  0  0  0  0  0  0  0
   36.4930   22.5080   32.3500 N   0  0  0  0  0  0  0  0  0  0  0  0
   37.5360   23.0950   32.9360 C   0  0  0  0  0  0  0  0  0  0  0  0
   37.7830   24.4150   32.7300 N   0  0  0  0  0  0  0  0  0  0  0  0
   35.1830   25.0450   30.6590 H   0  0  0  0  0  0  0  0  0  0  0  0
   34.7820   22.7090   31.0470 H   0  0  0  0  0  0  0  0  0  0  0  0
   38.1580   22.4770   33.5660 H   0  0  0  0  0  0  0  0  0  0  0  0
  1 31  1  0  0  0  0
  1  5  1  0  0  0  0
  2  3  1  0  0  0  0
  2  1  1  0  0  0  0
  3  9  1  0  0  0  0
  3  4  1  0  0  0  0
  4 10  1  6  0  0  0
  4 15  1  0  0  0  0
  4  5  1  0  0  0  0
  5 11  1  0  0  0  0
  5 12  1  0  0  0  0
  6  2  1  0  0  0  0
  7  2  1  0  0  0  0
  8  3  1  0  0  0  0
 14 19  1  0  0  0  0
 14 13  1  0  0  0  0
 15 14  2  0  0  0  0
 16 17  2  0  0  0  0
 16 15  1  0  0  0  0
 17 18  1  0  0  0  0
 18 22  1  0  0  0  0
 18 19  2  0  0  0  0
 19 23  1  0  0  0  0
 20 16  1  0  0  0  0
 21 17  1  0  0  0  0
 23 24  1  0  0  0  0
 23 30  2  0  0  0  0
 24 26  2  0  0  0  0
 25 24  1  0  0  0  0
 26 28  1  0  0  0  0
 26 27  1  0  0  0  0
 28 29  1  0  0  0  0
 30 28  1  0  0  0  0
 31 36  1  0  0  0  0
 32 33  1  0  0  0  0
 32 31  2  0  0  0  0
 33 34  2  0  0  0  0
 34 35  1  0  0  0  0
 35 39  1  0  0  0  0
 36 35  2  0  0  0  0
 37 32  1  0  0  0  0
 38 33  1  0  0  0  0
M  END
>  <minimizedAffinity>
-5.83371878

$$$$

 OpenBabel03272502403D

 39 42  0  0  1  0  0  0  0  0999 V2000
   37.4690   25.9910   32.3470 N   0  0  0  0  0  0  0  0  0  0  0  0
   37.4920   26.3280   30.9320 C   0  0  0  0  0  0  0  0  0  0  0  0
   36.7740   27.6440   30.8860 C   0  0  0  0  0  0  0  0  0  0  0  0
   36.1810   27.8390   32.3530 C   0  0  1  0  0  0  0  0  0  0  0  0
   37.2780   27.2360   33.1170 C   0  0  0  0  0  0  0  0  0  0  0  0
   38.5030   26.3640   30.5240 H   0  0  0  0  0  0  0  0  0  0  0  0
   36.8350   25.5890   30.4170 H   0  0  0  0  0  0  0  0  0  0  0  0
   35.9020   27.7030   30.2370 H   0  0  0  0  0  0  0  0  0  0  0  0
   37.4450   28.5150   30.8010 H   0  0  0  0  0  0  0  0  0  0  0  0
   35.2770   27.2470   32.2230 H   0  0  0  0  0  0  0  0  0  0  0  0
   38.2060   27.8100   32.9270 H   0  0  0  0  0  0  0  0  0  0  0  0
   37.0920   27.0270   34.1680 H   0  0  0  0  0  0  0  0  0  0  0  0
   35.0570   28.8240   34.7650 F   0  0  0  0  0  0  0  0  0  0  0  0
   35.4790   29.6480   33.7850 C   0  0  0  0  0  0  0  0  0  0  0  0
   35.9720   29.2790   32.5620 C   0  0  0  0  0  0  0  0  0  0  0  0
   36.3360   30.2930   31.6580 C   0  0  0  0  0  0  0  0  0  0  0  0
   36.2110   31.6280   31.9720 C   0  0  0  0  0  0  0  0  0  0  0  0
   35.7070   31.9760   33.2240 C   0  0  0  0  0  0  0  0  0  0  0  0
   35.3390   30.9690   34.1320 C   0  0  0  0  0  0  0  0  0  0  0  0
   36.7150   29.9240   30.7170 H   0  0  0  0  0  0  0  0  0  0  0  0
   36.5020   32.3780   31.2530 H   0  0  0  0  0  0  0  0  0  0  0  0
   35.6380   33.0290   33.3930 H   0  0  0  0  0  0  0  0  0  0  0  0
   34.8260   31.4570   35.4050 C   0  0  0  0  0  0  0  0  0  0  0  0
   33.5530   31.6670   35.8590 C   0  0  0  0  0  0  0  0  0  0  0  0
   32.6500   31.4880   35.2980 H   0  0  0  0  0  0  0  0  0  0  0  0
   33.5380   32.1440   37.1500 C   0  0  0  0  0  0  0  0  0  0  0  0
   32.6700   32.3920   37.7440 H   0  0  0  0  0  0  0  0  0  0  0  0
   34.8430   32.2120   37.4500 N   0  0  0  0  0  0  0  0  0  0  0  0
   35.2430   32.5420   38.3770 H   0  0  0  0  0  0  0  0  0  0  0  0
   35.5960   31.8160   36.4450 N   0  0  0  0  0  0  0  0  0  0  0  0
   37.5970   24.7140   32.9240 C   0  0  0  0  0  0  0  0  0  0  0  0
   38.1120   24.6840   34.2290 C   0  0  0  0  0  0  0  0  0  0  0  0
   38.2750   23.4400   34.8620 C   0  0  0  0  0  0  0  0  0  0  0  0
   37.9070   22.3260   34.1300 N   0  0  0  0  0  0  0  0  0  0  0  0
   37.4210   22.3930   32.8910 C   0  0  0  0  0  0  0  0  0  0  0  0
   37.2640   23.5970   32.2820 N   0  0  0  0  0  0  0  0  0  0  0  0
   38.4020   25.5360   34.8090 H   0  0  0  0  0  0  0  0  0  0  0  0
   38.6640   23.3890   35.8520 H   0  0  0  0  0  0  0  0  0  0  0  0
   37.1650   21.4590   32.4130 H   0  0  0  0  0  0  0  0  0  0  0  0
  1 31  1  0  0  0  0
  1  5  1  0  0  0  0
  2  1  1  0  0  0  0
  3  2  1  0  0  0  0
  3  4  1  0  0  0  0
  4 10  1  1  0  0  0
  4 15  1  0  0  0  0
  4  5  1  0  0  0  0
  5 12  1  0  0  0  0
  6  2  1  0  0  0  0
  7  2  1  0  0  0  0
  8  3  1  0  0  0  0
  9  3  1  0  0  0  0
 11  5  1  0  0  0  0
 14 19  1  0  0  0  0
 14 13  1  0  0  0  0
 15 14  2  0  0  0  0
 16 17  2  0  0  0  0
 16 15  1  0  0  0  0
 17 18  1  0  0  0  0
 18 22  1  0  0  0  0
 18 19  2  0  0  0  0
 19 23  1  0  0  0  0
 20 16  1  0  0  0  0
 21 17  1  0  0  0  0
 23 24  1  0  0  0  0
 23 30  2  0  0  0  0
 24 26  2  0  0  0  0
 25 24  1  0  0  0  0
 26 28  1  0  0  0  0
 26 27  1  0  0  0  0
 28 29  1  0  0  0  0
 30 28  1  0  0  0  0
 31 32  1  0  0  0  0
 32 37  1  0  0  0  0
 32 33  2  0  0  0  0
 33 38  1  0  0  0  0
 34 33  1  0  0  0  0
 35 34  2  0  0  0  0
 36 35  1  0  0  0  0
 36 31  2  0  0  0  0
 39 35  1  0  0  0  0
M  END
>  <minimizedAffinity>
-5.66302967

$$$$

 OpenBabel03272502403D

 39 42  0  0  1  0  0  0  0  0999 V2000
   36.5120   28.6430   31.9200 N   0  0  0  0  0  0  0  0  0  0  0  0
   37.6980   28.4890   31.0920 C   0  0  0  0  0  0  0  0  0  0  0  0
   38.3920   27.3110   31.7080 C   0  0  0  0  0  0  0  0  0  0  0  0
   37.5870   27.0200   33.0540 C   0  0  1  0  0  0  0  0  0  0  0  0
   36.2390   27.3510   32.5830 C   0  0  0  0  0  0  0  0  0  0  0  0
   37.4590   28.3570   30.0350 H   0  0  0  0  0  0  0  0  0  0  0  0
   38.3430   29.3780   31.2890 H   0  0  0  0  0  0  0  0  0  0  0  0
   39.4170   27.4660   32.0390 H   0  0  0  0  0  0  0  0  0  0  0  0
   38.2450   26.3680   31.1550 H   0  0  0  0  0  0  0  0  0  0  0  0
   38.0910   27.7510   33.6830 H   0  0  0  0  0  0  0  0  0  0  0  0
   35.9750   26.6760   31.7450 H   0  0  0  0  0  0  0  0  0  0  0  0
   35.4610   27.4500   33.3360 H   0  0  0  0  0  0  0  0  0  0  0  0
   38.3230   26.2780   35.6910 F   0  0  0  0  0  0  0  0  0  0  0  0
   38.1040   25.3620   34.7270 C   0  0  0  0  0  0  0  0  0  0  0  0
   37.8120   25.6130   33.4130 C   0  0  0  0  0  0  0  0  0  0  0  0
   37.6430   24.5170   32.5470 C   0  0  0  0  0  0  0  0  0  0  0  0
   37.7620   23.2170   32.9870 C   0  0  0  0  0  0  0  0  0  0  0  0
   38.0610   22.9890   34.3290 C   0  0  0  0  0  0  0  0  0  0  0  0
   38.2320   24.0800   35.2000 C   0  0  0  0  0  0  0  0  0  0  0  0
   37.4160   24.7940   31.5290 H   0  0  0  0  0  0  0  0  0  0  0  0
   37.6260   22.4010   32.2950 H   0  0  0  0  0  0  0  0  0  0  0  0
   38.1390   21.9570   34.5950 H   0  0  0  0  0  0  0  0  0  0  0  0
   38.5400   23.7150   36.5760 C   0  0  0  0  0  0  0  0  0  0  0  0
   37.9650   24.0660   37.7670 C   0  0  0  0  0  0  0  0  0  0  0  0
   37.1200   24.7240   37.8850 H   0  0  0  0  0  0  0  0  0  0  0  0
   38.5940   23.4730   38.8380 C   0  0  0  0  0  0  0  0  0  0  0  0
   38.3430   23.5800   39.8840 H   0  0  0  0  0  0  0  0  0  0  0  0
   39.5620   22.7580   38.2460 N   0  0  0  0  0  0  0  0  0  0  0  0
   40.2730   22.1510   38.7520 H   0  0  0  0  0  0  0  0  0  0  0  0
   39.5380   22.8930   36.9370 N   0  0  0  0  0  0  0  0  0  0  0  0
   35.7340   29.8030   32.0930 C   0  0  0  0  0  0  0  0  0  0  0  0
   35.5850   30.2440   33.4160 C   0  0  0  0  0  0  0  0  0  0  0  0
   34.8120   31.3920   33.6620 C   0  0  0  0  0  0  0  0  0  0  0  0
   34.2510   32.0020   32.5550 N   0  0  0  0  0  0  0  0  0  0  0  0
   34.4150   31.5530   31.3110 C   0  0  0  0  0  0  0  0  0  0  0  0
   35.1620   30.4440   31.0770 N   0  0  0  0  0  0  0  0  0  0  0  0
   36.0120   29.7840   34.2830 H   0  0  0  0  0  0  0  0  0  0  0  0
   34.6830   31.7490   34.6570 H   0  0  0  0  0  0  0  0  0  0  0  0
   33.9320   32.1090   30.5210 H   0  0  0  0  0  0  0  0  0  0  0  0
  1 31  1  0  0  0  0
  1  5  1  0  0  0  0
  2  7  1  0  0  0  0
  2  3  1  0  0  0  0
  2  1  1  0  0  0  0
  3  8  1  0  0  0  0
  3  4  1  0  0  0  0
  4 15  1  0  0  0  0
  4 10  1  1  0  0  0
  5  4  1  0  0  0  0
  5 12  1  0  0  0  0
  6  2  1  0  0  0  0
  9  3  1  0  0  0  0
 11  5  1  0  0  0  0
 14 19  1  0  0  0  0
 14 13  1  0  0  0  0
 15 14  2  0  0  0  0
 16 17  2  0  0  0  0
 16 15  1  0  0  0  0
 17 18  1  0  0  0  0
 18 22  1  0  0  0  0
 18 19  2  0  0  0  0
 19 23  1  0  0  0  0
 20 16  1  0  0  0  0
 21 17  1  0  0  0  0
 23 30  2  0  0  0  0
 23 24  1  0  0  0  0
 24 25  1  0  0  0  0
 24 26  2  0  0  0  0
 26 27  1  0  0  0  0
 28 29  1  0  0  0  0
 28 26  1  0  0  0  0
 30 28  1  0  0  0  0
 31 32  1  0  0  0  0
 32 33  2  0  0  0  0
 32 37  1  0  0  0  0
 33 38  1  0  0  0  0
 34 33  1  0  0  0  0
 35 34  2  0  0  0  0
 36 35  1  0  0  0  0
 36 31  2  0  0  0  0
 39 35  1  0  0  0  0
M  END
>  <minimizedAffinity>
-5.63345242

$$$$

 OpenBabel03272502403D

 39 42  0  0  1  0  0  0  0  0999 V2000
   38.2570   24.8430   34.6290 N   0  0  0  0  0  0  0  0  0  0  0  0
   37.8020   24.1540   33.4320 C   0  0  0  0  0  0  0  0  0  0  0  0
   37.1280   25.2410   32.6500 C   0  0  0  0  0  0  0  0  0  0  0  0
   37.0720   26.4870   33.6440 C   0  0  1  0  0  0  0  0  0  0  0  0
   38.3550   26.2850   34.3250 C   0  0  0  0  0  0  0  0  0  0  0  0
   38.6150   23.6630   32.8940 H   0  0  0  0  0  0  0  0  0  0  0  0
   36.9990   23.4490   33.7550 H   0  0  0  0  0  0  0  0  0  0  0  0
   36.0880   25.0730   32.3750 H   0  0  0  0  0  0  0  0  0  0  0  0
   37.7410   25.6440   31.8270 H   0  0  0  0  0  0  0  0  0  0  0  0
   36.1700   26.2000   34.1820 H   0  0  0  0  0  0  0  0  0  0  0  0
   39.1710   26.3420   33.5770 H   0  0  0  0  0  0  0  0  0  0  0  0
   38.5350   26.8680   35.2250 H   0  0  0  0  0  0  0  0  0  0  0  0
   38.6720   26.8490   31.3300 F   0  0  0  0  0  0  0  0  0  0  0  0
   37.7390   27.7490   31.7010 C   0  0  0  0  0  0  0  0  0  0  0  0
   36.9640   27.7040   32.8290 C   0  0  0  0  0  0  0  0  0  0  0  0
   36.0610   28.7580   33.0570 C   0  0  0  0  0  0  0  0  0  0  0  0
   35.9410   29.8160   32.1840 C   0  0  0  0  0  0  0  0  0  0  0  0
   36.7420   29.8370   31.0430 C   0  0  0  0  0  0  0  0  0  0  0  0
   37.6480   28.7880   30.8090 C   0  0  0  0  0  0  0  0  0  0  0  0
   35.4870   28.6530   33.9650 H   0  0  0  0  0  0  0  0  0  0  0  0
   35.2360   30.6060   32.3910 H   0  0  0  0  0  0  0  0  0  0  0  0
   36.5930   30.6880   30.4160 H   0  0  0  0  0  0  0  0  0  0  0  0
   38.4280   28.9220   29.5860 C   0  0  0  0  0  0  0  0  0  0  0  0
   39.7520   29.1930   29.3700 C   0  0  0  0  0  0  0  0  0  0  0  0
   40.4890   29.3650   30.1360 H   0  0  0  0  0  0  0  0  0  0  0  0
   40.0590   29.2240   28.0280 C   0  0  0  0  0  0  0  0  0  0  0  0
   41.0260   29.4150   27.5840 H   0  0  0  0  0  0  0  0  0  0  0  0
   38.8760   28.9630   27.4540 N   0  0  0  0  0  0  0  0  0  0  0  0
   38.7020   28.9020   26.4070 H   0  0  0  0  0  0  0  0  0  0  0  0
   37.9260   28.7860   28.3490 N   0  0  0  0  0  0  0  0  0  0  0  0
   38.5570   24.2760   35.8820 C   0  0  0  0  0  0  0  0  0  0  0  0
   39.6870   23.4450   35.9190 C   0  0  0  0  0  0  0  0  0  0  0  0
   40.0390   22.8380   37.1370 C   0  0  0  0  0  0  0  0  0  0  0  0
   39.2240   23.1160   38.2190 N   0  0  0  0  0  0  0  0  0  0  0  0
   38.1570   23.9120   38.1460 C   0  0  0  0  0  0  0  0  0  0  0  0
   37.8200   24.4970   36.9680 N   0  0  0  0  0  0  0  0  0  0  0  0
   40.3270   23.2200   35.0910 H   0  0  0  0  0  0  0  0  0  0  0  0
   40.8920   22.2030   37.1920 H   0  0  0  0  0  0  0  0  0  0  0  0
   37.5930   24.0610   39.0550 H   0  0  0  0  0  0  0  0  0  0  0  0
  1 31  1  0  0  0  0
  2  7  1  0  0  0  0
  2  1  1  0  0  0  0
  3  2  1  0  0  0  0
  3  4  1  0  0  0  0
  4 10  1  1  0  0  0
  4  5  1  0  0  0  0
  5  1  1  0  0  0  0
  5 12  1  0  0  0  0
  6  2  1  0  0  0  0
  8  3  1  0  0  0  0
  9  3  1  0  0  0  0
 11  5  1  0  0  0  0
 13 14  1  0  0  0  0
 14 15  1  0  0  0  0
 15 16  2  0  0  0  0
 15  4  1  0  0  0  0
 16 20  1  0  0  0  0
 17 21  1  0  0  0  0
 17 16  1  0  0  0  0
 18 17  2  0  0  0  0
 19 18  1  0  0  0  0
 19 14  2  0  0  0  0
 22 18  1  0  0  0  0
 23 19  1  0  0  0  0
 24 23  1  0  0  0  0
 24 25  1  0  0  0  0
 26 24  2  0  0  0  0
 27 26  1  0  0  0  0
 28 26  1  0  0  0  0
 28 30  1  0  0  0  0
 29 28  1  0  0  0  0
 30 23  2  0  0  0  0
 31 32  2  0  0  0  0
 31 36  1  0  0  0  0
 32 33  1  0  0  0  0
 33 38  1  0  0  0  0
 33 34  2  0  0  0  0
 35 34  1  0  0  0  0
 35 39  1  0  0  0  0
 36 35  2  0  0  0  0
 37 32  1  0  0  0  0
M  END
>  <minimizedAffinity>
-5.58313704

$$$$

 OpenBabel03272502403D

 39 42  0  0  1  0  0  0  0  0999 V2000
   39.6660   23.9920   35.6890 N   0  0  0  0  0  0  0  0  0  0  0  0
   38.7300   24.1950   36.7830 C   0  0  0  0  0  0  0  0  0  0  0  0
   38.0820   25.5020   36.4380 C   0  0  0  0  0  0  0  0  0  0  0  0
   38.9230   26.0630   35.2040 C   0  0  1  0  0  0  0  0  0  0  0  0
   39.2080   24.7910   34.5340 C   0  0  0  0  0  0  0  0  0  0  0  0
   38.0250   23.3690   36.8930 H   0  0  0  0  0  0  0  0  0  0  0  0
   39.3420   24.3750   37.6980 H   0  0  0  0  0  0  0  0  0  0  0  0
   38.1450   26.2910   37.1840 H   0  0  0  0  0  0  0  0  0  0  0  0
   37.0790   25.3980   35.9910 H   0  0  0  0  0  0  0  0  0  0  0  0
   39.7290   26.5190   35.7760 H   0  0  0  0  0  0  0  0  0  0  0  0
   38.2510   24.3140   34.2460 H   0  0  0  0  0  0  0  0  0  0  0  0
   39.9540   24.8040   33.7420 H   0  0  0  0  0  0  0  0  0  0  0  0
   39.3230   26.5500   32.4380 F   0  0  0  0  0  0  0  0  0  0  0  0
   38.3060   27.1120   33.1220 C   0  0  0  0  0  0  0  0  0  0  0  0
   38.0630   26.9970   34.4650 C   0  0  0  0  0  0  0  0  0  0  0  0
   36.9600   27.6850   35.0020 C   0  0  0  0  0  0  0  0  0  0  0  0
   36.1310   28.4570   34.2190 C   0  0  0  0  0  0  0  0  0  0  0  0
   36.4020   28.5570   32.8550 C   0  0  0  0  0  0  0  0  0  0  0  0
   37.5030   27.8740   32.3110 C   0  0  0  0  0  0  0  0  0  0  0  0
   36.8340   27.5460   36.0650 H   0  0  0  0  0  0  0  0  0  0  0  0
   35.2940   28.9700   34.6660 H   0  0  0  0  0  0  0  0  0  0  0  0
   35.7170   29.1740   32.3150 H   0  0  0  0  0  0  0  0  0  0  0  0
   37.6820   28.0550   30.8770 C   0  0  0  0  0  0  0  0  0  0  0  0
   38.7920   28.3030   30.1170 C   0  0  0  0  0  0  0  0  0  0  0  0
   39.7970   28.4110   30.4920 H   0  0  0  0  0  0  0  0  0  0  0  0
   38.4890   28.4010   28.7780 C   0  0  0  0  0  0  0  0  0  0  0  0
   39.1760   28.5910   27.9650 H   0  0  0  0  0  0  0  0  0  0  0  0
   37.1620   28.2050   28.7660 N   0  0  0  0  0  0  0  0  0  0  0  0
   36.5500   28.2080   27.8980 H   0  0  0  0  0  0  0  0  0  0  0  0
   36.6870   28.0040   29.9770 N   0  0  0  0  0  0  0  0  0  0  0  0
   40.8220   23.1880   35.6880 C   0  0  0  0  0  0  0  0  0  0  0  0
   40.8480   22.1600   36.6410 C   0  0  0  0  0  0  0  0  0  0  0  0
   41.9770   21.3240   36.7020 C   0  0  0  0  0  0  0  0  0  0  0  0
   42.9880   21.5930   35.7990 N   0  0  0  0  0  0  0  0  0  0  0  0
   42.9280   22.5810   34.9060 C   0  0  0  0  0  0  0  0  0  0  0  0
   41.8360   23.3860   34.8490 N   0  0  0  0  0  0  0  0  0  0  0  0
   40.0740   21.9380   37.3480 H   0  0  0  0  0  0  0  0  0  0  0  0
   42.0220   20.5360   37.4160 H   0  0  0  0  0  0  0  0  0  0  0  0
   43.7750   22.7000   34.2470 H   0  0  0  0  0  0  0  0  0  0  0  0
  1  2  1  0  0  0  0
  2  6  1  0  0  0  0
  2  7  1  0  0  0  0
  3  2  1  0  0  0  0
  3  8  1  0  0  0  0
  4 10  1  1  0  0  0
  4  3  1  0  0  0  0
  5  4  1  0  0  0  0
  5  1  1  0  0  0  0
  9  3  1  0  0  0  0
 11  5  1  0  0  0  0
 12  5  1  0  0  0  0
 13 14  1  0  0  0  0
 14 15  1  0  0  0  0
 15 16  2  0  0  0  0
 15  4  1  0  0  0  0
 16 20  1  0  0  0  0
 17 21  1  0  0  0  0
 17 16  1  0  0  0  0
 18 17  2  0  0  0  0
 19 18  1  0  0  0  0
 19 14  2  0  0  0  0
 22 18  1  0  0  0  0
 23 19  1  0  0  0  0
 24 25  1  0  0  0  0
 24 23  1  0  0  0  0
 26 24  2  0  0  0  0
 27 26  1  0  0  0  0
 28 26  1  0  0  0  0
 28 30  1  0  0  0  0
 29 28  1  0  0  0  0
 30 23  2  0  0  0  0
 31  1  1  0  0  0  0
 31 32  1  0  0  0  0
 32 33  2  0  0  0  0
 32 37  1  0  0  0  0
 33 38  1  0  0  0  0
 34 33  1  0  0  0  0
 35 34  2  0  0  0  0
 36 35  1  0  0  0  0
 36 31  2  0  0  0  0
 39 35  1  0  0  0  0
M  END
>  <minimizedAffinity>
-5.52640152

$$$$

 OpenBabel03272502403D

 39 42  0  0  1  0  0  0  0  0999 V2000
   36.8100   27.3860   32.7080 N   0  0  0  0  0  0  0  0  0  0  0  0
   36.9820   28.4670   31.7500 C   0  0  0  0  0  0  0  0  0  0  0  0
   36.1930   29.5880   32.3570 C   0  0  0  0  0  0  0  0  0  0  0  0
   35.4160   28.9250   33.5820 C   0  0  1  0  0  0  0  0  0  0  0  0
   36.4480   27.9770   34.0120 C   0  0  0  0  0  0  0  0  0  0  0  0
   38.0310   28.7110   31.5740 H   0  0  0  0  0  0  0  0  0  0  0  0
   36.4410   28.1610   30.8230 H   0  0  0  0  0  0  0  0  0  0  0  0
   35.4040   30.0180   31.7430 H   0  0  0  0  0  0  0  0  0  0  0  0
   36.8120   30.3420   32.8710 H   0  0  0  0  0  0  0  0  0  0  0  0
   34.5740   28.5260   33.0190 H   0  0  0  0  0  0  0  0  0  0  0  0
   37.3540   28.5430   34.3070 H   0  0  0  0  0  0  0  0  0  0  0  0
   36.1510   27.2110   34.7250 H   0  0  0  0  0  0  0  0  0  0  0  0
   32.7240   29.5830   34.1870 F   0  0  0  0  0  0  0  0  0  0  0  0
   33.7610   30.1880   34.7990 C   0  0  0  0  0  0  0  0  0  0  0  0
   35.0910   29.9940   34.5360 C   0  0  0  0  0  0  0  0  0  0  0  0
   36.0300   30.7440   35.2670 C   0  0  0  0  0  0  0  0  0  0  0  0
   35.6460   31.6530   36.2270 C   0  0  0  0  0  0  0  0  0  0  0  0
   34.2870   31.8310   36.4750 C   0  0  0  0  0  0  0  0  0  0  0  0
   33.3420   31.0870   35.7480 C   0  0  0  0  0  0  0  0  0  0  0  0
   37.0560   30.5370   35.0030 H   0  0  0  0  0  0  0  0  0  0  0  0
   36.3950   32.2100   36.7690 H   0  0  0  0  0  0  0  0  0  0  0  0
   34.0680   32.5530   37.2320 H   0  0  0  0  0  0  0  0  0  0  0  0
   31.9540   31.3600   36.0970 C   0  0  0  0  0  0  0  0  0  0  0  0
   31.1750   32.4740   35.9430 C   0  0  0  0  0  0  0  0  0  0  0  0
   31.4910   33.4040   35.5010 H   0  0  0  0  0  0  0  0  0  0  0  0
   29.8990   32.2800   36.4250 C   0  0  0  0  0  0  0  0  0  0  0  0
   29.0870   32.9930   36.4270 H   0  0  0  0  0  0  0  0  0  0  0  0
   29.9460   31.0160   36.8700 N   0  0  0  0  0  0  0  0  0  0  0  0
   29.1380   30.4940   37.3210 H   0  0  0  0  0  0  0  0  0  0  0  0
   31.1320   30.4760   36.6840 N   0  0  0  0  0  0  0  0  0  0  0  0
   36.9490   26.0050   32.4750 C   0  0  0  0  0  0  0  0  0  0  0  0
   36.3190   25.5160   31.3220 C   0  0  0  0  0  0  0  0  0  0  0  0
   36.4100   24.1430   31.0330 C   0  0  0  0  0  0  0  0  0  0  0  0
   37.1290   23.3740   31.9300 N   0  0  0  0  0  0  0  0  0  0  0  0
   37.7160   23.8750   33.0170 C   0  0  0  0  0  0  0  0  0  0  0  0
   37.6260   25.2020   33.2930 N   0  0  0  0  0  0  0  0  0  0  0  0
   35.7590   26.0970   30.6180 H   0  0  0  0  0  0  0  0  0  0  0  0
   35.9410   23.7460   30.1640 H   0  0  0  0  0  0  0  0  0  0  0  0
   38.2530   23.1830   33.6480 H   0  0  0  0  0  0  0  0  0  0  0  0
  1  5  1  0  0  0  0
  2  3  1  0  0  0  0
  2  1  1  0  0  0  0
  3  9  1  0  0  0  0
  3  4  1  0  0  0  0
  4 10  1  6  0  0  0
  4  5  1  0  0  0  0
  4 15  1  0  0  0  0
  5 11  1  0  0  0  0
  5 12  1  0  0  0  0
  6  2  1  0  0  0  0
  7  2  1  0  0  0  0
  8  3  1  0  0  0  0
 13 14  1  0  0  0  0
 14 19  1  0  0  0  0
 15 14  2  0  0  0  0
 15 16  1  0  0  0  0
 16 17  2  0  0  0  0
 17 18  1  0  0  0  0
 17 21  1  0  0  0  0
 18 22  1  0  0  0  0
 19 23  1  0  0  0  0
 19 18  2  0  0  0  0
 20 16  1  0  0  0  0
 23 30  2  0  0  0  0
 24 23  1  0  0  0  0
 24 26  2  0  0  0  0
 25 24  1  0  0  0  0
 26 27  1  0  0  0  0
 26 28  1  0  0  0  0
 28 29  1  0  0  0  0
 30 28  1  0  0  0  0
 31  1  1  0  0  0  0
 31 36  1  0  0  0  0
 32 31  2  0  0  0  0
 33 32  1  0  0  0  0
 33 34  2  0  0  0  0
 34 35  1  0  0  0  0
 35 36  2  0  0  0  0
 35 39  1  0  0  0  0
 37 32  1  0  0  0  0
 38 33  1  0  0  0  0
M  END
>  <minimizedAffinity>
-5.52479124

$$$$

 OpenBabel03272502403D

 39 42  0  0  1  0  0  0  0  0999 V2000
   39.1500   23.8610   35.7460 N   0  0  0  0  0  0  0  0  0  0  0  0
   38.3410   24.7610   36.5520 C   0  0  0  0  0  0  0  0  0  0  0  0
   37.6120   25.5740   35.5240 C   0  0  0  0  0  0  0  0  0  0  0  0
   38.2850   25.1750   34.1340 C   0  0  1  0  0  0  0  0  0  0  0  0
   38.5350   23.7560   34.4080 C   0  0  0  0  0  0  0  0  0  0  0  0
   37.6830   24.2320   37.2430 H   0  0  0  0  0  0  0  0  0  0  0  0
   39.0490   25.4550   37.0630 H   0  0  0  0  0  0  0  0  0  0  0  0
   37.7330   26.6540   35.5780 H   0  0  0  0  0  0  0  0  0  0  0  0
   36.5680   25.2560   35.3630 H   0  0  0  0  0  0  0  0  0  0  0  0
   39.1350   25.8520   34.1870 H   0  0  0  0  0  0  0  0  0  0  0  0
   37.5670   23.2520   34.6010 H   0  0  0  0  0  0  0  0  0  0  0  0
   39.1830   23.2250   33.7150 H   0  0  0  0  0  0  0  0  0  0  0  0
   37.6630   27.8400   33.3890 F   0  0  0  0  0  0  0  0  0  0  0  0
   37.1330   26.7790   32.7500 C   0  0  0  0  0  0  0  0  0  0  0  0
   37.3120   25.4590   33.0690 C   0  0  0  0  0  0  0  0  0  0  0  0
   36.6480   24.4910   32.2950 C   0  0  0  0  0  0  0  0  0  0  0  0
   35.8360   24.8360   31.2380 C   0  0  0  0  0  0  0  0  0  0  0  0
   35.6700   26.1860   30.9340 C   0  0  0  0  0  0  0  0  0  0  0  0
   36.3290   27.1600   31.7050 C   0  0  0  0  0  0  0  0  0  0  0  0
   36.8390   23.4750   32.6070 H   0  0  0  0  0  0  0  0  0  0  0  0
   35.3440   24.0650   30.6650 H   0  0  0  0  0  0  0  0  0  0  0  0
   35.0250   26.3750   30.1040 H   0  0  0  0  0  0  0  0  0  0  0  0
   36.0770   28.5340   31.2910 C   0  0  0  0  0  0  0  0  0  0  0  0
   35.3220   29.5320   31.8420 C   0  0  0  0  0  0  0  0  0  0  0  0
   34.7440   29.4530   32.7480 H   0  0  0  0  0  0  0  0  0  0  0  0
   35.3760   30.6900   31.0990 C   0  0  0  0  0  0  0  0  0  0  0  0
   34.8760   31.6240   31.3090 H   0  0  0  0  0  0  0  0  0  0  0  0
   36.1880   30.3480   30.0880 N   0  0  0  0  0  0  0  0  0  0  0  0
   36.4770   30.9870   29.2910 H   0  0  0  0  0  0  0  0  0  0  0  0
   36.5990   29.1010   30.1920 N   0  0  0  0  0  0  0  0  0  0  0  0
   40.3260   23.1890   36.1320 C   0  0  0  0  0  0  0  0  0  0  0  0
   41.5230   23.7140   35.6230 C   0  0  0  0  0  0  0  0  0  0  0  0
   42.7340   23.0860   35.9620 C   0  0  0  0  0  0  0  0  0  0  0  0
   42.6410   21.9800   36.7850 N   0  0  0  0  0  0  0  0  0  0  0  0
   41.4840   21.5090   37.2510 C   0  0  0  0  0  0  0  0  0  0  0  0
   40.3160   22.1180   36.9220 N   0  0  0  0  0  0  0  0  0  0  0  0
   41.6120   24.5690   34.9840 H   0  0  0  0  0  0  0  0  0  0  0  0
   43.6560   23.4650   35.5890 H   0  0  0  0  0  0  0  0  0  0  0  0
   41.5290   20.6380   37.8880 H   0  0  0  0  0  0  0  0  0  0  0  0
  1 31  1  0  0  0  0
  1  2  1  0  0  0  0
  2  7  1  0  0  0  0
  2  6  1  0  0  0  0
  3  8  1  0  0  0  0
  3  2  1  0  0  0  0
  4 10  1  6  0  0  0
  4  5  1  0  0  0  0
  4  3  1  0  0  0  0
  5 11  1  0  0  0  0
  5  1  1  0  0  0  0
  9  3  1  0  0  0  0
 12  5  1  0  0  0  0
 14 15  1  0  0  0  0
 14 13  1  0  0  0  0
 15  4  1  0  0  0  0
 16 20  1  0  0  0  0
 16 15  2  0  0  0  0
 17 16  1  0  0  0  0
 18 17  2  0  0  0  0
 18 19  1  0  0  0  0
 19 14  2  0  0  0  0
 21 17  1  0  0  0  0
 22 18  1  0  0  0  0
 23 19  1  0  0  0  0
 23 24  1  0  0  0  0
 24 25  1  0  0  0  0
 26 27  1  0  0  0  0
 26 24  2  0  0  0  0
 28 30  1  0  0  0  0
 28 26  1  0  0  0  0
 29 28  1  0  0  0  0
 30 23  2  0  0  0  0
 31 36  1  0  0  0  0
 32 33  1  0  0  0  0
 32 31  2  0  0  0  0
 33 34  2  0  0  0  0
 34 35  1  0  0  0  0
 35 39  1  0  0  0  0
 36 35  2  0  0  0  0
 37 32  1  0  0  0  0
 38 33  1  0  0  0  0
M  END
>  <minimizedAffinity>
-5.51778412

$$$$

 OpenBabel03272502403D

 39 42  0  0  1  0  0  0  0  0999 V2000
   38.8390   24.9530   34.8080 N   0  0  0  0  0  0  0  0  0  0  0  0
   39.1660   24.3940   33.5060 C   0  0  0  0  0  0  0  0  0  0  0  0
   38.3780   25.2510   32.5610 C   0  0  0  0  0  0  0  0  0  0  0  0
   37.4450   26.1430   33.4990 C   0  0  1  0  0  0  0  0  0  0  0  0
   38.3760   26.3420   34.6130 C   0  0  0  0  0  0  0  0  0  0  0  0
   40.2390   24.3900   33.3060 H   0  0  0  0  0  0  0  0  0  0  0  0
   38.7080   23.3770   33.4710 H   0  0  0  0  0  0  0  0  0  0  0  0
   37.6800   24.7390   31.9020 H   0  0  0  0  0  0  0  0  0  0  0  0
   38.9800   26.0230   32.0520 H   0  0  0  0  0  0  0  0  0  0  0  0
   36.6460   25.4170   33.6370 H   0  0  0  0  0  0  0  0  0  0  0  0
   39.2760   26.8700   34.2400 H   0  0  0  0  0  0  0  0  0  0  0  0
   37.9680   26.7550   35.5330 H   0  0  0  0  0  0  0  0  0  0  0  0
   35.8020   28.1480   34.6500 F   0  0  0  0  0  0  0  0  0  0  0  0
   36.3340   28.2820   33.4180 C   0  0  0  0  0  0  0  0  0  0  0  0
   37.0810   27.3510   32.7460 C   0  0  0  0  0  0  0  0  0  0  0  0
   37.5260   27.6670   31.4490 C   0  0  0  0  0  0  0  0  0  0  0  0
   37.2330   28.8720   30.8520 C   0  0  0  0  0  0  0  0  0  0  0  0
   36.4700   29.8010   31.5580 C   0  0  0  0  0  0  0  0  0  0  0  0
   36.0200   29.4920   32.8540 C   0  0  0  0  0  0  0  0  0  0  0  0
   38.1080   26.8850   30.9850 H   0  0  0  0  0  0  0  0  0  0  0  0
   37.5920   29.0790   29.8560 H   0  0  0  0  0  0  0  0  0  0  0  0
   36.2830   30.7100   31.0290 H   0  0  0  0  0  0  0  0  0  0  0  0
   35.2340   30.5420   33.4890 C   0  0  0  0  0  0  0  0  0  0  0  0
   35.5790   31.5570   34.3380 C   0  0  0  0  0  0  0  0  0  0  0  0
   36.5720   31.7580   34.7030 H   0  0  0  0  0  0  0  0  0  0  0  0
   34.4920   32.3240   34.6930 C   0  0  0  0  0  0  0  0  0  0  0  0
   34.4850   33.1830   35.3480 H   0  0  0  0  0  0  0  0  0  0  0  0
   33.4890   31.7320   34.0270 N   0  0  0  0  0  0  0  0  0  0  0  0
   32.4730   32.0410   34.0480 H   0  0  0  0  0  0  0  0  0  0  0  0
   33.9100   30.6990   33.3270 N   0  0  0  0  0  0  0  0  0  0  0  0
   38.9290   24.3160   36.0600 C   0  0  0  0  0  0  0  0  0  0  0  0
   37.9870   24.7190   37.0180 C   0  0  0  0  0  0  0  0  0  0  0  0
   38.0250   24.1290   38.2930 C   0  0  0  0  0  0  0  0  0  0  0  0
   39.0100   23.1820   38.5010 N   0  0  0  0  0  0  0  0  0  0  0  0
   39.8900   22.8240   37.5660 C   0  0  0  0  0  0  0  0  0  0  0  0
   39.8500   23.3950   36.3350 N   0  0  0  0  0  0  0  0  0  0  0  0
   37.2180   25.4510   36.8730 H   0  0  0  0  0  0  0  0  0  0  0  0
   37.3210   24.4170   39.0380 H   0  0  0  0  0  0  0  0  0  0  0  0
   40.6160   22.0720   37.8370 H   0  0  0  0  0  0  0  0  0  0  0  0
  1 31  1  0  0  0  0
  2  1  1  0  0  0  0
  3  4  1  0  0  0  0
  3  2  1  0  0  0  0
  4 10  1  1  0  0  0
  4  5  1  0  0  0  0
  5  1  1  0  0  0  0
  5 12  1  0  0  0  0
  6  2  1  0  0  0  0
  7  2  1  0  0  0  0
  8  3  1  0  0  0  0
  9  3  1  0  0  0  0
 11  5  1  0  0  0  0
 14 13  1  0  0  0  0
 15 14  2  0  0  0  0
 15  4  1  0  0  0  0
 16 15  1  0  0  0  0
 17 16  2  0  0  0  0
 17 18  1  0  0  0  0
 18 19  2  0  0  0  0
 19 14  1  0  0  0  0
 19 23  1  0  0  0  0
 20 16  1  0  0  0  0
 21 17  1  0  0  0  0
 22 18  1  0  0  0  0
 23 24  1  0  0  0  0
 24 26  2  0  0  0  0
 24 25  1  0  0  0  0
 26 27  1  0  0  0  0
 28 29  1  0  0  0  0
 28 26  1  0  0  0  0
 30 23  2  0  0  0  0
 30 28  1  0  0  0  0
 31 36  2  0  0  0  0
 31 32  1  0  0  0  0
 32 33  2  0  0  0  0
 33 34  1  0  0  0  0
 33 38  1  0  0  0  0
 35 39  1  0  0  0  0
 35 34  2  0  0  0  0
 36 35  1  0  0  0  0
 37 32  1  0  0  0  0
M  END
>  <minimizedAffinity>
-5.48751783

$$$$
