
 OpenBabel03272501543D

 23 24  0  0  0  0  0  0  0  0999 V2000
   34.6630   28.2980   49.5740 C   0  0  0  0  0  0  0  0  0  0  0  0
   33.7720   28.6770   50.0880 H   0  0  0  0  0  0  0  0  0  0  0  0
   34.9610   27.2770   49.9110 H   0  0  0  0  0  0  0  0  0  0  0  0
   37.2840   30.1810   51.3930 C   0  0  0  0  0  0  0  0  0  0  0  0
   38.0710   30.6900   50.3430 C   0  0  0  0  0  0  0  0  0  0  0  0
   37.6920   30.3820   49.0240 C   0  0  0  0  0  0  0  0  0  0  0  0
   36.5900   29.6100   48.8230 N   0  0  0  0  0  0  0  0  0  0  0  0
   35.8640   29.1420   49.8730 C   0  0  0  0  0  0  0  0  0  0  0  0
   36.2170   29.4310   51.1240 N   0  0  0  0  0  0  0  0  0  0  0  0
   37.6510   30.4690   52.3600 H   0  0  0  0  0  0  0  0  0  0  0  0
   38.9470   31.3010   50.4230 H   0  0  0  0  0  0  0  0  0  0  0  0
   38.1930   30.7000   48.1370 H   0  0  0  0  0  0  0  0  0  0  0  0
   34.4460   28.2380   48.0900 C   0  0  0  0  0  0  0  0  0  0  0  0
   34.8310   29.1570   47.5850 H   0  0  0  0  0  0  0  0  0  0  0  0
   34.8780   27.3320   47.6500 H   0  0  0  0  0  0  0  0  0  0  0  0
   32.9590   28.2640   47.8820 C   0  0  0  0  0  0  0  0  0  0  0  0
   32.0140   27.6000   48.6300 C   0  0  0  0  0  0  0  0  0  0  0  0
   32.2110   26.9500   49.4960 H   0  0  0  0  0  0  0  0  0  0  0  0
   30.7410   27.8490   48.1600 C   0  0  0  0  0  0  0  0  0  0  0  0
   29.7760   27.5020   48.4950 H   0  0  0  0  0  0  0  0  0  0  0  0
   30.9550   28.6790   47.1080 N   0  0  0  0  0  0  0  0  0  0  0  0
   30.2860   29.1160   46.4640 H   0  0  0  0  0  0  0  0  0  0  0  0
   32.2520   28.9220   46.9450 N   0  0  0  0  0  0  0  0  0  0  0  0
  1  8  1  0  0  0  0
  1  3  1  0  0  0  0
  1  2  1  0  0  0  0
  4 10  1  0  0  0  0
  5 11  1  0  0  0  0
  5  4  2  0  0  0  0
  6  5  1  0  0  0  0
  7  6  2  0  0  0  0
  7  8  1  0  0  0  0
  8  9  2  0  0  0  0
  9  4  1  0  0  0  0
 12  6  1  0  0  0  0
 13  1  1  0  0  0  0
 14 13  1  0  0  0  0
 15 13  1  0  0  0  0
 16 13  1  0  0  0  0
 16 17  1  0  0  0  0
 17 18  1  0  0  0  0
 19 20  1  0  0  0  0
 19 17  2  0  0  0  0
 21 19  1  0  0  0  0
 22 21  1  0  0  0  0
 23 21  1  0  0  0  0
 23 16  2  0  0  0  0
M  END
>  <minimizedAffinity>
-4.31541252

>  <minimizedRMSD>
1.01625836

$$$$
