
 OpenBabel03272508003D

 20 21  0  0  0  0  0  0  0  0999 V2000
   37.9170   30.8720   46.7330 C   0  0  0  0  0  0  0  0  0  0  0  0
   38.0570   31.0380   48.1370 C   0  0  0  0  0  0  0  0  0  0  0  0
   36.9290   30.8170   48.9310 C   0  0  0  0  0  0  0  0  0  0  0  0
   35.7690   30.4560   48.3180 N   0  0  0  0  0  0  0  0  0  0  0  0
   35.6690   30.3060   46.9810 C   0  0  0  0  0  0  0  0  0  0  0  0
   36.7530   30.5190   46.2060 N   0  0  0  0  0  0  0  0  0  0  0  0
   39.0030   31.3260   48.5680 H   0  0  0  0  0  0  0  0  0  0  0  0
   34.7230   30.0160   46.5160 H   0  0  0  0  0  0  0  0  0  0  0  0
   39.0950   31.1040   45.9050 C   0  0  0  0  0  0  0  0  0  0  0  0
   39.9170   32.2000   45.9020 C   0  0  0  0  0  0  0  0  0  0  0  0
   39.8130   33.0890   46.5320 H   0  0  0  0  0  0  0  0  0  0  0  0
   40.9390   32.0340   44.9600 C   0  0  0  0  0  0  0  0  0  0  0  0
   41.7200   32.7600   44.7640 H   0  0  0  0  0  0  0  0  0  0  0  0
   40.6830   30.8080   44.4200 N   0  0  0  0  0  0  0  0  0  0  0  0
   41.3400   30.4760   43.6770 H   0  0  0  0  0  0  0  0  0  0  0  0
   39.6120   30.2790   44.9770 N   0  0  0  0  0  0  0  0  0  0  0  0
   37.0520   30.9860   50.4030 C   0  0  0  0  0  0  0  0  0  0  0  0
   36.5530   32.2400   50.6850 F   0  0  0  0  0  0  0  0  0  0  0  0
   36.3090   30.0520   51.1060 F   0  0  0  0  0  0  0  0  0  0  0  0
   38.3700   30.9430   50.8250 F   0  0  0  0  0  0  0  0  0  0  0  0
  1  2  1  0  0  0  0
  2  7  1  0  0  0  0
  2  3  2  0  0  0  0
  3 17  1  0  0  0  0
  4  3  1  0  0  0  0
  5  4  2  0  0  0  0
  6  1  2  0  0  0  0
  6  5  1  0  0  0  0
  8  5  1  0  0  0  0
  9  1  1  0  0  0  0
 10  9  1  0  0  0  0
 10 11  1  0  0  0  0
 12 10  2  0  0  0  0
 13 12  1  0  0  0  0
 14 12  1  0  0  0  0
 14 16  1  0  0  0  0
 15 14  1  0  0  0  0
 16  9  2  0  0  0  0
 17 18  1  0  0  0  0
 17 20  1  0  0  0  0
 17 19  1  0  0  0  0
M  END
>  <minimizedAffinity>
-5.30306625

>  <minimizedRMSD>
6.03944635

$$$$
