
 OpenBabel03262523273D

 39 42  0  0  1  0  0  0  0  0999 V2000
   34.6350   29.6070   32.3300 C   0  0  0  0  0  0  0  0  0  0  0  0
   35.2070   30.2390   31.2300 C   0  0  0  0  0  0  0  0  0  0  0  0
   36.4940   29.8880   30.8850 C   0  0  0  0  0  0  0  0  0  0  0  0
   37.1280   28.9510   31.6340 N   0  0  0  0  0  0  0  0  0  0  0  0
   36.5430   28.3480   32.7060 C   0  0  0  0  0  0  0  0  0  0  0  0
   35.3060   28.6730   33.0510 N   0  0  0  0  0  0  0  0  0  0  0  0
   37.2950   27.3570   33.4500 N   0  0  0  0  0  0  0  0  0  0  0  0
   37.2660   27.3890   34.8880 C   0  0  0  0  0  0  0  0  0  0  0  0
   38.5410   26.8610   35.5050 C   0  0  0  0  0  0  0  0  0  0  0  0
   39.6350   26.9720   34.4710 C   0  0  0  0  0  0  0  0  0  0  0  0
   39.3030   25.9400   33.4160 C   0  0  0  0  0  0  0  0  0  0  0  0
   38.0660   26.3540   32.7060 C   0  0  1  0  0  0  0  0  0  0  0  0
   33.6250   29.8800   32.6040 H   0  0  0  0  0  0  0  0  0  0  0  0
   34.6900   30.9830   30.6440 H   0  0  0  0  0  0  0  0  0  0  0  0
   37.0040   30.3280   30.0530 H   0  0  0  0  0  0  0  0  0  0  0  0
   36.4310   26.7980   35.2870 H   0  0  0  0  0  0  0  0  0  0  0  0
   37.0980   28.4470   35.1930 H   0  0  0  0  0  0  0  0  0  0  0  0
   38.4310   25.7810   35.7730 H   0  0  0  0  0  0  0  0  0  0  0  0
   38.8300   27.4970   36.3630 H   0  0  0  0  0  0  0  0  0  0  0  0
   39.6040   27.9780   34.0330 H   0  0  0  0  0  0  0  0  0  0  0  0
   40.6290   26.6960   34.8980 H   0  0  0  0  0  0  0  0  0  0  0  0
   39.2750   24.9960   33.9660 H   0  0  0  0  0  0  0  0  0  0  0  0
   40.1930   25.9520   32.7210 H   0  0  0  0  0  0  0  0  0  0  0  0
   38.3410   26.8890   31.7590 H   0  0  0  0  0  0  0  0  0  0  0  0
   37.2200   25.2260   32.2910 C   0  0  0  0  0  0  0  0  0  0  0  0
   36.0600   25.2770   31.4850 C   0  0  0  0  0  0  0  0  0  0  0  0
   35.4320   24.1050   31.2040 C   0  0  0  0  0  0  0  0  0  0  0  0
   35.9760   22.8900   31.7330 C   0  0  0  0  0  0  0  0  0  0  0  0
   37.4670   23.5630   32.6750 S   0  0  0  0  0  0  0  0  0  0  0  0
   35.6260   26.1790   31.0710 H   0  0  0  0  0  0  0  0  0  0  0  0
   34.5680   23.8940   30.6350 H   0  0  0  0  0  0  0  0  0  0  0  0
   35.6760   21.5420   31.7000 C   0  0  0  0  0  0  0  0  0  0  0  0
   34.9380   20.8090   32.5640 C   0  0  0  0  0  0  0  0  0  0  0  0
   34.4300   21.1440   33.4630 H   0  0  0  0  0  0  0  0  0  0  0  0
   34.9400   19.4940   32.0820 C   0  0  0  0  0  0  0  0  0  0  0  0
   34.4320   18.6510   32.5540 H   0  0  0  0  0  0  0  0  0  0  0  0
   35.6880   19.4970   30.9380 N   0  0  0  0  0  0  0  0  0  0  0  0
   35.8350   18.6130   30.3930 H   0  0  0  0  0  0  0  0  0  0  0  0
   36.1280   20.7490   30.7200 N   0  0  0  0  0  0  0  0  0  0  0  0
  1 13  1  0  0  0  0
  1  6  1  0  0  0  0
  2  1  2  0  0  0  0
  3  2  1  0  0  0  0
  3  4  2  0  0  0  0
  4  5  1  0  0  0  0
  5  6  2  0  0  0  0
  5  7  1  0  0  0  0
  7  8  1  0  0  0  0
  8 17  1  0  0  0  0
  8 16  1  0  0  0  0
  8  9  1  0  0  0  0
  9 18  1  0  0  0  0
  9 19  1  0  0  0  0
 10 21  1  0  0  0  0
 10  9  1  0  0  0  0
 11 22  1  0  0  0  0
 11 10  1  0  0  0  0
 12 24  1  6  0  0  0
 12 11  1  0  0  0  0
 12  7  1  0  0  0  0
 14  2  1  0  0  0  0
 15  3  1  0  0  0  0
 20 10  1  0  0  0  0
 23 11  1  0  0  0  0
 25 29  1  0  0  0  0
 25 12  1  0  0  0  0
 26 25  2  0  0  0  0
 27 26  1  0  0  0  0
 27 28  2  0  0  0  0
 28 29  1  0  0  0  0
 30 26  1  0  0  0  0
 31 27  1  0  0  0  0
 32 28  1  0  0  0  0
 32 33  1  0  0  0  0
 33 34  1  0  0  0  0
 35 36  1  0  0  0  0
 35 33  2  0  0  0  0
 37 35  1  0  0  0  0
 38 37  1  0  0  0  0
 39 37  1  0  0  0  0
 39 32  2  0  0  0  0
M  END
>  <minimizedAffinity>
-6.02023268

$$$$

 OpenBabel03262523273D

 39 42  0  0  1  0  0  0  0  0999 V2000
   38.2570   23.0370   36.8700 C   0  0  0  0  0  0  0  0  0  0  0  0
   39.6360   22.9800   36.6900 C   0  0  0  0  0  0  0  0  0  0  0  0
   40.1080   22.4390   35.5140 C   0  0  0  0  0  0  0  0  0  0  0  0
   39.2070   21.9950   34.6020 N   0  0  0  0  0  0  0  0  0  0  0  0
   37.8610   22.0640   34.8050 C   0  0  0  0  0  0  0  0  0  0  0  0
   37.3900   22.5810   35.9300 N   0  0  0  0  0  0  0  0  0  0  0  0
   36.9710   21.5650   33.7760 N   0  0  0  0  0  0  0  0  0  0  0  0
   35.8420   20.7580   34.1570 C   0  0  0  0  0  0  0  0  0  0  0  0
   35.4550   19.7610   33.0890 C   0  0  0  0  0  0  0  0  0  0  0  0
   36.6610   19.5360   32.2090 C   0  0  0  0  0  0  0  0  0  0  0  0
   36.8450   20.8240   31.4360 C   0  0  0  0  0  0  0  0  0  0  0  0
   37.2550   21.8980   32.3760 C   0  0  1  0  0  0  0  0  0  0  0  0
   37.8820   23.4610   37.7920 H   0  0  0  0  0  0  0  0  0  0  0  0
   40.3400   23.3360   37.4250 H   0  0  0  0  0  0  0  0  0  0  0  0
   41.1530   22.3590   35.3000 H   0  0  0  0  0  0  0  0  0  0  0  0
   34.9600   21.3750   34.3740 H   0  0  0  0  0  0  0  0  0  0  0  0
   36.1150   20.2290   35.0990 H   0  0  0  0  0  0  0  0  0  0  0  0
   34.6350   20.1680   32.4480 H   0  0  0  0  0  0  0  0  0  0  0  0
   35.2030   18.7920   33.5590 H   0  0  0  0  0  0  0  0  0  0  0  0
   37.5350   19.3570   32.8480 H   0  0  0  0  0  0  0  0  0  0  0  0
   36.4750   18.7290   31.4600 H   0  0  0  0  0  0  0  0  0  0  0  0
   35.8990   20.9540   30.9060 H   0  0  0  0  0  0  0  0  0  0  0  0
   37.6680   20.5950   30.6980 H   0  0  0  0  0  0  0  0  0  0  0  0
   38.3720   22.0040   32.3570 H   0  0  0  0  0  0  0  0  0  0  0  0
   36.7270   23.2240   32.0220 C   0  0  0  0  0  0  0  0  0  0  0  0
   35.5060   23.5140   31.3720 C   0  0  0  0  0  0  0  0  0  0  0  0
   35.2000   24.8200   31.1540 C   0  0  0  0  0  0  0  0  0  0  0  0
   36.1220   25.8250   31.5920 C   0  0  0  0  0  0  0  0  0  0  0  0
   37.4750   24.7440   32.3440 S   0  0  0  0  0  0  0  0  0  0  0  0
   34.7900   22.7760   31.0310 H   0  0  0  0  0  0  0  0  0  0  0  0
   34.3620   25.2740   30.6980 H   0  0  0  0  0  0  0  0  0  0  0  0
   36.2070   27.2030   31.5760 C   0  0  0  0  0  0  0  0  0  0  0  0
   36.1260   28.0760   32.6070 C   0  0  0  0  0  0  0  0  0  0  0  0
   35.9780   27.8580   33.6590 H   0  0  0  0  0  0  0  0  0  0  0  0
   36.2720   29.3580   32.0610 C   0  0  0  0  0  0  0  0  0  0  0  0
   36.2540   30.2880   32.6320 H   0  0  0  0  0  0  0  0  0  0  0  0
   36.4350   29.1950   30.7140 N   0  0  0  0  0  0  0  0  0  0  0  0
   36.5640   30.0250   30.0870 H   0  0  0  0  0  0  0  0  0  0  0  0
   36.3930   27.8800   30.4360 N   0  0  0  0  0  0  0  0  0  0  0  0
  1 13  1  0  0  0  0
  2  1  1  0  0  0  0
  2 14  1  0  0  0  0
  3  2  2  0  0  0  0
  4  5  2  0  0  0  0
  4  3  1  0  0  0  0
  5  6  1  0  0  0  0
  6  1  2  0  0  0  0
  7  8  1  0  0  0  0
  7  5  1  0  0  0  0
  8 16  1  0  0  0  0
  8 17  1  0  0  0  0
  9 19  1  0  0  0  0
  9  8  1  0  0  0  0
 10 20  1  0  0  0  0
 10  9  1  0  0  0  0
 11 10  1  0  0  0  0
 11 12  1  0  0  0  0
 12 24  1  6  0  0  0
 12  7  1  0  0  0  0
 15  3  1  0  0  0  0
 18  9  1  0  0  0  0
 21 10  1  0  0  0  0
 22 11  1  0  0  0  0
 23 11  1  0  0  0  0
 25 29  1  0  0  0  0
 25 12  1  0  0  0  0
 26 25  2  0  0  0  0
 27 26  1  0  0  0  0
 27 28  2  0  0  0  0
 28 29  1  0  0  0  0
 30 26  1  0  0  0  0
 31 27  1  0  0  0  0
 32 28  1  0  0  0  0
 32 33  1  0  0  0  0
 33 34  1  0  0  0  0
 35 33  2  0  0  0  0
 35 36  1  0  0  0  0
 37 35  1  0  0  0  0
 38 37  1  0  0  0  0
 39 37  1  0  0  0  0
 39 32  2  0  0  0  0
M  END
>  <minimizedAffinity>
-5.92204094

$$$$

 OpenBabel03262523273D

 39 42  0  0  1  0  0  0  0  0999 V2000
   37.0210   28.6230   29.6790 C   0  0  0  0  0  0  0  0  0  0  0  0
   38.2420   28.5870   29.0120 C   0  0  0  0  0  0  0  0  0  0  0  0
   39.3090   28.0010   29.6580 C   0  0  0  0  0  0  0  0  0  0  0  0
   39.1110   27.4950   30.9010 N   0  0  0  0  0  0  0  0  0  0  0  0
   37.9030   27.5440   31.5300 C   0  0  0  0  0  0  0  0  0  0  0  0
   36.8660   28.1030   30.9240 N   0  0  0  0  0  0  0  0  0  0  0  0
   37.7820   26.9790   32.8590 N   0  0  0  0  0  0  0  0  0  0  0  0
   37.0620   27.7090   33.8680 C   0  0  0  0  0  0  0  0  0  0  0  0
   37.5820   27.4390   35.2610 C   0  0  0  0  0  0  0  0  0  0  0  0
   39.0000   26.9370   35.1350 C   0  0  0  0  0  0  0  0  0  0  0  0
   38.8890   25.5550   34.5290 C   0  0  0  0  0  0  0  0  0  0  0  0
   38.4030   25.6780   33.1300 C   0  0  1  0  0  0  0  0  0  0  0  0
   36.1810   29.0820   29.1760 H   0  0  0  0  0  0  0  0  0  0  0  0
   38.3840   28.9940   28.0230 H   0  0  0  0  0  0  0  0  0  0  0  0
   40.2800   27.9340   29.2130 H   0  0  0  0  0  0  0  0  0  0  0  0
   35.9920   27.4630   33.8570 H   0  0  0  0  0  0  0  0  0  0  0  0
   37.1540   28.7920   33.6240 H   0  0  0  0  0  0  0  0  0  0  0  0
   36.9790   26.6400   35.7590 H   0  0  0  0  0  0  0  0  0  0  0  0
   37.6150   28.3840   35.8350 H   0  0  0  0  0  0  0  0  0  0  0  0
   39.5490   27.6010   34.4540 H   0  0  0  0  0  0  0  0  0  0  0  0
   39.4810   26.8170   36.1350 H   0  0  0  0  0  0  0  0  0  0  0  0
   38.2600   25.0050   35.2320 H   0  0  0  0  0  0  0  0  0  0  0  0
   39.9420   25.1490   34.5570 H   0  0  0  0  0  0  0  0  0  0  0  0
   39.2790   25.6580   32.4280 H   0  0  0  0  0  0  0  0  0  0  0  0
   37.5350   24.5690   32.7090 C   0  0  0  0  0  0  0  0  0  0  0  0
   36.3990   24.6420   31.8720 C   0  0  0  0  0  0  0  0  0  0  0  0
   35.7440   23.4850   31.5910 C   0  0  0  0  0  0  0  0  0  0  0  0
   36.2360   22.2630   32.1530 C   0  0  0  0  0  0  0  0  0  0  0  0
   37.7210   22.9060   33.1250 S   0  0  0  0  0  0  0  0  0  0  0  0
   36.0040   25.5500   31.4320 H   0  0  0  0  0  0  0  0  0  0  0  0
   34.8890   23.2910   31.0020 H   0  0  0  0  0  0  0  0  0  0  0  0
   35.8960   20.9240   32.1320 C   0  0  0  0  0  0  0  0  0  0  0  0
   35.5360   20.1180   33.1570 C   0  0  0  0  0  0  0  0  0  0  0  0
   35.4420   20.3710   34.2080 H   0  0  0  0  0  0  0  0  0  0  0  0
   35.2960   18.8510   32.6080 C   0  0  0  0  0  0  0  0  0  0  0  0
   34.9860   17.9710   33.1730 H   0  0  0  0  0  0  0  0  0  0  0  0
   35.5260   18.9560   31.2650 N   0  0  0  0  0  0  0  0  0  0  0  0
   35.4100   18.1250   30.6360 H   0  0  0  0  0  0  0  0  0  0  0  0
   35.8900   20.2210   30.9920 N   0  0  0  0  0  0  0  0  0  0  0  0
  1  6  1  0  0  0  0
  2  3  1  0  0  0  0
  2  1  2  0  0  0  0
  3  4  2  0  0  0  0
  4  5  1  0  0  0  0
  5  7  1  0  0  0  0
  6  5  2  0  0  0  0
  7 12  1  0  0  0  0
  7  8  1  0  0  0  0
  8  9  1  0  0  0  0
  9 18  1  0  0  0  0
  9 19  1  0  0  0  0
 10  9  1  0  0  0  0
 10 21  1  0  0  0  0
 11 23  1  0  0  0  0
 11 10  1  0  0  0  0
 11 22  1  0  0  0  0
 12 24  1  6  0  0  0
 12 11  1  0  0  0  0
 13  1  1  0  0  0  0
 14  2  1  0  0  0  0
 15  3  1  0  0  0  0
 16  8  1  0  0  0  0
 17  8  1  0  0  0  0
 20 10  1  0  0  0  0
 25 29  1  0  0  0  0
 25 12  1  0  0  0  0
 26 25  2  0  0  0  0
 27 26  1  0  0  0  0
 27 28  2  0  0  0  0
 28 29  1  0  0  0  0
 30 26  1  0  0  0  0
 31 27  1  0  0  0  0
 32 28  1  0  0  0  0
 32 33  1  0  0  0  0
 33 34  1  0  0  0  0
 35 33  2  0  0  0  0
 35 36  1  0  0  0  0
 37 35  1  0  0  0  0
 38 37  1  0  0  0  0
 39 37  1  0  0  0  0
 39 32  2  0  0  0  0
M  END
>  <minimizedAffinity>
-5.807127

$$$$

 OpenBabel03262523273D

 39 42  0  0  1  0  0  0  0  0999 V2000
   37.9260   20.4700   32.1610 C   0  0  0  0  0  0  0  0  0  0  0  0
   36.5870   20.1870   32.4080 C   0  0  0  0  0  0  0  0  0  0  0  0
   36.0030   20.7560   33.5180 C   0  0  0  0  0  0  0  0  0  0  0  0
   36.7640   21.5580   34.3050 N   0  0  0  0  0  0  0  0  0  0  0  0
   38.0740   21.8190   34.0400 C   0  0  0  0  0  0  0  0  0  0  0  0
   38.6510   21.2790   32.9760 N   0  0  0  0  0  0  0  0  0  0  0  0
   38.8120   22.6870   34.9350 N   0  0  0  0  0  0  0  0  0  0  0  0
   40.1420   22.3140   35.3350 C   0  0  0  0  0  0  0  0  0  0  0  0
   40.4990   22.8260   36.7120 C   0  0  0  0  0  0  0  0  0  0  0  0
   39.2110   23.0900   37.4540 C   0  0  0  0  0  0  0  0  0  0  0  0
   38.5940   24.2960   36.7810 C   0  0  0  0  0  0  0  0  0  0  0  0
   38.1710   23.9200   35.4070 C   0  0  1  0  0  0  0  0  0  0  0  0
   38.3880   20.0250   31.2910 H   0  0  0  0  0  0  0  0  0  0  0  0
   35.9940   19.5460   31.7730 H   0  0  0  0  0  0  0  0  0  0  0  0
   34.9790   20.5870   33.7770 H   0  0  0  0  0  0  0  0  0  0  0  0
   40.8960   22.6930   34.6320 H   0  0  0  0  0  0  0  0  0  0  0  0
   40.1970   21.2020   35.3110 H   0  0  0  0  0  0  0  0  0  0  0  0
   41.0570   23.7920   36.6410 H   0  0  0  0  0  0  0  0  0  0  0  0
   41.0480   22.0440   37.2690 H   0  0  0  0  0  0  0  0  0  0  0  0
   38.5530   22.2190   37.3370 H   0  0  0  0  0  0  0  0  0  0  0  0
   39.4030   23.3710   38.5170 H   0  0  0  0  0  0  0  0  0  0  0  0
   39.3550   25.0730   36.8770 H   0  0  0  0  0  0  0  0  0  0  0  0
   37.7020   24.5520   37.4230 H   0  0  0  0  0  0  0  0  0  0  0  0
   37.0790   23.6580   35.4110 H   0  0  0  0  0  0  0  0  0  0  0  0
   38.3130   25.0070   34.4290 C   0  0  0  0  0  0  0  0  0  0  0  0
   39.2090   26.0980   34.4850 C   0  0  0  0  0  0  0  0  0  0  0  0
   39.1880   26.9890   33.4580 C   0  0  0  0  0  0  0  0  0  0  0  0
   38.2670   26.7760   32.3830 C   0  0  0  0  0  0  0  0  0  0  0  0
   37.4250   25.1890   32.9620 S   0  0  0  0  0  0  0  0  0  0  0  0
   39.9170   26.2850   35.2840 H   0  0  0  0  0  0  0  0  0  0  0  0
   39.7530   27.8640   33.2810 H   0  0  0  0  0  0  0  0  0  0  0  0
   37.9250   27.3980   31.1980 C   0  0  0  0  0  0  0  0  0  0  0  0
   38.6980   28.1300   30.3630 C   0  0  0  0  0  0  0  0  0  0  0  0
   39.7510   28.3710   30.4640 H   0  0  0  0  0  0  0  0  0  0  0  0
   37.8750   28.5380   29.3060 C   0  0  0  0  0  0  0  0  0  0  0  0
   38.1970   29.1470   28.4590 H   0  0  0  0  0  0  0  0  0  0  0  0
   36.6320   28.0280   29.5560 N   0  0  0  0  0  0  0  0  0  0  0  0
   35.8380   28.2050   28.8950 H   0  0  0  0  0  0  0  0  0  0  0  0
   36.6790   27.3390   30.7100 N   0  0  0  0  0  0  0  0  0  0  0  0
  1  2  2  0  0  0  0
  1  6  1  0  0  0  0
  2  3  1  0  0  0  0
  3 15  1  0  0  0  0
  3  4  2  0  0  0  0
  5  4  1  0  0  0  0
  5  7  1  0  0  0  0
  6  5  2  0  0  0  0
  7  8  1  0  0  0  0
  7 12  1  0  0  0  0
  8  9  1  0  0  0  0
  9 19  1  0  0  0  0
  9 10  1  0  0  0  0
 10 21  1  0  0  0  0
 11 22  1  0  0  0  0
 11 23  1  0  0  0  0
 11 10  1  0  0  0  0
 12 24  1  1  0  0  0
 12 11  1  0  0  0  0
 13  1  1  0  0  0  0
 14  2  1  0  0  0  0
 16  8  1  0  0  0  0
 17  8  1  0  0  0  0
 18  9  1  0  0  0  0
 20 10  1  0  0  0  0
 25 26  2  0  0  0  0
 25 12  1  0  0  0  0
 26 30  1  0  0  0  0
 27 26  1  0  0  0  0
 28 29  1  0  0  0  0
 28 27  2  0  0  0  0
 29 25  1  0  0  0  0
 31 27  1  0  0  0  0
 32 28  1  0  0  0  0
 33 34  1  0  0  0  0
 33 32  1  0  0  0  0
 35 37  1  0  0  0  0
 35 33  2  0  0  0  0
 36 35  1  0  0  0  0
 37 39  1  0  0  0  0
 38 37  1  0  0  0  0
 39 32  2  0  0  0  0
M  END
>  <minimizedAffinity>
-5.54993248

$$$$

 OpenBabel03262523273D

 39 42  0  0  1  0  0  0  0  0999 V2000
   37.6790   23.3710   38.0880 C   0  0  0  0  0  0  0  0  0  0  0  0
   38.9450   23.2830   38.6560 C   0  0  0  0  0  0  0  0  0  0  0  0
   40.0000   22.9650   37.8290 C   0  0  0  0  0  0  0  0  0  0  0  0
   39.7460   22.7560   36.5130 N   0  0  0  0  0  0  0  0  0  0  0  0
   38.4940   22.8490   35.9830 C   0  0  0  0  0  0  0  0  0  0  0  0
   37.4690   23.1540   36.7640 N   0  0  0  0  0  0  0  0  0  0  0  0
   38.3140   22.6090   34.5650 N   0  0  0  0  0  0  0  0  0  0  0  0
   37.2090   21.7990   34.1260 C   0  0  0  0  0  0  0  0  0  0  0  0
   37.5080   21.0540   32.8450 C   0  0  0  0  0  0  0  0  0  0  0  0
   39.0080   20.9510   32.7120 C   0  0  0  0  0  0  0  0  0  0  0  0
   39.4880   22.3560   32.4200 C   0  0  0  0  0  0  0  0  0  0  0  0
   39.2710   23.2010   33.6230 C   0  0  1  0  0  0  0  0  0  0  0  0
   36.8480   23.6210   38.7340 H   0  0  0  0  0  0  0  0  0  0  0  0
   39.1320   23.4520   39.7060 H   0  0  0  0  0  0  0  0  0  0  0  0
   41.0040   22.8790   38.1890 H   0  0  0  0  0  0  0  0  0  0  0  0
   36.3070   22.4030   33.9590 H   0  0  0  0  0  0  0  0  0  0  0  0
   36.9780   21.0800   34.9460 H   0  0  0  0  0  0  0  0  0  0  0  0
   37.1240   21.6210   31.9610 H   0  0  0  0  0  0  0  0  0  0  0  0
   37.1100   20.0250   32.9120 H   0  0  0  0  0  0  0  0  0  0  0  0
   39.4240   20.6050   33.6670 H   0  0  0  0  0  0  0  0  0  0  0  0
   39.2980   20.3190   31.8380 H   0  0  0  0  0  0  0  0  0  0  0  0
   38.9570   22.6360   31.5080 H   0  0  0  0  0  0  0  0  0  0  0  0
   40.5890   22.2390   32.2020 H   0  0  0  0  0  0  0  0  0  0  0  0
   40.2210   23.2530   34.2190 H   0  0  0  0  0  0  0  0  0  0  0  0
   38.9240   24.5940   33.3100 C   0  0  0  0  0  0  0  0  0  0  0  0
   39.5080   25.7630   33.8470 C   0  0  0  0  0  0  0  0  0  0  0  0
   39.0480   26.9630   33.4040 C   0  0  0  0  0  0  0  0  0  0  0  0
   38.0040   26.9780   32.4220 C   0  0  0  0  0  0  0  0  0  0  0  0
   37.7310   25.1250   32.1840 S   0  0  0  0  0  0  0  0  0  0  0  0
   40.2970   25.7830   34.5890 H   0  0  0  0  0  0  0  0  0  0  0  0
   39.3230   27.9520   33.6520 H   0  0  0  0  0  0  0  0  0  0  0  0
   37.2750   27.9230   31.7270 C   0  0  0  0  0  0  0  0  0  0  0  0
   36.4760   28.9050   32.2040 C   0  0  0  0  0  0  0  0  0  0  0  0
   36.2510   29.1430   33.2380 H   0  0  0  0  0  0  0  0  0  0  0  0
   35.9690   29.5880   31.0910 C   0  0  0  0  0  0  0  0  0  0  0  0
   35.2880   30.4400   31.1330 H   0  0  0  0  0  0  0  0  0  0  0  0
   36.4920   28.9790   29.9850 N   0  0  0  0  0  0  0  0  0  0  0  0
   36.2520   29.3190   29.0230 H   0  0  0  0  0  0  0  0  0  0  0  0
   37.2830   27.9690   30.3890 N   0  0  0  0  0  0  0  0  0  0  0  0
  1  2  1  0  0  0  0
  1 13  1  0  0  0  0
  2 14  1  0  0  0  0
  3 15  1  0  0  0  0
  3  2  2  0  0  0  0
  4  3  1  0  0  0  0
  5  4  2  0  0  0  0
  5  6  1  0  0  0  0
  6  1  2  0  0  0  0
  7  5  1  0  0  0  0
  8  7  1  0  0  0  0
  8 17  1  0  0  0  0
  9 19  1  0  0  0  0
  9  8  1  0  0  0  0
 10  9  1  0  0  0  0
 10 20  1  0  0  0  0
 11 10  1  0  0  0  0
 11 12  1  0  0  0  0
 12 24  1  1  0  0  0
 12  7  1  0  0  0  0
 16  8  1  0  0  0  0
 18  9  1  0  0  0  0
 21 10  1  0  0  0  0
 22 11  1  0  0  0  0
 23 11  1  0  0  0  0
 25 12  1  0  0  0  0
 25 26  2  0  0  0  0
 26 30  1  0  0  0  0
 27 31  1  0  0  0  0
 27 26  1  0  0  0  0
 28 27  2  0  0  0  0
 29 28  1  0  0  0  0
 29 25  1  0  0  0  0
 32 33  1  0  0  0  0
 32 28  1  0  0  0  0
 33 34  1  0  0  0  0
 35 36  1  0  0  0  0
 35 33  2  0  0  0  0
 37 39  1  0  0  0  0
 37 35  1  0  0  0  0
 38 37  1  0  0  0  0
 39 32  2  0  0  0  0
M  END
>  <minimizedAffinity>
-5.31705475

$$$$

 OpenBabel03262523273D

 39 42  0  0  1  0  0  0  0  0999 V2000
   38.7390   23.3730   30.7400 C   0  0  0  0  0  0  0  0  0  0  0  0
   37.6130   22.5790   30.9310 C   0  0  0  0  0  0  0  0  0  0  0  0
   36.7210   22.9560   31.9110 C   0  0  0  0  0  0  0  0  0  0  0  0
   36.9890   24.0740   32.6310 N   0  0  0  0  0  0  0  0  0  0  0  0
   38.1010   24.8330   32.4220 C   0  0  0  0  0  0  0  0  0  0  0  0
   38.9690   24.4850   31.4840 N   0  0  0  0  0  0  0  0  0  0  0  0
   38.3090   26.0120   33.2390 N   0  0  0  0  0  0  0  0  0  0  0  0
   39.6180   26.2710   33.7760 C   0  0  0  0  0  0  0  0  0  0  0  0
   39.5690   27.0150   35.0910 C   0  0  0  0  0  0  0  0  0  0  0  0
   38.2070   26.7850   35.7000 C   0  0  0  0  0  0  0  0  0  0  0  0
   37.2370   27.5510   34.8280 C   0  0  0  0  0  0  0  0  0  0  0  0
   37.1710   26.9020   33.4930 C   0  0  1  0  0  0  0  0  0  0  0  0
   39.4430   23.0810   29.9720 H   0  0  0  0  0  0  0  0  0  0  0  0
   37.4130   21.6920   30.3510 H   0  0  0  0  0  0  0  0  0  0  0  0
   35.8310   22.3990   32.1200 H   0  0  0  0  0  0  0  0  0  0  0  0
   40.2300   26.8610   33.0810 H   0  0  0  0  0  0  0  0  0  0  0  0
   40.1230   25.2870   33.9080 H   0  0  0  0  0  0  0  0  0  0  0  0
   39.6890   28.1140   34.9270 H   0  0  0  0  0  0  0  0  0  0  0  0
   40.3180   26.5920   35.7860 H   0  0  0  0  0  0  0  0  0  0  0  0
   37.9800   25.7110   35.6590 H   0  0  0  0  0  0  0  0  0  0  0  0
   38.1400   27.2220   36.7260 H   0  0  0  0  0  0  0  0  0  0  0  0
   37.5980   28.5810   34.8680 H   0  0  0  0  0  0  0  0  0  0  0  0
   36.2480   27.4700   35.3670 H   0  0  0  0  0  0  0  0  0  0  0  0
   36.2880   26.2090   33.4580 H   0  0  0  0  0  0  0  0  0  0  0  0
   36.9720   27.8500   32.3870 C   0  0  0  0  0  0  0  0  0  0  0  0
   35.9150   28.7750   32.2320 C   0  0  0  0  0  0  0  0  0  0  0  0
   35.9320   29.5770   31.1350 C   0  0  0  0  0  0  0  0  0  0  0  0
   37.0110   29.4440   30.2030 C   0  0  0  0  0  0  0  0  0  0  0  0
   38.0070   28.0670   31.0260 S   0  0  0  0  0  0  0  0  0  0  0  0
   35.0870   28.8990   32.9200 H   0  0  0  0  0  0  0  0  0  0  0  0
   35.2660   30.3300   30.8100 H   0  0  0  0  0  0  0  0  0  0  0  0
   37.4060   30.0260   29.0140 C   0  0  0  0  0  0  0  0  0  0  0  0
   37.1860   31.2820   28.5630 C   0  0  0  0  0  0  0  0  0  0  0  0
   36.6510   32.0870   29.0560 H   0  0  0  0  0  0  0  0  0  0  0  0
   37.7910   31.3700   27.3020 C   0  0  0  0  0  0  0  0  0  0  0  0
   37.7950   32.2580   26.6690 H   0  0  0  0  0  0  0  0  0  0  0  0
   38.3520   30.1490   27.0510 N   0  0  0  0  0  0  0  0  0  0  0  0
   38.8670   29.9710   26.1550 H   0  0  0  0  0  0  0  0  0  0  0  0
   38.1090   29.3440   28.1000 N   0  0  0  0  0  0  0  0  0  0  0  0
  1  2  2  0  0  0  0
  1  6  1  0  0  0  0
  2  3  1  0  0  0  0
  3 15  1  0  0  0  0
  3  4  2  0  0  0  0
  5  4  1  0  0  0  0
  5  7  1  0  0  0  0
  6  5  2  0  0  0  0
  7 12  1  0  0  0  0
  7  8  1  0  0  0  0
  8 17  1  0  0  0  0
  8  9  1  0  0  0  0
  9 10  1  0  0  0  0
  9 19  1  0  0  0  0
 10 21  1  0  0  0  0
 11 22  1  0  0  0  0
 11 23  1  0  0  0  0
 11 10  1  0  0  0  0
 12 24  1  1  0  0  0
 12 11  1  0  0  0  0
 13  1  1  0  0  0  0
 14  2  1  0  0  0  0
 16  8  1  0  0  0  0
 18  9  1  0  0  0  0
 20 10  1  0  0  0  0
 25 12  1  0  0  0  0
 26 25  2  0  0  0  0
 26 30  1  0  0  0  0
 27 26  1  0  0  0  0
 28 29  1  0  0  0  0
 28 27  2  0  0  0  0
 29 25  1  0  0  0  0
 31 27  1  0  0  0  0
 32 28  1  0  0  0  0
 33 32  1  0  0  0  0
 33 34  1  0  0  0  0
 35 33  2  0  0  0  0
 36 35  1  0  0  0  0
 37 35  1  0  0  0  0
 37 39  1  0  0  0  0
 38 37  1  0  0  0  0
 39 32  2  0  0  0  0
M  END
>  <minimizedAffinity>
-5.29295349

$$$$

 OpenBabel03262523273D

 39 42  0  0  1  0  0  0  0  0999 V2000
   39.0210   21.7040   29.6630 C   0  0  0  0  0  0  0  0  0  0  0  0
   40.0740   22.2920   28.9700 C   0  0  0  0  0  0  0  0  0  0  0  0
   40.1810   23.6650   29.0090 C   0  0  0  0  0  0  0  0  0  0  0  0
   39.2570   24.3630   29.7170 N   0  0  0  0  0  0  0  0  0  0  0  0
   38.2350   23.7600   30.3870 C   0  0  0  0  0  0  0  0  0  0  0  0
   38.1180   22.4400   30.3600 N   0  0  0  0  0  0  0  0  0  0  0  0
   37.2930   24.5840   31.1180 N   0  0  0  0  0  0  0  0  0  0  0  0
   35.8870   24.2990   31.0150 C   0  0  0  0  0  0  0  0  0  0  0  0
   35.0320   25.5350   31.1750 C   0  0  0  0  0  0  0  0  0  0  0  0
   35.8900   26.7340   30.8530 C   0  0  0  0  0  0  0  0  0  0  0  0
   36.8800   26.8440   31.9910 C   0  0  0  0  0  0  0  0  0  0  0  0
   37.8100   25.6850   31.9370 C   0  0  1  0  0  0  0  0  0  0  0  0
   38.9330   20.6260   29.6350 H   0  0  0  0  0  0  0  0  0  0  0  0
   40.8010   21.7240   28.4110 H   0  0  0  0  0  0  0  0  0  0  0  0
   40.9620   24.1930   28.5030 H   0  0  0  0  0  0  0  0  0  0  0  0
   35.5670   23.5710   31.7720 H   0  0  0  0  0  0  0  0  0  0  0  0
   35.7140   23.8360   30.0170 H   0  0  0  0  0  0  0  0  0  0  0  0
   34.6830   25.6390   32.2320 H   0  0  0  0  0  0  0  0  0  0  0  0
   34.2050   25.5130   30.4420 H   0  0  0  0  0  0  0  0  0  0  0  0
   36.4230   26.5440   29.9120 H   0  0  0  0  0  0  0  0  0  0  0  0
   35.2910   27.6770   30.8500 H   0  0  0  0  0  0  0  0  0  0  0  0
   36.2550   26.9440   32.8810 H   0  0  0  0  0  0  0  0  0  0  0  0
   37.4280   27.8110   31.7970 H   0  0  0  0  0  0  0  0  0  0  0  0
   38.7500   25.9860   31.4030 H   0  0  0  0  0  0  0  0  0  0  0  0
   38.2410   25.2140   33.2610 C   0  0  0  0  0  0  0  0  0  0  0  0
   37.8260   25.7020   34.5210 C   0  0  0  0  0  0  0  0  0  0  0  0
   38.3390   25.1070   35.6300 C   0  0  0  0  0  0  0  0  0  0  0  0
   39.2650   24.0270   35.4650 C   0  0  0  0  0  0  0  0  0  0  0  0
   39.3450   23.9290   33.5810 S   0  0  0  0  0  0  0  0  0  0  0  0
   37.1280   26.5160   34.6760 H   0  0  0  0  0  0  0  0  0  0  0  0
   38.1820   25.2930   36.6580 H   0  0  0  0  0  0  0  0  0  0  0  0
   39.9930   23.1790   36.2760 C   0  0  0  0  0  0  0  0  0  0  0  0
   41.2580   22.7250   36.1200 C   0  0  0  0  0  0  0  0  0  0  0  0
   41.9540   22.9440   35.3170 H   0  0  0  0  0  0  0  0  0  0  0  0
   41.5260   21.8930   37.2150 C   0  0  0  0  0  0  0  0  0  0  0  0
   42.4660   21.3670   37.3890 H   0  0  0  0  0  0  0  0  0  0  0  0
   40.3980   21.8850   37.9870 N   0  0  0  0  0  0  0  0  0  0  0  0
   40.3580   21.3230   38.8710 H   0  0  0  0  0  0  0  0  0  0  0  0
   39.4760   22.6710   37.4020 N   0  0  0  0  0  0  0  0  0  0  0  0
  1  6  1  0  0  0  0
  2  3  1  0  0  0  0
  2  1  2  0  0  0  0
  3  4  2  0  0  0  0
  4  5  1  0  0  0  0
  5  7  1  0  0  0  0
  6  5  2  0  0  0  0
  7 12  1  0  0  0  0
  8  7  1  0  0  0  0
  8  9  1  0  0  0  0
  8 16  1  0  0  0  0
  9 18  1  0  0  0  0
 10  9  1  0  0  0  0
 10 11  1  0  0  0  0
 11 22  1  0  0  0  0
 12 24  1  6  0  0  0
 12 11  1  0  0  0  0
 12 25  1  0  0  0  0
 13  1  1  0  0  0  0
 14  2  1  0  0  0  0
 15  3  1  0  0  0  0
 17  8  1  0  0  0  0
 19  9  1  0  0  0  0
 20 10  1  0  0  0  0
 21 10  1  0  0  0  0
 23 11  1  0  0  0  0
 25 29  1  0  0  0  0
 25 26  2  0  0  0  0
 26 30  1  0  0  0  0
 26 27  1  0  0  0  0
 27 31  1  0  0  0  0
 28 27  2  0  0  0  0
 28 32  1  0  0  0  0
 29 28  1  0  0  0  0
 32 39  2  0  0  0  0
 33 32  1  0  0  0  0
 33 35  2  0  0  0  0
 34 33  1  0  0  0  0
 35 36  1  0  0  0  0
 35 37  1  0  0  0  0
 37 38  1  0  0  0  0
 39 37  1  0  0  0  0
M  END
>  <minimizedAffinity>
-5.24635839

$$$$

 OpenBabel03262523273D

 39 42  0  0  1  0  0  0  0  0999 V2000
   32.1270   29.7600   35.3660 C   0  0  0  0  0  0  0  0  0  0  0  0
   31.1420   29.0790   34.6580 C   0  0  0  0  0  0  0  0  0  0  0  0
   31.4350   28.6790   33.3730 C   0  0  0  0  0  0  0  0  0  0  0  0
   32.6620   28.9700   32.8720 N   0  0  0  0  0  0  0  0  0  0  0  0
   33.6090   29.6390   33.5890 C   0  0  0  0  0  0  0  0  0  0  0  0
   33.3440   30.0300   34.8260 N   0  0  0  0  0  0  0  0  0  0  0  0
   34.8930   29.9080   32.9740 N   0  0  0  0  0  0  0  0  0  0  0  0
   35.4840   31.2100   33.1270 C   0  0  0  0  0  0  0  0  0  0  0  0
   36.3520   31.5960   31.9510 C   0  0  0  0  0  0  0  0  0  0  0  0
   35.9130   30.7710   30.7650 C   0  0  0  0  0  0  0  0  0  0  0  0
   36.3480   29.3550   31.0710 C   0  0  0  0  0  0  0  0  0  0  0  0
   35.5470   28.8390   32.2110 C   0  0  1  0  0  0  0  0  0  0  0  0
   31.9020   30.0760   36.3760 H   0  0  0  0  0  0  0  0  0  0  0  0
   30.1700   28.8550   35.0700 H   0  0  0  0  0  0  0  0  0  0  0  0
   30.7320   28.1510   32.7630 H   0  0  0  0  0  0  0  0  0  0  0  0
   36.1030   31.2680   34.0320 H   0  0  0  0  0  0  0  0  0  0  0  0
   34.6520   31.9410   33.2490 H   0  0  0  0  0  0  0  0  0  0  0  0
   37.4240   31.3560   32.1560 H   0  0  0  0  0  0  0  0  0  0  0  0
   36.1820   32.6590   31.6960 H   0  0  0  0  0  0  0  0  0  0  0  0
   34.8190   30.8180   30.6890 H   0  0  0  0  0  0  0  0  0  0  0  0
   36.4440   31.0820   29.8330 H   0  0  0  0  0  0  0  0  0  0  0  0
   37.4280   29.4320   31.2120 H   0  0  0  0  0  0  0  0  0  0  0  0
   36.1250   28.7800   30.1260 H   0  0  0  0  0  0  0  0  0  0  0  0
   34.6840   28.2370   31.8180 H   0  0  0  0  0  0  0  0  0  0  0  0
   36.2930   27.9290   33.0910 C   0  0  0  0  0  0  0  0  0  0  0  0
   36.6640   28.1520   34.4370 C   0  0  0  0  0  0  0  0  0  0  0  0
   37.3410   27.1640   35.0790 C   0  0  0  0  0  0  0  0  0  0  0  0
   37.6400   25.9590   34.3650 C   0  0  0  0  0  0  0  0  0  0  0  0
   36.8700   26.3550   32.6870 S   0  0  0  0  0  0  0  0  0  0  0  0
   36.4510   29.0510   35.0020 H   0  0  0  0  0  0  0  0  0  0  0  0
   37.7160   27.1010   36.0640 H   0  0  0  0  0  0  0  0  0  0  0  0
   38.2760   24.7590   34.6160 C   0  0  0  0  0  0  0  0  0  0  0  0
   38.7440   24.2690   35.7870 C   0  0  0  0  0  0  0  0  0  0  0  0
   38.7080   24.7300   36.7680 H   0  0  0  0  0  0  0  0  0  0  0  0
   39.3040   23.0160   35.5040 C   0  0  0  0  0  0  0  0  0  0  0  0
   39.7700   22.3570   36.2380 H   0  0  0  0  0  0  0  0  0  0  0  0
   39.1450   22.8090   34.1630 N   0  0  0  0  0  0  0  0  0  0  0  0
   39.4920   21.9280   33.7130 H   0  0  0  0  0  0  0  0  0  0  0  0
   38.5200   23.8780   33.6380 N   0  0  0  0  0  0  0  0  0  0  0  0
  1 13  1  0  0  0  0
  2 14  1  0  0  0  0
  2  1  2  0  0  0  0
  3  2  1  0  0  0  0
  4  3  2  0  0  0  0
  4  5  1  0  0  0  0
  5  6  2  0  0  0  0
  6  1  1  0  0  0  0
  7  8  1  0  0  0  0
  7  5  1  0  0  0  0
  8 17  1  0  0  0  0
  8 16  1  0  0  0  0
  9 18  1  0  0  0  0
  9  8  1  0  0  0  0
 10 11  1  0  0  0  0
 10  9  1  0  0  0  0
 11 22  1  0  0  0  0
 11 12  1  0  0  0  0
 12 24  1  6  0  0  0
 12  7  1  0  0  0  0
 12 25  1  0  0  0  0
 15  3  1  0  0  0  0
 19  9  1  0  0  0  0
 20 10  1  0  0  0  0
 21 10  1  0  0  0  0
 23 11  1  0  0  0  0
 25 26  2  0  0  0  0
 26 30  1  0  0  0  0
 26 27  1  0  0  0  0
 27 31  1  0  0  0  0
 28 32  1  0  0  0  0
 28 27  2  0  0  0  0
 29 25  1  0  0  0  0
 29 28  1  0  0  0  0
 32 33  1  0  0  0  0
 33 34  1  0  0  0  0
 35 33  2  0  0  0  0
 35 36  1  0  0  0  0
 37 35  1  0  0  0  0
 38 37  1  0  0  0  0
 39 37  1  0  0  0  0
 39 32  2  0  0  0  0
M  END
>  <minimizedAffinity>
-5.22464609

$$$$

 OpenBabel03262523273D

 39 42  0  0  1  0  0  0  0  0999 V2000
   36.2170   21.1900   31.7780 C   0  0  0  0  0  0  0  0  0  0  0  0
   35.3450   20.5700   32.6670 C   0  0  0  0  0  0  0  0  0  0  0  0
   35.6130   20.6810   34.0130 C   0  0  0  0  0  0  0  0  0  0  0  0
   36.7070   21.3860   34.3960 N   0  0  0  0  0  0  0  0  0  0  0  0
   37.5450   21.9850   33.5030 C   0  0  0  0  0  0  0  0  0  0  0  0
   37.3020   21.8880   32.2050 N   0  0  0  0  0  0  0  0  0  0  0  0
   38.6910   22.7190   34.0010 N   0  0  0  0  0  0  0  0  0  0  0  0
   39.9660   22.5470   33.3570 C   0  0  0  0  0  0  0  0  0  0  0  0
   41.1260   22.7350   34.3080 C   0  0  0  0  0  0  0  0  0  0  0  0
   40.6150   22.5070   35.7100 C   0  0  0  0  0  0  0  0  0  0  0  0
   39.7180   23.6870   36.0130 C   0  0  0  0  0  0  0  0  0  0  0  0
   38.5110   23.6110   35.1510 C   0  0  1  0  0  0  0  0  0  0  0  0
   36.0110   21.1050   30.7200 H   0  0  0  0  0  0  0  0  0  0  0  0
   34.4790   20.0110   32.3470 H   0  0  0  0  0  0  0  0  0  0  0  0
   34.9910   20.2330   34.7600 H   0  0  0  0  0  0  0  0  0  0  0  0
   40.0960   23.2530   32.5270 H   0  0  0  0  0  0  0  0  0  0  0  0
   39.9840   21.5210   32.9240 H   0  0  0  0  0  0  0  0  0  0  0  0
   41.5150   23.7820   34.2520 H   0  0  0  0  0  0  0  0  0  0  0  0
   41.8990   21.9700   34.1080 H   0  0  0  0  0  0  0  0  0  0  0  0
   40.0280   21.5790   35.7240 H   0  0  0  0  0  0  0  0  0  0  0  0
   41.4450   22.5270   36.4560 H   0  0  0  0  0  0  0  0  0  0  0  0
   40.3690   24.5550   35.8900 H   0  0  0  0  0  0  0  0  0  0  0  0
   39.4470   23.5630   37.1020 H   0  0  0  0  0  0  0  0  0  0  0  0
   37.6730   23.1300   35.7230 H   0  0  0  0  0  0  0  0  0  0  0  0
   38.0000   24.9260   34.7360 C   0  0  0  0  0  0  0  0  0  0  0  0
   37.7450   26.0450   35.5600 C   0  0  0  0  0  0  0  0  0  0  0  0
   37.2890   27.1780   34.9660 C   0  0  0  0  0  0  0  0  0  0  0  0
   37.0920   27.1790   33.5470 C   0  0  0  0  0  0  0  0  0  0  0  0
   37.6150   25.4140   33.1280 S   0  0  0  0  0  0  0  0  0  0  0  0
   37.8850   26.0740   36.6340 H   0  0  0  0  0  0  0  0  0  0  0  0
   37.0330   28.1220   35.3650 H   0  0  0  0  0  0  0  0  0  0  0  0
   36.6650   28.0680   32.5800 C   0  0  0  0  0  0  0  0  0  0  0  0
   37.1980   28.3290   31.3640 C   0  0  0  0  0  0  0  0  0  0  0  0
   38.0750   27.8820   30.9070 H   0  0  0  0  0  0  0  0  0  0  0  0
   36.3920   29.3110   30.7730 C   0  0  0  0  0  0  0  0  0  0  0  0
   36.5520   29.7420   29.7830 H   0  0  0  0  0  0  0  0  0  0  0  0
   35.4020   29.5980   31.6700 N   0  0  0  0  0  0  0  0  0  0  0  0
   34.6690   30.3140   31.4470 H   0  0  0  0  0  0  0  0  0  0  0  0
   35.5830   28.8350   32.7630 N   0  0  0  0  0  0  0  0  0  0  0  0
  1  6  2  0  0  0  0
  1  2  1  0  0  0  0
  2  3  2  0  0  0  0
  3  4  1  0  0  0  0
  3 15  1  0  0  0  0
  5  7  1  0  0  0  0
  5  4  2  0  0  0  0
  6  5  1  0  0  0  0
  7 12  1  0  0  0  0
  8  7  1  0  0  0  0
  8  9  1  0  0  0  0
  9 10  1  0  0  0  0
 10 20  1  0  0  0  0
 10 11  1  0  0  0  0
 10 21  1  0  0  0  0
 11 23  1  0  0  0  0
 12 24  1  1  0  0  0
 12 11  1  0  0  0  0
 13  1  1  0  0  0  0
 14  2  1  0  0  0  0
 16  8  1  0  0  0  0
 17  8  1  0  0  0  0
 18  9  1  0  0  0  0
 19  9  1  0  0  0  0
 22 11  1  0  0  0  0
 25 12  1  0  0  0  0
 25 26  2  0  0  0  0
 26 30  1  0  0  0  0
 27 31  1  0  0  0  0
 27 26  1  0  0  0  0
 28 27  2  0  0  0  0
 29 28  1  0  0  0  0
 29 25  1  0  0  0  0
 32 39  2  0  0  0  0
 32 28  1  0  0  0  0
 33 32  1  0  0  0  0
 34 33  1  0  0  0  0
 35 33  2  0  0  0  0
 35 37  1  0  0  0  0
 36 35  1  0  0  0  0
 37 39  1  0  0  0  0
 38 37  1  0  0  0  0
M  END
>  <minimizedAffinity>
-5.18598843

$$$$
