
 OpenBabel03272506573D

 27 29  0  0  0  0  0  0  0  0999 V2000
   38.4950   32.1350   47.2180 C   0  0  0  0  0  0  0  0  0  0  0  0
   39.0540   33.0920   48.0510 C   0  0  0  0  0  0  0  0  0  0  0  0
   38.6810   33.3540   49.3490 C   0  0  0  0  0  0  0  0  0  0  0  0
   37.6660   32.5870   49.8380 N   0  0  0  0  0  0  0  0  0  0  0  0
   37.1000   31.6430   49.0480 C   0  0  0  0  0  0  0  0  0  0  0  0
   37.5050   31.4290   47.7820 N   0  0  0  0  0  0  0  0  0  0  0  0
   39.8610   33.7090   47.6760 H   0  0  0  0  0  0  0  0  0  0  0  0
   39.1350   34.0970   49.9570 H   0  0  0  0  0  0  0  0  0  0  0  0
   38.5810   32.3480   43.6050 C   0  0  0  0  0  0  0  0  0  0  0  0
   39.7580   31.6880   43.2250 C   0  0  0  0  0  0  0  0  0  0  0  0
   40.5300   31.1590   44.2830 C   0  0  0  0  0  0  0  0  0  0  0  0
   40.1090   31.3120   45.5600 N   0  0  0  0  0  0  0  0  0  0  0  0
   38.9770   31.9520   45.8540 C   0  0  0  0  0  0  0  0  0  0  0  0
   38.1660   32.4970   44.8920 N   0  0  0  0  0  0  0  0  0  0  0  0
   37.9560   32.7720   42.8260 H   0  0  0  0  0  0  0  0  0  0  0  0
   41.4430   30.6450   44.0190 H   0  0  0  0  0  0  0  0  0  0  0  0
   40.1320   31.5700   41.8610 N   0  0  0  0  0  0  0  0  0  0  0  0
   39.3590   31.6530   41.1670 H   0  0  0  0  0  0  0  0  0  0  0  0
   41.1430   31.4090   41.6430 H   0  0  0  0  0  0  0  0  0  0  0  0
   36.0080   30.7730   49.4800 C   0  0  0  0  0  0  0  0  0  0  0  0
   36.2280   29.8080   50.4660 C   0  0  0  0  0  0  0  0  0  0  0  0
   37.1460   29.5620   51.0220 H   0  0  0  0  0  0  0  0  0  0  0  0
   35.0150   29.1370   50.6670 C   0  0  0  0  0  0  0  0  0  0  0  0
   34.7620   28.3180   51.3480 H   0  0  0  0  0  0  0  0  0  0  0  0
   34.1210   29.7120   49.8110 N   0  0  0  0  0  0  0  0  0  0  0  0
   33.1160   29.4170   49.7310 H   0  0  0  0  0  0  0  0  0  0  0  0
   34.7020   30.6800   49.1050 N   0  0  0  0  0  0  0  0  0  0  0  0
  1  6  2  0  0  0  0
  1  2  1  0  0  0  0
  2  3  2  0  0  0  0
  3  4  1  0  0  0  0
  3  8  1  0  0  0  0
  5 20  1  0  0  0  0
  5  4  2  0  0  0  0
  6  5  1  0  0  0  0
  7  2  1  0  0  0  0
  9 14  1  0  0  0  0
 10  9  2  0  0  0  0
 10 11  1  0  0  0  0
 11 12  2  0  0  0  0
 12 13  1  0  0  0  0
 13  1  1  0  0  0  0
 14 13  2  0  0  0  0
 15  9  1  0  0  0  0
 16 11  1  0  0  0  0
 17 10  1  0  0  0  0
 18 17  1  0  0  0  0
 19 17  1  0  0  0  0
 20 21  1  0  0  0  0
 21 23  2  0  0  0  0
 21 22  1  0  0  0  0
 23 24  1  0  0  0  0
 25 23  1  0  0  0  0
 26 25  1  0  0  0  0
 27 20  2  0  0  0  0
 27 25  1  0  0  0  0
M  END
>  <minimizedAffinity>
-5.84446287

>  <minimizedRMSD>
6.50089359

$$$$
