
 OpenBabel03272500463D

 31 34  0  0  1  0  0  0  0  0999 V2000
   33.6290   29.0990   47.3600 C   0  0  0  0  0  0  0  0  0  0  0  0
   34.2720   29.2970   46.1310 C   0  0  0  0  0  0  0  0  0  0  0  0
   35.4290   30.0400   46.3790 C   0  0  0  0  0  0  0  0  0  0  0  0
   35.4620   30.2700   47.7140 N   0  0  0  0  0  0  0  0  0  0  0  0
   34.4050   29.7100   48.2420 N   0  0  0  0  0  0  0  0  0  0  0  0
   33.9220   28.9330   45.1680 H   0  0  0  0  0  0  0  0  0  0  0  0
   36.1190   30.3360   45.5980 H   0  0  0  0  0  0  0  0  0  0  0  0
   32.2160   27.3350   48.4340 C   0  0  0  0  0  0  0  0  0  0  0  0
   32.4010   28.3750   47.4930 C   0  0  0  0  0  0  0  0  0  0  0  0
   31.3160   28.6730   46.6810 C   0  0  0  0  0  0  0  0  0  0  0  0
   30.1570   27.9760   46.8180 N   0  0  0  0  0  0  0  0  0  0  0  0
   30.0290   26.9920   47.7320 C   0  0  0  0  0  0  0  0  0  0  0  0
   31.0710   26.6660   48.5510 N   0  0  0  0  0  0  0  0  0  0  0  0
   33.0450   27.0780   49.0840 H   0  0  0  0  0  0  0  0  0  0  0  0
   31.4540   29.4690   45.9580 H   0  0  0  0  0  0  0  0  0  0  0  0
   29.0380   26.5400   47.7070 H   0  0  0  0  0  0  0  0  0  0  0  0
   36.4920   31.0050   48.4000 C   0  0  1  0  0  0  0  0  0  0  0  0
   37.6230   30.2040   49.0720 C   0  0  0  0  0  0  0  0  0  0  0  0
   37.8760   31.0190   47.8620 C   0  0  2  0  0  0  0  0  0  0  0  0
   36.1480   31.8850   48.9900 H   0  0  0  0  0  0  0  0  0  0  0  0
   37.5410   29.1090   48.9990 H   0  0  0  0  0  0  0  0  0  0  0  0
   37.9720   30.5330   50.0740 H   0  0  0  0  0  0  0  0  0  0  0  0
   37.9940   30.4140   46.9280 H   0  0  0  0  0  0  0  0  0  0  0  0
   38.6450   32.2870   47.9290 C   0  0  0  0  0  0  0  0  0  0  0  0
   39.5410   32.7560   46.9900 C   0  0  0  0  0  0  0  0  0  0  0  0
   39.8220   32.2660   46.0550 H   0  0  0  0  0  0  0  0  0  0  0  0
   39.9850   33.9560   47.4980 C   0  0  0  0  0  0  0  0  0  0  0  0
   40.7060   34.6250   47.0350 H   0  0  0  0  0  0  0  0  0  0  0  0
   39.3830   34.2070   48.6970 N   0  0  0  0  0  0  0  0  0  0  0  0
   39.5350   35.0590   49.3160 H   0  0  0  0  0  0  0  0  0  0  0  0
   38.5680   33.1710   48.9390 N   0  0  0  0  0  0  0  0  0  0  0  0
  1  9  1  0  0  0  0
  1  5  2  0  0  0  0
  2  3  2  0  0  0  0
  2  1  1  0  0  0  0
  3  4  1  0  0  0  0
  4  5  1  0  0  0  0
  4 17  1  0  0  0  0
  6  2  1  0  0  0  0
  7  3  1  0  0  0  0
  8 13  1  0  0  0  0
  8 14  1  0  0  0  0
  9  8  2  0  0  0  0
 10 11  2  0  0  0  0
 10  9  1  0  0  0  0
 11 12  1  0  0  0  0
 12 13  2  0  0  0  0
 15 10  1  0  0  0  0
 16 12  1  0  0  0  0
 17 20  1  1  0  0  0
 17 18  1  0  0  0  0
 18 22  1  0  0  0  0
 19 23  1  6  0  0  0
 19 24  1  0  0  0  0
 19 17  1  0  0  0  0
 19 18  1  0  0  0  0
 21 18  1  0  0  0  0
 24 31  2  0  0  0  0
 25 27  2  0  0  0  0
 25 24  1  0  0  0  0
 26 25  1  0  0  0  0
 27 29  1  0  0  0  0
 28 27  1  0  0  0  0
 29 31  1  0  0  0  0
 29 30  1  0  0  0  0
M  END
>  <minimizedAffinity>
-4.9499259

>  <minimizedRMSD>
3.91691136

$$$$
