
 OpenBabel03272509373D

 29 31  0  0  1  0  0  0  0  0999 V2000
   37.1760   31.3030   48.3830 C   0  0  0  0  0  0  0  0  0  0  0  0
   36.8760   31.9820   49.5860 C   0  0  0  0  0  0  0  0  0  0  0  0
   37.5800   33.0890   50.0380 C   0  0  0  0  0  0  0  0  0  0  0  0
   38.6330   33.5500   49.2620 C   0  0  0  0  0  0  0  0  0  0  0  0
   38.9100   32.8760   48.0960 C   0  0  0  0  0  0  0  0  0  0  0  0
   38.2110   31.7670   47.6380 C   0  0  0  0  0  0  0  0  0  0  0  0
   36.0570   31.6200   50.1810 H   0  0  0  0  0  0  0  0  0  0  0  0
   37.2730   33.5310   50.9630 H   0  0  0  0  0  0  0  0  0  0  0  0
   39.1460   34.4130   49.6580 H   0  0  0  0  0  0  0  0  0  0  0  0
   39.7600   33.3560   47.6030 H   0  0  0  0  0  0  0  0  0  0  0  0
   38.7070   31.2140   46.3990 C   0  0  0  0  0  0  0  0  0  0  0  0
   38.7020   31.8950   45.2010 C   0  0  0  0  0  0  0  0  0  0  0  0
   38.3670   32.9120   44.9650 H   0  0  0  0  0  0  0  0  0  0  0  0
   39.1880   31.1940   44.1320 C   0  0  0  0  0  0  0  0  0  0  0  0
   39.3180   31.4230   43.0920 H   0  0  0  0  0  0  0  0  0  0  0  0
   39.5110   30.0270   44.6870 N   0  0  0  0  0  0  0  0  0  0  0  0
   39.9290   29.1340   44.2880 H   0  0  0  0  0  0  0  0  0  0  0  0
   39.2230   30.0980   45.9360 N   0  0  0  0  0  0  0  0  0  0  0  0
   36.3300   30.1800   48.0330 C   0  0  1  0  0  0  0  0  0  0  0  0
   36.5100   29.1270   48.7550 O   0  0  0  0  0  0  0  0  0  0  0  0
   33.0650   30.4360   46.4570 C   0  0  0  0  0  0  0  0  0  0  0  0
   33.3190   30.2940   45.1040 C   0  0  0  0  0  0  0  0  0  0  0  0
   34.6280   30.0920   44.7400 C   0  0  0  0  0  0  0  0  0  0  0  0
   35.6430   30.0340   45.6720 N   0  0  0  0  0  0  0  0  0  0  0  0
   35.3430   30.1800   46.9680 C   0  0  0  0  0  0  0  0  0  0  0  0
   34.0710   30.3730   47.3160 N   0  0  0  0  0  0  0  0  0  0  0  0
   32.0310   30.5930   46.7280 H   0  0  0  0  0  0  0  0  0  0  0  0
   32.5990   30.3230   44.2970 H   0  0  0  0  0  0  0  0  0  0  0  0
   35.0130   29.9600   43.7250 H   0  0  0  0  0  0  0  0  0  0  0  0
  1  2  1  0  0  0  0
  2  3  2  0  0  0  0
  2  7  1  0  0  0  0
  3  8  1  0  0  0  0
  4  9  1  0  0  0  0
  4  3  1  0  0  0  0
  5  4  2  0  0  0  0
  6  5  1  0  0  0  0
  6  1  2  0  0  0  0
 10  5  1  0  0  0  0
 11  6  1  0  0  0  0
 12 11  1  0  0  0  0
 13 12  1  0  0  0  0
 14 16  1  0  0  0  0
 14 12  2  0  0  0  0
 15 14  1  0  0  0  0
 16 18  1  0  0  0  0
 17 16  1  0  0  0  0
 18 11  2  0  0  0  0
 19  1  1  0  0  0  0
 19 20  1  1  0  0  0
 21 27  1  0  0  0  0
 21 26  1  0  0  0  0
 22 21  2  0  0  0  0
 23 22  1  0  0  0  0
 23 24  2  0  0  0  0
 24 25  1  0  0  0  0
 25 26  2  0  0  0  0
 25 19  1  0  0  0  0
 28 22  1  0  0  0  0
 29 23  1  0  0  0  0
M  END
>  <minimizedAffinity>
-5.23232317

>  <minimizedRMSD>
2.27647328

$$$$
