
 OpenBabel03272506593D

 27 29  0  0  0  0  0  0  0  0999 V2000
   38.3550   25.5020   35.3930 C   0  0  0  0  0  0  0  0  0  0  0  0
   38.3360   26.7840   35.9220 C   0  0  0  0  0  0  0  0  0  0  0  0
   37.7390   27.8860   35.3550 C   0  0  0  0  0  0  0  0  0  0  0  0
   37.1160   27.6710   34.1620 N   0  0  0  0  0  0  0  0  0  0  0  0
   37.1170   26.4300   33.6190 C   0  0  0  0  0  0  0  0  0  0  0  0
   37.7180   25.3850   34.2200 N   0  0  0  0  0  0  0  0  0  0  0  0
   38.8270   26.9690   36.8690 H   0  0  0  0  0  0  0  0  0  0  0  0
   37.7460   28.8530   35.7920 H   0  0  0  0  0  0  0  0  0  0  0  0
   40.7470   22.8610   36.0340 C   0  0  0  0  0  0  0  0  0  0  0  0
   40.3940   22.3400   37.2860 C   0  0  0  0  0  0  0  0  0  0  0  0
   39.2800   22.9470   37.9070 C   0  0  0  0  0  0  0  0  0  0  0  0
   38.6370   23.9620   37.2850 N   0  0  0  0  0  0  0  0  0  0  0  0
   39.0240   24.4110   36.0910 C   0  0  0  0  0  0  0  0  0  0  0  0
   40.0940   23.8820   35.4150 N   0  0  0  0  0  0  0  0  0  0  0  0
   41.5970   22.4260   35.5180 H   0  0  0  0  0  0  0  0  0  0  0  0
   38.9850   22.5660   38.8740 H   0  0  0  0  0  0  0  0  0  0  0  0
   41.1200   21.2730   37.8740 N   0  0  0  0  0  0  0  0  0  0  0  0
   41.6600   20.6710   37.2160 H   0  0  0  0  0  0  0  0  0  0  0  0
   41.0690   21.1590   38.9140 H   0  0  0  0  0  0  0  0  0  0  0  0
   36.4780   26.1000   32.3480 C   0  0  0  0  0  0  0  0  0  0  0  0
   36.2500   24.7660   32.0010 C   0  0  0  0  0  0  0  0  0  0  0  0
   36.4820   23.8430   32.5550 H   0  0  0  0  0  0  0  0  0  0  0  0
   35.6320   24.7630   30.7450 C   0  0  0  0  0  0  0  0  0  0  0  0
   35.2920   23.9280   30.1250 H   0  0  0  0  0  0  0  0  0  0  0  0
   35.5110   26.0730   30.3830 N   0  0  0  0  0  0  0  0  0  0  0  0
   35.0810   26.3930   29.4790 H   0  0  0  0  0  0  0  0  0  0  0  0
   36.0090   26.8700   31.3260 N   0  0  0  0  0  0  0  0  0  0  0  0
  1  2  1  0  0  0  0
  1 13  1  0  0  0  0
  2  7  1  0  0  0  0
  3  8  1  0  0  0  0
  3  2  2  0  0  0  0
  4  3  1  0  0  0  0
  5  4  2  0  0  0  0
  5  6  1  0  0  0  0
  6  1  2  0  0  0  0
  9 10  1  0  0  0  0
 10 17  1  0  0  0  0
 10 11  2  0  0  0  0
 11 16  1  0  0  0  0
 12 11  1  0  0  0  0
 13 12  2  0  0  0  0
 14  9  2  0  0  0  0
 14 13  1  0  0  0  0
 15  9  1  0  0  0  0
 17 19  1  0  0  0  0
 18 17  1  0  0  0  0
 20  5  1  0  0  0  0
 21 20  1  0  0  0  0
 21 22  1  0  0  0  0
 23 21  2  0  0  0  0
 24 23  1  0  0  0  0
 25 23  1  0  0  0  0
 25 27  1  0  0  0  0
 26 25  1  0  0  0  0
 27 20  2  0  0  0  0
M  END
>  <minimizedAffinity>
-5.43912554

$$$$

 OpenBabel03272506593D

 27 29  0  0  0  0  0  0  0  0999 V2000
   38.4750   24.8430   33.4610 C   0  0  0  0  0  0  0  0  0  0  0  0
   39.7800   25.0960   33.0660 C   0  0  0  0  0  0  0  0  0  0  0  0
   40.9080   24.9160   33.8330 C   0  0  0  0  0  0  0  0  0  0  0  0
   40.6950   24.4440   35.0930 N   0  0  0  0  0  0  0  0  0  0  0  0
   39.4320   24.1870   35.5090 C   0  0  0  0  0  0  0  0  0  0  0  0
   38.3620   24.3820   34.7150 N   0  0  0  0  0  0  0  0  0  0  0  0
   39.9640   25.4710   32.0670 H   0  0  0  0  0  0  0  0  0  0  0  0
   41.8920   25.1210   33.4930 H   0  0  0  0  0  0  0  0  0  0  0  0
   35.7410   24.1070   31.2050 C   0  0  0  0  0  0  0  0  0  0  0  0
   35.2280   25.3560   30.8270 C   0  0  0  0  0  0  0  0  0  0  0  0
   35.8760   26.4780   31.3920 C   0  0  0  0  0  0  0  0  0  0  0  0
   36.9170   26.2940   32.2360 N   0  0  0  0  0  0  0  0  0  0  0  0
   37.3570   25.0760   32.5550 C   0  0  0  0  0  0  0  0  0  0  0  0
   36.7890   23.9320   32.0550 N   0  0  0  0  0  0  0  0  0  0  0  0
   35.2750   23.2170   30.7960 H   0  0  0  0  0  0  0  0  0  0  0  0
   35.5020   27.4530   31.1180 H   0  0  0  0  0  0  0  0  0  0  0  0
   34.1310   25.4650   29.9350 N   0  0  0  0  0  0  0  0  0  0  0  0
   33.9680   24.6480   29.3090 H   0  0  0  0  0  0  0  0  0  0  0  0
   33.5640   26.3450   29.9620 H   0  0  0  0  0  0  0  0  0  0  0  0
   39.1020   23.6810   36.8390 C   0  0  0  0  0  0  0  0  0  0  0  0
   37.9010   24.0470   37.4520 C   0  0  0  0  0  0  0  0  0  0  0  0
   37.0930   24.6990   37.0880 H   0  0  0  0  0  0  0  0  0  0  0  0
   37.8650   23.4160   38.7020 C   0  0  0  0  0  0  0  0  0  0  0  0
   37.1030   23.4420   39.4860 H   0  0  0  0  0  0  0  0  0  0  0  0
   39.0240   22.7030   38.7970 N   0  0  0  0  0  0  0  0  0  0  0  0
   39.2850   22.1190   39.6310 H   0  0  0  0  0  0  0  0  0  0  0  0
   39.7610   22.8550   37.6990 N   0  0  0  0  0  0  0  0  0  0  0  0
  1  6  1  0  0  0  0
  2  1  2  0  0  0  0
  2  3  1  0  0  0  0
  3  4  2  0  0  0  0
  4  5  1  0  0  0  0
  5 20  1  0  0  0  0
  6  5  2  0  0  0  0
  7  2  1  0  0  0  0
  8  3  1  0  0  0  0
  9 14  1  0  0  0  0
 10  9  2  0  0  0  0
 10 11  1  0  0  0  0
 11 12  2  0  0  0  0
 12 13  1  0  0  0  0
 13  1  1  0  0  0  0
 14 13  2  0  0  0  0
 15  9  1  0  0  0  0
 16 11  1  0  0  0  0
 17 19  1  0  0  0  0
 17 10  1  0  0  0  0
 18 17  1  0  0  0  0
 20 21  1  0  0  0  0
 20 27  2  0  0  0  0
 21 23  2  0  0  0  0
 22 21  1  0  0  0  0
 23 25  1  0  0  0  0
 23 24  1  0  0  0  0
 25 26  1  0  0  0  0
 27 25  1  0  0  0  0
M  END
>  <minimizedAffinity>
-5.20418406

$$$$

 OpenBabel03272506593D

 27 29  0  0  0  0  0  0  0  0999 V2000
   37.4540   22.6870   33.0190 C   0  0  0  0  0  0  0  0  0  0  0  0
   37.3650   23.9910   32.5580 C   0  0  0  0  0  0  0  0  0  0  0  0
   37.6710   25.1260   33.2740 C   0  0  0  0  0  0  0  0  0  0  0  0
   38.0980   24.9200   34.5510 N   0  0  0  0  0  0  0  0  0  0  0  0
   38.1960   23.6560   35.0300 C   0  0  0  0  0  0  0  0  0  0  0  0
   37.8830   22.5800   34.2840 N   0  0  0  0  0  0  0  0  0  0  0  0
   37.0270   24.1700   31.5450 H   0  0  0  0  0  0  0  0  0  0  0  0
   37.5890   26.1100   32.8850 H   0  0  0  0  0  0  0  0  0  0  0  0
   37.6440   20.3370   30.2700 C   0  0  0  0  0  0  0  0  0  0  0  0
   36.5570   19.4700   30.4500 C   0  0  0  0  0  0  0  0  0  0  0  0
   35.7460   19.7350   31.5770 C   0  0  0  0  0  0  0  0  0  0  0  0
   36.0490   20.7720   32.3900 N   0  0  0  0  0  0  0  0  0  0  0  0
   37.0990   21.5610   32.1610 C   0  0  0  0  0  0  0  0  0  0  0  0
   37.9410   21.3780   31.0940 N   0  0  0  0  0  0  0  0  0  0  0  0
   38.2950   20.1730   29.4180 H   0  0  0  0  0  0  0  0  0  0  0  0
   34.9010   19.0820   31.7410 H   0  0  0  0  0  0  0  0  0  0  0  0
   36.3060   18.4030   29.5510 N   0  0  0  0  0  0  0  0  0  0  0  0
   36.7100   18.5060   28.5950 H   0  0  0  0  0  0  0  0  0  0  0  0
   35.7410   17.5920   29.8980 H   0  0  0  0  0  0  0  0  0  0  0  0
   38.6440   23.3340   36.3830 C   0  0  0  0  0  0  0  0  0  0  0  0
   38.0100   23.9090   37.4880 C   0  0  0  0  0  0  0  0  0  0  0  0
   37.1680   24.6170   37.5290 H   0  0  0  0  0  0  0  0  0  0  0  0
   38.6480   23.4190   38.6330 C   0  0  0  0  0  0  0  0  0  0  0  0
   38.4570   23.6210   39.6920 H   0  0  0  0  0  0  0  0  0  0  0  0
   39.6270   22.5790   38.1880 N   0  0  0  0  0  0  0  0  0  0  0  0
   40.2820   22.0560   38.8220 H   0  0  0  0  0  0  0  0  0  0  0  0
   39.6310   22.5240   36.8580 N   0  0  0  0  0  0  0  0  0  0  0  0
  1  6  1  0  0  0  0
  2  1  2  0  0  0  0
  2  3  1  0  0  0  0
  3  4  2  0  0  0  0
  4  5  1  0  0  0  0
  5 20  1  0  0  0  0
  6  5  2  0  0  0  0
  7  2  1  0  0  0  0
  8  3  1  0  0  0  0
  9 10  2  0  0  0  0
  9 14  1  0  0  0  0
 10 11  1  0  0  0  0
 11 16  1  0  0  0  0
 11 12  2  0  0  0  0
 13 12  1  0  0  0  0
 13  1  1  0  0  0  0
 14 13  2  0  0  0  0
 15  9  1  0  0  0  0
 17 19  1  0  0  0  0
 17 10  1  0  0  0  0
 18 17  1  0  0  0  0
 20 27  2  0  0  0  0
 20 21  1  0  0  0  0
 21 22  1  0  0  0  0
 21 23  2  0  0  0  0
 23 24  1  0  0  0  0
 25 23  1  0  0  0  0
 25 26  1  0  0  0  0
 27 25  1  0  0  0  0
M  END
>  <minimizedAffinity>
-5.06909513

$$$$

 OpenBabel03272506593D

 27 29  0  0  0  0  0  0  0  0999 V2000
   37.7810   24.2970   33.2110 C   0  0  0  0  0  0  0  0  0  0  0  0
   37.8850   23.0970   32.5240 C   0  0  0  0  0  0  0  0  0  0  0  0
   38.2200   21.8790   33.0680 C   0  0  0  0  0  0  0  0  0  0  0  0
   38.4650   21.8790   34.4080 N   0  0  0  0  0  0  0  0  0  0  0  0
   38.3710   23.0360   35.1080 C   0  0  0  0  0  0  0  0  0  0  0  0
   38.0400   24.2020   34.5220 N   0  0  0  0  0  0  0  0  0  0  0  0
   37.6930   23.0820   31.4580 H   0  0  0  0  0  0  0  0  0  0  0  0
   38.2890   20.9800   32.5080 H   0  0  0  0  0  0  0  0  0  0  0  0
   35.8480   26.6010   31.1950 C   0  0  0  0  0  0  0  0  0  0  0  0
   36.5980   27.7850   31.1660 C   0  0  0  0  0  0  0  0  0  0  0  0
   37.8160   27.7530   31.8820 C   0  0  0  0  0  0  0  0  0  0  0  0
   38.1800   26.6240   32.5330 N   0  0  0  0  0  0  0  0  0  0  0  0
   37.4190   25.5300   32.5200 C   0  0  0  0  0  0  0  0  0  0  0  0
   36.2220   25.4700   31.8520 N   0  0  0  0  0  0  0  0  0  0  0  0
   34.9050   26.5790   30.6580 H   0  0  0  0  0  0  0  0  0  0  0  0
   38.4150   28.6520   31.8780 H   0  0  0  0  0  0  0  0  0  0  0  0
   36.1470   28.9290   30.4590 N   0  0  0  0  0  0  0  0  0  0  0  0
   35.4640   28.7520   29.6930 H   0  0  0  0  0  0  0  0  0  0  0  0
   36.5230   29.8630   30.7480 H   0  0  0  0  0  0  0  0  0  0  0  0
   38.6150   23.1370   36.5440 C   0  0  0  0  0  0  0  0  0  0  0  0
   37.7890   23.9340   37.3420 C   0  0  0  0  0  0  0  0  0  0  0  0
   36.9190   24.5490   37.0650 H   0  0  0  0  0  0  0  0  0  0  0  0
   38.2620   23.8350   38.6560 C   0  0  0  0  0  0  0  0  0  0  0  0
   37.8990   24.3010   39.5770 H   0  0  0  0  0  0  0  0  0  0  0  0
   39.3370   22.9960   38.6070 N   0  0  0  0  0  0  0  0  0  0  0  0
   39.9080   22.7260   39.4470 H   0  0  0  0  0  0  0  0  0  0  0  0
   39.5520   22.5790   37.3610 N   0  0  0  0  0  0  0  0  0  0  0  0
  1  6  1  0  0  0  0
  2  3  1  0  0  0  0
  2  1  2  0  0  0  0
  3  4  2  0  0  0  0
  4  5  1  0  0  0  0
  5 20  1  0  0  0  0
  6  5  2  0  0  0  0
  7  2  1  0  0  0  0
  8  3  1  0  0  0  0
  9 14  1  0  0  0  0
 10  9  2  0  0  0  0
 10 11  1  0  0  0  0
 11 12  2  0  0  0  0
 13 12  1  0  0  0  0
 13  1  1  0  0  0  0
 14 13  2  0  0  0  0
 15  9  1  0  0  0  0
 16 11  1  0  0  0  0
 17 19  1  0  0  0  0
 17 10  1  0  0  0  0
 18 17  1  0  0  0  0
 20 21  1  0  0  0  0
 20 27  2  0  0  0  0
 21 23  2  0  0  0  0
 22 21  1  0  0  0  0
 23 24  1  0  0  0  0
 25 23  1  0  0  0  0
 25 26  1  0  0  0  0
 27 25  1  0  0  0  0
M  END
>  <minimizedAffinity>
-5.05990696

$$$$

 OpenBabel03272506593D

 27 29  0  0  0  0  0  0  0  0999 V2000
   38.1060   25.8940   34.7070 C   0  0  0  0  0  0  0  0  0  0  0  0
   37.2300   26.8540   35.1900 C   0  0  0  0  0  0  0  0  0  0  0  0
   36.6680   27.8770   34.4610 C   0  0  0  0  0  0  0  0  0  0  0  0
   37.0210   27.9280   33.1460 N   0  0  0  0  0  0  0  0  0  0  0  0
   37.8750   27.0030   32.6450 C   0  0  0  0  0  0  0  0  0  0  0  0
   38.3960   26.0220   33.4050 N   0  0  0  0  0  0  0  0  0  0  0  0
   36.9410   26.8270   36.2330 H   0  0  0  0  0  0  0  0  0  0  0  0
   36.0000   28.5950   34.8670 H   0  0  0  0  0  0  0  0  0  0  0  0
   40.3810   23.3790   35.9760 C   0  0  0  0  0  0  0  0  0  0  0  0
   39.7740   22.8850   37.1380 C   0  0  0  0  0  0  0  0  0  0  0  0
   38.5290   23.4650   37.4690 C   0  0  0  0  0  0  0  0  0  0  0  0
   38.0080   24.4300   36.6770 N   0  0  0  0  0  0  0  0  0  0  0  0
   38.6390   24.8560   35.5820 C   0  0  0  0  0  0  0  0  0  0  0  0
   39.8500   24.3510   35.1850 N   0  0  0  0  0  0  0  0  0  0  0  0
   41.3400   22.9640   35.6810 H   0  0  0  0  0  0  0  0  0  0  0  0
   38.0380   23.1040   38.3610 H   0  0  0  0  0  0  0  0  0  0  0  0
   40.3860   21.8700   37.9180 N   0  0  0  0  0  0  0  0  0  0  0  0
   41.0790   21.2700   37.4230 H   0  0  0  0  0  0  0  0  0  0  0  0
   40.1060   21.7890   38.9240 H   0  0  0  0  0  0  0  0  0  0  0  0
   38.3120   26.9740   31.2510 C   0  0  0  0  0  0  0  0  0  0  0  0
   38.4340   28.1630   30.5280 C   0  0  0  0  0  0  0  0  0  0  0  0
   38.2450   29.2020   30.8410 H   0  0  0  0  0  0  0  0  0  0  0  0
   38.8660   27.8230   29.2400 C   0  0  0  0  0  0  0  0  0  0  0  0
   39.0800   28.4580   28.3750 H   0  0  0  0  0  0  0  0  0  0  0  0
   38.9880   26.4640   29.2310 N   0  0  0  0  0  0  0  0  0  0  0  0
   39.2980   25.9110   28.3930 H   0  0  0  0  0  0  0  0  0  0  0  0
   38.6630   25.9550   30.4170 N   0  0  0  0  0  0  0  0  0  0  0  0
  1  2  1  0  0  0  0
  1 13  1  0  0  0  0
  2  7  1  0  0  0  0
  3  8  1  0  0  0  0
  3  2  2  0  0  0  0
  4  3  1  0  0  0  0
  5  4  2  0  0  0  0
  5  6  1  0  0  0  0
  6  1  2  0  0  0  0
  9 10  1  0  0  0  0
 10 11  2  0  0  0  0
 10 17  1  0  0  0  0
 11 16  1  0  0  0  0
 12 11  1  0  0  0  0
 13 12  2  0  0  0  0
 14 13  1  0  0  0  0
 14  9  2  0  0  0  0
 15  9  1  0  0  0  0
 17 19  1  0  0  0  0
 18 17  1  0  0  0  0
 20  5  1  0  0  0  0
 21 22  1  0  0  0  0
 21 20  1  0  0  0  0
 23 21  2  0  0  0  0
 24 23  1  0  0  0  0
 25 23  1  0  0  0  0
 25 27  1  0  0  0  0
 26 25  1  0  0  0  0
 27 20  2  0  0  0  0
M  END
>  <minimizedAffinity>
-4.93965912

$$$$

 OpenBabel03272506593D

 27 29  0  0  0  0  0  0  0  0999 V2000
   37.9280   25.8590   33.7980 C   0  0  0  0  0  0  0  0  0  0  0  0
   38.7230   25.3480   32.7840 C   0  0  0  0  0  0  0  0  0  0  0  0
   39.6260   24.3170   32.9050 C   0  0  0  0  0  0  0  0  0  0  0  0
   39.7280   23.7650   34.1460 N   0  0  0  0  0  0  0  0  0  0  0  0
   38.9630   24.2420   35.1570 C   0  0  0  0  0  0  0  0  0  0  0  0
   38.0940   25.2560   34.9820 N   0  0  0  0  0  0  0  0  0  0  0  0
   38.6530   25.7770   31.7920 H   0  0  0  0  0  0  0  0  0  0  0  0
   40.2190   23.9530   32.1030 H   0  0  0  0  0  0  0  0  0  0  0  0
   35.6440   28.0120   31.9920 C   0  0  0  0  0  0  0  0  0  0  0  0
   35.2460   28.9870   32.9180 C   0  0  0  0  0  0  0  0  0  0  0  0
   35.8070   28.8670   34.2090 C   0  0  0  0  0  0  0  0  0  0  0  0
   36.6670   27.8560   34.4730 N   0  0  0  0  0  0  0  0  0  0  0  0
   37.0050   26.9610   33.5450 C   0  0  0  0  0  0  0  0  0  0  0  0
   36.5090   26.9990   32.2670 N   0  0  0  0  0  0  0  0  0  0  0  0
   35.2380   28.0640   30.9870 H   0  0  0  0  0  0  0  0  0  0  0  0
   35.5180   29.6040   34.9430 H   0  0  0  0  0  0  0  0  0  0  0  0
   34.3380   30.0170   32.5620 N   0  0  0  0  0  0  0  0  0  0  0  0
   34.2720   30.2370   31.5460 H   0  0  0  0  0  0  0  0  0  0  0  0
   33.8000   30.4820   33.3310 H   0  0  0  0  0  0  0  0  0  0  0  0
   39.0010   23.7180   36.5200 C   0  0  0  0  0  0  0  0  0  0  0  0
   38.0740   24.1590   37.4680 C   0  0  0  0  0  0  0  0  0  0  0  0
   37.2550   24.8880   37.3690 H   0  0  0  0  0  0  0  0  0  0  0  0
   38.3550   23.4890   38.6650 C   0  0  0  0  0  0  0  0  0  0  0  0
   37.8660   23.5500   39.6430 H   0  0  0  0  0  0  0  0  0  0  0  0
   39.4220   22.6800   38.4020 N   0  0  0  0  0  0  0  0  0  0  0  0
   39.8660   22.0480   39.1150 H   0  0  0  0  0  0  0  0  0  0  0  0
   39.8090   22.8100   37.1360 N   0  0  0  0  0  0  0  0  0  0  0  0
  1  6  1  0  0  0  0
  2  3  1  0  0  0  0
  2  1  2  0  0  0  0
  3  4  2  0  0  0  0
  4  5  1  0  0  0  0
  5 20  1  0  0  0  0
  6  5  2  0  0  0  0
  7  2  1  0  0  0  0
  8  3  1  0  0  0  0
  9 14  2  0  0  0  0
  9 10  1  0  0  0  0
 10 11  2  0  0  0  0
 11 12  1  0  0  0  0
 11 16  1  0  0  0  0
 13  1  1  0  0  0  0
 13 12  2  0  0  0  0
 14 13  1  0  0  0  0
 15  9  1  0  0  0  0
 17 10  1  0  0  0  0
 17 19  1  0  0  0  0
 18 17  1  0  0  0  0
 20 27  2  0  0  0  0
 20 21  1  0  0  0  0
 21 23  2  0  0  0  0
 22 21  1  0  0  0  0
 23 24  1  0  0  0  0
 25 23  1  0  0  0  0
 25 26  1  0  0  0  0
 27 25  1  0  0  0  0
M  END
>  <minimizedAffinity>
-4.92761993

$$$$

 OpenBabel03272506593D

 27 29  0  0  0  0  0  0  0  0999 V2000
   38.7770   25.3570   33.5520 C   0  0  0  0  0  0  0  0  0  0  0  0
   39.6490   26.4340   33.5180 C   0  0  0  0  0  0  0  0  0  0  0  0
   40.7610   26.6030   34.3110 C   0  0  0  0  0  0  0  0  0  0  0  0
   41.0040   25.6030   35.2050 N   0  0  0  0  0  0  0  0  0  0  0  0
   40.1710   24.5370   35.2620 C   0  0  0  0  0  0  0  0  0  0  0  0
   39.0950   24.4240   34.4600 N   0  0  0  0  0  0  0  0  0  0  0  0
   39.4680   27.2360   32.8130 H   0  0  0  0  0  0  0  0  0  0  0  0
   41.4060   27.4440   34.2550 H   0  0  0  0  0  0  0  0  0  0  0  0
   36.1490   26.4930   31.3360 C   0  0  0  0  0  0  0  0  0  0  0  0
   35.4650   25.3320   30.9500 C   0  0  0  0  0  0  0  0  0  0  0  0
   35.9560   24.1240   31.4950 C   0  0  0  0  0  0  0  0  0  0  0  0
   37.0210   24.1520   32.3290 N   0  0  0  0  0  0  0  0  0  0  0  0
   37.6270   25.2930   32.6570 C   0  0  0  0  0  0  0  0  0  0  0  0
   37.2190   26.5100   32.1760 N   0  0  0  0  0  0  0  0  0  0  0  0
   35.8070   27.4440   30.9420 H   0  0  0  0  0  0  0  0  0  0  0  0
   35.4480   23.2130   31.2150 H   0  0  0  0  0  0  0  0  0  0  0  0
   34.3540   25.3870   30.0690 N   0  0  0  0  0  0  0  0  0  0  0  0
   33.8550   26.3010   30.0190 H   0  0  0  0  0  0  0  0  0  0  0  0
   34.1100   24.5200   29.5340 H   0  0  0  0  0  0  0  0  0  0  0  0
   40.3470   23.4180   36.1840 C   0  0  0  0  0  0  0  0  0  0  0  0
   41.4180   22.5340   36.0200 C   0  0  0  0  0  0  0  0  0  0  0  0
   42.2170   22.5270   35.2620 H   0  0  0  0  0  0  0  0  0  0  0  0
   41.3270   21.5790   37.0380 C   0  0  0  0  0  0  0  0  0  0  0  0
   41.9660   20.7190   37.2630 H   0  0  0  0  0  0  0  0  0  0  0  0
   40.2240   21.9120   37.7700 N   0  0  0  0  0  0  0  0  0  0  0  0
   39.8950   21.3730   38.6100 H   0  0  0  0  0  0  0  0  0  0  0  0
   39.6400   22.9990   37.2700 N   0  0  0  0  0  0  0  0  0  0  0  0
  1  6  1  0  0  0  0
  2  1  2  0  0  0  0
  2  3  1  0  0  0  0
  3  4  2  0  0  0  0
  4  5  1  0  0  0  0
  5 20  1  0  0  0  0
  6  5  2  0  0  0  0
  7  2  1  0  0  0  0
  8  3  1  0  0  0  0
  9 14  1  0  0  0  0
 10  9  2  0  0  0  0
 10 11  1  0  0  0  0
 11 12  2  0  0  0  0
 12 13  1  0  0  0  0
 13  1  1  0  0  0  0
 14 13  2  0  0  0  0
 15  9  1  0  0  0  0
 16 11  1  0  0  0  0
 17 10  1  0  0  0  0
 18 17  1  0  0  0  0
 19 17  1  0  0  0  0
 20 27  2  0  0  0  0
 21 20  1  0  0  0  0
 21 23  2  0  0  0  0
 22 21  1  0  0  0  0
 23 24  1  0  0  0  0
 23 25  1  0  0  0  0
 25 26  1  0  0  0  0
 27 25  1  0  0  0  0
M  END
>  <minimizedAffinity>
-4.91019487

$$$$

 OpenBabel03272506593D

 27 29  0  0  0  0  0  0  0  0999 V2000
   37.8170   25.1810   33.8270 C   0  0  0  0  0  0  0  0  0  0  0  0
   37.9720   24.5820   32.5870 C   0  0  0  0  0  0  0  0  0  0  0  0
   37.6600   25.1450   31.3710 C   0  0  0  0  0  0  0  0  0  0  0  0
   37.1540   26.4090   31.4180 N   0  0  0  0  0  0  0  0  0  0  0  0
   36.9910   27.0220   32.6160 C   0  0  0  0  0  0  0  0  0  0  0  0
   37.3130   26.4220   33.7780 N   0  0  0  0  0  0  0  0  0  0  0  0
   38.3730   23.5780   32.5340 H   0  0  0  0  0  0  0  0  0  0  0  0
   37.7940   24.6530   30.4400 H   0  0  0  0  0  0  0  0  0  0  0  0
   38.0690   24.4610   37.3670 C   0  0  0  0  0  0  0  0  0  0  0  0
   38.8000   23.2670   37.4490 C   0  0  0  0  0  0  0  0  0  0  0  0
   39.2070   22.7150   36.2140 C   0  0  0  0  0  0  0  0  0  0  0  0
   38.8830   23.3440   35.0610 N   0  0  0  0  0  0  0  0  0  0  0  0
   38.1840   24.4790   35.0520 C   0  0  0  0  0  0  0  0  0  0  0  0
   37.7470   25.0860   36.2020 N   0  0  0  0  0  0  0  0  0  0  0  0
   37.7340   24.9220   38.2900 H   0  0  0  0  0  0  0  0  0  0  0  0
   39.7720   21.7950   36.2470 H   0  0  0  0  0  0  0  0  0  0  0  0
   39.1000   22.6690   38.7000 N   0  0  0  0  0  0  0  0  0  0  0  0
   39.0880   23.3050   39.5250 H   0  0  0  0  0  0  0  0  0  0  0  0
   39.3110   21.6430   38.7140 H   0  0  0  0  0  0  0  0  0  0  0  0
   36.4560   28.3720   32.7700 C   0  0  0  0  0  0  0  0  0  0  0  0
   35.9240   28.7820   33.9960 C   0  0  0  0  0  0  0  0  0  0  0  0
   35.8250   28.2280   34.9430 H   0  0  0  0  0  0  0  0  0  0  0  0
   35.4960   30.1060   33.8410 C   0  0  0  0  0  0  0  0  0  0  0  0
   35.0260   30.7870   34.5570 H   0  0  0  0  0  0  0  0  0  0  0  0
   35.7810   30.4440   32.5500 N   0  0  0  0  0  0  0  0  0  0  0  0
   35.5730   31.3860   32.1330 H   0  0  0  0  0  0  0  0  0  0  0  0
   36.3490   29.4240   31.9110 N   0  0  0  0  0  0  0  0  0  0  0  0
  1 13  1  0  0  0  0
  2  1  2  0  0  0  0
  3  4  2  0  0  0  0
  3  2  1  0  0  0  0
  4  5  1  0  0  0  0
  5 20  1  0  0  0  0
  5  6  2  0  0  0  0
  6  1  1  0  0  0  0
  7  2  1  0  0  0  0
  8  3  1  0  0  0  0
  9 10  1  0  0  0  0
  9 15  1  0  0  0  0
 10 17  1  0  0  0  0
 11 16  1  0  0  0  0
 11 10  2  0  0  0  0
 12 11  1  0  0  0  0
 13 12  2  0  0  0  0
 13 14  1  0  0  0  0
 14  9  2  0  0  0  0
 17 19  1  0  0  0  0
 17 18  1  0  0  0  0
 20 21  1  0  0  0  0
 21 22  1  0  0  0  0
 23 21  2  0  0  0  0
 23 24  1  0  0  0  0
 25 23  1  0  0  0  0
 26 25  1  0  0  0  0
 27 25  1  0  0  0  0
 27 20  2  0  0  0  0
M  END
>  <minimizedAffinity>
-4.86107302

$$$$

 OpenBabel03272506593D

 27 29  0  0  0  0  0  0  0  0999 V2000
   38.4250   24.4310   36.0640 C   0  0  0  0  0  0  0  0  0  0  0  0
   37.7300   24.3520   37.2610 C   0  0  0  0  0  0  0  0  0  0  0  0
   38.1260   23.6630   38.3840 C   0  0  0  0  0  0  0  0  0  0  0  0
   39.3150   23.0050   38.2840 N   0  0  0  0  0  0  0  0  0  0  0  0
   40.0180   23.0640   37.1270 C   0  0  0  0  0  0  0  0  0  0  0  0
   39.5820   23.7550   36.0570 N   0  0  0  0  0  0  0  0  0  0  0  0
   36.7830   24.8690   37.3550 H   0  0  0  0  0  0  0  0  0  0  0  0
   37.5650   23.6260   39.2840 H   0  0  0  0  0  0  0  0  0  0  0  0
   37.0280   27.2230   34.2300 C   0  0  0  0  0  0  0  0  0  0  0  0
   36.8860   26.7660   32.9130 C   0  0  0  0  0  0  0  0  0  0  0  0
   37.2990   25.4340   32.6830 C   0  0  0  0  0  0  0  0  0  0  0  0
   37.7900   24.6990   33.7060 N   0  0  0  0  0  0  0  0  0  0  0  0
   37.8990   25.1950   34.9390 C   0  0  0  0  0  0  0  0  0  0  0  0
   37.5240   26.4760   35.2540 N   0  0  0  0  0  0  0  0  0  0  0  0
   36.7240   28.2400   34.4560 H   0  0  0  0  0  0  0  0  0  0  0  0
   37.2010   25.0550   31.6760 H   0  0  0  0  0  0  0  0  0  0  0  0
   36.3620   27.6000   31.8930 N   0  0  0  0  0  0  0  0  0  0  0  0
   35.7660   28.3930   32.2140 H   0  0  0  0  0  0  0  0  0  0  0  0
   36.6020   27.3700   30.9000 H   0  0  0  0  0  0  0  0  0  0  0  0
   41.3000   22.3940   36.9220 C   0  0  0  0  0  0  0  0  0  0  0  0
   42.3750   23.0910   36.3640 C   0  0  0  0  0  0  0  0  0  0  0  0
   42.4390   24.1360   36.0230 H   0  0  0  0  0  0  0  0  0  0  0  0
   43.4540   22.2010   36.2920 C   0  0  0  0  0  0  0  0  0  0  0  0
   44.4720   22.3510   35.9200 H   0  0  0  0  0  0  0  0  0  0  0  0
   43.0000   21.0190   36.8010 N   0  0  0  0  0  0  0  0  0  0  0  0
   43.5890   20.1520   36.8780 H   0  0  0  0  0  0  0  0  0  0  0  0
   41.7270   21.1260   37.1750 N   0  0  0  0  0  0  0  0  0  0  0  0
  1  2  1  0  0  0  0
  2  7  1  0  0  0  0
  2  3  2  0  0  0  0
  3  8  1  0  0  0  0
  4  3  1  0  0  0  0
  5  4  2  0  0  0  0
  6  1  2  0  0  0  0
  6  5  1  0  0  0  0
  9 15  1  0  0  0  0
  9 14  1  0  0  0  0
 10  9  2  0  0  0  0
 11 10  1  0  0  0  0
 11 12  2  0  0  0  0
 12 13  1  0  0  0  0
 13 14  2  0  0  0  0
 13  1  1  0  0  0  0
 16 11  1  0  0  0  0
 17 18  1  0  0  0  0
 17 10  1  0  0  0  0
 19 17  1  0  0  0  0
 20  5  1  0  0  0  0
 20 27  2  0  0  0  0
 21 20  1  0  0  0  0
 22 21  1  0  0  0  0
 23 21  2  0  0  0  0
 23 25  1  0  0  0  0
 24 23  1  0  0  0  0
 25 26  1  0  0  0  0
 25 27  1  0  0  0  0
M  END
>  <minimizedAffinity>
-4.80514574

$$$$
