
 OpenBabel03272510193D

 35 38  0  0  0  0  0  0  0  0999 V2000
   37.4110   29.1690   50.7920 Br  0  0  0  0  0  0  0  0  0  0  0  0
   35.9980   29.2860   49.5170 C   0  0  0  0  0  0  0  0  0  0  0  0
   35.9950   30.2990   48.5590 C   0  0  0  0  0  0  0  0  0  0  0  0
   34.9510   30.3300   47.6690 C   0  0  0  0  0  0  0  0  0  0  0  0
   33.9200   29.4070   47.6880 C   0  0  0  0  0  0  0  0  0  0  0  0
   33.9460   28.4260   48.6330 C   0  0  0  0  0  0  0  0  0  0  0  0
   34.9860   28.3810   49.5340 C   0  0  0  0  0  0  0  0  0  0  0  0
   34.8920   31.0910   46.9030 H   0  0  0  0  0  0  0  0  0  0  0  0
   33.1590   27.6850   48.6810 H   0  0  0  0  0  0  0  0  0  0  0  0
   34.9750   27.5780   50.2800 H   0  0  0  0  0  0  0  0  0  0  0  0
   38.0220   33.1900   49.4840 C   0  0  0  0  0  0  0  0  0  0  0  0
   39.0550   33.1970   48.4960 C   0  0  0  0  0  0  0  0  0  0  0  0
   39.0300   32.2100   47.5360 C   0  0  0  0  0  0  0  0  0  0  0  0
   38.0300   31.2740   47.5670 N   0  0  0  0  0  0  0  0  0  0  0  0
   37.0620   31.2850   48.5120 C   0  0  0  0  0  0  0  0  0  0  0  0
   37.0650   32.2550   49.4750 N   0  0  0  0  0  0  0  0  0  0  0  0
   38.0150   33.9550   50.2550 H   0  0  0  0  0  0  0  0  0  0  0  0
   39.8040   33.9510   48.5250 H   0  0  0  0  0  0  0  0  0  0  0  0
   39.7920   32.1700   46.7610 H   0  0  0  0  0  0  0  0  0  0  0  0
   32.8090   29.4340   46.7430 C   0  0  0  0  0  0  0  0  0  0  0  0
   31.8960   28.4210   46.5630 C   0  0  0  0  0  0  0  0  0  0  0  0
   30.8600   28.5050   45.6490 C   0  0  0  0  0  0  0  0  0  0  0  0
   30.7240   29.6030   44.9050 N   0  0  0  0  0  0  0  0  0  0  0  0
   31.5990   30.6020   45.0640 C   0  0  0  0  0  0  0  0  0  0  0  0
   32.6050   30.5160   45.9540 N   0  0  0  0  0  0  0  0  0  0  0  0
   32.0100   27.5280   47.1690 H   0  0  0  0  0  0  0  0  0  0  0  0
   30.1720   27.6650   45.5560 H   0  0  0  0  0  0  0  0  0  0  0  0
   31.5810   31.8620   44.3250 C   0  0  0  0  0  0  0  0  0  0  0  0
   31.5850   33.0740   45.0110 C   0  0  0  0  0  0  0  0  0  0  0  0
   31.6000   33.2500   46.0670 H   0  0  0  0  0  0  0  0  0  0  0  0
   31.5650   34.1170   44.0760 C   0  0  0  0  0  0  0  0  0  0  0  0
   31.5620   35.1700   44.3240 H   0  0  0  0  0  0  0  0  0  0  0  0
   31.5510   33.4910   42.8630 N   0  0  0  0  0  0  0  0  0  0  0  0
   31.5350   34.0210   41.9650 H   0  0  0  0  0  0  0  0  0  0  0  0
   31.5600   32.1880   43.0010 N   0  0  0  0  0  0  0  0  0  0  0  0
  2  7  1  0  0  0  0
  2  1  1  0  0  0  0
  3  2  2  0  0  0  0
  4  5  2  0  0  0  0
  4  3  1  0  0  0  0
  5  6  1  0  0  0  0
  6  9  1  0  0  0  0
  6  7  2  0  0  0  0
  7 10  1  0  0  0  0
  8  4  1  0  0  0  0
 11 17  1  0  0  0  0
 12 18  1  0  0  0  0
 12 11  2  0  0  0  0
 13 14  2  0  0  0  0
 13 12  1  0  0  0  0
 14 15  1  0  0  0  0
 15  3  1  0  0  0  0
 15 16  2  0  0  0  0
 16 11  1  0  0  0  0
 19 13  1  0  0  0  0
 20  5  1  0  0  0  0
 21 20  1  0  0  0  0
 21 26  1  0  0  0  0
 22 21  2  0  0  0  0
 23 24  2  0  0  0  0
 23 22  1  0  0  0  0
 24 25  1  0  0  0  0
 25 20  2  0  0  0  0
 27 22  1  0  0  0  0
 28 29  1  0  0  0  0
 28 24  1  0  0  0  0
 29 30  1  0  0  0  0
 31 32  1  0  0  0  0
 31 29  2  0  0  0  0
 33 35  1  0  0  0  0
 33 31  1  0  0  0  0
 34 33  1  0  0  0  0
 35 28  2  0  0  0  0
M  END
>  <minimizedAffinity>
-6.39405394

>  <minimizedRMSD>
0.559265018

$$$$
