
 OpenBabel03272508103D

 33 35  0  0  0  0  0  0  0  0999 V2000
   36.6840   29.4640   44.0640 Cl  0  0  0  0  0  0  0  0  0  0  0  0
   38.3360   29.8280   43.5250 C   0  0  0  0  0  0  0  0  0  0  0  0
   39.3200   30.3210   44.3850 C   0  0  0  0  0  0  0  0  0  0  0  0
   40.5660   30.5630   43.8420 C   0  0  0  0  0  0  0  0  0  0  0  0
   40.8290   30.3300   42.5170 C   0  0  0  0  0  0  0  0  0  0  0  0
   39.8790   29.8520   41.6770 C   0  0  0  0  0  0  0  0  0  0  0  0
   38.6270   29.6020   42.1870 C   0  0  0  0  0  0  0  0  0  0  0  0
   41.2750   30.9410   44.5620 H   0  0  0  0  0  0  0  0  0  0  0  0
   41.8340   30.5460   42.1630 H   0  0  0  0  0  0  0  0  0  0  0  0
   40.1250   29.6810   40.6330 H   0  0  0  0  0  0  0  0  0  0  0  0
   37.5630   29.0790   41.3020 C   0  0  0  0  0  0  0  0  0  0  0  0
   37.3760   27.7490   40.9940 C   0  0  0  0  0  0  0  0  0  0  0  0
   37.9960   26.9350   41.3730 H   0  0  0  0  0  0  0  0  0  0  0  0
   36.2840   27.7320   40.1490 C   0  0  0  0  0  0  0  0  0  0  0  0
   35.8960   26.7890   39.7330 H   0  0  0  0  0  0  0  0  0  0  0  0
   35.8320   28.9840   39.9540 N   0  0  0  0  0  0  0  0  0  0  0  0
   35.0090   29.2080   39.3470 H   0  0  0  0  0  0  0  0  0  0  0  0
   36.6140   29.7950   40.6570 N   0  0  0  0  0  0  0  0  0  0  0  0
   38.8780   30.4890   45.6630 O   0  0  0  0  0  0  0  0  0  0  0  0
   39.4530   32.5370   47.1210 O   0  0  0  0  0  0  0  0  0  0  0  0
   38.3210   31.8690   46.4300 P   0  0  1  0  0  0  0  0  0  0  0  0
   37.7310   32.8620   45.1750 O   0  0  0  0  0  0  0  0  0  0  0  0
   38.4880   33.1710   44.6150 H   0  0  0  0  0  0  0  0  0  0  0  0
   37.0530   31.4440   47.4720 O   0  0  0  0  0  0  0  0  0  0  0  0
   37.6140   30.5210   50.9980 C   0  0  0  0  0  0  0  0  0  0  0  0
   37.7140   31.3110   49.8360 C   0  0  0  0  0  0  0  0  0  0  0  0
   37.0880   30.8620   48.6750 C   0  0  0  0  0  0  0  0  0  0  0  0
   36.4060   29.6760   48.7270 N   0  0  0  0  0  0  0  0  0  0  0  0
   36.3330   28.9470   49.8600 C   0  0  0  0  0  0  0  0  0  0  0  0
   36.9350   29.3760   50.9800 N   0  0  0  0  0  0  0  0  0  0  0  0
   38.1440   30.9820   51.8290 H   0  0  0  0  0  0  0  0  0  0  0  0
   38.2250   32.2490   49.7070 H   0  0  0  0  0  0  0  0  0  0  0  0
   35.8000   28.0090   49.9230 H   0  0  0  0  0  0  0  0  0  0  0  0
  2  1  1  0  0  0  0
  2  3  1  0  0  0  0
  3 19  1  0  0  0  0
  4  3  2  0  0  0  0
  4  8  1  0  0  0  0
  5  4  1  0  0  0  0
  6  7  1  0  0  0  0
  6  5  2  0  0  0  0
  7  2  2  0  0  0  0
  9  5  1  0  0  0  0
 10  6  1  0  0  0  0
 11  7  1  0  0  0  0
 12 11  1  0  0  0  0
 12 13  1  0  0  0  0
 14 12  2  0  0  0  0
 15 14  1  0  0  0  0
 16 14  1  0  0  0  0
 16 18  1  0  0  0  0
 17 16  1  0  0  0  0
 18 11  2  0  0  0  0
 19 21  1  0  0  0  0
 21 20  2  1  0  0  0
 21 24  1  0  0  0  0
 22 21  1  0  0  0  0
 23 22  1  0  0  0  0
 24 27  1  0  0  0  0
 25 31  1  0  0  0  0
 26 25  2  0  0  0  0
 27 28  2  0  0  0  0
 27 26  1  0  0  0  0
 28 29  1  0  0  0  0
 29 33  1  0  0  0  0
 29 30  2  0  0  0  0
 30 25  1  0  0  0  0
 32 26  1  0  0  0  0
M  END
>  <minimizedAffinity>
-4.8047514

>  <minimizedRMSD>
0.334628224

$$$$
