
 OpenBabel03272503113D

 44 48  0  0  0  0  0  0  0  0999 V2000
   38.0020   26.2890   35.0610 C   0  0  0  0  0  0  0  0  0  0  0  0
   38.8120   26.7360   35.9360 O   0  0  0  0  0  0  0  0  0  0  0  0
   37.7470   24.8930   35.1290 N   0  0  0  0  0  0  0  0  0  0  0  0
   37.0970   24.4950   34.4410 H   0  0  0  0  0  0  0  0  0  0  0  0
   36.4640   28.0750   34.5860 C   0  0  0  0  0  0  0  0  0  0  0  0
   37.4300   27.2090   34.1060 C   0  0  0  0  0  0  0  0  0  0  0  0
   37.8420   27.2070   32.7890 C   0  0  0  0  0  0  0  0  0  0  0  0
   37.2740   28.1020   31.9000 C   0  0  0  0  0  0  0  0  0  0  0  0
   37.4800   28.3150   30.5870 N   0  0  0  0  0  0  0  0  0  0  0  0
   36.6490   29.3120   30.2330 C   0  0  0  0  0  0  0  0  0  0  0  0
   35.9380   29.7140   31.3020 N   0  0  0  0  0  0  0  0  0  0  0  0
   36.3140   28.9630   32.3740 C   0  0  0  0  0  0  0  0  0  0  0  0
   35.8990   28.9720   33.6830 C   0  0  0  0  0  0  0  0  0  0  0  0
   36.1630   28.0550   35.6130 H   0  0  0  0  0  0  0  0  0  0  0  0
   38.6060   26.5060   32.4610 H   0  0  0  0  0  0  0  0  0  0  0  0
   38.1460   27.8220   29.9410 H   0  0  0  0  0  0  0  0  0  0  0  0
   36.4940   29.7910   29.2770 H   0  0  0  0  0  0  0  0  0  0  0  0
   34.8770   29.8920   34.1730 C   0  0  0  0  0  0  0  0  0  0  0  0
   35.0760   31.0070   34.9560 C   0  0  0  0  0  0  0  0  0  0  0  0
   36.0150   31.3970   35.3440 H   0  0  0  0  0  0  0  0  0  0  0  0
   33.7930   31.5290   35.1440 C   0  0  0  0  0  0  0  0  0  0  0  0
   33.6080   32.4230   35.7260 H   0  0  0  0  0  0  0  0  0  0  0  0
   32.8860   30.7440   34.4920 N   0  0  0  0  0  0  0  0  0  0  0  0
   31.8730   31.0050   34.5370 H   0  0  0  0  0  0  0  0  0  0  0  0
   33.5660   29.7540   33.9090 N   0  0  0  0  0  0  0  0  0  0  0  0
   40.2440   23.8850   34.6900 F   0  0  0  0  0  0  0  0  0  0  0  0
   39.7120   23.7090   35.9280 C   0  0  0  0  0  0  0  0  0  0  0  0
   40.4380   23.0480   36.8810 C   0  0  0  0  0  0  0  0  0  0  0  0
   39.8440   22.9050   38.1080 C   0  0  0  0  0  0  0  0  0  0  0  0
   38.5880   23.3870   38.4030 C   0  0  0  0  0  0  0  0  0  0  0  0
   37.8890   24.0490   37.4120 C   0  0  0  0  0  0  0  0  0  0  0  0
   38.4490   24.2130   36.1700 C   0  0  0  0  0  0  0  0  0  0  0  0
   40.3980   22.3830   38.8880 H   0  0  0  0  0  0  0  0  0  0  0  0
   38.2020   23.2250   39.4010 H   0  0  0  0  0  0  0  0  0  0  0  0
   36.9050   24.4220   37.6550 H   0  0  0  0  0  0  0  0  0  0  0  0
   44.1490   22.8260   36.2330 C   0  0  0  0  0  0  0  0  0  0  0  0
   42.8850   23.3340   36.5740 C   0  0  0  0  0  0  0  0  0  0  0  0
   41.7630   22.5530   36.5320 C   0  0  0  0  0  0  0  0  0  0  0  0
   41.9290   21.2510   36.1400 N   0  0  0  0  0  0  0  0  0  0  0  0
   43.1340   20.7600   35.8120 C   0  0  0  0  0  0  0  0  0  0  0  0
   44.2200   21.5290   35.8560 N   0  0  0  0  0  0  0  0  0  0  0  0
   45.0270   23.4650   36.2730 H   0  0  0  0  0  0  0  0  0  0  0  0
   42.8120   24.3820   36.8810 H   0  0  0  0  0  0  0  0  0  0  0  0
   43.2590   19.7280   35.5020 H   0  0  0  0  0  0  0  0  0  0  0  0
  1  3  1  0  0  0  0
  1  2  2  0  0  0  0
  3 32  1  0  0  0  0
  4  3  1  0  0  0  0
  5 14  1  0  0  0  0
  6  5  1  0  0  0  0
  6  1  1  0  0  0  0
  7  6  2  0  0  0  0
  8 12  2  0  0  0  0
  8  7  1  0  0  0  0
  9  8  1  0  0  0  0
 10  9  1  0  0  0  0
 10 11  2  0  0  0  0
 11 12  1  0  0  0  0
 12 13  1  0  0  0  0
 13 18  1  0  0  0  0
 13  5  2  0  0  0  0
 15  7  1  0  0  0  0
 16  9  1  0  0  0  0
 17 10  1  0  0  0  0
 18 19  1  0  0  0  0
 19 21  2  0  0  0  0
 19 20  1  0  0  0  0
 21 22  1  0  0  0  0
 23 24  1  0  0  0  0
 23 21  1  0  0  0  0
 25 18  2  0  0  0  0
 25 23  1  0  0  0  0
 26 27  1  0  0  0  0
 27 32  2  0  0  0  0
 27 28  1  0  0  0  0
 28 29  2  0  0  0  0
 29 30  1  0  0  0  0
 29 33  1  0  0  0  0
 30 34  1  0  0  0  0
 31 35  1  0  0  0  0
 31 30  2  0  0  0  0
 32 31  1  0  0  0  0
 36 42  1  0  0  0  0
 36 37  1  0  0  0  0
 37 43  1  0  0  0  0
 38 37  2  0  0  0  0
 38 28  1  0  0  0  0
 39 38  1  0  0  0  0
 40 41  1  0  0  0  0
 40 39  2  0  0  0  0
 41 36  2  0  0  0  0
 44 40  1  0  0  0  0
M  END
>  <minimizedAffinity>
-6.92800665

$$$$

 OpenBabel03272503113D

 44 48  0  0  0  0  0  0  0  0999 V2000
   36.7560   27.3040   33.0750 C   0  0  0  0  0  0  0  0  0  0  0  0
   36.9390   26.7740   34.2190 O   0  0  0  0  0  0  0  0  0  0  0  0
   37.2560   26.5570   31.9750 N   0  0  0  0  0  0  0  0  0  0  0  0
   37.1260   26.9500   31.0350 H   0  0  0  0  0  0  0  0  0  0  0  0
   35.7460   29.1730   34.2000 C   0  0  0  0  0  0  0  0  0  0  0  0
   36.0790   28.5770   32.9980 C   0  0  0  0  0  0  0  0  0  0  0  0
   35.7890   29.1490   31.7760 C   0  0  0  0  0  0  0  0  0  0  0  0
   35.1390   30.3700   31.7380 C   0  0  0  0  0  0  0  0  0  0  0  0
   34.7400   31.1420   30.7100 N   0  0  0  0  0  0  0  0  0  0  0  0
   34.1560   32.2250   31.2560 C   0  0  0  0  0  0  0  0  0  0  0  0
   34.1900   32.1310   32.5980 N   0  0  0  0  0  0  0  0  0  0  0  0
   34.8070   30.9650   32.9320 C   0  0  0  0  0  0  0  0  0  0  0  0
   35.0920   30.4020   34.1510 C   0  0  0  0  0  0  0  0  0  0  0  0
   35.9830   28.7060   35.1350 H   0  0  0  0  0  0  0  0  0  0  0  0
   36.0720   28.6410   30.8580 H   0  0  0  0  0  0  0  0  0  0  0  0
   34.8480   30.9660   29.6800 H   0  0  0  0  0  0  0  0  0  0  0  0
   33.7020   33.0870   30.7900 H   0  0  0  0  0  0  0  0  0  0  0  0
   34.7340   31.0430   35.4120 C   0  0  0  0  0  0  0  0  0  0  0  0
   33.4710   31.1650   35.9480 C   0  0  0  0  0  0  0  0  0  0  0  0
   32.5290   30.8100   35.5360 H   0  0  0  0  0  0  0  0  0  0  0  0
   33.6720   31.8520   37.1490 C   0  0  0  0  0  0  0  0  0  0  0  0
   32.8590   32.1070   37.8170 H   0  0  0  0  0  0  0  0  0  0  0  0
   35.0030   32.1180   37.3000 N   0  0  0  0  0  0  0  0  0  0  0  0
   35.3170   32.6300   38.1570 H   0  0  0  0  0  0  0  0  0  0  0  0
   35.6300   31.6180   36.2330 N   0  0  0  0  0  0  0  0  0  0  0  0
   35.9080   24.1930   31.7810 F   0  0  0  0  0  0  0  0  0  0  0  0
   37.1900   24.1410   32.2270 C   0  0  0  0  0  0  0  0  0  0  0  0
   37.7380   22.9300   32.5530 C   0  0  0  0  0  0  0  0  0  0  0  0
   39.0340   22.9490   32.9970 C   0  0  0  0  0  0  0  0  0  0  0  0
   39.7780   24.1020   33.1210 C   0  0  0  0  0  0  0  0  0  0  0  0
   39.1860   25.3040   32.7810 C   0  0  0  0  0  0  0  0  0  0  0  0
   37.8900   25.3280   32.3330 C   0  0  0  0  0  0  0  0  0  0  0  0
   39.4980   22.0000   33.2630 H   0  0  0  0  0  0  0  0  0  0  0  0
   40.7950   24.0160   33.4800 H   0  0  0  0  0  0  0  0  0  0  0  0
   39.7780   26.2020   32.8820 H   0  0  0  0  0  0  0  0  0  0  0  0
   35.5210   19.9670   33.2890 C   0  0  0  0  0  0  0  0  0  0  0  0
   36.3030   21.1210   33.4630 C   0  0  0  0  0  0  0  0  0  0  0  0
   36.9220   21.7330   32.4080 C   0  0  0  0  0  0  0  0  0  0  0  0
   36.7440   21.1670   31.1730 N   0  0  0  0  0  0  0  0  0  0  0  0
   35.9990   20.0650   31.0010 C   0  0  0  0  0  0  0  0  0  0  0  0
   35.4010   19.4770   32.0350 N   0  0  0  0  0  0  0  0  0  0  0  0
   35.0380   19.4970   34.1420 H   0  0  0  0  0  0  0  0  0  0  0  0
   36.4090   21.5280   34.4730 H   0  0  0  0  0  0  0  0  0  0  0  0
   35.8630   19.6220   30.0200 H   0  0  0  0  0  0  0  0  0  0  0  0
  1  2  2  0  0  0  0
  3 32  1  0  0  0  0
  3  1  1  0  0  0  0
  4  3  1  0  0  0  0
  5 14  1  0  0  0  0
  6  1  1  0  0  0  0
  6  5  2  0  0  0  0
  7  6  1  0  0  0  0
  8  7  2  0  0  0  0
  8 12  1  0  0  0  0
  9 10  1  0  0  0  0
  9  8  1  0  0  0  0
 10 11  2  0  0  0  0
 11 12  1  0  0  0  0
 12 13  2  0  0  0  0
 13  5  1  0  0  0  0
 13 18  1  0  0  0  0
 15  7  1  0  0  0  0
 16  9  1  0  0  0  0
 17 10  1  0  0  0  0
 18 19  1  0  0  0  0
 18 25  2  0  0  0  0
 19 21  2  0  0  0  0
 20 19  1  0  0  0  0
 21 23  1  0  0  0  0
 21 22  1  0  0  0  0
 23 24  1  0  0  0  0
 25 23  1  0  0  0  0
 26 27  1  0  0  0  0
 27 32  2  0  0  0  0
 27 28  1  0  0  0  0
 28 29  2  0  0  0  0
 29 30  1  0  0  0  0
 29 33  1  0  0  0  0
 30 34  1  0  0  0  0
 31 35  1  0  0  0  0
 31 30  2  0  0  0  0
 32 31  1  0  0  0  0
 36 37  1  0  0  0  0
 36 42  1  0  0  0  0
 37 43  1  0  0  0  0
 38 28  1  0  0  0  0
 38 37  2  0  0  0  0
 39 38  1  0  0  0  0
 40 39  2  0  0  0  0
 40 41  1  0  0  0  0
 41 36  2  0  0  0  0
 44 40  1  0  0  0  0
M  END
>  <minimizedAffinity>
-6.72699213

$$$$

 OpenBabel03272503113D

 44 48  0  0  0  0  0  0  0  0999 V2000
   37.2770   26.7360   33.1700 C   0  0  0  0  0  0  0  0  0  0  0  0
   38.0830   27.6020   33.6420 O   0  0  0  0  0  0  0  0  0  0  0  0
   36.1390   27.2680   32.5060 N   0  0  0  0  0  0  0  0  0  0  0  0
   35.4650   26.6020   32.1100 H   0  0  0  0  0  0  0  0  0  0  0  0
   38.1580   24.9740   34.5470 C   0  0  0  0  0  0  0  0  0  0  0  0
   37.5790   25.3360   33.3440 C   0  0  0  0  0  0  0  0  0  0  0  0
   37.2970   24.4230   32.3480 C   0  0  0  0  0  0  0  0  0  0  0  0
   37.6000   23.0880   32.5470 C   0  0  0  0  0  0  0  0  0  0  0  0
   37.4380   22.0050   31.7640 N   0  0  0  0  0  0  0  0  0  0  0  0
   37.9120   20.9590   32.4660 C   0  0  0  0  0  0  0  0  0  0  0  0
   38.3600   21.3800   33.6630 N   0  0  0  0  0  0  0  0  0  0  0  0
   38.1750   22.7260   33.7420 C   0  0  0  0  0  0  0  0  0  0  0  0
   38.4590   23.6280   34.7380 C   0  0  0  0  0  0  0  0  0  0  0  0
   38.3670   25.7030   35.3030 H   0  0  0  0  0  0  0  0  0  0  0  0
   36.8410   24.7570   31.4200 H   0  0  0  0  0  0  0  0  0  0  0  0
   37.0290   21.9520   30.7980 H   0  0  0  0  0  0  0  0  0  0  0  0
   37.9710   19.9110   32.2100 H   0  0  0  0  0  0  0  0  0  0  0  0
   39.0700   23.2300   36.0010 C   0  0  0  0  0  0  0  0  0  0  0  0
   40.4020   22.9570   36.2260 C   0  0  0  0  0  0  0  0  0  0  0  0
   41.2240   22.9890   35.5140 H   0  0  0  0  0  0  0  0  0  0  0  0
   40.4610   22.6280   37.5830 C   0  0  0  0  0  0  0  0  0  0  0  0
   41.3860   22.3590   38.0770 H   0  0  0  0  0  0  0  0  0  0  0  0
   39.2090   22.7070   38.1230 N   0  0  0  0  0  0  0  0  0  0  0  0
   39.0860   22.4880   39.1390 H   0  0  0  0  0  0  0  0  0  0  0  0
   38.3790   23.0740   37.1440 N   0  0  0  0  0  0  0  0  0  0  0  0
   35.0520   28.6500   34.5920 F   0  0  0  0  0  0  0  0  0  0  0  0
   35.5260   29.3770   33.5460 C   0  0  0  0  0  0  0  0  0  0  0  0
   35.4390   30.7420   33.5840 C   0  0  0  0  0  0  0  0  0  0  0  0
   35.9360   31.4130   32.4980 C   0  0  0  0  0  0  0  0  0  0  0  0
   36.4990   30.7840   31.4090 C   0  0  0  0  0  0  0  0  0  0  0  0
   36.5660   29.4040   31.4110 C   0  0  0  0  0  0  0  0  0  0  0  0
   36.0800   28.6950   32.4800 C   0  0  0  0  0  0  0  0  0  0  0  0
   35.8820   32.5010   32.5000 H   0  0  0  0  0  0  0  0  0  0  0  0
   36.8640   31.4010   30.5980 H   0  0  0  0  0  0  0  0  0  0  0  0
   37.0100   28.9220   30.5530 H   0  0  0  0  0  0  0  0  0  0  0  0
   34.9540   32.3700   36.9540 C   0  0  0  0  0  0  0  0  0  0  0  0
   35.5640   31.7640   35.8430 C   0  0  0  0  0  0  0  0  0  0  0  0
   34.8390   31.3710   34.7530 C   0  0  0  0  0  0  0  0  0  0  0  0
   33.4870   31.5960   34.7940 N   0  0  0  0  0  0  0  0  0  0  0  0
   32.8990   32.1730   35.8530 C   0  0  0  0  0  0  0  0  0  0  0  0
   33.6150   32.5520   36.9090 N   0  0  0  0  0  0  0  0  0  0  0  0
   35.5500   32.6740   37.8100 H   0  0  0  0  0  0  0  0  0  0  0  0
   36.6470   31.6100   35.8660 H   0  0  0  0  0  0  0  0  0  0  0  0
   31.8280   32.3480   35.8790 H   0  0  0  0  0  0  0  0  0  0  0  0
  1  6  1  0  0  0  0
  1  2  2  0  0  0  0
  3  1  1  0  0  0  0
  4  3  1  0  0  0  0
  5 13  1  0  0  0  0
  5 14  1  0  0  0  0
  6  5  2  0  0  0  0
  7  8  2  0  0  0  0
  7  6  1  0  0  0  0
  8 12  1  0  0  0  0
  9 10  1  0  0  0  0
  9  8  1  0  0  0  0
 10 11  2  0  0  0  0
 11 12  1  0  0  0  0
 12 13  2  0  0  0  0
 13 18  1  0  0  0  0
 15  7  1  0  0  0  0
 16  9  1  0  0  0  0
 17 10  1  0  0  0  0
 18 19  1  0  0  0  0
 18 25  2  0  0  0  0
 19 21  2  0  0  0  0
 20 19  1  0  0  0  0
 21 22  1  0  0  0  0
 21 23  1  0  0  0  0
 23 24  1  0  0  0  0
 25 23  1  0  0  0  0
 27 28  1  0  0  0  0
 27 26  1  0  0  0  0
 28 38  1  0  0  0  0
 29 33  1  0  0  0  0
 29 28  2  0  0  0  0
 30 31  2  0  0  0  0
 30 29  1  0  0  0  0
 31 32  1  0  0  0  0
 32  3  1  0  0  0  0
 32 27  2  0  0  0  0
 34 30  1  0  0  0  0
 35 31  1  0  0  0  0
 36 42  1  0  0  0  0
 37 43  1  0  0  0  0
 37 36  2  0  0  0  0
 38 39  2  0  0  0  0
 38 37  1  0  0  0  0
 39 40  1  0  0  0  0
 40 44  1  0  0  0  0
 40 41  2  0  0  0  0
 41 36  1  0  0  0  0
M  END
>  <minimizedAffinity>
-6.66091394

$$$$

 OpenBabel03272503113D

 44 48  0  0  0  0  0  0  0  0999 V2000
   36.7670   25.7690   32.3080 C   0  0  0  0  0  0  0  0  0  0  0  0
   35.5980   26.0040   31.8610 O   0  0  0  0  0  0  0  0  0  0  0  0
   37.5150   26.9190   32.6810 N   0  0  0  0  0  0  0  0  0  0  0  0
   38.4620   26.7710   33.0480 H   0  0  0  0  0  0  0  0  0  0  0  0
   38.0050   24.0770   33.4840 C   0  0  0  0  0  0  0  0  0  0  0  0
   37.2180   24.4000   32.3940 C   0  0  0  0  0  0  0  0  0  0  0  0
   36.8690   23.4800   31.4270 C   0  0  0  0  0  0  0  0  0  0  0  0
   37.3180   22.1770   31.5390 C   0  0  0  0  0  0  0  0  0  0  0  0
   37.1360   21.0940   30.7590 N   0  0  0  0  0  0  0  0  0  0  0  0
   37.8040   20.0870   31.3510 C   0  0  0  0  0  0  0  0  0  0  0  0
   38.3920   20.5310   32.4770 N   0  0  0  0  0  0  0  0  0  0  0  0
   38.1000   21.8520   32.6220 C   0  0  0  0  0  0  0  0  0  0  0  0
   38.4520   22.7620   33.5880 C   0  0  0  0  0  0  0  0  0  0  0  0
   38.2610   24.8110   34.2200 H   0  0  0  0  0  0  0  0  0  0  0  0
   36.2480   23.7840   30.5880 H   0  0  0  0  0  0  0  0  0  0  0  0
   36.5890   21.0180   29.8650 H   0  0  0  0  0  0  0  0  0  0  0  0
   37.9180   19.0540   31.0580 H   0  0  0  0  0  0  0  0  0  0  0  0
   39.2830   22.4050   34.7330 C   0  0  0  0  0  0  0  0  0  0  0  0
   40.6540   22.2750   34.7500 C   0  0  0  0  0  0  0  0  0  0  0  0
   41.3530   22.4130   33.9270 H   0  0  0  0  0  0  0  0  0  0  0  0
   40.9500   21.9220   36.0700 C   0  0  0  0  0  0  0  0  0  0  0  0
   41.9620   21.7460   36.4130 H   0  0  0  0  0  0  0  0  0  0  0  0
   39.7910   21.8510   36.7890 N   0  0  0  0  0  0  0  0  0  0  0  0
   39.8460   21.5970   37.8030 H   0  0  0  0  0  0  0  0  0  0  0  0
   38.7910   22.1480   35.9570 N   0  0  0  0  0  0  0  0  0  0  0  0
   36.3140   28.1810   34.7800 F   0  0  0  0  0  0  0  0  0  0  0  0
   36.2300   28.7820   33.5640 C   0  0  0  0  0  0  0  0  0  0  0  0
   35.5590   29.9700   33.4480 C   0  0  0  0  0  0  0  0  0  0  0  0
   35.5120   30.5210   32.1950 C   0  0  0  0  0  0  0  0  0  0  0  0
   36.0940   29.9420   31.0890 C   0  0  0  0  0  0  0  0  0  0  0  0
   36.7610   28.7430   31.2500 C   0  0  0  0  0  0  0  0  0  0  0  0
   36.8310   28.1580   32.4890 C   0  0  0  0  0  0  0  0  0  0  0  0
   34.9860   31.4670   32.0710 H   0  0  0  0  0  0  0  0  0  0  0  0
   36.0020   30.4540   30.1400 H   0  0  0  0  0  0  0  0  0  0  0  0
   37.2130   28.2980   30.3750 H   0  0  0  0  0  0  0  0  0  0  0  0
   35.0410   31.8890   36.6560 C   0  0  0  0  0  0  0  0  0  0  0  0
   35.6510   31.3420   35.5150 C   0  0  0  0  0  0  0  0  0  0  0  0
   34.9580   30.5510   34.6410 C   0  0  0  0  0  0  0  0  0  0  0  0
   33.6390   30.3170   34.9300 N   0  0  0  0  0  0  0  0  0  0  0  0
   33.0510   30.8360   36.0180 C   0  0  0  0  0  0  0  0  0  0  0  0
   33.7350   31.6040   36.8620 N   0  0  0  0  0  0  0  0  0  0  0  0
   35.6110   32.5140   37.3370 H   0  0  0  0  0  0  0  0  0  0  0  0
   36.7070   31.5630   35.3350 H   0  0  0  0  0  0  0  0  0  0  0  0
   32.0060   30.6460   36.2410 H   0  0  0  0  0  0  0  0  0  0  0  0
  1  6  1  0  0  0  0
  1  3  1  0  0  0  0
  2  1  2  0  0  0  0
  3  4  1  0  0  0  0
  5 13  1  0  0  0  0
  5 14  1  0  0  0  0
  6  5  2  0  0  0  0
  7  8  2  0  0  0  0
  7  6  1  0  0  0  0
  8 12  1  0  0  0  0
  9 10  1  0  0  0  0
  9  8  1  0  0  0  0
 10 11  2  0  0  0  0
 11 12  1  0  0  0  0
 12 13  2  0  0  0  0
 13 18  1  0  0  0  0
 15  7  1  0  0  0  0
 16  9  1  0  0  0  0
 17 10  1  0  0  0  0
 18 19  1  0  0  0  0
 18 25  2  0  0  0  0
 19 21  2  0  0  0  0
 20 19  1  0  0  0  0
 21 22  1  0  0  0  0
 21 23  1  0  0  0  0
 23 24  1  0  0  0  0
 25 23  1  0  0  0  0
 27 26  1  0  0  0  0
 28 27  1  0  0  0  0
 28 38  1  0  0  0  0
 29 28  2  0  0  0  0
 30 31  2  0  0  0  0
 30 29  1  0  0  0  0
 31 32  1  0  0  0  0
 32  3  1  0  0  0  0
 32 27  2  0  0  0  0
 33 29  1  0  0  0  0
 34 30  1  0  0  0  0
 35 31  1  0  0  0  0
 36 41  1  0  0  0  0
 36 42  1  0  0  0  0
 37 36  2  0  0  0  0
 38 39  2  0  0  0  0
 38 37  1  0  0  0  0
 39 40  1  0  0  0  0
 40 44  1  0  0  0  0
 40 41  2  0  0  0  0
 43 37  1  0  0  0  0
M  END
>  <minimizedAffinity>
-6.47335434

$$$$

 OpenBabel03272503113D

 44 48  0  0  0  0  0  0  0  0999 V2000
   37.0780   27.4140   32.9650 C   0  0  0  0  0  0  0  0  0  0  0  0
   37.8550   27.1390   31.9940 O   0  0  0  0  0  0  0  0  0  0  0  0
   37.0750   26.4670   34.0240 N   0  0  0  0  0  0  0  0  0  0  0  0
   36.4620   26.6530   34.8270 H   0  0  0  0  0  0  0  0  0  0  0  0
   35.9380   29.1880   34.1200 C   0  0  0  0  0  0  0  0  0  0  0  0
   36.2920   28.6240   32.9080 C   0  0  0  0  0  0  0  0  0  0  0  0
   35.9250   29.1700   31.6950 C   0  0  0  0  0  0  0  0  0  0  0  0
   35.1720   30.3310   31.6750 C   0  0  0  0  0  0  0  0  0  0  0  0
   34.6840   31.0670   30.6590 N   0  0  0  0  0  0  0  0  0  0  0  0
   34.0220   32.0940   31.2220 C   0  0  0  0  0  0  0  0  0  0  0  0
   34.0960   32.0030   32.5630 N   0  0  0  0  0  0  0  0  0  0  0  0
   34.8190   30.8940   32.8790 C   0  0  0  0  0  0  0  0  0  0  0  0
   35.1800   30.3560   34.0890 C   0  0  0  0  0  0  0  0  0  0  0  0
   36.2360   28.7420   35.0470 H   0  0  0  0  0  0  0  0  0  0  0  0
   36.2290   28.6890   30.7690 H   0  0  0  0  0  0  0  0  0  0  0  0
   34.7820   30.9010   29.6270 H   0  0  0  0  0  0  0  0  0  0  0  0
   33.4850   32.9150   30.7700 H   0  0  0  0  0  0  0  0  0  0  0  0
   34.7980   30.9630   35.3600 C   0  0  0  0  0  0  0  0  0  0  0  0
   33.5400   30.9880   35.9190 C   0  0  0  0  0  0  0  0  0  0  0  0
   32.6200   30.5660   35.5220 H   0  0  0  0  0  0  0  0  0  0  0  0
   33.7110   31.6820   37.1200 C   0  0  0  0  0  0  0  0  0  0  0  0
   32.8930   31.8730   37.8040 H   0  0  0  0  0  0  0  0  0  0  0  0
   35.0210   32.0460   37.2500 N   0  0  0  0  0  0  0  0  0  0  0  0
   35.3110   32.5770   38.1040 H   0  0  0  0  0  0  0  0  0  0  0  0
   35.6640   31.5990   36.1690 N   0  0  0  0  0  0  0  0  0  0  0  0
   39.5390   26.4040   35.1930 F   0  0  0  0  0  0  0  0  0  0  0  0
   39.1890   25.3390   34.4250 C   0  0  0  0  0  0  0  0  0  0  0  0
   40.0700   24.3030   34.2750 C   0  0  0  0  0  0  0  0  0  0  0  0
   39.6550   23.2610   33.4880 C   0  0  0  0  0  0  0  0  0  0  0  0
   38.4270   23.2220   32.8650 C   0  0  0  0  0  0  0  0  0  0  0  0
   37.5670   24.2890   33.0430 C   0  0  0  0  0  0  0  0  0  0  0  0
   37.9450   25.3520   33.8250 C   0  0  0  0  0  0  0  0  0  0  0  0
   40.3350   22.4210   33.3500 H   0  0  0  0  0  0  0  0  0  0  0  0
   38.1890   22.3560   32.2630 H   0  0  0  0  0  0  0  0  0  0  0  0
   36.6070   24.2480   32.5510 H   0  0  0  0  0  0  0  0  0  0  0  0
   42.9980   23.5960   36.5490 C   0  0  0  0  0  0  0  0  0  0  0  0
   41.7460   23.4960   35.9190 C   0  0  0  0  0  0  0  0  0  0  0  0
   41.3590   24.3790   34.9490 C   0  0  0  0  0  0  0  0  0  0  0  0
   42.2500   25.3670   34.6200 N   0  0  0  0  0  0  0  0  0  0  0  0
   43.4460   25.4680   35.2190 C   0  0  0  0  0  0  0  0  0  0  0  0
   43.8130   24.6040   36.1610 N   0  0  0  0  0  0  0  0  0  0  0  0
   43.2840   22.8840   37.3180 H   0  0  0  0  0  0  0  0  0  0  0  0
   41.0760   22.6860   36.2220 H   0  0  0  0  0  0  0  0  0  0  0  0
   44.1470   26.2540   34.9530 H   0  0  0  0  0  0  0  0  0  0  0  0
  1  3  1  0  0  0  0
  2  1  2  0  0  0  0
  3  4  1  0  0  0  0
  5 14  1  0  0  0  0
  6  1  1  0  0  0  0
  6  5  2  0  0  0  0
  7  6  1  0  0  0  0
  8  7  2  0  0  0  0
  8 12  1  0  0  0  0
  9 10  1  0  0  0  0
  9  8  1  0  0  0  0
 10 11  2  0  0  0  0
 11 12  1  0  0  0  0
 12 13  2  0  0  0  0
 13  5  1  0  0  0  0
 13 18  1  0  0  0  0
 15  7  1  0  0  0  0
 16  9  1  0  0  0  0
 17 10  1  0  0  0  0
 18 19  1  0  0  0  0
 18 25  2  0  0  0  0
 19 21  2  0  0  0  0
 20 19  1  0  0  0  0
 21 23  1  0  0  0  0
 21 22  1  0  0  0  0
 23 24  1  0  0  0  0
 25 23  1  0  0  0  0
 27 26  1  0  0  0  0
 28 27  1  0  0  0  0
 28 38  1  0  0  0  0
 29 28  2  0  0  0  0
 30 31  2  0  0  0  0
 30 29  1  0  0  0  0
 31 32  1  0  0  0  0
 32  3  1  0  0  0  0
 32 27  2  0  0  0  0
 33 29  1  0  0  0  0
 34 30  1  0  0  0  0
 35 31  1  0  0  0  0
 36 42  1  0  0  0  0
 37 43  1  0  0  0  0
 37 36  2  0  0  0  0
 38 37  1  0  0  0  0
 39 38  2  0  0  0  0
 39 40  1  0  0  0  0
 40 41  2  0  0  0  0
 41 36  1  0  0  0  0
 44 40  1  0  0  0  0
M  END
>  <minimizedAffinity>
-6.47143078

$$$$

 OpenBabel03272503113D

 44 48  0  0  0  0  0  0  0  0999 V2000
   37.3590   26.6380   34.3460 C   0  0  0  0  0  0  0  0  0  0  0  0
   37.3680   25.6110   33.5930 O   0  0  0  0  0  0  0  0  0  0  0  0
   37.9590   26.4590   35.6210 N   0  0  0  0  0  0  0  0  0  0  0  0
   37.9740   27.2660   36.2570 H   0  0  0  0  0  0  0  0  0  0  0  0
   36.2710   28.7310   34.8060 C   0  0  0  0  0  0  0  0  0  0  0  0
   36.7610   27.8560   33.8540 C   0  0  0  0  0  0  0  0  0  0  0  0
   36.6910   28.1120   32.5000 C   0  0  0  0  0  0  0  0  0  0  0  0
   36.1110   29.2890   32.0620 C   0  0  0  0  0  0  0  0  0  0  0  0
   35.9120   29.7870   30.8270 N   0  0  0  0  0  0  0  0  0  0  0  0
   35.2990   30.9730   30.9930 C   0  0  0  0  0  0  0  0  0  0  0  0
   35.1180   31.2120   32.3050 N   0  0  0  0  0  0  0  0  0  0  0  0
   35.6230   30.1610   33.0060 C   0  0  0  0  0  0  0  0  0  0  0  0
   35.6880   29.9130   34.3560 C   0  0  0  0  0  0  0  0  0  0  0  0
   36.3370   28.5070   35.8510 H   0  0  0  0  0  0  0  0  0  0  0  0
   37.0910   27.3930   31.7910 H   0  0  0  0  0  0  0  0  0  0  0  0
   36.1710   29.3620   29.9020 H   0  0  0  0  0  0  0  0  0  0  0  0
   34.9620   31.6970   30.2650 H   0  0  0  0  0  0  0  0  0  0  0  0
   35.1660   30.8470   35.3480 C   0  0  0  0  0  0  0  0  0  0  0  0
   33.8420   31.0900   35.6380 C   0  0  0  0  0  0  0  0  0  0  0  0
   32.9610   30.6370   35.1880 H   0  0  0  0  0  0  0  0  0  0  0  0
   33.8820   32.0560   36.6470 C   0  0  0  0  0  0  0  0  0  0  0  0
   32.9870   32.4640   37.1000 H   0  0  0  0  0  0  0  0  0  0  0  0
   35.1830   32.3610   36.9300 N   0  0  0  0  0  0  0  0  0  0  0  0
   35.3820   33.0730   37.6700 H   0  0  0  0  0  0  0  0  0  0  0  0
   35.9470   31.6140   36.1280 N   0  0  0  0  0  0  0  0  0  0  0  0
   40.5420   25.8470   34.9880 F   0  0  0  0  0  0  0  0  0  0  0  0
   39.7840   24.8570   35.5280 C   0  0  0  0  0  0  0  0  0  0  0  0
   40.3370   23.6210   35.7260 C   0  0  0  0  0  0  0  0  0  0  0  0
   39.5180   22.6690   36.2740 C   0  0  0  0  0  0  0  0  0  0  0  0
   38.2050   22.9040   36.6180 C   0  0  0  0  0  0  0  0  0  0  0  0
   37.6860   24.1650   36.4010 C   0  0  0  0  0  0  0  0  0  0  0  0
   38.4730   25.1470   35.8550 C   0  0  0  0  0  0  0  0  0  0  0  0
   39.9310   21.6750   36.4440 H   0  0  0  0  0  0  0  0  0  0  0  0
   37.6370   22.0870   37.0450 H   0  0  0  0  0  0  0  0  0  0  0  0
   36.6550   24.3380   36.6750 H   0  0  0  0  0  0  0  0  0  0  0  0
   44.0870   23.2200   35.8580 C   0  0  0  0  0  0  0  0  0  0  0  0
   42.7550   23.4280   36.2530 C   0  0  0  0  0  0  0  0  0  0  0  0
   41.7280   23.4110   35.3500 C   0  0  0  0  0  0  0  0  0  0  0  0
   42.0590   23.1810   34.0400 N   0  0  0  0  0  0  0  0  0  0  0  0
   43.3300   22.9830   33.6570 C   0  0  0  0  0  0  0  0  0  0  0  0
   44.3210   23.0010   34.5450 N   0  0  0  0  0  0  0  0  0  0  0  0
   44.8870   23.2380   36.5930 H   0  0  0  0  0  0  0  0  0  0  0  0
   42.5500   23.6060   37.3130 H   0  0  0  0  0  0  0  0  0  0  0  0
   43.5850   22.8020   32.6180 H   0  0  0  0  0  0  0  0  0  0  0  0
  1  3  1  0  0  0  0
  2  1  2  0  0  0  0
  3 32  1  0  0  0  0
  3  4  1  0  0  0  0
  5 14  1  0  0  0  0
  6  1  1  0  0  0  0
  6  5  2  0  0  0  0
  7  6  1  0  0  0  0
  8  7  2  0  0  0  0
  8 12  1  0  0  0  0
  9 10  1  0  0  0  0
  9  8  1  0  0  0  0
 10 11  2  0  0  0  0
 11 12  1  0  0  0  0
 12 13  2  0  0  0  0
 13  5  1  0  0  0  0
 13 18  1  0  0  0  0
 15  7  1  0  0  0  0
 16  9  1  0  0  0  0
 17 10  1  0  0  0  0
 18 19  1  0  0  0  0
 18 25  2  0  0  0  0
 19 21  2  0  0  0  0
 20 19  1  0  0  0  0
 21 23  1  0  0  0  0
 21 22  1  0  0  0  0
 23 24  1  0  0  0  0
 25 23  1  0  0  0  0
 26 27  1  0  0  0  0
 27 28  2  0  0  0  0
 27 32  1  0  0  0  0
 28 29  1  0  0  0  0
 29 33  1  0  0  0  0
 29 30  2  0  0  0  0
 30 34  1  0  0  0  0
 31 30  1  0  0  0  0
 31 35  1  0  0  0  0
 32 31  2  0  0  0  0
 36 37  1  0  0  0  0
 36 42  1  0  0  0  0
 37 43  1  0  0  0  0
 38 28  1  0  0  0  0
 38 37  2  0  0  0  0
 39 38  1  0  0  0  0
 40 39  2  0  0  0  0
 40 41  1  0  0  0  0
 41 36  2  0  0  0  0
 44 40  1  0  0  0  0
M  END
>  <minimizedAffinity>
-6.46719503

$$$$

 OpenBabel03272503113D

 44 48  0  0  0  0  0  0  0  0999 V2000
   37.0160   25.7630   32.2650 C   0  0  0  0  0  0  0  0  0  0  0  0
   35.8260   25.8870   31.8270 O   0  0  0  0  0  0  0  0  0  0  0  0
   37.6590   26.9780   32.6210 N   0  0  0  0  0  0  0  0  0  0  0  0
   38.6200   26.9200   32.9790 H   0  0  0  0  0  0  0  0  0  0  0  0
   36.7340   23.3800   32.1270 C   0  0  0  0  0  0  0  0  0  0  0  0
   37.5890   24.4410   32.3580 C   0  0  0  0  0  0  0  0  0  0  0  0
   38.9240   24.2710   32.6630 C   0  0  0  0  0  0  0  0  0  0  0  0
   39.4420   22.9910   32.7440 C   0  0  0  0  0  0  0  0  0  0  0  0
   40.6800   22.5390   33.0190 N   0  0  0  0  0  0  0  0  0  0  0  0
   40.6130   21.1960   32.9630 C   0  0  0  0  0  0  0  0  0  0  0  0
   39.3580   20.8160   32.6600 N   0  0  0  0  0  0  0  0  0  0  0  0
   38.5940   21.9330   32.5160 C   0  0  0  0  0  0  0  0  0  0  0  0
   37.2650   22.0950   32.2110 C   0  0  0  0  0  0  0  0  0  0  0  0
   35.7020   23.5410   31.8920 H   0  0  0  0  0  0  0  0  0  0  0  0
   39.5560   25.1380   32.8350 H   0  0  0  0  0  0  0  0  0  0  0  0
   41.5450   23.0940   33.2360 H   0  0  0  0  0  0  0  0  0  0  0  0
   41.3760   20.4480   33.1180 H   0  0  0  0  0  0  0  0  0  0  0  0
   36.3750   20.9640   31.9710 C   0  0  0  0  0  0  0  0  0  0  0  0
   35.2940   20.5840   32.7360 C   0  0  0  0  0  0  0  0  0  0  0  0
   34.9160   21.0520   33.6430 H   0  0  0  0  0  0  0  0  0  0  0  0
   34.7900   19.4560   32.0840 C   0  0  0  0  0  0  0  0  0  0  0  0
   33.9240   18.9140   32.4440 H   0  0  0  0  0  0  0  0  0  0  0  0
   35.5510   19.1920   30.9820 N   0  0  0  0  0  0  0  0  0  0  0  0
   35.2990   18.3720   30.3830 H   0  0  0  0  0  0  0  0  0  0  0  0
   36.5090   20.1210   30.9320 N   0  0  0  0  0  0  0  0  0  0  0  0
   36.4870   28.2300   34.7420 F   0  0  0  0  0  0  0  0  0  0  0  0
   36.2790   28.7690   33.5120 C   0  0  0  0  0  0  0  0  0  0  0  0
   35.5070   29.8920   33.3940 C   0  0  0  0  0  0  0  0  0  0  0  0
   35.3380   30.3820   32.1260 C   0  0  0  0  0  0  0  0  0  0  0  0
   35.8980   29.8050   31.0070 C   0  0  0  0  0  0  0  0  0  0  0  0
   36.6710   28.6720   31.1710 C   0  0  0  0  0  0  0  0  0  0  0  0
   36.8650   28.1490   32.4250 C   0  0  0  0  0  0  0  0  0  0  0  0
   34.7280   31.2770   32.0000 H   0  0  0  0  0  0  0  0  0  0  0  0
   35.7070   30.2660   30.0470 H   0  0  0  0  0  0  0  0  0  0  0  0
   37.1050   28.2280   30.2880 H   0  0  0  0  0  0  0  0  0  0  0  0
   35.0530   31.8370   36.5950 C   0  0  0  0  0  0  0  0  0  0  0  0
   35.6370   31.2890   35.4410 C   0  0  0  0  0  0  0  0  0  0  0  0
   34.9320   30.4750   34.5980 C   0  0  0  0  0  0  0  0  0  0  0  0
   33.6290   30.2160   34.9330 N   0  0  0  0  0  0  0  0  0  0  0  0
   33.0660   30.7360   36.0340 C   0  0  0  0  0  0  0  0  0  0  0  0
   33.7600   31.5280   36.8480 N   0  0  0  0  0  0  0  0  0  0  0  0
   35.6310   32.4810   37.2510 H   0  0  0  0  0  0  0  0  0  0  0  0
   36.6820   31.5300   35.2240 H   0  0  0  0  0  0  0  0  0  0  0  0
   32.0330   30.5270   36.2930 H   0  0  0  0  0  0  0  0  0  0  0  0
  1  6  1  0  0  0  0
  1  3  1  0  0  0  0
  2  1  2  0  0  0  0
  3  4  1  0  0  0  0
  5 13  2  0  0  0  0
  5  6  1  0  0  0  0
  6  7  2  0  0  0  0
  7  8  1  0  0  0  0
  7 15  1  0  0  0  0
  8  9  1  0  0  0  0
  9 16  1  0  0  0  0
 10  9  1  0  0  0  0
 10 17  1  0  0  0  0
 11 10  2  0  0  0  0
 12 11  1  0  0  0  0
 12  8  2  0  0  0  0
 13 12  1  0  0  0  0
 14  5  1  0  0  0  0
 18 13  1  0  0  0  0
 18 19  1  0  0  0  0
 19 20  1  0  0  0  0
 21 22  1  0  0  0  0
 21 19  2  0  0  0  0
 23 21  1  0  0  0  0
 24 23  1  0  0  0  0
 25 23  1  0  0  0  0
 25 18  2  0  0  0  0
 27 26  1  0  0  0  0
 28 27  1  0  0  0  0
 28 38  1  0  0  0  0
 29 28  2  0  0  0  0
 30 31  2  0  0  0  0
 30 29  1  0  0  0  0
 31 32  1  0  0  0  0
 32  3  1  0  0  0  0
 32 27  2  0  0  0  0
 33 29  1  0  0  0  0
 34 30  1  0  0  0  0
 35 31  1  0  0  0  0
 36 41  1  0  0  0  0
 36 42  1  0  0  0  0
 37 36  2  0  0  0  0
 38 39  2  0  0  0  0
 38 37  1  0  0  0  0
 39 40  1  0  0  0  0
 40 44  1  0  0  0  0
 40 41  2  0  0  0  0
 43 37  1  0  0  0  0
M  END
>  <minimizedAffinity>
-6.28303242

$$$$

 OpenBabel03272503113D

 44 48  0  0  0  0  0  0  0  0999 V2000
   36.0690   28.7580   34.1100 C   0  0  0  0  0  0  0  0  0  0  0  0
   36.9330   28.9970   35.0150 O   0  0  0  0  0  0  0  0  0  0  0  0
   36.3940   27.6910   33.2300 N   0  0  0  0  0  0  0  0  0  0  0  0
   35.7210   27.4650   32.4880 H   0  0  0  0  0  0  0  0  0  0  0  0
   34.8070   30.6280   34.9400 C   0  0  0  0  0  0  0  0  0  0  0  0
   34.8730   29.5650   34.0580 C   0  0  0  0  0  0  0  0  0  0  0  0
   33.8610   29.2700   33.1680 C   0  0  0  0  0  0  0  0  0  0  0  0
   32.7280   30.0640   33.1440 C   0  0  0  0  0  0  0  0  0  0  0  0
   31.6090   30.0100   32.3960 N   0  0  0  0  0  0  0  0  0  0  0  0
   30.8360   31.0340   32.8000 C   0  0  0  0  0  0  0  0  0  0  0  0
   31.4580   31.7150   33.7800 N   0  0  0  0  0  0  0  0  0  0  0  0
   32.6600   31.1220   34.0190 C   0  0  0  0  0  0  0  0  0  0  0  0
   33.6630   31.4210   34.9080 C   0  0  0  0  0  0  0  0  0  0  0  0
   35.6080   30.8340   35.6210 H   0  0  0  0  0  0  0  0  0  0  0  0
   33.9600   28.4230   32.4950 H   0  0  0  0  0  0  0  0  0  0  0  0
   31.3600   29.3220   31.6430 H   0  0  0  0  0  0  0  0  0  0  0  0
   29.8600   31.3520   32.4630 H   0  0  0  0  0  0  0  0  0  0  0  0
   33.5780   32.5470   35.8320 C   0  0  0  0  0  0  0  0  0  0  0  0
   33.3170   32.4900   37.1840 C   0  0  0  0  0  0  0  0  0  0  0  0
   33.1310   31.6100   37.7950 H   0  0  0  0  0  0  0  0  0  0  0  0
   33.3450   33.8250   37.5960 C   0  0  0  0  0  0  0  0  0  0  0  0
   33.1750   34.1210   38.6230 H   0  0  0  0  0  0  0  0  0  0  0  0
   33.6120   34.6250   36.5210 N   0  0  0  0  0  0  0  0  0  0  0  0
   33.6670   35.6600   36.6680 H   0  0  0  0  0  0  0  0  0  0  0  0
   33.7500   33.8270   35.4600 N   0  0  0  0  0  0  0  0  0  0  0  0
   36.6580   25.9840   35.3420 F   0  0  0  0  0  0  0  0  0  0  0  0
   37.7600   26.1980   34.5760 C   0  0  0  0  0  0  0  0  0  0  0  0
   38.9300   25.5620   34.8910 C   0  0  0  0  0  0  0  0  0  0  0  0
   40.0010   25.8230   34.0780 C   0  0  0  0  0  0  0  0  0  0  0  0
   39.9440   26.6720   32.9950 C   0  0  0  0  0  0  0  0  0  0  0  0
   38.7440   27.2940   32.7120 C   0  0  0  0  0  0  0  0  0  0  0  0
   37.6460   27.0600   33.5020 C   0  0  0  0  0  0  0  0  0  0  0  0
   40.9470   25.3300   34.3030 H   0  0  0  0  0  0  0  0  0  0  0  0
   40.8450   26.8140   32.4120 H   0  0  0  0  0  0  0  0  0  0  0  0
   38.7100   27.9580   31.8610 H   0  0  0  0  0  0  0  0  0  0  0  0
   39.7570   22.7300   37.2440 C   0  0  0  0  0  0  0  0  0  0  0  0
   39.7580   23.5690   36.1170 C   0  0  0  0  0  0  0  0  0  0  0  0
   38.9520   24.6710   36.0430 C   0  0  0  0  0  0  0  0  0  0  0  0
   38.1410   24.9190   37.1200 N   0  0  0  0  0  0  0  0  0  0  0  0
   38.1350   24.1210   38.1980 C   0  0  0  0  0  0  0  0  0  0  0  0
   38.9240   23.0510   38.2600 N   0  0  0  0  0  0  0  0  0  0  0  0
   40.4060   21.8590   37.2810 H   0  0  0  0  0  0  0  0  0  0  0  0
   40.4270   23.3220   35.2870 H   0  0  0  0  0  0  0  0  0  0  0  0
   37.4900   24.3230   39.0470 H   0  0  0  0  0  0  0  0  0  0  0  0
  1  2  2  0  0  0  0
  3 32  1  0  0  0  0
  3  1  1  0  0  0  0
  4  3  1  0  0  0  0
  5 14  1  0  0  0  0
  6  1  1  0  0  0  0
  6  5  2  0  0  0  0
  7  6  1  0  0  0  0
  8  7  2  0  0  0  0
  8 12  1  0  0  0  0
  9 10  1  0  0  0  0
  9  8  1  0  0  0  0
 10 11  2  0  0  0  0
 11 12  1  0  0  0  0
 12 13  2  0  0  0  0
 13  5  1  0  0  0  0
 13 18  1  0  0  0  0
 15  7  1  0  0  0  0
 16  9  1  0  0  0  0
 17 10  1  0  0  0  0
 18 19  1  0  0  0  0
 19 21  2  0  0  0  0
 19 20  1  0  0  0  0
 21 22  1  0  0  0  0
 23 24  1  0  0  0  0
 23 21  1  0  0  0  0
 25 18  2  0  0  0  0
 25 23  1  0  0  0  0
 27 28  1  0  0  0  0
 27 26  1  0  0  0  0
 28 38  1  0  0  0  0
 29 33  1  0  0  0  0
 29 28  2  0  0  0  0
 30 29  1  0  0  0  0
 31 30  2  0  0  0  0
 31 32  1  0  0  0  0
 32 27  2  0  0  0  0
 34 30  1  0  0  0  0
 35 31  1  0  0  0  0
 36 42  1  0  0  0  0
 36 41  1  0  0  0  0
 37 36  2  0  0  0  0
 38 37  1  0  0  0  0
 38 39  2  0  0  0  0
 39 40  1  0  0  0  0
 40 41  2  0  0  0  0
 40 44  1  0  0  0  0
 43 37  1  0  0  0  0
M  END
>  <minimizedAffinity>
-6.20854378

$$$$

 OpenBabel03272503113D

 44 48  0  0  0  0  0  0  0  0999 V2000
   36.8990   27.4560   34.0920 C   0  0  0  0  0  0  0  0  0  0  0  0
   37.3210   28.2850   34.9630 O   0  0  0  0  0  0  0  0  0  0  0  0
   35.9910   27.9900   33.1390 N   0  0  0  0  0  0  0  0  0  0  0  0
   35.6300   27.3530   32.4190 H   0  0  0  0  0  0  0  0  0  0  0  0
   37.7490   25.6200   35.3900 C   0  0  0  0  0  0  0  0  0  0  0  0
   37.3650   26.0910   34.1480 C   0  0  0  0  0  0  0  0  0  0  0  0
   37.4170   25.3160   33.0080 C   0  0  0  0  0  0  0  0  0  0  0  0
   37.8690   24.0120   33.0960 C   0  0  0  0  0  0  0  0  0  0  0  0
   38.0210   23.0500   32.1660 N   0  0  0  0  0  0  0  0  0  0  0  0
   38.5000   21.9720   32.8140 C   0  0  0  0  0  0  0  0  0  0  0  0
   38.6440   22.2540   34.1220 N   0  0  0  0  0  0  0  0  0  0  0  0
   38.2510   23.5400   34.3290 C   0  0  0  0  0  0  0  0  0  0  0  0
   38.2020   24.3060   35.4690 C   0  0  0  0  0  0  0  0  0  0  0  0
   37.6990   26.2440   36.2590 H   0  0  0  0  0  0  0  0  0  0  0  0
   37.1040   25.7320   32.0540 H   0  0  0  0  0  0  0  0  0  0  0  0
   37.8170   23.0980   31.1370 H   0  0  0  0  0  0  0  0  0  0  0  0
   38.7610   20.9900   32.4460 H   0  0  0  0  0  0  0  0  0  0  0  0
   38.6110   23.7940   36.7720 C   0  0  0  0  0  0  0  0  0  0  0  0
   38.0230   24.0630   37.9880 C   0  0  0  0  0  0  0  0  0  0  0  0
   37.1620   24.6950   38.1920 H   0  0  0  0  0  0  0  0  0  0  0  0
   38.7860   23.3380   38.9080 C   0  0  0  0  0  0  0  0  0  0  0  0
   38.5750   23.3400   39.9700 H   0  0  0  0  0  0  0  0  0  0  0  0
   39.7800   22.6740   38.2470 N   0  0  0  0  0  0  0  0  0  0  0  0
   40.4410   22.0810   38.8010 H   0  0  0  0  0  0  0  0  0  0  0  0
   39.6550   22.9650   36.9500 N   0  0  0  0  0  0  0  0  0  0  0  0
   36.7490   29.8210   31.2640 F   0  0  0  0  0  0  0  0  0  0  0  0
   36.0850   30.2880   32.3540 C   0  0  0  0  0  0  0  0  0  0  0  0
   35.8320   31.6280   32.4620 C   0  0  0  0  0  0  0  0  0  0  0  0
   35.1590   32.0310   33.5860 C   0  0  0  0  0  0  0  0  0  0  0  0
   34.7450   31.1660   34.5740 C   0  0  0  0  0  0  0  0  0  0  0  0
   35.0220   29.8200   34.4260 C   0  0  0  0  0  0  0  0  0  0  0  0
   35.6930   29.3760   33.3150 C   0  0  0  0  0  0  0  0  0  0  0  0
   34.9420   33.0930   33.6990 H   0  0  0  0  0  0  0  0  0  0  0  0
   34.2200   31.5790   35.4250 H   0  0  0  0  0  0  0  0  0  0  0  0
   34.6920   29.1510   35.2070 H   0  0  0  0  0  0  0  0  0  0  0  0
   36.0400   33.5740   29.2360 C   0  0  0  0  0  0  0  0  0  0  0  0
   35.5760   32.7130   30.2440 C   0  0  0  0  0  0  0  0  0  0  0  0
   36.2840   32.5120   31.3970 C   0  0  0  0  0  0  0  0  0  0  0  0
   37.4690   33.1900   31.5220 N   0  0  0  0  0  0  0  0  0  0  0  0
   37.9170   34.0130   30.5620 C   0  0  0  0  0  0  0  0  0  0  0  0
   37.2200   34.2020   29.4440 N   0  0  0  0  0  0  0  0  0  0  0  0
   35.4610   33.7190   28.3280 H   0  0  0  0  0  0  0  0  0  0  0  0
   34.6230   32.1990   30.0890 H   0  0  0  0  0  0  0  0  0  0  0  0
   38.8560   34.5460   30.6680 H   0  0  0  0  0  0  0  0  0  0  0  0
  1  6  1  0  0  0  0
  1  2  2  0  0  0  0
  3 32  1  0  0  0  0
  3  1  1  0  0  0  0
  4  3  1  0  0  0  0
  5 13  1  0  0  0  0
  5 14  1  0  0  0  0
  6  5  2  0  0  0  0
  7  8  2  0  0  0  0
  7  6  1  0  0  0  0
  8 12  1  0  0  0  0
  9 10  1  0  0  0  0
  9  8  1  0  0  0  0
 10 11  2  0  0  0  0
 11 12  1  0  0  0  0
 12 13  2  0  0  0  0
 13 18  1  0  0  0  0
 15  7  1  0  0  0  0
 16  9  1  0  0  0  0
 17 10  1  0  0  0  0
 18 25  2  0  0  0  0
 18 19  1  0  0  0  0
 19 20  1  0  0  0  0
 19 21  2  0  0  0  0
 21 22  1  0  0  0  0
 23 24  1  0  0  0  0
 23 21  1  0  0  0  0
 25 23  1  0  0  0  0
 26 27  1  0  0  0  0
 27 28  2  0  0  0  0
 27 32  1  0  0  0  0
 28 29  1  0  0  0  0
 29 33  1  0  0  0  0
 29 30  2  0  0  0  0
 30 34  1  0  0  0  0
 31 30  1  0  0  0  0
 31 35  1  0  0  0  0
 32 31  2  0  0  0  0
 36 41  2  0  0  0  0
 36 37  1  0  0  0  0
 37 38  2  0  0  0  0
 38 39  1  0  0  0  0
 38 28  1  0  0  0  0
 40 44  1  0  0  0  0
 40 39  2  0  0  0  0
 41 40  1  0  0  0  0
 42 36  1  0  0  0  0
 43 37  1  0  0  0  0
M  END
>  <minimizedAffinity>
-6.19122362

$$$$
