
 OpenBabel03272508353D

 30 32  0  0  0  0  0  0  0  0999 V2000
   37.4100   21.8860   35.1080 C   0  0  0  0  0  0  0  0  0  0  0  0
   36.2840   21.1090   35.1980 C   0  0  0  0  0  0  0  0  0  0  0  0
   35.8620   20.7790   33.9160 C   0  0  0  0  0  0  0  0  0  0  0  0
   36.7540   21.3720   33.0870 N   0  0  0  0  0  0  0  0  0  0  0  0
   37.6810   22.0340   33.7930 N   0  0  0  0  0  0  0  0  0  0  0  0
   35.7350   20.7550   36.0850 H   0  0  0  0  0  0  0  0  0  0  0  0
   35.0030   20.1770   33.6500 H   0  0  0  0  0  0  0  0  0  0  0  0
   38.2260   23.5990   38.3660 C   0  0  0  0  0  0  0  0  0  0  0  0
   37.4800   23.1460   37.2870 C   0  0  0  0  0  0  0  0  0  0  0  0
   38.1040   22.4010   36.2730 C   0  0  0  0  0  0  0  0  0  0  0  0
   39.4390   22.1650   36.4180 N   0  0  0  0  0  0  0  0  0  0  0  0
   40.1410   22.6190   37.4830 C   0  0  0  0  0  0  0  0  0  0  0  0
   39.5290   23.3270   38.4370 N   0  0  0  0  0  0  0  0  0  0  0  0
   37.6460   24.1620   39.0850 H   0  0  0  0  0  0  0  0  0  0  0  0
   36.4160   23.2960   37.1040 H   0  0  0  0  0  0  0  0  0  0  0  0
   41.1930   22.3970   37.5350 H   0  0  0  0  0  0  0  0  0  0  0  0
   36.6740   21.2730   31.6330 C   0  0  0  0  0  0  0  0  0  0  0  0
   36.5180   20.2210   31.3590 H   0  0  0  0  0  0  0  0  0  0  0  0
   37.5920   21.7040   31.1780 H   0  0  0  0  0  0  0  0  0  0  0  0
   35.5070   22.0930   31.1270 C   0  0  0  0  0  0  0  0  0  0  0  0
   35.1610   21.7710   30.1280 H   0  0  0  0  0  0  0  0  0  0  0  0
   34.7390   22.0590   31.9150 H   0  0  0  0  0  0  0  0  0  0  0  0
   35.9720   23.5000   31.0100 C   0  0  0  0  0  0  0  0  0  0  0  0
   35.1680   24.6080   31.3030 C   0  0  0  0  0  0  0  0  0  0  0  0
   34.1370   24.6470   31.6440 H   0  0  0  0  0  0  0  0  0  0  0  0
   35.9410   25.7530   31.0790 C   0  0  0  0  0  0  0  0  0  0  0  0
   35.6200   26.7760   31.2110 H   0  0  0  0  0  0  0  0  0  0  0  0
   37.1590   25.3260   30.6670 N   0  0  0  0  0  0  0  0  0  0  0  0
   37.9160   26.0020   30.4350 H   0  0  0  0  0  0  0  0  0  0  0  0
   37.1850   23.9900   30.6240 N   0  0  0  0  0  0  0  0  0  0  0  0
  1  2  1  0  0  0  0
  1 10  1  0  0  0  0
  2  6  1  0  0  0  0
  3  2  2  0  0  0  0
  4  5  1  0  0  0  0
  4  3  1  0  0  0  0
  5  1  2  0  0  0  0
  7  3  1  0  0  0  0
  8 13  1  0  0  0  0
  8 14  1  0  0  0  0
  9  8  2  0  0  0  0
 10 11  2  0  0  0  0
 10  9  1  0  0  0  0
 11 12  1  0  0  0  0
 12 16  1  0  0  0  0
 12 13  2  0  0  0  0
 15  9  1  0  0  0  0
 17  4  1  0  0  0  0
 18 17  1  0  0  0  0
 19 17  1  0  0  0  0
 20 17  1  0  0  0  0
 20 22  1  0  0  0  0
 21 20  1  0  0  0  0
 23 20  1  0  0  0  0
 23 24  1  0  0  0  0
 24 25  1  0  0  0  0
 26 27  1  0  0  0  0
 26 24  2  0  0  0  0
 28 26  1  0  0  0  0
 29 28  1  0  0  0  0
 30 28  1  0  0  0  0
 30 23  2  0  0  0  0
M  END
>  <minimizedAffinity>
-4.89813519

$$$$

 OpenBabel03272508353D

 30 32  0  0  0  0  0  0  0  0999 V2000
   38.0750   23.4870   34.5550 C   0  0  0  0  0  0  0  0  0  0  0  0
   38.0440   24.6600   33.8460 C   0  0  0  0  0  0  0  0  0  0  0  0
   37.6690   24.3810   32.5360 C   0  0  0  0  0  0  0  0  0  0  0  0
   37.4870   23.0400   32.4990 N   0  0  0  0  0  0  0  0  0  0  0  0
   37.7260   22.5010   33.7010 N   0  0  0  0  0  0  0  0  0  0  0  0
   38.2600   25.6910   34.1670 H   0  0  0  0  0  0  0  0  0  0  0  0
   37.5530   25.0930   31.7290 H   0  0  0  0  0  0  0  0  0  0  0  0
   39.8480   22.8000   37.8110 C   0  0  0  0  0  0  0  0  0  0  0  0
   39.5910   22.8050   36.4470 C   0  0  0  0  0  0  0  0  0  0  0  0
   38.4300   23.4300   35.9610 C   0  0  0  0  0  0  0  0  0  0  0  0
   37.6100   24.0050   36.8850 N   0  0  0  0  0  0  0  0  0  0  0  0
   37.8880   23.9860   38.2100 C   0  0  0  0  0  0  0  0  0  0  0  0
   38.9970   23.3860   38.6530 N   0  0  0  0  0  0  0  0  0  0  0  0
   40.7660   22.2920   38.0740 H   0  0  0  0  0  0  0  0  0  0  0  0
   40.1960   22.3670   35.6540 H   0  0  0  0  0  0  0  0  0  0  0  0
   37.1970   24.4590   38.8850 H   0  0  0  0  0  0  0  0  0  0  0  0
   37.0820   22.3270   31.2910 C   0  0  0  0  0  0  0  0  0  0  0  0
   37.6400   21.3830   31.2340 H   0  0  0  0  0  0  0  0  0  0  0  0
   37.2430   22.9750   30.4030 H   0  0  0  0  0  0  0  0  0  0  0  0
   35.6000   22.0220   31.3480 C   0  0  0  0  0  0  0  0  0  0  0  0
   35.0900   22.5400   32.1800 H   0  0  0  0  0  0  0  0  0  0  0  0
   35.1980   22.2480   30.3490 H   0  0  0  0  0  0  0  0  0  0  0  0
   35.4570   20.5600   31.5730 C   0  0  0  0  0  0  0  0  0  0  0  0
   36.5040   19.6460   31.4050 C   0  0  0  0  0  0  0  0  0  0  0  0
   37.5330   19.8160   31.1040 H   0  0  0  0  0  0  0  0  0  0  0  0
   35.9970   18.3760   31.7040 C   0  0  0  0  0  0  0  0  0  0  0  0
   36.5460   17.4460   31.6740 H   0  0  0  0  0  0  0  0  0  0  0  0
   34.6940   18.5450   32.0370 N   0  0  0  0  0  0  0  0  0  0  0  0
   34.0980   17.7340   32.3020 H   0  0  0  0  0  0  0  0  0  0  0  0
   34.3670   19.8380   31.9610 N   0  0  0  0  0  0  0  0  0  0  0  0
  1 10  1  0  0  0  0
  2  6  1  0  0  0  0
  2  1  1  0  0  0  0
  3  2  2  0  0  0  0
  4  3  1  0  0  0  0
  4  5  1  0  0  0  0
  5  1  2  0  0  0  0
  7  3  1  0  0  0  0
  8 14  1  0  0  0  0
  8 13  1  0  0  0  0
  9  8  2  0  0  0  0
 10  9  1  0  0  0  0
 10 11  2  0  0  0  0
 11 12  1  0  0  0  0
 12 13  2  0  0  0  0
 12 16  1  0  0  0  0
 15  9  1  0  0  0  0
 17 20  1  0  0  0  0
 17  4  1  0  0  0  0
 18 17  1  0  0  0  0
 19 17  1  0  0  0  0
 20 23  1  0  0  0  0
 20 21  1  0  0  0  0
 22 20  1  0  0  0  0
 23 30  2  0  0  0  0
 24 23  1  0  0  0  0
 24 26  2  0  0  0  0
 25 24  1  0  0  0  0
 26 28  1  0  0  0  0
 27 26  1  0  0  0  0
 28 29  1  0  0  0  0
 30 28  1  0  0  0  0
M  END
>  <minimizedAffinity>
-4.8465991

$$$$

 OpenBabel03272508353D

 30 32  0  0  0  0  0  0  0  0999 V2000
   37.1400   27.6100   34.1530 C   0  0  0  0  0  0  0  0  0  0  0  0
   37.7820   27.8720   35.3360 C   0  0  0  0  0  0  0  0  0  0  0  0
   38.6210   26.8050   35.6350 C   0  0  0  0  0  0  0  0  0  0  0  0
   38.4570   25.9290   34.6170 N   0  0  0  0  0  0  0  0  0  0  0  0
   37.5740   26.4040   33.7280 N   0  0  0  0  0  0  0  0  0  0  0  0
   37.7130   28.7440   36.0040 H   0  0  0  0  0  0  0  0  0  0  0  0
   39.2640   26.7080   36.5010 H   0  0  0  0  0  0  0  0  0  0  0  0
   34.3190   30.0560   33.6250 C   0  0  0  0  0  0  0  0  0  0  0  0
   35.1860   29.1950   34.2820 C   0  0  0  0  0  0  0  0  0  0  0  0
   36.1880   28.5290   33.5560 C   0  0  0  0  0  0  0  0  0  0  0  0
   36.2450   28.7790   32.2180 N   0  0  0  0  0  0  0  0  0  0  0  0
   35.3860   29.6260   31.6040 C   0  0  0  0  0  0  0  0  0  0  0  0
   34.4390   30.2490   32.3110 N   0  0  0  0  0  0  0  0  0  0  0  0
   33.5880   30.5130   34.2780 H   0  0  0  0  0  0  0  0  0  0  0  0
   35.2000   28.9460   35.3420 H   0  0  0  0  0  0  0  0  0  0  0  0
   35.4870   29.7780   30.5430 H   0  0  0  0  0  0  0  0  0  0  0  0
   39.1670   24.6560   34.5420 C   0  0  0  0  0  0  0  0  0  0  0  0
   40.0660   24.7150   35.1690 H   0  0  0  0  0  0  0  0  0  0  0  0
   39.3990   24.4190   33.4810 H   0  0  0  0  0  0  0  0  0  0  0  0
   38.2800   23.5430   35.0560 C   0  0  0  0  0  0  0  0  0  0  0  0
   37.2080   23.8110   35.0430 H   0  0  0  0  0  0  0  0  0  0  0  0
   38.5370   22.6460   34.4720 H   0  0  0  0  0  0  0  0  0  0  0  0
   38.6640   23.2870   36.4690 C   0  0  0  0  0  0  0  0  0  0  0  0
   37.9510   23.7840   37.5660 C   0  0  0  0  0  0  0  0  0  0  0  0
   37.0560   24.3990   37.5920 H   0  0  0  0  0  0  0  0  0  0  0  0
   38.6060   23.3400   38.7210 C   0  0  0  0  0  0  0  0  0  0  0  0
   38.3130   23.5470   39.7400 H   0  0  0  0  0  0  0  0  0  0  0  0
   39.6680   22.6070   38.3090 N   0  0  0  0  0  0  0  0  0  0  0  0
   40.3150   22.1660   38.9950 H   0  0  0  0  0  0  0  0  0  0  0  0
   39.7090   22.5710   36.9740 N   0  0  0  0  0  0  0  0  0  0  0  0
  1  2  1  0  0  0  0
  2  3  2  0  0  0  0
  2  6  1  0  0  0  0
  3  7  1  0  0  0  0
  4  3  1  0  0  0  0
  5  1  2  0  0  0  0
  5  4  1  0  0  0  0
  8 14  1  0  0  0  0
  8  9  1  0  0  0  0
  9 15  1  0  0  0  0
 10  1  1  0  0  0  0
 10  9  2  0  0  0  0
 11 10  1  0  0  0  0
 12 11  2  0  0  0  0
 12 13  1  0  0  0  0
 13  8  2  0  0  0  0
 16 12  1  0  0  0  0
 17  4  1  0  0  0  0
 17 20  1  0  0  0  0
 17 18  1  0  0  0  0
 19 17  1  0  0  0  0
 20 23  1  0  0  0  0
 21 20  1  0  0  0  0
 22 20  1  0  0  0  0
 23 30  2  0  0  0  0
 23 24  1  0  0  0  0
 24 25  1  0  0  0  0
 24 26  2  0  0  0  0
 26 27  1  0  0  0  0
 28 26  1  0  0  0  0
 28 29  1  0  0  0  0
 30 28  1  0  0  0  0
M  END
>  <minimizedAffinity>
-4.79980135

$$$$

 OpenBabel03272508353D

 30 32  0  0  0  0  0  0  0  0999 V2000
   36.1050   23.5400   31.4610 C   0  0  0  0  0  0  0  0  0  0  0  0
   35.0780   24.3610   31.0720 C   0  0  0  0  0  0  0  0  0  0  0  0
   35.5070   25.6810   31.1470 C   0  0  0  0  0  0  0  0  0  0  0  0
   36.7870   25.6130   31.5820 N   0  0  0  0  0  0  0  0  0  0  0  0
   37.1500   24.3370   31.7710 N   0  0  0  0  0  0  0  0  0  0  0  0
   34.0570   24.1140   30.7410 H   0  0  0  0  0  0  0  0  0  0  0  0
   34.9300   26.5650   30.9060 H   0  0  0  0  0  0  0  0  0  0  0  0
   34.9420   20.0260   32.1790 C   0  0  0  0  0  0  0  0  0  0  0  0
   34.9780   21.4130   32.2020 C   0  0  0  0  0  0  0  0  0  0  0  0
   35.9840   22.0940   31.4970 C   0  0  0  0  0  0  0  0  0  0  0  0
   36.8830   21.3280   30.8170 N   0  0  0  0  0  0  0  0  0  0  0  0
   36.8230   19.9760   30.8120 C   0  0  0  0  0  0  0  0  0  0  0  0
   35.8590   19.3460   31.4890 N   0  0  0  0  0  0  0  0  0  0  0  0
   34.1290   19.6060   32.7550 H   0  0  0  0  0  0  0  0  0  0  0  0
   34.2980   22.0870   32.7210 H   0  0  0  0  0  0  0  0  0  0  0  0
   37.5650   19.4320   30.2540 H   0  0  0  0  0  0  0  0  0  0  0  0
   37.6160   26.7950   31.7990 C   0  0  0  0  0  0  0  0  0  0  0  0
   37.6460   27.3800   30.8700 H   0  0  0  0  0  0  0  0  0  0  0  0
   38.6250   26.4850   32.1440 H   0  0  0  0  0  0  0  0  0  0  0  0
   37.0180   27.6460   32.8980 C   0  0  0  0  0  0  0  0  0  0  0  0
   37.0020   28.7210   32.6450 H   0  0  0  0  0  0  0  0  0  0  0  0
   36.0330   27.2110   33.1260 H   0  0  0  0  0  0  0  0  0  0  0  0
   37.8740   27.4800   34.1020 C   0  0  0  0  0  0  0  0  0  0  0  0
   39.1350   26.8720   34.0770 C   0  0  0  0  0  0  0  0  0  0  0  0
   39.6820   26.4430   33.2430 H   0  0  0  0  0  0  0  0  0  0  0  0
   39.6340   26.8980   35.3840 C   0  0  0  0  0  0  0  0  0  0  0  0
   40.5870   26.5090   35.7110 H   0  0  0  0  0  0  0  0  0  0  0  0
   38.6920   27.5020   36.1490 N   0  0  0  0  0  0  0  0  0  0  0  0
   38.8360   27.6400   37.1700 H   0  0  0  0  0  0  0  0  0  0  0  0
   37.6450   27.8500   35.3950 N   0  0  0  0  0  0  0  0  0  0  0  0
  1 10  1  0  0  0  0
  1  5  2  0  0  0  0
  2  3  2  0  0  0  0
  2  1  1  0  0  0  0
  3  4  1  0  0  0  0
  4  5  1  0  0  0  0
  4 17  1  0  0  0  0
  6  2  1  0  0  0  0
  7  3  1  0  0  0  0
  8  9  1  0  0  0  0
  8 14  1  0  0  0  0
  9 15  1  0  0  0  0
 10  9  2  0  0  0  0
 11 10  1  0  0  0  0
 12 11  2  0  0  0  0
 12 13  1  0  0  0  0
 13  8  2  0  0  0  0
 16 12  1  0  0  0  0
 17 19  1  0  0  0  0
 17 20  1  0  0  0  0
 18 17  1  0  0  0  0
 20 22  1  0  0  0  0
 20 23  1  0  0  0  0
 21 20  1  0  0  0  0
 23 30  2  0  0  0  0
 24 23  1  0  0  0  0
 24 26  2  0  0  0  0
 25 24  1  0  0  0  0
 26 27  1  0  0  0  0
 26 28  1  0  0  0  0
 28 29  1  0  0  0  0
 30 28  1  0  0  0  0
M  END
>  <minimizedAffinity>
-4.73701334

$$$$

 OpenBabel03272508353D

 30 32  0  0  0  0  0  0  0  0999 V2000
   36.9040   26.6340   33.1090 C   0  0  0  0  0  0  0  0  0  0  0  0
   36.7460   25.8240   32.0150 C   0  0  0  0  0  0  0  0  0  0  0  0
   37.2750   24.5720   32.3040 C   0  0  0  0  0  0  0  0  0  0  0  0
   37.7380   24.6680   33.5730 N   0  0  0  0  0  0  0  0  0  0  0  0
   37.5190   25.8970   34.0590 N   0  0  0  0  0  0  0  0  0  0  0  0
   36.2930   26.0350   31.0330 H   0  0  0  0  0  0  0  0  0  0  0  0
   37.3040   23.7120   31.6470 H   0  0  0  0  0  0  0  0  0  0  0  0
   36.0000   30.1610   32.1290 C   0  0  0  0  0  0  0  0  0  0  0  0
   36.4460   28.8530   32.0070 C   0  0  0  0  0  0  0  0  0  0  0  0
   36.4560   28.0150   33.1350 C   0  0  0  0  0  0  0  0  0  0  0  0
   36.0170   28.5560   34.3060 N   0  0  0  0  0  0  0  0  0  0  0  0
   35.5870   29.8360   34.3940 C   0  0  0  0  0  0  0  0  0  0  0  0
   35.5850   30.6180   33.3100 N   0  0  0  0  0  0  0  0  0  0  0  0
   36.0360   30.7160   31.2010 H   0  0  0  0  0  0  0  0  0  0  0  0
   36.8110   28.3540   31.1100 H   0  0  0  0  0  0  0  0  0  0  0  0
   35.2530   30.2000   35.3500 H   0  0  0  0  0  0  0  0  0  0  0  0
   38.3780   23.5580   34.2710 C   0  0  0  0  0  0  0  0  0  0  0  0
   38.8180   22.8790   33.5280 H   0  0  0  0  0  0  0  0  0  0  0  0
   37.6380   23.0520   34.9270 H   0  0  0  0  0  0  0  0  0  0  0  0
   39.4760   24.0830   35.1710 C   0  0  0  0  0  0  0  0  0  0  0  0
   40.4660   23.6560   34.9300 H   0  0  0  0  0  0  0  0  0  0  0  0
   39.4220   25.1810   35.1170 H   0  0  0  0  0  0  0  0  0  0  0  0
   39.1380   23.6820   36.5620 C   0  0  0  0  0  0  0  0  0  0  0  0
   38.0270   24.1680   37.2590 C   0  0  0  0  0  0  0  0  0  0  0  0
   37.2620   24.8720   36.9430 H   0  0  0  0  0  0  0  0  0  0  0  0
   38.0370   23.5700   38.5250 C   0  0  0  0  0  0  0  0  0  0  0  0
   37.3150   23.7300   39.3120 H   0  0  0  0  0  0  0  0  0  0  0  0
   39.1230   22.7610   38.5650 N   0  0  0  0  0  0  0  0  0  0  0  0
   39.3460   22.2020   39.4140 H   0  0  0  0  0  0  0  0  0  0  0  0
   39.7810   22.8220   37.4030 N   0  0  0  0  0  0  0  0  0  0  0  0
  1 10  1  0  0  0  0
  1  5  2  0  0  0  0
  2  3  2  0  0  0  0
  2  1  1  0  0  0  0
  3  4  1  0  0  0  0
  4  5  1  0  0  0  0
  4 17  1  0  0  0  0
  6  2  1  0  0  0  0
  7  3  1  0  0  0  0
  8 13  1  0  0  0  0
  9  8  2  0  0  0  0
  9 10  1  0  0  0  0
 10 11  2  0  0  0  0
 11 12  1  0  0  0  0
 12 16  1  0  0  0  0
 13 12  2  0  0  0  0
 14  8  1  0  0  0  0
 15  9  1  0  0  0  0
 17 19  1  0  0  0  0
 17 20  1  0  0  0  0
 18 17  1  0  0  0  0
 20 23  1  0  0  0  0
 21 20  1  0  0  0  0
 22 20  1  0  0  0  0
 23 24  1  0  0  0  0
 23 30  2  0  0  0  0
 24 26  2  0  0  0  0
 25 24  1  0  0  0  0
 26 28  1  0  0  0  0
 26 27  1  0  0  0  0
 28 29  1  0  0  0  0
 30 28  1  0  0  0  0
M  END
>  <minimizedAffinity>
-4.7344327

$$$$

 OpenBabel03272508353D

 30 32  0  0  0  0  0  0  0  0999 V2000
   38.2900   26.5510   33.9840 C   0  0  0  0  0  0  0  0  0  0  0  0
   39.4110   27.0270   34.6140 C   0  0  0  0  0  0  0  0  0  0  0  0
   40.2620   25.9610   34.8810 C   0  0  0  0  0  0  0  0  0  0  0  0
   39.6220   24.8690   34.4010 N   0  0  0  0  0  0  0  0  0  0  0  0
   38.4440   25.2150   33.8640 N   0  0  0  0  0  0  0  0  0  0  0  0
   39.6820   28.0550   34.9010 H   0  0  0  0  0  0  0  0  0  0  0  0
   41.2270   26.0080   35.3700 H   0  0  0  0  0  0  0  0  0  0  0  0
   35.4590   29.0420   33.9510 C   0  0  0  0  0  0  0  0  0  0  0  0
   36.4910   28.2540   34.4420 C   0  0  0  0  0  0  0  0  0  0  0  0
   37.1990   27.4120   33.5670 C   0  0  0  0  0  0  0  0  0  0  0  0
   36.8160   27.4250   32.2590 N   0  0  0  0  0  0  0  0  0  0  0  0
   35.8070   28.2060   31.8090 C   0  0  0  0  0  0  0  0  0  0  0  0
   35.1450   28.9990   32.6560 N   0  0  0  0  0  0  0  0  0  0  0  0
   34.9830   29.6490   34.7090 H   0  0  0  0  0  0  0  0  0  0  0  0
   36.8490   28.1900   35.4680 H   0  0  0  0  0  0  0  0  0  0  0  0
   35.5560   28.1680   30.7630 H   0  0  0  0  0  0  0  0  0  0  0  0
   40.1800   23.5230   34.4800 C   0  0  0  0  0  0  0  0  0  0  0  0
   41.0270   23.5320   35.1780 H   0  0  0  0  0  0  0  0  0  0  0  0
   40.4660   23.1760   33.4640 H   0  0  0  0  0  0  0  0  0  0  0  0
   39.1290   22.5620   34.9920 C   0  0  0  0  0  0  0  0  0  0  0  0
   38.1370   22.7330   34.5370 H   0  0  0  0  0  0  0  0  0  0  0  0
   39.5360   21.5500   34.8450 H   0  0  0  0  0  0  0  0  0  0  0  0
   38.9980   22.7870   36.4560 C   0  0  0  0  0  0  0  0  0  0  0  0
   37.8460   23.3050   37.0590 C   0  0  0  0  0  0  0  0  0  0  0  0
   36.9060   23.6140   36.6100 H   0  0  0  0  0  0  0  0  0  0  0  0
   38.0930   23.3740   38.4350 C   0  0  0  0  0  0  0  0  0  0  0  0
   37.4070   23.7290   39.1900 H   0  0  0  0  0  0  0  0  0  0  0  0
   39.3520   22.9110   38.6280 N   0  0  0  0  0  0  0  0  0  0  0  0
   39.7670   22.8650   39.5810 H   0  0  0  0  0  0  0  0  0  0  0  0
   39.8950   22.5610   37.4580 N   0  0  0  0  0  0  0  0  0  0  0  0
  1  2  1  0  0  0  0
  2  3  2  0  0  0  0
  2  6  1  0  0  0  0
  3  7  1  0  0  0  0
  4 17  1  0  0  0  0
  4  3  1  0  0  0  0
  5  1  2  0  0  0  0
  5  4  1  0  0  0  0
  8  9  1  0  0  0  0
  8 14  1  0  0  0  0
  9 15  1  0  0  0  0
 10  1  1  0  0  0  0
 10  9  2  0  0  0  0
 11 10  1  0  0  0  0
 12 11  2  0  0  0  0
 12 13  1  0  0  0  0
 13  8  2  0  0  0  0
 16 12  1  0  0  0  0
 17 20  1  0  0  0  0
 17 18  1  0  0  0  0
 19 17  1  0  0  0  0
 20 23  1  0  0  0  0
 21 20  1  0  0  0  0
 22 20  1  0  0  0  0
 23 24  1  0  0  0  0
 23 30  2  0  0  0  0
 24 26  2  0  0  0  0
 25 24  1  0  0  0  0
 26 28  1  0  0  0  0
 26 27  1  0  0  0  0
 28 29  1  0  0  0  0
 30 28  1  0  0  0  0
M  END
>  <minimizedAffinity>
-4.71812963

$$$$

 OpenBabel03272508353D

 30 32  0  0  0  0  0  0  0  0999 V2000
   37.3830   27.3190   32.7140 C   0  0  0  0  0  0  0  0  0  0  0  0
   37.0250   27.6470   33.9960 C   0  0  0  0  0  0  0  0  0  0  0  0
   37.2720   26.5570   34.8230 C   0  0  0  0  0  0  0  0  0  0  0  0
   37.7740   25.6010   34.0060 N   0  0  0  0  0  0  0  0  0  0  0  0
   37.8430   26.0500   32.7460 N   0  0  0  0  0  0  0  0  0  0  0  0
   36.6070   28.5820   34.4010 H   0  0  0  0  0  0  0  0  0  0  0  0
   37.0960   26.4980   35.8890 H   0  0  0  0  0  0  0  0  0  0  0  0
   37.7880   29.0690   29.3990 C   0  0  0  0  0  0  0  0  0  0  0  0
   37.9830   28.1370   30.4080 C   0  0  0  0  0  0  0  0  0  0  0  0
   37.2490   28.2430   31.6020 C   0  0  0  0  0  0  0  0  0  0  0  0
   36.3700   29.2800   31.6930 N   0  0  0  0  0  0  0  0  0  0  0  0
   36.2010   30.1730   30.6900 C   0  0  0  0  0  0  0  0  0  0  0  0
   36.9080   30.0570   29.5630 N   0  0  0  0  0  0  0  0  0  0  0  0
   38.4040   28.8940   28.5270 H   0  0  0  0  0  0  0  0  0  0  0  0
   38.6640   27.2880   30.4080 H   0  0  0  0  0  0  0  0  0  0  0  0
   35.4900   30.9700   30.8280 H   0  0  0  0  0  0  0  0  0  0  0  0
   38.1720   24.2790   34.4810 C   0  0  0  0  0  0  0  0  0  0  0  0
   38.3820   23.6400   33.6130 H   0  0  0  0  0  0  0  0  0  0  0  0
   37.3780   23.8630   35.1380 H   0  0  0  0  0  0  0  0  0  0  0  0
   39.4240   24.3940   35.3250 C   0  0  0  0  0  0  0  0  0  0  0  0
   40.2770   23.8340   34.9000 H   0  0  0  0  0  0  0  0  0  0  0  0
   39.6040   25.4700   35.4680 H   0  0  0  0  0  0  0  0  0  0  0  0
   39.1170   23.8050   36.6550 C   0  0  0  0  0  0  0  0  0  0  0  0
   37.9770   24.1290   37.3990 C   0  0  0  0  0  0  0  0  0  0  0  0
   37.1670   24.8140   37.1670 H   0  0  0  0  0  0  0  0  0  0  0  0
   38.0300   23.3850   38.5840 C   0  0  0  0  0  0  0  0  0  0  0  0
   37.3000   23.4000   39.3800 H   0  0  0  0  0  0  0  0  0  0  0  0
   39.1670   22.6500   38.5310 N   0  0  0  0  0  0  0  0  0  0  0  0
   39.4290   22.0080   39.3080 H   0  0  0  0  0  0  0  0  0  0  0  0
   39.8170   22.8940   37.3900 N   0  0  0  0  0  0  0  0  0  0  0  0
  1  5  2  0  0  0  0
  1  2  1  0  0  0  0
  2  6  1  0  0  0  0
  2  3  2  0  0  0  0
  3  7  1  0  0  0  0
  4 17  1  0  0  0  0
  4  3  1  0  0  0  0
  5  4  1  0  0  0  0
  8 13  2  0  0  0  0
  8  9  1  0  0  0  0
  9 10  2  0  0  0  0
 10 11  1  0  0  0  0
 10  1  1  0  0  0  0
 12 16  1  0  0  0  0
 12 11  2  0  0  0  0
 13 12  1  0  0  0  0
 14  8  1  0  0  0  0
 15  9  1  0  0  0  0
 17 19  1  0  0  0  0
 17 20  1  0  0  0  0
 18 17  1  0  0  0  0
 20 22  1  0  0  0  0
 20 23  1  0  0  0  0
 21 20  1  0  0  0  0
 23 30  2  0  0  0  0
 23 24  1  0  0  0  0
 24 26  2  0  0  0  0
 25 24  1  0  0  0  0
 26 27  1  0  0  0  0
 28 26  1  0  0  0  0
 28 29  1  0  0  0  0
 30 28  1  0  0  0  0
M  END
>  <minimizedAffinity>
-4.71337652

$$$$

 OpenBabel03272508353D

 30 32  0  0  0  0  0  0  0  0999 V2000
   37.3080   27.1770   34.0720 C   0  0  0  0  0  0  0  0  0  0  0  0
   37.7230   27.5750   35.3160 C   0  0  0  0  0  0  0  0  0  0  0  0
   38.2700   26.4810   35.9770 C   0  0  0  0  0  0  0  0  0  0  0  0
   38.1650   25.4520   35.1040 N   0  0  0  0  0  0  0  0  0  0  0  0
   37.5920   25.8610   33.9640 N   0  0  0  0  0  0  0  0  0  0  0  0
   37.6770   28.5640   35.7990 H   0  0  0  0  0  0  0  0  0  0  0  0
   38.6870   26.4680   36.9760 H   0  0  0  0  0  0  0  0  0  0  0  0
   35.2630   29.9360   32.5140 C   0  0  0  0  0  0  0  0  0  0  0  0
   35.8090   29.1170   33.4930 C   0  0  0  0  0  0  0  0  0  0  0  0
   36.6880   28.0850   33.1240 C   0  0  0  0  0  0  0  0  0  0  0  0
   36.9550   27.9510   31.7940 N   0  0  0  0  0  0  0  0  0  0  0  0
   36.4080   28.7670   30.8620 C   0  0  0  0  0  0  0  0  0  0  0  0
   35.5740   29.7420   31.2320 N   0  0  0  0  0  0  0  0  0  0  0  0
   34.6010   30.6950   32.9080 H   0  0  0  0  0  0  0  0  0  0  0  0
   35.6420   29.1620   34.5680 H   0  0  0  0  0  0  0  0  0  0  0  0
   36.6610   28.6060   29.8290 H   0  0  0  0  0  0  0  0  0  0  0  0
   38.6290   24.1020   35.4080 C   0  0  0  0  0  0  0  0  0  0  0  0
   38.2010   23.4070   34.6730 H   0  0  0  0  0  0  0  0  0  0  0  0
   38.3590   23.8400   36.4540 H   0  0  0  0  0  0  0  0  0  0  0  0
   40.1390   24.0470   35.3170 C   0  0  0  0  0  0  0  0  0  0  0  0
   40.4960   23.7810   34.3060 H   0  0  0  0  0  0  0  0  0  0  0  0
   40.5080   25.0110   35.6990 H   0  0  0  0  0  0  0  0  0  0  0  0
   40.6000   22.9850   36.2510 C   0  0  0  0  0  0  0  0  0  0  0  0
   41.7760   22.2500   36.0660 C   0  0  0  0  0  0  0  0  0  0  0  0
   42.5150   22.3100   35.2720 H   0  0  0  0  0  0  0  0  0  0  0  0
   41.8770   21.3530   37.1350 C   0  0  0  0  0  0  0  0  0  0  0  0
   42.6710   20.6380   37.2960 H   0  0  0  0  0  0  0  0  0  0  0  0
   40.7920   21.5590   37.9200 N   0  0  0  0  0  0  0  0  0  0  0  0
   40.6430   21.0030   38.7870 H   0  0  0  0  0  0  0  0  0  0  0  0
   40.0300   22.5260   37.4010 N   0  0  0  0  0  0  0  0  0  0  0  0
  1  2  1  0  0  0  0
  2  6  1  0  0  0  0
  2  3  2  0  0  0  0
  3  7  1  0  0  0  0
  4 17  1  0  0  0  0
  4  3  1  0  0  0  0
  5  1  2  0  0  0  0
  5  4  1  0  0  0  0
  8 14  1  0  0  0  0
  8  9  1  0  0  0  0
  9 15  1  0  0  0  0
 10  9  2  0  0  0  0
 10  1  1  0  0  0  0
 11 10  1  0  0  0  0
 12 13  1  0  0  0  0
 12 11  2  0  0  0  0
 13  8  2  0  0  0  0
 16 12  1  0  0  0  0
 17 19  1  0  0  0  0
 18 17  1  0  0  0  0
 20 17  1  0  0  0  0
 20 22  1  0  0  0  0
 20 23  1  0  0  0  0
 21 20  1  0  0  0  0
 23 30  2  0  0  0  0
 24 23  1  0  0  0  0
 24 26  2  0  0  0  0
 25 24  1  0  0  0  0
 26 27  1  0  0  0  0
 26 28  1  0  0  0  0
 28 29  1  0  0  0  0
 30 28  1  0  0  0  0
M  END
>  <minimizedAffinity>
-4.7036376

$$$$

 OpenBabel03272508353D

 30 32  0  0  0  0  0  0  0  0999 V2000
   38.0730   25.6360   35.4090 C   0  0  0  0  0  0  0  0  0  0  0  0
   37.9600   26.9560   35.7620 C   0  0  0  0  0  0  0  0  0  0  0  0
   37.3900   27.6550   34.7050 C   0  0  0  0  0  0  0  0  0  0  0  0
   37.1780   26.7290   33.7420 N   0  0  0  0  0  0  0  0  0  0  0  0
   37.5830   25.5210   34.1560 N   0  0  0  0  0  0  0  0  0  0  0  0
   38.2410   27.4680   36.6960 H   0  0  0  0  0  0  0  0  0  0  0  0
   37.1690   28.7150   34.6720 H   0  0  0  0  0  0  0  0  0  0  0  0
   38.7090   23.3470   38.3370 C   0  0  0  0  0  0  0  0  0  0  0  0
   38.1050   24.3250   37.5590 C   0  0  0  0  0  0  0  0  0  0  0  0
   38.6330   24.6310   36.2940 C   0  0  0  0  0  0  0  0  0  0  0  0
   39.7340   23.9300   35.9030 N   0  0  0  0  0  0  0  0  0  0  0  0
   40.3020   22.9810   36.6830 C   0  0  0  0  0  0  0  0  0  0  0  0
   39.7850   22.7040   37.8840 N   0  0  0  0  0  0  0  0  0  0  0  0
   38.2220   23.1930   39.2900 H   0  0  0  0  0  0  0  0  0  0  0  0
   37.2290   24.9240   37.8050 H   0  0  0  0  0  0  0  0  0  0  0  0
   41.1700   22.4650   36.3130 H   0  0  0  0  0  0  0  0  0  0  0  0
   36.5840   27.0510   32.4470 C   0  0  0  0  0  0  0  0  0  0  0  0
   35.5490   27.3800   32.6060 H   0  0  0  0  0  0  0  0  0  0  0  0
   36.6560   26.1700   31.7740 H   0  0  0  0  0  0  0  0  0  0  0  0
   37.3630   28.1700   31.7900 C   0  0  0  0  0  0  0  0  0  0  0  0
   38.1240   28.6100   32.4600 H   0  0  0  0  0  0  0  0  0  0  0  0
   37.7590   27.7610   30.8480 H   0  0  0  0  0  0  0  0  0  0  0  0
   36.3930   29.2420   31.4460 C   0  0  0  0  0  0  0  0  0  0  0  0
   35.2830   29.5640   32.2350 C   0  0  0  0  0  0  0  0  0  0  0  0
   34.9470   29.1280   33.1720 H   0  0  0  0  0  0  0  0  0  0  0  0
   34.6100   30.6120   31.5970 C   0  0  0  0  0  0  0  0  0  0  0  0
   33.7100   31.0980   31.9440 H   0  0  0  0  0  0  0  0  0  0  0  0
   35.3070   30.8930   30.4690 N   0  0  0  0  0  0  0  0  0  0  0  0
   34.9980   31.6460   29.8210 H   0  0  0  0  0  0  0  0  0  0  0  0
   36.3650   30.0840   30.3730 N   0  0  0  0  0  0  0  0  0  0  0  0
  1  2  1  0  0  0  0
  1 10  1  0  0  0  0
  2  6  1  0  0  0  0
  3  2  2  0  0  0  0
  4  5  1  0  0  0  0
  4  3  1  0  0  0  0
  5  1  2  0  0  0  0
  7  3  1  0  0  0  0
  8 14  1  0  0  0  0
  9 15  1  0  0  0  0
  9  8  2  0  0  0  0
 10  9  1  0  0  0  0
 11 10  2  0  0  0  0
 11 12  1  0  0  0  0
 12 13  2  0  0  0  0
 13  8  1  0  0  0  0
 16 12  1  0  0  0  0
 17 18  1  0  0  0  0
 17  4  1  0  0  0  0
 19 17  1  0  0  0  0
 20 17  1  0  0  0  0
 20 21  1  0  0  0  0
 22 20  1  0  0  0  0
 23 20  1  0  0  0  0
 23 24  1  0  0  0  0
 24 25  1  0  0  0  0
 26 27  1  0  0  0  0
 26 24  2  0  0  0  0
 28 26  1  0  0  0  0
 29 28  1  0  0  0  0
 30 28  1  0  0  0  0
 30 23  2  0  0  0  0
M  END
>  <minimizedAffinity>
-4.70017767

$$$$
