
 OpenBabel03272502103D

 25 27  0  0  0  0  0  0  0  0999 V2000
   38.0740   32.0740   49.1510 C   0  0  0  0  0  0  0  0  0  0  0  0
   38.5320   33.2050   49.7720 C   0  0  0  0  0  0  0  0  0  0  0  0
   39.3850   34.1470   49.2040 C   0  0  0  0  0  0  0  0  0  0  0  0
   39.7870   33.9030   47.9230 N   0  0  0  0  0  0  0  0  0  0  0  0
   39.3470   32.7860   47.2870 C   0  0  0  0  0  0  0  0  0  0  0  0
   38.5230   31.9130   47.8870 N   0  0  0  0  0  0  0  0  0  0  0  0
   38.2300   33.4330   50.7970 H   0  0  0  0  0  0  0  0  0  0  0  0
   39.7140   35.0220   49.7420 H   0  0  0  0  0  0  0  0  0  0  0  0
   37.4930   30.4390   50.9510 C   0  0  0  0  0  0  0  0  0  0  0  0
   37.2010   31.1310   49.7650 C   0  0  0  0  0  0  0  0  0  0  0  0
   35.9790   30.8570   49.1750 C   0  0  0  0  0  0  0  0  0  0  0  0
   35.1370   29.9620   49.7410 N   0  0  0  0  0  0  0  0  0  0  0  0
   35.4660   29.3140   50.8930 C   0  0  0  0  0  0  0  0  0  0  0  0
   36.6610   29.5570   51.5060 N   0  0  0  0  0  0  0  0  0  0  0  0
   38.4480   30.6710   51.3880 H   0  0  0  0  0  0  0  0  0  0  0  0
   35.7190   31.3750   48.2570 H   0  0  0  0  0  0  0  0  0  0  0  0
   34.7180   28.6190   51.2570 H   0  0  0  0  0  0  0  0  0  0  0  0
   39.7210   32.4390   45.9190 C   0  0  0  0  0  0  0  0  0  0  0  0
   40.3670   31.2320   45.6480 C   0  0  0  0  0  0  0  0  0  0  0  0
   40.6600   30.4490   46.3370 H   0  0  0  0  0  0  0  0  0  0  0  0
   40.5880   31.1930   44.2670 C   0  0  0  0  0  0  0  0  0  0  0  0
   41.0750   30.3700   43.7570 H   0  0  0  0  0  0  0  0  0  0  0  0
   40.0810   32.3460   43.7600 N   0  0  0  0  0  0  0  0  0  0  0  0
   40.0990   32.6060   42.7380 H   0  0  0  0  0  0  0  0  0  0  0  0
   39.5740   33.0750   44.7330 N   0  0  0  0  0  0  0  0  0  0  0  0
  1 10  1  0  0  0  0
  1  2  1  0  0  0  0
  2  7  1  0  0  0  0
  3  8  1  0  0  0  0
  3  2  2  0  0  0  0
  4  3  1  0  0  0  0
  5  6  1  0  0  0  0
  5  4  2  0  0  0  0
  6  1  2  0  0  0  0
  9 15  1  0  0  0  0
  9 14  1  0  0  0  0
 10  9  2  0  0  0  0
 11 12  2  0  0  0  0
 11 10  1  0  0  0  0
 12 13  1  0  0  0  0
 13 17  1  0  0  0  0
 13 14  2  0  0  0  0
 16 11  1  0  0  0  0
 18  5  1  0  0  0  0
 19 18  1  0  0  0  0
 19 20  1  0  0  0  0
 21 19  2  0  0  0  0
 22 21  1  0  0  0  0
 23 21  1  0  0  0  0
 23 25  1  0  0  0  0
 24 23  1  0  0  0  0
 25 18  2  0  0  0  0
M  END
>  <minimizedAffinity>
-5.88707685

>  <minimizedRMSD>
0.416338027

$$$$
