
 OpenBabel03272500493D

 38 42  0  0  1  0  0  0  0  0999 V2000
   37.0350   27.0740   32.9710 C   0  0  1  0  0  0  0  0  0  0  0  0
   38.4580   27.3790   32.3900 C   0  0  0  0  0  0  0  0  0  0  0  0
   38.2540   26.9010   33.7810 C   0  0  2  0  0  0  0  0  0  0  0  0
   36.5230   26.2450   32.4540 H   0  0  0  0  0  0  0  0  0  0  0  0
   38.6780   28.4430   32.1920 H   0  0  0  0  0  0  0  0  0  0  0  0
   38.8580   26.6230   31.6780 H   0  0  0  0  0  0  0  0  0  0  0  0
   38.4040   27.6330   34.5740 H   0  0  0  0  0  0  0  0  0  0  0  0
   35.1450   29.8580   34.2770 C   0  0  0  0  0  0  0  0  0  0  0  0
   34.8130   29.9350   32.9440 C   0  0  0  0  0  0  0  0  0  0  0  0
   35.4770   28.8990   32.2660 C   0  0  0  0  0  0  0  0  0  0  0  0
   36.1850   28.2300   33.1980 N   0  0  0  0  0  0  0  0  0  0  0  0
   35.9650   28.8180   34.3420 N   0  0  0  0  0  0  0  0  0  0  0  0
   34.1610   30.6410   32.4300 H   0  0  0  0  0  0  0  0  0  0  0  0
   35.4040   28.7150   31.2090 H   0  0  0  0  0  0  0  0  0  0  0  0
   35.4980   31.5940   36.0520 C   0  0  0  0  0  0  0  0  0  0  0  0
   34.6570   30.7570   35.2860 C   0  0  0  0  0  0  0  0  0  0  0  0
   33.2920   30.8250   35.5450 C   0  0  0  0  0  0  0  0  0  0  0  0
   32.8510   31.6810   36.5030 N   0  0  0  0  0  0  0  0  0  0  0  0
   33.6860   32.4630   37.2130 C   0  0  0  0  0  0  0  0  0  0  0  0
   35.0280   32.4200   36.9830 N   0  0  0  0  0  0  0  0  0  0  0  0
   36.5390   31.4720   35.7830 H   0  0  0  0  0  0  0  0  0  0  0  0
   32.6450   30.1870   34.9620 H   0  0  0  0  0  0  0  0  0  0  0  0
   33.3210   33.1420   37.9750 H   0  0  0  0  0  0  0  0  0  0  0  0
   38.6920   25.5140   34.1560 C   0  0  0  0  0  0  0  0  0  0  0  0
   38.4360   24.3830   33.3640 C   0  0  0  0  0  0  0  0  0  0  0  0
   38.9690   23.3100   34.0090 N   0  0  0  0  0  0  0  0  0  0  0  0
   39.5380   23.7540   35.1630 C   0  0  0  0  0  0  0  0  0  0  0  0
   39.3710   25.1020   35.2560 N   0  0  0  0  0  0  0  0  0  0  0  0
   37.9150   24.3580   32.4210 H   0  0  0  0  0  0  0  0  0  0  0  0
   38.9100   22.3470   33.6230 H   0  0  0  0  0  0  0  0  0  0  0  0
   40.2080   22.8690   36.1090 C   0  0  0  0  0  0  0  0  0  0  0  0
   41.3620   22.1480   35.9180 C   0  0  0  0  0  0  0  0  0  0  0  0
   41.8920   22.1970   34.9770 H   0  0  0  0  0  0  0  0  0  0  0  0
   41.6010   21.4640   37.0850 C   0  0  0  0  0  0  0  0  0  0  0  0
   42.4690   20.8300   37.1510 H   0  0  0  0  0  0  0  0  0  0  0  0
   40.5930   21.7820   37.9480 N   0  0  0  0  0  0  0  0  0  0  0  0
   40.6850   21.3000   38.8880 H   0  0  0  0  0  0  0  0  0  0  0  0
   39.7580   22.6320   37.3430 N   0  0  0  0  0  0  0  0  0  0  0  0
  1  4  1  6  0  0  0
  1 11  1  0  0  0  0
  1  3  1  0  0  0  0
  2  1  1  0  0  0  0
  2  3  1  0  0  0  0
  3 24  1  0  0  0  0
  3  7  1  1  0  0  0
  5  2  1  0  0  0  0
  6  2  1  0  0  0  0
  8 12  2  0  0  0  0
  8 16  1  0  0  0  0
  9  8  1  0  0  0  0
 10  9  2  0  0  0  0
 10 11  1  0  0  0  0
 11 12  1  0  0  0  0
 13  9  1  0  0  0  0
 14 10  1  0  0  0  0
 15 20  1  0  0  0  0
 16 17  1  0  0  0  0
 16 15  2  0  0  0  0
 17 18  2  0  0  0  0
 18 19  1  0  0  0  0
 19 23  1  0  0  0  0
 20 19  2  0  0  0  0
 21 15  1  0  0  0  0
 22 17  1  0  0  0  0
 24 28  1  0  0  0  0
 25 26  1  0  0  0  0
 25 24  2  0  0  0  0
 26 27  1  0  0  0  0
 27 28  2  0  0  0  0
 27 31  1  0  0  0  0
 29 25  1  0  0  0  0
 30 26  1  0  0  0  0
 31 38  2  0  0  0  0
 32 31  1  0  0  0  0
 32 34  2  0  0  0  0
 33 32  1  0  0  0  0
 34 35  1  0  0  0  0
 34 36  1  0  0  0  0
 36 37  1  0  0  0  0
 38 36  1  0  0  0  0
M  END
>  <minimizedAffinity>
-5.7477541

$$$$

 OpenBabel03272500493D

 38 42  0  0  1  0  0  0  0  0999 V2000
   37.6650   25.8530   35.8660 C   0  0  1  0  0  0  0  0  0  0  0  0
   38.3880   27.2410   35.9550 C   0  0  0  0  0  0  0  0  0  0  0  0
   38.2080   26.5200   34.6690 C   0  0  2  0  0  0  0  0  0  0  0  0
   36.6030   25.8970   36.1600 H   0  0  0  0  0  0  0  0  0  0  0  0
   39.3690   27.2380   36.4630 H   0  0  0  0  0  0  0  0  0  0  0  0
   37.7230   28.1190   36.1090 H   0  0  0  0  0  0  0  0  0  0  0  0
   39.0990   26.0660   34.2370 H   0  0  0  0  0  0  0  0  0  0  0  0
   39.8540   23.0890   36.6380 C   0  0  0  0  0  0  0  0  0  0  0  0
   39.0800   23.1190   37.7750 C   0  0  0  0  0  0  0  0  0  0  0  0
   38.1490   24.1620   37.6440 C   0  0  0  0  0  0  0  0  0  0  0  0
   38.3820   24.7290   36.4430 N   0  0  0  0  0  0  0  0  0  0  0  0
   39.3730   24.0790   35.8980 N   0  0  0  0  0  0  0  0  0  0  0  0
   39.1200   22.4830   38.6590 H   0  0  0  0  0  0  0  0  0  0  0  0
   37.4120   24.4200   38.3840 H   0  0  0  0  0  0  0  0  0  0  0  0
   41.4200   21.8480   35.1220 C   0  0  0  0  0  0  0  0  0  0  0  0
   40.9200   22.1530   36.4070 C   0  0  0  0  0  0  0  0  0  0  0  0
   41.5050   21.4970   37.4860 C   0  0  0  0  0  0  0  0  0  0  0  0
   42.5110   20.6160   37.2460 N   0  0  0  0  0  0  0  0  0  0  0  0
   42.9600   20.3530   36.0050 C   0  0  0  0  0  0  0  0  0  0  0  0
   42.4080   20.9780   34.9280 N   0  0  0  0  0  0  0  0  0  0  0  0
   40.9060   22.4030   34.3490 H   0  0  0  0  0  0  0  0  0  0  0  0
   41.1260   21.7270   38.4700 H   0  0  0  0  0  0  0  0  0  0  0  0
   43.7630   19.6470   35.8270 H   0  0  0  0  0  0  0  0  0  0  0  0
   37.2570   27.0700   33.6430 C   0  0  0  0  0  0  0  0  0  0  0  0
   36.8370   26.3480   32.5140 C   0  0  0  0  0  0  0  0  0  0  0  0
   35.9910   27.1510   31.8140 N   0  0  0  0  0  0  0  0  0  0  0  0
   35.8860   28.3330   32.4810 C   0  0  0  0  0  0  0  0  0  0  0  0
   36.6590   28.2860   33.6010 N   0  0  0  0  0  0  0  0  0  0  0  0
   37.1260   25.3450   32.2440 H   0  0  0  0  0  0  0  0  0  0  0  0
   35.5420   26.8430   30.9290 H   0  0  0  0  0  0  0  0  0  0  0  0
   35.0550   29.4360   32.0130 C   0  0  0  0  0  0  0  0  0  0  0  0
   33.8500   29.8590   32.5210 C   0  0  0  0  0  0  0  0  0  0  0  0
   33.4050   29.3610   33.3710 H   0  0  0  0  0  0  0  0  0  0  0  0
   33.4480   30.9260   31.7540 C   0  0  0  0  0  0  0  0  0  0  0  0
   32.5170   31.4140   31.9860 H   0  0  0  0  0  0  0  0  0  0  0  0
   34.4110   31.1220   30.8080 N   0  0  0  0  0  0  0  0  0  0  0  0
   34.1940   31.9310   30.1570 H   0  0  0  0  0  0  0  0  0  0  0  0
   35.3750   30.2130   30.9760 N   0  0  0  0  0  0  0  0  0  0  0  0
  1  2  1  0  0  0  0
  1  4  1  1  0  0  0
  1 11  1  0  0  0  0
  2  6  1  0  0  0  0
  2  5  1  0  0  0  0
  3  7  1  6  0  0  0
  3  1  1  0  0  0  0
  3  2  1  0  0  0  0
  8  9  1  0  0  0  0
  9 13  1  0  0  0  0
 10  9  2  0  0  0  0
 10 14  1  0  0  0  0
 11 10  1  0  0  0  0
 12 11  1  0  0  0  0
 12  8  2  0  0  0  0
 15 16  1  0  0  0  0
 16  8  1  0  0  0  0
 16 17  2  0  0  0  0
 17 22  1  0  0  0  0
 18 17  1  0  0  0  0
 19 18  2  0  0  0  0
 20 15  2  0  0  0  0
 20 19  1  0  0  0  0
 21 15  1  0  0  0  0
 23 19  1  0  0  0  0
 24  3  1  0  0  0  0
 25 24  2  0  0  0  0
 26 27  1  0  0  0  0
 26 25  1  0  0  0  0
 27 28  2  0  0  0  0
 28 24  1  0  0  0  0
 29 25  1  0  0  0  0
 30 26  1  0  0  0  0
 31 27  1  0  0  0  0
 31 32  1  0  0  0  0
 32 33  1  0  0  0  0
 34 35  1  0  0  0  0
 34 32  2  0  0  0  0
 36 38  1  0  0  0  0
 36 34  1  0  0  0  0
 37 36  1  0  0  0  0
 38 31  2  0  0  0  0
M  END
>  <minimizedAffinity>
-5.7213583

$$$$

 OpenBabel03272500493D

 38 42  0  0  1  0  0  0  0  0999 V2000
   36.6370   27.0280   32.5550 C   0  0  1  0  0  0  0  0  0  0  0  0
   37.5960   27.9160   31.6900 C   0  0  0  0  0  0  0  0  0  0  0  0
   36.1670   28.2610   31.8980 C   0  0  2  0  0  0  0  0  0  0  0  0
   36.9320   26.9770   33.6170 H   0  0  0  0  0  0  0  0  0  0  0  0
   37.9290   27.4720   30.7350 H   0  0  0  0  0  0  0  0  0  0  0  0
   38.3250   28.5320   32.2610 H   0  0  0  0  0  0  0  0  0  0  0  0
   35.5030   28.1200   31.0460 H   0  0  0  0  0  0  0  0  0  0  0  0
   36.3400   23.5600   31.5990 C   0  0  0  0  0  0  0  0  0  0  0  0
   35.3460   24.1170   30.8280 C   0  0  0  0  0  0  0  0  0  0  0  0
   35.3180   25.4990   31.0790 C   0  0  0  0  0  0  0  0  0  0  0  0
   36.2870   25.7380   31.9860 N   0  0  0  0  0  0  0  0  0  0  0  0
   36.8490   24.5930   32.2570 N   0  0  0  0  0  0  0  0  0  0  0  0
   34.6620   23.6410   30.1260 H   0  0  0  0  0  0  0  0  0  0  0  0
   34.6390   26.1920   30.6140 H   0  0  0  0  0  0  0  0  0  0  0  0
   35.8500   21.1680   31.0280 C   0  0  0  0  0  0  0  0  0  0  0  0
   36.6670   22.1610   31.6120 C   0  0  0  0  0  0  0  0  0  0  0  0
   37.8410   21.7350   32.2250 C   0  0  0  0  0  0  0  0  0  0  0  0
   38.1310   20.4070   32.2260 N   0  0  0  0  0  0  0  0  0  0  0  0
   37.3260   19.4910   31.6580 C   0  0  0  0  0  0  0  0  0  0  0  0
   36.1690   19.8770   31.0500 N   0  0  0  0  0  0  0  0  0  0  0  0
   34.9620   21.5920   30.5780 H   0  0  0  0  0  0  0  0  0  0  0  0
   38.4680   22.4900   32.6730 H   0  0  0  0  0  0  0  0  0  0  0  0
   37.5690   18.4350   31.6660 H   0  0  0  0  0  0  0  0  0  0  0  0
   35.8110   29.4500   32.7440 C   0  0  0  0  0  0  0  0  0  0  0  0
   35.9410   30.7780   32.3030 C   0  0  0  0  0  0  0  0  0  0  0  0
   35.5350   31.5820   33.3220 N   0  0  0  0  0  0  0  0  0  0  0  0
   35.1640   30.7870   34.3630 C   0  0  0  0  0  0  0  0  0  0  0  0
   35.3310   29.4820   34.0120 N   0  0  0  0  0  0  0  0  0  0  0  0
   36.2960   31.1080   31.3410 H   0  0  0  0  0  0  0  0  0  0  0  0
   35.5370   32.6180   33.2440 H   0  0  0  0  0  0  0  0  0  0  0  0
   34.6710   31.3160   35.6300 C   0  0  0  0  0  0  0  0  0  0  0  0
   33.3820   31.3010   36.1060 C   0  0  0  0  0  0  0  0  0  0  0  0
   32.5860   30.8580   35.5250 H   0  0  0  0  0  0  0  0  0  0  0  0
   33.4070   31.9140   37.3360 C   0  0  0  0  0  0  0  0  0  0  0  0
   32.4890   32.0080   37.8900 H   0  0  0  0  0  0  0  0  0  0  0  0
   34.6980   32.2830   37.5720 N   0  0  0  0  0  0  0  0  0  0  0  0
   34.8260   32.7710   38.5060 H   0  0  0  0  0  0  0  0  0  0  0  0
   35.4510   31.9160   36.5320 N   0  0  0  0  0  0  0  0  0  0  0  0
  1  4  1  1  0  0  0
  2  3  1  0  0  0  0
  2  6  1  0  0  0  0
  2  1  1  0  0  0  0
  3  7  1  6  0  0  0
  3  1  1  0  0  0  0
  3 24  1  0  0  0  0
  5  2  1  0  0  0  0
  8 16  1  0  0  0  0
  8 12  2  0  0  0  0
  9 10  2  0  0  0  0
  9  8  1  0  0  0  0
 10 11  1  0  0  0  0
 11 12  1  0  0  0  0
 11  1  1  0  0  0  0
 13  9  1  0  0  0  0
 14 10  1  0  0  0  0
 15 20  2  0  0  0  0
 15 16  1  0  0  0  0
 16 17  2  0  0  0  0
 17 18  1  0  0  0  0
 17 22  1  0  0  0  0
 19 23  1  0  0  0  0
 19 18  2  0  0  0  0
 20 19  1  0  0  0  0
 21 15  1  0  0  0  0
 24 28  1  0  0  0  0
 25 24  2  0  0  0  0
 25 26  1  0  0  0  0
 26 27  1  0  0  0  0
 27 31  1  0  0  0  0
 28 27  2  0  0  0  0
 29 25  1  0  0  0  0
 30 26  1  0  0  0  0
 31 32  1  0  0  0  0
 31 38  2  0  0  0  0
 32 34  2  0  0  0  0
 33 32  1  0  0  0  0
 34 36  1  0  0  0  0
 34 35  1  0  0  0  0
 36 37  1  0  0  0  0
 38 36  1  0  0  0  0
M  END
>  <minimizedAffinity>
-5.68955898

$$$$

 OpenBabel03272500493D

 38 42  0  0  1  0  0  0  0  0999 V2000
   38.1760   26.6980   34.5530 C   0  0  1  0  0  0  0  0  0  0  0  0
   38.6830   27.2700   35.9220 C   0  0  0  0  0  0  0  0  0  0  0  0
   37.8150   26.0680   35.8360 C   0  0  2  0  0  0  0  0  0  0  0  0
   38.9920   26.3370   33.9040 H   0  0  0  0  0  0  0  0  0  0  0  0
   38.2580   28.2450   36.2200 H   0  0  0  0  0  0  0  0  0  0  0  0
   39.7520   27.0730   36.1570 H   0  0  0  0  0  0  0  0  0  0  0  0
   36.7800   26.1930   36.1500 H   0  0  0  0  0  0  0  0  0  0  0  0
   35.5030   28.9000   33.5380 C   0  0  0  0  0  0  0  0  0  0  0  0
   35.9860   28.5120   32.3090 C   0  0  0  0  0  0  0  0  0  0  0  0
   37.0590   27.6300   32.5190 C   0  0  0  0  0  0  0  0  0  0  0  0
   37.1940   27.5090   33.8550 N   0  0  0  0  0  0  0  0  0  0  0  0
   36.2770   28.2590   34.4030 N   0  0  0  0  0  0  0  0  0  0  0  0
   35.6510   28.7930   31.3120 H   0  0  0  0  0  0  0  0  0  0  0  0
   37.6300   27.1650   31.7350 H   0  0  0  0  0  0  0  0  0  0  0  0
   34.1870   30.9440   32.9210 C   0  0  0  0  0  0  0  0  0  0  0  0
   34.4020   29.8050   33.7270 C   0  0  0  0  0  0  0  0  0  0  0  0
   33.4870   29.5710   34.7480 C   0  0  0  0  0  0  0  0  0  0  0  0
   32.4530   30.4380   34.9090 N   0  0  0  0  0  0  0  0  0  0  0  0
   32.2830   31.5140   34.1190 C   0  0  0  0  0  0  0  0  0  0  0  0
   33.1620   31.7710   33.1100 N   0  0  0  0  0  0  0  0  0  0  0  0
   34.9460   31.0450   32.1560 H   0  0  0  0  0  0  0  0  0  0  0  0
   33.6460   28.7010   35.3670 H   0  0  0  0  0  0  0  0  0  0  0  0
   31.4540   32.1980   34.2590 H   0  0  0  0  0  0  0  0  0  0  0  0
   38.3870   24.7210   36.1750 C   0  0  0  0  0  0  0  0  0  0  0  0
   37.6430   23.6970   36.7840 C   0  0  0  0  0  0  0  0  0  0  0  0
   38.4750   22.6340   36.9430 N   0  0  0  0  0  0  0  0  0  0  0  0
   39.6960   22.9780   36.4510 C   0  0  0  0  0  0  0  0  0  0  0  0
   39.6460   24.2550   35.9800 N   0  0  0  0  0  0  0  0  0  0  0  0
   36.6060   23.7380   37.0770 H   0  0  0  0  0  0  0  0  0  0  0  0
   38.1590   21.7430   37.3760 H   0  0  0  0  0  0  0  0  0  0  0  0
   40.8390   22.0720   36.4570 C   0  0  0  0  0  0  0  0  0  0  0  0
   41.4630   21.5090   37.5450 C   0  0  0  0  0  0  0  0  0  0  0  0
   41.1160   21.7180   38.5470 H   0  0  0  0  0  0  0  0  0  0  0  0
   42.4860   20.7320   37.0570 C   0  0  0  0  0  0  0  0  0  0  0  0
   43.1080   20.1930   37.7510 H   0  0  0  0  0  0  0  0  0  0  0  0
   42.4580   20.8420   35.6980 N   0  0  0  0  0  0  0  0  0  0  0  0
   43.2160   20.2740   35.2200 H   0  0  0  0  0  0  0  0  0  0  0  0
   41.4580   21.6570   35.3500 N   0  0  0  0  0  0  0  0  0  0  0  0
  1  4  1  6  0  0  0
  1  3  1  0  0  0  0
  1  2  1  0  0  0  0
  2  6  1  0  0  0  0
  2  5  1  0  0  0  0
  3  2  1  0  0  0  0
  3  7  1  1  0  0  0
  3 24  1  0  0  0  0
  8 16  1  0  0  0  0
  8 12  2  0  0  0  0
  9 10  2  0  0  0  0
  9  8  1  0  0  0  0
 10 11  1  0  0  0  0
 11 12  1  0  0  0  0
 11  1  1  0  0  0  0
 13  9  1  0  0  0  0
 14 10  1  0  0  0  0
 15 20  2  0  0  0  0
 15 16  1  0  0  0  0
 16 17  2  0  0  0  0
 17 18  1  0  0  0  0
 17 22  1  0  0  0  0
 19 23  1  0  0  0  0
 19 18  2  0  0  0  0
 20 19  1  0  0  0  0
 21 15  1  0  0  0  0
 24 25  2  0  0  0  0
 25 26  1  0  0  0  0
 25 29  1  0  0  0  0
 26 30  1  0  0  0  0
 27 31  1  0  0  0  0
 27 26  1  0  0  0  0
 28 24  1  0  0  0  0
 28 27  2  0  0  0  0
 31 32  1  0  0  0  0
 32 33  1  0  0  0  0
 34 32  2  0  0  0  0
 34 35  1  0  0  0  0
 36 34  1  0  0  0  0
 37 36  1  0  0  0  0
 38 36  1  0  0  0  0
 38 31  2  0  0  0  0
M  END
>  <minimizedAffinity>
-5.57817411

$$$$

 OpenBabel03272500493D

 38 42  0  0  1  0  0  0  0  0999 V2000
   37.7500   26.9610   32.8670 C   0  0  1  0  0  0  0  0  0  0  0  0
   37.7080   27.6440   31.4570 C   0  0  0  0  0  0  0  0  0  0  0  0
   36.5200   27.5840   32.3460 C   0  0  2  0  0  0  0  0  0  0  0  0
   38.4360   27.4620   33.5720 H   0  0  0  0  0  0  0  0  0  0  0  0
   37.7920   26.9620   30.5920 H   0  0  0  0  0  0  0  0  0  0  0  0
   38.2060   28.6360   31.3890 H   0  0  0  0  0  0  0  0  0  0  0  0
   35.7280   26.8960   32.0540 H   0  0  0  0  0  0  0  0  0  0  0  0
   37.3020   23.3850   32.6720 C   0  0  0  0  0  0  0  0  0  0  0  0
   38.6350   23.4510   33.0070 C   0  0  0  0  0  0  0  0  0  0  0  0
   38.9900   24.8050   33.1280 C   0  0  0  0  0  0  0  0  0  0  0  0
   37.8730   25.5140   32.8650 N   0  0  0  0  0  0  0  0  0  0  0  0
   36.9260   24.6550   32.6070 N   0  0  0  0  0  0  0  0  0  0  0  0
   39.3500   22.6460   33.1690 H   0  0  0  0  0  0  0  0  0  0  0  0
   39.9730   25.1590   33.3830 H   0  0  0  0  0  0  0  0  0  0  0  0
   36.2650   21.2570   33.5000 C   0  0  0  0  0  0  0  0  0  0  0  0
   36.5790   22.1610   32.4610 C   0  0  0  0  0  0  0  0  0  0  0  0
   36.1570   21.8230   31.1800 C   0  0  0  0  0  0  0  0  0  0  0  0
   35.4750   20.6610   31.0020 N   0  0  0  0  0  0  0  0  0  0  0  0
   35.1950   19.8260   32.0200 C   0  0  0  0  0  0  0  0  0  0  0  0
   35.5940   20.1280   33.2860 N   0  0  0  0  0  0  0  0  0  0  0  0
   36.6320   21.6020   34.4580 H   0  0  0  0  0  0  0  0  0  0  0  0
   36.3950   22.5110   30.3820 H   0  0  0  0  0  0  0  0  0  0  0  0
   34.6500   18.9020   31.8640 H   0  0  0  0  0  0  0  0  0  0  0  0
   36.0120   28.8460   32.9840 C   0  0  0  0  0  0  0  0  0  0  0  0
   35.8360   30.0490   32.2810 C   0  0  0  0  0  0  0  0  0  0  0  0
   35.3710   30.9700   33.1680 N   0  0  0  0  0  0  0  0  0  0  0  0
   35.2600   30.3640   34.3820 C   0  0  0  0  0  0  0  0  0  0  0  0
   35.6510   29.0650   34.2730 N   0  0  0  0  0  0  0  0  0  0  0  0
   36.0310   30.2220   31.2350 H   0  0  0  0  0  0  0  0  0  0  0  0
   35.1610   31.9490   32.8900 H   0  0  0  0  0  0  0  0  0  0  0  0
   34.7880   31.0590   35.5750 C   0  0  0  0  0  0  0  0  0  0  0  0
   33.4990   31.1510   36.0420 C   0  0  0  0  0  0  0  0  0  0  0  0
   32.6860   30.6740   35.5130 H   0  0  0  0  0  0  0  0  0  0  0  0
   33.5460   31.9040   37.1910 C   0  0  0  0  0  0  0  0  0  0  0  0
   32.6320   32.0990   37.7250 H   0  0  0  0  0  0  0  0  0  0  0  0
   34.8510   32.2470   37.3900 N   0  0  0  0  0  0  0  0  0  0  0  0
   34.9970   32.8360   38.2600 H   0  0  0  0  0  0  0  0  0  0  0  0
   35.5900   31.7300   36.4040 N   0  0  0  0  0  0  0  0  0  0  0  0
  1  4  1  1  0  0  0
  2  3  1  0  0  0  0
  2  1  1  0  0  0  0
  3  7  1  6  0  0  0
  3  1  1  0  0  0  0
  3 24  1  0  0  0  0
  5  2  1  0  0  0  0
  6  2  1  0  0  0  0
  8  9  1  0  0  0  0
  9 10  2  0  0  0  0
  9 13  1  0  0  0  0
 10 14  1  0  0  0  0
 11  1  1  0  0  0  0
 11 10  1  0  0  0  0
 12  8  2  0  0  0  0
 12 11  1  0  0  0  0
 15 21  1  0  0  0  0
 16  8  1  0  0  0  0
 16 15  2  0  0  0  0
 17 16  1  0  0  0  0
 18 17  2  0  0  0  0
 18 19  1  0  0  0  0
 19 20  2  0  0  0  0
 20 15  1  0  0  0  0
 22 17  1  0  0  0  0
 23 19  1  0  0  0  0
 24 28  1  0  0  0  0
 25 24  2  0  0  0  0
 25 26  1  0  0  0  0
 26 27  1  0  0  0  0
 27 31  1  0  0  0  0
 28 27  2  0  0  0  0
 29 25  1  0  0  0  0
 30 26  1  0  0  0  0
 31 32  1  0  0  0  0
 31 38  2  0  0  0  0
 32 34  2  0  0  0  0
 33 32  1  0  0  0  0
 34 36  1  0  0  0  0
 34 35  1  0  0  0  0
 36 37  1  0  0  0  0
 38 36  1  0  0  0  0
M  END
>  <minimizedAffinity>
-5.49107742

$$$$

 OpenBabel03272500493D

 38 42  0  0  1  0  0  0  0  0999 V2000
   38.9260   26.2100   34.0020 C   0  0  1  0  0  0  0  0  0  0  0  0
   39.1840   26.9800   35.3430 C   0  0  0  0  0  0  0  0  0  0  0  0
   38.3460   25.7560   35.2790 C   0  0  2  0  0  0  0  0  0  0  0  0
   39.8430   25.7840   33.5620 H   0  0  0  0  0  0  0  0  0  0  0  0
   38.7120   27.9750   35.4230 H   0  0  0  0  0  0  0  0  0  0  0  0
   40.1950   26.8450   35.7860 H   0  0  0  0  0  0  0  0  0  0  0  0
   37.2710   25.8960   35.3870 H   0  0  0  0  0  0  0  0  0  0  0  0
   37.5000   28.1790   31.3340 C   0  0  0  0  0  0  0  0  0  0  0  0
   36.3600   27.6350   31.8790 C   0  0  0  0  0  0  0  0  0  0  0  0
   36.7360   26.8180   32.9590 C   0  0  0  0  0  0  0  0  0  0  0  0
   38.0800   26.8910   33.0370 N   0  0  0  0  0  0  0  0  0  0  0  0
   38.4780   27.6850   32.0810 N   0  0  0  0  0  0  0  0  0  0  0  0
   35.3190   27.7650   31.5840 H   0  0  0  0  0  0  0  0  0  0  0  0
   36.0500   26.2640   33.5740 H   0  0  0  0  0  0  0  0  0  0  0  0
   38.0510   28.7210   28.9480 C   0  0  0  0  0  0  0  0  0  0  0  0
   37.5140   29.0700   30.2070 C   0  0  0  0  0  0  0  0  0  0  0  0
   36.9790   30.3480   30.3330 C   0  0  0  0  0  0  0  0  0  0  0  0
   37.0030   31.1750   29.2550 N   0  0  0  0  0  0  0  0  0  0  0  0
   37.5240   30.8040   28.0720 C   0  0  0  0  0  0  0  0  0  0  0  0
   38.0550   29.5590   27.9150 N   0  0  0  0  0  0  0  0  0  0  0  0
   38.4430   27.7120   28.9440 H   0  0  0  0  0  0  0  0  0  0  0  0
   36.5680   30.6200   31.2930 H   0  0  0  0  0  0  0  0  0  0  0  0
   37.5360   31.4740   27.2190 H   0  0  0  0  0  0  0  0  0  0  0  0
   38.8510   24.4840   35.8990 C   0  0  0  0  0  0  0  0  0  0  0  0
   38.0770   23.6800   36.7530 C   0  0  0  0  0  0  0  0  0  0  0  0
   38.8500   22.6250   37.1230 N   0  0  0  0  0  0  0  0  0  0  0  0
   40.0640   22.7620   36.5240 C   0  0  0  0  0  0  0  0  0  0  0  0
   40.0680   23.8980   35.7740 N   0  0  0  0  0  0  0  0  0  0  0  0
   37.0600   23.8590   37.0620 H   0  0  0  0  0  0  0  0  0  0  0  0
   38.5020   21.8810   37.7600 H   0  0  0  0  0  0  0  0  0  0  0  0
   41.1490   21.8030   36.7000 C   0  0  0  0  0  0  0  0  0  0  0  0
   42.0430   21.3580   35.7560 C   0  0  0  0  0  0  0  0  0  0  0  0
   41.9960   21.7210   34.7390 H   0  0  0  0  0  0  0  0  0  0  0  0
   42.8740   20.4640   36.3870 C   0  0  0  0  0  0  0  0  0  0  0  0
   43.6580   19.9910   35.8210 H   0  0  0  0  0  0  0  0  0  0  0  0
   42.4670   20.3890   37.6870 N   0  0  0  0  0  0  0  0  0  0  0  0
   43.0500   19.7190   38.2660 H   0  0  0  0  0  0  0  0  0  0  0  0
   41.4230   21.2040   37.8610 N   0  0  0  0  0  0  0  0  0  0  0  0
  1  4  1  6  0  0  0
  1  3  1  0  0  0  0
  1  2  1  0  0  0  0
  2  5  1  0  0  0  0
  2  6  1  0  0  0  0
  3  2  1  0  0  0  0
  3  7  1  1  0  0  0
  3 24  1  0  0  0  0
  8  9  1  0  0  0  0
  8 12  2  0  0  0  0
  9 10  2  0  0  0  0
 10 11  1  0  0  0  0
 10 14  1  0  0  0  0
 11  1  1  0  0  0  0
 12 11  1  0  0  0  0
 13  9  1  0  0  0  0
 15 16  1  0  0  0  0
 16 17  2  0  0  0  0
 16  8  1  0  0  0  0
 17 22  1  0  0  0  0
 18 17  1  0  0  0  0
 19 18  2  0  0  0  0
 20 19  1  0  0  0  0
 20 15  2  0  0  0  0
 21 15  1  0  0  0  0
 23 19  1  0  0  0  0
 24 25  2  0  0  0  0
 25 29  1  0  0  0  0
 25 26  1  0  0  0  0
 26 30  1  0  0  0  0
 27 31  1  0  0  0  0
 27 26  1  0  0  0  0
 28 24  1  0  0  0  0
 28 27  2  0  0  0  0
 31 38  2  0  0  0  0
 32 34  2  0  0  0  0
 32 31  1  0  0  0  0
 33 32  1  0  0  0  0
 34 36  1  0  0  0  0
 35 34  1  0  0  0  0
 36 38  1  0  0  0  0
 36 37  1  0  0  0  0
M  END
>  <minimizedAffinity>
-5.48036194

$$$$

 OpenBabel03272500493D

 38 42  0  0  1  0  0  0  0  0999 V2000
   37.5130   27.6660   33.6220 C   0  0  1  0  0  0  0  0  0  0  0  0
   37.6350   27.8850   35.1690 C   0  0  0  0  0  0  0  0  0  0  0  0
   37.1070   26.6260   34.5840 C   0  0  2  0  0  0  0  0  0  0  0  0
   38.4880   27.6720   33.1040 H   0  0  0  0  0  0  0  0  0  0  0  0
   36.9440   28.6300   35.6030 H   0  0  0  0  0  0  0  0  0  0  0  0
   38.6650   27.8260   35.5820 H   0  0  0  0  0  0  0  0  0  0  0  0
   36.0350   26.4590   34.6760 H   0  0  0  0  0  0  0  0  0  0  0  0
   34.5350   29.4040   32.5530 C   0  0  0  0  0  0  0  0  0  0  0  0
   35.3990   29.7410   31.5360 C   0  0  0  0  0  0  0  0  0  0  0  0
   36.6390   29.1350   31.7960 C   0  0  0  0  0  0  0  0  0  0  0  0
   36.4940   28.4540   32.9500 N   0  0  0  0  0  0  0  0  0  0  0  0
   35.2660   28.6370   33.3510 N   0  0  0  0  0  0  0  0  0  0  0  0
   35.2270   30.3590   30.6560 H   0  0  0  0  0  0  0  0  0  0  0  0
   37.5070   29.2240   31.1660 H   0  0  0  0  0  0  0  0  0  0  0  0
   32.6340   30.8690   31.8260 C   0  0  0  0  0  0  0  0  0  0  0  0
   33.1680   29.8400   32.6340 C   0  0  0  0  0  0  0  0  0  0  0  0
   32.3060   29.2390   33.5450 C   0  0  0  0  0  0  0  0  0  0  0  0
   31.0190   29.6670   33.6050 N   0  0  0  0  0  0  0  0  0  0  0  0
   30.5470   30.6510   32.8170 C   0  0  0  0  0  0  0  0  0  0  0  0
   31.3650   31.2600   31.9150 N   0  0  0  0  0  0  0  0  0  0  0  0
   33.3750   31.2760   31.1520 H   0  0  0  0  0  0  0  0  0  0  0  0
   32.7100   28.4520   34.1640 H   0  0  0  0  0  0  0  0  0  0  0  0
   29.5170   30.9830   32.8760 H   0  0  0  0  0  0  0  0  0  0  0  0
   37.9220   25.3680   34.6880 C   0  0  0  0  0  0  0  0  0  0  0  0
   38.1240   24.4880   33.6120 C   0  0  0  0  0  0  0  0  0  0  0  0
   38.8990   23.4670   34.0670 N   0  0  0  0  0  0  0  0  0  0  0  0
   39.1720   23.6990   35.3800 C   0  0  0  0  0  0  0  0  0  0  0  0
   38.5760   24.8620   35.7630 N   0  0  0  0  0  0  0  0  0  0  0  0
   37.7400   24.5920   32.6100 H   0  0  0  0  0  0  0  0  0  0  0  0
   39.1910   22.6790   33.4550 H   0  0  0  0  0  0  0  0  0  0  0  0
   39.9850   22.8010   36.1930 C   0  0  0  0  0  0  0  0  0  0  0  0
   41.0530   22.0360   35.7910 C   0  0  0  0  0  0  0  0  0  0  0  0
   41.3880   22.0530   34.7640 H   0  0  0  0  0  0  0  0  0  0  0  0
   41.4940   21.3570   36.9020 C   0  0  0  0  0  0  0  0  0  0  0  0
   42.3360   20.6920   36.8080 H   0  0  0  0  0  0  0  0  0  0  0  0
   40.6880   21.7230   37.9400 N   0  0  0  0  0  0  0  0  0  0  0  0
   40.9470   21.2500   38.8530 H   0  0  0  0  0  0  0  0  0  0  0  0
   39.7800   22.5960   37.4950 N   0  0  0  0  0  0  0  0  0  0  0  0
  1  4  1  6  0  0  0
  1  3  1  0  0  0  0
  1  2  1  0  0  0  0
  2  6  1  0  0  0  0
  2  5  1  0  0  0  0
  3  7  1  1  0  0  0
  3 24  1  0  0  0  0
  3  2  1  0  0  0  0
  8 16  1  0  0  0  0
  8 12  2  0  0  0  0
  9 10  2  0  0  0  0
  9  8  1  0  0  0  0
 10 11  1  0  0  0  0
 11 12  1  0  0  0  0
 11  1  1  0  0  0  0
 13  9  1  0  0  0  0
 14 10  1  0  0  0  0
 15 20  2  0  0  0  0
 15 16  1  0  0  0  0
 16 17  2  0  0  0  0
 17 18  1  0  0  0  0
 17 22  1  0  0  0  0
 19 23  1  0  0  0  0
 19 18  2  0  0  0  0
 20 19  1  0  0  0  0
 21 15  1  0  0  0  0
 24 28  1  0  0  0  0
 25 26  1  0  0  0  0
 25 24  2  0  0  0  0
 26 27  1  0  0  0  0
 27 28  2  0  0  0  0
 27 31  1  0  0  0  0
 29 25  1  0  0  0  0
 30 26  1  0  0  0  0
 31 38  2  0  0  0  0
 32 31  1  0  0  0  0
 32 34  2  0  0  0  0
 33 32  1  0  0  0  0
 34 36  1  0  0  0  0
 35 34  1  0  0  0  0
 36 37  1  0  0  0  0
 38 36  1  0  0  0  0
M  END
>  <minimizedAffinity>
-5.35315943

$$$$

 OpenBabel03272500493D

 38 42  0  0  1  0  0  0  0  0999 V2000
   36.7210   26.1070   32.0290 C   0  0  1  0  0  0  0  0  0  0  0  0
   35.8600   24.9340   31.4470 C   0  0  0  0  0  0  0  0  0  0  0  0
   37.2870   24.7610   31.8230 C   0  0  2  0  0  0  0  0  0  0  0  0
   36.3550   26.4730   33.0030 H   0  0  0  0  0  0  0  0  0  0  0  0
   35.5720   25.0320   30.3850 H   0  0  0  0  0  0  0  0  0  0  0  0
   35.1220   24.4860   32.1480 H   0  0  0  0  0  0  0  0  0  0  0  0
   37.9980   24.6670   31.0040 H   0  0  0  0  0  0  0  0  0  0  0  0
   38.1940   28.3330   29.6000 C   0  0  0  0  0  0  0  0  0  0  0  0
   37.0170   28.9960   29.8640 C   0  0  0  0  0  0  0  0  0  0  0  0
   36.2990   28.2510   30.8140 C   0  0  0  0  0  0  0  0  0  0  0  0
   37.0530   27.1700   31.0960 N   0  0  0  0  0  0  0  0  0  0  0  0
   38.1350   27.2580   30.3740 N   0  0  0  0  0  0  0  0  0  0  0  0
   36.6400   29.9310   29.4520 H   0  0  0  0  0  0  0  0  0  0  0  0
   35.3380   28.5300   31.2100 H   0  0  0  0  0  0  0  0  0  0  0  0
   39.5140   28.1100   27.4790 C   0  0  0  0  0  0  0  0  0  0  0  0
   39.1920   28.7920   28.6730 C   0  0  0  0  0  0  0  0  0  0  0  0
   39.8920   29.9640   28.9400 C   0  0  0  0  0  0  0  0  0  0  0  0
   40.8310   30.3800   28.0510 N   0  0  0  0  0  0  0  0  0  0  0  0
   41.1100   29.7010   26.9230 C   0  0  0  0  0  0  0  0  0  0  0  0
   40.4410   28.5500   26.6320 N   0  0  0  0  0  0  0  0  0  0  0  0
   38.9210   27.2140   27.3560 H   0  0  0  0  0  0  0  0  0  0  0  0
   39.6500   30.4890   29.8520 H   0  0  0  0  0  0  0  0  0  0  0  0
   41.8620   30.0440   26.2220 H   0  0  0  0  0  0  0  0  0  0  0  0
   37.6360   23.9240   33.0210 C   0  0  0  0  0  0  0  0  0  0  0  0
   37.6580   22.5200   33.0020 C   0  0  0  0  0  0  0  0  0  0  0  0
   38.0090   22.1050   34.2480 N   0  0  0  0  0  0  0  0  0  0  0  0
   38.2000   23.2100   35.0200 C   0  0  0  0  0  0  0  0  0  0  0  0
   37.9730   24.3240   34.2720 N   0  0  0  0  0  0  0  0  0  0  0  0
   37.4380   21.8810   32.1610 H   0  0  0  0  0  0  0  0  0  0  0  0
   38.0950   21.0990   34.4930 H   0  0  0  0  0  0  0  0  0  0  0  0
   38.5880   23.1390   36.4250 C   0  0  0  0  0  0  0  0  0  0  0  0
   37.9800   23.7420   37.4990 C   0  0  0  0  0  0  0  0  0  0  0  0
   37.1010   24.3560   37.3610 H   0  0  0  0  0  0  0  0  0  0  0  0
   38.7010   23.3870   38.6140 C   0  0  0  0  0  0  0  0  0  0  0  0
   38.3900   23.7570   39.5760 H   0  0  0  0  0  0  0  0  0  0  0  0
   39.7210   22.5860   38.1920 N   0  0  0  0  0  0  0  0  0  0  0  0
   40.3440   22.2550   38.9840 H   0  0  0  0  0  0  0  0  0  0  0  0
   39.6400   22.4460   36.8660 N   0  0  0  0  0  0  0  0  0  0  0  0
  1  4  1  1  0  0  0
  2  3  1  0  0  0  0
  2  1  1  0  0  0  0
  2  6  1  0  0  0  0
  3  7  1  6  0  0  0
  3  1  1  0  0  0  0
  3 24  1  0  0  0  0
  5  2  1  0  0  0  0
  8  9  1  0  0  0  0
  8 12  2  0  0  0  0
  9 10  2  0  0  0  0
 10 11  1  0  0  0  0
 10 14  1  0  0  0  0
 11  1  1  0  0  0  0
 12 11  1  0  0  0  0
 13  9  1  0  0  0  0
 15 16  1  0  0  0  0
 16 17  2  0  0  0  0
 16  8  1  0  0  0  0
 17 22  1  0  0  0  0
 18 17  1  0  0  0  0
 19 18  2  0  0  0  0
 20 19  1  0  0  0  0
 20 15  2  0  0  0  0
 21 15  1  0  0  0  0
 23 19  1  0  0  0  0
 24 28  1  0  0  0  0
 25 24  2  0  0  0  0
 25 26  1  0  0  0  0
 26 30  1  0  0  0  0
 26 27  1  0  0  0  0
 27 31  1  0  0  0  0
 28 27  2  0  0  0  0
 29 25  1  0  0  0  0
 31 38  2  0  0  0  0
 31 32  1  0  0  0  0
 32 34  2  0  0  0  0
 33 32  1  0  0  0  0
 34 35  1  0  0  0  0
 36 34  1  0  0  0  0
 36 37  1  0  0  0  0
 38 36  1  0  0  0  0
M  END
>  <minimizedAffinity>
-5.32735777

$$$$

 OpenBabel03272500493D

 38 42  0  0  1  0  0  0  0  0999 V2000
   36.3330   27.7480   32.6330 C   0  0  1  0  0  0  0  0  0  0  0  0
   37.5480   27.4210   31.6990 C   0  0  0  0  0  0  0  0  0  0  0  0
   37.6710   27.4590   33.1790 C   0  0  2  0  0  0  0  0  0  0  0  0
   35.5240   27.0000   32.5720 H   0  0  0  0  0  0  0  0  0  0  0  0
   37.9210   28.2610   31.0870 H   0  0  0  0  0  0  0  0  0  0  0  0
   37.5440   26.4060   31.2450 H   0  0  0  0  0  0  0  0  0  0  0  0
   38.2040   28.3090   33.6010 H   0  0  0  0  0  0  0  0  0  0  0  0
   35.3930   31.1720   33.2820 C   0  0  0  0  0  0  0  0  0  0  0  0
   35.0060   31.0520   31.9670 C   0  0  0  0  0  0  0  0  0  0  0  0
   35.3050   29.7480   31.5390 C   0  0  0  0  0  0  0  0  0  0  0  0
   35.8590   29.1200   32.5960 N   0  0  0  0  0  0  0  0  0  0  0  0
   35.8900   29.9790   33.5780 N   0  0  0  0  0  0  0  0  0  0  0  0
   34.5450   31.7880   31.3090 H   0  0  0  0  0  0  0  0  0  0  0  0
   35.1110   29.3690   30.5510 H   0  0  0  0  0  0  0  0  0  0  0  0
   34.3030   33.3770   33.7690 C   0  0  0  0  0  0  0  0  0  0  0  0
   35.2460   32.3690   34.0640 C   0  0  0  0  0  0  0  0  0  0  0  0
   36.0620   32.5710   35.1720 C   0  0  0  0  0  0  0  0  0  0  0  0
   35.9070   33.7090   35.8970 N   0  0  0  0  0  0  0  0  0  0  0  0
   34.9950   34.6480   35.5830 C   0  0  0  0  0  0  0  0  0  0  0  0
   34.1810   34.4790   34.5040 N   0  0  0  0  0  0  0  0  0  0  0  0
   33.7150   33.1340   32.8930 H   0  0  0  0  0  0  0  0  0  0  0  0
   36.7850   31.8030   35.4020 H   0  0  0  0  0  0  0  0  0  0  0  0
   34.8820   35.5510   36.1710 H   0  0  0  0  0  0  0  0  0  0  0  0
   37.8920   26.1780   33.9330 C   0  0  0  0  0  0  0  0  0  0  0  0
   37.8500   24.9100   33.3300 C   0  0  0  0  0  0  0  0  0  0  0  0
   38.0890   23.9920   34.3050 N   0  0  0  0  0  0  0  0  0  0  0  0
   38.2750   24.6610   35.4760 C   0  0  0  0  0  0  0  0  0  0  0  0
   38.1550   25.9990   35.2520 N   0  0  0  0  0  0  0  0  0  0  0  0
   37.6630   24.6940   32.2910 H   0  0  0  0  0  0  0  0  0  0  0  0
   38.1100   22.9710   34.1110 H   0  0  0  0  0  0  0  0  0  0  0  0
   38.5550   23.9880   36.7390 C   0  0  0  0  0  0  0  0  0  0  0  0
   38.0210   24.2590   37.9760 C   0  0  0  0  0  0  0  0  0  0  0  0
   37.2980   25.0530   38.1020 H   0  0  0  0  0  0  0  0  0  0  0  0
   38.5850   23.3670   38.8560 C   0  0  0  0  0  0  0  0  0  0  0  0
   38.3000   23.4060   39.8930 H   0  0  0  0  0  0  0  0  0  0  0  0
   39.4400   22.5850   38.1380 N   0  0  0  0  0  0  0  0  0  0  0  0
   39.9330   21.8560   38.7300 H   0  0  0  0  0  0  0  0  0  0  0  0
   39.4120   22.9720   36.8600 N   0  0  0  0  0  0  0  0  0  0  0  0
  1  4  1  1  0  0  0
  1  3  1  0  0  0  0
  2  1  1  0  0  0  0
  2  3  1  0  0  0  0
  3  7  1  1  0  0  0
  3 24  1  0  0  0  0
  5  2  1  0  0  0  0
  6  2  1  0  0  0  0
  8 12  2  0  0  0  0
  8 16  1  0  0  0  0
  9  8  1  0  0  0  0
 10  9  2  0  0  0  0
 10 11  1  0  0  0  0
 11  1  1  0  0  0  0
 11 12  1  0  0  0  0
 13  9  1  0  0  0  0
 14 10  1  0  0  0  0
 15 16  2  0  0  0  0
 15 20  1  0  0  0  0
 16 17  1  0  0  0  0
 17 22  1  0  0  0  0
 17 18  2  0  0  0  0
 19 18  1  0  0  0  0
 19 23  1  0  0  0  0
 20 19  2  0  0  0  0
 21 15  1  0  0  0  0
 24 28  1  0  0  0  0
 25 24  2  0  0  0  0
 25 26  1  0  0  0  0
 26 27  1  0  0  0  0
 27 31  1  0  0  0  0
 28 27  2  0  0  0  0
 29 25  1  0  0  0  0
 30 26  1  0  0  0  0
 31 38  2  0  0  0  0
 31 32  1  0  0  0  0
 32 33  1  0  0  0  0
 32 34  2  0  0  0  0
 34 35  1  0  0  0  0
 36 37  1  0  0  0  0
 36 34  1  0  0  0  0
 38 36  1  0  0  0  0
M  END
>  <minimizedAffinity>
-5.31193542

$$$$
