
 OpenBabel03272503083D

 44 48  0  0  0  0  0  0  0  0999 V2000
   39.2050   31.9150   44.9390 C   0  0  0  0  0  0  0  0  0  0  0  0
   38.1110   32.5530   45.0770 O   0  0  0  0  0  0  0  0  0  0  0  0
   39.9120   31.6600   46.1440 N   0  0  0  0  0  0  0  0  0  0  0  0
   40.7990   31.1460   46.0750 H   0  0  0  0  0  0  0  0  0  0  0  0
   39.0020   32.1660   42.5580 C   0  0  0  0  0  0  0  0  0  0  0  0
   39.6180   31.5200   43.6140 C   0  0  0  0  0  0  0  0  0  0  0  0
   40.5790   30.5460   43.4350 C   0  0  0  0  0  0  0  0  0  0  0  0
   40.9510   30.1910   42.1510 C   0  0  0  0  0  0  0  0  0  0  0  0
   41.8420   29.2920   41.6910 N   0  0  0  0  0  0  0  0  0  0  0  0
   41.7940   29.3660   40.3480 C   0  0  0  0  0  0  0  0  0  0  0  0
   40.8910   30.2920   39.9760 N   0  0  0  0  0  0  0  0  0  0  0  0
   40.3410   30.8310   41.0990 C   0  0  0  0  0  0  0  0  0  0  0  0
   39.3840   31.8010   41.2690 C   0  0  0  0  0  0  0  0  0  0  0  0
   38.2590   32.9190   42.7250 H   0  0  0  0  0  0  0  0  0  0  0  0
   41.0340   30.0680   44.2980 H   0  0  0  0  0  0  0  0  0  0  0  0
   42.4650   28.6490   42.2410 H   0  0  0  0  0  0  0  0  0  0  0  0
   42.3430   28.8210   39.5950 H   0  0  0  0  0  0  0  0  0  0  0  0
   38.7430   32.4730   40.1430 C   0  0  0  0  0  0  0  0  0  0  0  0
   37.9940   31.8870   39.1480 C   0  0  0  0  0  0  0  0  0  0  0  0
   37.7480   30.8340   39.0240 H   0  0  0  0  0  0  0  0  0  0  0  0
   37.6170   32.9530   38.3260 C   0  0  0  0  0  0  0  0  0  0  0  0
   37.0090   32.8190   37.4400 H   0  0  0  0  0  0  0  0  0  0  0  0
   38.1310   34.1140   38.8290 N   0  0  0  0  0  0  0  0  0  0  0  0
   37.9350   35.0090   38.3230 H   0  0  0  0  0  0  0  0  0  0  0  0
   38.8120   33.8000   39.9340 N   0  0  0  0  0  0  0  0  0  0  0  0
   38.0800   30.1550   47.4930 F   0  0  0  0  0  0  0  0  0  0  0  0
   38.3560   31.3890   47.9900 C   0  0  0  0  0  0  0  0  0  0  0  0
   37.7150   31.8140   49.1220 C   0  0  0  0  0  0  0  0  0  0  0  0
   38.0390   33.0680   49.5690 C   0  0  0  0  0  0  0  0  0  0  0  0
   38.9540   33.8850   48.9420 C   0  0  0  0  0  0  0  0  0  0  0  0
   39.5780   33.4170   47.8020 C   0  0  0  0  0  0  0  0  0  0  0  0
   39.2810   32.1670   47.3210 C   0  0  0  0  0  0  0  0  0  0  0  0
   37.5460   33.4340   50.4690 H   0  0  0  0  0  0  0  0  0  0  0  0
   39.1430   34.8600   49.3710 H   0  0  0  0  0  0  0  0  0  0  0  0
   40.2930   34.0660   47.3180 H   0  0  0  0  0  0  0  0  0  0  0  0
   36.0930   29.3470   51.4720 C   0  0  0  0  0  0  0  0  0  0  0  0
   37.0420   30.1980   50.8820 C   0  0  0  0  0  0  0  0  0  0  0  0
   36.7550   30.9230   49.7580 C   0  0  0  0  0  0  0  0  0  0  0  0
   35.4970   30.7800   49.2340 N   0  0  0  0  0  0  0  0  0  0  0  0
   34.5870   29.9680   49.7930 C   0  0  0  0  0  0  0  0  0  0  0  0
   34.8770   29.2670   50.8870 N   0  0  0  0  0  0  0  0  0  0  0  0
   36.3440   28.7800   52.3640 H   0  0  0  0  0  0  0  0  0  0  0  0
   38.0310   30.2720   51.3440 H   0  0  0  0  0  0  0  0  0  0  0  0
   33.5920   29.8600   49.3730 H   0  0  0  0  0  0  0  0  0  0  0  0
  1  2  2  0  0  0  0
  1  3  1  0  0  0  0
  3 32  1  0  0  0  0
  4  3  1  0  0  0  0
  5 14  1  0  0  0  0
  5  6  1  0  0  0  0
  6  1  1  0  0  0  0
  7  6  2  0  0  0  0
  7 15  1  0  0  0  0
  8  7  1  0  0  0  0
  9  8  1  0  0  0  0
  9 16  1  0  0  0  0
 10  9  1  0  0  0  0
 11 10  2  0  0  0  0
 11 12  1  0  0  0  0
 12 13  1  0  0  0  0
 12  8  2  0  0  0  0
 13  5  2  0  0  0  0
 17 10  1  0  0  0  0
 18 13  1  0  0  0  0
 19 18  1  0  0  0  0
 20 19  1  0  0  0  0
 21 23  1  0  0  0  0
 21 19  2  0  0  0  0
 22 21  1  0  0  0  0
 23 25  1  0  0  0  0
 24 23  1  0  0  0  0
 25 18  2  0  0  0  0
 26 27  1  0  0  0  0
 27 28  1  0  0  0  0
 28 29  2  0  0  0  0
 28 38  1  0  0  0  0
 29 33  1  0  0  0  0
 30 34  1  0  0  0  0
 30 29  1  0  0  0  0
 31 30  2  0  0  0  0
 32 31  1  0  0  0  0
 32 27  2  0  0  0  0
 35 31  1  0  0  0  0
 36 42  1  0  0  0  0
 37 43  1  0  0  0  0
 37 36  2  0  0  0  0
 38 37  1  0  0  0  0
 39 38  2  0  0  0  0
 39 40  1  0  0  0  0
 40 41  2  0  0  0  0
 41 36  1  0  0  0  0
 44 40  1  0  0  0  0
M  END
>  <minimizedAffinity>
-7.43201876

>  <minimizedRMSD>
0.251861334

$$$$
