
 OpenBabel03272510063D

 29 31  0  0  0  0  0  0  0  0999 V2000
   34.6550   28.8870   49.7710 C   0  0  0  0  0  0  0  0  0  0  0  0
   35.4190   29.5700   48.8210 C   0  0  0  0  0  0  0  0  0  0  0  0
   34.9590   29.5990   47.5040 C   0  0  0  0  0  0  0  0  0  0  0  0
   33.7860   28.9620   47.1850 N   0  0  0  0  0  0  0  0  0  0  0  0
   33.0870   28.3140   48.1500 C   0  0  0  0  0  0  0  0  0  0  0  0
   33.5000   28.2660   49.4280 N   0  0  0  0  0  0  0  0  0  0  0  0
   31.8640   27.6630   47.7560 N   0  0  0  0  0  0  0  0  0  0  0  0
   30.7310   28.3370   47.1720 C   0  0  0  0  0  0  0  0  0  0  0  0
   29.8530   27.2520   46.6520 C   0  0  0  0  0  0  0  0  0  0  0  0
   30.6220   25.9540   46.8200 C   0  0  0  0  0  0  0  0  0  0  0  0
   31.6040   26.2310   47.8940 C   0  0  0  0  0  0  0  0  0  0  0  0
   34.9430   28.8210   50.8020 H   0  0  0  0  0  0  0  0  0  0  0  0
   35.5510   30.1230   46.7920 H   0  0  0  0  0  0  0  0  0  0  0  0
   30.2070   28.9670   47.9440 H   0  0  0  0  0  0  0  0  0  0  0  0
   31.0810   29.0440   46.3950 H   0  0  0  0  0  0  0  0  0  0  0  0
   29.6930   27.3760   45.5510 H   0  0  0  0  0  0  0  0  0  0  0  0
   28.8700   27.2330   47.1230 H   0  0  0  0  0  0  0  0  0  0  0  0
   31.1570   25.6730   45.8910 H   0  0  0  0  0  0  0  0  0  0  0  0
   29.9200   25.1660   47.1570 H   0  0  0  0  0  0  0  0  0  0  0  0
   31.2700   25.9690   48.9070 H   0  0  0  0  0  0  0  0  0  0  0  0
   32.5990   25.7320   47.7420 H   0  0  0  0  0  0  0  0  0  0  0  0
   36.6560   30.2260   49.2230 C   0  0  0  0  0  0  0  0  0  0  0  0
   37.1070   31.4490   48.7770 C   0  0  0  0  0  0  0  0  0  0  0  0
   36.6610   32.1390   48.0750 H   0  0  0  0  0  0  0  0  0  0  0  0
   38.3180   31.6090   49.4610 C   0  0  0  0  0  0  0  0  0  0  0  0
   38.9350   32.4960   49.3240 H   0  0  0  0  0  0  0  0  0  0  0  0
   38.5570   30.5320   50.2630 N   0  0  0  0  0  0  0  0  0  0  0  0
   39.4200   30.4580   50.8640 H   0  0  0  0  0  0  0  0  0  0  0  0
   37.5290   29.7030   50.1000 N   0  0  0  0  0  0  0  0  0  0  0  0
  1 12  1  0  0  0  0
  2 22  1  0  0  0  0
  2  1  2  0  0  0  0
  3  2  1  0  0  0  0
  4  3  2  0  0  0  0
  4  5  1  0  0  0  0
  5  6  2  0  0  0  0
  6  1  1  0  0  0  0
  7 11  1  0  0  0  0
  7  5  1  0  0  0  0
  8  7  1  0  0  0  0
  8 14  1  0  0  0  0
  9 10  1  0  0  0  0
  9 17  1  0  0  0  0
  9  8  1  0  0  0  0
 10 19  1  0  0  0  0
 10 11  1  0  0  0  0
 11 20  1  0  0  0  0
 13  3  1  0  0  0  0
 15  8  1  0  0  0  0
 16  9  1  0  0  0  0
 18 10  1  0  0  0  0
 21 11  1  0  0  0  0
 22 29  2  0  0  0  0
 23 22  1  0  0  0  0
 23 25  2  0  0  0  0
 24 23  1  0  0  0  0
 25 27  1  0  0  0  0
 26 25  1  0  0  0  0
 27 28  1  0  0  0  0
 29 27  1  0  0  0  0
M  END
>  <minimizedAffinity>
-4.92836428

>  <minimizedRMSD>
5.14327574

$$$$
