
 OpenBabel03272510323D

 27 29  0  0  0  0  0  0  0  0999 V2000
   35.9660   30.1580   48.3310 C   0  0  0  0  0  0  0  0  0  0  0  0
   35.1590   30.0860   47.2240 C   0  0  0  0  0  0  0  0  0  0  0  0
   34.1300   29.1660   47.1560 C   0  0  0  0  0  0  0  0  0  0  0  0
   33.9300   28.3250   48.2180 C   0  0  0  0  0  0  0  0  0  0  0  0
   34.7330   28.3720   49.3620 C   0  0  0  0  0  0  0  0  0  0  0  0
   35.7620   29.3040   49.4090 C   0  0  0  0  0  0  0  0  0  0  0  0
   35.2920   30.7340   46.3730 H   0  0  0  0  0  0  0  0  0  0  0  0
   33.4620   29.0520   46.3310 H   0  0  0  0  0  0  0  0  0  0  0  0
   33.1520   27.5740   48.2570 H   0  0  0  0  0  0  0  0  0  0  0  0
   34.5800   27.7110   50.2020 H   0  0  0  0  0  0  0  0  0  0  0  0
   37.9410   33.0610   49.3040 C   0  0  0  0  0  0  0  0  0  0  0  0
   39.0010   33.0800   48.4030 C   0  0  0  0  0  0  0  0  0  0  0  0
   39.0330   32.0490   47.4200 C   0  0  0  0  0  0  0  0  0  0  0  0
   38.0380   31.1330   47.4350 N   0  0  0  0  0  0  0  0  0  0  0  0
   37.0270   31.1470   48.3260 C   0  0  0  0  0  0  0  0  0  0  0  0
   37.0010   32.1200   49.2490 N   0  0  0  0  0  0  0  0  0  0  0  0
   37.9720   33.8680   50.0240 H   0  0  0  0  0  0  0  0  0  0  0  0
   39.8210   33.7750   48.3340 H   0  0  0  0  0  0  0  0  0  0  0  0
   39.7810   31.9170   46.6490 H   0  0  0  0  0  0  0  0  0  0  0  0
   36.6150   29.3770   50.5910 C   0  0  0  0  0  0  0  0  0  0  0  0
   37.6820   28.4720   50.6090 C   0  0  0  0  0  0  0  0  0  0  0  0
   38.0720   27.7000   49.9650 H   0  0  0  0  0  0  0  0  0  0  0  0
   38.3770   28.6830   51.7960 C   0  0  0  0  0  0  0  0  0  0  0  0
   39.2710   28.2210   52.2430 H   0  0  0  0  0  0  0  0  0  0  0  0
   37.7270   29.6820   52.4430 N   0  0  0  0  0  0  0  0  0  0  0  0
   37.9560   30.1180   53.3710 H   0  0  0  0  0  0  0  0  0  0  0  0
   36.6780   30.0930   51.7240 N   0  0  0  0  0  0  0  0  0  0  0  0
  1  6  1  0  0  0  0
  2  1  2  0  0  0  0
  3  2  1  0  0  0  0
  3  4  2  0  0  0  0
  4  9  1  0  0  0  0
  4  5  1  0  0  0  0
  5  6  2  0  0  0  0
  5 10  1  0  0  0  0
  6 20  1  0  0  0  0
  7  2  1  0  0  0  0
  8  3  1  0  0  0  0
 11 17  1  0  0  0  0
 12 11  2  0  0  0  0
 13 14  2  0  0  0  0
 13 12  1  0  0  0  0
 14 15  1  0  0  0  0
 15  1  1  0  0  0  0
 15 16  2  0  0  0  0
 16 11  1  0  0  0  0
 18 12  1  0  0  0  0
 19 13  1  0  0  0  0
 20 21  1  0  0  0  0
 20 27  2  0  0  0  0
 21 23  2  0  0  0  0
 22 21  1  0  0  0  0
 23 24  1  0  0  0  0
 23 25  1  0  0  0  0
 25 26  1  0  0  0  0
 27 25  1  0  0  0  0
M  END
>  <minimizedAffinity>
-4.66719294

>  <minimizedRMSD>
0.364453763

$$$$
