
 OpenBabel03272508183D

 24 26  0  0  0  0  0  0  0  0999 V2000
   38.9110   24.7540   34.3230 C   0  0  0  0  0  0  0  0  0  0  0  0
   38.5410   23.6200   35.0370 C   0  0  0  0  0  0  0  0  0  0  0  0
   37.7920   22.6930   34.2950 C   0  0  0  0  0  0  0  0  0  0  0  0
   37.4780   22.9190   33.0030 N   0  0  0  0  0  0  0  0  0  0  0  0
   37.8600   24.0370   32.3490 C   0  0  0  0  0  0  0  0  0  0  0  0
   38.5770   24.9510   33.0200 N   0  0  0  0  0  0  0  0  0  0  0  0
   37.4220   21.7590   34.6950 H   0  0  0  0  0  0  0  0  0  0  0  0
   37.6660   24.3160   31.3270 H   0  0  0  0  0  0  0  0  0  0  0  0
   39.8190   25.7360   35.0350 C   0  0  0  0  0  0  0  0  0  0  0  0
   40.1740   27.0010   34.4440 C   0  0  0  0  0  0  0  0  0  0  0  0
   39.0240   27.0030   35.4250 C   0  0  0  0  0  0  0  0  0  0  0  0
   40.3370   25.3280   35.9330 H   0  0  0  0  0  0  0  0  0  0  0  0
   39.9350   27.2240   33.3670 H   0  0  0  0  0  0  0  0  0  0  0  0
   41.0780   27.5530   34.7540 H   0  0  0  0  0  0  0  0  0  0  0  0
   39.1690   27.3350   36.4460 H   0  0  0  0  0  0  0  0  0  0  0  0
   38.0150   27.1070   35.0050 H   0  0  0  0  0  0  0  0  0  0  0  0
   38.8390   23.3340   36.4180 C   0  0  0  0  0  0  0  0  0  0  0  0
   38.0710   23.8190   37.4600 C   0  0  0  0  0  0  0  0  0  0  0  0
   37.1840   24.4480   37.4300 H   0  0  0  0  0  0  0  0  0  0  0  0
   38.5700   23.3990   38.6680 C   0  0  0  0  0  0  0  0  0  0  0  0
   38.1960   23.6090   39.6600 H   0  0  0  0  0  0  0  0  0  0  0  0
   39.6450   22.6570   38.3640 N   0  0  0  0  0  0  0  0  0  0  0  0
   40.2810   22.1700   39.0310 H   0  0  0  0  0  0  0  0  0  0  0  0
   39.7660   22.6440   37.0650 N   0  0  0  0  0  0  0  0  0  0  0  0
  1  9  1  0  0  0  0
  1  2  1  0  0  0  0
  2 17  1  0  0  0  0
  3  7  1  0  0  0  0
  3  2  2  0  0  0  0
  4  3  1  0  0  0  0
  5  4  2  0  0  0  0
  5  6  1  0  0  0  0
  6  1  2  0  0  0  0
  8  5  1  0  0  0  0
  9 11  1  0  0  0  0
  9 12  1  0  0  0  0
 10 14  1  0  0  0  0
 10  9  1  0  0  0  0
 10 11  1  0  0  0  0
 11 15  1  0  0  0  0
 13 10  1  0  0  0  0
 16 11  1  0  0  0  0
 17 24  2  0  0  0  0
 17 18  1  0  0  0  0
 18 20  2  0  0  0  0
 19 18  1  0  0  0  0
 20 21  1  0  0  0  0
 22 20  1  0  0  0  0
 22 23  1  0  0  0  0
 24 22  1  0  0  0  0
M  END
>  <minimizedAffinity>
-4.49888849

$$$$

 OpenBabel03272508183D

 24 26  0  0  0  0  0  0  0  0999 V2000
   39.4160   25.9840   35.3520 C   0  0  0  0  0  0  0  0  0  0  0  0
   39.5920   24.6570   35.7310 C   0  0  0  0  0  0  0  0  0  0  0  0
   40.8160   24.1020   35.3230 C   0  0  0  0  0  0  0  0  0  0  0  0
   41.7170   24.8240   34.6270 N   0  0  0  0  0  0  0  0  0  0  0  0
   41.5020   26.1120   34.2820 C   0  0  0  0  0  0  0  0  0  0  0  0
   40.3460   26.6830   34.6490 N   0  0  0  0  0  0  0  0  0  0  0  0
   41.1150   23.0840   35.5320 H   0  0  0  0  0  0  0  0  0  0  0  0
   42.1480   26.7760   33.7310 H   0  0  0  0  0  0  0  0  0  0  0  0
   38.1670   26.6730   35.8620 C   0  0  0  0  0  0  0  0  0  0  0  0
   37.7330   27.9400   35.3320 C   0  0  0  0  0  0  0  0  0  0  0  0
   37.0890   26.7010   34.7550 C   0  0  0  0  0  0  0  0  0  0  0  0
   37.7370   26.2340   36.7920 H   0  0  0  0  0  0  0  0  0  0  0  0
   38.4000   28.5410   34.6520 H   0  0  0  0  0  0  0  0  0  0  0  0
   37.0700   28.6120   35.9030 H   0  0  0  0  0  0  0  0  0  0  0  0
   36.1010   26.3920   35.0740 H   0  0  0  0  0  0  0  0  0  0  0  0
   37.4040   26.4030   33.7460 H   0  0  0  0  0  0  0  0  0  0  0  0
   38.6610   23.8380   36.4630 C   0  0  0  0  0  0  0  0  0  0  0  0
   38.5810   23.8550   37.8430 C   0  0  0  0  0  0  0  0  0  0  0  0
   39.1540   24.4370   38.5610 H   0  0  0  0  0  0  0  0  0  0  0  0
   37.6150   22.9850   38.2850 C   0  0  0  0  0  0  0  0  0  0  0  0
   37.3150   22.7730   39.3010 H   0  0  0  0  0  0  0  0  0  0  0  0
   37.1040   22.4350   37.1740 N   0  0  0  0  0  0  0  0  0  0  0  0
   36.3450   21.7240   37.1170 H   0  0  0  0  0  0  0  0  0  0  0  0
   37.7300   22.9490   36.1500 N   0  0  0  0  0  0  0  0  0  0  0  0
  1  2  1  0  0  0  0
  1  9  1  0  0  0  0
  2 17  1  0  0  0  0
  3  7  1  0  0  0  0
  3  2  2  0  0  0  0
  4  3  1  0  0  0  0
  5  4  2  0  0  0  0
  5  6  1  0  0  0  0
  6  1  2  0  0  0  0
  8  5  1  0  0  0  0
  9 12  1  0  0  0  0
 10  9  1  0  0  0  0
 10 14  1  0  0  0  0
 11 15  1  0  0  0  0
 11 10  1  0  0  0  0
 11  9  1  0  0  0  0
 13 10  1  0  0  0  0
 16 11  1  0  0  0  0
 17 18  1  0  0  0  0
 18 20  2  0  0  0  0
 18 19  1  0  0  0  0
 20 21  1  0  0  0  0
 22 20  1  0  0  0  0
 23 22  1  0  0  0  0
 24 17  2  0  0  0  0
 24 22  1  0  0  0  0
M  END
>  <minimizedAffinity>
-4.00810909

$$$$

 OpenBabel03272508183D

 24 26  0  0  0  0  0  0  0  0999 V2000
   36.8140   27.8180   33.8170 C   0  0  0  0  0  0  0  0  0  0  0  0
   36.3700   27.4610   32.5490 C   0  0  0  0  0  0  0  0  0  0  0  0
   35.3030   28.2410   32.0740 C   0  0  0  0  0  0  0  0  0  0  0  0
   34.7810   29.2400   32.8140 N   0  0  0  0  0  0  0  0  0  0  0  0
   35.2460   29.5520   34.0430 C   0  0  0  0  0  0  0  0  0  0  0  0
   36.2650   28.8320   34.5370 N   0  0  0  0  0  0  0  0  0  0  0  0
   34.8360   28.0990   31.1100 H   0  0  0  0  0  0  0  0  0  0  0  0
   34.9070   30.3230   34.7140 H   0  0  0  0  0  0  0  0  0  0  0  0
   38.0380   27.0900   34.3350 C   0  0  0  0  0  0  0  0  0  0  0  0
   38.5050   27.2650   35.6870 C   0  0  0  0  0  0  0  0  0  0  0  0
   37.6260   26.0660   35.4170 C   0  0  0  0  0  0  0  0  0  0  0  0
   38.6470   26.5830   33.5520 H   0  0  0  0  0  0  0  0  0  0  0  0
   38.0860   28.0770   36.3440 H   0  0  0  0  0  0  0  0  0  0  0  0
   39.5490   27.0470   35.9730 H   0  0  0  0  0  0  0  0  0  0  0  0
   38.0570   25.0800   35.2980 H   0  0  0  0  0  0  0  0  0  0  0  0
   36.5920   26.1180   35.7830 H   0  0  0  0  0  0  0  0  0  0  0  0
   36.8820   26.3990   31.7220 C   0  0  0  0  0  0  0  0  0  0  0  0
   36.3490   25.1230   31.7350 C   0  0  0  0  0  0  0  0  0  0  0  0
   35.5230   24.7270   32.3210 H   0  0  0  0  0  0  0  0  0  0  0  0
   37.0180   24.3070   30.8570 C   0  0  0  0  0  0  0  0  0  0  0  0
   36.8410   23.2630   30.6410 H   0  0  0  0  0  0  0  0  0  0  0  0
   37.9610   25.0850   30.3060 N   0  0  0  0  0  0  0  0  0  0  0  0
   38.6650   24.8060   29.5890 H   0  0  0  0  0  0  0  0  0  0  0  0
   37.8520   26.2760   30.8280 N   0  0  0  0  0  0  0  0  0  0  0  0
  1  9  1  0  0  0  0
  1  6  1  0  0  0  0
  2  1  2  0  0  0  0
  3  2  1  0  0  0  0
  3  4  2  0  0  0  0
  4  5  1  0  0  0  0
  5  6  2  0  0  0  0
  5  8  1  0  0  0  0
  7  3  1  0  0  0  0
  9 11  1  0  0  0  0
  9 10  1  0  0  0  0
 10 14  1  0  0  0  0
 10 13  1  0  0  0  0
 11 10  1  0  0  0  0
 11 16  1  0  0  0  0
 12  9  1  0  0  0  0
 15 11  1  0  0  0  0
 17 18  1  0  0  0  0
 17  2  1  0  0  0  0
 18 19  1  0  0  0  0
 20 18  2  0  0  0  0
 21 20  1  0  0  0  0
 22 24  1  0  0  0  0
 22 20  1  0  0  0  0
 23 22  1  0  0  0  0
 24 17  2  0  0  0  0
M  END
>  <minimizedAffinity>
-3.94633603

$$$$

 OpenBabel03272508183D

 24 26  0  0  0  0  0  0  0  0999 V2000
   38.2750   24.8090   35.1430 C   0  0  0  0  0  0  0  0  0  0  0  0
   38.0340   23.9750   34.0570 C   0  0  0  0  0  0  0  0  0  0  0  0
   38.0200   22.6070   34.3770 C   0  0  0  0  0  0  0  0  0  0  0  0
   38.2260   22.1800   35.6390 N   0  0  0  0  0  0  0  0  0  0  0  0
   38.4550   23.0290   36.6630 C   0  0  0  0  0  0  0  0  0  0  0  0
   38.4790   24.3450   36.4040 N   0  0  0  0  0  0  0  0  0  0  0  0
   37.8490   21.8220   33.6550 H   0  0  0  0  0  0  0  0  0  0  0  0
   38.6300   22.7970   37.7010 H   0  0  0  0  0  0  0  0  0  0  0  0
   38.1880   26.2990   34.8830 C   0  0  0  0  0  0  0  0  0  0  0  0
   38.5840   27.2640   35.8770 C   0  0  0  0  0  0  0  0  0  0  0  0
   39.6070   26.9090   34.8230 C   0  0  0  0  0  0  0  0  0  0  0  0
   37.6200   26.5820   33.9680 H   0  0  0  0  0  0  0  0  0  0  0  0
   38.8020   26.9480   36.9360 H   0  0  0  0  0  0  0  0  0  0  0  0
   38.2090   28.3020   35.8610 H   0  0  0  0  0  0  0  0  0  0  0  0
   39.7830   27.5680   33.9810 H   0  0  0  0  0  0  0  0  0  0  0  0
   40.4390   26.2660   35.1370 H   0  0  0  0  0  0  0  0  0  0  0  0
   37.8200   24.3760   32.6900 C   0  0  0  0  0  0  0  0  0  0  0  0
   38.8500   24.4760   31.7740 C   0  0  0  0  0  0  0  0  0  0  0  0
   39.9130   24.2870   31.9070 H   0  0  0  0  0  0  0  0  0  0  0  0
   38.3760   24.8750   30.5500 C   0  0  0  0  0  0  0  0  0  0  0  0
   38.9280   25.0430   29.6360 H   0  0  0  0  0  0  0  0  0  0  0  0
   37.0530   25.0200   30.7180 N   0  0  0  0  0  0  0  0  0  0  0  0
   36.3580   25.3140   29.9990 H   0  0  0  0  0  0  0  0  0  0  0  0
   36.7740   24.7260   31.9580 N   0  0  0  0  0  0  0  0  0  0  0  0
  1  6  1  0  0  0  0
  2  3  1  0  0  0  0
  2  1  2  0  0  0  0
  3  4  2  0  0  0  0
  4  5  1  0  0  0  0
  5  8  1  0  0  0  0
  6  5  2  0  0  0  0
  7  3  1  0  0  0  0
  9  1  1  0  0  0  0
  9 10  1  0  0  0  0
 10 13  1  0  0  0  0
 11  9  1  0  0  0  0
 11 16  1  0  0  0  0
 11 10  1  0  0  0  0
 12  9  1  0  0  0  0
 14 10  1  0  0  0  0
 15 11  1  0  0  0  0
 17  2  1  0  0  0  0
 18 19  1  0  0  0  0
 18 17  1  0  0  0  0
 20 22  1  0  0  0  0
 20 18  2  0  0  0  0
 21 20  1  0  0  0  0
 22 24  1  0  0  0  0
 23 22  1  0  0  0  0
 24 17  2  0  0  0  0
M  END
>  <minimizedAffinity>
-3.93152261

$$$$

 OpenBabel03272508183D

 24 26  0  0  0  0  0  0  0  0999 V2000
   37.5660   25.6660   33.9840 C   0  0  0  0  0  0  0  0  0  0  0  0
   38.0530   24.3720   33.8350 C   0  0  0  0  0  0  0  0  0  0  0  0
   38.0610   23.9110   32.5080 C   0  0  0  0  0  0  0  0  0  0  0  0
   37.6260   24.6860   31.4940 N   0  0  0  0  0  0  0  0  0  0  0  0
   37.1620   25.9390   31.6870 C   0  0  0  0  0  0  0  0  0  0  0  0
   37.1350   26.4210   32.9390 N   0  0  0  0  0  0  0  0  0  0  0  0
   38.4050   22.9300   32.2130 H   0  0  0  0  0  0  0  0  0  0  0  0
   36.7930   26.6390   30.9550 H   0  0  0  0  0  0  0  0  0  0  0  0
   37.6410   26.2610   35.3760 C   0  0  0  0  0  0  0  0  0  0  0  0
   38.7760   27.0360   35.8050 C   0  0  0  0  0  0  0  0  0  0  0  0
   37.5780   27.8020   35.2950 C   0  0  0  0  0  0  0  0  0  0  0  0
   36.8660   25.8910   36.0850 H   0  0  0  0  0  0  0  0  0  0  0  0
   39.7170   27.0760   35.1880 H   0  0  0  0  0  0  0  0  0  0  0  0
   39.0190   27.1680   36.8740 H   0  0  0  0  0  0  0  0  0  0  0  0
   36.8840   28.2660   35.9860 H   0  0  0  0  0  0  0  0  0  0  0  0
   37.6660   28.2530   34.2980 H   0  0  0  0  0  0  0  0  0  0  0  0
   38.5180   23.4980   34.8820 C   0  0  0  0  0  0  0  0  0  0  0  0
   39.8540   23.3900   35.2220 C   0  0  0  0  0  0  0  0  0  0  0  0
   40.7170   23.8980   34.7980 H   0  0  0  0  0  0  0  0  0  0  0  0
   40.0240   22.4930   36.2470 C   0  0  0  0  0  0  0  0  0  0  0  0
   40.9420   22.1930   36.7320 H   0  0  0  0  0  0  0  0  0  0  0  0
   38.7910   22.0530   36.5340 N   0  0  0  0  0  0  0  0  0  0  0  0
   38.5270   21.3570   37.2650 H   0  0  0  0  0  0  0  0  0  0  0  0
   37.9550   22.6510   35.7300 N   0  0  0  0  0  0  0  0  0  0  0  0
  1  9  1  0  0  0  0
  2  1  1  0  0  0  0
  2 17  1  0  0  0  0
  3  2  2  0  0  0  0
  4  5  2  0  0  0  0
  4  3  1  0  0  0  0
  5  6  1  0  0  0  0
  6  1  2  0  0  0  0
  7  3  1  0  0  0  0
  8  5  1  0  0  0  0
  9 10  1  0  0  0  0
  9 12  1  0  0  0  0
 10 14  1  0  0  0  0
 11  9  1  0  0  0  0
 11 10  1  0  0  0  0
 11 15  1  0  0  0  0
 13 10  1  0  0  0  0
 16 11  1  0  0  0  0
 17 18  1  0  0  0  0
 17 24  2  0  0  0  0
 18 20  2  0  0  0  0
 19 18  1  0  0  0  0
 20 22  1  0  0  0  0
 20 21  1  0  0  0  0
 22 23  1  0  0  0  0
 24 22  1  0  0  0  0
M  END
>  <minimizedAffinity>
-3.93058181

$$$$

 OpenBabel03272508183D

 24 26  0  0  0  0  0  0  0  0999 V2000
   38.0980   23.8990   34.1030 C   0  0  0  0  0  0  0  0  0  0  0  0
   38.5210   24.5130   35.2770 C   0  0  0  0  0  0  0  0  0  0  0  0
   38.6760   25.9050   35.1730 C   0  0  0  0  0  0  0  0  0  0  0  0
   38.4250   26.5540   34.0180 N   0  0  0  0  0  0  0  0  0  0  0  0
   38.0140   25.9150   32.9020 C   0  0  0  0  0  0  0  0  0  0  0  0
   37.8540   24.5840   32.9550 N   0  0  0  0  0  0  0  0  0  0  0  0
   38.9980   26.5370   35.9870 H   0  0  0  0  0  0  0  0  0  0  0  0
   37.7860   26.3320   31.9340 H   0  0  0  0  0  0  0  0  0  0  0  0
   37.8020   22.4150   34.1840 C   0  0  0  0  0  0  0  0  0  0  0  0
   37.5050   21.6390   33.0080 C   0  0  0  0  0  0  0  0  0  0  0  0
   38.9320   21.6130   33.5020 C   0  0  0  0  0  0  0  0  0  0  0  0
   37.6370   22.0270   35.2150 H   0  0  0  0  0  0  0  0  0  0  0  0
   37.3080   22.1400   32.0190 H   0  0  0  0  0  0  0  0  0  0  0  0
   36.9520   20.6850   33.0660 H   0  0  0  0  0  0  0  0  0  0  0  0
   39.3030   20.7710   34.0750 H   0  0  0  0  0  0  0  0  0  0  0  0
   39.6680   22.1840   32.9200 H   0  0  0  0  0  0  0  0  0  0  0  0
   38.8140   23.8680   36.5310 C   0  0  0  0  0  0  0  0  0  0  0  0
   38.0740   24.0970   37.6750 C   0  0  0  0  0  0  0  0  0  0  0  0
   37.2140   24.7470   37.8230 H   0  0  0  0  0  0  0  0  0  0  0  0
   38.5610   23.3600   38.7260 C   0  0  0  0  0  0  0  0  0  0  0  0
   38.2010   23.3210   39.7440 H   0  0  0  0  0  0  0  0  0  0  0  0
   39.6010   22.6790   38.2230 N   0  0  0  0  0  0  0  0  0  0  0  0
   40.2190   22.0110   38.7310 H   0  0  0  0  0  0  0  0  0  0  0  0
   39.7140   22.9980   36.9630 N   0  0  0  0  0  0  0  0  0  0  0  0
  1  9  1  0  0  0  0
  1  2  1  0  0  0  0
  2 17  1  0  0  0  0
  3  2  2  0  0  0  0
  3  7  1  0  0  0  0
  4  3  1  0  0  0  0
  5  6  1  0  0  0  0
  5  4  2  0  0  0  0
  6  1  2  0  0  0  0
  8  5  1  0  0  0  0
  9 12  1  0  0  0  0
 10 14  1  0  0  0  0
 10 11  1  0  0  0  0
 10  9  1  0  0  0  0
 11 15  1  0  0  0  0
 11  9  1  0  0  0  0
 13 10  1  0  0  0  0
 16 11  1  0  0  0  0
 17 24  2  0  0  0  0
 17 18  1  0  0  0  0
 18 19  1  0  0  0  0
 18 20  2  0  0  0  0
 20 21  1  0  0  0  0
 22 20  1  0  0  0  0
 22 23  1  0  0  0  0
 24 22  1  0  0  0  0
M  END
>  <minimizedAffinity>
-3.9245851

$$$$

 OpenBabel03272508183D

 24 26  0  0  0  0  0  0  0  0999 V2000
   36.4060   27.0300   32.0530 C   0  0  0  0  0  0  0  0  0  0  0  0
   37.1310   26.1960   32.8980 C   0  0  0  0  0  0  0  0  0  0  0  0
   36.9250   24.8260   32.6670 C   0  0  0  0  0  0  0  0  0  0  0  0
   36.0890   24.3950   31.7020 N   0  0  0  0  0  0  0  0  0  0  0  0
   35.4060   25.2430   30.9030 C   0  0  0  0  0  0  0  0  0  0  0  0
   35.5710   26.5620   31.0880 N   0  0  0  0  0  0  0  0  0  0  0  0
   37.4080   24.0410   33.2330 H   0  0  0  0  0  0  0  0  0  0  0  0
   34.7180   25.0090   30.1070 H   0  0  0  0  0  0  0  0  0  0  0  0
   36.6740   28.5160   32.1760 C   0  0  0  0  0  0  0  0  0  0  0  0
   35.8370   29.4900   31.5250 C   0  0  0  0  0  0  0  0  0  0  0  0
   35.5390   29.1930   32.9760 C   0  0  0  0  0  0  0  0  0  0  0  0
   37.6580   28.7780   32.6270 H   0  0  0  0  0  0  0  0  0  0  0  0
   35.0680   29.1770   30.7640 H   0  0  0  0  0  0  0  0  0  0  0  0
   36.1970   30.5090   31.3010 H   0  0  0  0  0  0  0  0  0  0  0  0
   35.8710   29.8660   33.7570 H   0  0  0  0  0  0  0  0  0  0  0  0
   34.6470   28.5880   33.1850 H   0  0  0  0  0  0  0  0  0  0  0  0
   38.0270   26.6020   33.9510 C   0  0  0  0  0  0  0  0  0  0  0  0
   37.6000   26.8160   35.2480 C   0  0  0  0  0  0  0  0  0  0  0  0
   36.6020   26.7270   35.6710 H   0  0  0  0  0  0  0  0  0  0  0  0
   38.6500   27.1930   36.0490 C   0  0  0  0  0  0  0  0  0  0  0  0
   38.6400   27.4300   37.1040 H   0  0  0  0  0  0  0  0  0  0  0  0
   39.7190   27.2080   35.2400 N   0  0  0  0  0  0  0  0  0  0  0  0
   40.7000   27.4480   35.5000 H   0  0  0  0  0  0  0  0  0  0  0  0
   39.3210   26.8640   34.0460 N   0  0  0  0  0  0  0  0  0  0  0  0
  1  9  1  0  0  0  0
  1  2  1  0  0  0  0
  2 17  1  0  0  0  0
  3  2  2  0  0  0  0
  3  7  1  0  0  0  0
  4  3  1  0  0  0  0
  5  6  1  0  0  0  0
  5  4  2  0  0  0  0
  6  1  2  0  0  0  0
  8  5  1  0  0  0  0
  9 12  1  0  0  0  0
  9 11  1  0  0  0  0
 10  9  1  0  0  0  0
 10 11  1  0  0  0  0
 11 16  1  0  0  0  0
 11 15  1  0  0  0  0
 13 10  1  0  0  0  0
 14 10  1  0  0  0  0
 17 24  2  0  0  0  0
 17 18  1  0  0  0  0
 18 19  1  0  0  0  0
 18 20  2  0  0  0  0
 20 21  1  0  0  0  0
 22 23  1  0  0  0  0
 22 20  1  0  0  0  0
 24 22  1  0  0  0  0
M  END
>  <minimizedAffinity>
-3.89483738

$$$$

 OpenBabel03272508183D

 24 26  0  0  0  0  0  0  0  0999 V2000
   37.0000   27.8440   33.4290 C   0  0  0  0  0  0  0  0  0  0  0  0
   36.1650   28.9160   33.1320 C   0  0  0  0  0  0  0  0  0  0  0  0
   36.2660   29.3720   31.8080 C   0  0  0  0  0  0  0  0  0  0  0  0
   37.1110   28.7950   30.9290 N   0  0  0  0  0  0  0  0  0  0  0  0
   37.9030   27.7530   31.2630 C   0  0  0  0  0  0  0  0  0  0  0  0
   37.8400   27.2840   32.5180 N   0  0  0  0  0  0  0  0  0  0  0  0
   35.6920   30.1960   31.4090 H   0  0  0  0  0  0  0  0  0  0  0  0
   38.6070   27.2210   30.6460 H   0  0  0  0  0  0  0  0  0  0  0  0
   36.8520   27.2330   34.8070 C   0  0  0  0  0  0  0  0  0  0  0  0
   37.6810   26.1380   35.2410 C   0  0  0  0  0  0  0  0  0  0  0  0
   38.1120   27.5260   35.6530 C   0  0  0  0  0  0  0  0  0  0  0  0
   35.9430   27.5530   35.3660 H   0  0  0  0  0  0  0  0  0  0  0  0
   38.3400   25.5860   34.5120 H   0  0  0  0  0  0  0  0  0  0  0  0
   37.3720   25.4620   36.0570 H   0  0  0  0  0  0  0  0  0  0  0  0
   37.9140   27.8920   36.6530 H   0  0  0  0  0  0  0  0  0  0  0  0
   38.9760   27.9530   35.1270 H   0  0  0  0  0  0  0  0  0  0  0  0
   35.2550   29.5760   34.0330 C   0  0  0  0  0  0  0  0  0  0  0  0
   35.6220   30.6740   34.7880 C   0  0  0  0  0  0  0  0  0  0  0  0
   36.5790   31.1900   34.8370 H   0  0  0  0  0  0  0  0  0  0  0  0
   34.5720   31.1090   35.5580 C   0  0  0  0  0  0  0  0  0  0  0  0
   34.5430   31.9380   36.2490 H   0  0  0  0  0  0  0  0  0  0  0  0
   33.5610   30.2760   35.2710 N   0  0  0  0  0  0  0  0  0  0  0  0
   32.5970   30.2980   35.6680 H   0  0  0  0  0  0  0  0  0  0  0  0
   33.9920   29.4110   34.3940 N   0  0  0  0  0  0  0  0  0  0  0  0
  1  9  1  0  0  0  0
  2  1  1  0  0  0  0
  2 17  1  0  0  0  0
  3  2  2  0  0  0  0
  4  5  2  0  0  0  0
  4  3  1  0  0  0  0
  5  6  1  0  0  0  0
  6  1  2  0  0  0  0
  7  3  1  0  0  0  0
  8  5  1  0  0  0  0
  9 10  1  0  0  0  0
  9 12  1  0  0  0  0
  9 11  1  0  0  0  0
 10 11  1  0  0  0  0
 10 14  1  0  0  0  0
 11 15  1  0  0  0  0
 13 10  1  0  0  0  0
 16 11  1  0  0  0  0
 17 24  2  0  0  0  0
 17 18  1  0  0  0  0
 18 19  1  0  0  0  0
 18 20  2  0  0  0  0
 20 21  1  0  0  0  0
 22 20  1  0  0  0  0
 22 23  1  0  0  0  0
 24 22  1  0  0  0  0
M  END
>  <minimizedAffinity>
-3.83208203

$$$$

 OpenBabel03272508183D

 24 26  0  0  0  0  0  0  0  0999 V2000
   38.3270   23.2660   35.7990 C   0  0  0  0  0  0  0  0  0  0  0  0
   38.9860   23.8120   34.7030 C   0  0  0  0  0  0  0  0  0  0  0  0
   38.6910   23.1810   33.4840 C   0  0  0  0  0  0  0  0  0  0  0  0
   37.8370   22.1390   33.4220 N   0  0  0  0  0  0  0  0  0  0  0  0
   37.2180   21.6430   34.5140 C   0  0  0  0  0  0  0  0  0  0  0  0
   37.4710   22.2150   35.7020 N   0  0  0  0  0  0  0  0  0  0  0  0
   39.1160   23.4760   32.5350 H   0  0  0  0  0  0  0  0  0  0  0  0
   36.5230   20.8220   34.5780 H   0  0  0  0  0  0  0  0  0  0  0  0
   38.5140   23.9770   37.1240 C   0  0  0  0  0  0  0  0  0  0  0  0
   37.9690   23.4490   38.3480 C   0  0  0  0  0  0  0  0  0  0  0  0
   39.4160   23.1330   38.0530 C   0  0  0  0  0  0  0  0  0  0  0  0
   38.9210   25.0110   37.0470 H   0  0  0  0  0  0  0  0  0  0  0  0
   37.2390   22.5910   38.3340 H   0  0  0  0  0  0  0  0  0  0  0  0
   37.7800   24.0920   39.2250 H   0  0  0  0  0  0  0  0  0  0  0  0
   40.2120   23.6850   38.5390 H   0  0  0  0  0  0  0  0  0  0  0  0
   39.6440   22.1080   37.7300 H   0  0  0  0  0  0  0  0  0  0  0  0
   39.9150   24.9130   34.7150 C   0  0  0  0  0  0  0  0  0  0  0  0
   39.5470   26.2000   34.3700 C   0  0  0  0  0  0  0  0  0  0  0  0
   38.5770   26.5800   34.0560 H   0  0  0  0  0  0  0  0  0  0  0  0
   40.6170   27.0540   34.4660 C   0  0  0  0  0  0  0  0  0  0  0  0
   40.6500   28.1160   34.2650 H   0  0  0  0  0  0  0  0  0  0  0  0
   41.6410   26.2880   34.8700 N   0  0  0  0  0  0  0  0  0  0  0  0
   42.6200   26.5950   35.0510 H   0  0  0  0  0  0  0  0  0  0  0  0
   41.1990   25.0680   35.0000 N   0  0  0  0  0  0  0  0  0  0  0  0
  1  9  1  0  0  0  0
  2 17  1  0  0  0  0
  2  1  2  0  0  0  0
  3  2  1  0  0  0  0
  4  3  2  0  0  0  0
  4  5  1  0  0  0  0
  5  8  1  0  0  0  0
  5  6  2  0  0  0  0
  6  1  1  0  0  0  0
  7  3  1  0  0  0  0
  9 11  1  0  0  0  0
  9 10  1  0  0  0  0
 10 14  1  0  0  0  0
 11 10  1  0  0  0  0
 11 15  1  0  0  0  0
 12  9  1  0  0  0  0
 13 10  1  0  0  0  0
 16 11  1  0  0  0  0
 17 24  2  0  0  0  0
 18 20  2  0  0  0  0
 18 17  1  0  0  0  0
 19 18  1  0  0  0  0
 20 22  1  0  0  0  0
 21 20  1  0  0  0  0
 22 24  1  0  0  0  0
 22 23  1  0  0  0  0
M  END
>  <minimizedAffinity>
-3.80915713

$$$$
