
 OpenBabel03272510323D

 27 29  0  0  0  0  0  0  0  0999 V2000
   35.9250   30.0490   47.9620 C   0  0  0  0  0  0  0  0  0  0  0  0
   35.0700   30.0580   46.8900 C   0  0  0  0  0  0  0  0  0  0  0  0
   33.9960   29.1900   46.8330 C   0  0  0  0  0  0  0  0  0  0  0  0
   33.8010   28.3170   47.8690 C   0  0  0  0  0  0  0  0  0  0  0  0
   34.6530   28.2820   48.9780 C   0  0  0  0  0  0  0  0  0  0  0  0
   35.7260   29.1620   49.0160 C   0  0  0  0  0  0  0  0  0  0  0  0
   35.1980   30.7330   46.0590 H   0  0  0  0  0  0  0  0  0  0  0  0
   33.2900   29.1390   46.0330 H   0  0  0  0  0  0  0  0  0  0  0  0
   32.9910   27.6020   47.9140 H   0  0  0  0  0  0  0  0  0  0  0  0
   34.5040   27.5950   49.7980 H   0  0  0  0  0  0  0  0  0  0  0  0
   38.0620   32.8330   48.9420 C   0  0  0  0  0  0  0  0  0  0  0  0
   39.0960   32.8230   48.0110 C   0  0  0  0  0  0  0  0  0  0  0  0
   39.0520   31.8160   47.0040 C   0  0  0  0  0  0  0  0  0  0  0  0
   38.0150   30.9480   47.0280 N   0  0  0  0  0  0  0  0  0  0  0  0
   37.0310   30.9870   47.9480 C   0  0  0  0  0  0  0  0  0  0  0  0
   37.0770   31.9380   48.8930 N   0  0  0  0  0  0  0  0  0  0  0  0
   38.1520   33.6200   49.6790 H   0  0  0  0  0  0  0  0  0  0  0  0
   39.9460   33.4810   47.9330 H   0  0  0  0  0  0  0  0  0  0  0  0
   39.7710   31.6680   46.2100 H   0  0  0  0  0  0  0  0  0  0  0  0
   36.6310   29.1490   50.1610 C   0  0  0  0  0  0  0  0  0  0  0  0
   36.1250   29.7420   51.3230 C   0  0  0  0  0  0  0  0  0  0  0  0
   35.2120   30.2300   51.6260 H   0  0  0  0  0  0  0  0  0  0  0  0
   37.1130   29.6380   52.2980 C   0  0  0  0  0  0  0  0  0  0  0  0
   37.1730   29.9530   53.3510 H   0  0  0  0  0  0  0  0  0  0  0  0
   38.1570   29.0030   51.7120 N   0  0  0  0  0  0  0  0  0  0  0  0
   39.0850   28.7450   52.1330 H   0  0  0  0  0  0  0  0  0  0  0  0
   37.8690   28.7130   50.4400 N   0  0  0  0  0  0  0  0  0  0  0  0
  1  6  1  0  0  0  0
  2  1  2  0  0  0  0
  3  2  1  0  0  0  0
  3  4  2  0  0  0  0
  4  9  1  0  0  0  0
  4  5  1  0  0  0  0
  5  6  2  0  0  0  0
  5 10  1  0  0  0  0
  6 20  1  0  0  0  0
  7  2  1  0  0  0  0
  8  3  1  0  0  0  0
 11 17  1  0  0  0  0
 12 11  2  0  0  0  0
 13 14  2  0  0  0  0
 13 12  1  0  0  0  0
 14 15  1  0  0  0  0
 15  1  1  0  0  0  0
 15 16  2  0  0  0  0
 16 11  1  0  0  0  0
 18 12  1  0  0  0  0
 19 13  1  0  0  0  0
 20 27  2  0  0  0  0
 20 21  1  0  0  0  0
 21 22  1  0  0  0  0
 21 23  2  0  0  0  0
 23 24  1  0  0  0  0
 25 26  1  0  0  0  0
 25 23  1  0  0  0  0
 27 25  1  0  0  0  0
M  END
>  <minimizedAffinity>
-5.37458515

>  <minimizedRMSD>
0.771892846

$$$$
