
 OpenBabel03272502123D

 25 27  0  0  0  0  0  0  0  0999 V2000
   38.3260   24.9510   33.2970 C   0  0  0  0  0  0  0  0  0  0  0  0
   39.5860   25.3200   32.9120 C   0  0  0  0  0  0  0  0  0  0  0  0
   40.7320   25.2160   33.6960 C   0  0  0  0  0  0  0  0  0  0  0  0
   40.5610   24.7030   34.9490 N   0  0  0  0  0  0  0  0  0  0  0  0
   39.3190   24.3300   35.3550 C   0  0  0  0  0  0  0  0  0  0  0  0
   38.2510   24.4540   34.5510 N   0  0  0  0  0  0  0  0  0  0  0  0
   39.7600   25.7340   31.9160 H   0  0  0  0  0  0  0  0  0  0  0  0
   41.7020   25.5220   33.3400 H   0  0  0  0  0  0  0  0  0  0  0  0
   36.5990   26.2960   32.0890 C   0  0  0  0  0  0  0  0  0  0  0  0
   37.1760   25.0730   32.4660 C   0  0  0  0  0  0  0  0  0  0  0  0
   36.5630   23.9280   31.9860 C   0  0  0  0  0  0  0  0  0  0  0  0
   35.4680   24.0230   31.1990 N   0  0  0  0  0  0  0  0  0  0  0  0
   34.9440   25.2330   30.8610 C   0  0  0  0  0  0  0  0  0  0  0  0
   35.5190   26.3860   31.3130 N   0  0  0  0  0  0  0  0  0  0  0  0
   37.0940   27.1700   32.4760 H   0  0  0  0  0  0  0  0  0  0  0  0
   36.9830   22.9640   32.2570 H   0  0  0  0  0  0  0  0  0  0  0  0
   34.0660   25.1920   30.2260 H   0  0  0  0  0  0  0  0  0  0  0  0
   39.0360   23.7730   36.6730 C   0  0  0  0  0  0  0  0  0  0  0  0
   37.8790   24.1390   37.3620 C   0  0  0  0  0  0  0  0  0  0  0  0
   37.0950   24.8210   37.0570 H   0  0  0  0  0  0  0  0  0  0  0  0
   37.8950   23.4440   38.5760 C   0  0  0  0  0  0  0  0  0  0  0  0
   37.1190   23.5260   39.3290 H   0  0  0  0  0  0  0  0  0  0  0  0
   39.0310   22.7000   38.5830 N   0  0  0  0  0  0  0  0  0  0  0  0
   39.3210   22.0640   39.3740 H   0  0  0  0  0  0  0  0  0  0  0  0
   39.6980   22.8960   37.4640 N   0  0  0  0  0  0  0  0  0  0  0  0
  1  6  1  0  0  0  0
  2  1  2  0  0  0  0
  2  3  1  0  0  0  0
  3  4  2  0  0  0  0
  4  5  1  0  0  0  0
  5 18  1  0  0  0  0
  6  5  2  0  0  0  0
  7  2  1  0  0  0  0
  8  3  1  0  0  0  0
  9 10  1  0  0  0  0
  9 15  1  0  0  0  0
 10  1  1  0  0  0  0
 11 16  1  0  0  0  0
 11 10  2  0  0  0  0
 12 11  1  0  0  0  0
 13 12  2  0  0  0  0
 13 14  1  0  0  0  0
 14  9  2  0  0  0  0
 17 13  1  0  0  0  0
 18 19  1  0  0  0  0
 18 25  2  0  0  0  0
 19 21  2  0  0  0  0
 20 19  1  0  0  0  0
 21 23  1  0  0  0  0
 21 22  1  0  0  0  0
 23 24  1  0  0  0  0
 25 23  1  0  0  0  0
M  END
>  <minimizedAffinity>
-4.99088573

$$$$

 OpenBabel03272502123D

 25 27  0  0  0  0  0  0  0  0999 V2000
   37.8090   25.7410   33.6970 C   0  0  0  0  0  0  0  0  0  0  0  0
   38.4270   25.0870   32.6660 C   0  0  0  0  0  0  0  0  0  0  0  0
   39.2170   23.9470   32.7920 C   0  0  0  0  0  0  0  0  0  0  0  0
   39.3760   23.4600   34.0560 N   0  0  0  0  0  0  0  0  0  0  0  0
   38.7730   24.0930   35.0970 C   0  0  0  0  0  0  0  0  0  0  0  0
   38.0220   25.1890   34.9120 N   0  0  0  0  0  0  0  0  0  0  0  0
   38.3210   25.4490   31.6400 H   0  0  0  0  0  0  0  0  0  0  0  0
   39.6800   23.4730   31.9420 H   0  0  0  0  0  0  0  0  0  0  0  0
   36.7490   27.8390   34.5470 C   0  0  0  0  0  0  0  0  0  0  0  0
   37.0080   26.9060   33.5300 C   0  0  0  0  0  0  0  0  0  0  0  0
   36.4310   27.1610   32.2980 C   0  0  0  0  0  0  0  0  0  0  0  0
   35.6640   28.2600   32.1210 N   0  0  0  0  0  0  0  0  0  0  0  0
   35.4400   29.1370   33.1390 C   0  0  0  0  0  0  0  0  0  0  0  0
   35.9910   28.9210   34.3700 N   0  0  0  0  0  0  0  0  0  0  0  0
   37.2080   27.6180   35.4950 H   0  0  0  0  0  0  0  0  0  0  0  0
   36.6110   26.4610   31.4880 H   0  0  0  0  0  0  0  0  0  0  0  0
   34.8110   29.9820   32.8860 H   0  0  0  0  0  0  0  0  0  0  0  0
   38.8840   23.6480   36.4820 C   0  0  0  0  0  0  0  0  0  0  0  0
   38.0670   24.2010   37.4690 C   0  0  0  0  0  0  0  0  0  0  0  0
   37.3040   24.9640   37.3700 H   0  0  0  0  0  0  0  0  0  0  0  0
   38.4090   23.5760   38.6730 C   0  0  0  0  0  0  0  0  0  0  0  0
   37.9390   23.7990   39.6240 H   0  0  0  0  0  0  0  0  0  0  0  0
   39.3950   22.6880   38.3840 N   0  0  0  0  0  0  0  0  0  0  0  0
   39.8610   22.0630   39.0950 H   0  0  0  0  0  0  0  0  0  0  0  0
   39.6720   22.7350   37.0970 N   0  0  0  0  0  0  0  0  0  0  0  0
  1  6  1  0  0  0  0
  2  3  1  0  0  0  0
  2  1  2  0  0  0  0
  3  4  2  0  0  0  0
  4  5  1  0  0  0  0
  5 18  1  0  0  0  0
  6  5  2  0  0  0  0
  7  2  1  0  0  0  0
  8  3  1  0  0  0  0
  9 15  1  0  0  0  0
 10  1  1  0  0  0  0
 10  9  2  0  0  0  0
 11 10  1  0  0  0  0
 12 11  2  0  0  0  0
 12 13  1  0  0  0  0
 13 14  2  0  0  0  0
 14  9  1  0  0  0  0
 16 11  1  0  0  0  0
 17 13  1  0  0  0  0
 18 25  2  0  0  0  0
 18 19  1  0  0  0  0
 19 21  2  0  0  0  0
 20 19  1  0  0  0  0
 21 22  1  0  0  0  0
 23 21  1  0  0  0  0
 23 24  1  0  0  0  0
 25 23  1  0  0  0  0
M  END
>  <minimizedAffinity>
-4.84316921

$$$$

 OpenBabel03272502123D

 25 27  0  0  0  0  0  0  0  0999 V2000
   36.3640   24.3460   31.7900 C   0  0  0  0  0  0  0  0  0  0  0  0
   35.6170   25.2100   31.0360 C   0  0  0  0  0  0  0  0  0  0  0  0
   35.5410   26.5880   31.2260 C   0  0  0  0  0  0  0  0  0  0  0  0
   36.2790   27.0960   32.2550 N   0  0  0  0  0  0  0  0  0  0  0  0
   37.0280   26.2580   33.0180 C   0  0  0  0  0  0  0  0  0  0  0  0
   37.0620   24.9360   32.7850 N   0  0  0  0  0  0  0  0  0  0  0  0
   35.0140   24.8380   30.2040 H   0  0  0  0  0  0  0  0  0  0  0  0
   34.9340   27.2210   30.6000 H   0  0  0  0  0  0  0  0  0  0  0  0
   35.4070   22.0420   31.9460 C   0  0  0  0  0  0  0  0  0  0  0  0
   36.4170   22.9410   31.5660 C   0  0  0  0  0  0  0  0  0  0  0  0
   37.5230   22.3960   30.9380 C   0  0  0  0  0  0  0  0  0  0  0  0
   37.5930   21.0630   30.7190 N   0  0  0  0  0  0  0  0  0  0  0  0
   36.5880   20.2300   31.1070 C   0  0  0  0  0  0  0  0  0  0  0  0
   35.4800   20.7280   31.7290 N   0  0  0  0  0  0  0  0  0  0  0  0
   34.5590   22.4900   32.4320 H   0  0  0  0  0  0  0  0  0  0  0  0
   38.3240   23.0620   30.6290 H   0  0  0  0  0  0  0  0  0  0  0  0
   36.7490   19.1820   30.8830 H   0  0  0  0  0  0  0  0  0  0  0  0
   37.8490   26.7060   34.1380 C   0  0  0  0  0  0  0  0  0  0  0  0
   39.2050   26.3810   34.1950 C   0  0  0  0  0  0  0  0  0  0  0  0
   39.7950   25.8060   33.4920 H   0  0  0  0  0  0  0  0  0  0  0  0
   39.7070   26.9480   35.3710 C   0  0  0  0  0  0  0  0  0  0  0  0
   40.7400   26.8640   35.6890 H   0  0  0  0  0  0  0  0  0  0  0  0
   38.6670   27.5820   35.9720 N   0  0  0  0  0  0  0  0  0  0  0  0
   38.7370   28.1070   36.8840 H   0  0  0  0  0  0  0  0  0  0  0  0
   37.5780   27.4370   35.2450 N   0  0  0  0  0  0  0  0  0  0  0  0
  1  6  1  0  0  0  0
  2  3  1  0  0  0  0
  2  1  2  0  0  0  0
  3  4  2  0  0  0  0
  4  5  1  0  0  0  0
  5 18  1  0  0  0  0
  6  5  2  0  0  0  0
  7  2  1  0  0  0  0
  8  3  1  0  0  0  0
  9 15  1  0  0  0  0
 10  1  1  0  0  0  0
 10  9  2  0  0  0  0
 11 10  1  0  0  0  0
 12 11  2  0  0  0  0
 12 13  1  0  0  0  0
 13 14  2  0  0  0  0
 14  9  1  0  0  0  0
 16 11  1  0  0  0  0
 17 13  1  0  0  0  0
 18 19  1  0  0  0  0
 18 25  2  0  0  0  0
 19 21  2  0  0  0  0
 20 19  1  0  0  0  0
 21 22  1  0  0  0  0
 21 23  1  0  0  0  0
 23 24  1  0  0  0  0
 25 23  1  0  0  0  0
M  END
>  <minimizedAffinity>
-4.70978975

$$$$

 OpenBabel03272502123D

 25 27  0  0  0  0  0  0  0  0999 V2000
   36.2130   28.5350   33.4460 C   0  0  0  0  0  0  0  0  0  0  0  0
   35.9980   29.0970   32.2180 C   0  0  0  0  0  0  0  0  0  0  0  0
   35.4150   30.3410   31.9910 C   0  0  0  0  0  0  0  0  0  0  0  0
   35.0340   31.0400   33.0990 N   0  0  0  0  0  0  0  0  0  0  0  0
   35.2360   30.5020   34.3300 C   0  0  0  0  0  0  0  0  0  0  0  0
   35.8040   29.2960   34.4860 N   0  0  0  0  0  0  0  0  0  0  0  0
   36.2910   28.5660   31.3090 H   0  0  0  0  0  0  0  0  0  0  0  0
   35.2710   30.7350   30.9980 H   0  0  0  0  0  0  0  0  0  0  0  0
   37.2650   26.7770   34.8800 C   0  0  0  0  0  0  0  0  0  0  0  0
   36.8120   27.2570   33.6400 C   0  0  0  0  0  0  0  0  0  0  0  0
   36.9740   26.4140   32.5550 C   0  0  0  0  0  0  0  0  0  0  0  0
   37.5440   25.1980   32.7180 N   0  0  0  0  0  0  0  0  0  0  0  0
   37.9700   24.7770   33.9410 C   0  0  0  0  0  0  0  0  0  0  0  0
   37.8280   25.5790   35.0370 N   0  0  0  0  0  0  0  0  0  0  0  0
   37.1280   27.4520   35.7060 H   0  0  0  0  0  0  0  0  0  0  0  0
   36.6340   26.7520   31.5810 H   0  0  0  0  0  0  0  0  0  0  0  0
   38.4110   23.7870   33.9570 H   0  0  0  0  0  0  0  0  0  0  0  0
   34.8620   31.1710   35.5720 C   0  0  0  0  0  0  0  0  0  0  0  0
   33.5430   31.1330   36.0260 C   0  0  0  0  0  0  0  0  0  0  0  0
   32.6840   30.6520   35.5760 H   0  0  0  0  0  0  0  0  0  0  0  0
   33.5080   31.8550   37.2240 C   0  0  0  0  0  0  0  0  0  0  0  0
   32.6110   32.0010   37.8150 H   0  0  0  0  0  0  0  0  0  0  0  0
   34.7720   32.2940   37.4510 N   0  0  0  0  0  0  0  0  0  0  0  0
   35.0610   32.8720   38.2850 H   0  0  0  0  0  0  0  0  0  0  0  0
   35.5640   31.8910   36.4790 N   0  0  0  0  0  0  0  0  0  0  0  0
  1 10  1  0  0  0  0
  1  6  1  0  0  0  0
  2  1  2  0  0  0  0
  3  2  1  0  0  0  0
  3  4  2  0  0  0  0
  4  5  1  0  0  0  0
  5  6  2  0  0  0  0
  5 18  1  0  0  0  0
  7  2  1  0  0  0  0
  8  3  1  0  0  0  0
  9 14  1  0  0  0  0
  9 15  1  0  0  0  0
 10  9  2  0  0  0  0
 11 12  2  0  0  0  0
 11 10  1  0  0  0  0
 12 13  1  0  0  0  0
 13 17  1  0  0  0  0
 13 14  2  0  0  0  0
 16 11  1  0  0  0  0
 18 19  1  0  0  0  0
 18 25  2  0  0  0  0
 19 21  2  0  0  0  0
 20 19  1  0  0  0  0
 21 23  1  0  0  0  0
 21 22  1  0  0  0  0
 23 24  1  0  0  0  0
 25 23  1  0  0  0  0
M  END
>  <minimizedAffinity>
-4.66479778

$$$$

 OpenBabel03272502123D

 25 27  0  0  0  0  0  0  0  0999 V2000
   37.9770   26.9590   34.0480 C   0  0  0  0  0  0  0  0  0  0  0  0
   39.3030   27.0970   33.7410 C   0  0  0  0  0  0  0  0  0  0  0  0
   40.3370   26.3220   34.2620 C   0  0  0  0  0  0  0  0  0  0  0  0
   39.9750   25.3530   35.1510 N   0  0  0  0  0  0  0  0  0  0  0  0
   38.6640   25.1970   35.4730 C   0  0  0  0  0  0  0  0  0  0  0  0
   37.7110   25.9750   34.9360 N   0  0  0  0  0  0  0  0  0  0  0  0
   39.6290   27.8620   33.0320 H   0  0  0  0  0  0  0  0  0  0  0  0
   41.3660   26.4760   33.9820 H   0  0  0  0  0  0  0  0  0  0  0  0
   36.0940   28.5900   34.2520 C   0  0  0  0  0  0  0  0  0  0  0  0
   36.9460   27.7710   33.4950 C   0  0  0  0  0  0  0  0  0  0  0  0
   36.7470   27.7710   32.1250 C   0  0  0  0  0  0  0  0  0  0  0  0
   35.7710   28.5330   31.5810 N   0  0  0  0  0  0  0  0  0  0  0  0
   34.9670   29.3110   32.3570 C   0  0  0  0  0  0  0  0  0  0  0  0
   35.1320   29.3390   33.7130 N   0  0  0  0  0  0  0  0  0  0  0  0
   36.2700   28.5710   35.3130 H   0  0  0  0  0  0  0  0  0  0  0  0
   37.3890   27.1500   31.5080 H   0  0  0  0  0  0  0  0  0  0  0  0
   34.2190   29.8800   31.8170 H   0  0  0  0  0  0  0  0  0  0  0  0
   38.1790   24.1900   36.4120 C   0  0  0  0  0  0  0  0  0  0  0  0
   38.1370   24.4630   37.7800 C   0  0  0  0  0  0  0  0  0  0  0  0
   38.4260   25.3670   38.3010 H   0  0  0  0  0  0  0  0  0  0  0  0
   37.6330   23.3170   38.4040 C   0  0  0  0  0  0  0  0  0  0  0  0
   37.4840   23.2280   39.4740 H   0  0  0  0  0  0  0  0  0  0  0  0
   37.3910   22.4120   37.4200 N   0  0  0  0  0  0  0  0  0  0  0  0
   37.0040   21.4440   37.5830 H   0  0  0  0  0  0  0  0  0  0  0  0
   37.7140   22.9290   36.2520 N   0  0  0  0  0  0  0  0  0  0  0  0
  1  6  1  0  0  0  0
  2  1  2  0  0  0  0
  2  3  1  0  0  0  0
  3  4  2  0  0  0  0
  4  5  1  0  0  0  0
  5 18  1  0  0  0  0
  6  5  2  0  0  0  0
  7  2  1  0  0  0  0
  8  3  1  0  0  0  0
  9 15  1  0  0  0  0
 10  1  1  0  0  0  0
 10  9  2  0  0  0  0
 11 10  1  0  0  0  0
 12 11  2  0  0  0  0
 12 13  1  0  0  0  0
 13 14  2  0  0  0  0
 14  9  1  0  0  0  0
 16 11  1  0  0  0  0
 17 13  1  0  0  0  0
 18 19  1  0  0  0  0
 19 20  1  0  0  0  0
 19 21  2  0  0  0  0
 21 22  1  0  0  0  0
 23 24  1  0  0  0  0
 23 21  1  0  0  0  0
 25 18  2  0  0  0  0
 25 23  1  0  0  0  0
M  END
>  <minimizedAffinity>
-4.61508608

$$$$

 OpenBabel03272502123D

 25 27  0  0  0  0  0  0  0  0999 V2000
   38.3690   25.5440   33.3810 C   0  0  0  0  0  0  0  0  0  0  0  0
   39.1450   26.6700   33.4140 C   0  0  0  0  0  0  0  0  0  0  0  0
   40.2630   26.8560   34.2230 C   0  0  0  0  0  0  0  0  0  0  0  0
   40.5930   25.8170   35.0430 N   0  0  0  0  0  0  0  0  0  0  0  0
   39.8370   24.6880   35.0290 C   0  0  0  0  0  0  0  0  0  0  0  0
   38.7690   24.5670   34.2250 N   0  0  0  0  0  0  0  0  0  0  0  0
   38.9100   27.5220   32.7700 H   0  0  0  0  0  0  0  0  0  0  0  0
   40.8380   27.7670   34.2060 H   0  0  0  0  0  0  0  0  0  0  0  0
   36.7210   24.1510   32.1180 C   0  0  0  0  0  0  0  0  0  0  0  0
   37.2300   25.3900   32.5390 C   0  0  0  0  0  0  0  0  0  0  0  0
   36.5630   26.5160   32.0900 C   0  0  0  0  0  0  0  0  0  0  0  0
   35.4820   26.3900   31.2870 N   0  0  0  0  0  0  0  0  0  0  0  0
   35.0260   25.1660   30.9030 C   0  0  0  0  0  0  0  0  0  0  0  0
   35.6560   24.0300   31.3260 N   0  0  0  0  0  0  0  0  0  0  0  0
   37.2580   23.2920   32.4810 H   0  0  0  0  0  0  0  0  0  0  0  0
   36.9280   27.4910   32.3970 H   0  0  0  0  0  0  0  0  0  0  0  0
   34.1540   25.1820   30.2600 H   0  0  0  0  0  0  0  0  0  0  0  0
   40.1100   23.5260   35.8680 C   0  0  0  0  0  0  0  0  0  0  0  0
   41.4210   23.1900   36.2050 C   0  0  0  0  0  0  0  0  0  0  0  0
   42.3430   23.6870   35.9260 H   0  0  0  0  0  0  0  0  0  0  0  0
   41.3520   22.0450   37.0070 C   0  0  0  0  0  0  0  0  0  0  0  0
   42.2190   21.5470   37.4250 H   0  0  0  0  0  0  0  0  0  0  0  0
   40.0360   21.7340   37.1260 N   0  0  0  0  0  0  0  0  0  0  0  0
   39.6650   20.9130   37.6770 H   0  0  0  0  0  0  0  0  0  0  0  0
   39.3100   22.6050   36.4560 N   0  0  0  0  0  0  0  0  0  0  0  0
  1  2  2  0  0  0  0
  1  6  1  0  0  0  0
  2  3  1  0  0  0  0
  3  4  2  0  0  0  0
  5  4  1  0  0  0  0
  5 18  1  0  0  0  0
  6  5  2  0  0  0  0
  7  2  1  0  0  0  0
  8  3  1  0  0  0  0
  9 15  1  0  0  0  0
  9 10  1  0  0  0  0
 10  1  1  0  0  0  0
 11 16  1  0  0  0  0
 11 10  2  0  0  0  0
 12 11  1  0  0  0  0
 13 12  2  0  0  0  0
 13 14  1  0  0  0  0
 14  9  2  0  0  0  0
 17 13  1  0  0  0  0
 18 19  1  0  0  0  0
 18 25  2  0  0  0  0
 19 21  2  0  0  0  0
 20 19  1  0  0  0  0
 21 23  1  0  0  0  0
 21 22  1  0  0  0  0
 23 24  1  0  0  0  0
 25 23  1  0  0  0  0
M  END
>  <minimizedAffinity>
-4.59424353

$$$$

 OpenBabel03272502123D

 25 27  0  0  0  0  0  0  0  0999 V2000
   39.2620   24.3480   34.4840 C   0  0  0  0  0  0  0  0  0  0  0  0
   40.4860   24.3470   33.8720 C   0  0  0  0  0  0  0  0  0  0  0  0
   40.7210   24.6660   32.5370 C   0  0  0  0  0  0  0  0  0  0  0  0
   39.6260   25.0020   31.7960 N   0  0  0  0  0  0  0  0  0  0  0  0
   38.3990   25.0090   32.3810 C   0  0  0  0  0  0  0  0  0  0  0  0
   38.2360   24.6930   33.6750 N   0  0  0  0  0  0  0  0  0  0  0  0
   41.3840   24.0830   34.4350 H   0  0  0  0  0  0  0  0  0  0  0  0
   41.7090   24.6480   32.1080 H   0  0  0  0  0  0  0  0  0  0  0  0
   39.8920   23.1560   36.5890 C   0  0  0  0  0  0  0  0  0  0  0  0
   39.0600   24.0160   35.8540 C   0  0  0  0  0  0  0  0  0  0  0  0
   37.9810   24.5580   36.5300 C   0  0  0  0  0  0  0  0  0  0  0  0
   37.7700   24.2520   37.8300 N   0  0  0  0  0  0  0  0  0  0  0  0
   38.6050   23.4110   38.5020 C   0  0  0  0  0  0  0  0  0  0  0  0
   39.6810   22.8560   37.8710 N   0  0  0  0  0  0  0  0  0  0  0  0
   40.7220   22.7490   36.0400 H   0  0  0  0  0  0  0  0  0  0  0  0
   37.3160   25.2280   35.9930 H   0  0  0  0  0  0  0  0  0  0  0  0
   38.3420   23.2360   39.5390 H   0  0  0  0  0  0  0  0  0  0  0  0
   37.1710   25.3540   31.6720 C   0  0  0  0  0  0  0  0  0  0  0  0
   36.0840   24.4790   31.6740 C   0  0  0  0  0  0  0  0  0  0  0  0
   35.9930   23.5120   32.1520 H   0  0  0  0  0  0  0  0  0  0  0  0
   35.0750   25.0870   30.9190 C   0  0  0  0  0  0  0  0  0  0  0  0
   34.1030   24.6420   30.7420 H   0  0  0  0  0  0  0  0  0  0  0  0
   35.5700   26.2790   30.4960 N   0  0  0  0  0  0  0  0  0  0  0  0
   35.0370   26.9680   29.9010 H   0  0  0  0  0  0  0  0  0  0  0  0
   36.8010   26.4310   30.9390 N   0  0  0  0  0  0  0  0  0  0  0  0
  1 10  1  0  0  0  0
  2  7  1  0  0  0  0
  2  1  1  0  0  0  0
  3  2  2  0  0  0  0
  4  5  2  0  0  0  0
  4  3  1  0  0  0  0
  5  6  1  0  0  0  0
  6  1  2  0  0  0  0
  8  3  1  0  0  0  0
  9 14  1  0  0  0  0
 10 11  1  0  0  0  0
 10  9  2  0  0  0  0
 11 12  2  0  0  0  0
 12 13  1  0  0  0  0
 13 17  1  0  0  0  0
 14 13  2  0  0  0  0
 15  9  1  0  0  0  0
 16 11  1  0  0  0  0
 18 19  1  0  0  0  0
 18  5  1  0  0  0  0
 19 20  1  0  0  0  0
 21 19  2  0  0  0  0
 22 21  1  0  0  0  0
 23 21  1  0  0  0  0
 23 25  1  0  0  0  0
 24 23  1  0  0  0  0
 25 18  2  0  0  0  0
M  END
>  <minimizedAffinity>
-4.59033966

$$$$

 OpenBabel03272502123D

 25 27  0  0  0  0  0  0  0  0999 V2000
   38.3970   24.4620   36.1460 C   0  0  0  0  0  0  0  0  0  0  0  0
   37.7280   24.3910   37.3370 C   0  0  0  0  0  0  0  0  0  0  0  0
   38.1520   23.6840   38.4600 C   0  0  0  0  0  0  0  0  0  0  0  0
   39.3340   23.0140   38.3390 N   0  0  0  0  0  0  0  0  0  0  0  0
   40.0170   23.0690   37.1660 C   0  0  0  0  0  0  0  0  0  0  0  0
   39.5570   23.7690   36.1170 N   0  0  0  0  0  0  0  0  0  0  0  0
   36.7780   24.9150   37.4700 H   0  0  0  0  0  0  0  0  0  0  0  0
   37.5820   23.6630   39.3750 H   0  0  0  0  0  0  0  0  0  0  0  0
   37.3700   26.4810   35.0890 C   0  0  0  0  0  0  0  0  0  0  0  0
   37.9320   25.1960   35.0180 C   0  0  0  0  0  0  0  0  0  0  0  0
   38.0220   24.6310   33.7580 C   0  0  0  0  0  0  0  0  0  0  0  0
   37.5830   25.3100   32.6750 N   0  0  0  0  0  0  0  0  0  0  0  0
   37.0440   26.5560   32.7930 C   0  0  0  0  0  0  0  0  0  0  0  0
   36.9370   27.1480   34.0190 N   0  0  0  0  0  0  0  0  0  0  0  0
   37.3110   26.8970   36.0790 H   0  0  0  0  0  0  0  0  0  0  0  0
   38.4520   23.6380   33.6660 H   0  0  0  0  0  0  0  0  0  0  0  0
   36.7250   27.0080   31.8620 H   0  0  0  0  0  0  0  0  0  0  0  0
   41.2880   22.3870   36.9410 C   0  0  0  0  0  0  0  0  0  0  0  0
   42.3400   23.0450   36.3030 C   0  0  0  0  0  0  0  0  0  0  0  0
   42.3730   24.0570   35.9170 H   0  0  0  0  0  0  0  0  0  0  0  0
   43.4030   22.1390   36.2390 C   0  0  0  0  0  0  0  0  0  0  0  0
   44.3650   22.3680   35.7940 H   0  0  0  0  0  0  0  0  0  0  0  0
   42.9730   20.9930   36.8250 N   0  0  0  0  0  0  0  0  0  0  0  0
   43.5580   20.1210   36.9290 H   0  0  0  0  0  0  0  0  0  0  0  0
   41.7300   21.1420   37.2360 N   0  0  0  0  0  0  0  0  0  0  0  0
  1  2  1  0  0  0  0
  2  7  1  0  0  0  0
  2  3  2  0  0  0  0
  3  8  1  0  0  0  0
  4  3  1  0  0  0  0
  5  4  2  0  0  0  0
  6  1  2  0  0  0  0
  6  5  1  0  0  0  0
  9 15  1  0  0  0  0
 10  9  1  0  0  0  0
 10  1  1  0  0  0  0
 11 10  2  0  0  0  0
 12 13  2  0  0  0  0
 12 11  1  0  0  0  0
 13 14  1  0  0  0  0
 14  9  2  0  0  0  0
 16 11  1  0  0  0  0
 17 13  1  0  0  0  0
 18  5  1  0  0  0  0
 18 25  2  0  0  0  0
 19 18  1  0  0  0  0
 20 19  1  0  0  0  0
 21 19  2  0  0  0  0
 21 23  1  0  0  0  0
 22 21  1  0  0  0  0
 23 24  1  0  0  0  0
 23 25  1  0  0  0  0
M  END
>  <minimizedAffinity>
-4.58273935

$$$$

 OpenBabel03272502123D

 25 27  0  0  0  0  0  0  0  0999 V2000
   36.7150   27.8070   33.5280 C   0  0  0  0  0  0  0  0  0  0  0  0
   36.7660   28.2310   32.2280 C   0  0  0  0  0  0  0  0  0  0  0  0
   36.2720   29.4460   31.7560 C   0  0  0  0  0  0  0  0  0  0  0  0
   35.6940   30.2620   32.6830 N   0  0  0  0  0  0  0  0  0  0  0  0
   35.6300   29.8620   33.9800 C   0  0  0  0  0  0  0  0  0  0  0  0
   36.1250   28.6780   34.3750 N   0  0  0  0  0  0  0  0  0  0  0  0
   37.2220   27.6030   31.4590 H   0  0  0  0  0  0  0  0  0  0  0  0
   36.3400   29.7280   30.7190 H   0  0  0  0  0  0  0  0  0  0  0  0
   37.5280   26.2570   35.3130 C   0  0  0  0  0  0  0  0  0  0  0  0
   37.2300   26.5560   33.9740 C   0  0  0  0  0  0  0  0  0  0  0  0
   37.4660   25.5530   33.0500 C   0  0  0  0  0  0  0  0  0  0  0  0
   37.9590   24.3600   33.4540 N   0  0  0  0  0  0  0  0  0  0  0  0
   38.2330   24.1170   34.7660 C   0  0  0  0  0  0  0  0  0  0  0  0
   38.0140   25.0800   35.7080 N   0  0  0  0  0  0  0  0  0  0  0  0
   37.3350   27.0540   36.0100 H   0  0  0  0  0  0  0  0  0  0  0  0
   37.2470   25.7480   32.0050 H   0  0  0  0  0  0  0  0  0  0  0  0
   38.6240   23.1280   34.9770 H   0  0  0  0  0  0  0  0  0  0  0  0
   35.0320   30.6640   35.0420 C   0  0  0  0  0  0  0  0  0  0  0  0
   35.8360   31.4170   35.8980 C   0  0  0  0  0  0  0  0  0  0  0  0
   36.9150   31.5130   35.9060 H   0  0  0  0  0  0  0  0  0  0  0  0
   34.9780   32.0640   36.7930 C   0  0  0  0  0  0  0  0  0  0  0  0
   35.3170   32.7260   37.5830 H   0  0  0  0  0  0  0  0  0  0  0  0
   33.7160   31.6940   36.4590 N   0  0  0  0  0  0  0  0  0  0  0  0
   32.8460   32.0230   36.9580 H   0  0  0  0  0  0  0  0  0  0  0  0
   33.7510   30.8710   35.4310 N   0  0  0  0  0  0  0  0  0  0  0  0
  1 10  1  0  0  0  0
  1  6  1  0  0  0  0
  2  1  2  0  0  0  0
  3  2  1  0  0  0  0
  3  4  2  0  0  0  0
  4  5  1  0  0  0  0
  5  6  2  0  0  0  0
  5 18  1  0  0  0  0
  7  2  1  0  0  0  0
  8  3  1  0  0  0  0
  9 14  1  0  0  0  0
  9 15  1  0  0  0  0
 10  9  2  0  0  0  0
 11 12  2  0  0  0  0
 11 10  1  0  0  0  0
 12 13  1  0  0  0  0
 13 17  1  0  0  0  0
 13 14  2  0  0  0  0
 16 11  1  0  0  0  0
 18 25  2  0  0  0  0
 18 19  1  0  0  0  0
 19 20  1  0  0  0  0
 19 21  2  0  0  0  0
 21 22  1  0  0  0  0
 23 21  1  0  0  0  0
 23 24  1  0  0  0  0
 25 23  1  0  0  0  0
M  END
>  <minimizedAffinity>
-4.49172306

$$$$
