
 OpenBabel03272510073D

 29 31  0  0  0  0  0  0  0  0999 V2000
   38.4700   26.3060   36.0740 C   0  0  0  0  0  0  0  0  0  0  0  0
   38.5110   24.9650   35.6810 C   0  0  0  0  0  0  0  0  0  0  0  0
   38.0040   24.6330   34.4240 C   0  0  0  0  0  0  0  0  0  0  0  0
   37.4870   25.6190   33.6220 N   0  0  0  0  0  0  0  0  0  0  0  0
   37.4730   26.9030   34.0580 C   0  0  0  0  0  0  0  0  0  0  0  0
   37.9520   27.2600   35.2620 N   0  0  0  0  0  0  0  0  0  0  0  0
   36.9170   27.8960   33.1740 N   0  0  0  0  0  0  0  0  0  0  0  0
   37.4170   28.1870   31.8530 C   0  0  0  0  0  0  0  0  0  0  0  0
   36.3700   29.0280   31.2120 C   0  0  0  0  0  0  0  0  0  0  0  0
   35.1910   29.0540   32.1670 C   0  0  0  0  0  0  0  0  0  0  0  0
   35.7690   28.7430   33.4940 C   0  0  0  0  0  0  0  0  0  0  0  0
   38.8400   26.6390   37.0240 H   0  0  0  0  0  0  0  0  0  0  0  0
   38.0420   23.6090   34.1380 H   0  0  0  0  0  0  0  0  0  0  0  0
   38.4060   28.7230   31.9160 H   0  0  0  0  0  0  0  0  0  0  0  0
   37.6250   27.2390   31.3190 H   0  0  0  0  0  0  0  0  0  0  0  0
   35.9980   28.5380   30.2750 H   0  0  0  0  0  0  0  0  0  0  0  0
   36.7240   30.0220   30.9400 H   0  0  0  0  0  0  0  0  0  0  0  0
   34.4330   28.2890   31.9030 H   0  0  0  0  0  0  0  0  0  0  0  0
   34.7660   30.0780   32.1810 H   0  0  0  0  0  0  0  0  0  0  0  0
   36.0580   29.6180   34.0920 H   0  0  0  0  0  0  0  0  0  0  0  0
   35.1060   28.1120   34.1450 H   0  0  0  0  0  0  0  0  0  0  0  0
   39.0730   23.9650   36.5780 C   0  0  0  0  0  0  0  0  0  0  0  0
   40.2140   23.2260   36.3550 C   0  0  0  0  0  0  0  0  0  0  0  0
   40.8930   23.2340   35.5140 H   0  0  0  0  0  0  0  0  0  0  0  0
   40.3060   22.4300   37.5030 C   0  0  0  0  0  0  0  0  0  0  0  0
   41.1180   21.7180   37.6370 H   0  0  0  0  0  0  0  0  0  0  0  0
   39.2690   22.6940   38.3490 N   0  0  0  0  0  0  0  0  0  0  0  0
   39.1540   22.1990   39.2720 H   0  0  0  0  0  0  0  0  0  0  0  0
   38.5320   23.6340   37.7620 N   0  0  0  0  0  0  0  0  0  0  0  0
  1 12  1  0  0  0  0
  2  1  1  0  0  0  0
  2 22  1  0  0  0  0
  3  2  2  0  0  0  0
  4  5  2  0  0  0  0
  4  3  1  0  0  0  0
  5  6  1  0  0  0  0
  6  1  2  0  0  0  0
  7 11  1  0  0  0  0
  7  5  1  0  0  0  0
  8 14  1  0  0  0  0
  8  7  1  0  0  0  0
  9  8  1  0  0  0  0
  9 10  1  0  0  0  0
 10 19  1  0  0  0  0
 10 11  1  0  0  0  0
 11 20  1  0  0  0  0
 11 21  1  0  0  0  0
 13  3  1  0  0  0  0
 15  8  1  0  0  0  0
 16  9  1  0  0  0  0
 17  9  1  0  0  0  0
 18 10  1  0  0  0  0
 22 29  2  0  0  0  0
 23 22  1  0  0  0  0
 23 25  2  0  0  0  0
 24 23  1  0  0  0  0
 25 26  1  0  0  0  0
 25 27  1  0  0  0  0
 27 28  1  0  0  0  0
 29 27  1  0  0  0  0
M  END
>  <minimizedAffinity>
-5.00792074

$$$$

 OpenBabel03272510073D

 29 31  0  0  0  0  0  0  0  0999 V2000
   38.2110   26.5280   35.9350 C   0  0  0  0  0  0  0  0  0  0  0  0
   38.2760   25.1430   35.7570 C   0  0  0  0  0  0  0  0  0  0  0  0
   38.0980   24.6360   34.4690 C   0  0  0  0  0  0  0  0  0  0  0  0
   37.8670   25.5010   33.4290 N   0  0  0  0  0  0  0  0  0  0  0  0
   37.8140   26.8360   33.6620 C   0  0  0  0  0  0  0  0  0  0  0  0
   37.9810   27.3600   34.8890 N   0  0  0  0  0  0  0  0  0  0  0  0
   37.5670   27.6950   32.5330 N   0  0  0  0  0  0  0  0  0  0  0  0
   38.4120   27.7770   31.3670 C   0  0  0  0  0  0  0  0  0  0  0  0
   37.6200   28.5320   30.3590 C   0  0  0  0  0  0  0  0  0  0  0  0
   36.2350   28.7230   30.9490 C   0  0  0  0  0  0  0  0  0  0  0  0
   36.4270   28.6020   32.4130 C   0  0  0  0  0  0  0  0  0  0  0  0
   38.3380   26.9920   36.8930 H   0  0  0  0  0  0  0  0  0  0  0  0
   38.1510   23.5800   34.3490 H   0  0  0  0  0  0  0  0  0  0  0  0
   39.3790   28.2980   31.6170 H   0  0  0  0  0  0  0  0  0  0  0  0
   38.6970   26.7560   31.0450 H   0  0  0  0  0  0  0  0  0  0  0  0
   37.4790   27.9150   29.4340 H   0  0  0  0  0  0  0  0  0  0  0  0
   38.0900   29.4680   30.0560 H   0  0  0  0  0  0  0  0  0  0  0  0
   35.5310   27.9410   30.6020 H   0  0  0  0  0  0  0  0  0  0  0  0
   35.8820   29.7450   30.7070 H   0  0  0  0  0  0  0  0  0  0  0  0
   36.5990   29.5520   32.9390 H   0  0  0  0  0  0  0  0  0  0  0  0
   35.5810   28.0880   32.9440 H   0  0  0  0  0  0  0  0  0  0  0  0
   38.5250   24.2780   36.9020 C   0  0  0  0  0  0  0  0  0  0  0  0
   37.9540   24.4000   38.1500 C   0  0  0  0  0  0  0  0  0  0  0  0
   37.2420   25.1250   38.5190 H   0  0  0  0  0  0  0  0  0  0  0  0
   38.5210   23.3380   38.8630 C   0  0  0  0  0  0  0  0  0  0  0  0
   38.2690   23.1550   39.9070 H   0  0  0  0  0  0  0  0  0  0  0  0
   39.3780   22.6340   38.0690 N   0  0  0  0  0  0  0  0  0  0  0  0
   39.9080   21.7940   38.4180 H   0  0  0  0  0  0  0  0  0  0  0  0
   39.3620   23.2270   36.8770 N   0  0  0  0  0  0  0  0  0  0  0  0
  1 12  1  0  0  0  0
  2  1  1  0  0  0  0
  2 22  1  0  0  0  0
  3  2  2  0  0  0  0
  4  5  2  0  0  0  0
  4  3  1  0  0  0  0
  5  6  1  0  0  0  0
  6  1  2  0  0  0  0
  7  5  1  0  0  0  0
  8 14  1  0  0  0  0
  8  7  1  0  0  0  0
  9 10  1  0  0  0  0
  9  8  1  0  0  0  0
 10 11  1  0  0  0  0
 11  7  1  0  0  0  0
 11 20  1  0  0  0  0
 11 21  1  0  0  0  0
 13  3  1  0  0  0  0
 15  8  1  0  0  0  0
 16  9  1  0  0  0  0
 17  9  1  0  0  0  0
 18 10  1  0  0  0  0
 19 10  1  0  0  0  0
 22 23  1  0  0  0  0
 23 24  1  0  0  0  0
 23 25  2  0  0  0  0
 25 26  1  0  0  0  0
 27 28  1  0  0  0  0
 27 25  1  0  0  0  0
 29 22  2  0  0  0  0
 29 27  1  0  0  0  0
M  END
>  <minimizedAffinity>
-4.97579527

$$$$

 OpenBabel03272510073D

 29 31  0  0  0  0  0  0  0  0999 V2000
   38.1710   24.3110   34.4170 C   0  0  0  0  0  0  0  0  0  0  0  0
   38.2090   24.9310   35.6690 C   0  0  0  0  0  0  0  0  0  0  0  0
   37.9320   26.2980   35.7350 C   0  0  0  0  0  0  0  0  0  0  0  0
   37.6350   26.9820   34.5840 N   0  0  0  0  0  0  0  0  0  0  0  0
   37.6130   26.3260   33.3960 C   0  0  0  0  0  0  0  0  0  0  0  0
   37.8740   25.0120   33.2950 N   0  0  0  0  0  0  0  0  0  0  0  0
   37.2970   27.0970   32.2210 N   0  0  0  0  0  0  0  0  0  0  0  0
   36.0620   27.8150   32.0220 C   0  0  0  0  0  0  0  0  0  0  0  0
   36.3030   28.6940   30.8460 C   0  0  0  0  0  0  0  0  0  0  0  0
   37.7750   28.5610   30.5000 C   0  0  0  0  0  0  0  0  0  0  0  0
   38.1830   27.2560   31.0700 C   0  0  0  0  0  0  0  0  0  0  0  0
   38.3710   23.2650   34.2860 H   0  0  0  0  0  0  0  0  0  0  0  0
   37.9640   26.7560   36.6940 H   0  0  0  0  0  0  0  0  0  0  0  0
   35.2130   27.0970   31.8430 H   0  0  0  0  0  0  0  0  0  0  0  0
   35.7990   28.3630   32.9480 H   0  0  0  0  0  0  0  0  0  0  0  0
   36.1470   29.7680   31.1250 H   0  0  0  0  0  0  0  0  0  0  0  0
   35.6430   28.4780   30.0050 H   0  0  0  0  0  0  0  0  0  0  0  0
   38.3770   29.3710   30.9580 H   0  0  0  0  0  0  0  0  0  0  0  0
   37.8800   28.5310   29.3970 H   0  0  0  0  0  0  0  0  0  0  0  0
   38.1150   26.4060   30.3770 H   0  0  0  0  0  0  0  0  0  0  0  0
   39.2240   27.2480   31.4910 H   0  0  0  0  0  0  0  0  0  0  0  0
   38.5310   24.1490   36.8550 C   0  0  0  0  0  0  0  0  0  0  0  0
   38.0100   24.3370   38.1160 C   0  0  0  0  0  0  0  0  0  0  0  0
   37.2930   25.0660   38.4700 H   0  0  0  0  0  0  0  0  0  0  0  0
   38.6370   23.3400   38.8710 C   0  0  0  0  0  0  0  0  0  0  0  0
   38.4350   23.2190   39.9340 H   0  0  0  0  0  0  0  0  0  0  0  0
   39.4810   22.6090   38.0860 N   0  0  0  0  0  0  0  0  0  0  0  0
   40.0510   21.8080   38.4650 H   0  0  0  0  0  0  0  0  0  0  0  0
   39.3970   23.1230   36.8610 N   0  0  0  0  0  0  0  0  0  0  0  0
  1  2  1  0  0  0  0
  2  3  2  0  0  0  0
  2 22  1  0  0  0  0
  3 13  1  0  0  0  0
  4  3  1  0  0  0  0
  5  4  2  0  0  0  0
  6  5  1  0  0  0  0
  6  1  2  0  0  0  0
  7  5  1  0  0  0  0
  8  7  1  0  0  0  0
  8 15  1  0  0  0  0
  9 16  1  0  0  0  0
  9  8  1  0  0  0  0
 10  9  1  0  0  0  0
 10 18  1  0  0  0  0
 10 11  1  0  0  0  0
 11 21  1  0  0  0  0
 11  7  1  0  0  0  0
 12  1  1  0  0  0  0
 14  8  1  0  0  0  0
 17  9  1  0  0  0  0
 19 10  1  0  0  0  0
 20 11  1  0  0  0  0
 22 29  2  0  0  0  0
 22 23  1  0  0  0  0
 23 24  1  0  0  0  0
 23 25  2  0  0  0  0
 25 26  1  0  0  0  0
 27 28  1  0  0  0  0
 27 25  1  0  0  0  0
 29 27  1  0  0  0  0
M  END
>  <minimizedAffinity>
-4.93378067

$$$$

 OpenBabel03272510073D

 29 31  0  0  0  0  0  0  0  0999 V2000
   38.1230   24.3610   34.3490 C   0  0  0  0  0  0  0  0  0  0  0  0
   38.6420   24.8120   35.5660 C   0  0  0  0  0  0  0  0  0  0  0  0
   38.6060   26.1820   35.8300 C   0  0  0  0  0  0  0  0  0  0  0  0
   38.0680   27.0340   34.9000 N   0  0  0  0  0  0  0  0  0  0  0  0
   37.5790   26.5390   33.7360 C   0  0  0  0  0  0  0  0  0  0  0  0
   37.5970   25.2270   33.4470 N   0  0  0  0  0  0  0  0  0  0  0  0
   37.0280   27.4820   32.7960 N   0  0  0  0  0  0  0  0  0  0  0  0
   35.9140   28.3560   33.0720 C   0  0  0  0  0  0  0  0  0  0  0  0
   35.9020   29.3420   31.9570 C   0  0  0  0  0  0  0  0  0  0  0  0
   37.1540   29.0870   31.1390 C   0  0  0  0  0  0  0  0  0  0  0  0
   37.5220   27.6830   31.4350 C   0  0  0  0  0  0  0  0  0  0  0  0
   38.1150   23.3250   34.0750 H   0  0  0  0  0  0  0  0  0  0  0  0
   39.0050   26.5090   36.7600 H   0  0  0  0  0  0  0  0  0  0  0  0
   34.9550   27.7670   33.1220 H   0  0  0  0  0  0  0  0  0  0  0  0
   36.0390   28.8090   34.0740 H   0  0  0  0  0  0  0  0  0  0  0  0
   36.0020   30.3830   32.3590 H   0  0  0  0  0  0  0  0  0  0  0  0
   34.9880   29.3090   31.3640 H   0  0  0  0  0  0  0  0  0  0  0  0
   37.9830   29.7590   31.4390 H   0  0  0  0  0  0  0  0  0  0  0  0
   36.9030   29.1830   30.0640 H   0  0  0  0  0  0  0  0  0  0  0  0
   37.1160   26.9390   30.7360 H   0  0  0  0  0  0  0  0  0  0  0  0
   38.6290   27.5030   31.4900 H   0  0  0  0  0  0  0  0  0  0  0  0
   39.2000   23.8560   36.5130 C   0  0  0  0  0  0  0  0  0  0  0  0
   40.3600   23.1310   36.3460 C   0  0  0  0  0  0  0  0  0  0  0  0
   41.0600   23.1230   35.5220 H   0  0  0  0  0  0  0  0  0  0  0  0
   40.4380   22.3800   37.5240 C   0  0  0  0  0  0  0  0  0  0  0  0
   41.2590   21.6890   37.7050 H   0  0  0  0  0  0  0  0  0  0  0  0
   39.3750   22.6540   38.3340 N   0  0  0  0  0  0  0  0  0  0  0  0
   39.2460   22.1910   39.2720 H   0  0  0  0  0  0  0  0  0  0  0  0
   38.6350   23.5580   37.6950 N   0  0  0  0  0  0  0  0  0  0  0  0
  1  2  1  0  0  0  0
  2  3  2  0  0  0  0
  2 22  1  0  0  0  0
  3 13  1  0  0  0  0
  4  3  1  0  0  0  0
  5  4  2  0  0  0  0
  6  5  1  0  0  0  0
  6  1  2  0  0  0  0
  7  8  1  0  0  0  0
  7  5  1  0  0  0  0
  8 14  1  0  0  0  0
  8 15  1  0  0  0  0
  9 16  1  0  0  0  0
  9  8  1  0  0  0  0
 10 11  1  0  0  0  0
 10 18  1  0  0  0  0
 10  9  1  0  0  0  0
 11 21  1  0  0  0  0
 11  7  1  0  0  0  0
 12  1  1  0  0  0  0
 17  9  1  0  0  0  0
 19 10  1  0  0  0  0
 20 11  1  0  0  0  0
 22 29  2  0  0  0  0
 23 22  1  0  0  0  0
 23 25  2  0  0  0  0
 24 23  1  0  0  0  0
 25 26  1  0  0  0  0
 25 27  1  0  0  0  0
 27 28  1  0  0  0  0
 29 27  1  0  0  0  0
M  END
>  <minimizedAffinity>
-4.84023571

$$$$

 OpenBabel03272510073D

 29 31  0  0  0  0  0  0  0  0999 V2000
   37.3910   25.0300   32.7950 C   0  0  0  0  0  0  0  0  0  0  0  0
   38.0640   26.2370   32.5840 C   0  0  0  0  0  0  0  0  0  0  0  0
   39.0320   26.6220   33.5130 C   0  0  0  0  0  0  0  0  0  0  0  0
   39.2900   25.8160   34.5920 N   0  0  0  0  0  0  0  0  0  0  0  0
   38.6040   24.6550   34.7450 C   0  0  0  0  0  0  0  0  0  0  0  0
   37.6660   24.2520   33.8710 N   0  0  0  0  0  0  0  0  0  0  0  0
   38.9160   23.8500   35.8980 N   0  0  0  0  0  0  0  0  0  0  0  0
   40.2190   23.2980   36.1810 C   0  0  0  0  0  0  0  0  0  0  0  0
   40.1470   22.8230   37.5900 C   0  0  0  0  0  0  0  0  0  0  0  0
   38.8080   23.2840   38.1350 C   0  0  0  0  0  0  0  0  0  0  0  0
   37.9580   23.4820   36.9380 C   0  0  0  0  0  0  0  0  0  0  0  0
   36.6360   24.6670   32.1260 H   0  0  0  0  0  0  0  0  0  0  0  0
   39.5350   27.5430   33.3380 H   0  0  0  0  0  0  0  0  0  0  0  0
   40.4540   22.4590   35.4670 H   0  0  0  0  0  0  0  0  0  0  0  0
   40.9940   24.0680   36.0040 H   0  0  0  0  0  0  0  0  0  0  0  0
   40.9260   23.3340   38.2120 H   0  0  0  0  0  0  0  0  0  0  0  0
   40.3040   21.7490   37.6910 H   0  0  0  0  0  0  0  0  0  0  0  0
   38.8980   24.2410   38.6880 H   0  0  0  0  0  0  0  0  0  0  0  0
   38.3800   22.4760   38.7610 H   0  0  0  0  0  0  0  0  0  0  0  0
   37.3520   22.6120   36.6500 H   0  0  0  0  0  0  0  0  0  0  0  0
   37.2540   24.3540   37.0170 H   0  0  0  0  0  0  0  0  0  0  0  0
   37.7450   27.0500   31.4180 C   0  0  0  0  0  0  0  0  0  0  0  0
   38.6120   27.8840   30.7480 C   0  0  0  0  0  0  0  0  0  0  0  0
   39.6550   28.0980   30.9390 H   0  0  0  0  0  0  0  0  0  0  0  0
   37.8180   28.4150   29.7270 C   0  0  0  0  0  0  0  0  0  0  0  0
   38.2180   29.1270   29.0060 H   0  0  0  0  0  0  0  0  0  0  0  0
   36.5510   27.9140   29.8000 N   0  0  0  0  0  0  0  0  0  0  0  0
   35.7950   28.1900   29.1190 H   0  0  0  0  0  0  0  0  0  0  0  0
   36.5330   27.0830   30.8400 N   0  0  0  0  0  0  0  0  0  0  0  0
  1  6  1  0  0  0  0
  2  1  2  0  0  0  0
  2  3  1  0  0  0  0
  3  4  2  0  0  0  0
  4  5  1  0  0  0  0
  5  7  1  0  0  0  0
  6  5  2  0  0  0  0
  7  8  1  0  0  0  0
  7 11  1  0  0  0  0
  8  9  1  0  0  0  0
  9 17  1  0  0  0  0
  9 10  1  0  0  0  0
  9 16  1  0  0  0  0
 10 18  1  0  0  0  0
 10 19  1  0  0  0  0
 11 21  1  0  0  0  0
 11 10  1  0  0  0  0
 12  1  1  0  0  0  0
 13  3  1  0  0  0  0
 14  8  1  0  0  0  0
 15  8  1  0  0  0  0
 20 11  1  0  0  0  0
 22  2  1  0  0  0  0
 23 24  1  0  0  0  0
 23 22  1  0  0  0  0
 25 27  1  0  0  0  0
 25 23  2  0  0  0  0
 26 25  1  0  0  0  0
 27 29  1  0  0  0  0
 28 27  1  0  0  0  0
 29 22  2  0  0  0  0
M  END
>  <minimizedAffinity>
-4.58474731

$$$$

 OpenBabel03272510073D

 29 31  0  0  0  0  0  0  0  0999 V2000
   35.1310   29.0950   32.8740 C   0  0  0  0  0  0  0  0  0  0  0  0
   35.7100   29.2090   34.1400 C   0  0  0  0  0  0  0  0  0  0  0  0
   36.6130   28.2240   34.5420 C   0  0  0  0  0  0  0  0  0  0  0  0
   36.9000   27.1860   33.6940 N   0  0  0  0  0  0  0  0  0  0  0  0
   36.3070   27.1270   32.4760 C   0  0  0  0  0  0  0  0  0  0  0  0
   35.4330   28.0570   32.0550 N   0  0  0  0  0  0  0  0  0  0  0  0
   36.6460   26.0120   31.6280 N   0  0  0  0  0  0  0  0  0  0  0  0
   37.9790   25.7140   31.1630 C   0  0  0  0  0  0  0  0  0  0  0  0
   37.9000   24.3390   30.5990 C   0  0  0  0  0  0  0  0  0  0  0  0
   36.5110   23.8180   30.9180 C   0  0  0  0  0  0  0  0  0  0  0  0
   35.6870   25.0320   31.1220 C   0  0  0  0  0  0  0  0  0  0  0  0
   34.4290   29.8120   32.4940 H   0  0  0  0  0  0  0  0  0  0  0  0
   37.0450   28.3250   35.5090 H   0  0  0  0  0  0  0  0  0  0  0  0
   38.3040   26.4670   30.3920 H   0  0  0  0  0  0  0  0  0  0  0  0
   38.6940   25.8170   32.0020 H   0  0  0  0  0  0  0  0  0  0  0  0
   38.6150   23.6600   31.1300 H   0  0  0  0  0  0  0  0  0  0  0  0
   38.1410   24.2970   29.5360 H   0  0  0  0  0  0  0  0  0  0  0  0
   36.5060   23.2070   31.8430 H   0  0  0  0  0  0  0  0  0  0  0  0
   36.1310   23.2570   30.0420 H   0  0  0  0  0  0  0  0  0  0  0  0
   35.1630   25.3930   30.2260 H   0  0  0  0  0  0  0  0  0  0  0  0
   34.9130   24.9280   31.9290 H   0  0  0  0  0  0  0  0  0  0  0  0
   35.3630   30.3360   34.9960 C   0  0  0  0  0  0  0  0  0  0  0  0
   34.1160   30.9100   35.1150 C   0  0  0  0  0  0  0  0  0  0  0  0
   33.1860   30.6570   34.6240 H   0  0  0  0  0  0  0  0  0  0  0  0
   34.3250   31.9330   36.0460 C   0  0  0  0  0  0  0  0  0  0  0  0
   33.5150   32.5880   36.3630 H   0  0  0  0  0  0  0  0  0  0  0  0
   35.6290   31.9520   36.4480 N   0  0  0  0  0  0  0  0  0  0  0  0
   35.9930   32.6500   37.1490 H   0  0  0  0  0  0  0  0  0  0  0  0
   36.2400   30.9680   35.7930 N   0  0  0  0  0  0  0  0  0  0  0  0
  1  2  1  0  0  0  0
  2  3  2  0  0  0  0
  2 22  1  0  0  0  0
  3 13  1  0  0  0  0
  4  3  1  0  0  0  0
  5  4  2  0  0  0  0
  6  5  1  0  0  0  0
  6  1  2  0  0  0  0
  7  5  1  0  0  0  0
  8  7  1  0  0  0  0
  8 15  1  0  0  0  0
  9 10  1  0  0  0  0
  9 16  1  0  0  0  0
  9  8  1  0  0  0  0
 10 11  1  0  0  0  0
 10 18  1  0  0  0  0
 11  7  1  0  0  0  0
 11 21  1  0  0  0  0
 12  1  1  0  0  0  0
 14  8  1  0  0  0  0
 17  9  1  0  0  0  0
 19 10  1  0  0  0  0
 20 11  1  0  0  0  0
 22 23  1  0  0  0  0
 22 29  2  0  0  0  0
 23 25  2  0  0  0  0
 24 23  1  0  0  0  0
 25 26  1  0  0  0  0
 25 27  1  0  0  0  0
 27 28  1  0  0  0  0
 29 27  1  0  0  0  0
M  END
>  <minimizedAffinity>
-4.53230715

$$$$

 OpenBabel03272510073D

 29 31  0  0  0  0  0  0  0  0999 V2000
   35.8350   29.0340   32.7490 C   0  0  0  0  0  0  0  0  0  0  0  0
   36.1890   29.9670   31.7710 C   0  0  0  0  0  0  0  0  0  0  0  0
   36.0160   31.3210   32.0600 C   0  0  0  0  0  0  0  0  0  0  0  0
   35.5110   31.6910   33.2800 N   0  0  0  0  0  0  0  0  0  0  0  0
   35.1840   30.7410   34.1910 C   0  0  0  0  0  0  0  0  0  0  0  0
   35.3370   29.4280   33.9470 N   0  0  0  0  0  0  0  0  0  0  0  0
   34.6560   31.1890   35.4540 N   0  0  0  0  0  0  0  0  0  0  0  0
   35.3590   32.0490   36.3750 C   0  0  0  0  0  0  0  0  0  0  0  0
   34.3340   32.4880   37.3620 C   0  0  0  0  0  0  0  0  0  0  0  0
   32.9980   31.9740   36.8580 C   0  0  0  0  0  0  0  0  0  0  0  0
   33.3380   30.8330   35.9760 C   0  0  0  0  0  0  0  0  0  0  0  0
   35.9380   27.9760   32.6020 H   0  0  0  0  0  0  0  0  0  0  0  0
   36.2910   32.0190   31.3050 H   0  0  0  0  0  0  0  0  0  0  0  0
   36.2040   31.4910   36.8670 H   0  0  0  0  0  0  0  0  0  0  0  0
   35.8330   32.8790   35.8170 H   0  0  0  0  0  0  0  0  0  0  0  0
   34.2540   33.6060   37.3670 H   0  0  0  0  0  0  0  0  0  0  0  0
   34.5580   32.1750   38.3820 H   0  0  0  0  0  0  0  0  0  0  0  0
   32.4570   32.7460   36.2750 H   0  0  0  0  0  0  0  0  0  0  0  0
   32.4090   31.6090   37.7220 H   0  0  0  0  0  0  0  0  0  0  0  0
   33.3410   29.8510   36.4680 H   0  0  0  0  0  0  0  0  0  0  0  0
   32.6760   30.7410   35.0740 H   0  0  0  0  0  0  0  0  0  0  0  0
   36.7210   29.5100   30.4940 C   0  0  0  0  0  0  0  0  0  0  0  0
   37.4290   30.2720   29.5910 C   0  0  0  0  0  0  0  0  0  0  0  0
   37.7220   31.3120   29.6400 H   0  0  0  0  0  0  0  0  0  0  0  0
   37.6980   29.3700   28.5560 C   0  0  0  0  0  0  0  0  0  0  0  0
   38.2560   29.6700   27.6700 H   0  0  0  0  0  0  0  0  0  0  0  0
   37.1710   28.1450   28.8430 N   0  0  0  0  0  0  0  0  0  0  0  0
   37.2640   27.3240   28.1890 H   0  0  0  0  0  0  0  0  0  0  0  0
   36.5810   28.2570   30.0310 N   0  0  0  0  0  0  0  0  0  0  0  0
  1  6  1  0  0  0  0
  2  3  1  0  0  0  0
  2  1  2  0  0  0  0
  3  4  2  0  0  0  0
  4  5  1  0  0  0  0
  5  7  1  0  0  0  0
  6  5  2  0  0  0  0
  7 11  1  0  0  0  0
  7  8  1  0  0  0  0
  8 14  1  0  0  0  0
  8  9  1  0  0  0  0
  9 16  1  0  0  0  0
  9 17  1  0  0  0  0
 10  9  1  0  0  0  0
 10 19  1  0  0  0  0
 11 20  1  0  0  0  0
 11 10  1  0  0  0  0
 12  1  1  0  0  0  0
 13  3  1  0  0  0  0
 15  8  1  0  0  0  0
 18 10  1  0  0  0  0
 21 11  1  0  0  0  0
 22  2  1  0  0  0  0
 23 24  1  0  0  0  0
 23 22  1  0  0  0  0
 25 27  1  0  0  0  0
 25 23  2  0  0  0  0
 26 25  1  0  0  0  0
 27 29  1  0  0  0  0
 28 27  1  0  0  0  0
 29 22  2  0  0  0  0
M  END
>  <minimizedAffinity>
-4.51782036

$$$$

 OpenBabel03272510073D

 29 31  0  0  0  0  0  0  0  0999 V2000
   37.3100   25.5480   31.8900 C   0  0  0  0  0  0  0  0  0  0  0  0
   36.2450   26.2750   31.3520 C   0  0  0  0  0  0  0  0  0  0  0  0
   35.1190   25.5710   30.9220 C   0  0  0  0  0  0  0  0  0  0  0  0
   35.0920   24.2050   31.0390 N   0  0  0  0  0  0  0  0  0  0  0  0
   36.1560   23.5520   31.5700 C   0  0  0  0  0  0  0  0  0  0  0  0
   37.2570   24.1970   31.9940 N   0  0  0  0  0  0  0  0  0  0  0  0
   36.0720   22.1180   31.6660 N   0  0  0  0  0  0  0  0  0  0  0  0
   35.0660   21.4060   32.4170 C   0  0  0  0  0  0  0  0  0  0  0  0
   35.1800   19.9880   31.9820 C   0  0  0  0  0  0  0  0  0  0  0  0
   36.1740   19.9640   30.8360 C   0  0  0  0  0  0  0  0  0  0  0  0
   36.9920   21.1860   31.0180 C   0  0  0  0  0  0  0  0  0  0  0  0
   38.2080   26.0170   32.2420 H   0  0  0  0  0  0  0  0  0  0  0  0
   34.3160   26.1380   30.5140 H   0  0  0  0  0  0  0  0  0  0  0  0
   35.2450   21.5220   33.5230 H   0  0  0  0  0  0  0  0  0  0  0  0
   34.0730   21.8590   32.2270 H   0  0  0  0  0  0  0  0  0  0  0  0
   34.2070   19.6340   31.5540 H   0  0  0  0  0  0  0  0  0  0  0  0
   35.4430   19.3090   32.7930 H   0  0  0  0  0  0  0  0  0  0  0  0
   35.6660   20.0010   29.8520 H   0  0  0  0  0  0  0  0  0  0  0  0
   36.8190   19.0700   30.9430 H   0  0  0  0  0  0  0  0  0  0  0  0
   37.9130   21.0460   31.6000 H   0  0  0  0  0  0  0  0  0  0  0  0
   37.2900   21.6830   30.0560 H   0  0  0  0  0  0  0  0  0  0  0  0
   36.3350   27.7250   31.2540 C   0  0  0  0  0  0  0  0  0  0  0  0
   36.1250   28.6210   32.2790 C   0  0  0  0  0  0  0  0  0  0  0  0
   35.8630   28.4440   33.3130 H   0  0  0  0  0  0  0  0  0  0  0  0
   36.3320   29.8610   31.6640 C   0  0  0  0  0  0  0  0  0  0  0  0
   36.2390   30.7930   32.2180 H   0  0  0  0  0  0  0  0  0  0  0  0
   36.6470   29.6930   30.3470 N   0  0  0  0  0  0  0  0  0  0  0  0
   36.8410   30.5060   29.7060 H   0  0  0  0  0  0  0  0  0  0  0  0
   36.6430   28.3810   30.1230 N   0  0  0  0  0  0  0  0  0  0  0  0
  1  6  1  0  0  0  0
  1 12  1  0  0  0  0
  2  1  2  0  0  0  0
  3  4  2  0  0  0  0
  3  2  1  0  0  0  0
  4  5  1  0  0  0  0
  5  7  1  0  0  0  0
  5  6  2  0  0  0  0
  7  8  1  0  0  0  0
  8 14  1  0  0  0  0
  9  8  1  0  0  0  0
  9 17  1  0  0  0  0
 10 19  1  0  0  0  0
 10 11  1  0  0  0  0
 10  9  1  0  0  0  0
 11 20  1  0  0  0  0
 11  7  1  0  0  0  0
 13  3  1  0  0  0  0
 15  8  1  0  0  0  0
 16  9  1  0  0  0  0
 18 10  1  0  0  0  0
 21 11  1  0  0  0  0
 22  2  1  0  0  0  0
 22 23  1  0  0  0  0
 23 24  1  0  0  0  0
 25 26  1  0  0  0  0
 25 23  2  0  0  0  0
 27 25  1  0  0  0  0
 28 27  1  0  0  0  0
 29 27  1  0  0  0  0
 29 22  2  0  0  0  0
M  END
>  <minimizedAffinity>
-4.45221376

$$$$

 OpenBabel03272510073D

 29 31  0  0  0  0  0  0  0  0999 V2000
   37.0800   24.3150   32.3610 C   0  0  0  0  0  0  0  0  0  0  0  0
   36.0590   23.6810   31.6480 C   0  0  0  0  0  0  0  0  0  0  0  0
   35.1370   24.4790   30.9690 C   0  0  0  0  0  0  0  0  0  0  0  0
   35.2590   25.8440   31.0200 N   0  0  0  0  0  0  0  0  0  0  0  0
   36.2710   26.4040   31.7290 C   0  0  0  0  0  0  0  0  0  0  0  0
   37.1760   25.6680   32.3960 N   0  0  0  0  0  0  0  0  0  0  0  0
   36.3470   27.8420   31.7490 N   0  0  0  0  0  0  0  0  0  0  0  0
   36.5050   28.6690   30.5770 C   0  0  0  0  0  0  0  0  0  0  0  0
   36.2220   30.0570   31.0350 C   0  0  0  0  0  0  0  0  0  0  0  0
   35.7370   29.9510   32.4680 C   0  0  0  0  0  0  0  0  0  0  0  0
   36.2760   28.6610   32.9580 C   0  0  0  0  0  0  0  0  0  0  0  0
   37.8250   23.7710   32.9080 H   0  0  0  0  0  0  0  0  0  0  0  0
   34.3660   23.9810   30.4300 H   0  0  0  0  0  0  0  0  0  0  0  0
   37.5470   28.5670   30.1620 H   0  0  0  0  0  0  0  0  0  0  0  0
   35.8280   28.3100   29.7780 H   0  0  0  0  0  0  0  0  0  0  0  0
   35.3710   30.4920   30.4510 H   0  0  0  0  0  0  0  0  0  0  0  0
   37.0730   30.7290   30.9180 H   0  0  0  0  0  0  0  0  0  0  0  0
   34.6300   29.9360   32.5260 H   0  0  0  0  0  0  0  0  0  0  0  0
   36.1770   30.7810   33.0560 H   0  0  0  0  0  0  0  0  0  0  0  0
   37.2470   28.7270   33.4680 H   0  0  0  0  0  0  0  0  0  0  0  0
   35.5840   28.1100   33.6500 H   0  0  0  0  0  0  0  0  0  0  0  0
   35.9840   22.2260   31.6320 C   0  0  0  0  0  0  0  0  0  0  0  0
   35.0680   21.4540   32.3130 C   0  0  0  0  0  0  0  0  0  0  0  0
   34.2590   21.7510   32.9650 H   0  0  0  0  0  0  0  0  0  0  0  0
   35.4290   20.1490   31.9600 C   0  0  0  0  0  0  0  0  0  0  0  0
   34.8870   19.2860   32.3430 H   0  0  0  0  0  0  0  0  0  0  0  0
   36.5020   20.1630   31.1170 N   0  0  0  0  0  0  0  0  0  0  0  0
   36.9300   19.2790   30.7350 H   0  0  0  0  0  0  0  0  0  0  0  0
   36.8200   21.4420   30.9330 N   0  0  0  0  0  0  0  0  0  0  0  0
  1  6  1  0  0  0  0
  1 12  1  0  0  0  0
  2  1  2  0  0  0  0
  3  4  2  0  0  0  0
  3  2  1  0  0  0  0
  4  5  1  0  0  0  0
  5  7  1  0  0  0  0
  5  6  2  0  0  0  0
  7 11  1  0  0  0  0
  8  9  1  0  0  0  0
  8  7  1  0  0  0  0
  9 10  1  0  0  0  0
 10 18  1  0  0  0  0
 10 11  1  0  0  0  0
 10 19  1  0  0  0  0
 11 20  1  0  0  0  0
 11 21  1  0  0  0  0
 13  3  1  0  0  0  0
 14  8  1  0  0  0  0
 15  8  1  0  0  0  0
 16  9  1  0  0  0  0
 17  9  1  0  0  0  0
 22  2  1  0  0  0  0
 22 23  1  0  0  0  0
 23 24  1  0  0  0  0
 25 23  2  0  0  0  0
 25 26  1  0  0  0  0
 27 25  1  0  0  0  0
 28 27  1  0  0  0  0
 29 27  1  0  0  0  0
 29 22  2  0  0  0  0
M  END
>  <minimizedAffinity>
-4.44769478

$$$$
