
 OpenBabel03272504543D

 24 26  0  0  0  0  0  0  0  0999 V2000
   37.2390   21.9420   33.2350 C   0  0  0  0  0  0  0  0  0  0  0  0
   37.5910   22.9530   32.3230 C   0  0  0  0  0  0  0  0  0  0  0  0
   38.2500   24.0470   32.8570 C   0  0  0  0  0  0  0  0  0  0  0  0
   38.5200   24.0960   34.1850 N   0  0  0  0  0  0  0  0  0  0  0  0
   38.1680   23.1010   35.0440 C   0  0  0  0  0  0  0  0  0  0  0  0
   37.5180   22.0100   34.5530 N   0  0  0  0  0  0  0  0  0  0  0  0
   37.3270   22.8130   31.2850 H   0  0  0  0  0  0  0  0  0  0  0  0
   38.5310   24.8340   32.1900 H   0  0  0  0  0  0  0  0  0  0  0  0
   36.5350   20.7300   32.6730 C   0  0  0  0  0  0  0  0  0  0  0  0
   35.5520   19.9990   33.4660 C   0  0  0  0  0  0  0  0  0  0  0  0
   35.0510   20.9720   32.4370 C   0  0  0  0  0  0  0  0  0  0  0  0
   37.0720   20.2880   31.7980 H   0  0  0  0  0  0  0  0  0  0  0  0
   35.3430   20.2880   34.5140 H   0  0  0  0  0  0  0  0  0  0  0  0
   35.4140   18.9150   33.2750 H   0  0  0  0  0  0  0  0  0  0  0  0
   34.6340   21.9450   32.7600 H   0  0  0  0  0  0  0  0  0  0  0  0
   34.5870   20.5360   31.5180 H   0  0  0  0  0  0  0  0  0  0  0  0
   38.4570   23.1520   36.4680 C   0  0  0  0  0  0  0  0  0  0  0  0
   37.8340   23.7530   37.5460 C   0  0  0  0  0  0  0  0  0  0  0  0
   36.9240   24.3360   37.4110 H   0  0  0  0  0  0  0  0  0  0  0  0
   38.6240   23.4140   38.6360 C   0  0  0  0  0  0  0  0  0  0  0  0
   38.3350   23.7780   39.6270 H   0  0  0  0  0  0  0  0  0  0  0  0
   39.6530   22.6580   38.2310 N   0  0  0  0  0  0  0  0  0  0  0  0
   40.3700   22.2930   38.8830 H   0  0  0  0  0  0  0  0  0  0  0  0
   39.5570   22.4990   36.9280 N   0  0  0  0  0  0  0  0  0  0  0  0
  1  6  1  0  0  0  0
  2  3  1  0  0  0  0
  2  1  2  0  0  0  0
  3  4  2  0  0  0  0
  4  5  1  0  0  0  0
  5 17  1  0  0  0  0
  6  5  2  0  0  0  0
  7  2  1  0  0  0  0
  8  3  1  0  0  0  0
  9  1  1  0  0  0  0
  9 10  1  0  0  0  0
 10 13  1  0  0  0  0
 11  9  1  0  0  0  0
 11 15  1  0  0  0  0
 11 10  1  0  0  0  0
 12  9  1  0  0  0  0
 14 10  1  0  0  0  0
 16 11  1  0  0  0  0
 17 24  2  0  0  0  0
 17 18  1  0  0  0  0
 18 20  2  0  0  0  0
 19 18  1  0  0  0  0
 20 21  1  0  0  0  0
 22 20  1  0  0  0  0
 22 23  1  0  0  0  0
 24 22  1  0  0  0  0
M  END
>  <minimizedAffinity>
-4.56593752

$$$$

 OpenBabel03272504543D

 24 26  0  0  0  0  0  0  0  0999 V2000
   37.8070   26.0080   33.8590 C   0  0  0  0  0  0  0  0  0  0  0  0
   37.6120   25.1270   32.7800 C   0  0  0  0  0  0  0  0  0  0  0  0
   37.7260   23.7790   33.0720 C   0  0  0  0  0  0  0  0  0  0  0  0
   38.0070   23.3790   34.3360 N   0  0  0  0  0  0  0  0  0  0  0  0
   38.1900   24.2560   35.3610 C   0  0  0  0  0  0  0  0  0  0  0  0
   38.0860   25.5900   35.1100 N   0  0  0  0  0  0  0  0  0  0  0  0
   37.3920   25.5520   31.8120 H   0  0  0  0  0  0  0  0  0  0  0  0
   37.5840   23.0820   32.2730 H   0  0  0  0  0  0  0  0  0  0  0  0
   37.6700   27.4840   33.5690 C   0  0  0  0  0  0  0  0  0  0  0  0
   36.5780   27.9890   32.7450 C   0  0  0  0  0  0  0  0  0  0  0  0
   36.4510   28.1020   34.2370 C   0  0  0  0  0  0  0  0  0  0  0  0
   38.6220   28.0450   33.7410 H   0  0  0  0  0  0  0  0  0  0  0  0
   35.8570   27.2930   32.2720 H   0  0  0  0  0  0  0  0  0  0  0  0
   36.7370   28.9170   32.1590 H   0  0  0  0  0  0  0  0  0  0  0  0
   35.7680   27.4240   34.7830 H   0  0  0  0  0  0  0  0  0  0  0  0
   36.5530   29.1270   34.6730 H   0  0  0  0  0  0  0  0  0  0  0  0
   38.4920   23.8280   36.7180 C   0  0  0  0  0  0  0  0  0  0  0  0
   38.0280   24.2100   37.9630 C   0  0  0  0  0  0  0  0  0  0  0  0
   37.2730   24.9900   38.0630 H   0  0  0  0  0  0  0  0  0  0  0  0
   38.7260   23.4060   38.8540 C   0  0  0  0  0  0  0  0  0  0  0  0
   38.5330   23.5200   39.9260 H   0  0  0  0  0  0  0  0  0  0  0  0
   39.5530   22.5970   38.1800 N   0  0  0  0  0  0  0  0  0  0  0  0
   40.1710   21.9120   38.6510 H   0  0  0  0  0  0  0  0  0  0  0  0
   39.4160   22.8470   36.8960 N   0  0  0  0  0  0  0  0  0  0  0  0
  1  6  1  0  0  0  0
  2  3  1  0  0  0  0
  2  1  2  0  0  0  0
  3  4  2  0  0  0  0
  4  5  1  0  0  0  0
  5 17  1  0  0  0  0
  6  5  2  0  0  0  0
  7  2  1  0  0  0  0
  8  3  1  0  0  0  0
  9 12  1  0  0  0  0
  9  1  1  0  0  0  0
  9 11  1  0  0  0  0
 10  9  1  0  0  0  0
 10 11  1  0  0  0  0
 11 16  1  0  0  0  0
 11 15  1  0  0  0  0
 13 10  1  0  0  0  0
 14 10  1  0  0  0  0
 17 24  2  0  0  0  0
 17 18  1  0  0  0  0
 18 19  1  0  0  0  0
 18 20  2  0  0  0  0
 20 21  1  0  0  0  0
 22 23  1  0  0  0  0
 22 20  1  0  0  0  0
 24 22  1  0  0  0  0
M  END
>  <minimizedAffinity>
-4.46772432

$$$$

 OpenBabel03272504543D

 24 26  0  0  0  0  0  0  0  0999 V2000
   37.6710   25.0710   33.3590 C   0  0  0  0  0  0  0  0  0  0  0  0
   37.1460   26.3190   33.7380 C   0  0  0  0  0  0  0  0  0  0  0  0
   37.3310   26.6770   35.0620 C   0  0  0  0  0  0  0  0  0  0  0  0
   37.9860   25.8410   35.9060 N   0  0  0  0  0  0  0  0  0  0  0  0
   38.4840   24.6380   35.5100 C   0  0  0  0  0  0  0  0  0  0  0  0
   38.3200   24.2550   34.2150 N   0  0  0  0  0  0  0  0  0  0  0  0
   36.6410   26.9060   32.9860 H   0  0  0  0  0  0  0  0  0  0  0  0
   36.9440   27.6200   35.3840 H   0  0  0  0  0  0  0  0  0  0  0  0
   37.4970   24.6670   31.9140 C   0  0  0  0  0  0  0  0  0  0  0  0
   37.5070   23.2620   31.5220 C   0  0  0  0  0  0  0  0  0  0  0  0
   36.1780   23.9490   31.6620 C   0  0  0  0  0  0  0  0  0  0  0  0
   37.7060   25.5060   31.2060 H   0  0  0  0  0  0  0  0  0  0  0  0
   37.6960   22.4670   32.2700 H   0  0  0  0  0  0  0  0  0  0  0  0
   37.8570   22.9960   30.5040 H   0  0  0  0  0  0  0  0  0  0  0  0
   35.5380   23.7330   32.5380 H   0  0  0  0  0  0  0  0  0  0  0  0
   35.6290   24.1770   30.7150 H   0  0  0  0  0  0  0  0  0  0  0  0
   39.1870   23.7420   36.4150 C   0  0  0  0  0  0  0  0  0  0  0  0
   40.3740   23.0380   36.3270 C   0  0  0  0  0  0  0  0  0  0  0  0
   40.9930   23.0960   35.4320 H   0  0  0  0  0  0  0  0  0  0  0  0
   40.4700   22.3690   37.5390 C   0  0  0  0  0  0  0  0  0  0  0  0
   41.3410   21.7300   37.7190 H   0  0  0  0  0  0  0  0  0  0  0  0
   39.4070   22.6580   38.3000 N   0  0  0  0  0  0  0  0  0  0  0  0
   39.2750   22.2640   39.2500 H   0  0  0  0  0  0  0  0  0  0  0  0
   38.6330   23.4820   37.6280 N   0  0  0  0  0  0  0  0  0  0  0  0
  1  2  2  0  0  0  0
  1  6  1  0  0  0  0
  2  3  1  0  0  0  0
  3  8  1  0  0  0  0
  3  4  2  0  0  0  0
  5  4  1  0  0  0  0
  5 17  1  0  0  0  0
  6  5  2  0  0  0  0
  7  2  1  0  0  0  0
  9  1  1  0  0  0  0
 10 11  1  0  0  0  0
 10  9  1  0  0  0  0
 10 13  1  0  0  0  0
 11  9  1  0  0  0  0
 11 15  1  0  0  0  0
 12  9  1  0  0  0  0
 14 10  1  0  0  0  0
 16 11  1  0  0  0  0
 17 24  2  0  0  0  0
 18 17  1  0  0  0  0
 18 20  2  0  0  0  0
 19 18  1  0  0  0  0
 20 21  1  0  0  0  0
 20 22  1  0  0  0  0
 22 23  1  0  0  0  0
 24 22  1  0  0  0  0
M  END
>  <minimizedAffinity>
-4.26806641

$$$$

 OpenBabel03272504543D

 24 26  0  0  0  0  0  0  0  0999 V2000
   37.1430   27.1060   33.9420 C   0  0  0  0  0  0  0  0  0  0  0  0
   36.5510   28.1660   33.2340 C   0  0  0  0  0  0  0  0  0  0  0  0
   35.9850   27.8380   32.0140 C   0  0  0  0  0  0  0  0  0  0  0  0
   36.0210   26.5570   31.5710 N   0  0  0  0  0  0  0  0  0  0  0  0
   36.6010   25.5500   32.2800 C   0  0  0  0  0  0  0  0  0  0  0  0
   37.1690   25.8370   33.4840 N   0  0  0  0  0  0  0  0  0  0  0  0
   36.5780   29.1500   33.6780 H   0  0  0  0  0  0  0  0  0  0  0  0
   35.5260   28.6210   31.4500 H   0  0  0  0  0  0  0  0  0  0  0  0
   37.7530   27.4360   35.2840 C   0  0  0  0  0  0  0  0  0  0  0  0
   38.2580   26.3840   36.1580 C   0  0  0  0  0  0  0  0  0  0  0  0
   39.2480   27.1560   35.3330 C   0  0  0  0  0  0  0  0  0  0  0  0
   37.4640   28.4530   35.6470 H   0  0  0  0  0  0  0  0  0  0  0  0
   38.1560   25.3170   35.8770 H   0  0  0  0  0  0  0  0  0  0  0  0
   38.2450   26.5490   37.2550 H   0  0  0  0  0  0  0  0  0  0  0  0
   39.7090   26.6830   34.4450 H   0  0  0  0  0  0  0  0  0  0  0  0
   39.9000   27.8800   35.8800 H   0  0  0  0  0  0  0  0  0  0  0  0
   36.6410   24.1760   31.8060 C   0  0  0  0  0  0  0  0  0  0  0  0
   37.6670   23.2890   31.5370 C   0  0  0  0  0  0  0  0  0  0  0  0
   38.7080   23.5800   31.6770 H   0  0  0  0  0  0  0  0  0  0  0  0
   37.0250   22.1340   31.1130 C   0  0  0  0  0  0  0  0  0  0  0  0
   37.6340   21.2670   30.8350 H   0  0  0  0  0  0  0  0  0  0  0  0
   35.6990   22.3220   31.1290 N   0  0  0  0  0  0  0  0  0  0  0  0
   35.0270   21.5860   30.8480 H   0  0  0  0  0  0  0  0  0  0  0  0
   35.4640   23.5480   31.5440 N   0  0  0  0  0  0  0  0  0  0  0  0
  1  9  1  0  0  0  0
  2  7  1  0  0  0  0
  2  1  2  0  0  0  0
  3  2  1  0  0  0  0
  4  3  2  0  0  0  0
  4  5  1  0  0  0  0
  5  6  2  0  0  0  0
  6  1  1  0  0  0  0
  8  3  1  0  0  0  0
  9 11  1  0  0  0  0
  9 12  1  0  0  0  0
  9 10  1  0  0  0  0
 10 14  1  0  0  0  0
 11 16  1  0  0  0  0
 11 10  1  0  0  0  0
 13 10  1  0  0  0  0
 15 11  1  0  0  0  0
 17  5  1  0  0  0  0
 18 19  1  0  0  0  0
 18 17  1  0  0  0  0
 20 22  1  0  0  0  0
 20 18  2  0  0  0  0
 21 20  1  0  0  0  0
 22 24  1  0  0  0  0
 23 22  1  0  0  0  0
 24 17  2  0  0  0  0
M  END
>  <minimizedAffinity>
-4.20080948

$$$$

 OpenBabel03272504543D

 24 26  0  0  0  0  0  0  0  0999 V2000
   39.9240   22.4650   37.1180 C   0  0  0  0  0  0  0  0  0  0  0  0
   39.3540   23.2360   38.1470 C   0  0  0  0  0  0  0  0  0  0  0  0
   38.0020   23.5040   38.0240 C   0  0  0  0  0  0  0  0  0  0  0  0
   37.3090   23.0280   36.9590 N   0  0  0  0  0  0  0  0  0  0  0  0
   37.8880   22.2830   35.9780 C   0  0  0  0  0  0  0  0  0  0  0  0
   39.2170   22.0010   36.0670 N   0  0  0  0  0  0  0  0  0  0  0  0
   39.9970   23.5640   38.9490 H   0  0  0  0  0  0  0  0  0  0  0  0
   37.5370   24.0880   38.7890 H   0  0  0  0  0  0  0  0  0  0  0  0
   41.3950   22.1440   37.2390 C   0  0  0  0  0  0  0  0  0  0  0  0
   42.1550   21.6640   36.0910 C   0  0  0  0  0  0  0  0  0  0  0  0
   42.2720   23.1150   36.4610 C   0  0  0  0  0  0  0  0  0  0  0  0
   41.7140   21.9860   38.2990 H   0  0  0  0  0  0  0  0  0  0  0  0
   41.6560   21.4740   35.1200 H   0  0  0  0  0  0  0  0  0  0  0  0
   43.0290   21.0040   36.2680 H   0  0  0  0  0  0  0  0  0  0  0  0
   41.7640   23.8810   35.8440 H   0  0  0  0  0  0  0  0  0  0  0  0
   43.2360   23.4390   36.9240 H   0  0  0  0  0  0  0  0  0  0  0  0
   37.1460   21.7730   34.8370 C   0  0  0  0  0  0  0  0  0  0  0  0
   37.2660   21.9400   33.4690 C   0  0  0  0  0  0  0  0  0  0  0  0
   38.0520   22.5680   33.0510 H   0  0  0  0  0  0  0  0  0  0  0  0
   36.2380   21.1770   32.9350 C   0  0  0  0  0  0  0  0  0  0  0  0
   36.1190   21.1450   31.8470 H   0  0  0  0  0  0  0  0  0  0  0  0
   35.5490   20.5920   33.9230 N   0  0  0  0  0  0  0  0  0  0  0  0
   34.7350   19.9750   33.7480 H   0  0  0  0  0  0  0  0  0  0  0  0
   36.0900   20.9480   35.0680 N   0  0  0  0  0  0  0  0  0  0  0  0
  1  9  1  0  0  0  0
  1  2  1  0  0  0  0
  2  7  1  0  0  0  0
  3  2  2  0  0  0  0
  3  8  1  0  0  0  0
  4  3  1  0  0  0  0
  5  6  1  0  0  0  0
  5  4  2  0  0  0  0
  6  1  2  0  0  0  0
  9 12  1  0  0  0  0
 10 14  1  0  0  0  0
 10 11  1  0  0  0  0
 10  9  1  0  0  0  0
 11 16  1  0  0  0  0
 11  9  1  0  0  0  0
 13 10  1  0  0  0  0
 15 11  1  0  0  0  0
 17 24  2  0  0  0  0
 17  5  1  0  0  0  0
 18 17  1  0  0  0  0
 19 18  1  0  0  0  0
 20 18  2  0  0  0  0
 20 22  1  0  0  0  0
 21 20  1  0  0  0  0
 22 24  1  0  0  0  0
 23 22  1  0  0  0  0
M  END
>  <minimizedAffinity>
-4.19778824

$$$$

 OpenBabel03272504543D

 24 26  0  0  0  0  0  0  0  0999 V2000
   36.3120   24.0800   31.7580 C   0  0  0  0  0  0  0  0  0  0  0  0
   35.5050   24.8600   30.9110 C   0  0  0  0  0  0  0  0  0  0  0  0
   35.4970   26.2200   31.1660 C   0  0  0  0  0  0  0  0  0  0  0  0
   36.2400   26.7250   32.1820 N   0  0  0  0  0  0  0  0  0  0  0  0
   37.0120   25.9450   32.9860 C   0  0  0  0  0  0  0  0  0  0  0  0
   37.0430   24.6020   32.7640 N   0  0  0  0  0  0  0  0  0  0  0  0
   34.9530   24.3560   30.1310 H   0  0  0  0  0  0  0  0  0  0  0  0
   34.8930   26.8420   30.5400 H   0  0  0  0  0  0  0  0  0  0  0  0
   36.3510   22.5950   31.4880 C   0  0  0  0  0  0  0  0  0  0  0  0
   36.6960   21.6490   32.5440 C   0  0  0  0  0  0  0  0  0  0  0  0
   35.2430   21.8390   32.2090 C   0  0  0  0  0  0  0  0  0  0  0  0
   36.4330   22.3590   30.3990 H   0  0  0  0  0  0  0  0  0  0  0  0
   36.9880   22.0070   33.5510 H   0  0  0  0  0  0  0  0  0  0  0  0
   37.1780   20.6910   32.2640 H   0  0  0  0  0  0  0  0  0  0  0  0
   34.5940   22.4160   32.8950 H   0  0  0  0  0  0  0  0  0  0  0  0
   34.7400   21.0020   31.6670 H   0  0  0  0  0  0  0  0  0  0  0  0
   37.8090   26.4860   34.0760 C   0  0  0  0  0  0  0  0  0  0  0  0
   39.1190   26.3030   34.4810 C   0  0  0  0  0  0  0  0  0  0  0  0
   39.7830   25.6320   33.9370 H   0  0  0  0  0  0  0  0  0  0  0  0
   39.2520   27.1150   35.5980 C   0  0  0  0  0  0  0  0  0  0  0  0
   40.2190   27.1460   36.1120 H   0  0  0  0  0  0  0  0  0  0  0  0
   38.0940   27.7420   35.8420 N   0  0  0  0  0  0  0  0  0  0  0  0
   37.9700   28.4000   36.6330 H   0  0  0  0  0  0  0  0  0  0  0  0
   37.2240   27.3660   34.9310 N   0  0  0  0  0  0  0  0  0  0  0  0
  1  6  1  0  0  0  0
  2  3  1  0  0  0  0
  2  1  2  0  0  0  0
  3  4  2  0  0  0  0
  4  5  1  0  0  0  0
  5 17  1  0  0  0  0
  6  5  2  0  0  0  0
  7  2  1  0  0  0  0
  8  3  1  0  0  0  0
  9  1  1  0  0  0  0
  9 11  1  0  0  0  0
  9 10  1  0  0  0  0
 10 13  1  0  0  0  0
 11 10  1  0  0  0  0
 11 15  1  0  0  0  0
 12  9  1  0  0  0  0
 14 10  1  0  0  0  0
 16 11  1  0  0  0  0
 17 18  1  0  0  0  0
 17 24  2  0  0  0  0
 18 20  2  0  0  0  0
 19 18  1  0  0  0  0
 20 22  1  0  0  0  0
 20 21  1  0  0  0  0
 22 23  1  0  0  0  0
 24 22  1  0  0  0  0
M  END
>  <minimizedAffinity>
-4.15674782

$$$$

 OpenBabel03272504543D

 24 26  0  0  0  0  0  0  0  0999 V2000
   39.7860   23.0080   36.9600 C   0  0  0  0  0  0  0  0  0  0  0  0
   39.2610   23.0410   38.2640 C   0  0  0  0  0  0  0  0  0  0  0  0
   38.2330   23.9420   38.4800 C   0  0  0  0  0  0  0  0  0  0  0  0
   37.7890   24.7230   37.4650 N   0  0  0  0  0  0  0  0  0  0  0  0
   38.3160   24.6690   36.2110 C   0  0  0  0  0  0  0  0  0  0  0  0
   39.3300   23.7950   35.9630 N   0  0  0  0  0  0  0  0  0  0  0  0
   39.6880   22.3760   38.9990 H   0  0  0  0  0  0  0  0  0  0  0  0
   37.8110   23.9920   39.4620 H   0  0  0  0  0  0  0  0  0  0  0  0
   40.8980   22.0210   36.6950 C   0  0  0  0  0  0  0  0  0  0  0  0
   41.6360   22.0430   35.4380 C   0  0  0  0  0  0  0  0  0  0  0  0
   42.2680   22.6830   36.6410 C   0  0  0  0  0  0  0  0  0  0  0  0
   40.8460   21.1270   37.3640 H   0  0  0  0  0  0  0  0  0  0  0  0
   41.3600   22.7490   34.6310 H   0  0  0  0  0  0  0  0  0  0  0  0
   42.0700   21.0950   35.0580 H   0  0  0  0  0  0  0  0  0  0  0  0
   42.3060   23.7860   36.7190 H   0  0  0  0  0  0  0  0  0  0  0  0
   43.1310   22.1420   37.1020 H   0  0  0  0  0  0  0  0  0  0  0  0
   37.8410   25.5060   35.1210 C   0  0  0  0  0  0  0  0  0  0  0  0
   37.3700   26.8040   35.0520 C   0  0  0  0  0  0  0  0  0  0  0  0
   37.2990   27.4210   35.9470 H   0  0  0  0  0  0  0  0  0  0  0  0
   37.0810   26.9960   33.7080 C   0  0  0  0  0  0  0  0  0  0  0  0
   36.6850   27.9670   33.3900 H   0  0  0  0  0  0  0  0  0  0  0  0
   37.3630   25.8820   33.0210 N   0  0  0  0  0  0  0  0  0  0  0  0
   37.2220   25.8060   31.9980 H   0  0  0  0  0  0  0  0  0  0  0  0
   37.8190   24.9830   33.8660 N   0  0  0  0  0  0  0  0  0  0  0  0
  1  2  1  0  0  0  0
  2  3  2  0  0  0  0
  2  7  1  0  0  0  0
  3  8  1  0  0  0  0
  4  3  1  0  0  0  0
  5  4  2  0  0  0  0
  6  5  1  0  0  0  0
  6  1  2  0  0  0  0
  9  1  1  0  0  0  0
  9 12  1  0  0  0  0
 10 11  1  0  0  0  0
 10  9  1  0  0  0  0
 11  9  1  0  0  0  0
 11 15  1  0  0  0  0
 11 16  1  0  0  0  0
 13 10  1  0  0  0  0
 14 10  1  0  0  0  0
 17  5  1  0  0  0  0
 18 17  1  0  0  0  0
 18 19  1  0  0  0  0
 20 18  2  0  0  0  0
 21 20  1  0  0  0  0
 22 20  1  0  0  0  0
 22 24  1  0  0  0  0
 23 22  1  0  0  0  0
 24 17  2  0  0  0  0
M  END
>  <minimizedAffinity>
-4.07349205

$$$$

 OpenBabel03272504543D

 24 26  0  0  0  0  0  0  0  0999 V2000
   37.0360   27.6960   33.9050 C   0  0  0  0  0  0  0  0  0  0  0  0
   36.0440   28.6450   34.2100 C   0  0  0  0  0  0  0  0  0  0  0  0
   35.6670   29.4800   33.1730 C   0  0  0  0  0  0  0  0  0  0  0  0
   36.2450   29.3530   31.9530 N   0  0  0  0  0  0  0  0  0  0  0  0
   37.2040   28.4240   31.6870 C   0  0  0  0  0  0  0  0  0  0  0  0
   37.5990   27.5860   32.6840 N   0  0  0  0  0  0  0  0  0  0  0  0
   35.6500   28.6610   35.2150 H   0  0  0  0  0  0  0  0  0  0  0  0
   34.9140   30.2140   33.3720 H   0  0  0  0  0  0  0  0  0  0  0  0
   37.4520   26.7610   35.0160 C   0  0  0  0  0  0  0  0  0  0  0  0
   38.7400   26.0780   34.9790 C   0  0  0  0  0  0  0  0  0  0  0  0
   38.6140   27.3060   35.8350 C   0  0  0  0  0  0  0  0  0  0  0  0
   36.5850   26.4090   35.6270 H   0  0  0  0  0  0  0  0  0  0  0  0
   39.4160   26.1910   34.1080 H   0  0  0  0  0  0  0  0  0  0  0  0
   38.8360   25.0940   35.4810 H   0  0  0  0  0  0  0  0  0  0  0  0
   39.0730   28.2560   35.5030 H   0  0  0  0  0  0  0  0  0  0  0  0
   38.5970   27.1460   36.9420 H   0  0  0  0  0  0  0  0  0  0  0  0
   37.8240   28.2870   30.3790 C   0  0  0  0  0  0  0  0  0  0  0  0
   39.0660   27.8520   29.9550 C   0  0  0  0  0  0  0  0  0  0  0  0
   39.8160   27.5170   30.6710 H   0  0  0  0  0  0  0  0  0  0  0  0
   39.0210   27.9710   28.5730 C   0  0  0  0  0  0  0  0  0  0  0  0
   39.9030   27.6830   27.9920 H   0  0  0  0  0  0  0  0  0  0  0  0
   37.8260   28.4470   28.1990 N   0  0  0  0  0  0  0  0  0  0  0  0
   37.5770   28.6140   27.2080 H   0  0  0  0  0  0  0  0  0  0  0  0
   37.1040   28.6390   29.2810 N   0  0  0  0  0  0  0  0  0  0  0  0
  1  2  1  0  0  0  0
  1  9  1  0  0  0  0
  2  7  1  0  0  0  0
  3  8  1  0  0  0  0
  3  2  2  0  0  0  0
  4  3  1  0  0  0  0
  5  4  2  0  0  0  0
  5  6  1  0  0  0  0
  6  1  2  0  0  0  0
  9 12  1  0  0  0  0
  9 11  1  0  0  0  0
 10  9  1  0  0  0  0
 10 14  1  0  0  0  0
 10 11  1  0  0  0  0
 11 16  1  0  0  0  0
 13 10  1  0  0  0  0
 15 11  1  0  0  0  0
 17  5  1  0  0  0  0
 18 17  1  0  0  0  0
 18 19  1  0  0  0  0
 20 18  2  0  0  0  0
 21 20  1  0  0  0  0
 22 20  1  0  0  0  0
 22 24  1  0  0  0  0
 23 22  1  0  0  0  0
 24 17  2  0  0  0  0
M  END
>  <minimizedAffinity>
-4.05909872

$$$$

 OpenBabel03272504543D

 24 26  0  0  0  0  0  0  0  0999 V2000
   38.3740   22.6590   36.6690 C   0  0  0  0  0  0  0  0  0  0  0  0
   39.7390   22.7180   36.3380 C   0  0  0  0  0  0  0  0  0  0  0  0
   40.0650   22.3400   35.0470 C   0  0  0  0  0  0  0  0  0  0  0  0
   39.0920   21.9460   34.1880 N   0  0  0  0  0  0  0  0  0  0  0  0
   37.7770   21.9000   34.5380 C   0  0  0  0  0  0  0  0  0  0  0  0
   37.4210   22.2640   35.8000 N   0  0  0  0  0  0  0  0  0  0  0  0
   40.4310   23.0460   37.0980 H   0  0  0  0  0  0  0  0  0  0  0  0
   41.0950   22.3730   34.7610 H   0  0  0  0  0  0  0  0  0  0  0  0
   37.9910   23.0830   38.0680 C   0  0  0  0  0  0  0  0  0  0  0  0
   38.9430   23.7780   38.9270 C   0  0  0  0  0  0  0  0  0  0  0  0
   37.9010   24.5950   38.2170 C   0  0  0  0  0  0  0  0  0  0  0  0
   37.1010   22.5300   38.4560 H   0  0  0  0  0  0  0  0  0  0  0  0
   39.9820   23.9610   38.5890 H   0  0  0  0  0  0  0  0  0  0  0  0
   38.8560   23.6560   40.0260 H   0  0  0  0  0  0  0  0  0  0  0  0
   38.1890   25.2130   37.3450 H   0  0  0  0  0  0  0  0  0  0  0  0
   37.0760   25.0120   38.8460 H   0  0  0  0  0  0  0  0  0  0  0  0
   36.7330   21.4780   33.6180 C   0  0  0  0  0  0  0  0  0  0  0  0
   35.6630   20.6080   33.7240 C   0  0  0  0  0  0  0  0  0  0  0  0
   35.4680   20.0740   34.6540 H   0  0  0  0  0  0  0  0  0  0  0  0
   35.0530   20.6560   32.4780 C   0  0  0  0  0  0  0  0  0  0  0  0
   34.1630   20.0410   32.3060 H   0  0  0  0  0  0  0  0  0  0  0  0
   35.7190   21.5000   31.6810 N   0  0  0  0  0  0  0  0  0  0  0  0
   35.4350   21.6860   30.7020 H   0  0  0  0  0  0  0  0  0  0  0  0
   36.7300   21.9960   32.3600 N   0  0  0  0  0  0  0  0  0  0  0  0
  1  9  1  0  0  0  0
  2  1  1  0  0  0  0
  2  7  1  0  0  0  0
  3  2  2  0  0  0  0
  4  5  2  0  0  0  0
  4  3  1  0  0  0  0
  5  6  1  0  0  0  0
  6  1  2  0  0  0  0
  8  3  1  0  0  0  0
  9 11  1  0  0  0  0
  9 12  1  0  0  0  0
  9 10  1  0  0  0  0
 10 14  1  0  0  0  0
 11 16  1  0  0  0  0
 11 10  1  0  0  0  0
 13 10  1  0  0  0  0
 15 11  1  0  0  0  0
 17 18  1  0  0  0  0
 17  5  1  0  0  0  0
 18 19  1  0  0  0  0
 20 18  2  0  0  0  0
 21 20  1  0  0  0  0
 22 24  1  0  0  0  0
 22 20  1  0  0  0  0
 23 22  1  0  0  0  0
 24 17  2  0  0  0  0
M  END
>  <minimizedAffinity>
-4.02311277

$$$$
