
 OpenBabel03262523043D

 25 27  0  0  0  0  0  0  0  0999 V2000
   38.3140   24.9260   33.2020 C   0  0  0  0  0  0  0  0  0  0  0  0
   39.5500   25.2780   32.7620 C   0  0  0  0  0  0  0  0  0  0  0  0
   40.6290   25.1510   33.5970 C   0  0  0  0  0  0  0  0  0  0  0  0
   40.4650   24.6770   34.8550 N   0  0  0  0  0  0  0  0  0  0  0  0
   39.2360   24.3370   35.2640 C   0  0  0  0  0  0  0  0  0  0  0  0
   38.1640   24.4550   34.4550 N   0  0  0  0  0  0  0  0  0  0  0  0
   39.7060   25.6620   31.7560 H   0  0  0  0  0  0  0  0  0  0  0  0
   41.6430   25.4250   33.2790 H   0  0  0  0  0  0  0  0  0  0  0  0
   35.3770   24.0190   31.1960 C   0  0  0  0  0  0  0  0  0  0  0  0
   34.8690   25.2620   30.8060 C   0  0  0  0  0  0  0  0  0  0  0  0
   35.5620   26.4240   31.2500 C   0  0  0  0  0  0  0  0  0  0  0  0
   36.6700   26.2490   32.0230 N   0  0  0  0  0  0  0  0  0  0  0  0
   37.1250   25.0320   32.3750 C   0  0  0  0  0  0  0  0  0  0  0  0
   36.4690   23.9290   31.9550 N   0  0  0  0  0  0  0  0  0  0  0  0
   34.8720   23.1200   30.8740 H   0  0  0  0  0  0  0  0  0  0  0  0
   33.9960   25.3220   30.2000 H   0  0  0  0  0  0  0  0  0  0  0  0
   35.1920   27.3900   30.9650 H   0  0  0  0  0  0  0  0  0  0  0  0
   39.0370   23.8230   36.6150 C   0  0  0  0  0  0  0  0  0  0  0  0
   38.0710   24.1970   37.5240 C   0  0  0  0  0  0  0  0  0  0  0  0
   37.3330   24.9650   37.2630 H   0  0  0  0  0  0  0  0  0  0  0  0
   38.2480   23.4500   38.6930 C   0  0  0  0  0  0  0  0  0  0  0  0
   37.5310   23.6630   39.4960 H   0  0  0  0  0  0  0  0  0  0  0  0
   39.3180   22.6490   38.4510 N   0  0  0  0  0  0  0  0  0  0  0  0
   39.5930   22.0150   39.2310 H   0  0  0  0  0  0  0  0  0  0  0  0
   39.7580   22.8810   37.2440 N   0  0  0  0  0  0  0  0  0  0  0  0
  1  6  1  0  0  0  0
  2  1  2  0  0  0  0
  2  3  1  0  0  0  0
  3  4  2  0  0  0  0
  4  5  1  0  0  0  0
  5 18  1  0  0  0  0
  6  5  2  0  0  0  0
  7  2  1  0  0  0  0
  8  3  1  0  0  0  0
  9 14  1  0  0  0  0
 10  9  2  0  0  0  0
 10 11  1  0  0  0  0
 11 12  2  0  0  0  0
 12 13  1  0  0  0  0
 13  1  1  0  0  0  0
 14 13  2  0  0  0  0
 15  9  1  0  0  0  0
 16 10  1  0  0  0  0
 17 11  1  0  0  0  0
 18 25  2  0  0  0  0
 18 19  1  0  0  0  0
 19 21  2  0  0  0  0
 20 19  1  0  0  0  0
 21 22  1  0  0  0  0
 23 21  1  0  0  0  0
 23 24  1  0  0  0  0
 25 23  1  0  0  0  0
M  END
>  <minimizedAffinity>
-5.04979467

$$$$

 OpenBabel03262523043D

 25 27  0  0  0  0  0  0  0  0999 V2000
   38.2950   25.6050   33.4480 C   0  0  0  0  0  0  0  0  0  0  0  0
   39.0710   26.7190   33.4060 C   0  0  0  0  0  0  0  0  0  0  0  0
   40.1200   26.8480   34.2780 C   0  0  0  0  0  0  0  0  0  0  0  0
   40.3830   25.8700   35.1770 N   0  0  0  0  0  0  0  0  0  0  0  0
   39.6020   24.7810   35.1980 C   0  0  0  0  0  0  0  0  0  0  0  0
   38.5670   24.6400   34.3470 N   0  0  0  0  0  0  0  0  0  0  0  0
   38.8790   27.5180   32.6930 H   0  0  0  0  0  0  0  0  0  0  0  0
   40.7700   27.7320   34.2760 H   0  0  0  0  0  0  0  0  0  0  0  0
   35.4730   26.2630   31.1950 C   0  0  0  0  0  0  0  0  0  0  0  0
   35.0280   24.9780   30.8680 C   0  0  0  0  0  0  0  0  0  0  0  0
   35.7230   23.8760   31.4410 C   0  0  0  0  0  0  0  0  0  0  0  0
   36.7730   24.1440   32.2680 N   0  0  0  0  0  0  0  0  0  0  0  0
   37.1670   25.3980   32.5570 C   0  0  0  0  0  0  0  0  0  0  0  0
   36.5090   26.4450   32.0130 N   0  0  0  0  0  0  0  0  0  0  0  0
   34.9650   27.1180   30.7740 H   0  0  0  0  0  0  0  0  0  0  0  0
   34.2000   24.8450   30.2120 H   0  0  0  0  0  0  0  0  0  0  0  0
   35.4020   22.8800   31.2050 H   0  0  0  0  0  0  0  0  0  0  0  0
   39.8680   23.7160   36.1580 C   0  0  0  0  0  0  0  0  0  0  0  0
   40.8900   22.7920   36.1290 C   0  0  0  0  0  0  0  0  0  0  0  0
   41.6240   22.8050   35.3130 H   0  0  0  0  0  0  0  0  0  0  0  0
   40.7670   21.9570   37.2440 C   0  0  0  0  0  0  0  0  0  0  0  0
   41.5320   21.1750   37.3280 H   0  0  0  0  0  0  0  0  0  0  0  0
   39.6730   22.4070   37.9120 N   0  0  0  0  0  0  0  0  0  0  0  0
   39.4320   21.8890   38.7840 H   0  0  0  0  0  0  0  0  0  0  0  0
   39.1700   23.4240   37.2670 N   0  0  0  0  0  0  0  0  0  0  0  0
  1  6  1  0  0  0  0
  2  1  2  0  0  0  0
  2  3  1  0  0  0  0
  3  4  2  0  0  0  0
  4  5  1  0  0  0  0
  5 18  1  0  0  0  0
  6  5  2  0  0  0  0
  7  2  1  0  0  0  0
  8  3  1  0  0  0  0
  9 14  1  0  0  0  0
 10  9  2  0  0  0  0
 10 11  1  0  0  0  0
 11 12  2  0  0  0  0
 12 13  1  0  0  0  0
 13  1  1  0  0  0  0
 14 13  2  0  0  0  0
 15  9  1  0  0  0  0
 16 10  1  0  0  0  0
 17 11  1  0  0  0  0
 18 25  2  0  0  0  0
 19 18  1  0  0  0  0
 19 21  2  0  0  0  0
 20 19  1  0  0  0  0
 21 22  1  0  0  0  0
 21 23  1  0  0  0  0
 23 24  1  0  0  0  0
 25 23  1  0  0  0  0
M  END
>  <minimizedAffinity>
-4.92271042

$$$$

 OpenBabel03262523043D

 25 27  0  0  0  0  0  0  0  0999 V2000
   37.6190   25.6950   33.6430 C   0  0  0  0  0  0  0  0  0  0  0  0
   38.0090   24.9080   32.6080 C   0  0  0  0  0  0  0  0  0  0  0  0
   38.6270   23.7120   32.8610 C   0  0  0  0  0  0  0  0  0  0  0  0
   38.8480   23.3150   34.1380 N   0  0  0  0  0  0  0  0  0  0  0  0
   38.4530   24.1110   35.1400 C   0  0  0  0  0  0  0  0  0  0  0  0
   37.8430   25.2900   34.9070 N   0  0  0  0  0  0  0  0  0  0  0  0
   37.8430   25.2050   31.5740 H   0  0  0  0  0  0  0  0  0  0  0  0
   38.9580   23.0470   32.0520 H   0  0  0  0  0  0  0  0  0  0  0  0
   36.0040   28.9170   34.3410 C   0  0  0  0  0  0  0  0  0  0  0  0
   35.7060   29.4000   33.0620 C   0  0  0  0  0  0  0  0  0  0  0  0
   36.0740   28.5900   31.9510 C   0  0  0  0  0  0  0  0  0  0  0  0
   36.6900   27.4020   32.2040 N   0  0  0  0  0  0  0  0  0  0  0  0
   36.9590   26.9750   33.4520 C   0  0  0  0  0  0  0  0  0  0  0  0
   36.6100   27.7420   34.5080 N   0  0  0  0  0  0  0  0  0  0  0  0
   35.7370   29.5110   35.2020 H   0  0  0  0  0  0  0  0  0  0  0  0
   35.2220   30.3410   32.9410 H   0  0  0  0  0  0  0  0  0  0  0  0
   35.8560   28.9390   30.9600 H   0  0  0  0  0  0  0  0  0  0  0  0
   38.6810   23.7030   36.5220 C   0  0  0  0  0  0  0  0  0  0  0  0
   38.0600   24.1840   37.6550 C   0  0  0  0  0  0  0  0  0  0  0  0
   37.2950   24.9660   37.5770 H   0  0  0  0  0  0  0  0  0  0  0  0
   38.5810   23.5130   38.7660 C   0  0  0  0  0  0  0  0  0  0  0  0
   38.1600   23.8140   39.7330 H   0  0  0  0  0  0  0  0  0  0  0  0
   39.5010   22.6470   38.2660 N   0  0  0  0  0  0  0  0  0  0  0  0
   39.9950   22.0570   38.9690 H   0  0  0  0  0  0  0  0  0  0  0  0
   39.5420   22.7740   36.9680 N   0  0  0  0  0  0  0  0  0  0  0  0
  1  6  1  0  0  0  0
  2  3  1  0  0  0  0
  2  1  2  0  0  0  0
  3  4  2  0  0  0  0
  4  5  1  0  0  0  0
  5 18  1  0  0  0  0
  6  5  2  0  0  0  0
  7  2  1  0  0  0  0
  8  3  1  0  0  0  0
  9 14  1  0  0  0  0
  9 15  1  0  0  0  0
 10  9  2  0  0  0  0
 11 12  2  0  0  0  0
 11 10  1  0  0  0  0
 12 13  1  0  0  0  0
 13  1  1  0  0  0  0
 13 14  2  0  0  0  0
 16 10  1  0  0  0  0
 17 11  1  0  0  0  0
 18 25  2  0  0  0  0
 18 19  1  0  0  0  0
 19 21  2  0  0  0  0
 20 19  1  0  0  0  0
 21 22  1  0  0  0  0
 23 21  1  0  0  0  0
 23 24  1  0  0  0  0
 25 23  1  0  0  0  0
M  END
>  <minimizedAffinity>
-4.89277506

$$$$

 OpenBabel03262523043D

 25 27  0  0  0  0  0  0  0  0999 V2000
   37.6660   24.4030   33.1120 C   0  0  0  0  0  0  0  0  0  0  0  0
   37.3540   23.2630   32.4420 C   0  0  0  0  0  0  0  0  0  0  0  0
   37.4370   22.0550   33.0830 C   0  0  0  0  0  0  0  0  0  0  0  0
   37.8300   21.9970   34.3780 N   0  0  0  0  0  0  0  0  0  0  0  0
   38.1320   23.1360   35.0160 C   0  0  0  0  0  0  0  0  0  0  0  0
   38.0540   24.3320   34.3990 N   0  0  0  0  0  0  0  0  0  0  0  0
   37.0360   23.2850   31.4010 H   0  0  0  0  0  0  0  0  0  0  0  0
   37.1940   21.1120   32.5770 H   0  0  0  0  0  0  0  0  0  0  0  0
   36.8570   27.9360   32.5300 C   0  0  0  0  0  0  0  0  0  0  0  0
   37.4920   28.2050   31.3140 C   0  0  0  0  0  0  0  0  0  0  0  0
   38.2080   27.1420   30.6950 C   0  0  0  0  0  0  0  0  0  0  0  0
   38.2270   25.9340   31.3270 N   0  0  0  0  0  0  0  0  0  0  0  0
   37.6010   25.7180   32.4990 C   0  0  0  0  0  0  0  0  0  0  0  0
   36.9220   26.7270   33.0860 N   0  0  0  0  0  0  0  0  0  0  0  0
   36.3070   28.7250   33.0220 H   0  0  0  0  0  0  0  0  0  0  0  0
   37.4340   29.1760   30.8790 H   0  0  0  0  0  0  0  0  0  0  0  0
   38.7040   27.3230   29.7610 H   0  0  0  0  0  0  0  0  0  0  0  0
   38.5560   23.0950   36.4110 C   0  0  0  0  0  0  0  0  0  0  0  0
   37.9420   23.6840   37.4950 C   0  0  0  0  0  0  0  0  0  0  0  0
   37.0220   24.2660   37.3610 H   0  0  0  0  0  0  0  0  0  0  0  0
   38.6860   23.3900   38.6420 C   0  0  0  0  0  0  0  0  0  0  0  0
   38.2910   23.8090   39.5750 H   0  0  0  0  0  0  0  0  0  0  0  0
   39.7280   22.6310   38.2110 N   0  0  0  0  0  0  0  0  0  0  0  0
   40.3940   22.3190   38.9490 H   0  0  0  0  0  0  0  0  0  0  0  0
   39.6320   22.4740   36.9190 N   0  0  0  0  0  0  0  0  0  0  0  0
  1  6  1  0  0  0  0
  2  3  1  0  0  0  0
  2  1  2  0  0  0  0
  3  4  2  0  0  0  0
  4  5  1  0  0  0  0
  5 18  1  0  0  0  0
  6  5  2  0  0  0  0
  7  2  1  0  0  0  0
  8  3  1  0  0  0  0
  9 15  1  0  0  0  0
  9 14  1  0  0  0  0
 10  9  2  0  0  0  0
 11 10  1  0  0  0  0
 11 12  2  0  0  0  0
 12 13  1  0  0  0  0
 13 14  2  0  0  0  0
 13  1  1  0  0  0  0
 16 10  1  0  0  0  0
 17 11  1  0  0  0  0
 18 25  2  0  0  0  0
 18 19  1  0  0  0  0
 19 21  2  0  0  0  0
 20 19  1  0  0  0  0
 21 22  1  0  0  0  0
 23 21  1  0  0  0  0
 23 24  1  0  0  0  0
 25 23  1  0  0  0  0
M  END
>  <minimizedAffinity>
-4.81002712

$$$$

 OpenBabel03262523043D

 25 27  0  0  0  0  0  0  0  0999 V2000
   37.8740   22.8210   34.3880 C   0  0  0  0  0  0  0  0  0  0  0  0
   38.0730   23.7930   33.4610 C   0  0  0  0  0  0  0  0  0  0  0  0
   37.6190   23.6120   32.1800 C   0  0  0  0  0  0  0  0  0  0  0  0
   36.9760   22.4690   31.8410 N   0  0  0  0  0  0  0  0  0  0  0  0
   36.7930   21.5270   32.7750 C   0  0  0  0  0  0  0  0  0  0  0  0
   37.2330   21.6900   34.0390 N   0  0  0  0  0  0  0  0  0  0  0  0
   38.5870   24.7190   33.7100 H   0  0  0  0  0  0  0  0  0  0  0  0
   37.7600   24.3730   31.4020 H   0  0  0  0  0  0  0  0  0  0  0  0
   37.9200   23.5480   37.9860 C   0  0  0  0  0  0  0  0  0  0  0  0
   39.2090   23.1620   38.3660 C   0  0  0  0  0  0  0  0  0  0  0  0
   40.0660   22.6440   37.3540 C   0  0  0  0  0  0  0  0  0  0  0  0
   39.5760   22.5590   36.0860 N   0  0  0  0  0  0  0  0  0  0  0  0
   38.3260   22.9420   35.7630 C   0  0  0  0  0  0  0  0  0  0  0  0
   37.5120   23.4340   36.7230 N   0  0  0  0  0  0  0  0  0  0  0  0
   37.2480   23.9440   38.7330 H   0  0  0  0  0  0  0  0  0  0  0  0
   39.5240   23.2580   39.3790 H   0  0  0  0  0  0  0  0  0  0  0  0
   41.0600   22.3410   37.6200 H   0  0  0  0  0  0  0  0  0  0  0  0
   36.1020   20.2890   32.4300 C   0  0  0  0  0  0  0  0  0  0  0  0
   36.6600   19.0500   32.1970 C   0  0  0  0  0  0  0  0  0  0  0  0
   37.7460   18.9120   32.2620 H   0  0  0  0  0  0  0  0  0  0  0  0
   35.6330   18.1490   31.9000 C   0  0  0  0  0  0  0  0  0  0  0  0
   35.9580   17.1220   31.6940 H   0  0  0  0  0  0  0  0  0  0  0  0
   34.4860   18.8750   31.9650 N   0  0  0  0  0  0  0  0  0  0  0  0
   33.6080   18.3500   31.7670 H   0  0  0  0  0  0  0  0  0  0  0  0
   34.7810   20.1080   32.2730 N   0  0  0  0  0  0  0  0  0  0  0  0
  1 13  1  0  0  0  0
  2  7  1  0  0  0  0
  2  1  2  0  0  0  0
  3  2  1  0  0  0  0
  4  3  2  0  0  0  0
  4  5  1  0  0  0  0
  5  6  2  0  0  0  0
  6  1  1  0  0  0  0
  8  3  1  0  0  0  0
  9 10  1  0  0  0  0
  9 15  1  0  0  0  0
 10 16  1  0  0  0  0
 11 17  1  0  0  0  0
 11 10  2  0  0  0  0
 12 11  1  0  0  0  0
 13 12  2  0  0  0  0
 13 14  1  0  0  0  0
 14  9  2  0  0  0  0
 18  5  1  0  0  0  0
 19 20  1  0  0  0  0
 19 18  1  0  0  0  0
 21 23  1  0  0  0  0
 21 19  2  0  0  0  0
 22 21  1  0  0  0  0
 23 25  1  0  0  0  0
 24 23  1  0  0  0  0
 25 18  2  0  0  0  0
M  END
>  <minimizedAffinity>
-4.78367472

$$$$

 OpenBabel03262523043D

 25 27  0  0  0  0  0  0  0  0999 V2000
   38.5840   22.8270   34.4150 C   0  0  0  0  0  0  0  0  0  0  0  0
   39.2660   21.8590   33.7490 C   0  0  0  0  0  0  0  0  0  0  0  0
   39.1010   21.7240   32.3960 C   0  0  0  0  0  0  0  0  0  0  0  0
   38.2630   22.5500   31.7250 N   0  0  0  0  0  0  0  0  0  0  0  0
   37.6030   23.4950   32.4060 C   0  0  0  0  0  0  0  0  0  0  0  0
   37.7540   23.6420   33.7370 N   0  0  0  0  0  0  0  0  0  0  0  0
   39.9440   21.1840   34.2670 H   0  0  0  0  0  0  0  0  0  0  0  0
   39.6340   20.9550   31.8220 H   0  0  0  0  0  0  0  0  0  0  0  0
   37.8460   23.8560   37.8610 C   0  0  0  0  0  0  0  0  0  0  0  0
   38.9660   23.4070   38.5680 C   0  0  0  0  0  0  0  0  0  0  0  0
   39.9840   22.7390   37.8310 C   0  0  0  0  0  0  0  0  0  0  0  0
   39.8020   22.5820   36.4890 N   0  0  0  0  0  0  0  0  0  0  0  0
   38.7070   23.0320   35.8480 C   0  0  0  0  0  0  0  0  0  0  0  0
   37.7400   23.6650   36.5460 N   0  0  0  0  0  0  0  0  0  0  0  0
   37.0570   24.3650   38.3940 H   0  0  0  0  0  0  0  0  0  0  0  0
   39.0390   23.5650   39.6180 H   0  0  0  0  0  0  0  0  0  0  0  0
   40.8540   22.3850   38.3500 H   0  0  0  0  0  0  0  0  0  0  0  0
   36.6960   24.3950   31.7020 C   0  0  0  0  0  0  0  0  0  0  0  0
   35.3650   24.1880   31.4070 C   0  0  0  0  0  0  0  0  0  0  0  0
   34.8700   23.2570   31.7090 H   0  0  0  0  0  0  0  0  0  0  0  0
   34.8820   25.3090   30.7240 C   0  0  0  0  0  0  0  0  0  0  0  0
   33.8250   25.2590   30.4340 H   0  0  0  0  0  0  0  0  0  0  0  0
   35.9390   26.1570   30.6290 N   0  0  0  0  0  0  0  0  0  0  0  0
   35.7520   27.0580   30.1390 H   0  0  0  0  0  0  0  0  0  0  0  0
   36.9760   25.6090   31.2010 N   0  0  0  0  0  0  0  0  0  0  0  0
  1 13  1  0  0  0  0
  2  7  1  0  0  0  0
  2  1  1  0  0  0  0
  3  2  2  0  0  0  0
  4  3  1  0  0  0  0
  4  5  2  0  0  0  0
  5  6  1  0  0  0  0
  6  1  2  0  0  0  0
  8  3  1  0  0  0  0
  9 15  1  0  0  0  0
  9 10  1  0  0  0  0
 10 16  1  0  0  0  0
 11 17  1  0  0  0  0
 11 10  2  0  0  0  0
 12 11  1  0  0  0  0
 13 12  2  0  0  0  0
 13 14  1  0  0  0  0
 14  9  2  0  0  0  0
 18  5  1  0  0  0  0
 19 18  1  0  0  0  0
 19 20  1  0  0  0  0
 21 19  2  0  0  0  0
 22 21  1  0  0  0  0
 23 21  1  0  0  0  0
 23 25  1  0  0  0  0
 24 23  1  0  0  0  0
 25 18  2  0  0  0  0
M  END
>  <minimizedAffinity>
-4.7475791

$$$$

 OpenBabel03262523043D

 25 27  0  0  0  0  0  0  0  0999 V2000
   36.1720   24.1640   31.7500 C   0  0  0  0  0  0  0  0  0  0  0  0
   35.4800   24.9940   30.9280 C   0  0  0  0  0  0  0  0  0  0  0  0
   35.5340   26.3490   31.1290 C   0  0  0  0  0  0  0  0  0  0  0  0
   36.2750   26.8580   32.1420 N   0  0  0  0  0  0  0  0  0  0  0  0
   36.9480   26.0170   32.9390 C   0  0  0  0  0  0  0  0  0  0  0  0
   36.9050   24.6830   32.7530 N   0  0  0  0  0  0  0  0  0  0  0  0
   34.8780   24.6090   30.1070 H   0  0  0  0  0  0  0  0  0  0  0  0
   34.9890   27.0530   30.4870 H   0  0  0  0  0  0  0  0  0  0  0  0
   37.1440   20.7590   30.7820 C   0  0  0  0  0  0  0  0  0  0  0  0
   36.1200   19.9760   31.3250 C   0  0  0  0  0  0  0  0  0  0  0  0
   35.0850   20.6470   32.0340 C   0  0  0  0  0  0  0  0  0  0  0  0
   35.1580   22.0040   32.1380 N   0  0  0  0  0  0  0  0  0  0  0  0
   36.1630   22.7200   31.5980 C   0  0  0  0  0  0  0  0  0  0  0  0
   37.1460   22.0840   30.9250 N   0  0  0  0  0  0  0  0  0  0  0  0
   37.9430   20.2770   30.2380 H   0  0  0  0  0  0  0  0  0  0  0  0
   36.1300   18.9190   31.2050 H   0  0  0  0  0  0  0  0  0  0  0  0
   34.2880   20.0690   32.4610 H   0  0  0  0  0  0  0  0  0  0  0  0
   37.7520   26.5450   34.0360 C   0  0  0  0  0  0  0  0  0  0  0  0
   39.1030   26.3710   34.2490 C   0  0  0  0  0  0  0  0  0  0  0  0
   39.7010   25.7760   33.5480 H   0  0  0  0  0  0  0  0  0  0  0  0
   39.4590   27.0500   35.4190 C   0  0  0  0  0  0  0  0  0  0  0  0
   40.5190   26.9830   35.6930 H   0  0  0  0  0  0  0  0  0  0  0  0
   38.3090   27.6130   35.8730 N   0  0  0  0  0  0  0  0  0  0  0  0
   38.3940   28.1660   36.7520 H   0  0  0  0  0  0  0  0  0  0  0  0
   37.3360   27.3080   35.0590 N   0  0  0  0  0  0  0  0  0  0  0  0
  1  6  1  0  0  0  0
  2  3  1  0  0  0  0
  2  1  2  0  0  0  0
  3  4  2  0  0  0  0
  4  5  1  0  0  0  0
  5 18  1  0  0  0  0
  6  5  2  0  0  0  0
  7  2  1  0  0  0  0
  8  3  1  0  0  0  0
  9 14  2  0  0  0  0
  9 10  1  0  0  0  0
 10 11  2  0  0  0  0
 11 12  1  0  0  0  0
 11 17  1  0  0  0  0
 13  1  1  0  0  0  0
 13 12  2  0  0  0  0
 14 13  1  0  0  0  0
 15  9  1  0  0  0  0
 16 10  1  0  0  0  0
 18 19  1  0  0  0  0
 18 25  2  0  0  0  0
 19 21  2  0  0  0  0
 20 19  1  0  0  0  0
 21 22  1  0  0  0  0
 21 23  1  0  0  0  0
 23 24  1  0  0  0  0
 25 23  1  0  0  0  0
M  END
>  <minimizedAffinity>
-4.73970079

$$$$

 OpenBabel03262523043D

 25 27  0  0  0  0  0  0  0  0999 V2000
   37.4480   22.9060   33.0190 C   0  0  0  0  0  0  0  0  0  0  0  0
   37.5590   24.1530   32.4930 C   0  0  0  0  0  0  0  0  0  0  0  0
   38.0150   25.1810   33.2760 C   0  0  0  0  0  0  0  0  0  0  0  0
   38.3530   24.9540   34.5680 N   0  0  0  0  0  0  0  0  0  0  0  0
   38.2330   23.7150   35.0620 C   0  0  0  0  0  0  0  0  0  0  0  0
   37.7870   22.6930   34.3040 N   0  0  0  0  0  0  0  0  0  0  0  0
   37.2930   24.3590   31.4580 H   0  0  0  0  0  0  0  0  0  0  0  0
   38.1190   26.2020   32.8890 H   0  0  0  0  0  0  0  0  0  0  0  0
   35.3680   20.1110   31.8610 C   0  0  0  0  0  0  0  0  0  0  0  0
   36.0940   19.6100   30.7750 C   0  0  0  0  0  0  0  0  0  0  0  0
   37.3190   20.2580   30.4480 C   0  0  0  0  0  0  0  0  0  0  0  0
   37.7030   21.3190   31.2120 N   0  0  0  0  0  0  0  0  0  0  0  0
   36.9730   21.7680   32.2500 C   0  0  0  0  0  0  0  0  0  0  0  0
   35.8100   21.1550   32.5610 N   0  0  0  0  0  0  0  0  0  0  0  0
   34.4350   19.6390   32.1310 H   0  0  0  0  0  0  0  0  0  0  0  0
   35.7310   18.7760   30.2230 H   0  0  0  0  0  0  0  0  0  0  0  0
   37.8950   19.8930   29.6190 H   0  0  0  0  0  0  0  0  0  0  0  0
   38.5920   23.4500   36.4510 C   0  0  0  0  0  0  0  0  0  0  0  0
   38.0280   23.9940   37.5850 C   0  0  0  0  0  0  0  0  0  0  0  0
   37.2090   24.7190   37.5020 H   0  0  0  0  0  0  0  0  0  0  0  0
   38.6760   23.4610   38.7030 C   0  0  0  0  0  0  0  0  0  0  0  0
   38.3100   23.8240   39.6720 H   0  0  0  0  0  0  0  0  0  0  0  0
   39.6110   22.6100   38.2070 N   0  0  0  0  0  0  0  0  0  0  0  0
   40.1950   22.1170   38.9160 H   0  0  0  0  0  0  0  0  0  0  0  0
   39.5450   22.6190   36.9030 N   0  0  0  0  0  0  0  0  0  0  0  0
  1  6  1  0  0  0  0
  2  1  2  0  0  0  0
  2  3  1  0  0  0  0
  3  4  2  0  0  0  0
  4  5  1  0  0  0  0
  5 18  1  0  0  0  0
  6  5  2  0  0  0  0
  7  2  1  0  0  0  0
  8  3  1  0  0  0  0
  9 15  1  0  0  0  0
  9 14  1  0  0  0  0
 10  9  2  0  0  0  0
 11 10  1  0  0  0  0
 11 12  2  0  0  0  0
 12 13  1  0  0  0  0
 13 14  2  0  0  0  0
 13  1  1  0  0  0  0
 16 10  1  0  0  0  0
 17 11  1  0  0  0  0
 18 25  2  0  0  0  0
 18 19  1  0  0  0  0
 19 21  2  0  0  0  0
 20 19  1  0  0  0  0
 21 22  1  0  0  0  0
 23 21  1  0  0  0  0
 23 24  1  0  0  0  0
 25 23  1  0  0  0  0
M  END
>  <minimizedAffinity>
-4.73821402

$$$$

 OpenBabel03262523043D

 25 27  0  0  0  0  0  0  0  0999 V2000
   36.1210   28.9730   32.5850 C   0  0  0  0  0  0  0  0  0  0  0  0
   36.3880   29.8620   31.5940 C   0  0  0  0  0  0  0  0  0  0  0  0
   36.1940   31.2010   31.8140 C   0  0  0  0  0  0  0  0  0  0  0  0
   35.7370   31.6350   33.0130 N   0  0  0  0  0  0  0  0  0  0  0  0
   35.4810   30.7370   33.9730 C   0  0  0  0  0  0  0  0  0  0  0  0
   35.6680   29.4170   33.7730 N   0  0  0  0  0  0  0  0  0  0  0  0
   36.7550   29.5370   30.6230 H   0  0  0  0  0  0  0  0  0  0  0  0
   36.3980   31.9510   31.0400 H   0  0  0  0  0  0  0  0  0  0  0  0
   37.3060   25.5360   33.0970 C   0  0  0  0  0  0  0  0  0  0  0  0
   36.6300   24.8220   32.1020 C   0  0  0  0  0  0  0  0  0  0  0  0
   35.7550   25.5510   31.2480 C   0  0  0  0  0  0  0  0  0  0  0  0
   35.6320   26.8920   31.4550 N   0  0  0  0  0  0  0  0  0  0  0  0
   36.3030   27.5400   32.4260 C   0  0  0  0  0  0  0  0  0  0  0  0
   37.1330   26.8500   33.2370 N   0  0  0  0  0  0  0  0  0  0  0  0
   37.9760   25.0090   33.7590 H   0  0  0  0  0  0  0  0  0  0  0  0
   36.7750   23.7720   32.0000 H   0  0  0  0  0  0  0  0  0  0  0  0
   35.2240   25.0260   30.4770 H   0  0  0  0  0  0  0  0  0  0  0  0
   34.9890   31.1830   35.2720 C   0  0  0  0  0  0  0  0  0  0  0  0
   33.6950   31.1360   35.7440 C   0  0  0  0  0  0  0  0  0  0  0  0
   32.8930   30.7260   35.1180 H   0  0  0  0  0  0  0  0  0  0  0  0
   33.6730   31.6680   37.0370 C   0  0  0  0  0  0  0  0  0  0  0  0
   32.6880   31.6830   37.5190 H   0  0  0  0  0  0  0  0  0  0  0  0
   34.9580   32.0190   37.3040 N   0  0  0  0  0  0  0  0  0  0  0  0
   35.1250   32.4390   38.2430 H   0  0  0  0  0  0  0  0  0  0  0  0
   35.7010   31.7300   36.2710 N   0  0  0  0  0  0  0  0  0  0  0  0
  1  6  1  0  0  0  0
  2  3  1  0  0  0  0
  2  1  2  0  0  0  0
  3  4  2  0  0  0  0
  4  5  1  0  0  0  0
  5 18  1  0  0  0  0
  6  5  2  0  0  0  0
  7  2  1  0  0  0  0
  8  3  1  0  0  0  0
  9 14  1  0  0  0  0
  9 15  1  0  0  0  0
 10  9  2  0  0  0  0
 11 12  2  0  0  0  0
 11 10  1  0  0  0  0
 12 13  1  0  0  0  0
 13  1  1  0  0  0  0
 13 14  2  0  0  0  0
 16 10  1  0  0  0  0
 17 11  1  0  0  0  0
 18 19  1  0  0  0  0
 18 25  2  0  0  0  0
 19 21  2  0  0  0  0
 20 19  1  0  0  0  0
 21 23  1  0  0  0  0
 21 22  1  0  0  0  0
 23 24  1  0  0  0  0
 25 23  1  0  0  0  0
M  END
>  <minimizedAffinity>
-4.65481663

$$$$
