
 OpenBabel03272510323D

 27 29  0  0  0  0  0  0  0  0999 V2000
   35.9250   30.0490   47.9610 C   0  0  0  0  0  0  0  0  0  0  0  0
   35.0710   30.0570   46.8880 C   0  0  0  0  0  0  0  0  0  0  0  0
   33.9970   29.1890   46.8300 C   0  0  0  0  0  0  0  0  0  0  0  0
   33.8010   28.3160   47.8670 C   0  0  0  0  0  0  0  0  0  0  0  0
   34.6530   28.2820   48.9760 C   0  0  0  0  0  0  0  0  0  0  0  0
   35.7260   29.1620   49.0140 C   0  0  0  0  0  0  0  0  0  0  0  0
   35.1990   30.7320   46.0570 H   0  0  0  0  0  0  0  0  0  0  0  0
   33.2910   29.1380   46.0300 H   0  0  0  0  0  0  0  0  0  0  0  0
   32.9910   27.6020   47.9120 H   0  0  0  0  0  0  0  0  0  0  0  0
   34.5030   27.5960   49.7970 H   0  0  0  0  0  0  0  0  0  0  0  0
   38.0620   32.8320   48.9410 C   0  0  0  0  0  0  0  0  0  0  0  0
   39.0960   32.8230   48.0100 C   0  0  0  0  0  0  0  0  0  0  0  0
   39.0520   31.8160   47.0030 C   0  0  0  0  0  0  0  0  0  0  0  0
   38.0160   30.9470   47.0260 N   0  0  0  0  0  0  0  0  0  0  0  0
   37.0310   30.9870   47.9470 C   0  0  0  0  0  0  0  0  0  0  0  0
   37.0780   31.9370   48.8920 N   0  0  0  0  0  0  0  0  0  0  0  0
   38.1520   33.6190   49.6780 H   0  0  0  0  0  0  0  0  0  0  0  0
   39.9460   33.4810   47.9320 H   0  0  0  0  0  0  0  0  0  0  0  0
   39.7710   31.6680   46.2080 H   0  0  0  0  0  0  0  0  0  0  0  0
   36.6300   29.1500   50.1600 C   0  0  0  0  0  0  0  0  0  0  0  0
   36.1230   29.7410   51.3230 C   0  0  0  0  0  0  0  0  0  0  0  0
   35.2090   30.2270   51.6250 H   0  0  0  0  0  0  0  0  0  0  0  0
   37.1110   29.6380   52.2970 C   0  0  0  0  0  0  0  0  0  0  0  0
   37.1700   29.9530   53.3500 H   0  0  0  0  0  0  0  0  0  0  0  0
   38.1560   29.0050   51.7110 N   0  0  0  0  0  0  0  0  0  0  0  0
   39.0850   28.7470   52.1320 H   0  0  0  0  0  0  0  0  0  0  0  0
   37.8690   28.7150   50.4390 N   0  0  0  0  0  0  0  0  0  0  0  0
  1  6  1  0  0  0  0
  2  1  2  0  0  0  0
  3  2  1  0  0  0  0
  3  4  2  0  0  0  0
  4  9  1  0  0  0  0
  4  5  1  0  0  0  0
  5  6  2  0  0  0  0
  5 10  1  0  0  0  0
  6 20  1  0  0  0  0
  7  2  1  0  0  0  0
  8  3  1  0  0  0  0
 11 17  1  0  0  0  0
 12 11  2  0  0  0  0
 13 14  2  0  0  0  0
 13 12  1  0  0  0  0
 14 15  1  0  0  0  0
 15  1  1  0  0  0  0
 15 16  2  0  0  0  0
 16 11  1  0  0  0  0
 18 12  1  0  0  0  0
 19 13  1  0  0  0  0
 20 27  2  0  0  0  0
 20 21  1  0  0  0  0
 21 22  1  0  0  0  0
 21 23  2  0  0  0  0
 23 24  1  0  0  0  0
 25 26  1  0  0  0  0
 25 23  1  0  0  0  0
 27 25  1  0  0  0  0
M  END
>  <minimizedAffinity>
-5.37669897

>  <minimizedRMSD>
0.843225121

$$$$
