
 OpenBabel03272508133D

 33 35  0  0  0  0  0  0  0  0999 V2000
   38.5290   23.0490   34.3180 Cl  0  0  0  0  0  0  0  0  0  0  0  0
   38.4400   24.8000   34.5990 C   0  0  0  0  0  0  0  0  0  0  0  0
   38.3530   25.7280   33.5590 C   0  0  0  0  0  0  0  0  0  0  0  0
   38.2900   27.0620   33.9110 C   0  0  0  0  0  0  0  0  0  0  0  0
   38.3100   27.4610   35.2230 C   0  0  0  0  0  0  0  0  0  0  0  0
   38.3940   26.5650   36.2360 C   0  0  0  0  0  0  0  0  0  0  0  0
   38.4600   25.2290   35.9190 C   0  0  0  0  0  0  0  0  0  0  0  0
   38.2240   27.7220   33.0600 H   0  0  0  0  0  0  0  0  0  0  0  0
   38.2570   28.5290   35.4200 H   0  0  0  0  0  0  0  0  0  0  0  0
   38.4080   26.9190   37.2630 H   0  0  0  0  0  0  0  0  0  0  0  0
   38.5520   24.2200   36.9980 C   0  0  0  0  0  0  0  0  0  0  0  0
   37.5810   23.9910   37.9480 C   0  0  0  0  0  0  0  0  0  0  0  0
   36.6360   24.5310   38.0060 H   0  0  0  0  0  0  0  0  0  0  0  0
   38.0900   22.9780   38.7360 C   0  0  0  0  0  0  0  0  0  0  0  0
   37.5240   22.5780   39.5920 H   0  0  0  0  0  0  0  0  0  0  0  0
   39.3050   22.6120   38.2890 N   0  0  0  0  0  0  0  0  0  0  0  0
   39.8770   21.8570   38.7370 H   0  0  0  0  0  0  0  0  0  0  0  0
   39.5770   23.3710   37.2350 N   0  0  0  0  0  0  0  0  0  0  0  0
   38.3450   25.1510   32.3260 O   0  0  0  0  0  0  0  0  0  0  0  0
   36.4530   26.2770   30.9820 O   0  0  0  0  0  0  0  0  0  0  0  0
   37.0820   24.9580   31.2430 P   0  0  1  0  0  0  0  0  0  0  0  0
   37.8090   24.3620   29.8200 O   0  0  0  0  0  0  0  0  0  0  0  0
   38.3800   25.0670   29.4210 H   0  0  0  0  0  0  0  0  0  0  0  0
   36.0000   23.8080   31.8620 O   0  0  0  0  0  0  0  0  0  0  0  0
   35.3060   20.1890   32.0180 C   0  0  0  0  0  0  0  0  0  0  0  0
   35.0700   21.5620   32.2280 C   0  0  0  0  0  0  0  0  0  0  0  0
   36.0190   22.4740   31.7720 C   0  0  0  0  0  0  0  0  0  0  0  0
   37.1330   21.9860   31.1420 N   0  0  0  0  0  0  0  0  0  0  0  0
   37.3230   20.6630   30.9600 C   0  0  0  0  0  0  0  0  0  0  0  0
   36.4110   19.7820   31.3970 N   0  0  0  0  0  0  0  0  0  0  0  0
   34.4920   19.5880   32.4190 H   0  0  0  0  0  0  0  0  0  0  0  0
   34.2280   22.0300   32.7090 H   0  0  0  0  0  0  0  0  0  0  0  0
   38.1930   20.2560   30.4660 H   0  0  0  0  0  0  0  0  0  0  0  0
  1  2  1  0  0  0  0
  2  7  1  0  0  0  0
  3  4  1  0  0  0  0
  3  2  2  0  0  0  0
  4  5  2  0  0  0  0
  5  9  1  0  0  0  0
  5  6  1  0  0  0  0
  6 10  1  0  0  0  0
  7  6  2  0  0  0  0
  7 11  1  0  0  0  0
  8  4  1  0  0  0  0
 11 18  2  0  0  0  0
 11 12  1  0  0  0  0
 12 13  1  0  0  0  0
 12 14  2  0  0  0  0
 14 15  1  0  0  0  0
 16 14  1  0  0  0  0
 16 17  1  0  0  0  0
 18 16  1  0  0  0  0
 19  3  1  0  0  0  0
 21 20  2  6  0  0  0
 21 24  1  0  0  0  0
 21 19  1  0  0  0  0
 22 21  1  0  0  0  0
 23 22  1  0  0  0  0
 25 26  1  0  0  0  0
 25 31  1  0  0  0  0
 26 32  1  0  0  0  0
 27 24  1  0  0  0  0
 27 26  2  0  0  0  0
 28 27  1  0  0  0  0
 29 28  2  0  0  0  0
 29 30  1  0  0  0  0
 30 25  2  0  0  0  0
 33 29  1  0  0  0  0
M  END
>  <minimizedAffinity>
-5.74682093

$$$$

 OpenBabel03272508133D

 33 35  0  0  0  0  0  0  0  0999 V2000
   37.8910   23.2240   34.2210 Cl  0  0  0  0  0  0  0  0  0  0  0  0
   37.9220   24.9290   34.7140 C   0  0  0  0  0  0  0  0  0  0  0  0
   37.4110   25.9550   33.9160 C   0  0  0  0  0  0  0  0  0  0  0  0
   37.4950   27.2400   34.4140 C   0  0  0  0  0  0  0  0  0  0  0  0
   38.0550   27.5010   35.6390 C   0  0  0  0  0  0  0  0  0  0  0  0
   38.5520   26.5090   36.4180 C   0  0  0  0  0  0  0  0  0  0  0  0
   38.4840   25.2190   35.9500 C   0  0  0  0  0  0  0  0  0  0  0  0
   37.0820   27.9810   33.7470 H   0  0  0  0  0  0  0  0  0  0  0  0
   38.0850   28.5380   35.9630 H   0  0  0  0  0  0  0  0  0  0  0  0
   38.9880   26.7550   37.3820 H   0  0  0  0  0  0  0  0  0  0  0  0
   39.0160   24.1090   36.7720 C   0  0  0  0  0  0  0  0  0  0  0  0
   40.2000   23.4460   36.5290 C   0  0  0  0  0  0  0  0  0  0  0  0
   40.8730   23.6700   35.7010 H   0  0  0  0  0  0  0  0  0  0  0  0
   40.2890   22.5040   37.5350 C   0  0  0  0  0  0  0  0  0  0  0  0
   41.1450   21.8150   37.6000 H   0  0  0  0  0  0  0  0  0  0  0  0
   39.2180   22.5910   38.3440 N   0  0  0  0  0  0  0  0  0  0  0  0
   39.0770   21.9700   39.1770 H   0  0  0  0  0  0  0  0  0  0  0  0
   38.4510   23.5660   37.8730 N   0  0  0  0  0  0  0  0  0  0  0  0
   36.8960   25.5100   32.7360 O   0  0  0  0  0  0  0  0  0  0  0  0
   38.7950   26.2230   31.1440 O   0  0  0  0  0  0  0  0  0  0  0  0
   37.3540   25.8670   31.1660 P   0  0  1  0  0  0  0  0  0  0  0  0
   37.0910   24.4260   30.2920 O   0  0  0  0  0  0  0  0  0  0  0  0
   37.7350   23.7360   30.5940 H   0  0  0  0  0  0  0  0  0  0  0  0
   36.3490   27.0950   30.5670 O   0  0  0  0  0  0  0  0  0  0  0  0
   36.5210   30.7150   31.2480 C   0  0  0  0  0  0  0  0  0  0  0  0
   36.2300   29.3620   31.5100 C   0  0  0  0  0  0  0  0  0  0  0  0
   36.5360   28.4180   30.5320 C   0  0  0  0  0  0  0  0  0  0  0  0
   37.1050   28.8570   29.3660 N   0  0  0  0  0  0  0  0  0  0  0  0
   37.3680   30.1640   29.1530 C   0  0  0  0  0  0  0  0  0  0  0  0
   37.0760   31.0750   30.0920 N   0  0  0  0  0  0  0  0  0  0  0  0
   36.2360   31.3440   32.0890 H   0  0  0  0  0  0  0  0  0  0  0  0
   35.7880   28.9310   32.3920 H   0  0  0  0  0  0  0  0  0  0  0  0
   37.8170   30.5320   28.2420 H   0  0  0  0  0  0  0  0  0  0  0  0
  1  2  1  0  0  0  0
  2  7  1  0  0  0  0
  3  4  1  0  0  0  0
  3  2  2  0  0  0  0
  4  5  2  0  0  0  0
  5  9  1  0  0  0  0
  5  6  1  0  0  0  0
  6 10  1  0  0  0  0
  7  6  2  0  0  0  0
  7 11  1  0  0  0  0
  8  4  1  0  0  0  0
 11 18  2  0  0  0  0
 12 11  1  0  0  0  0
 12 14  2  0  0  0  0
 13 12  1  0  0  0  0
 14 15  1  0  0  0  0
 14 16  1  0  0  0  0
 16 17  1  0  0  0  0
 18 16  1  0  0  0  0
 19  3  1  0  0  0  0
 21 20  2  6  0  0  0
 21 19  1  0  0  0  0
 22 23  1  0  0  0  0
 22 21  1  0  0  0  0
 24 21  1  0  0  0  0
 25 26  1  0  0  0  0
 25 31  1  0  0  0  0
 26 32  1  0  0  0  0
 27 24  1  0  0  0  0
 27 26  2  0  0  0  0
 28 27  1  0  0  0  0
 29 28  2  0  0  0  0
 29 30  1  0  0  0  0
 30 25  2  0  0  0  0
 33 29  1  0  0  0  0
M  END
>  <minimizedAffinity>
-5.73237085

$$$$

 OpenBabel03272508133D

 33 35  0  0  0  0  0  0  0  0999 V2000
   37.8330   23.2700   34.4090 Cl  0  0  0  0  0  0  0  0  0  0  0  0
   37.9150   25.0060   34.7670 C   0  0  0  0  0  0  0  0  0  0  0  0
   37.6250   25.9880   33.8160 C   0  0  0  0  0  0  0  0  0  0  0  0
   37.7250   27.3040   34.2210 C   0  0  0  0  0  0  0  0  0  0  0  0
   38.0920   27.6370   35.4990 C   0  0  0  0  0  0  0  0  0  0  0  0
   38.3740   26.6890   36.4260 C   0  0  0  0  0  0  0  0  0  0  0  0
   38.2840   25.3690   36.0550 C   0  0  0  0  0  0  0  0  0  0  0  0
   37.4880   28.0070   33.4370 H   0  0  0  0  0  0  0  0  0  0  0  0
   38.1490   28.6950   35.7420 H   0  0  0  0  0  0  0  0  0  0  0  0
   38.6620   26.9910   37.4300 H   0  0  0  0  0  0  0  0  0  0  0  0
   38.5850   24.3050   37.0390 C   0  0  0  0  0  0  0  0  0  0  0  0
   37.8590   24.0640   38.1850 C   0  0  0  0  0  0  0  0  0  0  0  0
   36.9820   24.6350   38.4910 H   0  0  0  0  0  0  0  0  0  0  0  0
   38.4940   22.9960   38.7870 C   0  0  0  0  0  0  0  0  0  0  0  0
   38.1310   22.5750   39.7380 H   0  0  0  0  0  0  0  0  0  0  0  0
   39.5480   22.6090   38.0460 N   0  0  0  0  0  0  0  0  0  0  0  0
   40.1750   21.8130   38.3130 H   0  0  0  0  0  0  0  0  0  0  0  0
   39.5950   23.4090   36.9880 N   0  0  0  0  0  0  0  0  0  0  0  0
   37.2790   25.4730   32.6040 O   0  0  0  0  0  0  0  0  0  0  0  0
   39.1170   26.4580   31.0840 O   0  0  0  0  0  0  0  0  0  0  0  0
   37.7130   25.9730   31.0660 P   0  0  1  0  0  0  0  0  0  0  0  0
   37.5880   24.5750   30.0960 O   0  0  0  0  0  0  0  0  0  0  0  0
   38.2900   23.9270   30.3600 H   0  0  0  0  0  0  0  0  0  0  0  0
   36.6050   27.1420   30.5360 O   0  0  0  0  0  0  0  0  0  0  0  0
   36.2700   30.6600   31.5920 C   0  0  0  0  0  0  0  0  0  0  0  0
   36.8140   29.5650   30.8900 C   0  0  0  0  0  0  0  0  0  0  0  0
   36.2530   28.3060   31.0910 C   0  0  0  0  0  0  0  0  0  0  0  0
   35.2010   28.1990   31.9610 N   0  0  0  0  0  0  0  0  0  0  0  0
   34.7080   29.2720   32.6140 C   0  0  0  0  0  0  0  0  0  0  0  0
   35.2450   30.4860   32.4240 N   0  0  0  0  0  0  0  0  0  0  0  0
   36.7960   31.5800   31.3460 H   0  0  0  0  0  0  0  0  0  0  0  0
   37.6330   29.5590   30.1920 H   0  0  0  0  0  0  0  0  0  0  0  0
   33.8790   29.2100   33.3040 H   0  0  0  0  0  0  0  0  0  0  0  0
  1  2  1  0  0  0  0
  2  7  1  0  0  0  0
  3  4  1  0  0  0  0
  3  2  2  0  0  0  0
  4  5  2  0  0  0  0
  5  9  1  0  0  0  0
  5  6  1  0  0  0  0
  6 10  1  0  0  0  0
  7  6  2  0  0  0  0
  7 11  1  0  0  0  0
  8  4  1  0  0  0  0
 11 12  1  0  0  0  0
 12 13  1  0  0  0  0
 12 14  2  0  0  0  0
 14 15  1  0  0  0  0
 16 17  1  0  0  0  0
 16 14  1  0  0  0  0
 18 11  2  0  0  0  0
 18 16  1  0  0  0  0
 19  3  1  0  0  0  0
 21 20  2  6  0  0  0
 21 19  1  0  0  0  0
 22 23  1  0  0  0  0
 22 21  1  0  0  0  0
 24 21  1  0  0  0  0
 24 27  1  0  0  0  0
 25 30  1  0  0  0  0
 26 27  1  0  0  0  0
 26 25  2  0  0  0  0
 27 28  2  0  0  0  0
 28 29  1  0  0  0  0
 29 33  1  0  0  0  0
 30 29  2  0  0  0  0
 31 25  1  0  0  0  0
 32 26  1  0  0  0  0
M  END
>  <minimizedAffinity>
-5.59485054

$$$$

 OpenBabel03272508133D

 33 35  0  0  0  0  0  0  0  0999 V2000
   34.3230   29.3280   34.3890 Cl  0  0  0  0  0  0  0  0  0  0  0  0
   35.2430   30.4430   33.3600 C   0  0  0  0  0  0  0  0  0  0  0  0
   35.6950   30.0950   32.0850 C   0  0  0  0  0  0  0  0  0  0  0  0
   36.4000   31.0530   31.3850 C   0  0  0  0  0  0  0  0  0  0  0  0
   36.6460   32.2940   31.9140 C   0  0  0  0  0  0  0  0  0  0  0  0
   36.2090   32.6380   33.1500 C   0  0  0  0  0  0  0  0  0  0  0  0
   35.5050   31.7050   33.8740 C   0  0  0  0  0  0  0  0  0  0  0  0
   36.7180   30.7170   30.4100 H   0  0  0  0  0  0  0  0  0  0  0  0
   37.2080   32.9950   31.3020 H   0  0  0  0  0  0  0  0  0  0  0  0
   36.4240   33.6310   33.5370 H   0  0  0  0  0  0  0  0  0  0  0  0
   35.0120   32.0430   35.2270 C   0  0  0  0  0  0  0  0  0  0  0  0
   33.8210   32.6830   35.4960 C   0  0  0  0  0  0  0  0  0  0  0  0
   33.1120   33.0090   34.7340 H   0  0  0  0  0  0  0  0  0  0  0  0
   33.7780   32.7860   36.8720 C   0  0  0  0  0  0  0  0  0  0  0  0
   32.9280   33.2620   37.3840 H   0  0  0  0  0  0  0  0  0  0  0  0
   34.8830   32.2390   37.4100 N   0  0  0  0  0  0  0  0  0  0  0  0
   35.0620   32.2060   38.4420 H   0  0  0  0  0  0  0  0  0  0  0  0
   35.6260   31.7920   36.4050 N   0  0  0  0  0  0  0  0  0  0  0  0
   35.3580   28.8250   31.7260 O   0  0  0  0  0  0  0  0  0  0  0  0
   35.6480   26.2750   31.4680 O   0  0  0  0  0  0  0  0  0  0  0  0
   36.3320   27.5670   31.2040 P   0  0  1  0  0  0  0  0  0  0  0  0
   36.5020   27.8070   29.5250 O   0  0  0  0  0  0  0  0  0  0  0  0
   35.6290   27.6550   29.0790 H   0  0  0  0  0  0  0  0  0  0  0  0
   37.8450   27.6930   31.9600 O   0  0  0  0  0  0  0  0  0  0  0  0
   37.9890   27.1780   35.6090 C   0  0  0  0  0  0  0  0  0  0  0  0
   37.3930   27.4700   34.3660 C   0  0  0  0  0  0  0  0  0  0  0  0
   38.1950   27.4510   33.2270 C   0  0  0  0  0  0  0  0  0  0  0  0
   39.5220   27.1490   33.3770 N   0  0  0  0  0  0  0  0  0  0  0  0
   40.0560   26.8740   34.5860 C   0  0  0  0  0  0  0  0  0  0  0  0
   39.2870   26.8920   35.6850 N   0  0  0  0  0  0  0  0  0  0  0  0
   37.2570   27.2260   36.4130 H   0  0  0  0  0  0  0  0  0  0  0  0
   36.3660   27.7160   34.1580 H   0  0  0  0  0  0  0  0  0  0  0  0
   41.1000   26.6330   34.7270 H   0  0  0  0  0  0  0  0  0  0  0  0
  2  7  1  0  0  0  0
  2  1  1  0  0  0  0
  3  2  2  0  0  0  0
  4  5  2  0  0  0  0
  4  3  1  0  0  0  0
  5  6  1  0  0  0  0
  6 10  1  0  0  0  0
  6  7  2  0  0  0  0
  7 11  1  0  0  0  0
  8  4  1  0  0  0  0
  9  5  1  0  0  0  0
 11 12  1  0  0  0  0
 11 18  2  0  0  0  0
 12 14  2  0  0  0  0
 13 12  1  0  0  0  0
 14 15  1  0  0  0  0
 14 16  1  0  0  0  0
 16 17  1  0  0  0  0
 18 16  1  0  0  0  0
 19  3  1  0  0  0  0
 21 20  2  1  0  0  0
 21 19  1  0  0  0  0
 21 24  1  0  0  0  0
 22 21  1  0  0  0  0
 23 22  1  0  0  0  0
 24 27  1  0  0  0  0
 25 30  1  0  0  0  0
 25 31  1  0  0  0  0
 26 25  2  0  0  0  0
 27 28  2  0  0  0  0
 27 26  1  0  0  0  0
 28 29  1  0  0  0  0
 29 33  1  0  0  0  0
 29 30  2  0  0  0  0
 32 26  1  0  0  0  0
M  END
>  <minimizedAffinity>
-5.52930212

$$$$

 OpenBabel03272508133D

 33 35  0  0  0  0  0  0  0  0999 V2000
   37.9370   23.5510   33.5180 Cl  0  0  0  0  0  0  0  0  0  0  0  0
   37.9390   25.1210   34.3450 C   0  0  0  0  0  0  0  0  0  0  0  0
   37.3120   26.2530   33.8190 C   0  0  0  0  0  0  0  0  0  0  0  0
   37.3850   27.4150   34.5610 C   0  0  0  0  0  0  0  0  0  0  0  0
   38.0450   27.4590   35.7630 C   0  0  0  0  0  0  0  0  0  0  0  0
   38.6550   26.3650   36.2780 C   0  0  0  0  0  0  0  0  0  0  0  0
   38.6010   25.1920   35.5630 C   0  0  0  0  0  0  0  0  0  0  0  0
   36.8800   28.2470   34.0970 H   0  0  0  0  0  0  0  0  0  0  0  0
   38.0600   28.4110   36.2880 H   0  0  0  0  0  0  0  0  0  0  0  0
   39.1690   26.4390   37.2330 H   0  0  0  0  0  0  0  0  0  0  0  0
   39.2560   23.9760   36.0940 C   0  0  0  0  0  0  0  0  0  0  0  0
   40.5500   23.5940   35.8180 C   0  0  0  0  0  0  0  0  0  0  0  0
   41.2340   24.1500   35.1760 H   0  0  0  0  0  0  0  0  0  0  0  0
   40.7270   22.4160   36.5170 C   0  0  0  0  0  0  0  0  0  0  0  0
   41.6830   21.8700   36.4860 H   0  0  0  0  0  0  0  0  0  0  0  0
   39.6010   22.1010   37.1820 N   0  0  0  0  0  0  0  0  0  0  0  0
   39.5100   21.2450   37.7800 H   0  0  0  0  0  0  0  0  0  0  0  0
   38.7140   23.0520   36.9190 N   0  0  0  0  0  0  0  0  0  0  0  0
   36.7080   26.0220   32.6200 O   0  0  0  0  0  0  0  0  0  0  0  0
   38.1310   26.4090   30.5050 O   0  0  0  0  0  0  0  0  0  0  0  0
   36.8710   26.8340   31.1660 P   0  0  1  0  0  0  0  0  0  0  0  0
   35.5270   26.3470   30.2350 O   0  0  0  0  0  0  0  0  0  0  0  0
   35.6180   25.3880   30.0020 H   0  0  0  0  0  0  0  0  0  0  0  0
   36.7940   28.5030   31.4570 O   0  0  0  0  0  0  0  0  0  0  0  0
   34.3050   31.2180   31.2860 C   0  0  0  0  0  0  0  0  0  0  0  0
   35.5130   30.5500   31.0020 C   0  0  0  0  0  0  0  0  0  0  0  0
   35.7330   29.3050   31.5860 C   0  0  0  0  0  0  0  0  0  0  0  0
   34.7610   28.7960   32.4060 N   0  0  0  0  0  0  0  0  0  0  0  0
   33.6170   29.4670   32.6540 C   0  0  0  0  0  0  0  0  0  0  0  0
   33.4010   30.6660   32.0930 N   0  0  0  0  0  0  0  0  0  0  0  0
   34.2590   32.1750   30.7690 H   0  0  0  0  0  0  0  0  0  0  0  0
   36.3240   30.8740   30.3740 H   0  0  0  0  0  0  0  0  0  0  0  0
   32.8380   29.0830   33.2960 H   0  0  0  0  0  0  0  0  0  0  0  0
  1  2  1  0  0  0  0
  2  7  1  0  0  0  0
  3  2  2  0  0  0  0
  3  4  1  0  0  0  0
  4  5  2  0  0  0  0
  5  6  1  0  0  0  0
  5  9  1  0  0  0  0
  6 10  1  0  0  0  0
  7 11  1  0  0  0  0
  7  6  2  0  0  0  0
  8  4  1  0  0  0  0
 11 18  2  0  0  0  0
 12 11  1  0  0  0  0
 12 14  2  0  0  0  0
 13 12  1  0  0  0  0
 14 16  1  0  0  0  0
 15 14  1  0  0  0  0
 16 17  1  0  0  0  0
 18 16  1  0  0  0  0
 19  3  1  0  0  0  0
 21 20  2  6  0  0  0
 21 24  1  0  0  0  0
 21 19  1  0  0  0  0
 22 21  1  0  0  0  0
 23 22  1  0  0  0  0
 24 27  1  0  0  0  0
 25 30  1  0  0  0  0
 26 25  2  0  0  0  0
 26 27  1  0  0  0  0
 27 28  2  0  0  0  0
 28 29  1  0  0  0  0
 29 33  1  0  0  0  0
 30 29  2  0  0  0  0
 31 25  1  0  0  0  0
 32 26  1  0  0  0  0
M  END
>  <minimizedAffinity>
-5.47317505

$$$$

 OpenBabel03272508133D

 33 35  0  0  0  0  0  0  0  0999 V2000
   35.5200   29.5080   34.4560 Cl  0  0  0  0  0  0  0  0  0  0  0  0
   36.2030   28.9420   32.9190 C   0  0  0  0  0  0  0  0  0  0  0  0
   37.0200   27.8130   32.8260 C   0  0  0  0  0  0  0  0  0  0  0  0
   37.4870   27.4760   31.5710 C   0  0  0  0  0  0  0  0  0  0  0  0
   37.1640   28.2160   30.4620 C   0  0  0  0  0  0  0  0  0  0  0  0
   36.3710   29.3120   30.5460 C   0  0  0  0  0  0  0  0  0  0  0  0
   35.8910   29.6730   31.7820 C   0  0  0  0  0  0  0  0  0  0  0  0
   38.1110   26.5960   31.5730 H   0  0  0  0  0  0  0  0  0  0  0  0
   37.5710   27.8880   29.5090 H   0  0  0  0  0  0  0  0  0  0  0  0
   36.1370   29.8730   29.6450 H   0  0  0  0  0  0  0  0  0  0  0  0
   35.0220   30.8640   31.9140 C   0  0  0  0  0  0  0  0  0  0  0  0
   35.4710   32.1470   32.1420 C   0  0  0  0  0  0  0  0  0  0  0  0
   36.5210   32.4220   32.2500 H   0  0  0  0  0  0  0  0  0  0  0  0
   34.3280   32.9180   32.1900 C   0  0  0  0  0  0  0  0  0  0  0  0
   34.3760   34.0050   32.3630 H   0  0  0  0  0  0  0  0  0  0  0  0
   33.2420   32.1470   32.0020 N   0  0  0  0  0  0  0  0  0  0  0  0
   32.2640   32.5230   31.9990 H   0  0  0  0  0  0  0  0  0  0  0  0
   33.6730   30.9020   31.8350 N   0  0  0  0  0  0  0  0  0  0  0  0
   37.2320   27.2050   34.0270 O   0  0  0  0  0  0  0  0  0  0  0  0
   39.8100   27.2040   33.9190 O   0  0  0  0  0  0  0  0  0  0  0  0
   38.6690   26.7580   34.7600 P   0  0  1  0  0  0  0  0  0  0  0  0
   38.6800   27.5870   36.2500 O   0  0  0  0  0  0  0  0  0  0  0  0
   38.7710   28.5600   36.0860 H   0  0  0  0  0  0  0  0  0  0  0  0
   38.6490   25.0840   35.0320 O   0  0  0  0  0  0  0  0  0  0  0  0
   39.8620   22.8080   37.6680 C   0  0  0  0  0  0  0  0  0  0  0  0
   39.8170   23.4010   36.3910 C   0  0  0  0  0  0  0  0  0  0  0  0
   38.8680   24.3940   36.1560 C   0  0  0  0  0  0  0  0  0  0  0  0
   38.0290   24.7410   37.1810 N   0  0  0  0  0  0  0  0  0  0  0  0
   38.1040   24.1490   38.3910 C   0  0  0  0  0  0  0  0  0  0  0  0
   39.0160   23.1930   38.6220 N   0  0  0  0  0  0  0  0  0  0  0  0
   40.6440   22.0520   37.7190 H   0  0  0  0  0  0  0  0  0  0  0  0
   40.4330   23.1910   35.5340 H   0  0  0  0  0  0  0  0  0  0  0  0
   37.4530   24.4080   39.2140 H   0  0  0  0  0  0  0  0  0  0  0  0
  2  1  1  0  0  0  0
  3  2  1  0  0  0  0
  3 19  1  0  0  0  0
  4  8  1  0  0  0  0
  4  3  2  0  0  0  0
  5  6  2  0  0  0  0
  5  4  1  0  0  0  0
  6  7  1  0  0  0  0
  7 11  1  0  0  0  0
  7  2  2  0  0  0  0
  9  5  1  0  0  0  0
 10  6  1  0  0  0  0
 11 12  1  0  0  0  0
 12 14  2  0  0  0  0
 12 13  1  0  0  0  0
 14 15  1  0  0  0  0
 16 14  1  0  0  0  0
 17 16  1  0  0  0  0
 18 11  2  0  0  0  0
 18 16  1  0  0  0  0
 19 21  1  0  0  0  0
 21 20  2  6  0  0  0
 21 24  1  0  0  0  0
 21 22  1  0  0  0  0
 23 22  1  0  0  0  0
 24 27  1  0  0  0  0
 25 31  1  0  0  0  0
 25 30  1  0  0  0  0
 26 25  2  0  0  0  0
 27 26  1  0  0  0  0
 27 28  2  0  0  0  0
 28 29  1  0  0  0  0
 29 30  2  0  0  0  0
 29 33  1  0  0  0  0
 32 26  1  0  0  0  0
M  END
>  <minimizedAffinity>
-5.33884859

$$$$

 OpenBabel03272508133D

 33 35  0  0  0  0  0  0  0  0999 V2000
   37.9450   23.2510   34.0790 Cl  0  0  0  0  0  0  0  0  0  0  0  0
   37.9060   24.9400   34.6240 C   0  0  0  0  0  0  0  0  0  0  0  0
   37.3600   25.9700   33.8540 C   0  0  0  0  0  0  0  0  0  0  0  0
   37.3910   27.2410   34.3910 C   0  0  0  0  0  0  0  0  0  0  0  0
   37.9330   27.4860   35.6270 C   0  0  0  0  0  0  0  0  0  0  0  0
   38.4630   26.4910   36.3790 C   0  0  0  0  0  0  0  0  0  0  0  0
   38.4490   25.2140   35.8720 C   0  0  0  0  0  0  0  0  0  0  0  0
   36.9540   27.9850   33.7440 H   0  0  0  0  0  0  0  0  0  0  0  0
   37.9200   28.5130   35.9830 H   0  0  0  0  0  0  0  0  0  0  0  0
   38.8840   26.7230   37.3540 H   0  0  0  0  0  0  0  0  0  0  0  0
   39.0190   24.1010   36.6640 C   0  0  0  0  0  0  0  0  0  0  0  0
   40.2170   23.4750   36.3940 C   0  0  0  0  0  0  0  0  0  0  0  0
   40.8750   23.7340   35.5650 H   0  0  0  0  0  0  0  0  0  0  0  0
   40.3420   22.5140   37.3780 C   0  0  0  0  0  0  0  0  0  0  0  0
   41.2160   21.8460   37.4190 H   0  0  0  0  0  0  0  0  0  0  0  0
   39.2780   22.5550   38.2000 N   0  0  0  0  0  0  0  0  0  0  0  0
   39.1620   21.9120   39.0200 H   0  0  0  0  0  0  0  0  0  0  0  0
   38.4810   23.5200   37.7590 N   0  0  0  0  0  0  0  0  0  0  0  0
   36.8700   25.5410   32.6580 O   0  0  0  0  0  0  0  0  0  0  0  0
   37.5650   24.3330   30.4870 O   0  0  0  0  0  0  0  0  0  0  0  0
   37.5250   25.6750   31.1230 P   0  0  1  0  0  0  0  0  0  0  0  0
   36.4530   26.6940   30.2730 O   0  0  0  0  0  0  0  0  0  0  0  0
   35.5890   26.2270   30.1410 H   0  0  0  0  0  0  0  0  0  0  0  0
   39.0480   26.4110   31.2380 O   0  0  0  0  0  0  0  0  0  0  0  0
   41.7140   26.6480   33.7760 C   0  0  0  0  0  0  0  0  0  0  0  0
   40.6790   27.1110   32.9390 C   0  0  0  0  0  0  0  0  0  0  0  0
   40.0440   26.1940   32.1030 C   0  0  0  0  0  0  0  0  0  0  0  0
   40.4600   24.8900   32.1410 N   0  0  0  0  0  0  0  0  0  0  0  0
   41.4550   24.4860   32.9570 C   0  0  0  0  0  0  0  0  0  0  0  0
   42.0690   25.3650   33.7630 N   0  0  0  0  0  0  0  0  0  0  0  0
   42.1230   27.4590   34.3740 H   0  0  0  0  0  0  0  0  0  0  0  0
   40.2900   28.1100   32.8460 H   0  0  0  0  0  0  0  0  0  0  0  0
   41.7990   23.4620   33.0030 H   0  0  0  0  0  0  0  0  0  0  0  0
  1  2  1  0  0  0  0
  2  7  1  0  0  0  0
  3  4  1  0  0  0  0
  3  2  2  0  0  0  0
  4  5  2  0  0  0  0
  5  9  1  0  0  0  0
  5  6  1  0  0  0  0
  6 10  1  0  0  0  0
  7  6  2  0  0  0  0
  7 11  1  0  0  0  0
  8  4  1  0  0  0  0
 11 18  2  0  0  0  0
 12 11  1  0  0  0  0
 12 14  2  0  0  0  0
 13 12  1  0  0  0  0
 14 15  1  0  0  0  0
 14 16  1  0  0  0  0
 16 17  1  0  0  0  0
 18 16  1  0  0  0  0
 19  3  1  0  0  0  0
 21 20  2  6  0  0  0
 21 24  1  0  0  0  0
 21 19  1  0  0  0  0
 22 21  1  0  0  0  0
 23 22  1  0  0  0  0
 24 27  1  0  0  0  0
 25 31  1  0  0  0  0
 26 25  2  0  0  0  0
 27 28  2  0  0  0  0
 27 26  1  0  0  0  0
 28 29  1  0  0  0  0
 29 33  1  0  0  0  0
 29 30  2  0  0  0  0
 30 25  1  0  0  0  0
 32 26  1  0  0  0  0
M  END
>  <minimizedAffinity>
-5.32109261

$$$$

 OpenBabel03272508133D

 33 35  0  0  0  0  0  0  0  0999 V2000
   37.1470   21.5720   35.5620 Cl  0  0  0  0  0  0  0  0  0  0  0  0
   38.5300   22.2880   34.7100 C   0  0  0  0  0  0  0  0  0  0  0  0
   38.8390   21.9850   33.3820 C   0  0  0  0  0  0  0  0  0  0  0  0
   39.9410   22.6100   32.8340 C   0  0  0  0  0  0  0  0  0  0  0  0
   40.7010   23.4910   33.5590 C   0  0  0  0  0  0  0  0  0  0  0  0
   40.4070   23.7900   34.8480 C   0  0  0  0  0  0  0  0  0  0  0  0
   39.3160   23.1830   35.4230 C   0  0  0  0  0  0  0  0  0  0  0  0
   40.1200   22.3310   31.8080 H   0  0  0  0  0  0  0  0  0  0  0  0
   41.5540   23.9430   33.0590 H   0  0  0  0  0  0  0  0  0  0  0  0
   41.0330   24.4920   35.3910 H   0  0  0  0  0  0  0  0  0  0  0  0
   38.9630   23.4830   36.8280 C   0  0  0  0  0  0  0  0  0  0  0  0
   38.0340   24.4210   37.2250 C   0  0  0  0  0  0  0  0  0  0  0  0
   37.4570   25.0450   36.5410 H   0  0  0  0  0  0  0  0  0  0  0  0
   38.0350   24.3580   38.6040 C   0  0  0  0  0  0  0  0  0  0  0  0
   37.3800   25.0050   39.2080 H   0  0  0  0  0  0  0  0  0  0  0  0
   38.9160   23.4320   39.0230 N   0  0  0  0  0  0  0  0  0  0  0  0
   39.0820   23.2150   40.0340 H   0  0  0  0  0  0  0  0  0  0  0  0
   39.4750   22.9070   37.9390 N   0  0  0  0  0  0  0  0  0  0  0  0
   37.9750   21.0930   32.8220 O   0  0  0  0  0  0  0  0  0  0  0  0
   36.6010   20.0990   30.8790 O   0  0  0  0  0  0  0  0  0  0  0  0
   36.7760   21.3370   31.6800 P   0  0  1  0  0  0  0  0  0  0  0  0
   35.3650   21.6550   32.5840 O   0  0  0  0  0  0  0  0  0  0  0  0
   35.0910   20.8340   33.0680 H   0  0  0  0  0  0  0  0  0  0  0  0
   37.1770   22.6920   30.7440 O   0  0  0  0  0  0  0  0  0  0  0  0
   37.0050   26.3540   31.1510 C   0  0  0  0  0  0  0  0  0  0  0  0
   37.6220   25.0940   31.0220 C   0  0  0  0  0  0  0  0  0  0  0  0
   36.8100   23.9700   30.8800 C   0  0  0  0  0  0  0  0  0  0  0  0
   35.4530   24.1520   30.8750 N   0  0  0  0  0  0  0  0  0  0  0  0
   34.8990   25.3760   31.0020 C   0  0  0  0  0  0  0  0  0  0  0  0
   35.6770   26.4590   31.1380 N   0  0  0  0  0  0  0  0  0  0  0  0
   37.7470   27.1420   31.2530 H   0  0  0  0  0  0  0  0  0  0  0  0
   38.6730   24.8610   31.0150 H   0  0  0  0  0  0  0  0  0  0  0  0
   33.8310   25.5410   30.9990 H   0  0  0  0  0  0  0  0  0  0  0  0
  2  7  1  0  0  0  0
  2  1  1  0  0  0  0
  3  2  2  0  0  0  0
  4  3  1  0  0  0  0
  4  5  2  0  0  0  0
  5  6  1  0  0  0  0
  6 10  1  0  0  0  0
  6  7  2  0  0  0  0
  7 11  1  0  0  0  0
  8  4  1  0  0  0  0
  9  5  1  0  0  0  0
 11 12  1  0  0  0  0
 11 18  2  0  0  0  0
 12 14  2  0  0  0  0
 13 12  1  0  0  0  0
 14 16  1  0  0  0  0
 14 15  1  0  0  0  0
 16 17  1  0  0  0  0
 18 16  1  0  0  0  0
 19  3  1  0  0  0  0
 21 20  2  6  0  0  0
 21 22  1  0  0  0  0
 21 19  1  0  0  0  0
 22 23  1  0  0  0  0
 24 27  1  0  0  0  0
 24 21  1  0  0  0  0
 25 31  1  0  0  0  0
 26 25  2  0  0  0  0
 27 26  1  0  0  0  0
 28 27  2  0  0  0  0
 28 29  1  0  0  0  0
 29 30  2  0  0  0  0
 30 25  1  0  0  0  0
 32 26  1  0  0  0  0
 33 29  1  0  0  0  0
M  END
>  <minimizedAffinity>
-5.31966257

$$$$

 OpenBabel03272508133D

 33 35  0  0  0  0  0  0  0  0999 V2000
   39.6220   26.1970   31.6000 Cl  0  0  0  0  0  0  0  0  0  0  0  0
   39.0180   26.5880   33.2230 C   0  0  0  0  0  0  0  0  0  0  0  0
   39.8630   26.9240   34.2820 C   0  0  0  0  0  0  0  0  0  0  0  0
   39.2680   27.2080   35.4960 C   0  0  0  0  0  0  0  0  0  0  0  0
   37.9070   27.1630   35.6560 C   0  0  0  0  0  0  0  0  0  0  0  0
   37.0820   26.8380   34.6310 C   0  0  0  0  0  0  0  0  0  0  0  0
   37.6440   26.5500   33.4110 C   0  0  0  0  0  0  0  0  0  0  0  0
   39.9790   27.4590   36.2680 H   0  0  0  0  0  0  0  0  0  0  0  0
   37.5130   27.3990   36.6410 H   0  0  0  0  0  0  0  0  0  0  0  0
   36.0080   26.8130   34.7970 H   0  0  0  0  0  0  0  0  0  0  0  0
   36.7750   26.1900   32.2680 C   0  0  0  0  0  0  0  0  0  0  0  0
   36.2990   24.9240   32.0070 C   0  0  0  0  0  0  0  0  0  0  0  0
   36.5140   24.0460   32.6180 H   0  0  0  0  0  0  0  0  0  0  0  0
   35.5440   25.0600   30.8600 C   0  0  0  0  0  0  0  0  0  0  0  0
   35.0310   24.1970   30.4050 H   0  0  0  0  0  0  0  0  0  0  0  0
   35.5590   26.3400   30.4460 N   0  0  0  0  0  0  0  0  0  0  0  0
   35.0500   26.6730   29.5930 H   0  0  0  0  0  0  0  0  0  0  0  0
   36.3080   27.0180   31.3060 N   0  0  0  0  0  0  0  0  0  0  0  0
   41.1810   26.9180   33.9390 O   0  0  0  0  0  0  0  0  0  0  0  0
   43.2430   25.7520   32.9170 O   0  0  0  0  0  0  0  0  0  0  0  0
   42.3180   25.6960   34.0770 P   0  0  1  0  0  0  0  0  0  0  0  0
   43.1620   26.0410   35.5190 O   0  0  0  0  0  0  0  0  0  0  0  0
   43.6930   26.8700   35.4000 H   0  0  0  0  0  0  0  0  0  0  0  0
   41.5120   24.2110   34.2240 O   0  0  0  0  0  0  0  0  0  0  0  0
   39.7810   22.7800   37.1490 C   0  0  0  0  0  0  0  0  0  0  0  0
   39.9400   23.5950   36.0100 C   0  0  0  0  0  0  0  0  0  0  0  0
   41.1480   23.5350   35.3180 C   0  0  0  0  0  0  0  0  0  0  0  0
   42.1170   22.6870   35.7820 N   0  0  0  0  0  0  0  0  0  0  0  0
   41.9270   21.9230   36.8780 C   0  0  0  0  0  0  0  0  0  0  0  0
   40.7660   21.9770   37.5470 N   0  0  0  0  0  0  0  0  0  0  0  0
   38.7980   22.9210   37.5940 H   0  0  0  0  0  0  0  0  0  0  0  0
   39.2370   24.2840   35.5780 H   0  0  0  0  0  0  0  0  0  0  0  0
   42.6780   21.2470   37.2610 H   0  0  0  0  0  0  0  0  0  0  0  0
  1  2  1  0  0  0  0
  2  7  2  0  0  0  0
  2  3  1  0  0  0  0
  3  4  2  0  0  0  0
  4  5  1  0  0  0  0
  4  8  1  0  0  0  0
  5  9  1  0  0  0  0
  6 10  1  0  0  0  0
  6  5  2  0  0  0  0
  7  6  1  0  0  0  0
 11  7  1  0  0  0  0
 12 11  1  0  0  0  0
 12 13  1  0  0  0  0
 14 12  2  0  0  0  0
 15 14  1  0  0  0  0
 16 14  1  0  0  0  0
 16 18  1  0  0  0  0
 17 16  1  0  0  0  0
 18 11  2  0  0  0  0
 19 21  1  0  0  0  0
 19  3  1  0  0  0  0
 21 20  2  6  0  0  0
 21 24  1  0  0  0  0
 21 22  1  0  0  0  0
 23 22  1  0  0  0  0
 24 27  1  0  0  0  0
 25 30  1  0  0  0  0
 25 31  1  0  0  0  0
 26 25  2  0  0  0  0
 27 28  2  0  0  0  0
 27 26  1  0  0  0  0
 28 29  1  0  0  0  0
 29 33  1  0  0  0  0
 29 30  2  0  0  0  0
 32 26  1  0  0  0  0
M  END
>  <minimizedAffinity>
-5.30387974

$$$$
