
 OpenBabel03272510013D

 20 21  0  0  0  0  0  0  0  0999 V2000
   38.3220   31.2700   50.1970 C   0  0  0  0  0  0  0  0  0  0  0  0
   38.4130   31.5480   48.8300 C   0  0  0  0  0  0  0  0  0  0  0  0
   37.3980   31.0800   48.0080 C   0  0  0  0  0  0  0  0  0  0  0  0
   36.3700   30.3820   48.5500 N   0  0  0  0  0  0  0  0  0  0  0  0
   36.3140   30.1320   49.8790 C   0  0  0  0  0  0  0  0  0  0  0  0
   37.2860   30.5760   50.6870 N   0  0  0  0  0  0  0  0  0  0  0  0
   39.0880   31.6120   50.8860 H   0  0  0  0  0  0  0  0  0  0  0  0
   39.2420   32.1050   48.4300 H   0  0  0  0  0  0  0  0  0  0  0  0
   37.4520   31.3460   46.5760 C   0  0  0  0  0  0  0  0  0  0  0  0
   36.8110   30.6170   45.5960 C   0  0  0  0  0  0  0  0  0  0  0  0
   36.1820   29.7570   45.7110 H   0  0  0  0  0  0  0  0  0  0  0  0
   37.1770   31.2660   44.4350 C   0  0  0  0  0  0  0  0  0  0  0  0
   36.8900   31.0170   43.4250 H   0  0  0  0  0  0  0  0  0  0  0  0
   37.9920   32.3270   44.6940 N   0  0  0  0  0  0  0  0  0  0  0  0
   38.4300   33.0020   44.0460 H   0  0  0  0  0  0  0  0  0  0  0  0
   38.1420   32.3480   46.0190 N   0  0  0  0  0  0  0  0  0  0  0  0
   35.1490   29.3590   50.3860 C   0  0  0  0  0  0  0  0  0  0  0  0
   35.2400   29.1090   51.7520 F   0  0  0  0  0  0  0  0  0  0  0  0
   33.9710   30.0860   50.2140 F   0  0  0  0  0  0  0  0  0  0  0  0
   34.9740   28.1610   49.7600 F   0  0  0  0  0  0  0  0  0  0  0  0
  1  6  1  0  0  0  0
  1  7  1  0  0  0  0
  2  1  2  0  0  0  0
  3  4  2  0  0  0  0
  3  2  1  0  0  0  0
  4  5  1  0  0  0  0
  5 17  1  0  0  0  0
  5  6  2  0  0  0  0
  8  2  1  0  0  0  0
  9  3  1  0  0  0  0
 10 11  1  0  0  0  0
 10  9  1  0  0  0  0
 12 14  1  0  0  0  0
 12 10  2  0  0  0  0
 13 12  1  0  0  0  0
 14 16  1  0  0  0  0
 15 14  1  0  0  0  0
 16  9  2  0  0  0  0
 17 18  1  0  0  0  0
 19 17  1  0  0  0  0
 20 17  1  0  0  0  0
M  END
>  <minimizedAffinity>
-5.20000839

>  <minimizedRMSD>
0.360288233

$$$$
