
 OpenBabel03272506073D

 29 31  0  0  0  0  0  0  0  0999 V2000
   37.4970   23.4620   31.7840 C   0  0  0  0  0  0  0  0  0  0  0  0
   37.8130   24.0960   30.9300 H   0  0  0  0  0  0  0  0  0  0  0  0
   38.1830   22.5870   31.7880 H   0  0  0  0  0  0  0  0  0  0  0  0
   37.6570   24.2200   33.0730 C   0  0  0  0  0  0  0  0  0  0  0  0
   37.4390   25.6540   33.0580 C   0  0  0  0  0  0  0  0  0  0  0  0
   37.7450   26.0520   34.7550 S   0  0  0  0  0  0  0  0  0  0  0  0
   38.1150   24.2970   35.2570 C   0  0  0  0  0  0  0  0  0  0  0  0
   37.9830   23.7020   34.2290 N   0  0  0  0  0  0  0  0  0  0  0  0
   37.1650   26.2430   32.1950 H   0  0  0  0  0  0  0  0  0  0  0  0
   38.4790   23.8260   36.6170 C   0  0  0  0  0  0  0  0  0  0  0  0
   38.0350   24.1730   37.8530 C   0  0  0  0  0  0  0  0  0  0  0  0
   37.2720   24.9360   37.8720 H   0  0  0  0  0  0  0  0  0  0  0  0
   38.7250   23.4140   38.7450 C   0  0  0  0  0  0  0  0  0  0  0  0
   38.5270   23.5270   39.8190 H   0  0  0  0  0  0  0  0  0  0  0  0
   39.5850   22.6050   38.0720 N   0  0  0  0  0  0  0  0  0  0  0  0
   40.2010   21.9470   38.5980 H   0  0  0  0  0  0  0  0  0  0  0  0
   39.4280   22.8640   36.7660 N   0  0  0  0  0  0  0  0  0  0  0  0
   36.0740   23.0600   31.5690 C   0  0  0  0  0  0  0  0  0  0  0  0
   35.4470   23.5790   32.3190 H   0  0  0  0  0  0  0  0  0  0  0  0
   35.6790   23.2440   30.5630 H   0  0  0  0  0  0  0  0  0  0  0  0
   35.4560   19.8820   33.4030 C   0  0  0  0  0  0  0  0  0  0  0  0
   35.6200   18.9170   32.4010 C   0  0  0  0  0  0  0  0  0  0  0  0
   35.9400   19.3610   31.1130 C   0  0  0  0  0  0  0  0  0  0  0  0
   36.0720   20.6940   30.9050 N   0  0  0  0  0  0  0  0  0  0  0  0
   35.9020   21.5870   31.9080 C   0  0  0  0  0  0  0  0  0  0  0  0
   35.5960   21.2080   33.1520 N   0  0  0  0  0  0  0  0  0  0  0  0
   35.2080   19.5480   34.4030 H   0  0  0  0  0  0  0  0  0  0  0  0
   35.5020   17.8700   32.6310 H   0  0  0  0  0  0  0  0  0  0  0  0
   36.0730   18.6380   30.3200 H   0  0  0  0  0  0  0  0  0  0  0  0
  1  3  1  0  0  0  0
  1  4  1  0  0  0  0
  2  1  1  0  0  0  0
  4  8  1  0  0  0  0
  5  4  2  0  0  0  0
  5  6  1  0  0  0  0
  6  7  1  0  0  0  0
  7 10  1  0  0  0  0
  8  7  2  0  0  0  0
  9  5  1  0  0  0  0
 10 17  2  0  0  0  0
 10 11  1  0  0  0  0
 11 12  1  0  0  0  0
 11 13  2  0  0  0  0
 13 14  1  0  0  0  0
 15 16  1  0  0  0  0
 15 13  1  0  0  0  0
 17 15  1  0  0  0  0
 18  1  1  0  0  0  0
 18 25  1  0  0  0  0
 18 19  1  0  0  0  0
 20 18  1  0  0  0  0
 21 27  1  0  0  0  0
 22 28  1  0  0  0  0
 22 21  2  0  0  0  0
 23 22  1  0  0  0  0
 24 23  2  0  0  0  0
 24 25  1  0  0  0  0
 25 26  2  0  0  0  0
 26 21  1  0  0  0  0
 29 23  1  0  0  0  0
M  END
>  <minimizedAffinity>
-4.97988272

$$$$

 OpenBabel03272506073D

 29 31  0  0  0  0  0  0  0  0999 V2000
   37.2410   27.9210   35.0510 C   0  0  0  0  0  0  0  0  0  0  0  0
   36.7440   28.0130   36.0380 H   0  0  0  0  0  0  0  0  0  0  0  0
   38.1420   28.5710   35.0990 H   0  0  0  0  0  0  0  0  0  0  0  0
   37.6720   26.4980   34.8230 C   0  0  0  0  0  0  0  0  0  0  0  0
   37.3930   25.8940   33.5340 C   0  0  0  0  0  0  0  0  0  0  0  0
   38.0690   24.2760   33.7740 S   0  0  0  0  0  0  0  0  0  0  0  0
   38.6250   24.6030   35.5210 C   0  0  0  0  0  0  0  0  0  0  0  0
   38.2830   25.7350   35.6930 N   0  0  0  0  0  0  0  0  0  0  0  0
   36.8980   26.3760   32.7030 H   0  0  0  0  0  0  0  0  0  0  0  0
   39.3170   23.6470   36.4210 C   0  0  0  0  0  0  0  0  0  0  0  0
   40.4320   22.8880   36.2630 C   0  0  0  0  0  0  0  0  0  0  0  0
   40.9250   22.9840   35.3070 H   0  0  0  0  0  0  0  0  0  0  0  0
   40.6030   22.1950   37.4200 C   0  0  0  0  0  0  0  0  0  0  0  0
   41.4540   21.5090   37.5200 H   0  0  0  0  0  0  0  0  0  0  0  0
   39.6070   22.5210   38.2860 N   0  0  0  0  0  0  0  0  0  0  0  0
   39.5760   22.0830   39.2330 H   0  0  0  0  0  0  0  0  0  0  0  0
   38.8220   23.4120   37.6650 N   0  0  0  0  0  0  0  0  0  0  0  0
   36.2790   28.3680   33.9980 C   0  0  0  0  0  0  0  0  0  0  0  0
   36.8480   28.8800   33.1980 H   0  0  0  0  0  0  0  0  0  0  0  0
   35.6570   27.5780   33.5640 H   0  0  0  0  0  0  0  0  0  0  0  0
   33.3010   30.4210   34.8710 C   0  0  0  0  0  0  0  0  0  0  0  0
   33.8620   31.4700   35.6090 C   0  0  0  0  0  0  0  0  0  0  0  0
   35.2490   31.4670   35.8000 C   0  0  0  0  0  0  0  0  0  0  0  0
   35.9700   30.4520   35.2630 N   0  0  0  0  0  0  0  0  0  0  0  0
   35.3790   29.4590   34.5580 C   0  0  0  0  0  0  0  0  0  0  0  0
   34.0600   29.4230   34.3510 N   0  0  0  0  0  0  0  0  0  0  0  0
   32.2290   30.4160   34.7180 H   0  0  0  0  0  0  0  0  0  0  0  0
   33.2340   32.2500   36.0090 H   0  0  0  0  0  0  0  0  0  0  0  0
   35.7100   32.2640   36.3650 H   0  0  0  0  0  0  0  0  0  0  0  0
  1  3  1  0  0  0  0
  1  2  1  0  0  0  0
  4  1  1  0  0  0  0
  4  8  1  0  0  0  0
  5  6  1  0  0  0  0
  5  4  2  0  0  0  0
  6  7  1  0  0  0  0
  7  8  2  0  0  0  0
  7 10  1  0  0  0  0
  9  5  1  0  0  0  0
 10 17  2  0  0  0  0
 11 10  1  0  0  0  0
 11 13  2  0  0  0  0
 12 11  1  0  0  0  0
 13 14  1  0  0  0  0
 13 15  1  0  0  0  0
 15 16  1  0  0  0  0
 17 15  1  0  0  0  0
 18 25  1  0  0  0  0
 18  1  1  0  0  0  0
 19 18  1  0  0  0  0
 20 18  1  0  0  0  0
 21 22  1  0  0  0  0
 22 23  2  0  0  0  0
 22 28  1  0  0  0  0
 23 29  1  0  0  0  0
 24 23  1  0  0  0  0
 25 24  2  0  0  0  0
 26 25  1  0  0  0  0
 26 21  2  0  0  0  0
 27 21  1  0  0  0  0
M  END
>  <minimizedAffinity>
-4.81984997

$$$$

 OpenBabel03272506073D

 29 31  0  0  0  0  0  0  0  0999 V2000
   37.8680   25.3790   32.0410 C   0  0  0  0  0  0  0  0  0  0  0  0
   38.4430   25.1120   31.1300 H   0  0  0  0  0  0  0  0  0  0  0  0
   36.8290   25.5790   31.7010 H   0  0  0  0  0  0  0  0  0  0  0  0
   37.8590   24.2190   33.0000 C   0  0  0  0  0  0  0  0  0  0  0  0
   37.4680   22.9160   32.4980 C   0  0  0  0  0  0  0  0  0  0  0  0
   37.6140   21.9390   33.9670 S   0  0  0  0  0  0  0  0  0  0  0  0
   38.1650   23.3600   35.0370 C   0  0  0  0  0  0  0  0  0  0  0  0
   38.1720   24.2740   34.2680 N   0  0  0  0  0  0  0  0  0  0  0  0
   37.1790   22.6900   31.4810 H   0  0  0  0  0  0  0  0  0  0  0  0
   38.4960   23.2990   36.4830 C   0  0  0  0  0  0  0  0  0  0  0  0
   37.9290   23.8740   37.5750 C   0  0  0  0  0  0  0  0  0  0  0  0
   37.0720   24.5000   37.3750 H   0  0  0  0  0  0  0  0  0  0  0  0
   38.6510   23.4670   38.6530 C   0  0  0  0  0  0  0  0  0  0  0  0
   38.3690   23.8150   39.6550 H   0  0  0  0  0  0  0  0  0  0  0  0
   39.6520   22.6490   38.2360 N   0  0  0  0  0  0  0  0  0  0  0  0
   40.3130   22.2380   38.9310 H   0  0  0  0  0  0  0  0  0  0  0  0
   39.5510   22.5500   36.9030 N   0  0  0  0  0  0  0  0  0  0  0  0
   38.5010   26.5830   32.6590 C   0  0  0  0  0  0  0  0  0  0  0  0
   38.8450   26.3150   33.6760 H   0  0  0  0  0  0  0  0  0  0  0  0
   39.3270   27.0250   32.0910 H   0  0  0  0  0  0  0  0  0  0  0  0
   35.9500   28.7540   34.2780 C   0  0  0  0  0  0  0  0  0  0  0  0
   35.5500   29.5880   33.2270 C   0  0  0  0  0  0  0  0  0  0  0  0
   36.1540   29.4010   31.9780 C   0  0  0  0  0  0  0  0  0  0  0  0
   37.0890   28.4270   31.8550 N   0  0  0  0  0  0  0  0  0  0  0  0
   37.4420   27.6480   32.9040 C   0  0  0  0  0  0  0  0  0  0  0  0
   36.8910   27.7920   34.1120 N   0  0  0  0  0  0  0  0  0  0  0  0
   35.4870   28.8920   35.2480 H   0  0  0  0  0  0  0  0  0  0  0  0
   34.7990   30.3450   33.3890 H   0  0  0  0  0  0  0  0  0  0  0  0
   35.8650   30.0300   31.1480 H   0  0  0  0  0  0  0  0  0  0  0  0
  1 18  1  0  0  0  0
  1  4  1  0  0  0  0
  2  1  1  0  0  0  0
  3  1  1  0  0  0  0
  4  8  1  0  0  0  0
  5  4  2  0  0  0  0
  5  6  1  0  0  0  0
  6  7  1  0  0  0  0
  7 10  1  0  0  0  0
  8  7  2  0  0  0  0
  9  5  1  0  0  0  0
 10 17  2  0  0  0  0
 10 11  1  0  0  0  0
 11 13  2  0  0  0  0
 12 11  1  0  0  0  0
 13 14  1  0  0  0  0
 15 13  1  0  0  0  0
 15 16  1  0  0  0  0
 17 15  1  0  0  0  0
 18 25  1  0  0  0  0
 18 19  1  0  0  0  0
 20 18  1  0  0  0  0
 21 27  1  0  0  0  0
 22 28  1  0  0  0  0
 22 21  2  0  0  0  0
 23 22  1  0  0  0  0
 24 23  2  0  0  0  0
 24 25  1  0  0  0  0
 25 26  2  0  0  0  0
 26 21  1  0  0  0  0
 29 23  1  0  0  0  0
M  END
>  <minimizedAffinity>
-4.69276047

$$$$

 OpenBabel03272506073D

 29 31  0  0  0  0  0  0  0  0999 V2000
   38.5520   25.0240   33.5780 C   0  0  0  0  0  0  0  0  0  0  0  0
   39.3390   24.2680   33.7750 H   0  0  0  0  0  0  0  0  0  0  0  0
   39.0410   25.8320   32.9920 H   0  0  0  0  0  0  0  0  0  0  0  0
   37.4500   24.4160   32.7540 C   0  0  0  0  0  0  0  0  0  0  0  0
   36.6250   25.2980   31.9530 C   0  0  0  0  0  0  0  0  0  0  0  0
   35.5190   24.1320   31.2100 S   0  0  0  0  0  0  0  0  0  0  0  0
   36.2820   22.6510   32.0420 C   0  0  0  0  0  0  0  0  0  0  0  0
   37.1560   23.1430   32.6920 N   0  0  0  0  0  0  0  0  0  0  0  0
   36.7260   26.3720   31.8850 H   0  0  0  0  0  0  0  0  0  0  0  0
   35.8550   21.2370   31.8920 C   0  0  0  0  0  0  0  0  0  0  0  0
   35.0690   20.4350   32.6540 C   0  0  0  0  0  0  0  0  0  0  0  0
   34.6660   20.8930   33.5450 H   0  0  0  0  0  0  0  0  0  0  0  0
   35.0210   19.2270   32.0330 C   0  0  0  0  0  0  0  0  0  0  0  0
   34.4350   18.4120   32.4760 H   0  0  0  0  0  0  0  0  0  0  0  0
   35.7690   19.2780   30.8980 N   0  0  0  0  0  0  0  0  0  0  0  0
   35.8490   18.4360   30.2880 H   0  0  0  0  0  0  0  0  0  0  0  0
   36.2770   20.5160   30.8190 N   0  0  0  0  0  0  0  0  0  0  0  0
   38.0330   25.5160   34.8910 C   0  0  0  0  0  0  0  0  0  0  0  0
   38.5150   26.4860   35.1170 H   0  0  0  0  0  0  0  0  0  0  0  0
   36.9440   25.6160   34.9590 H   0  0  0  0  0  0  0  0  0  0  0  0
   39.9520   22.9900   36.8370 C   0  0  0  0  0  0  0  0  0  0  0  0
   39.2990   23.0030   38.0770 C   0  0  0  0  0  0  0  0  0  0  0  0
   38.2130   23.8710   38.2340 C   0  0  0  0  0  0  0  0  0  0  0  0
   37.8540   24.6500   37.1840 N   0  0  0  0  0  0  0  0  0  0  0  0
   38.5180   24.6010   36.0060 C   0  0  0  0  0  0  0  0  0  0  0  0
   39.5590   23.7870   35.8120 N   0  0  0  0  0  0  0  0  0  0  0  0
   40.7930   22.3210   36.7070 H   0  0  0  0  0  0  0  0  0  0  0  0
   39.6340   22.3580   38.8730 H   0  0  0  0  0  0  0  0  0  0  0  0
   37.6900   23.9020   39.1800 H   0  0  0  0  0  0  0  0  0  0  0  0
  1  2  1  0  0  0  0
  1 18  1  0  0  0  0
  3  1  1  0  0  0  0
  4  1  1  0  0  0  0
  5  4  2  0  0  0  0
  6  5  1  0  0  0  0
  6  7  1  0  0  0  0
  7  8  2  0  0  0  0
  8  4  1  0  0  0  0
  9  5  1  0  0  0  0
 10  7  1  0  0  0  0
 10 11  1  0  0  0  0
 11 12  1  0  0  0  0
 13 14  1  0  0  0  0
 13 11  2  0  0  0  0
 15 13  1  0  0  0  0
 16 15  1  0  0  0  0
 17 15  1  0  0  0  0
 17 10  2  0  0  0  0
 18 20  1  0  0  0  0
 18 19  1  0  0  0  0
 18 25  1  0  0  0  0
 21 22  1  0  0  0  0
 22 23  2  0  0  0  0
 22 28  1  0  0  0  0
 23 29  1  0  0  0  0
 24 23  1  0  0  0  0
 25 24  2  0  0  0  0
 26 25  1  0  0  0  0
 26 21  2  0  0  0  0
 27 21  1  0  0  0  0
M  END
>  <minimizedAffinity>
-4.6835084

$$$$

 OpenBabel03272506073D

 29 31  0  0  0  0  0  0  0  0999 V2000
   37.5560   26.6900   35.0560 C   0  0  0  0  0  0  0  0  0  0  0  0
   38.3740   27.1880   35.6150 H   0  0  0  0  0  0  0  0  0  0  0  0
   36.6960   26.6290   35.7570 H   0  0  0  0  0  0  0  0  0  0  0  0
   37.1640   27.5240   33.8670 C   0  0  0  0  0  0  0  0  0  0  0  0
   36.1020   28.4980   34.0310 C   0  0  0  0  0  0  0  0  0  0  0  0
   36.0270   29.1830   32.4010 S   0  0  0  0  0  0  0  0  0  0  0  0
   37.3900   28.1100   31.7240 C   0  0  0  0  0  0  0  0  0  0  0  0
   37.6970   27.4530   32.6740 N   0  0  0  0  0  0  0  0  0  0  0  0
   35.5550   28.6900   34.9430 H   0  0  0  0  0  0  0  0  0  0  0  0
   37.9140   28.1200   30.3350 C   0  0  0  0  0  0  0  0  0  0  0  0
   39.1050   27.7370   29.8060 C   0  0  0  0  0  0  0  0  0  0  0  0
   39.8210   27.3480   30.5130 H   0  0  0  0  0  0  0  0  0  0  0  0
   39.0340   27.9720   28.4690 C   0  0  0  0  0  0  0  0  0  0  0  0
   39.8950   27.7350   27.8300 H   0  0  0  0  0  0  0  0  0  0  0  0
   37.8140   28.4930   28.1710 N   0  0  0  0  0  0  0  0  0  0  0  0
   37.5780   28.7380   27.1850 H   0  0  0  0  0  0  0  0  0  0  0  0
   37.1330   28.5810   29.3220 N   0  0  0  0  0  0  0  0  0  0  0  0
   38.0330   25.3380   34.6310 C   0  0  0  0  0  0  0  0  0  0  0  0
   37.1720   24.7760   34.2210 H   0  0  0  0  0  0  0  0  0  0  0  0
   38.8570   25.3350   33.9090 H   0  0  0  0  0  0  0  0  0  0  0  0
   38.1340   23.8640   38.0460 C   0  0  0  0  0  0  0  0  0  0  0  0
   39.2690   23.0460   37.9890 C   0  0  0  0  0  0  0  0  0  0  0  0
   39.9870   23.0060   36.7890 C   0  0  0  0  0  0  0  0  0  0  0  0
   39.5460   23.7580   35.7500 N   0  0  0  0  0  0  0  0  0  0  0  0
   38.4410   24.5330   35.8550 C   0  0  0  0  0  0  0  0  0  0  0  0
   37.7270   24.6000   36.9820 N   0  0  0  0  0  0  0  0  0  0  0  0
   37.5720   23.9010   38.9720 H   0  0  0  0  0  0  0  0  0  0  0  0
   39.5680   22.4720   38.8520 H   0  0  0  0  0  0  0  0  0  0  0  0
   40.8670   22.3830   36.7160 H   0  0  0  0  0  0  0  0  0  0  0  0
  1  2  1  0  0  0  0
  1  3  1  0  0  0  0
  4  5  2  0  0  0  0
  4  1  1  0  0  0  0
  5  9  1  0  0  0  0
  6  5  1  0  0  0  0
  7  6  1  0  0  0  0
  7  8  2  0  0  0  0
  8  4  1  0  0  0  0
 10  7  1  0  0  0  0
 11 10  1  0  0  0  0
 11 12  1  0  0  0  0
 13 11  2  0  0  0  0
 14 13  1  0  0  0  0
 15 13  1  0  0  0  0
 15 17  1  0  0  0  0
 16 15  1  0  0  0  0
 17 10  2  0  0  0  0
 18  1  1  0  0  0  0
 18 25  1  0  0  0  0
 19 18  1  0  0  0  0
 20 18  1  0  0  0  0
 21 27  1  0  0  0  0
 22 21  1  0  0  0  0
 22 28  1  0  0  0  0
 23 22  2  0  0  0  0
 24 25  2  0  0  0  0
 24 23  1  0  0  0  0
 25 26  1  0  0  0  0
 26 21  2  0  0  0  0
 29 23  1  0  0  0  0
M  END
>  <minimizedAffinity>
-4.54820395

$$$$

 OpenBabel03272506073D

 29 31  0  0  0  0  0  0  0  0999 V2000
   38.4280   23.0650   33.5830 C   0  0  0  0  0  0  0  0  0  0  0  0
   37.8990   22.4200   34.3130 H   0  0  0  0  0  0  0  0  0  0  0  0
   39.0080   22.3770   32.9300 H   0  0  0  0  0  0  0  0  0  0  0  0
   37.4310   23.8170   32.7440 C   0  0  0  0  0  0  0  0  0  0  0  0
   36.4520   23.0540   31.9930 C   0  0  0  0  0  0  0  0  0  0  0  0
   35.5550   24.3580   31.2010 S   0  0  0  0  0  0  0  0  0  0  0  0
   36.5750   25.7220   31.9540 C   0  0  0  0  0  0  0  0  0  0  0  0
   37.3620   25.1170   32.6200 N   0  0  0  0  0  0  0  0  0  0  0  0
   36.3640   21.9770   31.9780 H   0  0  0  0  0  0  0  0  0  0  0  0
   36.3990   27.1800   31.7360 C   0  0  0  0  0  0  0  0  0  0  0  0
   36.2810   28.2240   32.5960 C   0  0  0  0  0  0  0  0  0  0  0  0
   36.3210   27.9670   33.6430 H   0  0  0  0  0  0  0  0  0  0  0  0
   36.1410   29.3430   31.8370 C   0  0  0  0  0  0  0  0  0  0  0  0
   36.0280   30.3190   32.3270 H   0  0  0  0  0  0  0  0  0  0  0  0
   36.1730   28.9990   30.5230 N   0  0  0  0  0  0  0  0  0  0  0  0
   36.0780   29.7340   29.7890 H   0  0  0  0  0  0  0  0  0  0  0  0
   36.3310   27.6690   30.4690 N   0  0  0  0  0  0  0  0  0  0  0  0
   39.3120   24.0040   34.3380 C   0  0  0  0  0  0  0  0  0  0  0  0
   40.3660   23.7320   34.1370 H   0  0  0  0  0  0  0  0  0  0  0  0
   39.1560   25.0680   34.1290 H   0  0  0  0  0  0  0  0  0  0  0  0
   39.8440   22.8140   37.8240 C   0  0  0  0  0  0  0  0  0  0  0  0
   38.7720   23.3970   38.5100 C   0  0  0  0  0  0  0  0  0  0  0  0
   37.8790   24.1880   37.7770 C   0  0  0  0  0  0  0  0  0  0  0  0
   38.1020   24.3470   36.4490 N   0  0  0  0  0  0  0  0  0  0  0  0
   39.1540   23.7620   35.8320 C   0  0  0  0  0  0  0  0  0  0  0  0
   40.0290   22.9990   36.4930 N   0  0  0  0  0  0  0  0  0  0  0  0
   40.5390   22.1990   38.3830 H   0  0  0  0  0  0  0  0  0  0  0  0
   38.6500   23.2310   39.5680 H   0  0  0  0  0  0  0  0  0  0  0  0
   37.0420   24.6520   38.2810 H   0  0  0  0  0  0  0  0  0  0  0  0
  1  2  1  0  0  0  0
  1 18  1  0  0  0  0
  3  1  1  0  0  0  0
  4  1  1  0  0  0  0
  5  4  2  0  0  0  0
  6  7  1  0  0  0  0
  6  5  1  0  0  0  0
  7  8  2  0  0  0  0
  8  4  1  0  0  0  0
  9  5  1  0  0  0  0
 10  7  1  0  0  0  0
 10 11  1  0  0  0  0
 11 12  1  0  0  0  0
 13 14  1  0  0  0  0
 13 11  2  0  0  0  0
 15 13  1  0  0  0  0
 16 15  1  0  0  0  0
 17 15  1  0  0  0  0
 17 10  2  0  0  0  0
 18 25  1  0  0  0  0
 19 18  1  0  0  0  0
 20 18  1  0  0  0  0
 21 27  1  0  0  0  0
 21 22  1  0  0  0  0
 22 28  1  0  0  0  0
 23 29  1  0  0  0  0
 23 22  2  0  0  0  0
 24 23  1  0  0  0  0
 25 24  2  0  0  0  0
 25 26  1  0  0  0  0
 26 21  2  0  0  0  0
M  END
>  <minimizedAffinity>
-4.52818918

$$$$

 OpenBabel03272506073D

 29 31  0  0  0  0  0  0  0  0999 V2000
   37.0070   26.2960   32.5490 C   0  0  0  0  0  0  0  0  0  0  0  0
   36.0360   25.9030   32.9150 H   0  0  0  0  0  0  0  0  0  0  0  0
   36.9050   27.4030   32.5350 H   0  0  0  0  0  0  0  0  0  0  0  0
   38.1070   25.9150   33.5020 C   0  0  0  0  0  0  0  0  0  0  0  0
   39.4620   26.3190   33.1820 C   0  0  0  0  0  0  0  0  0  0  0  0
   40.3420   25.6450   34.5630 S   0  0  0  0  0  0  0  0  0  0  0  0
   38.8250   24.9270   35.3710 C   0  0  0  0  0  0  0  0  0  0  0  0
   37.9570   25.2370   34.6110 N   0  0  0  0  0  0  0  0  0  0  0  0
   39.7670   26.8810   32.3110 H   0  0  0  0  0  0  0  0  0  0  0  0
   38.7800   24.1680   36.6460 C   0  0  0  0  0  0  0  0  0  0  0  0
   37.9880   24.2730   37.7430 C   0  0  0  0  0  0  0  0  0  0  0  0
   37.2410   25.0520   37.7020 H   0  0  0  0  0  0  0  0  0  0  0  0
   38.3960   23.3130   38.6150 C   0  0  0  0  0  0  0  0  0  0  0  0
   37.8900   23.2110   39.5840 H   0  0  0  0  0  0  0  0  0  0  0  0
   39.4280   22.6200   38.0660 N   0  0  0  0  0  0  0  0  0  0  0  0
   39.8720   21.8380   38.5950 H   0  0  0  0  0  0  0  0  0  0  0  0
   39.6580   23.1510   36.8560 N   0  0  0  0  0  0  0  0  0  0  0  0
   37.2570   25.7360   31.1860 C   0  0  0  0  0  0  0  0  0  0  0  0
   36.4840   26.1290   30.4990 H   0  0  0  0  0  0  0  0  0  0  0  0
   38.2540   25.9270   30.7740 H   0  0  0  0  0  0  0  0  0  0  0  0
   35.6490   22.4040   31.5900 C   0  0  0  0  0  0  0  0  0  0  0  0
   36.6590   21.5280   31.1750 C   0  0  0  0  0  0  0  0  0  0  0  0
   37.8770   22.0820   30.7640 C   0  0  0  0  0  0  0  0  0  0  0  0
   38.0110   23.4310   30.7880 N   0  0  0  0  0  0  0  0  0  0  0  0
   37.0020   24.2360   31.1970 C   0  0  0  0  0  0  0  0  0  0  0  0
   35.8250   23.7490   31.5980 N   0  0  0  0  0  0  0  0  0  0  0  0
   34.7030   21.9840   31.9100 H   0  0  0  0  0  0  0  0  0  0  0  0
   36.4900   20.4630   31.1800 H   0  0  0  0  0  0  0  0  0  0  0  0
   38.6750   21.4290   30.4380 H   0  0  0  0  0  0  0  0  0  0  0  0
  1  2  1  0  0  0  0
  1  4  1  0  0  0  0
  3  1  1  0  0  0  0
  4  8  1  0  0  0  0
  5  4  2  0  0  0  0
  5  6  1  0  0  0  0
  6  7  1  0  0  0  0
  7 10  1  0  0  0  0
  8  7  2  0  0  0  0
  9  5  1  0  0  0  0
 10 17  2  0  0  0  0
 10 11  1  0  0  0  0
 11 13  2  0  0  0  0
 12 11  1  0  0  0  0
 13 14  1  0  0  0  0
 15 16  1  0  0  0  0
 15 13  1  0  0  0  0
 17 15  1  0  0  0  0
 18 25  1  0  0  0  0
 18  1  1  0  0  0  0
 19 18  1  0  0  0  0
 20 18  1  0  0  0  0
 21 26  1  0  0  0  0
 21 27  1  0  0  0  0
 22 28  1  0  0  0  0
 22 21  2  0  0  0  0
 23 24  2  0  0  0  0
 23 22  1  0  0  0  0
 24 25  1  0  0  0  0
 25 26  2  0  0  0  0
 29 23  1  0  0  0  0
M  END
>  <minimizedAffinity>
-4.50962687

$$$$

 OpenBabel03272506073D

 29 31  0  0  0  0  0  0  0  0999 V2000
   36.8350   25.7570   32.5460 C   0  0  0  0  0  0  0  0  0  0  0  0
   36.3420   24.7680   32.4450 H   0  0  0  0  0  0  0  0  0  0  0  0
   36.0250   26.5140   32.4680 H   0  0  0  0  0  0  0  0  0  0  0  0
   37.4860   25.8700   33.8970 C   0  0  0  0  0  0  0  0  0  0  0  0
   37.5510   27.1780   34.5210 C   0  0  0  0  0  0  0  0  0  0  0  0
   38.3840   26.7820   36.0320 S   0  0  0  0  0  0  0  0  0  0  0  0
   38.5360   24.9660   35.6480 C   0  0  0  0  0  0  0  0  0  0  0  0
   38.0140   24.8850   34.5760 N   0  0  0  0  0  0  0  0  0  0  0  0
   37.1670   28.0980   34.1040 H   0  0  0  0  0  0  0  0  0  0  0  0
   39.1640   23.9320   36.5080 C   0  0  0  0  0  0  0  0  0  0  0  0
   40.2670   23.1570   36.3470 C   0  0  0  0  0  0  0  0  0  0  0  0
   40.8050   23.3060   35.4220 H   0  0  0  0  0  0  0  0  0  0  0  0
   40.3700   22.3830   37.4590 C   0  0  0  0  0  0  0  0  0  0  0  0
   41.1990   21.6690   37.5480 H   0  0  0  0  0  0  0  0  0  0  0  0
   39.3440   22.6740   38.3020 N   0  0  0  0  0  0  0  0  0  0  0  0
   39.2590   22.1730   39.2130 H   0  0  0  0  0  0  0  0  0  0  0  0
   38.6080   23.6260   37.7110 N   0  0  0  0  0  0  0  0  0  0  0  0
   37.8420   25.8940   31.4500 C   0  0  0  0  0  0  0  0  0  0  0  0
   38.8450   25.9980   31.9070 H   0  0  0  0  0  0  0  0  0  0  0  0
   37.8510   25.0820   30.7140 H   0  0  0  0  0  0  0  0  0  0  0  0
   36.4730   29.1850   30.3810 C   0  0  0  0  0  0  0  0  0  0  0  0
   37.3560   29.5650   29.3630 C   0  0  0  0  0  0  0  0  0  0  0  0
   38.4080   28.6950   29.0520 C   0  0  0  0  0  0  0  0  0  0  0  0
   38.5140   27.5380   29.7510 N   0  0  0  0  0  0  0  0  0  0  0  0
   37.6340   27.2170   30.7270 C   0  0  0  0  0  0  0  0  0  0  0  0
   36.6160   28.0170   31.0560 N   0  0  0  0  0  0  0  0  0  0  0  0
   35.6560   29.8520   30.6280 H   0  0  0  0  0  0  0  0  0  0  0  0
   37.2170   30.4990   28.8440 H   0  0  0  0  0  0  0  0  0  0  0  0
   39.1060   28.9620   28.2710 H   0  0  0  0  0  0  0  0  0  0  0  0
  1  4  1  0  0  0  0
  2  1  1  0  0  0  0
  3  1  1  0  0  0  0
  4  5  2  0  0  0  0
  4  8  1  0  0  0  0
  5  6  1  0  0  0  0
  7  6  1  0  0  0  0
  7 10  1  0  0  0  0
  8  7  2  0  0  0  0
  9  5  1  0  0  0  0
 10 17  2  0  0  0  0
 11 10  1  0  0  0  0
 11 13  2  0  0  0  0
 12 11  1  0  0  0  0
 13 14  1  0  0  0  0
 13 15  1  0  0  0  0
 15 16  1  0  0  0  0
 17 15  1  0  0  0  0
 18 19  1  0  0  0  0
 18  1  1  0  0  0  0
 20 18  1  0  0  0  0
 21 27  1  0  0  0  0
 21 26  1  0  0  0  0
 22 21  2  0  0  0  0
 23 22  1  0  0  0  0
 23 24  2  0  0  0  0
 24 25  1  0  0  0  0
 25 26  2  0  0  0  0
 25 18  1  0  0  0  0
 28 22  1  0  0  0  0
 29 23  1  0  0  0  0
M  END
>  <minimizedAffinity>
-4.49115562

$$$$

 OpenBabel03272506073D

 29 31  0  0  0  0  0  0  0  0999 V2000
   37.1960   26.6550   33.2940 C   0  0  0  0  0  0  0  0  0  0  0  0
   36.4490   25.8860   33.5780 H   0  0  0  0  0  0  0  0  0  0  0  0
   37.5680   26.3670   32.2880 H   0  0  0  0  0  0  0  0  0  0  0  0
   36.5350   28.0040   33.2070 C   0  0  0  0  0  0  0  0  0  0  0  0
   36.3340   28.5860   31.8940 C   0  0  0  0  0  0  0  0  0  0  0  0
   35.5560   30.1160   32.3270 S   0  0  0  0  0  0  0  0  0  0  0  0
   35.5950   29.7910   34.1600 C   0  0  0  0  0  0  0  0  0  0  0  0
   36.1180   28.7190   34.2210 N   0  0  0  0  0  0  0  0  0  0  0  0
   36.6160   28.1370   30.9530 H   0  0  0  0  0  0  0  0  0  0  0  0
   35.0860   30.6890   35.2270 C   0  0  0  0  0  0  0  0  0  0  0  0
   33.8290   31.0200   35.6190 C   0  0  0  0  0  0  0  0  0  0  0  0
   33.0320   30.5510   35.0610 H   0  0  0  0  0  0  0  0  0  0  0  0
   33.9560   31.8920   36.6540 C   0  0  0  0  0  0  0  0  0  0  0  0
   33.0570   32.2970   37.1350 H   0  0  0  0  0  0  0  0  0  0  0  0
   35.2770   32.0990   36.9030 N   0  0  0  0  0  0  0  0  0  0  0  0
   35.5680   32.7440   37.6700 H   0  0  0  0  0  0  0  0  0  0  0  0
   35.9630   31.3570   36.0230 N   0  0  0  0  0  0  0  0  0  0  0  0
   38.2840   26.6550   34.3200 C   0  0  0  0  0  0  0  0  0  0  0  0
   39.2550   26.5510   33.7990 H   0  0  0  0  0  0  0  0  0  0  0  0
   38.3080   27.5280   34.9810 H   0  0  0  0  0  0  0  0  0  0  0  0
   38.0140   24.3180   37.2020 C   0  0  0  0  0  0  0  0  0  0  0  0
   38.0250   23.0640   36.5780 C   0  0  0  0  0  0  0  0  0  0  0  0
   38.1250   23.0300   35.1830 C   0  0  0  0  0  0  0  0  0  0  0  0
   38.2040   24.2060   34.5140 N   0  0  0  0  0  0  0  0  0  0  0  0
   38.1890   25.3930   35.1640 C   0  0  0  0  0  0  0  0  0  0  0  0
   38.0950   25.4720   36.4950 N   0  0  0  0  0  0  0  0  0  0  0  0
   37.9380   24.3530   38.2820 H   0  0  0  0  0  0  0  0  0  0  0  0
   37.9590   22.1630   37.1670 H   0  0  0  0  0  0  0  0  0  0  0  0
   38.1350   22.0760   34.6740 H   0  0  0  0  0  0  0  0  0  0  0  0
  1  2  1  0  0  0  0
  1 18  1  0  0  0  0
  3  1  1  0  0  0  0
  4  1  1  0  0  0  0
  4  8  1  0  0  0  0
  5  6  1  0  0  0  0
  5  4  2  0  0  0  0
  6  7  1  0  0  0  0
  7  8  2  0  0  0  0
  7 10  1  0  0  0  0
  9  5  1  0  0  0  0
 10 11  1  0  0  0  0
 10 17  2  0  0  0  0
 11 13  2  0  0  0  0
 12 11  1  0  0  0  0
 13 15  1  0  0  0  0
 13 14  1  0  0  0  0
 15 16  1  0  0  0  0
 17 15  1  0  0  0  0
 18 20  1  0  0  0  0
 18 25  1  0  0  0  0
 19 18  1  0  0  0  0
 21 27  1  0  0  0  0
 22 28  1  0  0  0  0
 22 21  1  0  0  0  0
 23 22  2  0  0  0  0
 24 25  2  0  0  0  0
 24 23  1  0  0  0  0
 25 26  1  0  0  0  0
 26 21  2  0  0  0  0
 29 23  1  0  0  0  0
M  END
>  <minimizedAffinity>
-4.48602915

$$$$
