
 OpenBabel03272510323D

 27 29  0  0  0  0  0  0  0  0999 V2000
   36.1160   30.4010   46.6260 C   0  0  0  0  0  0  0  0  0  0  0  0
   35.4190   30.2050   45.4610 C   0  0  0  0  0  0  0  0  0  0  0  0
   34.1240   29.7240   45.4820 C   0  0  0  0  0  0  0  0  0  0  0  0
   33.5470   29.4430   46.6920 C   0  0  0  0  0  0  0  0  0  0  0  0
   34.2290   29.6320   47.8990 C   0  0  0  0  0  0  0  0  0  0  0  0
   35.5300   30.1170   47.8550 C   0  0  0  0  0  0  0  0  0  0  0  0
   35.8460   30.4170   44.4940 H   0  0  0  0  0  0  0  0  0  0  0  0
   33.5210   29.5470   44.6190 H   0  0  0  0  0  0  0  0  0  0  0  0
   32.5410   29.0640   46.8090 H   0  0  0  0  0  0  0  0  0  0  0  0
   33.7790   29.4130   48.8550 H   0  0  0  0  0  0  0  0  0  0  0  0
   38.9930   32.5950   47.0630 C   0  0  0  0  0  0  0  0  0  0  0  0
   40.0250   31.9550   46.3840 C   0  0  0  0  0  0  0  0  0  0  0  0
   39.7140   30.7180   45.7500 C   0  0  0  0  0  0  0  0  0  0  0  0
   38.4470   30.2580   45.8540 N   0  0  0  0  0  0  0  0  0  0  0  0
   37.4720   30.9060   46.5220 C   0  0  0  0  0  0  0  0  0  0  0  0
   37.7700   32.0710   47.1160 N   0  0  0  0  0  0  0  0  0  0  0  0
   39.2900   33.5280   47.5220 H   0  0  0  0  0  0  0  0  0  0  0  0
   41.0500   32.2630   46.2610 H   0  0  0  0  0  0  0  0  0  0  0  0
   40.3950   30.0950   45.1840 H   0  0  0  0  0  0  0  0  0  0  0  0
   36.2640   30.3250   49.0990 C   0  0  0  0  0  0  0  0  0  0  0  0
   36.7630   29.1620   49.6950 C   0  0  0  0  0  0  0  0  0  0  0  0
   36.7590   28.1050   49.4850 H   0  0  0  0  0  0  0  0  0  0  0  0
   37.4250   29.5500   50.8560 C   0  0  0  0  0  0  0  0  0  0  0  0
   37.9680   28.9980   51.6380 H   0  0  0  0  0  0  0  0  0  0  0  0
   37.3090   30.8990   50.9250 N   0  0  0  0  0  0  0  0  0  0  0  0
   37.6820   31.5500   51.6610 H   0  0  0  0  0  0  0  0  0  0  0  0
   36.6180   31.3580   49.8780 N   0  0  0  0  0  0  0  0  0  0  0  0
  1  6  1  0  0  0  0
  2  3  1  0  0  0  0
  2  1  2  0  0  0  0
  3  4  2  0  0  0  0
  4  9  1  0  0  0  0
  4  5  1  0  0  0  0
  5 10  1  0  0  0  0
  6  5  2  0  0  0  0
  6 20  1  0  0  0  0
  7  2  1  0  0  0  0
  8  3  1  0  0  0  0
 11 16  1  0  0  0  0
 11 17  1  0  0  0  0
 12 11  2  0  0  0  0
 13 14  2  0  0  0  0
 13 12  1  0  0  0  0
 14 15  1  0  0  0  0
 15  1  1  0  0  0  0
 15 16  2  0  0  0  0
 18 12  1  0  0  0  0
 19 13  1  0  0  0  0
 20 21  1  0  0  0  0
 20 27  2  0  0  0  0
 21 23  2  0  0  0  0
 22 21  1  0  0  0  0
 23 25  1  0  0  0  0
 23 24  1  0  0  0  0
 25 26  1  0  0  0  0
 27 25  1  0  0  0  0
M  END
>  <minimizedAffinity>
-4.97163916

>  <minimizedRMSD>
2.30644083

$$$$
