
 OpenBabel03272509143D

 39 42  0  0  1  0  0  0  0  0999 V2000
   39.8090   23.1620   33.7020 N   0  0  0  0  0  0  0  0  0  0  0  0
   39.0450   22.9970   32.4490 C   0  0  0  0  0  0  0  0  0  0  0  0
   37.6090   23.0470   32.9540 C   0  0  0  0  0  0  0  0  0  0  0  0
   37.6870   22.3340   34.2760 C   0  0  0  0  0  0  0  0  0  0  0  0
   39.1680   22.1460   34.5280 C   0  0  2  0  0  0  0  0  0  0  0  0
   39.2170   23.8610   31.8120 H   0  0  0  0  0  0  0  0  0  0  0  0
   39.2690   22.0320   31.9750 H   0  0  0  0  0  0  0  0  0  0  0  0
   37.3550   24.1040   33.1800 H   0  0  0  0  0  0  0  0  0  0  0  0
   36.8950   22.5910   32.2420 H   0  0  0  0  0  0  0  0  0  0  0  0
   37.2560   21.3060   34.0980 H   0  0  0  0  0  0  0  0  0  0  0  0
   37.1420   22.8390   35.0680 H   0  0  0  0  0  0  0  0  0  0  0  0
   39.5310   21.1350   34.2980 H   0  0  0  0  0  0  0  0  0  0  0  0
   42.1000   23.2910   34.3760 C   0  0  0  0  0  0  0  0  0  0  0  0
   40.8630   23.9750   34.1930 C   0  0  0  0  0  0  0  0  0  0  0  0
   40.8140   25.3310   34.5200 C   0  0  0  0  0  0  0  0  0  0  0  0
   41.9430   25.9270   34.9950 N   0  0  0  0  0  0  0  0  0  0  0  0
   43.0950   25.2480   35.1550 C   0  0  0  0  0  0  0  0  0  0  0  0
   43.1690   23.9430   34.8470 N   0  0  0  0  0  0  0  0  0  0  0  0
   42.2070   22.2420   34.1370 H   0  0  0  0  0  0  0  0  0  0  0  0
   43.9860   25.7380   35.5350 H   0  0  0  0  0  0  0  0  0  0  0  0
   39.6120   26.1030   34.3650 C   0  0  0  0  0  0  0  0  0  0  0  0
   38.9130   26.4590   35.4960 C   0  0  0  0  0  0  0  0  0  0  0  0
   37.7470   27.2010   35.4450 C   0  0  0  0  0  0  0  0  0  0  0  0
   37.2930   27.5860   34.1930 C   0  0  0  0  0  0  0  0  0  0  0  0
   37.9540   27.2570   33.0140 C   0  0  0  0  0  0  0  0  0  0  0  0
   39.1270   26.5040   33.1460 C   0  0  0  0  0  0  0  0  0  0  0  0
   39.2730   26.1550   36.4720 H   0  0  0  0  0  0  0  0  0  0  0  0
   37.2170   27.4680   36.3450 H   0  0  0  0  0  0  0  0  0  0  0  0
   36.3780   28.1650   34.1880 H   0  0  0  0  0  0  0  0  0  0  0  0
   37.5790   27.5690   32.0610 H   0  0  0  0  0  0  0  0  0  0  0  0
   39.6790   26.2240   32.2450 H   0  0  0  0  0  0  0  0  0  0  0  0
   39.3380   22.4900   35.9770 C   0  0  0  0  0  0  0  0  0  0  0  0
   38.8080   23.3470   36.8810 C   0  0  0  0  0  0  0  0  0  0  0  0
   38.0220   24.0150   36.5250 H   0  0  0  0  0  0  0  0  0  0  0  0
   39.4120   23.1760   38.1110 C   0  0  0  0  0  0  0  0  0  0  0  0
   39.1490   23.7510   38.9760 H   0  0  0  0  0  0  0  0  0  0  0  0
   40.3120   22.1950   37.9080 N   0  0  0  0  0  0  0  0  0  0  0  0
   40.9350   21.8380   38.6730 H   0  0  0  0  0  0  0  0  0  0  0  0
   40.2850   21.7740   36.6540 N   0  0  0  0  0  0  0  0  0  0  0  0
  1 14  1  0  0  0  0
  1  5  1  0  0  0  0
  2  3  1  0  0  0  0
  2  1  1  0  0  0  0
  3  8  1  0  0  0  0
  3  4  1  0  0  0  0
  4  5  1  0  0  0  0
  4 11  1  0  0  0  0
  5 12  1  6  0  0  0
  5 32  1  0  0  0  0
  6  2  1  0  0  0  0
  7  2  1  0  0  0  0
  9  3  1  0  0  0  0
 10  4  1  0  0  0  0
 13 18  1  0  0  0  0
 14 13  2  0  0  0  0
 14 15  1  0  0  0  0
 15 16  2  0  0  0  0
 16 17  1  0  0  0  0
 17 20  1  0  0  0  0
 18 17  2  0  0  0  0
 19 13  1  0  0  0  0
 21 15  1  0  0  0  0
 21 22  1  0  0  0  0
 22 27  1  0  0  0  0
 23 22  2  0  0  0  0
 23 28  1  0  0  0  0
 24 23  1  0  0  0  0
 25 26  1  0  0  0  0
 25 24  2  0  0  0  0
 26 21  2  0  0  0  0
 29 24  1  0  0  0  0
 30 25  1  0  0  0  0
 31 26  1  0  0  0  0
 32 39  2  0  0  0  0
 32 33  1  0  0  0  0
 33 35  2  0  0  0  0
 34 33  1  0  0  0  0
 35 36  1  0  0  0  0
 37 35  1  0  0  0  0
 37 38  1  0  0  0  0
 39 37  1  0  0  0  0
M  END
>  <minimizedAffinity>
-5.28811693

$$$$

 OpenBabel03272509143D

 39 42  0  0  1  0  0  0  0  0999 V2000
   39.7970   25.8490   33.8950 N   0  0  0  0  0  0  0  0  0  0  0  0
   40.1780   26.7750   34.9800 C   0  0  0  0  0  0  0  0  0  0  0  0
   38.8160   27.2180   35.5000 C   0  0  0  0  0  0  0  0  0  0  0  0
   37.9840   27.3000   34.2500 C   0  0  0  0  0  0  0  0  0  0  0  0
   38.8450   26.6830   33.1700 C   0  0  2  0  0  0  0  0  0  0  0  0
   40.6810   26.2150   35.7640 H   0  0  0  0  0  0  0  0  0  0  0  0
   40.7520   27.6250   34.5890 H   0  0  0  0  0  0  0  0  0  0  0  0
   38.3920   26.3940   36.1100 H   0  0  0  0  0  0  0  0  0  0  0  0
   38.8700   28.1690   36.0650 H   0  0  0  0  0  0  0  0  0  0  0  0
   37.8980   28.3990   34.0090 H   0  0  0  0  0  0  0  0  0  0  0  0
   36.9970   26.8610   34.3640 H   0  0  0  0  0  0  0  0  0  0  0  0
   39.3460   27.4210   32.5280 H   0  0  0  0  0  0  0  0  0  0  0  0
   40.6580   24.4360   32.1680 C   0  0  0  0  0  0  0  0  0  0  0  0
   40.1080   24.5280   33.4800 C   0  0  0  0  0  0  0  0  0  0  0  0
   39.9230   23.3430   34.1930 C   0  0  0  0  0  0  0  0  0  0  0  0
   40.2760   22.1670   33.6040 N   0  0  0  0  0  0  0  0  0  0  0  0
   40.7930   22.1190   32.3620 C   0  0  0  0  0  0  0  0  0  0  0  0
   40.9810   23.2440   31.6540 N   0  0  0  0  0  0  0  0  0  0  0  0
   40.8310   25.3160   31.5640 H   0  0  0  0  0  0  0  0  0  0  0  0
   41.0690   21.1730   31.9050 H   0  0  0  0  0  0  0  0  0  0  0  0
   39.3790   23.3390   35.5240 C   0  0  0  0  0  0  0  0  0  0  0  0
   40.2160   23.0310   36.5720 C   0  0  0  0  0  0  0  0  0  0  0  0
   39.7810   23.0020   37.8840 C   0  0  0  0  0  0  0  0  0  0  0  0
   38.4470   23.3000   38.1190 C   0  0  0  0  0  0  0  0  0  0  0  0
   37.5530   23.6180   37.1020 C   0  0  0  0  0  0  0  0  0  0  0  0
   38.0660   23.6260   35.8000 C   0  0  0  0  0  0  0  0  0  0  0  0
   41.2570   22.7990   36.3820 H   0  0  0  0  0  0  0  0  0  0  0  0
   40.4550   22.7580   38.6890 H   0  0  0  0  0  0  0  0  0  0  0  0
   38.1400   23.2690   39.1570 H   0  0  0  0  0  0  0  0  0  0  0  0
   36.5280   23.8440   37.3140 H   0  0  0  0  0  0  0  0  0  0  0  0
   37.3970   23.8720   34.9710 H   0  0  0  0  0  0  0  0  0  0  0  0
   37.8970   25.8150   32.3980 C   0  0  0  0  0  0  0  0  0  0  0  0
   36.9650   24.8660   32.6480 C   0  0  0  0  0  0  0  0  0  0  0  0
   36.7990   24.6010   33.6940 H   0  0  0  0  0  0  0  0  0  0  0  0
   36.4060   24.4230   31.4650 C   0  0  0  0  0  0  0  0  0  0  0  0
   35.6440   23.6710   31.4240 H   0  0  0  0  0  0  0  0  0  0  0  0
   37.0330   25.1380   30.5120 N   0  0  0  0  0  0  0  0  0  0  0  0
   36.8180   25.0220   29.4910 H   0  0  0  0  0  0  0  0  0  0  0  0
   37.9180   25.9670   31.0400 N   0  0  0  0  0  0  0  0  0  0  0  0
  1  2  1  0  0  0  0
  2  3  1  0  0  0  0
  2  6  1  0  0  0  0
  3  9  1  0  0  0  0
  3  8  1  0  0  0  0
  4 11  1  0  0  0  0
  4  3  1  0  0  0  0
  5 12  1  6  0  0  0
  5  1  1  0  0  0  0
  5  4  1  0  0  0  0
  7  2  1  0  0  0  0
 10  4  1  0  0  0  0
 13 14  1  0  0  0  0
 14  1  1  0  0  0  0
 14 15  2  0  0  0  0
 15 21  1  0  0  0  0
 16 15  1  0  0  0  0
 17 16  2  0  0  0  0
 18 13  2  0  0  0  0
 18 17  1  0  0  0  0
 19 13  1  0  0  0  0
 20 17  1  0  0  0  0
 21 26  2  0  0  0  0
 21 22  1  0  0  0  0
 22 23  2  0  0  0  0
 23 24  1  0  0  0  0
 23 28  1  0  0  0  0
 24 29  1  0  0  0  0
 25 30  1  0  0  0  0
 25 24  2  0  0  0  0
 26 25  1  0  0  0  0
 27 22  1  0  0  0  0
 31 26  1  0  0  0  0
 32 33  1  0  0  0  0
 32  5  1  0  0  0  0
 33 34  1  0  0  0  0
 35 33  2  0  0  0  0
 36 35  1  0  0  0  0
 37 39  1  0  0  0  0
 37 35  1  0  0  0  0
 38 37  1  0  0  0  0
 39 32  2  0  0  0  0
M  END
>  <minimizedAffinity>
-5.1148386

$$$$

 OpenBabel03272509143D

 39 42  0  0  1  0  0  0  0  0999 V2000
   39.1450   22.7740   34.6100 N   0  0  0  0  0  0  0  0  0  0  0  0
   39.6000   21.7400   33.6600 C   0  0  0  0  0  0  0  0  0  0  0  0
   40.5880   22.5220   32.8020 C   0  0  0  0  0  0  0  0  0  0  0  0
   39.9490   23.8800   32.7000 C   0  0  0  0  0  0  0  0  0  0  0  0
   38.7960   23.8410   33.6790 C   0  0  2  0  0  0  0  0  0  0  0  0
   40.1470   20.9740   34.2040 H   0  0  0  0  0  0  0  0  0  0  0  0
   38.7630   21.3600   33.0590 H   0  0  0  0  0  0  0  0  0  0  0  0
   41.5240   22.6560   33.3830 H   0  0  0  0  0  0  0  0  0  0  0  0
   40.7700   22.0400   31.8230 H   0  0  0  0  0  0  0  0  0  0  0  0
   39.4970   23.9310   31.6670 H   0  0  0  0  0  0  0  0  0  0  0  0
   40.6520   24.6960   32.8440 H   0  0  0  0  0  0  0  0  0  0  0  0
   37.8190   23.6740   33.2050 H   0  0  0  0  0  0  0  0  0  0  0  0
   37.6700   23.1790   36.4480 C   0  0  0  0  0  0  0  0  0  0  0  0
   39.0040   22.9250   36.0140 C   0  0  0  0  0  0  0  0  0  0  0  0
   40.0050   22.8680   36.9840 C   0  0  0  0  0  0  0  0  0  0  0  0
   39.6600   23.0560   38.2880 N   0  0  0  0  0  0  0  0  0  0  0  0
   38.3880   23.2940   38.6610 C   0  0  0  0  0  0  0  0  0  0  0  0
   37.4050   23.3540   37.7480 N   0  0  0  0  0  0  0  0  0  0  0  0
   36.8470   23.2310   35.7490 H   0  0  0  0  0  0  0  0  0  0  0  0
   38.1290   23.4430   39.7050 H   0  0  0  0  0  0  0  0  0  0  0  0
   41.3770   22.6130   36.6400 C   0  0  0  0  0  0  0  0  0  0  0  0
   41.8520   21.3270   36.7560 C   0  0  0  0  0  0  0  0  0  0  0  0
   43.1570   20.9870   36.4470 C   0  0  0  0  0  0  0  0  0  0  0  0
   43.9910   22.0040   36.0070 C   0  0  0  0  0  0  0  0  0  0  0  0
   43.5700   23.3220   35.8690 C   0  0  0  0  0  0  0  0  0  0  0  0
   42.2360   23.5890   36.2010 C   0  0  0  0  0  0  0  0  0  0  0  0
   41.1960   20.5370   37.1000 H   0  0  0  0  0  0  0  0  0  0  0  0
   43.5070   19.9730   36.5450 H   0  0  0  0  0  0  0  0  0  0  0  0
   45.0050   21.7040   35.7730 H   0  0  0  0  0  0  0  0  0  0  0  0
   44.2370   24.0860   35.5260 H   0  0  0  0  0  0  0  0  0  0  0  0
   41.8630   24.6120   36.1060 H   0  0  0  0  0  0  0  0  0  0  0  0
   38.8640   25.1660   34.3780 C   0  0  0  0  0  0  0  0  0  0  0  0
   39.8000   25.9560   34.9540 C   0  0  0  0  0  0  0  0  0  0  0  0
   40.8280   25.5900   34.9460 H   0  0  0  0  0  0  0  0  0  0  0  0
   39.2150   27.1050   35.4470 C   0  0  0  0  0  0  0  0  0  0  0  0
   39.7680   27.8760   35.9450 H   0  0  0  0  0  0  0  0  0  0  0  0
   37.9090   26.9720   35.1450 N   0  0  0  0  0  0  0  0  0  0  0  0
   37.1970   27.7000   35.3970 H   0  0  0  0  0  0  0  0  0  0  0  0
   37.6800   25.8330   34.5140 N   0  0  0  0  0  0  0  0  0  0  0  0
  1 14  1  0  0  0  0
  2  6  1  0  0  0  0
  2  1  1  0  0  0  0
  3  8  1  0  0  0  0
  3  2  1  0  0  0  0
  4  3  1  0  0  0  0
  4 11  1  0  0  0  0
  4  5  1  0  0  0  0
  5 12  1  6  0  0  0
  5 32  1  0  0  0  0
  5  1  1  0  0  0  0
  7  2  1  0  0  0  0
  9  3  1  0  0  0  0
 10  4  1  0  0  0  0
 13 18  1  0  0  0  0
 14 13  2  0  0  0  0
 14 15  1  0  0  0  0
 15 16  2  0  0  0  0
 16 17  1  0  0  0  0
 17 20  1  0  0  0  0
 18 17  2  0  0  0  0
 19 13  1  0  0  0  0
 21 22  1  0  0  0  0
 21 15  1  0  0  0  0
 22 27  1  0  0  0  0
 23 28  1  0  0  0  0
 23 22  2  0  0  0  0
 24 23  1  0  0  0  0
 25 24  2  0  0  0  0
 25 26  1  0  0  0  0
 26 21  2  0  0  0  0
 29 24  1  0  0  0  0
 30 25  1  0  0  0  0
 31 26  1  0  0  0  0
 32 39  2  0  0  0  0
 32 33  1  0  0  0  0
 33 35  2  0  0  0  0
 34 33  1  0  0  0  0
 35 36  1  0  0  0  0
 37 38  1  0  0  0  0
 37 35  1  0  0  0  0
 39 37  1  0  0  0  0
M  END
>  <minimizedAffinity>
-5.08969545

$$$$

 OpenBabel03272509143D

 39 42  0  0  1  0  0  0  0  0999 V2000
   38.9110   22.9860   34.5000 N   0  0  0  0  0  0  0  0  0  0  0  0
   38.4440   22.1060   33.4100 C   0  0  0  0  0  0  0  0  0  0  0  0
   37.0590   21.7070   33.9060 C   0  0  0  0  0  0  0  0  0  0  0  0
   37.2530   21.5800   35.3930 C   0  0  0  0  0  0  0  0  0  0  0  0
   38.6380   22.1340   35.6520 C   0  0  2  0  0  0  0  0  0  0  0  0
   38.3290   22.6930   32.5030 H   0  0  0  0  0  0  0  0  0  0  0  0
   39.0980   21.2300   33.3040 H   0  0  0  0  0  0  0  0  0  0  0  0
   36.3730   22.5640   33.7490 H   0  0  0  0  0  0  0  0  0  0  0  0
   36.6880   20.7820   33.4240 H   0  0  0  0  0  0  0  0  0  0  0  0
   37.3020   20.4730   35.6030 H   0  0  0  0  0  0  0  0  0  0  0  0
   36.4550   22.0390   35.9690 H   0  0  0  0  0  0  0  0  0  0  0  0
   39.4060   21.3600   35.7860 H   0  0  0  0  0  0  0  0  0  0  0  0
   38.5340   25.3470   34.5180 C   0  0  0  0  0  0  0  0  0  0  0  0
   39.4720   24.2810   34.6390 C   0  0  0  0  0  0  0  0  0  0  0  0
   40.8090   24.6130   34.8610 C   0  0  0  0  0  0  0  0  0  0  0  0
   41.1480   25.9290   34.9490 N   0  0  0  0  0  0  0  0  0  0  0  0
   40.2330   26.9100   34.8290 C   0  0  0  0  0  0  0  0  0  0  0  0
   38.9400   26.6190   34.6160 N   0  0  0  0  0  0  0  0  0  0  0  0
   37.4820   25.1590   34.3500 H   0  0  0  0  0  0  0  0  0  0  0  0
   40.5190   27.9550   34.9010 H   0  0  0  0  0  0  0  0  0  0  0  0
   41.8250   23.6050   35.0000 C   0  0  0  0  0  0  0  0  0  0  0  0
   42.3570   23.3820   36.2500 C   0  0  0  0  0  0  0  0  0  0  0  0
   43.3370   22.4330   36.4790 C   0  0  0  0  0  0  0  0  0  0  0  0
   43.7780   21.6970   35.3900 C   0  0  0  0  0  0  0  0  0  0  0  0
   43.2800   21.8780   34.1040 C   0  0  0  0  0  0  0  0  0  0  0  0
   42.2900   22.8560   33.9490 C   0  0  0  0  0  0  0  0  0  0  0  0
   42.0090   23.9600   37.0970 H   0  0  0  0  0  0  0  0  0  0  0  0
   43.7390   22.2760   37.4670 H   0  0  0  0  0  0  0  0  0  0  0  0
   44.5450   20.9640   35.6040 H   0  0  0  0  0  0  0  0  0  0  0  0
   43.6390   21.2940   33.2810 H   0  0  0  0  0  0  0  0  0  0  0  0
   41.8700   23.0290   32.9550 H   0  0  0  0  0  0  0  0  0  0  0  0
   38.4700   22.9790   36.8780 C   0  0  0  0  0  0  0  0  0  0  0  0
   37.6230   23.9280   37.3430 C   0  0  0  0  0  0  0  0  0  0  0  0
   36.7960   24.2130   36.6900 H   0  0  0  0  0  0  0  0  0  0  0  0
   38.0150   24.3420   38.6000 C   0  0  0  0  0  0  0  0  0  0  0  0
   37.4890   25.0890   39.1600 H   0  0  0  0  0  0  0  0  0  0  0  0
   39.1150   23.6120   38.8650 N   0  0  0  0  0  0  0  0  0  0  0  0
   39.6480   23.7050   39.7630 H   0  0  0  0  0  0  0  0  0  0  0  0
   39.4020   22.8000   37.8610 N   0  0  0  0  0  0  0  0  0  0  0  0
  1 14  1  0  0  0  0
  1  5  1  0  0  0  0
  2  3  1  0  0  0  0
  2  1  1  0  0  0  0
  3  4  1  0  0  0  0
  4 10  1  0  0  0  0
  4  5  1  0  0  0  0
  4 11  1  0  0  0  0
  5 12  1  1  0  0  0
  5 32  1  0  0  0  0
  6  2  1  0  0  0  0
  7  2  1  0  0  0  0
  8  3  1  0  0  0  0
  9  3  1  0  0  0  0
 13 18  2  0  0  0  0
 13 14  1  0  0  0  0
 14 15  2  0  0  0  0
 15 16  1  0  0  0  0
 15 21  1  0  0  0  0
 17 20  1  0  0  0  0
 17 16  2  0  0  0  0
 18 17  1  0  0  0  0
 19 13  1  0  0  0  0
 21 22  1  0  0  0  0
 22 23  2  0  0  0  0
 22 27  1  0  0  0  0
 23 28  1  0  0  0  0
 24 29  1  0  0  0  0
 24 23  1  0  0  0  0
 25 24  2  0  0  0  0
 26 25  1  0  0  0  0
 26 21  2  0  0  0  0
 30 25  1  0  0  0  0
 31 26  1  0  0  0  0
 32 33  1  0  0  0  0
 32 39  2  0  0  0  0
 33 35  2  0  0  0  0
 34 33  1  0  0  0  0
 35 37  1  0  0  0  0
 35 36  1  0  0  0  0
 37 38  1  0  0  0  0
 39 37  1  0  0  0  0
M  END
>  <minimizedAffinity>
-5.07005215

$$$$

 OpenBabel03272509143D

 39 42  0  0  1  0  0  0  0  0999 V2000
   39.3650   26.6370   32.9100 N   0  0  0  0  0  0  0  0  0  0  0  0
   40.4960   27.3380   32.2710 C   0  0  0  0  0  0  0  0  0  0  0  0
   41.6790   26.8160   33.0780 C   0  0  0  0  0  0  0  0  0  0  0  0
   41.1210   26.7080   34.4700 C   0  0  0  0  0  0  0  0  0  0  0  0
   39.6340   26.9430   34.3110 C   0  0  2  0  0  0  0  0  0  0  0  0
   40.5970   26.9890   31.2460 H   0  0  0  0  0  0  0  0  0  0  0  0
   40.3940   28.4260   32.3710 H   0  0  0  0  0  0  0  0  0  0  0  0
   41.8990   25.7810   32.7430 H   0  0  0  0  0  0  0  0  0  0  0  0
   42.5650   27.4750   33.0010 H   0  0  0  0  0  0  0  0  0  0  0  0
   41.5310   27.5940   35.0360 H   0  0  0  0  0  0  0  0  0  0  0  0
   41.3940   25.7830   34.9700 H   0  0  0  0  0  0  0  0  0  0  0  0
   39.3150   27.9580   34.5820 H   0  0  0  0  0  0  0  0  0  0  0  0
   38.5470   24.4680   32.3230 C   0  0  0  0  0  0  0  0  0  0  0  0
   38.2540   25.8500   32.5130 C   0  0  0  0  0  0  0  0  0  0  0  0
   36.9450   26.2760   32.2800 C   0  0  0  0  0  0  0  0  0  0  0  0
   36.0210   25.3570   31.8860 N   0  0  0  0  0  0  0  0  0  0  0  0
   36.3360   24.0580   31.7160 C   0  0  0  0  0  0  0  0  0  0  0  0
   37.5870   23.6210   31.9340 N   0  0  0  0  0  0  0  0  0  0  0  0
   39.5390   24.0720   32.4900 H   0  0  0  0  0  0  0  0  0  0  0  0
   35.5880   23.3370   31.4010 H   0  0  0  0  0  0  0  0  0  0  0  0
   36.5560   27.6500   32.4490 C   0  0  0  0  0  0  0  0  0  0  0  0
   36.6020   28.4820   31.3540 C   0  0  0  0  0  0  0  0  0  0  0  0
   36.2460   29.8170   31.4220 C   0  0  0  0  0  0  0  0  0  0  0  0
   35.8310   30.3030   32.6520 C   0  0  0  0  0  0  0  0  0  0  0  0
   35.7630   29.5120   33.7940 C   0  0  0  0  0  0  0  0  0  0  0  0
   36.1400   28.1710   33.6480 C   0  0  0  0  0  0  0  0  0  0  0  0
   36.9280   28.0970   30.3960 H   0  0  0  0  0  0  0  0  0  0  0  0
   36.2910   30.4490   30.5500 H   0  0  0  0  0  0  0  0  0  0  0  0
   35.5590   31.3510   32.6700 H   0  0  0  0  0  0  0  0  0  0  0  0
   35.4380   29.9150   34.7310 H   0  0  0  0  0  0  0  0  0  0  0  0
   36.1000   27.5140   34.5210 H   0  0  0  0  0  0  0  0  0  0  0  0
   39.0040   25.9020   35.1870 C   0  0  0  0  0  0  0  0  0  0  0  0
   37.8350   25.7060   35.8410 C   0  0  0  0  0  0  0  0  0  0  0  0
   37.0830   26.4910   35.7530 H   0  0  0  0  0  0  0  0  0  0  0  0
   37.8600   24.4960   36.5070 C   0  0  0  0  0  0  0  0  0  0  0  0
   37.0380   24.1340   37.0920 H   0  0  0  0  0  0  0  0  0  0  0  0
   39.0730   23.9840   36.2260 N   0  0  0  0  0  0  0  0  0  0  0  0
   39.3900   23.0560   36.5960 H   0  0  0  0  0  0  0  0  0  0  0  0
   39.7660   24.7980   35.4470 N   0  0  0  0  0  0  0  0  0  0  0  0
  1  5  1  0  0  0  0
  2  7  1  0  0  0  0
  2  1  1  0  0  0  0
  2  3  1  0  0  0  0
  3  4  1  0  0  0  0
  4 11  1  0  0  0  0
  4 10  1  0  0  0  0
  5  4  1  0  0  0  0
  5 12  1  1  0  0  0
  5 32  1  0  0  0  0
  6  2  1  0  0  0  0
  8  3  1  0  0  0  0
  9  3  1  0  0  0  0
 13 19  1  0  0  0  0
 13 14  1  0  0  0  0
 14  1  1  0  0  0  0
 15 21  1  0  0  0  0
 15 14  2  0  0  0  0
 16 15  1  0  0  0  0
 17 16  2  0  0  0  0
 17 18  1  0  0  0  0
 18 13  2  0  0  0  0
 20 17  1  0  0  0  0
 21 26  1  0  0  0  0
 22 23  1  0  0  0  0
 22 21  2  0  0  0  0
 23 24  2  0  0  0  0
 24 29  1  0  0  0  0
 24 25  1  0  0  0  0
 25 30  1  0  0  0  0
 26 25  2  0  0  0  0
 26 31  1  0  0  0  0
 27 22  1  0  0  0  0
 28 23  1  0  0  0  0
 32 39  2  0  0  0  0
 32 33  1  0  0  0  0
 33 35  2  0  0  0  0
 34 33  1  0  0  0  0
 35 36  1  0  0  0  0
 37 35  1  0  0  0  0
 37 38  1  0  0  0  0
 39 37  1  0  0  0  0
M  END
>  <minimizedAffinity>
-5.05414295

$$$$

 OpenBabel03272509143D

 39 42  0  0  1  0  0  0  0  0999 V2000
   38.5390   24.5250   32.5410 N   0  0  0  0  0  0  0  0  0  0  0  0
   38.5420   23.1640   31.9680 C   0  0  0  0  0  0  0  0  0  0  0  0
   37.6420   23.3380   30.7510 C   0  0  0  0  0  0  0  0  0  0  0  0
   36.5980   24.3070   31.2350 C   0  0  0  0  0  0  0  0  0  0  0  0
   37.1040   24.7820   32.5800 C   0  0  2  0  0  0  0  0  0  0  0  0
   39.5450   22.9250   31.6240 H   0  0  0  0  0  0  0  0  0  0  0  0
   38.1200   22.4380   32.6760 H   0  0  0  0  0  0  0  0  0  0  0  0
   38.2210   23.8640   29.9630 H   0  0  0  0  0  0  0  0  0  0  0  0
   37.2270   22.3770   30.3910 H   0  0  0  0  0  0  0  0  0  0  0  0
   35.6750   23.6900   31.4350 H   0  0  0  0  0  0  0  0  0  0  0  0
   36.3780   25.0930   30.5180 H   0  0  0  0  0  0  0  0  0  0  0  0
   36.6180   24.2920   33.4340 H   0  0  0  0  0  0  0  0  0  0  0  0
   40.0270   26.3000   31.9490 C   0  0  0  0  0  0  0  0  0  0  0  0
   39.4870   25.4820   32.9840 C   0  0  0  0  0  0  0  0  0  0  0  0
   39.9450   25.6920   34.2850 C   0  0  0  0  0  0  0  0  0  0  0  0
   40.8790   26.6610   34.4990 N   0  0  0  0  0  0  0  0  0  0  0  0
   41.3660   27.4150   33.4950 C   0  0  0  0  0  0  0  0  0  0  0  0
   40.9420   27.2340   32.2340 N   0  0  0  0  0  0  0  0  0  0  0  0
   39.7120   26.1930   30.9200 H   0  0  0  0  0  0  0  0  0  0  0  0
   42.1110   28.1830   33.6820 H   0  0  0  0  0  0  0  0  0  0  0  0
   39.4560   24.9180   35.3930 C   0  0  0  0  0  0  0  0  0  0  0  0
   40.1320   23.7700   35.7380 C   0  0  0  0  0  0  0  0  0  0  0  0
   39.7350   22.9630   36.7890 C   0  0  0  0  0  0  0  0  0  0  0  0
   38.6110   23.3530   37.5010 C   0  0  0  0  0  0  0  0  0  0  0  0
   37.8860   24.5010   37.2000 C   0  0  0  0  0  0  0  0  0  0  0  0
   38.3480   25.2670   36.1230 C   0  0  0  0  0  0  0  0  0  0  0  0
   41.0090   23.4700   35.1780 H   0  0  0  0  0  0  0  0  0  0  0  0
   40.2810   22.0690   37.0410 H   0  0  0  0  0  0  0  0  0  0  0  0
   38.3280   22.7000   38.3170 H   0  0  0  0  0  0  0  0  0  0  0  0
   37.0210   24.7770   37.7690 H   0  0  0  0  0  0  0  0  0  0  0  0
   37.8080   26.1780   35.8530 H   0  0  0  0  0  0  0  0  0  0  0  0
   36.8550   26.2610   32.5620 C   0  0  0  0  0  0  0  0  0  0  0  0
   36.7950   27.2850   33.4450 C   0  0  0  0  0  0  0  0  0  0  0  0
   36.9670   27.0430   34.4950 H   0  0  0  0  0  0  0  0  0  0  0  0
   36.5130   28.4660   32.7860 C   0  0  0  0  0  0  0  0  0  0  0  0
   36.4190   29.4080   33.2890 H   0  0  0  0  0  0  0  0  0  0  0  0
   36.4110   28.1100   31.4920 N   0  0  0  0  0  0  0  0  0  0  0  0
   36.2000   28.8030   30.7340 H   0  0  0  0  0  0  0  0  0  0  0  0
   36.6090   26.8110   31.3370 N   0  0  0  0  0  0  0  0  0  0  0  0
  1  5  1  0  0  0  0
  1 14  1  0  0  0  0
  2  1  1  0  0  0  0
  2  7  1  0  0  0  0
  3  4  1  0  0  0  0
  3  2  1  0  0  0  0
  4 10  1  0  0  0  0
  4  5  1  0  0  0  0
  5 12  1  1  0  0  0
  6  2  1  0  0  0  0
  8  3  1  0  0  0  0
  9  3  1  0  0  0  0
 11  4  1  0  0  0  0
 13 18  2  0  0  0  0
 13 14  1  0  0  0  0
 14 15  2  0  0  0  0
 15 16  1  0  0  0  0
 15 21  1  0  0  0  0
 17 20  1  0  0  0  0
 17 16  2  0  0  0  0
 18 17  1  0  0  0  0
 19 13  1  0  0  0  0
 21 22  2  0  0  0  0
 21 26  1  0  0  0  0
 22 23  1  0  0  0  0
 23 28  1  0  0  0  0
 23 24  2  0  0  0  0
 24 29  1  0  0  0  0
 25 24  1  0  0  0  0
 25 30  1  0  0  0  0
 26 25  2  0  0  0  0
 27 22  1  0  0  0  0
 31 26  1  0  0  0  0
 32  5  1  0  0  0  0
 32 33  1  0  0  0  0
 33 34  1  0  0  0  0
 35 36  1  0  0  0  0
 35 33  2  0  0  0  0
 37 35  1  0  0  0  0
 38 37  1  0  0  0  0
 39 37  1  0  0  0  0
 39 32  2  0  0  0  0
M  END
>  <minimizedAffinity>
-5.01524067

$$$$

 OpenBabel03272509143D

 39 42  0  0  1  0  0  0  0  0999 V2000
   40.4690   24.8070   33.4220 N   0  0  0  0  0  0  0  0  0  0  0  0
   41.8930   24.5290   33.6930 C   0  0  0  0  0  0  0  0  0  0  0  0
   42.1270   25.3290   34.9690 C   0  0  0  0  0  0  0  0  0  0  0  0
   41.2860   26.5570   34.7600 C   0  0  0  0  0  0  0  0  0  0  0  0
   40.4700   26.2630   33.5190 C   0  0  2  0  0  0  0  0  0  0  0  0
   42.0110   23.4720   33.9220 H   0  0  0  0  0  0  0  0  0  0  0  0
   42.5280   24.8890   32.8730 H   0  0  0  0  0  0  0  0  0  0  0  0
   41.6730   24.7740   35.8160 H   0  0  0  0  0  0  0  0  0  0  0  0
   43.1990   25.5450   35.1400 H   0  0  0  0  0  0  0  0  0  0  0  0
   42.0060   27.3810   34.4860 H   0  0  0  0  0  0  0  0  0  0  0  0
   40.7100   26.8360   35.6380 H   0  0  0  0  0  0  0  0  0  0  0  0
   40.8610   26.7380   32.6100 H   0  0  0  0  0  0  0  0  0  0  0  0
   38.9070   24.0770   31.7650 C   0  0  0  0  0  0  0  0  0  0  0  0
   39.2880   24.0740   33.1390 C   0  0  0  0  0  0  0  0  0  0  0  0
   38.4760   23.3820   34.0380 C   0  0  0  0  0  0  0  0  0  0  0  0
   37.3670   22.7500   33.5610 N   0  0  0  0  0  0  0  0  0  0  0  0
   37.0390   22.7750   32.2550 C   0  0  0  0  0  0  0  0  0  0  0  0
   37.8040   23.4330   31.3680 N   0  0  0  0  0  0  0  0  0  0  0  0
   39.4950   24.5900   31.0160 H   0  0  0  0  0  0  0  0  0  0  0  0
   36.1520   22.2660   31.8900 H   0  0  0  0  0  0  0  0  0  0  0  0
   38.7820   23.3210   35.4410 C   0  0  0  0  0  0  0  0  0  0  0  0
   38.0030   24.0460   36.3120 C   0  0  0  0  0  0  0  0  0  0  0  0
   38.2220   24.0480   37.6780 C   0  0  0  0  0  0  0  0  0  0  0  0
   39.2740   23.2790   38.1540 C   0  0  0  0  0  0  0  0  0  0  0  0
   40.0960   22.5250   37.3240 C   0  0  0  0  0  0  0  0  0  0  0  0
   39.8130   22.5740   35.9530 C   0  0  0  0  0  0  0  0  0  0  0  0
   37.1830   24.6450   35.9350 H   0  0  0  0  0  0  0  0  0  0  0  0
   37.5990   24.6240   38.3410 H   0  0  0  0  0  0  0  0  0  0  0  0
   39.4180   23.3020   39.2270 H   0  0  0  0  0  0  0  0  0  0  0  0
   40.9010   21.9400   37.7200 H   0  0  0  0  0  0  0  0  0  0  0  0
   40.4340   21.9950   35.2650 H   0  0  0  0  0  0  0  0  0  0  0  0
   39.0940   26.7480   33.8630 C   0  0  0  0  0  0  0  0  0  0  0  0
   37.9200   26.9860   33.2310 C   0  0  0  0  0  0  0  0  0  0  0  0
   37.8890   26.7910   32.1580 H   0  0  0  0  0  0  0  0  0  0  0  0
   36.9800   27.4460   34.1320 C   0  0  0  0  0  0  0  0  0  0  0  0
   35.9770   27.6990   33.8520 H   0  0  0  0  0  0  0  0  0  0  0  0
   37.6300   27.4710   35.3110 N   0  0  0  0  0  0  0  0  0  0  0  0
   37.1680   27.7820   36.2000 H   0  0  0  0  0  0  0  0  0  0  0  0
   38.8810   27.0630   35.1750 N   0  0  0  0  0  0  0  0  0  0  0  0
  1  5  1  0  0  0  0
  1  2  1  0  0  0  0
  2  6  1  0  0  0  0
  2  3  1  0  0  0  0
  3  9  1  0  0  0  0
  3  8  1  0  0  0  0
  4  3  1  0  0  0  0
  4 11  1  0  0  0  0
  5 12  1  6  0  0  0
  5 32  1  0  0  0  0
  5  4  1  0  0  0  0
  7  2  1  0  0  0  0
 10  4  1  0  0  0  0
 13 14  1  0  0  0  0
 14  1  1  0  0  0  0
 14 15  2  0  0  0  0
 15 21  1  0  0  0  0
 16 15  1  0  0  0  0
 17 16  2  0  0  0  0
 18 13  2  0  0  0  0
 18 17  1  0  0  0  0
 19 13  1  0  0  0  0
 20 17  1  0  0  0  0
 21 26  2  0  0  0  0
 21 22  1  0  0  0  0
 22 23  2  0  0  0  0
 23 24  1  0  0  0  0
 23 28  1  0  0  0  0
 24 29  1  0  0  0  0
 25 30  1  0  0  0  0
 25 24  2  0  0  0  0
 26 25  1  0  0  0  0
 27 22  1  0  0  0  0
 31 26  1  0  0  0  0
 32 39  2  0  0  0  0
 33 32  1  0  0  0  0
 33 35  2  0  0  0  0
 34 33  1  0  0  0  0
 35 37  1  0  0  0  0
 36 35  1  0  0  0  0
 37 38  1  0  0  0  0
 39 37  1  0  0  0  0
M  END
>  <minimizedAffinity>
-4.98136711

$$$$

 OpenBabel03272509143D

 39 42  0  0  1  0  0  0  0  0999 V2000
   38.7570   22.6280   35.5310 N   0  0  0  0  0  0  0  0  0  0  0  0
   37.6050   22.7160   36.4500 C   0  0  0  0  0  0  0  0  0  0  0  0
   38.1950   23.5080   37.6110 C   0  0  0  0  0  0  0  0  0  0  0  0
   39.6060   22.9940   37.6900 C   0  0  0  0  0  0  0  0  0  0  0  0
   39.7810   22.1440   36.4500 C   0  0  2  0  0  0  0  0  0  0  0  0
   36.8250   23.3150   35.9850 H   0  0  0  0  0  0  0  0  0  0  0  0
   37.2800   21.7180   36.7710 H   0  0  0  0  0  0  0  0  0  0  0  0
   38.2630   24.5730   37.3070 H   0  0  0  0  0  0  0  0  0  0  0  0
   37.6190   23.3770   38.5460 H   0  0  0  0  0  0  0  0  0  0  0  0
   39.6280   22.2900   38.5720 H   0  0  0  0  0  0  0  0  0  0  0  0
   40.3420   23.7830   37.8200 H   0  0  0  0  0  0  0  0  0  0  0  0
   39.6930   21.0650   36.6370 H   0  0  0  0  0  0  0  0  0  0  0  0
   39.3830   21.7220   33.4080 C   0  0  0  0  0  0  0  0  0  0  0  0
   39.0340   22.8800   34.1630 C   0  0  0  0  0  0  0  0  0  0  0  0
   39.0160   24.1080   33.5000 C   0  0  0  0  0  0  0  0  0  0  0  0
   39.3310   24.1380   32.1750 N   0  0  0  0  0  0  0  0  0  0  0  0
   39.6560   23.0220   31.4940 C   0  0  0  0  0  0  0  0  0  0  0  0
   39.6810   21.8280   32.1080 N   0  0  0  0  0  0  0  0  0  0  0  0
   39.4120   20.7400   33.8600 H   0  0  0  0  0  0  0  0  0  0  0  0
   39.9050   23.0620   30.4380 H   0  0  0  0  0  0  0  0  0  0  0  0
   38.6720   25.3280   34.1770 C   0  0  0  0  0  0  0  0  0  0  0  0
   37.4040   25.8360   34.0050 C   0  0  0  0  0  0  0  0  0  0  0  0
   36.9840   27.0030   34.6180 C   0  0  0  0  0  0  0  0  0  0  0  0
   37.8970   27.6600   35.4280 C   0  0  0  0  0  0  0  0  0  0  0  0
   39.1910   27.1970   35.6410 C   0  0  0  0  0  0  0  0  0  0  0  0
   39.5440   26.0100   34.9870 C   0  0  0  0  0  0  0  0  0  0  0  0
   36.6960   25.3190   33.3710 H   0  0  0  0  0  0  0  0  0  0  0  0
   35.9870   27.3820   34.4680 H   0  0  0  0  0  0  0  0  0  0  0  0
   37.5360   28.5700   35.8920 H   0  0  0  0  0  0  0  0  0  0  0  0
   39.8740   27.7260   36.2730 H   0  0  0  0  0  0  0  0  0  0  0  0
   40.5510   25.6100   35.1280 H   0  0  0  0  0  0  0  0  0  0  0  0
   41.1390   22.5190   35.9380 C   0  0  0  0  0  0  0  0  0  0  0  0
   41.8800   23.6390   35.7680 C   0  0  0  0  0  0  0  0  0  0  0  0
   41.4230   24.5840   36.0680 H   0  0  0  0  0  0  0  0  0  0  0  0
   43.1090   23.3190   35.2250 C   0  0  0  0  0  0  0  0  0  0  0  0
   43.8600   24.0510   35.0050 H   0  0  0  0  0  0  0  0  0  0  0  0
   43.0720   21.9810   35.0820 N   0  0  0  0  0  0  0  0  0  0  0  0
   43.8780   21.4360   34.6870 H   0  0  0  0  0  0  0  0  0  0  0  0
   41.9180   21.4870   35.4960 N   0  0  0  0  0  0  0  0  0  0  0  0
  1  5  1  0  0  0  0
  1  2  1  0  0  0  0
  2  7  1  0  0  0  0
  2  3  1  0  0  0  0
  3  4  1  0  0  0  0
  3  9  1  0  0  0  0
  4 11  1  0  0  0  0
  4 10  1  0  0  0  0
  5 12  1  1  0  0  0
  5  4  1  0  0  0  0
  6  2  1  0  0  0  0
  8  3  1  0  0  0  0
 13 19  1  0  0  0  0
 13 14  1  0  0  0  0
 14  1  1  0  0  0  0
 15 14  2  0  0  0  0
 15 21  1  0  0  0  0
 16 15  1  0  0  0  0
 17 18  1  0  0  0  0
 17 16  2  0  0  0  0
 18 13  2  0  0  0  0
 20 17  1  0  0  0  0
 21 26  1  0  0  0  0
 22 21  2  0  0  0  0
 22 23  1  0  0  0  0
 23 24  2  0  0  0  0
 24 25  1  0  0  0  0
 24 29  1  0  0  0  0
 25 30  1  0  0  0  0
 26 31  1  0  0  0  0
 26 25  2  0  0  0  0
 27 22  1  0  0  0  0
 28 23  1  0  0  0  0
 32  5  1  0  0  0  0
 33 32  1  0  0  0  0
 33 34  1  0  0  0  0
 35 33  2  0  0  0  0
 36 35  1  0  0  0  0
 37 35  1  0  0  0  0
 37 39  1  0  0  0  0
 38 37  1  0  0  0  0
 39 32  2  0  0  0  0
M  END
>  <minimizedAffinity>
-4.92004871

$$$$

 OpenBabel03272509143D

 39 42  0  0  1  0  0  0  0  0999 V2000
   37.4340   26.9710   32.2340 N   0  0  0  0  0  0  0  0  0  0  0  0
   36.6610   27.7770   31.2670 C   0  0  0  0  0  0  0  0  0  0  0  0
   36.3710   29.0360   32.0750 C   0  0  0  0  0  0  0  0  0  0  0  0
   36.1470   28.5040   33.4640 C   0  0  0  0  0  0  0  0  0  0  0  0
   36.5510   27.0480   33.3920 C   0  0  2  0  0  0  0  0  0  0  0  0
   37.3050   28.0440   30.4330 H   0  0  0  0  0  0  0  0  0  0  0  0
   35.7340   27.2650   30.9790 H   0  0  0  0  0  0  0  0  0  0  0  0
   37.2980   29.6450   32.1150 H   0  0  0  0  0  0  0  0  0  0  0  0
   35.5140   29.6080   31.6720 H   0  0  0  0  0  0  0  0  0  0  0  0
   35.0300   28.5240   33.6250 H   0  0  0  0  0  0  0  0  0  0  0  0
   36.6490   29.0880   34.2310 H   0  0  0  0  0  0  0  0  0  0  0  0
   35.7010   26.3560   33.3120 H   0  0  0  0  0  0  0  0  0  0  0  0
   39.8180   27.0830   32.3770 C   0  0  0  0  0  0  0  0  0  0  0  0
   38.6600   26.2590   32.2680 C   0  0  0  0  0  0  0  0  0  0  0  0
   38.8470   24.8780   32.1950 C   0  0  0  0  0  0  0  0  0  0  0  0
   40.1180   24.3900   32.2290 N   0  0  0  0  0  0  0  0  0  0  0  0
   41.1900   25.2000   32.3320 C   0  0  0  0  0  0  0  0  0  0  0  0
   41.0380   26.5330   32.4050 N   0  0  0  0  0  0  0  0  0  0  0  0
   39.7430   28.1590   32.4420 H   0  0  0  0  0  0  0  0  0  0  0  0
   42.1980   24.7970   32.3580 H   0  0  0  0  0  0  0  0  0  0  0  0
   37.7390   23.9690   32.0880 C   0  0  0  0  0  0  0  0  0  0  0  0
   37.6390   22.9490   33.0070 C   0  0  0  0  0  0  0  0  0  0  0  0
   36.6070   22.0280   32.9830 C   0  0  0  0  0  0  0  0  0  0  0  0
   35.6550   22.1650   31.9840 C   0  0  0  0  0  0  0  0  0  0  0  0
   35.7020   23.1740   31.0280 C   0  0  0  0  0  0  0  0  0  0  0  0
   36.7760   24.0680   31.1160 C   0  0  0  0  0  0  0  0  0  0  0  0
   38.3860   22.8470   33.7840 H   0  0  0  0  0  0  0  0  0  0  0  0
   36.5500   21.2380   33.7130 H   0  0  0  0  0  0  0  0  0  0  0  0
   34.8620   21.4290   31.9940 H   0  0  0  0  0  0  0  0  0  0  0  0
   34.9510   23.2550   30.2680 H   0  0  0  0  0  0  0  0  0  0  0  0
   36.8500   24.8770   30.3840 H   0  0  0  0  0  0  0  0  0  0  0  0
   37.3420   26.8250   34.6470 C   0  0  0  0  0  0  0  0  0  0  0  0
   37.7100   25.7900   35.4370 C   0  0  0  0  0  0  0  0  0  0  0  0
   37.3710   24.7960   35.1400 H   0  0  0  0  0  0  0  0  0  0  0  0
   38.4700   26.2470   36.4960 C   0  0  0  0  0  0  0  0  0  0  0  0
   38.8710   25.6000   37.2500 H   0  0  0  0  0  0  0  0  0  0  0  0
   38.5400   27.5780   36.3070 N   0  0  0  0  0  0  0  0  0  0  0  0
   39.0610   28.2120   36.9610 H   0  0  0  0  0  0  0  0  0  0  0  0
   37.8800   27.9420   35.2200 N   0  0  0  0  0  0  0  0  0  0  0  0
  1 14  1  0  0  0  0
  1  5  1  0  0  0  0
  2  3  1  0  0  0  0
  2  1  1  0  0  0  0
  3  8  1  0  0  0  0
  3  4  1  0  0  0  0
  4 10  1  0  0  0  0
  4 11  1  0  0  0  0
  5 12  1  6  0  0  0
  5  4  1  0  0  0  0
  5 32  1  0  0  0  0
  6  2  1  0  0  0  0
  7  2  1  0  0  0  0
  9  3  1  0  0  0  0
 13 18  1  0  0  0  0
 13 19  1  0  0  0  0
 14 13  2  0  0  0  0
 15 16  2  0  0  0  0
 15 14  1  0  0  0  0
 16 17  1  0  0  0  0
 17 20  1  0  0  0  0
 17 18  2  0  0  0  0
 21 15  1  0  0  0  0
 21 22  1  0  0  0  0
 22 27  1  0  0  0  0
 23 22  2  0  0  0  0
 23 28  1  0  0  0  0
 24 29  1  0  0  0  0
 24 23  1  0  0  0  0
 25 26  1  0  0  0  0
 25 24  2  0  0  0  0
 26 21  2  0  0  0  0
 30 25  1  0  0  0  0
 31 26  1  0  0  0  0
 32 39  2  0  0  0  0
 32 33  1  0  0  0  0
 33 35  2  0  0  0  0
 34 33  1  0  0  0  0
 35 36  1  0  0  0  0
 37 35  1  0  0  0  0
 37 38  1  0  0  0  0
 39 37  1  0  0  0  0
M  END
>  <minimizedAffinity>
-4.91210985

$$$$
