
 OpenBabel03272508143D

 27 28  0  0  0  0  0  0  0  0999 V2000
   36.6910   31.4980   49.4950 Cl  0  0  0  0  0 10  0  0  0  0  0  0
   36.9960   31.3400   47.7880 C   0  0  0  0  0  0  0  0  0  0  0  0
   36.1910   30.4260   47.1630 C   0  0  0  0  0  0  0  0  0  0  0  0
   36.3550   30.2200   45.7810 C   0  0  0  0  0  0  0  0  0  0  0  0
   37.2860   30.9050   45.0670 C   0  0  0  0  0  0  0  0  0  0  0  0
   38.0890   31.8220   45.7140 C   0  0  0  0  0  0  0  0  0  0  0  0
   39.2930   32.7180   44.8290 Cl  0  0  0  0  0  0  0  0  0  0  0  0
   37.9340   32.0260   47.0570 C   0  0  0  0  0  0  0  0  0  0  0  0
   35.7680   29.5210   45.2020 H   0  0  0  0  0  0  0  0  0  0  0  0
   37.4450   30.7770   44.0060 H   0  0  0  0  0  0  0  0  0  0  0  0
   35.4130   28.8340   48.8820 C   0  0  0  0  0  0  0  0  0  0  0  0
   35.1290   29.5800   47.7290 C   0  0  0  0  0  0  0  0  0  0  0  0
   33.8420   29.4750   47.1810 C   0  0  0  0  0  0  0  0  0  0  0  0
   32.9420   28.6610   47.7910 N   0  0  0  0  0  0  0  0  0  0  0  0
   33.2530   27.9560   48.9040 C   0  0  0  0  0  0  0  0  0  0  0  0
   34.4930   28.0470   49.4450 N   0  0  0  0  0  0  0  0  0  0  0  0
   36.4110   28.9270   49.2910 H   0  0  0  0  0  0  0  0  0  0  0  0
   33.6720   30.0600   46.3060 H   0  0  0  0  0  0  0  0  0  0  0  0
   32.4690   27.3330   49.3190 H   0  0  0  0  0  0  0  0  0  0  0  0
   38.7500   32.9820   47.7990 C   0  0  0  0  0  0  0  0  0  0  0  0
   38.5180   33.1450   49.1460 C   0  0  0  0  0  0  0  0  0  0  0  0
   37.7910   32.6640   49.8100 H   0  0  0  0  0  0  0  0  0  0  0  0
   39.4140   34.0960   49.6080 C   0  0  0  0  0  0  0  0  0  0  0  0
   39.4880   34.4490   50.6280 H   0  0  0  0  0  0  0  0  0  0  0  0
   40.1580   34.4820   48.5440 N   0  0  0  0  0  0  0  0  0  0  0  0
   40.9290   35.1870   48.5380 H   0  0  0  0  0  0  0  0  0  0  0  0
   39.7630   33.8140   47.4500 N   0  0  0  0  0  0  0  0  0  0  0  0
  3 12  1  0  0  0  0
  3  2  1  0  0  0  0
  4  3  2  0  0  0  0
  5  6  2  0  0  0  0
  5  4  1  0  0  0  0
  6  8  1  0  0  0  0
  7  6  1  0  0  0  0
  8  2  2  0  0  0  0
  8 20  1  0  0  0  0
  9  4  1  0  0  0  0
 10  5  1  0  0  0  0
 11 17  1  0  0  0  0
 11 16  1  0  0  0  0
 12 11  2  0  0  0  0
 13 12  1  0  0  0  0
 13 14  2  0  0  0  0
 14 15  1  0  0  0  0
 15 19  1  0  0  0  0
 15 16  2  0  0  0  0
 18 13  1  0  0  0  0
 20 21  1  0  0  0  0
 21 23  2  0  0  0  0
 21 22  1  0  0  0  0
 23 24  1  0  0  0  0
 25 23  1  0  0  0  0
 26 25  1  0  0  0  0
 27 20  2  0  0  0  0
 27 25  1  0  0  0  0
M  END
>  <minimizedAffinity>
-5.44498014

>  <minimizedRMSD>
2.59658623

$$$$
