
 OpenBabel03272510163D

 27 29  0  0  0  0  0  0  0  0999 V2000
   37.3000   29.3380   51.0510 Br  0  0  0  0  0  0  0  0  0  0  0  0
   35.9580   29.3200   49.6810 C   0  0  0  0  0  0  0  0  0  0  0  0
   35.9840   30.2300   48.6390 C   0  0  0  0  0  0  0  0  0  0  0  0
   34.9920   30.1540   47.7000 C   0  0  0  0  0  0  0  0  0  0  0  0
   33.9760   29.2240   47.7380 C   0  0  0  0  0  0  0  0  0  0  0  0
   33.9700   28.3330   48.7780 C   0  0  0  0  0  0  0  0  0  0  0  0
   34.9580   28.3820   49.7460 C   0  0  0  0  0  0  0  0  0  0  0  0
   35.0320   30.8750   46.8940 H   0  0  0  0  0  0  0  0  0  0  0  0
   33.2050   27.5790   48.8720 H   0  0  0  0  0  0  0  0  0  0  0  0
   34.9660   27.6780   50.5820 H   0  0  0  0  0  0  0  0  0  0  0  0
   37.9790   33.1830   49.4500 C   0  0  0  0  0  0  0  0  0  0  0  0
   39.0210   33.1680   48.4740 C   0  0  0  0  0  0  0  0  0  0  0  0
   39.0070   32.1240   47.5500 C   0  0  0  0  0  0  0  0  0  0  0  0
   38.0180   31.1840   47.6200 N   0  0  0  0  0  0  0  0  0  0  0  0
   37.0460   31.2330   48.5600 C   0  0  0  0  0  0  0  0  0  0  0  0
   37.0300   32.2370   49.4760 N   0  0  0  0  0  0  0  0  0  0  0  0
   37.9330   33.9750   50.2050 H   0  0  0  0  0  0  0  0  0  0  0  0
   39.7720   33.9480   48.4830 H   0  0  0  0  0  0  0  0  0  0  0  0
   39.7770   32.0790   46.8010 H   0  0  0  0  0  0  0  0  0  0  0  0
   32.9530   29.2010   46.7040 C   0  0  0  0  0  0  0  0  0  0  0  0
   32.3720   28.0700   46.1750 C   0  0  0  0  0  0  0  0  0  0  0  0
   32.5880   27.0420   46.4470 H   0  0  0  0  0  0  0  0  0  0  0  0
   31.4380   28.4650   45.2110 C   0  0  0  0  0  0  0  0  0  0  0  0
   30.8410   27.7640   44.6450 H   0  0  0  0  0  0  0  0  0  0  0  0
   31.4900   29.8200   45.1930 N   0  0  0  0  0  0  0  0  0  0  0  0
   30.8500   30.2960   44.5200 H   0  0  0  0  0  0  0  0  0  0  0  0
   32.3890   30.2470   46.0800 N   0  0  0  0  0  0  0  0  0  0  0  0
  2  7  1  0  0  0  0
  2  1  1  0  0  0  0
  3  2  2  0  0  0  0
  4  5  2  0  0  0  0
  4  3  1  0  0  0  0
  5  6  1  0  0  0  0
  6  9  1  0  0  0  0
  6  7  2  0  0  0  0
  7 10  1  0  0  0  0
  8  4  1  0  0  0  0
 11 16  1  0  0  0  0
 11 17  1  0  0  0  0
 12 18  1  0  0  0  0
 12 11  2  0  0  0  0
 13 14  2  0  0  0  0
 13 12  1  0  0  0  0
 14 15  1  0  0  0  0
 15  3  1  0  0  0  0
 15 16  2  0  0  0  0
 19 13  1  0  0  0  0
 20  5  1  0  0  0  0
 21 22  1  0  0  0  0
 21 20  1  0  0  0  0
 23 21  2  0  0  0  0
 24 23  1  0  0  0  0
 25 23  1  0  0  0  0
 25 27  1  0  0  0  0
 26 25  1  0  0  0  0
 27 20  2  0  0  0  0
M  END
>  <minimizedAffinity>
-5.75871992

>  <minimizedRMSD>
0.386286855

$$$$
