
 OpenBabel03272510163D

 27 29  0  0  0  0  0  0  0  0999 V2000
   37.3120   29.3420   51.0670 Br  0  0  0  0  0  0  0  0  0  0  0  0
   35.9570   29.3190   49.7100 C   0  0  0  0  0  0  0  0  0  0  0  0
   35.9760   30.2220   48.6620 C   0  0  0  0  0  0  0  0  0  0  0  0
   34.9750   30.1430   47.7320 C   0  0  0  0  0  0  0  0  0  0  0  0
   33.9570   29.2160   47.7850 C   0  0  0  0  0  0  0  0  0  0  0  0
   33.9590   28.3310   48.8310 C   0  0  0  0  0  0  0  0  0  0  0  0
   34.9550   28.3840   49.7890 C   0  0  0  0  0  0  0  0  0  0  0  0
   35.0090   30.8590   46.9220 H   0  0  0  0  0  0  0  0  0  0  0  0
   33.1930   27.5800   48.9360 H   0  0  0  0  0  0  0  0  0  0  0  0
   34.9700   27.6850   50.6290 H   0  0  0  0  0  0  0  0  0  0  0  0
   37.9790   33.1810   49.4300 C   0  0  0  0  0  0  0  0  0  0  0  0
   39.0180   33.1520   48.4510 C   0  0  0  0  0  0  0  0  0  0  0  0
   38.9980   32.0970   47.5400 C   0  0  0  0  0  0  0  0  0  0  0  0
   38.0080   31.1600   47.6240 N   0  0  0  0  0  0  0  0  0  0  0  0
   37.0390   31.2230   48.5680 C   0  0  0  0  0  0  0  0  0  0  0  0
   37.0290   32.2380   49.4720 N   0  0  0  0  0  0  0  0  0  0  0  0
   37.9380   33.9820   50.1760 H   0  0  0  0  0  0  0  0  0  0  0  0
   39.7710   33.9310   48.4480 H   0  0  0  0  0  0  0  0  0  0  0  0
   39.7650   32.0420   46.7890 H   0  0  0  0  0  0  0  0  0  0  0  0
   32.9250   29.1890   46.7610 C   0  0  0  0  0  0  0  0  0  0  0  0
   31.7810   28.4230   46.7950 C   0  0  0  0  0  0  0  0  0  0  0  0
   31.4840   27.7360   47.5790 H   0  0  0  0  0  0  0  0  0  0  0  0
   31.0470   28.6780   45.6310 C   0  0  0  0  0  0  0  0  0  0  0  0
   30.1010   28.2010   45.4130 H   0  0  0  0  0  0  0  0  0  0  0  0
   31.7730   29.5890   44.9370 N   0  0  0  0  0  0  0  0  0  0  0  0
   31.3730   29.9010   44.0280 H   0  0  0  0  0  0  0  0  0  0  0  0
   32.8840   29.8850   45.6140 N   0  0  0  0  0  0  0  0  0  0  0  0
  2  7  1  0  0  0  0
  2  1  1  0  0  0  0
  3  2  2  0  0  0  0
  4  5  2  0  0  0  0
  4  3  1  0  0  0  0
  5  6  1  0  0  0  0
  6  9  1  0  0  0  0
  6  7  2  0  0  0  0
  7 10  1  0  0  0  0
  8  4  1  0  0  0  0
 11 16  1  0  0  0  0
 11 17  1  0  0  0  0
 12 11  2  0  0  0  0
 13 14  2  0  0  0  0
 13 12  1  0  0  0  0
 14 15  1  0  0  0  0
 15  3  1  0  0  0  0
 15 16  2  0  0  0  0
 18 12  1  0  0  0  0
 19 13  1  0  0  0  0
 20 21  1  0  0  0  0
 20  5  1  0  0  0  0
 21 22  1  0  0  0  0
 23 21  2  0  0  0  0
 24 23  1  0  0  0  0
 25 27  1  0  0  0  0
 25 23  1  0  0  0  0
 26 25  1  0  0  0  0
 27 20  2  0  0  0  0
M  END
>  <minimizedAffinity>
-5.73611641

>  <minimizedRMSD>
0.12408141

$$$$
