
 OpenBabel03272509123D

 27 29  0  0  0  0  0  0  0  0999 V2000
   41.2580   23.0700   36.0820 C   0  0  0  0  0  0  0  0  0  0  0  0
   40.0830   23.8430   35.8630 C   0  0  0  0  0  0  0  0  0  0  0  0
   40.2030   25.0060   35.0930 C   0  0  0  0  0  0  0  0  0  0  0  0
   41.4280   25.3490   34.5890 N   0  0  0  0  0  0  0  0  0  0  0  0
   42.5230   24.5850   34.8220 C   0  0  0  0  0  0  0  0  0  0  0  0
   42.4330   23.4570   35.5620 N   0  0  0  0  0  0  0  0  0  0  0  0
   41.2490   22.1630   36.6620 H   0  0  0  0  0  0  0  0  0  0  0  0
   43.4930   24.8550   34.4240 H   0  0  0  0  0  0  0  0  0  0  0  0
   39.0720   25.8570   34.8120 C   0  0  0  0  0  0  0  0  0  0  0  0
   38.8500   26.9270   35.6370 C   0  0  0  0  0  0  0  0  0  0  0  0
   37.7930   27.8040   35.4350 C   0  0  0  0  0  0  0  0  0  0  0  0
   36.9550   27.5490   34.3500 C   0  0  0  0  0  0  0  0  0  0  0  0
   37.1290   26.4710   33.4730 C   0  0  0  0  0  0  0  0  0  0  0  0
   38.2150   25.6410   33.7480 C   0  0  0  0  0  0  0  0  0  0  0  0
   39.3800   27.2510   36.5150 H   0  0  0  0  0  0  0  0  0  0  0  0
   37.5380   28.6680   36.0220 H   0  0  0  0  0  0  0  0  0  0  0  0
   36.0930   28.1750   34.1000 H   0  0  0  0  0  0  0  0  0  0  0  0
   36.4800   26.2910   32.6530 H   0  0  0  0  0  0  0  0  0  0  0  0
   38.3830   24.7970   33.0940 H   0  0  0  0  0  0  0  0  0  0  0  0
   38.9130   23.3290   36.5040 C   0  0  0  0  0  0  0  0  0  0  0  0
   38.6980   23.7190   37.8320 C   0  0  0  0  0  0  0  0  0  0  0  0
   39.2080   24.3490   38.5440 H   0  0  0  0  0  0  0  0  0  0  0  0
   37.5190   23.0930   38.2540 C   0  0  0  0  0  0  0  0  0  0  0  0
   36.9950   23.1240   39.2100 H   0  0  0  0  0  0  0  0  0  0  0  0
   37.0670   22.3710   37.2140 N   0  0  0  0  0  0  0  0  0  0  0  0
   36.1970   21.7780   37.2000 H   0  0  0  0  0  0  0  0  0  0  0  0
   37.8800   22.4990   36.1700 N   0  0  0  0  0  0  0  0  0  0  0  0
  1  7  1  0  0  0  0
  2  1  1  0  0  0  0
  2 20  1  0  0  0  0
  3  2  2  0  0  0  0
  4  5  2  0  0  0  0
  4  3  1  0  0  0  0
  5  6  1  0  0  0  0
  6  1  2  0  0  0  0
  8  5  1  0  0  0  0
  9  3  1  0  0  0  0
  9 10  1  0  0  0  0
 10 15  1  0  0  0  0
 11 10  2  0  0  0  0
 11 16  1  0  0  0  0
 12 11  1  0  0  0  0
 13 14  1  0  0  0  0
 13 12  2  0  0  0  0
 14  9  2  0  0  0  0
 17 12  1  0  0  0  0
 18 13  1  0  0  0  0
 19 14  1  0  0  0  0
 20 21  1  0  0  0  0
 21 23  2  0  0  0  0
 21 22  1  0  0  0  0
 23 24  1  0  0  0  0
 25 23  1  0  0  0  0
 26 25  1  0  0  0  0
 27 20  2  0  0  0  0
 27 25  1  0  0  0  0
M  END
>  <minimizedAffinity>
-4.85908079

$$$$

 OpenBabel03272509123D

 27 29  0  0  0  0  0  0  0  0999 V2000
   37.2210   21.5860   34.8170 C   0  0  0  0  0  0  0  0  0  0  0  0
   38.0910   22.6890   35.0510 C   0  0  0  0  0  0  0  0  0  0  0  0
   38.3060   23.5830   33.9970 C   0  0  0  0  0  0  0  0  0  0  0  0
   37.6820   23.3640   32.7970 N   0  0  0  0  0  0  0  0  0  0  0  0
   36.8630   22.3010   32.6160 C   0  0  0  0  0  0  0  0  0  0  0  0
   36.6370   21.4230   33.6190 N   0  0  0  0  0  0  0  0  0  0  0  0
   37.0030   20.8540   35.5770 H   0  0  0  0  0  0  0  0  0  0  0  0
   36.3680   22.1250   31.6690 H   0  0  0  0  0  0  0  0  0  0  0  0
   39.1680   24.7330   34.1320 C   0  0  0  0  0  0  0  0  0  0  0  0
   38.6090   25.9110   34.5490 C   0  0  0  0  0  0  0  0  0  0  0  0
   39.3640   27.0640   34.7170 C   0  0  0  0  0  0  0  0  0  0  0  0
   40.7290   26.9750   34.4390 C   0  0  0  0  0  0  0  0  0  0  0  0
   41.3560   25.8000   34.0080 C   0  0  0  0  0  0  0  0  0  0  0  0
   40.5240   24.6900   33.8670 C   0  0  0  0  0  0  0  0  0  0  0  0
   37.5880   26.1520   34.7840 H   0  0  0  0  0  0  0  0  0  0  0  0
   39.0210   28.0300   35.0390 H   0  0  0  0  0  0  0  0  0  0  0  0
   41.4150   27.8220   34.5370 H   0  0  0  0  0  0  0  0  0  0  0  0
   42.3960   25.7510   33.8000 H   0  0  0  0  0  0  0  0  0  0  0  0
   40.9720   23.7630   33.5360 H   0  0  0  0  0  0  0  0  0  0  0  0
   38.6660   22.7170   36.3600 C   0  0  0  0  0  0  0  0  0  0  0  0
   37.9640   23.4290   37.3420 C   0  0  0  0  0  0  0  0  0  0  0  0
   37.0440   23.9910   37.3780 H   0  0  0  0  0  0  0  0  0  0  0  0
   38.7090   23.3330   38.5230 C   0  0  0  0  0  0  0  0  0  0  0  0
   38.5260   23.7390   39.5190 H   0  0  0  0  0  0  0  0  0  0  0  0
   39.7970   22.5970   38.2400 N   0  0  0  0  0  0  0  0  0  0  0  0
   40.5650   22.3370   38.9120 H   0  0  0  0  0  0  0  0  0  0  0  0
   39.7880   22.2240   36.9640 N   0  0  0  0  0  0  0  0  0  0  0  0
  1  2  1  0  0  0  0
  1  7  1  0  0  0  0
  2 20  1  0  0  0  0
  3  9  1  0  0  0  0
  3  2  2  0  0  0  0
  4  3  1  0  0  0  0
  5  4  2  0  0  0  0
  5  6  1  0  0  0  0
  6  1  2  0  0  0  0
  8  5  1  0  0  0  0
  9 10  1  0  0  0  0
 10 11  2  0  0  0  0
 10 15  1  0  0  0  0
 11 16  1  0  0  0  0
 12 17  1  0  0  0  0
 12 11  1  0  0  0  0
 13 12  2  0  0  0  0
 14 13  1  0  0  0  0
 14  9  2  0  0  0  0
 18 13  1  0  0  0  0
 19 14  1  0  0  0  0
 20 27  2  0  0  0  0
 20 21  1  0  0  0  0
 21 22  1  0  0  0  0
 21 23  2  0  0  0  0
 23 24  1  0  0  0  0
 25 23  1  0  0  0  0
 25 26  1  0  0  0  0
 27 25  1  0  0  0  0
M  END
>  <minimizedAffinity>
-4.83125591

$$$$

 OpenBabel03272509123D

 27 29  0  0  0  0  0  0  0  0999 V2000
   33.1330   31.3650   36.0780 C   0  0  0  0  0  0  0  0  0  0  0  0
   33.6810   30.5220   35.0700 C   0  0  0  0  0  0  0  0  0  0  0  0
   35.0700   30.5300   34.9000 C   0  0  0  0  0  0  0  0  0  0  0  0
   35.8360   31.3380   35.6980 N   0  0  0  0  0  0  0  0  0  0  0  0
   35.2740   32.1260   36.6450 C   0  0  0  0  0  0  0  0  0  0  0  0
   33.9340   32.1360   36.8300 N   0  0  0  0  0  0  0  0  0  0  0  0
   32.0750   31.4150   36.2720 H   0  0  0  0  0  0  0  0  0  0  0  0
   35.8770   32.7660   37.2770 H   0  0  0  0  0  0  0  0  0  0  0  0
   35.7240   29.7110   33.9080 C   0  0  0  0  0  0  0  0  0  0  0  0
   36.1800   28.4770   34.2890 C   0  0  0  0  0  0  0  0  0  0  0  0
   36.8110   27.6200   33.3990 C   0  0  0  0  0  0  0  0  0  0  0  0
   36.9670   28.0690   32.0870 C   0  0  0  0  0  0  0  0  0  0  0  0
   36.5250   29.3200   31.6390 C   0  0  0  0  0  0  0  0  0  0  0  0
   35.9010   30.1160   32.5970 C   0  0  0  0  0  0  0  0  0  0  0  0
   36.1580   27.9930   35.2490 H   0  0  0  0  0  0  0  0  0  0  0  0
   37.2000   26.6380   33.5990 H   0  0  0  0  0  0  0  0  0  0  0  0
   37.4510   27.4750   31.3050 H   0  0  0  0  0  0  0  0  0  0  0  0
   36.6540   29.6460   30.6370 H   0  0  0  0  0  0  0  0  0  0  0  0
   35.5450   31.0900   32.2900 H   0  0  0  0  0  0  0  0  0  0  0  0
   32.7080   29.7840   34.3270 C   0  0  0  0  0  0  0  0  0  0  0  0
   31.8850   28.9150   35.0560 C   0  0  0  0  0  0  0  0  0  0  0  0
   31.7780   28.6420   36.0940 H   0  0  0  0  0  0  0  0  0  0  0  0
   31.0310   28.2960   34.1340 C   0  0  0  0  0  0  0  0  0  0  0  0
   30.2420   27.5570   34.2750 H   0  0  0  0  0  0  0  0  0  0  0  0
   31.3450   28.7850   32.9230 N   0  0  0  0  0  0  0  0  0  0  0  0
   30.8890   28.5250   32.0100 H   0  0  0  0  0  0  0  0  0  0  0  0
   32.3350   29.6670   33.0180 N   0  0  0  0  0  0  0  0  0  0  0  0
  1  7  1  0  0  0  0
  1  6  1  0  0  0  0
  2  1  2  0  0  0  0
  3  2  1  0  0  0  0
  3  4  2  0  0  0  0
  4  5  1  0  0  0  0
  5  6  2  0  0  0  0
  5  8  1  0  0  0  0
  9 10  1  0  0  0  0
  9  3  1  0  0  0  0
 10 15  1  0  0  0  0
 11 16  1  0  0  0  0
 11 10  2  0  0  0  0
 12 11  1  0  0  0  0
 13 12  2  0  0  0  0
 13 14  1  0  0  0  0
 14  9  2  0  0  0  0
 17 12  1  0  0  0  0
 18 13  1  0  0  0  0
 19 14  1  0  0  0  0
 20 21  1  0  0  0  0
 20  2  1  0  0  0  0
 21 22  1  0  0  0  0
 23 24  1  0  0  0  0
 23 21  2  0  0  0  0
 25 27  1  0  0  0  0
 25 23  1  0  0  0  0
 26 25  1  0  0  0  0
 27 20  2  0  0  0  0
M  END
>  <minimizedAffinity>
-4.74213743

$$$$

 OpenBabel03272509123D

 27 29  0  0  0  0  0  0  0  0999 V2000
   35.1660   25.5380   30.8280 C   0  0  0  0  0  0  0  0  0  0  0  0
   36.0160   26.2350   31.7340 C   0  0  0  0  0  0  0  0  0  0  0  0
   36.8690   25.4740   32.5400 C   0  0  0  0  0  0  0  0  0  0  0  0
   36.8540   24.1090   32.4290 N   0  0  0  0  0  0  0  0  0  0  0  0
   36.0290   23.4860   31.5540 C   0  0  0  0  0  0  0  0  0  0  0  0
   35.1950   24.1980   30.7630 N   0  0  0  0  0  0  0  0  0  0  0  0
   34.4810   26.0510   30.1730 H   0  0  0  0  0  0  0  0  0  0  0  0
   36.0140   22.4070   31.4630 H   0  0  0  0  0  0  0  0  0  0  0  0
   37.7700   26.0830   33.4900 C   0  0  0  0  0  0  0  0  0  0  0  0
   37.3060   26.3260   34.7540 C   0  0  0  0  0  0  0  0  0  0  0  0
   38.1050   26.8990   35.7340 C   0  0  0  0  0  0  0  0  0  0  0  0
   39.4140   27.2230   35.3750 C   0  0  0  0  0  0  0  0  0  0  0  0
   39.9450   27.0010   34.0990 C   0  0  0  0  0  0  0  0  0  0  0  0
   39.0740   26.4210   33.1770 C   0  0  0  0  0  0  0  0  0  0  0  0
   36.3340   26.1580   35.1830 H   0  0  0  0  0  0  0  0  0  0  0  0
   37.8350   27.1270   36.7490 H   0  0  0  0  0  0  0  0  0  0  0  0
   40.1280   27.6790   36.0680 H   0  0  0  0  0  0  0  0  0  0  0  0
   40.9430   27.2550   33.8430 H   0  0  0  0  0  0  0  0  0  0  0  0
   39.4470   26.2330   32.1800 H   0  0  0  0  0  0  0  0  0  0  0  0
   35.8540   27.6550   31.7190 C   0  0  0  0  0  0  0  0  0  0  0  0
   36.5890   28.3630   30.7580 C   0  0  0  0  0  0  0  0  0  0  0  0
   37.2830   28.1050   29.9730 H   0  0  0  0  0  0  0  0  0  0  0  0
   36.2900   29.7180   30.9350 C   0  0  0  0  0  0  0  0  0  0  0  0
   36.6410   30.6040   30.4050 H   0  0  0  0  0  0  0  0  0  0  0  0
   35.4180   29.7950   31.9550 N   0  0  0  0  0  0  0  0  0  0  0  0
   34.9910   30.6770   32.3430 H   0  0  0  0  0  0  0  0  0  0  0  0
   35.1480   28.5840   32.4300 N   0  0  0  0  0  0  0  0  0  0  0  0
  1  2  1  0  0  0  0
  2  3  2  0  0  0  0
  3  9  1  0  0  0  0
  4  3  1  0  0  0  0
  5  4  2  0  0  0  0
  6  1  2  0  0  0  0
  6  5  1  0  0  0  0
  7  1  1  0  0  0  0
  8  5  1  0  0  0  0
  9 10  1  0  0  0  0
 10 15  1  0  0  0  0
 10 11  2  0  0  0  0
 11 16  1  0  0  0  0
 12 11  1  0  0  0  0
 12 17  1  0  0  0  0
 13 12  2  0  0  0  0
 14  9  2  0  0  0  0
 14 13  1  0  0  0  0
 18 13  1  0  0  0  0
 19 14  1  0  0  0  0
 20  2  1  0  0  0  0
 20 27  2  0  0  0  0
 21 23  2  0  0  0  0
 21 20  1  0  0  0  0
 22 21  1  0  0  0  0
 23 25  1  0  0  0  0
 24 23  1  0  0  0  0
 25 26  1  0  0  0  0
 25 27  1  0  0  0  0
M  END
>  <minimizedAffinity>
-4.73595667

$$$$

 OpenBabel03272509123D

 27 29  0  0  0  0  0  0  0  0999 V2000
   37.0970   24.6590   32.7040 C   0  0  0  0  0  0  0  0  0  0  0  0
   37.0710   26.0690   32.8990 C   0  0  0  0  0  0  0  0  0  0  0  0
   36.2340   26.8250   32.0710 C   0  0  0  0  0  0  0  0  0  0  0  0
   35.4850   26.1870   31.1180 N   0  0  0  0  0  0  0  0  0  0  0  0
   35.5400   24.8420   30.9650 C   0  0  0  0  0  0  0  0  0  0  0  0
   36.3400   24.0900   31.7530 N   0  0  0  0  0  0  0  0  0  0  0  0
   37.7140   24.0080   33.3010 H   0  0  0  0  0  0  0  0  0  0  0  0
   34.9490   24.3360   30.2130 H   0  0  0  0  0  0  0  0  0  0  0  0
   36.1340   28.2600   32.1880 C   0  0  0  0  0  0  0  0  0  0  0  0
   36.6830   29.0270   31.1970 C   0  0  0  0  0  0  0  0  0  0  0  0
   36.6250   30.4140   31.2230 C   0  0  0  0  0  0  0  0  0  0  0  0
   35.9790   31.0020   32.3110 C   0  0  0  0  0  0  0  0  0  0  0  0
   35.4000   30.2700   33.3550 C   0  0  0  0  0  0  0  0  0  0  0  0
   35.5040   28.8840   33.2490 C   0  0  0  0  0  0  0  0  0  0  0  0
   37.2240   28.7400   30.3130 H   0  0  0  0  0  0  0  0  0  0  0  0
   37.0220   31.1000   30.4970 H   0  0  0  0  0  0  0  0  0  0  0  0
   35.8770   32.0850   32.4320 H   0  0  0  0  0  0  0  0  0  0  0  0
   34.9140   30.7350   34.1770 H   0  0  0  0  0  0  0  0  0  0  0  0
   35.0690   28.2840   34.0370 H   0  0  0  0  0  0  0  0  0  0  0  0
   37.9510   26.5380   33.9230 C   0  0  0  0  0  0  0  0  0  0  0  0
   37.4660   26.5030   35.2370 C   0  0  0  0  0  0  0  0  0  0  0  0
   36.5490   26.1910   35.7130 H   0  0  0  0  0  0  0  0  0  0  0  0
   38.4770   27.0150   36.0580 C   0  0  0  0  0  0  0  0  0  0  0  0
   38.5160   27.1640   37.1380 H   0  0  0  0  0  0  0  0  0  0  0  0
   39.5070   27.3330   35.2560 N   0  0  0  0  0  0  0  0  0  0  0  0
   40.4280   27.7450   35.5590 H   0  0  0  0  0  0  0  0  0  0  0  0
   39.2140   27.0580   33.9890 N   0  0  0  0  0  0  0  0  0  0  0  0
  1  2  1  0  0  0  0
  1  7  1  0  0  0  0
  2 20  1  0  0  0  0
  3  9  1  0  0  0  0
  3  2  2  0  0  0  0
  4  3  1  0  0  0  0
  5  4  2  0  0  0  0
  5  6  1  0  0  0  0
  6  1  2  0  0  0  0
  8  5  1  0  0  0  0
  9 14  1  0  0  0  0
 10 11  1  0  0  0  0
 10  9  2  0  0  0  0
 11 12  2  0  0  0  0
 12 17  1  0  0  0  0
 12 13  1  0  0  0  0
 13 18  1  0  0  0  0
 14 13  2  0  0  0  0
 14 19  1  0  0  0  0
 15 10  1  0  0  0  0
 16 11  1  0  0  0  0
 20 27  2  0  0  0  0
 20 21  1  0  0  0  0
 21 22  1  0  0  0  0
 21 23  2  0  0  0  0
 23 24  1  0  0  0  0
 25 26  1  0  0  0  0
 25 23  1  0  0  0  0
 27 25  1  0  0  0  0
M  END
>  <minimizedAffinity>
-4.61268282

$$$$

 OpenBabel03272509123D

 27 29  0  0  0  0  0  0  0  0999 V2000
   38.5860   25.3140   32.3070 C   0  0  0  0  0  0  0  0  0  0  0  0
   38.4900   24.5720   33.5190 C   0  0  0  0  0  0  0  0  0  0  0  0
   39.1060   25.1040   34.6570 C   0  0  0  0  0  0  0  0  0  0  0  0
   39.7700   26.2980   34.5620 N   0  0  0  0  0  0  0  0  0  0  0  0
   39.8380   26.9710   33.3880 C   0  0  0  0  0  0  0  0  0  0  0  0
   39.2500   26.4800   32.2750 N   0  0  0  0  0  0  0  0  0  0  0  0
   38.1390   24.9730   31.3890 H   0  0  0  0  0  0  0  0  0  0  0  0
   40.3620   27.9160   33.3100 H   0  0  0  0  0  0  0  0  0  0  0  0
   39.0660   24.4310   35.9340 C   0  0  0  0  0  0  0  0  0  0  0  0
   38.0540   24.7520   36.7990 C   0  0  0  0  0  0  0  0  0  0  0  0
   37.9320   24.1490   38.0430 C   0  0  0  0  0  0  0  0  0  0  0  0
   38.8910   23.1930   38.3820 C   0  0  0  0  0  0  0  0  0  0  0  0
   39.9480   22.8250   37.5410 C   0  0  0  0  0  0  0  0  0  0  0  0
   39.9950   23.4790   36.3120 C   0  0  0  0  0  0  0  0  0  0  0  0
   37.2580   25.4680   36.7040 H   0  0  0  0  0  0  0  0  0  0  0  0
   37.1780   24.3290   38.7880 H   0  0  0  0  0  0  0  0  0  0  0  0
   38.8890   22.6580   39.3370 H   0  0  0  0  0  0  0  0  0  0  0  0
   40.6700   22.0970   37.8170 H   0  0  0  0  0  0  0  0  0  0  0  0
   40.7970   23.2220   35.6340 H   0  0  0  0  0  0  0  0  0  0  0  0
   37.7830   23.3360   33.3980 C   0  0  0  0  0  0  0  0  0  0  0  0
   36.9060   23.2150   32.3120 C   0  0  0  0  0  0  0  0  0  0  0  0
   36.6080   23.8430   31.4870 H   0  0  0  0  0  0  0  0  0  0  0  0
   36.3220   21.9460   32.4010 C   0  0  0  0  0  0  0  0  0  0  0  0
   35.5880   21.4490   31.7640 H   0  0  0  0  0  0  0  0  0  0  0  0
   36.8370   21.3550   33.4920 N   0  0  0  0  0  0  0  0  0  0  0  0
   36.6060   20.3890   33.8440 H   0  0  0  0  0  0  0  0  0  0  0  0
   37.7040   22.1630   34.0940 N   0  0  0  0  0  0  0  0  0  0  0  0
  1  2  1  0  0  0  0
  2  3  2  0  0  0  0
  3  9  1  0  0  0  0
  4  3  1  0  0  0  0
  5  4  2  0  0  0  0
  6  1  2  0  0  0  0
  6  5  1  0  0  0  0
  7  1  1  0  0  0  0
  8  5  1  0  0  0  0
  9 14  2  0  0  0  0
  9 10  1  0  0  0  0
 10 11  2  0  0  0  0
 11 12  1  0  0  0  0
 11 16  1  0  0  0  0
 12 17  1  0  0  0  0
 13 18  1  0  0  0  0
 13 12  2  0  0  0  0
 14 13  1  0  0  0  0
 15 10  1  0  0  0  0
 19 14  1  0  0  0  0
 20  2  1  0  0  0  0
 20 27  2  0  0  0  0
 21 23  2  0  0  0  0
 21 20  1  0  0  0  0
 22 21  1  0  0  0  0
 23 25  1  0  0  0  0
 24 23  1  0  0  0  0
 25 26  1  0  0  0  0
 25 27  1  0  0  0  0
M  END
>  <minimizedAffinity>
-4.57281828

$$$$

 OpenBabel03272509123D

 27 29  0  0  0  0  0  0  0  0999 V2000
   37.5740   23.6400   32.4570 C   0  0  0  0  0  0  0  0  0  0  0  0
   38.0580   23.8660   33.7770 C   0  0  0  0  0  0  0  0  0  0  0  0
   37.9470   22.8190   34.6990 C   0  0  0  0  0  0  0  0  0  0  0  0
   37.3850   21.6360   34.3010 N   0  0  0  0  0  0  0  0  0  0  0  0
   36.9360   21.4620   33.0350 C   0  0  0  0  0  0  0  0  0  0  0  0
   37.0330   22.4570   32.1250 N   0  0  0  0  0  0  0  0  0  0  0  0
   37.6240   24.3940   31.6900 H   0  0  0  0  0  0  0  0  0  0  0  0
   36.4920   20.5270   32.7170 H   0  0  0  0  0  0  0  0  0  0  0  0
   38.4080   22.9470   36.0610 C   0  0  0  0  0  0  0  0  0  0  0  0
   37.5250   23.4100   36.9990 C   0  0  0  0  0  0  0  0  0  0  0  0
   37.8790   23.5550   38.3330 C   0  0  0  0  0  0  0  0  0  0  0  0
   39.1840   23.2080   38.6840 C   0  0  0  0  0  0  0  0  0  0  0  0
   40.1310   22.7310   37.7700 C   0  0  0  0  0  0  0  0  0  0  0  0
   39.6920   22.6160   36.4530 C   0  0  0  0  0  0  0  0  0  0  0  0
   36.5050   23.7350   36.8950 H   0  0  0  0  0  0  0  0  0  0  0  0
   37.2620   23.9060   39.1410 H   0  0  0  0  0  0  0  0  0  0  0  0
   39.5680   23.2840   39.7070 H   0  0  0  0  0  0  0  0  0  0  0  0
   41.1210   22.4730   38.0560 H   0  0  0  0  0  0  0  0  0  0  0  0
   40.3950   22.2510   35.7170 H   0  0  0  0  0  0  0  0  0  0  0  0
   38.5770   25.1800   33.9960 C   0  0  0  0  0  0  0  0  0  0  0  0
   37.6650   26.1570   34.4160 C   0  0  0  0  0  0  0  0  0  0  0  0
   36.6100   26.1820   34.6390 H   0  0  0  0  0  0  0  0  0  0  0  0
   38.3820   27.3510   34.5520 C   0  0  0  0  0  0  0  0  0  0  0  0
   38.0610   28.3490   34.8540 H   0  0  0  0  0  0  0  0  0  0  0  0
   39.6570   27.0800   34.2240 N   0  0  0  0  0  0  0  0  0  0  0  0
   40.4580   27.7640   34.2210 H   0  0  0  0  0  0  0  0  0  0  0  0
   39.7910   25.7990   33.8930 N   0  0  0  0  0  0  0  0  0  0  0  0
  1  2  1  0  0  0  0
  2 20  1  0  0  0  0
  2  3  2  0  0  0  0
  3  9  1  0  0  0  0
  4  3  1  0  0  0  0
  5  4  2  0  0  0  0
  6  1  2  0  0  0  0
  6  5  1  0  0  0  0
  7  1  1  0  0  0  0
  8  5  1  0  0  0  0
  9 14  2  0  0  0  0
  9 10  1  0  0  0  0
 10 11  2  0  0  0  0
 11 12  1  0  0  0  0
 11 16  1  0  0  0  0
 12 17  1  0  0  0  0
 13 18  1  0  0  0  0
 13 12  2  0  0  0  0
 14 13  1  0  0  0  0
 15 10  1  0  0  0  0
 19 14  1  0  0  0  0
 20 21  1  0  0  0  0
 21 23  2  0  0  0  0
 21 22  1  0  0  0  0
 23 24  1  0  0  0  0
 25 23  1  0  0  0  0
 26 25  1  0  0  0  0
 27 20  2  0  0  0  0
 27 25  1  0  0  0  0
M  END
>  <minimizedAffinity>
-4.52084494

$$$$

 OpenBabel03272509123D

 27 29  0  0  0  0  0  0  0  0999 V2000
   36.4690   28.4400   31.8240 C   0  0  0  0  0  0  0  0  0  0  0  0
   35.8030   29.4290   32.6030 C   0  0  0  0  0  0  0  0  0  0  0  0
   35.7830   29.2590   33.9910 C   0  0  0  0  0  0  0  0  0  0  0  0
   36.3960   28.1640   34.5390 N   0  0  0  0  0  0  0  0  0  0  0  0
   37.0180   27.2460   33.7620 C   0  0  0  0  0  0  0  0  0  0  0  0
   37.0520   27.3860   32.4180 N   0  0  0  0  0  0  0  0  0  0  0  0
   36.5290   28.4980   30.7500 H   0  0  0  0  0  0  0  0  0  0  0  0
   37.5040   26.3790   34.1930 H   0  0  0  0  0  0  0  0  0  0  0  0
   35.1360   30.2060   34.8690 C   0  0  0  0  0  0  0  0  0  0  0  0
   35.9170   31.1330   35.5040 C   0  0  0  0  0  0  0  0  0  0  0  0
   35.3790   32.0860   36.3570 C   0  0  0  0  0  0  0  0  0  0  0  0
   33.9960   32.0620   36.5450 C   0  0  0  0  0  0  0  0  0  0  0  0
   33.1470   31.1380   35.9240 C   0  0  0  0  0  0  0  0  0  0  0  0
   33.7700   30.2170   35.0840 C   0  0  0  0  0  0  0  0  0  0  0  0
   36.9830   31.2760   35.4850 H   0  0  0  0  0  0  0  0  0  0  0  0
   35.9040   32.8530   36.8990 H   0  0  0  0  0  0  0  0  0  0  0  0
   33.4690   32.7660   37.1960 H   0  0  0  0  0  0  0  0  0  0  0  0
   32.0970   31.1330   36.0800 H   0  0  0  0  0  0  0  0  0  0  0  0
   33.1480   29.4860   34.5860 H   0  0  0  0  0  0  0  0  0  0  0  0
   35.2010   30.4740   31.8350 C   0  0  0  0  0  0  0  0  0  0  0  0
   36.0390   31.5200   31.4270 C   0  0  0  0  0  0  0  0  0  0  0  0
   37.0850   31.7590   31.5390 H   0  0  0  0  0  0  0  0  0  0  0  0
   35.2440   32.4230   30.7120 C   0  0  0  0  0  0  0  0  0  0  0  0
   35.4930   33.3660   30.2240 H   0  0  0  0  0  0  0  0  0  0  0  0
   33.9960   31.9230   30.7050 N   0  0  0  0  0  0  0  0  0  0  0  0
   33.1530   32.3600   30.2490 H   0  0  0  0  0  0  0  0  0  0  0  0
   33.9520   30.7690   31.3640 N   0  0  0  0  0  0  0  0  0  0  0  0
  1  6  2  0  0  0  0
  1  2  1  0  0  0  0
  2  3  2  0  0  0  0
  3  4  1  0  0  0  0
  3  9  1  0  0  0  0
  5  8  1  0  0  0  0
  5  4  2  0  0  0  0
  6  5  1  0  0  0  0
  7  1  1  0  0  0  0
  9 14  2  0  0  0  0
  9 10  1  0  0  0  0
 10 11  2  0  0  0  0
 11 12  1  0  0  0  0
 11 16  1  0  0  0  0
 12 17  1  0  0  0  0
 13 18  1  0  0  0  0
 13 12  2  0  0  0  0
 14 13  1  0  0  0  0
 15 10  1  0  0  0  0
 19 14  1  0  0  0  0
 20  2  1  0  0  0  0
 21 22  1  0  0  0  0
 21 20  1  0  0  0  0
 23 21  2  0  0  0  0
 24 23  1  0  0  0  0
 25 23  1  0  0  0  0
 25 27  1  0  0  0  0
 26 25  1  0  0  0  0
 27 20  2  0  0  0  0
M  END
>  <minimizedAffinity>
-4.51219511

$$$$

 OpenBabel03272509123D

 27 29  0  0  0  0  0  0  0  0999 V2000
   38.1700   24.4970   34.4990 C   0  0  0  0  0  0  0  0  0  0  0  0
   39.3390   24.0510   35.1780 C   0  0  0  0  0  0  0  0  0  0  0  0
   40.5350   24.0040   34.4520 C   0  0  0  0  0  0  0  0  0  0  0  0
   40.5320   24.3820   33.1360 N   0  0  0  0  0  0  0  0  0  0  0  0
   39.3960   24.7990   32.5280 C   0  0  0  0  0  0  0  0  0  0  0  0
   38.2290   24.8540   33.2070 N   0  0  0  0  0  0  0  0  0  0  0  0
   37.2120   24.5620   34.9870 H   0  0  0  0  0  0  0  0  0  0  0  0
   39.3910   25.0980   31.4870 H   0  0  0  0  0  0  0  0  0  0  0  0
   41.7750   23.5680   35.0480 C   0  0  0  0  0  0  0  0  0  0  0  0
   42.5720   24.5120   35.6400 C   0  0  0  0  0  0  0  0  0  0  0  0
   43.7760   24.1810   36.2450 C   0  0  0  0  0  0  0  0  0  0  0  0
   44.1480   22.8370   36.2270 C   0  0  0  0  0  0  0  0  0  0  0  0
   43.3770   21.8280   35.6360 C   0  0  0  0  0  0  0  0  0  0  0  0
   42.1840   22.2470   35.0520 C   0  0  0  0  0  0  0  0  0  0  0  0
   42.4450   25.5760   35.7240 H   0  0  0  0  0  0  0  0  0  0  0  0
   44.4670   24.8440   36.7350 H   0  0  0  0  0  0  0  0  0  0  0  0
   45.0770   22.4680   36.6740 H   0  0  0  0  0  0  0  0  0  0  0  0
   43.6770   20.8100   35.6300 H   0  0  0  0  0  0  0  0  0  0  0  0
   41.5600   21.4970   34.5850 H   0  0  0  0  0  0  0  0  0  0  0  0
   39.1210   23.6720   36.5390 C   0  0  0  0  0  0  0  0  0  0  0  0
   38.1520   24.3950   37.2470 C   0  0  0  0  0  0  0  0  0  0  0  0
   37.4800   25.2090   37.0240 H   0  0  0  0  0  0  0  0  0  0  0  0
   38.1190   23.8680   38.5440 C   0  0  0  0  0  0  0  0  0  0  0  0
   37.5130   24.1370   39.4100 H   0  0  0  0  0  0  0  0  0  0  0  0
   39.0290   22.8810   38.5870 N   0  0  0  0  0  0  0  0  0  0  0  0
   39.2550   22.2790   39.4220 H   0  0  0  0  0  0  0  0  0  0  0  0
   39.6320   22.7510   37.4090 N   0  0  0  0  0  0  0  0  0  0  0  0
  1  7  1  0  0  0  0
  1  2  1  0  0  0  0
  2 20  1  0  0  0  0
  3  9  1  0  0  0  0
  3  2  2  0  0  0  0
  4  3  1  0  0  0  0
  5  4  2  0  0  0  0
  5  6  1  0  0  0  0
  6  1  2  0  0  0  0
  8  5  1  0  0  0  0
  9 14  2  0  0  0  0
  9 10  1  0  0  0  0
 10 15  1  0  0  0  0
 10 11  2  0  0  0  0
 11 16  1  0  0  0  0
 12 11  1  0  0  0  0
 12 17  1  0  0  0  0
 13 12  2  0  0  0  0
 14 13  1  0  0  0  0
 18 13  1  0  0  0  0
 19 14  1  0  0  0  0
 20 21  1  0  0  0  0
 20 27  2  0  0  0  0
 21 23  2  0  0  0  0
 22 21  1  0  0  0  0
 23 25  1  0  0  0  0
 23 24  1  0  0  0  0
 25 26  1  0  0  0  0
 27 25  1  0  0  0  0
M  END
>  <minimizedAffinity>
-4.49711275

$$$$
