
 OpenBabel03272510163D

 27 29  0  0  0  0  0  0  0  0999 V2000
   37.2070   29.5540   51.2200 Br  0  0  0  0  0  0  0  0  0  0  0  0
   36.0080   29.3330   49.7410 C   0  0  0  0  0  0  0  0  0  0  0  0
   36.0990   30.1350   48.6170 C   0  0  0  0  0  0  0  0  0  0  0  0
   35.2070   29.9160   47.6020 C   0  0  0  0  0  0  0  0  0  0  0  0
   34.2300   28.9460   47.6420 C   0  0  0  0  0  0  0  0  0  0  0  0
   34.1590   28.1630   48.7640 C   0  0  0  0  0  0  0  0  0  0  0  0
   35.0440   28.3570   49.8090 C   0  0  0  0  0  0  0  0  0  0  0  0
   35.2970   30.5550   46.7340 H   0  0  0  0  0  0  0  0  0  0  0  0
   33.4190   27.3850   48.8630 H   0  0  0  0  0  0  0  0  0  0  0  0
   34.9990   27.7410   50.7100 H   0  0  0  0  0  0  0  0  0  0  0  0
   37.9720   33.1720   49.4060 C   0  0  0  0  0  0  0  0  0  0  0  0
   39.0230   33.1840   48.4390 C   0  0  0  0  0  0  0  0  0  0  0  0
   39.0560   32.1290   47.5280 C   0  0  0  0  0  0  0  0  0  0  0  0
   38.1040   31.1530   47.6020 N   0  0  0  0  0  0  0  0  0  0  0  0
   37.1220   31.1770   48.5340 C   0  0  0  0  0  0  0  0  0  0  0  0
   37.0600   32.1910   49.4370 N   0  0  0  0  0  0  0  0  0  0  0  0
   37.8900   33.9720   50.1500 H   0  0  0  0  0  0  0  0  0  0  0  0
   39.7440   33.9930   48.4430 H   0  0  0  0  0  0  0  0  0  0  0  0
   39.8330   32.1050   46.7860 H   0  0  0  0  0  0  0  0  0  0  0  0
   33.3150   28.7690   46.5250 C   0  0  0  0  0  0  0  0  0  0  0  0
   31.9400   28.8010   46.6020 C   0  0  0  0  0  0  0  0  0  0  0  0
   31.3450   28.9600   47.4940 H   0  0  0  0  0  0  0  0  0  0  0  0
   31.4240   28.5920   45.3180 C   0  0  0  0  0  0  0  0  0  0  0  0
   30.3640   28.5700   45.1050 H   0  0  0  0  0  0  0  0  0  0  0  0
   32.5040   28.4400   44.5140 N   0  0  0  0  0  0  0  0  0  0  0  0
   32.3070   28.2710   43.5040 H   0  0  0  0  0  0  0  0  0  0  0  0
   33.6200   28.5470   45.2370 N   0  0  0  0  0  0  0  0  0  0  0  0
  2  7  1  0  0  0  0
  2  1  1  0  0  0  0
  3  2  2  0  0  0  0
  4  5  2  0  0  0  0
  4  3  1  0  0  0  0
  5  6  1  0  0  0  0
  6  9  1  0  0  0  0
  6  7  2  0  0  0  0
  7 10  1  0  0  0  0
  8  4  1  0  0  0  0
 11 16  1  0  0  0  0
 11 17  1  0  0  0  0
 12 18  1  0  0  0  0
 12 11  2  0  0  0  0
 13 14  2  0  0  0  0
 13 12  1  0  0  0  0
 14 15  1  0  0  0  0
 15  3  1  0  0  0  0
 15 16  2  0  0  0  0
 19 13  1  0  0  0  0
 20 21  1  0  0  0  0
 20  5  1  0  0  0  0
 21 22  1  0  0  0  0
 23 21  2  0  0  0  0
 24 23  1  0  0  0  0
 25 27  1  0  0  0  0
 25 23  1  0  0  0  0
 26 25  1  0  0  0  0
 27 20  2  0  0  0  0
M  END
>  <minimizedAffinity>
-5.70744944

>  <minimizedRMSD>
0.399229795

$$$$
