
 OpenBabel03272510163D

 27 29  0  0  0  0  0  0  0  0999 V2000
   37.4390   29.2030   50.8700 Br  0  0  0  0  0  0  0  0  0  0  0  0
   36.0250   29.2760   49.5780 C   0  0  0  0  0  0  0  0  0  0  0  0
   35.9990   30.2520   48.5970 C   0  0  0  0  0  0  0  0  0  0  0  0
   34.9560   30.2380   47.7100 C   0  0  0  0  0  0  0  0  0  0  0  0
   33.9390   29.3110   47.7440 C   0  0  0  0  0  0  0  0  0  0  0  0
   33.9850   28.3540   48.7240 C   0  0  0  0  0  0  0  0  0  0  0  0
   35.0240   28.3380   49.6370 C   0  0  0  0  0  0  0  0  0  0  0  0
   34.9560   31.0100   46.9520 H   0  0  0  0  0  0  0  0  0  0  0  0
   33.2210   27.5970   48.8100 H   0  0  0  0  0  0  0  0  0  0  0  0
   35.0740   27.5820   50.4240 H   0  0  0  0  0  0  0  0  0  0  0  0
   38.0060   33.1870   49.4400 C   0  0  0  0  0  0  0  0  0  0  0  0
   39.0360   33.1900   48.4510 C   0  0  0  0  0  0  0  0  0  0  0  0
   39.0100   32.1640   47.5080 C   0  0  0  0  0  0  0  0  0  0  0  0
   38.0210   31.2240   47.5710 N   0  0  0  0  0  0  0  0  0  0  0  0
   37.0600   31.2560   48.5240 C   0  0  0  0  0  0  0  0  0  0  0  0
   37.0570   32.2420   49.4600 N   0  0  0  0  0  0  0  0  0  0  0  0
   37.9700   33.9650   50.2100 H   0  0  0  0  0  0  0  0  0  0  0  0
   39.7880   33.9700   48.4660 H   0  0  0  0  0  0  0  0  0  0  0  0
   39.7700   32.1340   46.7490 H   0  0  0  0  0  0  0  0  0  0  0  0
   32.8600   29.3570   46.7690 C   0  0  0  0  0  0  0  0  0  0  0  0
   32.0550   28.2980   46.4120 C   0  0  0  0  0  0  0  0  0  0  0  0
   32.1050   27.2860   46.8010 H   0  0  0  0  0  0  0  0  0  0  0  0
   31.1440   28.7440   45.4500 C   0  0  0  0  0  0  0  0  0  0  0  0
   30.3960   28.1040   45.0020 H   0  0  0  0  0  0  0  0  0  0  0  0
   31.4310   30.0550   45.2590 N   0  0  0  0  0  0  0  0  0  0  0  0
   30.8420   30.5590   44.5630 H   0  0  0  0  0  0  0  0  0  0  0  0
   32.4500   30.4090   46.0450 N   0  0  0  0  0  0  0  0  0  0  0  0
  2  7  1  0  0  0  0
  2  1  1  0  0  0  0
  3  2  2  0  0  0  0
  4  5  2  0  0  0  0
  4  3  1  0  0  0  0
  5  6  1  0  0  0  0
  6  9  1  0  0  0  0
  6  7  2  0  0  0  0
  7 10  1  0  0  0  0
  8  4  1  0  0  0  0
 11 16  1  0  0  0  0
 11 17  1  0  0  0  0
 12 18  1  0  0  0  0
 12 11  2  0  0  0  0
 13 14  2  0  0  0  0
 13 12  1  0  0  0  0
 14 15  1  0  0  0  0
 15  3  1  0  0  0  0
 15 16  2  0  0  0  0
 19 13  1  0  0  0  0
 20  5  1  0  0  0  0
 21 20  1  0  0  0  0
 21 22  1  0  0  0  0
 23 21  2  0  0  0  0
 24 23  1  0  0  0  0
 25 23  1  0  0  0  0
 25 27  1  0  0  0  0
 26 25  1  0  0  0  0
 27 20  2  0  0  0  0
M  END
>  <minimizedAffinity>
-5.73018837

>  <minimizedRMSD>
0.24095653

$$$$
