
 OpenBabel03272510163D

 27 29  0  0  0  0  0  0  0  0999 V2000
   37.4360   29.2020   50.8650 Br  0  0  0  0  0  0  0  0  0  0  0  0
   36.0230   29.2770   49.5720 C   0  0  0  0  0  0  0  0  0  0  0  0
   35.9980   30.2540   48.5920 C   0  0  0  0  0  0  0  0  0  0  0  0
   34.9570   30.2420   47.7040 C   0  0  0  0  0  0  0  0  0  0  0  0
   33.9390   29.3150   47.7350 C   0  0  0  0  0  0  0  0  0  0  0  0
   33.9830   28.3570   48.7140 C   0  0  0  0  0  0  0  0  0  0  0  0
   35.0210   28.3400   49.6280 C   0  0  0  0  0  0  0  0  0  0  0  0
   34.9580   31.0150   46.9470 H   0  0  0  0  0  0  0  0  0  0  0  0
   33.2200   27.6000   48.7980 H   0  0  0  0  0  0  0  0  0  0  0  0
   35.0710   27.5820   50.4140 H   0  0  0  0  0  0  0  0  0  0  0  0
   38.0070   33.1860   49.4430 C   0  0  0  0  0  0  0  0  0  0  0  0
   39.0370   33.1920   48.4550 C   0  0  0  0  0  0  0  0  0  0  0  0
   39.0100   32.1690   47.5080 C   0  0  0  0  0  0  0  0  0  0  0  0
   38.0210   31.2290   47.5690 N   0  0  0  0  0  0  0  0  0  0  0  0
   37.0600   31.2580   48.5220 C   0  0  0  0  0  0  0  0  0  0  0  0
   37.0570   32.2420   49.4600 N   0  0  0  0  0  0  0  0  0  0  0  0
   37.9710   33.9620   50.2160 H   0  0  0  0  0  0  0  0  0  0  0  0
   39.7890   33.9710   48.4710 H   0  0  0  0  0  0  0  0  0  0  0  0
   39.7700   32.1400   46.7490 H   0  0  0  0  0  0  0  0  0  0  0  0
   32.8620   29.3630   46.7590 C   0  0  0  0  0  0  0  0  0  0  0  0
   32.5200   30.4560   45.9940 C   0  0  0  0  0  0  0  0  0  0  0  0
   32.9960   31.4310   46.0080 H   0  0  0  0  0  0  0  0  0  0  0  0
   31.4360   30.1030   45.1820 C   0  0  0  0  0  0  0  0  0  0  0  0
   30.9740   30.7860   44.4840 H   0  0  0  0  0  0  0  0  0  0  0  0
   31.1660   28.8090   45.4840 N   0  0  0  0  0  0  0  0  0  0  0  0
   30.3730   28.3720   44.9660 H   0  0  0  0  0  0  0  0  0  0  0  0
   32.0140   28.3790   46.4190 N   0  0  0  0  0  0  0  0  0  0  0  0
  2  7  1  0  0  0  0
  2  1  1  0  0  0  0
  3  2  2  0  0  0  0
  4  5  2  0  0  0  0
  4  3  1  0  0  0  0
  5  6  1  0  0  0  0
  6  9  1  0  0  0  0
  6  7  2  0  0  0  0
  7 10  1  0  0  0  0
  8  4  1  0  0  0  0
 11 16  1  0  0  0  0
 11 17  1  0  0  0  0
 12 18  1  0  0  0  0
 12 11  2  0  0  0  0
 13 14  2  0  0  0  0
 13 12  1  0  0  0  0
 14 15  1  0  0  0  0
 15  3  1  0  0  0  0
 15 16  2  0  0  0  0
 19 13  1  0  0  0  0
 20  5  1  0  0  0  0
 21 22  1  0  0  0  0
 21 20  1  0  0  0  0
 23 25  1  0  0  0  0
 23 21  2  0  0  0  0
 24 23  1  0  0  0  0
 25 27  1  0  0  0  0
 26 25  1  0  0  0  0
 27 20  2  0  0  0  0
M  END
>  <minimizedAffinity>
-5.77335978

>  <minimizedRMSD>
0.285628617

$$$$
