
 OpenBabel03272510293D

 27 29  0  0  0  0  0  0  0  0999 V2000
   38.3170   31.7130   47.3090 C   0  0  0  0  0  0  0  0  0  0  0  0
   39.1440   31.5220   46.1990 C   0  0  0  0  0  0  0  0  0  0  0  0
   38.6000   30.7840   45.1510 C   0  0  0  0  0  0  0  0  0  0  0  0
   37.3310   30.2990   45.2540 N   0  0  0  0  0  0  0  0  0  0  0  0
   36.5620   30.5170   46.3690 C   0  0  0  0  0  0  0  0  0  0  0  0
   37.0570   31.2380   47.4270 N   0  0  0  0  0  0  0  0  0  0  0  0
   40.1310   31.9140   46.1490 H   0  0  0  0  0  0  0  0  0  0  0  0
   39.1400   30.5760   44.2550 H   0  0  0  0  0  0  0  0  0  0  0  0
   38.8620   32.5330   48.4370 C   0  0  0  0  0  0  0  0  0  0  0  0
   38.0180   33.2340   49.3720 C   0  0  0  0  0  0  0  0  0  0  0  0
   38.5970   31.9060   49.8060 C   0  0  0  0  0  0  0  0  0  0  0  0
   39.9260   32.8580   48.2670 H   0  0  0  0  0  0  0  0  0  0  0  0
   36.9230   33.2440   49.2030 H   0  0  0  0  0  0  0  0  0  0  0  0
   38.3940   34.1110   49.9010 H   0  0  0  0  0  0  0  0  0  0  0  0
   37.9680   31.0200   49.8780 H   0  0  0  0  0  0  0  0  0  0  0  0
   39.4710   31.8920   50.4700 H   0  0  0  0  0  0  0  0  0  0  0  0
   35.1980   30.0160   46.4700 C   0  0  0  0  0  0  0  0  0  0  0  0
   35.1400   29.0910   45.8310 H   0  0  0  0  0  0  0  0  0  0  0  0
   34.5210   30.7490   45.9810 H   0  0  0  0  0  0  0  0  0  0  0  0
   34.8150   29.7500   47.8760 C   0  0  0  0  0  0  0  0  0  0  0  0
   34.9260   28.5200   48.4970 C   0  0  0  0  0  0  0  0  0  0  0  0
   35.2860   27.5710   48.1190 H   0  0  0  0  0  0  0  0  0  0  0  0
   34.4680   28.6750   49.8010 C   0  0  0  0  0  0  0  0  0  0  0  0
   34.3740   27.9890   50.6370 H   0  0  0  0  0  0  0  0  0  0  0  0
   34.0960   29.9780   49.9390 N   0  0  0  0  0  0  0  0  0  0  0  0
   33.7030   30.4990   50.7550 H   0  0  0  0  0  0  0  0  0  0  0  0
   34.3080   30.6020   48.7860 N   0  0  0  0  0  0  0  0  0  0  0  0
  1  6  1  0  0  0  0
  1  9  1  0  0  0  0
  2  1  2  0  0  0  0
  3  4  2  0  0  0  0
  3  2  1  0  0  0  0
  4  5  1  0  0  0  0
  5 17  1  0  0  0  0
  5  6  2  0  0  0  0
  7  2  1  0  0  0  0
  8  3  1  0  0  0  0
  9 10  1  0  0  0  0
  9 11  1  0  0  0  0
 10 11  1  0  0  0  0
 10 14  1  0  0  0  0
 11 15  1  0  0  0  0
 11 16  1  0  0  0  0
 12  9  1  0  0  0  0
 13 10  1  0  0  0  0
 17 20  1  0  0  0  0
 18 17  1  0  0  0  0
 19 17  1  0  0  0  0
 20 21  1  0  0  0  0
 20 27  2  0  0  0  0
 21 23  2  0  0  0  0
 22 21  1  0  0  0  0
 23 25  1  0  0  0  0
 23 24  1  0  0  0  0
 25 26  1  0  0  0  0
 27 25  1  0  0  0  0
M  END
>  <minimizedAffinity>
-4.59953976

>  <minimizedRMSD>
5.19351196

$$$$
