
 OpenBabel03272510163D

 27 29  0  0  0  0  0  0  0  0999 V2000
   37.2030   29.5070   51.1710 Br  0  0  0  0  0  0  0  0  0  0  0  0
   35.9840   29.3370   49.7010 C   0  0  0  0  0  0  0  0  0  0  0  0
   36.0710   30.1670   48.5970 C   0  0  0  0  0  0  0  0  0  0  0  0
   35.1650   29.9840   47.5880 C   0  0  0  0  0  0  0  0  0  0  0  0
   34.1780   29.0240   47.6140 C   0  0  0  0  0  0  0  0  0  0  0  0
   34.1110   28.2140   48.7170 C   0  0  0  0  0  0  0  0  0  0  0  0
   35.0100   28.3710   49.7560 C   0  0  0  0  0  0  0  0  0  0  0  0
   35.2520   30.6440   46.7350 H   0  0  0  0  0  0  0  0  0  0  0  0
   33.3630   27.4410   48.8050 H   0  0  0  0  0  0  0  0  0  0  0  0
   34.9690   27.7330   50.6420 H   0  0  0  0  0  0  0  0  0  0  0  0
   37.9750   33.1740   49.4270 C   0  0  0  0  0  0  0  0  0  0  0  0
   39.0260   33.1890   48.4610 C   0  0  0  0  0  0  0  0  0  0  0  0
   39.0490   32.1450   47.5360 C   0  0  0  0  0  0  0  0  0  0  0  0
   38.0870   31.1780   47.5960 N   0  0  0  0  0  0  0  0  0  0  0  0
   37.1050   31.2000   48.5280 C   0  0  0  0  0  0  0  0  0  0  0  0
   37.0530   32.2020   49.4450 N   0  0  0  0  0  0  0  0  0  0  0  0
   37.9010   33.9640   50.1810 H   0  0  0  0  0  0  0  0  0  0  0  0
   39.7550   33.9890   48.4760 H   0  0  0  0  0  0  0  0  0  0  0  0
   39.8270   32.1230   46.7940 H   0  0  0  0  0  0  0  0  0  0  0  0
   33.2480   28.8860   46.5040 C   0  0  0  0  0  0  0  0  0  0  0  0
   33.5370   28.3250   45.2800 C   0  0  0  0  0  0  0  0  0  0  0  0
   34.4880   27.9090   44.9660 H   0  0  0  0  0  0  0  0  0  0  0  0
   32.3840   28.3790   44.4890 C   0  0  0  0  0  0  0  0  0  0  0  0
   32.3440   28.0020   43.4760 H   0  0  0  0  0  0  0  0  0  0  0  0
   31.4410   28.9710   45.2640 N   0  0  0  0  0  0  0  0  0  0  0  0
   30.5020   29.0950   44.8300 H   0  0  0  0  0  0  0  0  0  0  0  0
   31.9620   29.2670   46.4560 N   0  0  0  0  0  0  0  0  0  0  0  0
  2  7  1  0  0  0  0
  2  1  1  0  0  0  0
  3  2  2  0  0  0  0
  4  5  2  0  0  0  0
  4  3  1  0  0  0  0
  5  6  1  0  0  0  0
  6  9  1  0  0  0  0
  6  7  2  0  0  0  0
  7 10  1  0  0  0  0
  8  4  1  0  0  0  0
 11 16  1  0  0  0  0
 11 17  1  0  0  0  0
 12 18  1  0  0  0  0
 12 11  2  0  0  0  0
 13 14  2  0  0  0  0
 13 12  1  0  0  0  0
 14 15  1  0  0  0  0
 15  3  1  0  0  0  0
 15 16  2  0  0  0  0
 19 13  1  0  0  0  0
 20  5  1  0  0  0  0
 21 20  1  0  0  0  0
 22 21  1  0  0  0  0
 23 25  1  0  0  0  0
 23 21  2  0  0  0  0
 24 23  1  0  0  0  0
 25 27  1  0  0  0  0
 26 25  1  0  0  0  0
 27 20  2  0  0  0  0
M  END
>  <minimizedAffinity>
-5.73847103

>  <minimizedRMSD>
0.287722886

$$$$
