
 OpenBabel03272501133D

 27 29  0  0  1  0  0  0  0  0999 V2000
   37.3770   26.6050   35.2330 C   0  0  1  0  0  0  0  0  0  0  0  0
   38.1790   25.4730   35.6380 C   0  0  1  0  0  0  0  0  0  0  0  0
   38.8720   26.8070   35.4770 C   0  0  0  0  0  0  0  0  0  0  0  0
   36.7000   27.1290   35.9210 H   0  0  0  0  0  0  0  0  0  0  0  0
   38.5550   24.7130   34.8860 H   0  0  0  0  0  0  0  0  0  0  0  0
   39.0930   27.3910   36.3910 H   0  0  0  0  0  0  0  0  0  0  0  0
   39.5360   26.9770   34.6120 H   0  0  0  0  0  0  0  0  0  0  0  0
   37.0170   26.8230   33.7740 C   0  0  0  0  0  0  0  0  0  0  0  0
   36.5730   28.1040   33.4430 C   0  0  0  0  0  0  0  0  0  0  0  0
   36.2280   28.2680   32.1010 C   0  0  0  0  0  0  0  0  0  0  0  0
   36.3290   27.2260   31.2030 N   0  0  0  0  0  0  0  0  0  0  0  0
   36.7690   26.0000   31.5970 C   0  0  0  0  0  0  0  0  0  0  0  0
   37.1160   25.8070   32.9050 N   0  0  0  0  0  0  0  0  0  0  0  0
   36.4990   28.9060   34.1510 H   0  0  0  0  0  0  0  0  0  0  0  0
   35.8710   29.2290   31.7350 H   0  0  0  0  0  0  0  0  0  0  0  0
   36.8490   25.1810   30.8990 H   0  0  0  0  0  0  0  0  0  0  0  0
   37.9550   24.9010   37.0120 C   0  0  0  0  0  0  0  0  0  0  0  0
   36.9160   24.4880   37.0360 H   0  0  0  0  0  0  0  0  0  0  0  0
   38.1180   25.6480   37.8150 H   0  0  0  0  0  0  0  0  0  0  0  0
   38.8780   23.7490   37.1810 C   0  0  0  0  0  0  0  0  0  0  0  0
   39.4600   23.1110   36.0820 C   0  0  0  0  0  0  0  0  0  0  0  0
   39.3190   23.3630   35.0360 H   0  0  0  0  0  0  0  0  0  0  0  0
   40.2590   22.0890   36.5850 C   0  0  0  0  0  0  0  0  0  0  0  0
   40.8220   21.4410   35.9320 H   0  0  0  0  0  0  0  0  0  0  0  0
   40.1500   22.1240   37.9280 N   0  0  0  0  0  0  0  0  0  0  0  0
   40.6560   21.4560   38.5260 H   0  0  0  0  0  0  0  0  0  0  0  0
   39.3330   23.1060   38.2800 N   0  0  0  0  0  0  0  0  0  0  0  0
  1  3  1  0  0  0  0
  1  2  1  0  0  0  0
  1  4  1  1  0  0  0
  2  5  1  6  0  0  0
  2 17  1  0  0  0  0
  3  2  1  0  0  0  0
  3  6  1  0  0  0  0
  7  3  1  0  0  0  0
  8  1  1  0  0  0  0
  9  8  1  0  0  0  0
  9 14  1  0  0  0  0
 10  9  2  0  0  0  0
 11 12  2  0  0  0  0
 11 10  1  0  0  0  0
 12 13  1  0  0  0  0
 13  8  2  0  0  0  0
 15 10  1  0  0  0  0
 16 12  1  0  0  0  0
 17 18  1  0  0  0  0
 17 20  1  0  0  0  0
 17 19  1  0  0  0  0
 20 27  2  0  0  0  0
 21 23  2  0  0  0  0
 21 20  1  0  0  0  0
 22 21  1  0  0  0  0
 23 25  1  0  0  0  0
 24 23  1  0  0  0  0
 25 27  1  0  0  0  0
 25 26  1  0  0  0  0
M  END
>  <minimizedAffinity>
-4.71915531

$$$$

 OpenBabel03272501133D

 27 29  0  0  1  0  0  0  0  0999 V2000
   38.7880   26.3220   34.8030 C   0  0  1  0  0  0  0  0  0  0  0  0
   37.5280   26.7880   34.2710 C   0  0  1  0  0  0  0  0  0  0  0  0
   38.0720   27.4780   35.5020 C   0  0  0  0  0  0  0  0  0  0  0  0
   39.7540   26.5620   34.3380 H   0  0  0  0  0  0  0  0  0  0  0  0
   36.5560   26.2490   34.4910 H   0  0  0  0  0  0  0  0  0  0  0  0
   38.5800   28.4520   35.3690 H   0  0  0  0  0  0  0  0  0  0  0  0
   37.6000   27.2980   36.4830 H   0  0  0  0  0  0  0  0  0  0  0  0
   38.8520   25.0900   35.6890 C   0  0  0  0  0  0  0  0  0  0  0  0
   39.9900   24.2950   35.5430 C   0  0  0  0  0  0  0  0  0  0  0  0
   40.0110   23.1600   36.3520 C   0  0  0  0  0  0  0  0  0  0  0  0
   38.9730   22.8760   37.2160 N   0  0  0  0  0  0  0  0  0  0  0  0
   37.8910   23.6970   37.3060 C   0  0  0  0  0  0  0  0  0  0  0  0
   37.8410   24.8190   36.5260 N   0  0  0  0  0  0  0  0  0  0  0  0
   40.7910   24.5260   34.8670 H   0  0  0  0  0  0  0  0  0  0  0  0
   40.8540   22.4710   36.3190 H   0  0  0  0  0  0  0  0  0  0  0  0
   37.0760   23.4800   37.9790 H   0  0  0  0  0  0  0  0  0  0  0  0
   37.5380   27.4970   32.9440 C   0  0  0  0  0  0  0  0  0  0  0  0
   38.5850   27.4590   32.5540 H   0  0  0  0  0  0  0  0  0  0  0  0
   37.1640   28.5380   33.0150 H   0  0  0  0  0  0  0  0  0  0  0  0
   36.7010   26.7090   32.0020 C   0  0  0  0  0  0  0  0  0  0  0  0
   36.5260   25.3310   32.1550 C   0  0  0  0  0  0  0  0  0  0  0  0
   36.9520   24.7060   32.9330 H   0  0  0  0  0  0  0  0  0  0  0  0
   35.6980   24.9110   31.1190 C   0  0  0  0  0  0  0  0  0  0  0  0
   35.4080   23.8780   31.0140 H   0  0  0  0  0  0  0  0  0  0  0  0
   35.3980   26.0000   30.3840 N   0  0  0  0  0  0  0  0  0  0  0  0
   34.7920   25.9390   29.5550 H   0  0  0  0  0  0  0  0  0  0  0  0
   35.9910   27.0640   30.9070 N   0  0  0  0  0  0  0  0  0  0  0  0
  1  4  1  6  0  0  0
  1  3  1  0  0  0  0
  1  8  1  0  0  0  0
  2  5  1  1  0  0  0
  2  1  1  0  0  0  0
  2  3  1  0  0  0  0
  3  7  1  0  0  0  0
  6  3  1  0  0  0  0
  8 13  1  0  0  0  0
  9  8  2  0  0  0  0
  9 10  1  0  0  0  0
 10 11  2  0  0  0  0
 11 12  1  0  0  0  0
 12 16  1  0  0  0  0
 13 12  2  0  0  0  0
 14  9  1  0  0  0  0
 15 10  1  0  0  0  0
 17 19  1  0  0  0  0
 17  2  1  0  0  0  0
 18 17  1  0  0  0  0
 20 21  1  0  0  0  0
 20 17  1  0  0  0  0
 21 22  1  0  0  0  0
 23 21  2  0  0  0  0
 24 23  1  0  0  0  0
 25 27  1  0  0  0  0
 25 23  1  0  0  0  0
 26 25  1  0  0  0  0
 27 20  2  0  0  0  0
M  END
>  <minimizedAffinity>
-4.42930603

$$$$

 OpenBabel03272501133D

 27 29  0  0  1  0  0  0  0  0999 V2000
   38.7770   26.3390   34.3770 C   0  0  1  0  0  0  0  0  0  0  0  0
   38.7460   26.0580   35.7940 C   0  0  1  0  0  0  0  0  0  0  0  0
   38.2610   27.4130   35.3330 C   0  0  0  0  0  0  0  0  0  0  0  0
   38.0430   25.9250   33.6730 H   0  0  0  0  0  0  0  0  0  0  0  0
   39.6750   26.1440   36.4360 H   0  0  0  0  0  0  0  0  0  0  0  0
   37.1680   27.5770   35.2600 H   0  0  0  0  0  0  0  0  0  0  0  0
   38.8810   28.3080   35.5160 H   0  0  0  0  0  0  0  0  0  0  0  0
   40.0640   26.7720   33.6960 C   0  0  0  0  0  0  0  0  0  0  0  0
   39.9490   27.1340   32.3530 C   0  0  0  0  0  0  0  0  0  0  0  0
   41.1500   27.5050   31.7490 C   0  0  0  0  0  0  0  0  0  0  0  0
   42.3370   27.5020   32.4520 N   0  0  0  0  0  0  0  0  0  0  0  0
   42.3760   27.1340   33.7620 C   0  0  0  0  0  0  0  0  0  0  0  0
   41.2150   26.7660   34.3840 N   0  0  0  0  0  0  0  0  0  0  0  0
   39.0200   27.1330   31.8180 H   0  0  0  0  0  0  0  0  0  0  0  0
   41.1740   27.8080   30.7040 H   0  0  0  0  0  0  0  0  0  0  0  0
   43.3010   27.1280   34.3170 H   0  0  0  0  0  0  0  0  0  0  0  0
   37.7620   25.0340   36.2910 C   0  0  0  0  0  0  0  0  0  0  0  0
   37.3510   24.5040   35.3970 H   0  0  0  0  0  0  0  0  0  0  0  0
   36.9560   25.4830   36.9070 H   0  0  0  0  0  0  0  0  0  0  0  0
   38.5150   24.0250   37.0800 C   0  0  0  0  0  0  0  0  0  0  0  0
   39.6450   23.3870   36.5620 C   0  0  0  0  0  0  0  0  0  0  0  0
   40.0850   23.5400   35.5820 H   0  0  0  0  0  0  0  0  0  0  0  0
   40.1020   22.5140   37.5450 C   0  0  0  0  0  0  0  0  0  0  0  0
   40.9740   21.8970   37.3890 H   0  0  0  0  0  0  0  0  0  0  0  0
   39.2730   22.6340   38.6000 N   0  0  0  0  0  0  0  0  0  0  0  0
   39.4100   22.0820   39.4570 H   0  0  0  0  0  0  0  0  0  0  0  0
   38.3340   23.5280   38.3250 N   0  0  0  0  0  0  0  0  0  0  0  0
  1  4  1  6  0  0  0
  1  3  1  0  0  0  0
  1  2  1  0  0  0  0
  2 17  1  0  0  0  0
  2  5  1  1  0  0  0
  3  7  1  0  0  0  0
  3  2  1  0  0  0  0
  6  3  1  0  0  0  0
  8  1  1  0  0  0  0
  8 13  1  0  0  0  0
  9  8  2  0  0  0  0
 10  9  1  0  0  0  0
 10 11  2  0  0  0  0
 11 12  1  0  0  0  0
 12 16  1  0  0  0  0
 12 13  2  0  0  0  0
 14  9  1  0  0  0  0
 15 10  1  0  0  0  0
 17 19  1  0  0  0  0
 17 20  1  0  0  0  0
 18 17  1  0  0  0  0
 20 27  2  0  0  0  0
 21 20  1  0  0  0  0
 21 23  2  0  0  0  0
 22 21  1  0  0  0  0
 23 25  1  0  0  0  0
 24 23  1  0  0  0  0
 25 26  1  0  0  0  0
 27 25  1  0  0  0  0
M  END
>  <minimizedAffinity>
-4.41838932

$$$$

 OpenBabel03272501133D

 27 29  0  0  1  0  0  0  0  0999 V2000
   37.2620   26.8560   35.1180 C   0  0  1  0  0  0  0  0  0  0  0  0
   38.3430   25.9660   35.4760 C   0  0  1  0  0  0  0  0  0  0  0  0
   38.6030   27.4540   35.5430 C   0  0  0  0  0  0  0  0  0  0  0  0
   36.4110   27.0550   35.7830 H   0  0  0  0  0  0  0  0  0  0  0  0
   38.9850   25.4660   34.6880 H   0  0  0  0  0  0  0  0  0  0  0  0
   38.5700   27.9430   36.5350 H   0  0  0  0  0  0  0  0  0  0  0  0
   39.2400   27.9330   34.7800 H   0  0  0  0  0  0  0  0  0  0  0  0
   36.9540   27.1610   33.6630 C   0  0  0  0  0  0  0  0  0  0  0  0
   36.2820   28.3610   33.4220 C   0  0  0  0  0  0  0  0  0  0  0  0
   35.9920   28.6030   32.0790 C   0  0  0  0  0  0  0  0  0  0  0  0
   36.3540   27.7060   31.0950 N   0  0  0  0  0  0  0  0  0  0  0  0
   37.0070   26.5530   31.4030 C   0  0  0  0  0  0  0  0  0  0  0  0
   37.3070   26.2860   32.7100 N   0  0  0  0  0  0  0  0  0  0  0  0
   36.0060   29.0490   34.1960 H   0  0  0  0  0  0  0  0  0  0  0  0
   35.4720   29.5110   31.7800 H   0  0  0  0  0  0  0  0  0  0  0  0
   37.2920   25.8470   30.6370 H   0  0  0  0  0  0  0  0  0  0  0  0
   38.2110   25.1670   36.7440 C   0  0  0  0  0  0  0  0  0  0  0  0
   37.3420   25.5820   37.3110 H   0  0  0  0  0  0  0  0  0  0  0  0
   39.1400   25.1760   37.3500 H   0  0  0  0  0  0  0  0  0  0  0  0
   37.8520   23.7740   36.3680 C   0  0  0  0  0  0  0  0  0  0  0  0
   38.2000   23.2390   35.1250 C   0  0  0  0  0  0  0  0  0  0  0  0
   38.7430   23.7420   34.3310 H   0  0  0  0  0  0  0  0  0  0  0  0
   37.7190   21.9340   35.0980 C   0  0  0  0  0  0  0  0  0  0  0  0
   37.8610   21.2990   34.2370 H   0  0  0  0  0  0  0  0  0  0  0  0
   37.1110   21.7100   36.2790 N   0  0  0  0  0  0  0  0  0  0  0  0
   36.6730   20.8050   36.4960 H   0  0  0  0  0  0  0  0  0  0  0  0
   37.1900   22.7990   37.0310 N   0  0  0  0  0  0  0  0  0  0  0  0
  1  2  1  0  0  0  0
  1  3  1  0  0  0  0
  1  4  1  1  0  0  0
  2  5  1  6  0  0  0
  2  3  1  0  0  0  0
  2 17  1  0  0  0  0
  3  6  1  0  0  0  0
  7  3  1  0  0  0  0
  8  1  1  0  0  0  0
  9  8  1  0  0  0  0
  9 14  1  0  0  0  0
 10  9  2  0  0  0  0
 11 12  2  0  0  0  0
 11 10  1  0  0  0  0
 12 13  1  0  0  0  0
 13  8  2  0  0  0  0
 15 10  1  0  0  0  0
 16 12  1  0  0  0  0
 17 18  1  0  0  0  0
 17 19  1  0  0  0  0
 20 17  1  0  0  0  0
 20 27  2  0  0  0  0
 21 20  1  0  0  0  0
 22 21  1  0  0  0  0
 23 21  2  0  0  0  0
 23 25  1  0  0  0  0
 24 23  1  0  0  0  0
 25 26  1  0  0  0  0
 25 27  1  0  0  0  0
M  END
>  <minimizedAffinity>
-4.40775919

$$$$

 OpenBabel03272501133D

 27 29  0  0  1  0  0  0  0  0999 V2000
   38.5650   25.6600   33.5710 C   0  0  1  0  0  0  0  0  0  0  0  0
   38.2910   24.6920   34.6080 C   0  0  1  0  0  0  0  0  0  0  0  0
   37.8110   24.3810   33.2080 C   0  0  0  0  0  0  0  0  0  0  0  0
   39.5580   25.7810   33.1190 H   0  0  0  0  0  0  0  0  0  0  0  0
   37.4240   24.8200   35.3270 H   0  0  0  0  0  0  0  0  0  0  0  0
   38.4100   23.6780   32.5980 H   0  0  0  0  0  0  0  0  0  0  0  0
   36.7350   24.4440   32.9720 H   0  0  0  0  0  0  0  0  0  0  0  0
   37.6880   26.8890   33.4020 C   0  0  0  0  0  0  0  0  0  0  0  0
   37.0180   27.3200   34.5480 C   0  0  0  0  0  0  0  0  0  0  0  0
   36.2030   28.4360   34.3570 C   0  0  0  0  0  0  0  0  0  0  0  0
   36.0930   29.0400   33.1210 N   0  0  0  0  0  0  0  0  0  0  0  0
   36.7770   28.5640   32.0440 C   0  0  0  0  0  0  0  0  0  0  0  0
   37.5850   27.4710   32.1990 N   0  0  0  0  0  0  0  0  0  0  0  0
   37.1110   26.8420   35.5030 H   0  0  0  0  0  0  0  0  0  0  0  0
   35.6360   28.8560   35.1850 H   0  0  0  0  0  0  0  0  0  0  0  0
   36.6940   29.0310   31.0750 H   0  0  0  0  0  0  0  0  0  0  0  0
   39.4510   23.9330   35.1920 C   0  0  0  0  0  0  0  0  0  0  0  0
   40.3300   24.6240   35.2050 H   0  0  0  0  0  0  0  0  0  0  0  0
   39.6720   22.9990   34.6350 H   0  0  0  0  0  0  0  0  0  0  0  0
   39.1260   23.6260   36.6100 C   0  0  0  0  0  0  0  0  0  0  0  0
   38.0400   24.2210   37.2560 C   0  0  0  0  0  0  0  0  0  0  0  0
   37.3430   24.9350   36.8300 H   0  0  0  0  0  0  0  0  0  0  0  0
   38.0200   23.7220   38.5550 C   0  0  0  0  0  0  0  0  0  0  0  0
   37.2680   24.0300   39.2650 H   0  0  0  0  0  0  0  0  0  0  0  0
   39.0550   22.8670   38.6680 N   0  0  0  0  0  0  0  0  0  0  0  0
   39.2470   22.3680   39.5470 H   0  0  0  0  0  0  0  0  0  0  0  0
   39.7090   22.8100   37.5170 N   0  0  0  0  0  0  0  0  0  0  0  0
  1  4  1  6  0  0  0
  1  2  1  0  0  0  0
  2 17  1  0  0  0  0
  2  5  1  1  0  0  0
  3  1  1  0  0  0  0
  3  2  1  0  0  0  0
  6  3  1  0  0  0  0
  7  3  1  0  0  0  0
  8  1  1  0  0  0  0
  8  9  1  0  0  0  0
  9 14  1  0  0  0  0
 10  9  2  0  0  0  0
 10 15  1  0  0  0  0
 11 10  1  0  0  0  0
 12 13  1  0  0  0  0
 12 11  2  0  0  0  0
 13  8  2  0  0  0  0
 16 12  1  0  0  0  0
 17 18  1  0  0  0  0
 17 20  1  0  0  0  0
 19 17  1  0  0  0  0
 20 21  1  0  0  0  0
 20 27  2  0  0  0  0
 21 23  2  0  0  0  0
 22 21  1  0  0  0  0
 23 25  1  0  0  0  0
 23 24  1  0  0  0  0
 25 26  1  0  0  0  0
 27 25  1  0  0  0  0
M  END
>  <minimizedAffinity>
-4.39702415

$$$$

 OpenBabel03272501133D

 27 29  0  0  1  0  0  0  0  0999 V2000
   37.1490   26.8230   35.0620 C   0  0  1  0  0  0  0  0  0  0  0  0
   38.2830   26.0270   35.4720 C   0  0  1  0  0  0  0  0  0  0  0  0
   38.4170   27.5320   35.5370 C   0  0  0  0  0  0  0  0  0  0  0  0
   36.2570   26.9540   35.6900 H   0  0  0  0  0  0  0  0  0  0  0  0
   38.9970   25.5770   34.7160 H   0  0  0  0  0  0  0  0  0  0  0  0
   38.3020   28.0210   36.5230 H   0  0  0  0  0  0  0  0  0  0  0  0
   39.0440   28.0580   34.7970 H   0  0  0  0  0  0  0  0  0  0  0  0
   36.8780   27.0940   33.5920 C   0  0  0  0  0  0  0  0  0  0  0  0
   37.2210   26.0670   32.7110 C   0  0  0  0  0  0  0  0  0  0  0  0
   36.9820   26.3530   31.3670 C   0  0  0  0  0  0  0  0  0  0  0  0
   36.4490   27.5640   30.9760 N   0  0  0  0  0  0  0  0  0  0  0  0
   36.1390   28.5220   31.8920 C   0  0  0  0  0  0  0  0  0  0  0  0
   36.3600   28.2730   33.2180 N   0  0  0  0  0  0  0  0  0  0  0  0
   37.6350   25.1290   33.0280 H   0  0  0  0  0  0  0  0  0  0  0  0
   37.2120   25.6200   30.5960 H   0  0  0  0  0  0  0  0  0  0  0  0
   35.7230   29.4720   31.5920 H   0  0  0  0  0  0  0  0  0  0  0  0
   38.1640   25.2260   36.7400 C   0  0  0  0  0  0  0  0  0  0  0  0
   37.2690   25.6050   37.2920 H   0  0  0  0  0  0  0  0  0  0  0  0
   39.0810   25.2760   37.3620 H   0  0  0  0  0  0  0  0  0  0  0  0
   37.8700   23.8190   36.3630 C   0  0  0  0  0  0  0  0  0  0  0  0
   38.2980   23.2840   35.1450 C   0  0  0  0  0  0  0  0  0  0  0  0
   38.8620   23.7970   34.3730 H   0  0  0  0  0  0  0  0  0  0  0  0
   37.8630   21.9630   35.1080 C   0  0  0  0  0  0  0  0  0  0  0  0
   38.0680   21.3250   34.2630 H   0  0  0  0  0  0  0  0  0  0  0  0
   37.2050   21.7300   36.2610 N   0  0  0  0  0  0  0  0  0  0  0  0
   36.7870   20.8120   36.4660 H   0  0  0  0  0  0  0  0  0  0  0  0
   37.2090   22.8280   37.0030 N   0  0  0  0  0  0  0  0  0  0  0  0
  1  2  1  0  0  0  0
  1  3  1  0  0  0  0
  1  4  1  1  0  0  0
  2  5  1  6  0  0  0
  2  3  1  0  0  0  0
  2 17  1  0  0  0  0
  3  6  1  0  0  0  0
  7  3  1  0  0  0  0
  8  1  1  0  0  0  0
  9 14  1  0  0  0  0
  9  8  2  0  0  0  0
 10  9  1  0  0  0  0
 11 10  2  0  0  0  0
 11 12  1  0  0  0  0
 12 13  2  0  0  0  0
 13  8  1  0  0  0  0
 15 10  1  0  0  0  0
 16 12  1  0  0  0  0
 17 18  1  0  0  0  0
 17 19  1  0  0  0  0
 20 17  1  0  0  0  0
 20 27  2  0  0  0  0
 21 20  1  0  0  0  0
 22 21  1  0  0  0  0
 23 21  2  0  0  0  0
 23 25  1  0  0  0  0
 24 23  1  0  0  0  0
 25 26  1  0  0  0  0
 25 27  1  0  0  0  0
M  END
>  <minimizedAffinity>
-4.30417776

$$$$

 OpenBabel03272501133D

 27 29  0  0  1  0  0  0  0  0999 V2000
   39.1820   25.3900   34.6610 C   0  0  1  0  0  0  0  0  0  0  0  0
   38.4050   26.5950   34.4860 C   0  0  1  0  0  0  0  0  0  0  0  0
   39.8410   26.7420   34.9350 C   0  0  0  0  0  0  0  0  0  0  0  0
   39.5880   24.8170   33.8160 H   0  0  0  0  0  0  0  0  0  0  0  0
   37.6800   26.9540   35.2800 H   0  0  0  0  0  0  0  0  0  0  0  0
   40.5960   27.0230   34.1760 H   0  0  0  0  0  0  0  0  0  0  0  0
   40.0620   27.0270   35.9780 H   0  0  0  0  0  0  0  0  0  0  0  0
   39.0620   24.5630   35.9290 C   0  0  0  0  0  0  0  0  0  0  0  0
   38.0300   24.9250   36.7960 C   0  0  0  0  0  0  0  0  0  0  0  0
   37.9590   24.1620   37.9620 C   0  0  0  0  0  0  0  0  0  0  0  0
   38.8530   23.1410   38.2060 N   0  0  0  0  0  0  0  0  0  0  0  0
   39.8380   22.8430   37.3150 C   0  0  0  0  0  0  0  0  0  0  0  0
   39.9350   23.5710   36.1610 N   0  0  0  0  0  0  0  0  0  0  0  0
   37.3410   25.7210   36.5950 H   0  0  0  0  0  0  0  0  0  0  0  0
   37.1890   24.3600   38.7060 H   0  0  0  0  0  0  0  0  0  0  0  0
   40.5420   22.0460   37.5010 H   0  0  0  0  0  0  0  0  0  0  0  0
   38.0090   26.9850   33.0880 C   0  0  0  0  0  0  0  0  0  0  0  0
   37.7080   26.0500   32.5530 H   0  0  0  0  0  0  0  0  0  0  0  0
   38.8170   27.5220   32.5510 H   0  0  0  0  0  0  0  0  0  0  0  0
   36.7940   27.8360   33.1800 C   0  0  0  0  0  0  0  0  0  0  0  0
   36.4000   28.4210   34.3860 C   0  0  0  0  0  0  0  0  0  0  0  0
   36.9020   28.3310   35.3440 H   0  0  0  0  0  0  0  0  0  0  0  0
   35.2390   29.1420   34.1260 C   0  0  0  0  0  0  0  0  0  0  0  0
   34.7320   29.6920   34.9030 H   0  0  0  0  0  0  0  0  0  0  0  0
   34.9610   28.9880   32.8170 N   0  0  0  0  0  0  0  0  0  0  0  0
   34.1400   29.4330   32.3850 H   0  0  0  0  0  0  0  0  0  0  0  0
   35.8810   28.2150   32.2570 N   0  0  0  0  0  0  0  0  0  0  0  0
  1  4  1  6  0  0  0
  1  3  1  0  0  0  0
  1  8  1  0  0  0  0
  2  1  1  0  0  0  0
  2  3  1  0  0  0  0
  2  5  1  1  0  0  0
  3  7  1  0  0  0  0
  6  3  1  0  0  0  0
  8 13  2  0  0  0  0
  8  9  1  0  0  0  0
  9 10  2  0  0  0  0
 10 11  1  0  0  0  0
 10 15  1  0  0  0  0
 12 16  1  0  0  0  0
 12 11  2  0  0  0  0
 13 12  1  0  0  0  0
 14  9  1  0  0  0  0
 17 20  1  0  0  0  0
 17  2  1  0  0  0  0
 18 17  1  0  0  0  0
 19 17  1  0  0  0  0
 20 21  1  0  0  0  0
 21 22  1  0  0  0  0
 23 21  2  0  0  0  0
 23 24  1  0  0  0  0
 25 23  1  0  0  0  0
 26 25  1  0  0  0  0
 27 25  1  0  0  0  0
 27 20  2  0  0  0  0
M  END
>  <minimizedAffinity>
-4.2788825

$$$$

 OpenBabel03272501133D

 27 29  0  0  1  0  0  0  0  0999 V2000
   37.8600   23.0080   32.6920 C   0  0  1  0  0  0  0  0  0  0  0  0
   38.0420   22.7760   34.1060 C   0  0  1  0  0  0  0  0  0  0  0  0
   37.0150   21.9370   33.3810 C   0  0  0  0  0  0  0  0  0  0  0  0
   38.5710   22.6490   31.9350 H   0  0  0  0  0  0  0  0  0  0  0  0
   37.5610   23.4450   34.8840 H   0  0  0  0  0  0  0  0  0  0  0  0
   37.2950   20.9050   33.0950 H   0  0  0  0  0  0  0  0  0  0  0  0
   35.9400   22.1280   33.5430 H   0  0  0  0  0  0  0  0  0  0  0  0
   37.0030   24.1580   32.1950 C   0  0  0  0  0  0  0  0  0  0  0  0
   37.3410   25.4230   32.6810 C   0  0  0  0  0  0  0  0  0  0  0  0
   36.5230   26.4560   32.2250 C   0  0  0  0  0  0  0  0  0  0  0  0
   35.4730   26.2130   31.3640 N   0  0  0  0  0  0  0  0  0  0  0  0
   35.2000   24.9520   30.9300 C   0  0  0  0  0  0  0  0  0  0  0  0
   35.9840   23.9160   31.3580 N   0  0  0  0  0  0  0  0  0  0  0  0
   38.1600   25.5990   33.3510 H   0  0  0  0  0  0  0  0  0  0  0  0
   36.7000   27.4830   32.5420 H   0  0  0  0  0  0  0  0  0  0  0  0
   34.3800   24.7550   30.2570 H   0  0  0  0  0  0  0  0  0  0  0  0
   39.3360   22.1560   34.5610 C   0  0  0  0  0  0  0  0  0  0  0  0
   40.1670   22.7210   34.0720 H   0  0  0  0  0  0  0  0  0  0  0  0
   39.3890   21.0710   34.3370 H   0  0  0  0  0  0  0  0  0  0  0  0
   39.4620   22.3890   36.0230 C   0  0  0  0  0  0  0  0  0  0  0  0
   38.5620   23.2050   36.7140 C   0  0  0  0  0  0  0  0  0  0  0  0
   37.7140   23.7350   36.2940 H   0  0  0  0  0  0  0  0  0  0  0  0
   38.9610   23.2090   38.0470 C   0  0  0  0  0  0  0  0  0  0  0  0
   38.4230   23.7710   38.7940 H   0  0  0  0  0  0  0  0  0  0  0  0
   40.0540   22.4260   38.1370 N   0  0  0  0  0  0  0  0  0  0  0  0
   40.5340   22.2730   39.0340 H   0  0  0  0  0  0  0  0  0  0  0  0
   40.3500   21.9410   36.9390 N   0  0  0  0  0  0  0  0  0  0  0  0
  1  4  1  6  0  0  0
  1  3  1  0  0  0  0
  1  2  1  0  0  0  0
  2 17  1  0  0  0  0
  2  5  1  1  0  0  0
  3  7  1  0  0  0  0
  3  2  1  0  0  0  0
  6  3  1  0  0  0  0
  8  9  1  0  0  0  0
  8  1  1  0  0  0  0
  9 14  1  0  0  0  0
 10 15  1  0  0  0  0
 10  9  2  0  0  0  0
 11 10  1  0  0  0  0
 12 13  1  0  0  0  0
 12 11  2  0  0  0  0
 13  8  2  0  0  0  0
 16 12  1  0  0  0  0
 17 20  1  0  0  0  0
 18 17  1  0  0  0  0
 19 17  1  0  0  0  0
 20 21  1  0  0  0  0
 20 27  2  0  0  0  0
 21 23  2  0  0  0  0
 22 21  1  0  0  0  0
 23 25  1  0  0  0  0
 23 24  1  0  0  0  0
 25 26  1  0  0  0  0
 27 25  1  0  0  0  0
M  END
>  <minimizedAffinity>
-4.23703003

$$$$

 OpenBabel03272501133D

 27 29  0  0  1  0  0  0  0  0999 V2000
   36.6480   28.4110   33.1150 C   0  0  1  0  0  0  0  0  0  0  0  0
   35.5390   29.1520   33.6700 C   0  0  1  0  0  0  0  0  0  0  0  0
   36.3900   28.3400   34.6200 C   0  0  0  0  0  0  0  0  0  0  0  0
   37.5870   28.8900   32.8080 H   0  0  0  0  0  0  0  0  0  0  0  0
   34.4770   28.7570   33.6200 H   0  0  0  0  0  0  0  0  0  0  0  0
   37.1510   28.8740   35.2210 H   0  0  0  0  0  0  0  0  0  0  0  0
   35.9910   27.4050   35.0500 H   0  0  0  0  0  0  0  0  0  0  0  0
   36.4300   27.0640   32.4490 C   0  0  0  0  0  0  0  0  0  0  0  0
   37.3420   26.0630   32.7900 C   0  0  0  0  0  0  0  0  0  0  0  0
   37.1310   24.8440   32.1460 C   0  0  0  0  0  0  0  0  0  0  0  0
   36.0950   24.6760   31.2500 N   0  0  0  0  0  0  0  0  0  0  0  0
   35.2430   25.6990   30.9640 C   0  0  0  0  0  0  0  0  0  0  0  0
   35.4220   26.9070   31.5790 N   0  0  0  0  0  0  0  0  0  0  0  0
   38.1430   26.2060   33.4880 H   0  0  0  0  0  0  0  0  0  0  0  0
   37.7830   23.9950   32.3410 H   0  0  0  0  0  0  0  0  0  0  0  0
   34.4320   25.5740   30.2630 H   0  0  0  0  0  0  0  0  0  0  0  0
   35.6230   30.6540   33.6780 C   0  0  0  0  0  0  0  0  0  0  0  0
   34.8570   31.0350   32.9590 H   0  0  0  0  0  0  0  0  0  0  0  0
   36.6390   31.0240   33.4300 H   0  0  0  0  0  0  0  0  0  0  0  0
   35.2160   31.1250   35.0280 C   0  0  0  0  0  0  0  0  0  0  0  0
   33.8840   31.0790   35.4470 C   0  0  0  0  0  0  0  0  0  0  0  0
   33.0360   30.7170   34.8750 H   0  0  0  0  0  0  0  0  0  0  0  0
   33.8490   31.5880   36.7410 C   0  0  0  0  0  0  0  0  0  0  0  0
   32.9260   31.6600   37.2940 H   0  0  0  0  0  0  0  0  0  0  0  0
   35.1130   31.9200   37.0710 N   0  0  0  0  0  0  0  0  0  0  0  0
   35.3410   32.3220   37.9910 H   0  0  0  0  0  0  0  0  0  0  0  0
   35.9210   31.6460   36.0570 N   0  0  0  0  0  0  0  0  0  0  0  0
  1  4  1  6  0  0  0
  1  2  1  0  0  0  0
  1  3  1  0  0  0  0
  2  5  1  6  0  0  0
  2 17  1  0  0  0  0
  2  3  1  0  0  0  0
  3  7  1  0  0  0  0
  3  6  1  0  0  0  0
  8  9  1  0  0  0  0
  8  1  1  0  0  0  0
  9 14  1  0  0  0  0
 10 15  1  0  0  0  0
 10  9  2  0  0  0  0
 11 10  1  0  0  0  0
 12 11  2  0  0  0  0
 12 13  1  0  0  0  0
 13  8  2  0  0  0  0
 16 12  1  0  0  0  0
 17 20  1  0  0  0  0
 18 17  1  0  0  0  0
 19 17  1  0  0  0  0
 20 21  1  0  0  0  0
 20 27  2  0  0  0  0
 21 23  2  0  0  0  0
 22 21  1  0  0  0  0
 23 25  1  0  0  0  0
 23 24  1  0  0  0  0
 25 26  1  0  0  0  0
 27 25  1  0  0  0  0
M  END
>  <minimizedAffinity>
-4.22925234

$$$$
