
 OpenBabel03272510153D

 27 29  0  0  0  0  0  0  0  0999 V2000
   37.3120   29.3430   51.0680 Br  0  0  0  0  0  0  0  0  0  0  0  0
   35.9580   29.3190   49.7110 C   0  0  0  0  0  0  0  0  0  0  0  0
   35.9760   30.2220   48.6630 C   0  0  0  0  0  0  0  0  0  0  0  0
   34.9760   30.1420   47.7330 C   0  0  0  0  0  0  0  0  0  0  0  0
   33.9580   29.2150   47.7860 C   0  0  0  0  0  0  0  0  0  0  0  0
   33.9590   28.3310   48.8320 C   0  0  0  0  0  0  0  0  0  0  0  0
   34.9550   28.3840   49.7900 C   0  0  0  0  0  0  0  0  0  0  0  0
   35.0100   30.8580   46.9220 H   0  0  0  0  0  0  0  0  0  0  0  0
   33.1930   27.5790   48.9370 H   0  0  0  0  0  0  0  0  0  0  0  0
   34.9700   27.6850   50.6310 H   0  0  0  0  0  0  0  0  0  0  0  0
   37.9790   33.1810   49.4310 C   0  0  0  0  0  0  0  0  0  0  0  0
   39.0180   33.1520   48.4510 C   0  0  0  0  0  0  0  0  0  0  0  0
   38.9980   32.0970   47.5400 C   0  0  0  0  0  0  0  0  0  0  0  0
   38.0080   31.1600   47.6250 N   0  0  0  0  0  0  0  0  0  0  0  0
   37.0400   31.2230   48.5680 C   0  0  0  0  0  0  0  0  0  0  0  0
   37.0290   32.2380   49.4720 N   0  0  0  0  0  0  0  0  0  0  0  0
   37.9380   33.9830   50.1760 H   0  0  0  0  0  0  0  0  0  0  0  0
   39.7710   33.9310   48.4480 H   0  0  0  0  0  0  0  0  0  0  0  0
   39.7650   32.0420   46.7890 H   0  0  0  0  0  0  0  0  0  0  0  0
   32.9250   29.1880   46.7620 C   0  0  0  0  0  0  0  0  0  0  0  0
   31.7810   28.4230   46.7950 C   0  0  0  0  0  0  0  0  0  0  0  0
   31.4840   27.7360   47.5810 H   0  0  0  0  0  0  0  0  0  0  0  0
   31.0470   28.6770   45.6320 C   0  0  0  0  0  0  0  0  0  0  0  0
   30.1010   28.2010   45.4130 H   0  0  0  0  0  0  0  0  0  0  0  0
   31.7740   29.5880   44.9380 N   0  0  0  0  0  0  0  0  0  0  0  0
   31.3740   29.9010   44.0280 H   0  0  0  0  0  0  0  0  0  0  0  0
   32.8850   29.8840   45.6150 N   0  0  0  0  0  0  0  0  0  0  0  0
  2  7  1  0  0  0  0
  2  1  1  0  0  0  0
  3  2  2  0  0  0  0
  4  5  2  0  0  0  0
  4  3  1  0  0  0  0
  5  6  1  0  0  0  0
  6  9  1  0  0  0  0
  6  7  2  0  0  0  0
  7 10  1  0  0  0  0
  8  4  1  0  0  0  0
 11 16  1  0  0  0  0
 11 17  1  0  0  0  0
 12 11  2  0  0  0  0
 13 14  2  0  0  0  0
 13 12  1  0  0  0  0
 14 15  1  0  0  0  0
 15  3  1  0  0  0  0
 15 16  2  0  0  0  0
 18 12  1  0  0  0  0
 19 13  1  0  0  0  0
 20 21  1  0  0  0  0
 20  5  1  0  0  0  0
 21 22  1  0  0  0  0
 23 21  2  0  0  0  0
 24 23  1  0  0  0  0
 25 27  1  0  0  0  0
 25 23  1  0  0  0  0
 26 25  1  0  0  0  0
 27 20  2  0  0  0  0
M  END
>  <minimizedAffinity>
-5.73603964

>  <minimizedRMSD>
0.386138201

$$$$
