
 OpenBabel03262521053D

 35 37  0  0  0  0  0  0  0  0999 V2000
   38.4060   32.0630   48.5570 Br  0  0  0  0  0  0  0  0  0  0  0  0
   37.4180   31.3610   47.1190 C   0  0  0  0  0  0  0  0  0  0  0  0
   36.4190   30.5020   47.4560 C   0  0  0  0  0  0  0  0  0  0  0  0
   35.6260   29.9280   46.4480 C   0  0  0  0  0  0  0  0  0  0  0  0
   35.8800   30.2500   45.1220 C   0  0  0  0  0  0  0  0  0  0  0  0
   36.8950   31.1150   44.8630 C   0  0  0  0  0  0  0  0  0  0  0  0
   37.6790   31.6860   45.8330 C   0  0  0  0  0  0  0  0  0  0  0  0
   34.8160   29.2390   46.6420 H   0  0  0  0  0  0  0  0  0  0  0  0
   35.2760   29.8130   44.3240 H   0  0  0  0  0  0  0  0  0  0  0  0
   37.0860   31.3600   43.8240 H   0  0  0  0  0  0  0  0  0  0  0  0
   36.8980   29.5220   49.7510 C   0  0  0  0  0  0  0  0  0  0  0  0
   36.0180   30.0580   48.8070 C   0  0  0  0  0  0  0  0  0  0  0  0
   34.6520   30.1810   49.1720 C   0  0  0  0  0  0  0  0  0  0  0  0
   34.3000   29.7630   50.4280 N   0  0  0  0  0  0  0  0  0  0  0  0
   35.1890   29.2590   51.2860 C   0  0  0  0  0  0  0  0  0  0  0  0
   36.4780   29.1350   50.9620 N   0  0  0  0  0  0  0  0  0  0  0  0
   37.9400   29.4380   49.4470 H   0  0  0  0  0  0  0  0  0  0  0  0
   33.9810   30.5930   48.4410 H   0  0  0  0  0  0  0  0  0  0  0  0
   34.7070   28.9910   52.2200 H   0  0  0  0  0  0  0  0  0  0  0  0
   38.7390   32.5890   45.5700 N   0  0  0  0  0  0  0  0  0  0  0  0
   38.5850   33.4710   46.1300 H   0  0  0  0  0  0  0  0  0  0  0  0
   40.1180   32.5030   44.5790 S   0  0  0  0  0  0  0  0  0  0  0  0
   40.4160   31.1020   44.1700 O   0  0  0  0  0  0  0  0  0  0  0  0
   39.8060   30.3250   44.2010 H   0  0  0  0  0  0  0  0  0  0  0  0
   41.3190   33.0310   45.3370 O   0  0  0  0  0  0  0  0  0  0  0  0
   42.2200   32.6220   45.3530 H   0  0  0  0  0  0  0  0  0  0  0  0
   39.8460   33.4550   43.1950 O   0  0  0  0  0  0  0  0  0  0  0  0
   39.1420   32.8420   42.1650 C   0  0  0  0  0  0  0  0  0  0  0  0
   37.8240   33.1470   41.8090 C   0  0  0  0  0  0  0  0  0  0  0  0
   37.1400   33.8700   42.2330 H   0  0  0  0  0  0  0  0  0  0  0  0
   37.5630   32.3080   40.7660 N   0  0  0  0  0  0  0  0  0  0  0  0
   36.6170   32.3160   40.2820 H   0  0  0  0  0  0  0  0  0  0  0  0
   38.6170   31.5260   40.4710 C   0  0  0  0  0  0  0  0  0  0  0  0
   38.6150   30.7910   39.6760 H   0  0  0  0  0  0  0  0  0  0  0  0
   39.5880   31.8700   41.3490 N   0  0  0  0  0  0  0  0  0  0  0  0
  2  3  1  0  0  0  0
  2  1  1  0  0  0  0
  3 12  1  0  0  0  0
  4  8  1  0  0  0  0
  4  3  2  0  0  0  0
  5  4  1  0  0  0  0
  6  5  2  0  0  0  0
  6  7  1  0  0  0  0
  7  2  2  0  0  0  0
  9  5  1  0  0  0  0
 10  6  1  0  0  0  0
 11 16  1  0  0  0  0
 12 13  1  0  0  0  0
 12 11  2  0  0  0  0
 13 14  2  0  0  0  0
 14 15  1  0  0  0  0
 15 19  1  0  0  0  0
 16 15  2  0  0  0  0
 17 11  1  0  0  0  0
 18 13  1  0  0  0  0
 20  7  1  0  0  0  0
 20 21  1  0  0  0  0
 22 25  1  0  0  0  0
 22 20  1  0  0  0  0
 23 24  1  0  0  0  0
 23 22  1  0  0  0  0
 25 26  1  0  0  0  0
 27 22  1  0  0  0  0
 28 27  1  0  0  0  0
 29 28  2  0  0  0  0
 29 30  1  0  0  0  0
 31 29  1  0  0  0  0
 32 31  1  0  0  0  0
 33 31  1  0  0  0  0
 33 35  2  0  0  0  0
 34 33  1  0  0  0  0
 35 28  1  0  0  0  0
M  END
>  <minimizedAffinity>
-5.11489916

>  <minimizedRMSD>
1.62949538

$$$$
