
 OpenBabel03262522183D

 23 24  0  0  0  0  0  0  0  0999 V2000
   37.1870   33.6510   49.7340 O   0  0  0  0  0  0  0  0  0  0  0  0
   38.4960   33.0530   49.2250 P   0  0  1  0  0  0  0  0  0  0  0  0
   39.7750   33.9120   49.9550 O   0  0  0  0  0  0  0  0  0  0  0  0
   39.4350   34.5320   50.6370 H   0  0  0  0  0  0  0  0  0  0  0  0
   38.5950   31.4640   49.8190 O   0  0  0  0  0  0  0  0  0  0  0  0
   37.1140   30.2460   51.2310 C   0  0  0  0  0  0  0  0  0  0  0  0
   37.5840   30.5670   49.9480 C   0  0  0  0  0  0  0  0  0  0  0  0
   36.9560   29.9190   48.8720 C   0  0  0  0  0  0  0  0  0  0  0  0
   35.9490   29.0320   49.1080 N   0  0  0  0  0  0  0  0  0  0  0  0
   35.5410   28.7660   50.3770 C   0  0  0  0  0  0  0  0  0  0  0  0
   36.1180   29.3670   51.4360 N   0  0  0  0  0  0  0  0  0  0  0  0
   37.5670   30.7190   52.0920 H   0  0  0  0  0  0  0  0  0  0  0  0
   37.3020   30.1500   47.8670 H   0  0  0  0  0  0  0  0  0  0  0  0
   34.7350   28.0400   50.3470 H   0  0  0  0  0  0  0  0  0  0  0  0
   38.5310   33.1770   47.5740 O   0  0  0  0  0  0  0  0  0  0  0  0
   39.3660   32.4770   46.7130 C   0  0  0  0  0  0  0  0  0  0  0  0
   40.1700   33.2330   45.8720 C   0  0  0  0  0  0  0  0  0  0  0  0
   40.3200   34.2980   45.7060 H   0  0  0  0  0  0  0  0  0  0  0  0
   40.8910   32.3470   45.1320 N   0  0  0  0  0  0  0  0  0  0  0  0
   41.6010   32.5310   44.3930 H   0  0  0  0  0  0  0  0  0  0  0  0
   40.5530   31.0760   45.4930 C   0  0  0  0  0  0  0  0  0  0  0  0
   40.9580   30.1600   45.0820 H   0  0  0  0  0  0  0  0  0  0  0  0
   39.6200   31.1780   46.4610 N   0  0  0  0  0  0  0  0  0  0  0  0
  2  1  2  1  0  0  0
  2  5  1  0  0  0  0
  2  3  1  0  0  0  0
  3  4  1  0  0  0  0
  5  7  1  0  0  0  0
  6 11  1  0  0  0  0
  6 12  1  0  0  0  0
  7  6  2  0  0  0  0
  8  9  2  0  0  0  0
  8  7  1  0  0  0  0
  9 10  1  0  0  0  0
 10 11  2  0  0  0  0
 13  8  1  0  0  0  0
 14 10  1  0  0  0  0
 15  2  1  0  0  0  0
 16 15  1  0  0  0  0
 17 16  2  0  0  0  0
 18 17  1  0  0  0  0
 19 21  1  0  0  0  0
 19 17  1  0  0  0  0
 20 19  1  0  0  0  0
 21 23  2  0  0  0  0
 22 21  1  0  0  0  0
 23 16  1  0  0  0  0
M  END
>  <minimizedAffinity>
-4.61560011

>  <minimizedRMSD>
1.32195079

$$$$
