
 OpenBabel03272508293D

 37 40  0  0  1  0  0  0  0  0999 V2000
   37.1000   26.1330   34.3350 C   0  0  2  0  0  0  0  0  0  0  0  0
   37.4080   27.6190   34.3970 C   0  0  2  0  0  0  0  0  0  0  0  0
   37.8440   27.8560   35.6620 O   0  0  0  0  0  0  0  0  0  0  0  0
   38.3340   26.7160   36.2270 C   0  0  0  0  0  0  0  0  0  0  0  0
   38.2490   25.6080   35.2030 C   0  0  1  0  0  0  0  0  0  0  0  0
   36.1410   25.8740   34.8020 H   0  0  0  0  0  0  0  0  0  0  0  0
   38.2170   27.8250   33.6830 H   0  0  0  0  0  0  0  0  0  0  0  0
   37.6690   26.4320   37.0840 H   0  0  0  0  0  0  0  0  0  0  0  0
   39.3520   26.8200   36.6540 H   0  0  0  0  0  0  0  0  0  0  0  0
   39.2000   25.6120   34.6330 H   0  0  0  0  0  0  0  0  0  0  0  0
   35.9110   29.7280   34.4530 C   0  0  1  0  0  0  0  0  0  0  0  0
   36.1390   28.3480   34.0940 C   0  0  1  0  0  0  0  0  0  0  0  0
   36.0450   29.3330   32.9750 C   0  0  0  0  0  0  0  0  0  0  0  0
   36.6650   30.4980   34.7000 H   0  0  0  0  0  0  0  0  0  0  0  0
   35.2390   27.6720   34.1790 H   0  0  0  0  0  0  0  0  0  0  0  0
   36.9500   29.6150   32.4230 H   0  0  0  0  0  0  0  0  0  0  0  0
   35.1240   29.3560   32.3390 H   0  0  0  0  0  0  0  0  0  0  0  0
   34.5140   30.2380   34.7750 C   0  0  0  0  0  0  0  0  0  0  0  0
   34.3690   31.5990   35.0470 C   0  0  0  0  0  0  0  0  0  0  0  0
   33.0850   32.0050   35.3540 C   0  0  0  0  0  0  0  0  0  0  0  0
   32.0490   31.1170   35.3830 N   0  0  0  0  0  0  0  0  0  0  0  0
   32.2320   29.7950   35.1110 C   0  0  0  0  0  0  0  0  0  0  0  0
   33.4810   29.3580   34.8060 N   0  0  0  0  0  0  0  0  0  0  0  0
   35.2110   32.2630   35.0130 H   0  0  0  0  0  0  0  0  0  0  0  0
   32.8860   33.0560   35.5770 H   0  0  0  0  0  0  0  0  0  0  0  0
   31.3850   29.1250   35.1460 H   0  0  0  0  0  0  0  0  0  0  0  0
   37.1420   25.6030   33.0610 O   0  0  0  0  0  0  0  0  0  0  0  0
   36.7710   26.2990   32.4590 H   0  0  0  0  0  0  0  0  0  0  0  0
   37.9860   24.3710   35.7180 O   0  0  0  0  0  0  0  0  0  0  0  0
   38.8900   23.6870   36.5180 C   0  0  0  0  0  0  0  0  0  0  0  0
   38.5640   23.3130   37.8040 C   0  0  0  0  0  0  0  0  0  0  0  0
   37.6570   23.4450   38.3990 H   0  0  0  0  0  0  0  0  0  0  0  0
   39.5940   22.6610   38.3920 N   0  0  0  0  0  0  0  0  0  0  0  0
   39.7420   22.2340   39.3250 H   0  0  0  0  0  0  0  0  0  0  0  0
   40.5860   22.6280   37.4570 C   0  0  0  0  0  0  0  0  0  0  0  0
   41.5710   22.1960   37.5410 H   0  0  0  0  0  0  0  0  0  0  0  0
   40.1640   23.2360   36.3500 N   0  0  0  0  0  0  0  0  0  0  0  0
  1  2  1  0  0  0  0
  1  6  1  1  0  0  0
  1  5  1  0  0  0  0
  2  7  1  6  0  0  0
  2  3  1  0  0  0  0
  3  4  1  0  0  0  0
  4  9  1  0  0  0  0
  4  8  1  0  0  0  0
  5 10  1  6  0  0  0
  5 29  1  0  0  0  0
  5  4  1  0  0  0  0
 11 14  1  1  0  0  0
 11 18  1  0  0  0  0
 12 15  1  1  0  0  0
 12  2  1  0  0  0  0
 12 11  1  0  0  0  0
 13 12  1  0  0  0  0
 13 11  1  0  0  0  0
 16 13  1  0  0  0  0
 17 13  1  0  0  0  0
 18 23  2  0  0  0  0
 18 19  1  0  0  0  0
 19 20  2  0  0  0  0
 20 21  1  0  0  0  0
 20 25  1  0  0  0  0
 22 26  1  0  0  0  0
 22 21  2  0  0  0  0
 23 22  1  0  0  0  0
 24 19  1  0  0  0  0
 27  1  1  0  0  0  0
 28 27  1  0  0  0  0
 29 30  1  0  0  0  0
 30 31  2  0  0  0  0
 31 33  1  0  0  0  0
 31 32  1  0  0  0  0
 33 34  1  0  0  0  0
 35 36  1  0  0  0  0
 35 33  1  0  0  0  0
 37 30  1  0  0  0  0
 37 35  2  0  0  0  0
M  END
>  <minimizedAffinity>
-5.26362467

$$$$

 OpenBabel03272508293D

 37 40  0  0  1  0  0  0  0  0999 V2000
   37.3430   25.7920   33.9270 C   0  0  2  0  0  0  0  0  0  0  0  0
   37.6280   27.2550   33.6320 C   0  0  2  0  0  0  0  0  0  0  0  0
   37.7030   27.8700   34.8410 O   0  0  0  0  0  0  0  0  0  0  0  0
   38.0160   26.9760   35.8210 C   0  0  0  0  0  0  0  0  0  0  0  0
   38.2100   25.6210   35.1800 C   0  0  1  0  0  0  0  0  0  0  0  0
   36.2920   25.6030   34.1810 H   0  0  0  0  0  0  0  0  0  0  0  0
   38.6010   27.3120   33.1270 H   0  0  0  0  0  0  0  0  0  0  0  0
   37.1410   26.8940   36.5180 H   0  0  0  0  0  0  0  0  0  0  0  0
   38.8790   27.2730   36.4500 H   0  0  0  0  0  0  0  0  0  0  0  0
   39.2800   25.5370   34.9030 H   0  0  0  0  0  0  0  0  0  0  0  0
   36.3320   29.1620   32.4600 C   0  0  1  0  0  0  0  0  0  0  0  0
   36.4920   27.7700   32.8080 C   0  0  1  0  0  0  0  0  0  0  0  0
   36.6640   28.1320   31.3700 C   0  0  0  0  0  0  0  0  0  0  0  0
   37.1020   29.9550   32.4650 H   0  0  0  0  0  0  0  0  0  0  0  0
   35.5340   27.2120   33.0240 H   0  0  0  0  0  0  0  0  0  0  0  0
   37.6670   28.1240   30.9240 H   0  0  0  0  0  0  0  0  0  0  0  0
   35.8610   27.8650   30.6360 H   0  0  0  0  0  0  0  0  0  0  0  0
   34.9520   29.7700   32.2580 C   0  0  0  0  0  0  0  0  0  0  0  0
   33.8910   29.2210   32.9790 C   0  0  0  0  0  0  0  0  0  0  0  0
   32.6580   29.7960   32.7420 C   0  0  0  0  0  0  0  0  0  0  0  0
   32.5140   30.8280   31.8600 N   0  0  0  0  0  0  0  0  0  0  0  0
   33.5760   31.3360   31.1750 C   0  0  0  0  0  0  0  0  0  0  0  0
   34.8040   30.7960   31.3810 N   0  0  0  0  0  0  0  0  0  0  0  0
   34.0480   28.4090   33.6630 H   0  0  0  0  0  0  0  0  0  0  0  0
   31.7750   29.4240   33.2690 H   0  0  0  0  0  0  0  0  0  0  0  0
   33.4190   32.1530   30.4850 H   0  0  0  0  0  0  0  0  0  0  0  0
   37.7290   24.9290   32.9200 O   0  0  0  0  0  0  0  0  0  0  0  0
   37.5390   25.3980   32.0670 H   0  0  0  0  0  0  0  0  0  0  0  0
   37.8110   24.5630   35.9450 O   0  0  0  0  0  0  0  0  0  0  0  0
   38.7020   23.8020   36.6890 C   0  0  0  0  0  0  0  0  0  0  0  0
   38.4120   23.4280   37.9840 C   0  0  0  0  0  0  0  0  0  0  0  0
   37.5460   23.6130   38.6250 H   0  0  0  0  0  0  0  0  0  0  0  0
   39.4190   22.6950   38.5120 N   0  0  0  0  0  0  0  0  0  0  0  0
   39.5810   22.2420   39.4300 H   0  0  0  0  0  0  0  0  0  0  0  0
   40.3610   22.6100   37.5290 C   0  0  0  0  0  0  0  0  0  0  0  0
   41.3160   22.1080   37.5580 H   0  0  0  0  0  0  0  0  0  0  0  0
   39.9310   23.2660   36.4530 N   0  0  0  0  0  0  0  0  0  0  0  0
  1  6  1  1  0  0  0
  1  5  1  0  0  0  0
  2  7  1  6  0  0  0
  2  1  1  0  0  0  0
  2  3  1  0  0  0  0
  3  4  1  0  0  0  0
  4  9  1  0  0  0  0
  4  8  1  0  0  0  0
  5 10  1  6  0  0  0
  5  4  1  0  0  0  0
  5 29  1  0  0  0  0
 11 14  1  1  0  0  0
 11 12  1  0  0  0  0
 12 15  1  1  0  0  0
 12  2  1  0  0  0  0
 13 11  1  0  0  0  0
 13 12  1  0  0  0  0
 16 13  1  0  0  0  0
 17 13  1  0  0  0  0
 18 11  1  0  0  0  0
 18 19  1  0  0  0  0
 19 24  1  0  0  0  0
 20 19  2  0  0  0  0
 20 25  1  0  0  0  0
 21 20  1  0  0  0  0
 22 23  1  0  0  0  0
 22 21  2  0  0  0  0
 23 18  2  0  0  0  0
 26 22  1  0  0  0  0
 27  1  1  0  0  0  0
 28 27  1  0  0  0  0
 29 30  1  0  0  0  0
 30 31  2  0  0  0  0
 31 33  1  0  0  0  0
 31 32  1  0  0  0  0
 33 34  1  0  0  0  0
 35 36  1  0  0  0  0
 35 33  1  0  0  0  0
 37 30  1  0  0  0  0
 37 35  2  0  0  0  0
M  END
>  <minimizedAffinity>
-5.17573214

$$$$

 OpenBabel03272508293D

 37 40  0  0  1  0  0  0  0  0999 V2000
   37.8400   25.9020   34.2010 C   0  0  2  0  0  0  0  0  0  0  0  0
   37.0110   25.9790   32.9300 C   0  0  2  0  0  0  0  0  0  0  0  0
   37.5420   25.0560   32.0840 O   0  0  0  0  0  0  0  0  0  0  0  0
   38.2090   24.0910   32.7780 C   0  0  0  0  0  0  0  0  0  0  0  0
   38.0690   24.3870   34.2530 C   0  0  1  0  0  0  0  0  0  0  0  0
   38.8060   26.4160   34.1150 H   0  0  0  0  0  0  0  0  0  0  0  0
   35.9800   25.6980   33.1830 H   0  0  0  0  0  0  0  0  0  0  0  0
   39.2990   24.1620   32.5230 H   0  0  0  0  0  0  0  0  0  0  0  0
   37.9050   23.0560   32.5240 H   0  0  0  0  0  0  0  0  0  0  0  0
   37.1560   23.8680   34.6090 H   0  0  0  0  0  0  0  0  0  0  0  0
   36.1750   27.9770   31.5160 C   0  0  1  0  0  0  0  0  0  0  0  0
   37.1430   27.3700   32.3990 C   0  0  1  0  0  0  0  0  0  0  0  0
   36.3400   28.5020   32.9500 C   0  0  0  0  0  0  0  0  0  0  0  0
   35.1240   27.6760   31.3520 H   0  0  0  0  0  0  0  0  0  0  0  0
   38.2200   27.6370   32.1920 H   0  0  0  0  0  0  0  0  0  0  0  0
   35.5550   28.3000   33.6900 H   0  0  0  0  0  0  0  0  0  0  0  0
   36.8240   29.5010   33.0920 H   0  0  0  0  0  0  0  0  0  0  0  0
   36.5910   29.0160   30.4850 C   0  0  0  0  0  0  0  0  0  0  0  0
   37.3840   28.5880   29.4200 C   0  0  0  0  0  0  0  0  0  0  0  0
   37.7510   29.5750   28.5250 C   0  0  0  0  0  0  0  0  0  0  0  0
   37.3520   30.8690   28.6950 N   0  0  0  0  0  0  0  0  0  0  0  0
   36.5780   31.2460   29.7500 C   0  0  0  0  0  0  0  0  0  0  0  0
   36.1980   30.3040   30.6500 N   0  0  0  0  0  0  0  0  0  0  0  0
   37.6750   27.5600   29.3240 H   0  0  0  0  0  0  0  0  0  0  0  0
   38.3710   29.3220   27.6610 H   0  0  0  0  0  0  0  0  0  0  0  0
   36.2850   32.2820   29.8480 H   0  0  0  0  0  0  0  0  0  0  0  0
   37.1830   26.3560   35.3280 O   0  0  0  0  0  0  0  0  0  0  0  0
   36.6370   27.1300   35.0360 H   0  0  0  0  0  0  0  0  0  0  0  0
   39.1550   24.0540   35.0100 O   0  0  0  0  0  0  0  0  0  0  0  0
   39.0540   23.7070   36.3500 C   0  0  0  0  0  0  0  0  0  0  0  0
   39.8600   22.7310   36.8970 C   0  0  0  0  0  0  0  0  0  0  0  0
   40.6460   22.1040   36.4690 H   0  0  0  0  0  0  0  0  0  0  0  0
   39.5870   22.5610   38.2110 N   0  0  0  0  0  0  0  0  0  0  0  0
   39.9620   21.9430   38.9540 H   0  0  0  0  0  0  0  0  0  0  0  0
   38.5890   23.4460   38.4940 C   0  0  0  0  0  0  0  0  0  0  0  0
   38.0920   23.6180   39.4360 H   0  0  0  0  0  0  0  0  0  0  0  0
   38.2780   24.1210   37.3890 N   0  0  0  0  0  0  0  0  0  0  0  0
  1  6  1  6  0  0  0
  1  5  1  0  0  0  0
  1 27  1  0  0  0  0
  2  7  1  1  0  0  0
  2  1  1  0  0  0  0
  3  4  1  0  0  0  0
  3  2  1  0  0  0  0
  4  5  1  0  0  0  0
  5 10  1  1  0  0  0
  5 29  1  0  0  0  0
  8  4  1  0  0  0  0
  9  4  1  0  0  0  0
 11 14  1  6  0  0  0
 11 12  1  0  0  0  0
 11 13  1  0  0  0  0
 12 15  1  6  0  0  0
 12  2  1  0  0  0  0
 12 13  1  0  0  0  0
 13 17  1  0  0  0  0
 13 16  1  0  0  0  0
 18 23  1  0  0  0  0
 18 11  1  0  0  0  0
 19 18  2  0  0  0  0
 20 21  2  0  0  0  0
 20 19  1  0  0  0  0
 21 22  1  0  0  0  0
 22 26  1  0  0  0  0
 22 23  2  0  0  0  0
 24 19  1  0  0  0  0
 25 20  1  0  0  0  0
 28 27  1  0  0  0  0
 29 30  1  0  0  0  0
 30 31  2  0  0  0  0
 30 37  1  0  0  0  0
 31 33  1  0  0  0  0
 32 31  1  0  0  0  0
 33 35  1  0  0  0  0
 33 34  1  0  0  0  0
 35 36  1  0  0  0  0
 37 35  2  0  0  0  0
M  END
>  <minimizedAffinity>
-5.17447424

$$$$

 OpenBabel03272508293D

 37 40  0  0  1  0  0  0  0  0999 V2000
   35.3230   25.2860   31.0780 C   0  0  2  0  0  0  0  0  0  0  0  0
   36.5180   26.2220   31.0080 C   0  0  2  0  0  0  0  0  0  0  0  0
   37.4410   25.7110   31.8660 O   0  0  0  0  0  0  0  0  0  0  0  0
   37.2340   24.3780   32.0610 C   0  0  0  0  0  0  0  0  0  0  0  0
   36.0650   23.9500   31.2030 C   0  0  1  0  0  0  0  0  0  0  0  0
   34.7050   25.4460   31.9710 H   0  0  0  0  0  0  0  0  0  0  0  0
   36.9090   26.1920   29.9830 H   0  0  0  0  0  0  0  0  0  0  0  0
   36.9400   24.2190   33.1310 H   0  0  0  0  0  0  0  0  0  0  0  0
   38.1320   23.7490   31.8950 H   0  0  0  0  0  0  0  0  0  0  0  0
   36.4740   23.6390   30.2210 H   0  0  0  0  0  0  0  0  0  0  0  0
   36.1930   28.0820   32.7770 C   0  0  1  0  0  0  0  0  0  0  0  0
   36.0460   27.5750   31.4330 C   0  0  1  0  0  0  0  0  0  0  0  0
   36.9930   28.7130   31.6280 C   0  0  0  0  0  0  0  0  0  0  0  0
   36.8880   27.7300   33.5620 H   0  0  0  0  0  0  0  0  0  0  0  0
   35.0890   27.8670   30.9090 H   0  0  0  0  0  0  0  0  0  0  0  0
   38.0740   28.5360   31.5650 H   0  0  0  0  0  0  0  0  0  0  0  0
   36.7000   29.7380   31.2850 H   0  0  0  0  0  0  0  0  0  0  0  0
   35.1870   29.0590   33.3660 C   0  0  0  0  0  0  0  0  0  0  0  0
   35.5870   29.8130   34.4700 C   0  0  0  0  0  0  0  0  0  0  0  0
   34.6280   30.6680   34.9780 C   0  0  0  0  0  0  0  0  0  0  0  0
   33.3840   30.7500   34.4200 N   0  0  0  0  0  0  0  0  0  0  0  0
   33.0330   29.9960   33.3420 C   0  0  0  0  0  0  0  0  0  0  0  0
   33.9480   29.1430   32.8160 N   0  0  0  0  0  0  0  0  0  0  0  0
   36.5740   29.7180   34.8770 H   0  0  0  0  0  0  0  0  0  0  0  0
   34.8620   31.2960   35.8410 H   0  0  0  0  0  0  0  0  0  0  0  0
   32.0370   30.0900   32.9320 H   0  0  0  0  0  0  0  0  0  0  0  0
   34.5190   25.3180   29.9560 O   0  0  0  0  0  0  0  0  0  0  0  0
   34.5010   26.2630   29.6560 H   0  0  0  0  0  0  0  0  0  0  0  0
   35.2830   22.9730   31.7470 O   0  0  0  0  0  0  0  0  0  0  0  0
   35.4900   21.6240   31.4940 C   0  0  0  0  0  0  0  0  0  0  0  0
   34.6700   20.6610   32.0440 C   0  0  0  0  0  0  0  0  0  0  0  0
   33.8010   20.7270   32.7020 H   0  0  0  0  0  0  0  0  0  0  0  0
   35.0580   19.4220   31.6620 N   0  0  0  0  0  0  0  0  0  0  0  0
   34.7130   18.4640   31.8550 H   0  0  0  0  0  0  0  0  0  0  0  0
   36.1440   19.6120   30.8580 C   0  0  0  0  0  0  0  0  0  0  0  0
   36.7430   18.8690   30.3550 H   0  0  0  0  0  0  0  0  0  0  0  0
   36.3940   20.9160   30.7630 N   0  0  0  0  0  0  0  0  0  0  0  0
  1  5  1  0  0  0  0
  1  6  1  1  0  0  0
  2  7  1  6  0  0  0
  2  1  1  0  0  0  0
  2 12  1  0  0  0  0
  2  3  1  0  0  0  0
  3  4  1  0  0  0  0
  4  8  1  0  0  0  0
  5 10  1  6  0  0  0
  5 29  1  0  0  0  0
  5  4  1  0  0  0  0
  9  4  1  0  0  0  0
 11 18  1  0  0  0  0
 11 14  1  1  0  0  0
 12 15  1  6  0  0  0
 12 13  1  0  0  0  0
 12 11  1  0  0  0  0
 13 11  1  0  0  0  0
 16 13  1  0  0  0  0
 17 13  1  0  0  0  0
 18 19  1  0  0  0  0
 19 24  1  0  0  0  0
 19 20  2  0  0  0  0
 20 25  1  0  0  0  0
 21 20  1  0  0  0  0
 22 21  2  0  0  0  0
 23 22  1  0  0  0  0
 23 18  2  0  0  0  0
 26 22  1  0  0  0  0
 27  1  1  0  0  0  0
 28 27  1  0  0  0  0
 30 29  1  0  0  0  0
 30 31  2  0  0  0  0
 31 32  1  0  0  0  0
 33 34  1  0  0  0  0
 33 31  1  0  0  0  0
 35 33  1  0  0  0  0
 36 35  1  0  0  0  0
 37 35  2  0  0  0  0
 37 30  1  0  0  0  0
M  END
>  <minimizedAffinity>
-5.11269617

$$$$

 OpenBabel03272508293D

 37 40  0  0  1  0  0  0  0  0999 V2000
   38.1470   24.1380   33.7050 C   0  0  2  0  0  0  0  0  0  0  0  0
   38.4980   25.5370   33.2260 C   0  0  2  0  0  0  0  0  0  0  0  0
   39.3230   26.0570   34.1730 O   0  0  0  0  0  0  0  0  0  0  0  0
   39.9370   25.0650   34.8780 C   0  0  0  0  0  0  0  0  0  0  0  0
   39.4990   23.7370   34.3050 C   0  0  1  0  0  0  0  0  0  0  0  0
   37.3810   24.1350   34.4920 H   0  0  0  0  0  0  0  0  0  0  0  0
   39.0400   25.4400   32.2760 H   0  0  0  0  0  0  0  0  0  0  0  0
   39.5750   25.1090   35.9380 H   0  0  0  0  0  0  0  0  0  0  0  0
   41.0410   25.1590   34.9300 H   0  0  0  0  0  0  0  0  0  0  0  0
   40.2160   23.4710   33.5030 H   0  0  0  0  0  0  0  0  0  0  0  0
   37.0910   27.5260   32.3600 C   0  0  1  0  0  0  0  0  0  0  0  0
   37.2190   26.3020   33.1140 C   0  0  1  0  0  0  0  0  0  0  0  0
   36.3790   26.2530   31.8800 C   0  0  0  0  0  0  0  0  0  0  0  0
   37.7530   27.9030   31.5600 H   0  0  0  0  0  0  0  0  0  0  0  0
   36.6210   26.2580   34.0710 H   0  0  0  0  0  0  0  0  0  0  0  0
   36.7530   25.7310   30.9900 H   0  0  0  0  0  0  0  0  0  0  0  0
   35.2650   26.2050   31.9750 H   0  0  0  0  0  0  0  0  0  0  0  0
   36.0980   28.6040   32.7710 C   0  0  0  0  0  0  0  0  0  0  0  0
   35.9050   28.8180   34.1360 C   0  0  0  0  0  0  0  0  0  0  0  0
   34.9780   29.7920   34.4540 C   0  0  0  0  0  0  0  0  0  0  0  0
   34.3130   30.4820   33.4820 N   0  0  0  0  0  0  0  0  0  0  0  0
   34.5310   30.2430   32.1590 C   0  0  0  0  0  0  0  0  0  0  0  0
   35.4340   29.2930   31.8080 N   0  0  0  0  0  0  0  0  0  0  0  0
   36.4480   28.2530   34.8680 H   0  0  0  0  0  0  0  0  0  0  0  0
   34.7690   30.0220   35.5020 H   0  0  0  0  0  0  0  0  0  0  0  0
   33.9830   30.8120   31.4220 H   0  0  0  0  0  0  0  0  0  0  0  0
   37.7630   23.2780   32.6950 O   0  0  0  0  0  0  0  0  0  0  0  0
   37.2380   23.8220   32.0530 H   0  0  0  0  0  0  0  0  0  0  0  0
   39.3810   22.7300   35.2190 O   0  0  0  0  0  0  0  0  0  0  0  0
   38.9530   22.9490   36.5200 C   0  0  0  0  0  0  0  0  0  0  0  0
   39.7840   22.7140   37.5950 C   0  0  0  0  0  0  0  0  0  0  0  0
   40.8150   22.3570   37.6600 H   0  0  0  0  0  0  0  0  0  0  0  0
   39.1580   22.9960   38.7610 N   0  0  0  0  0  0  0  0  0  0  0  0
   39.4330   22.9510   39.7590 H   0  0  0  0  0  0  0  0  0  0  0  0
   37.9080   23.4150   38.4110 C   0  0  0  0  0  0  0  0  0  0  0  0
   37.1020   23.7300   39.0560 H   0  0  0  0  0  0  0  0  0  0  0  0
   37.7920   23.3850   37.0850 N   0  0  0  0  0  0  0  0  0  0  0  0
  1  5  1  0  0  0  0
  1  6  1  1  0  0  0
  2  7  1  6  0  0  0
  2  1  1  0  0  0  0
  2  3  1  0  0  0  0
  3  4  1  0  0  0  0
  4  9  1  0  0  0  0
  4  8  1  0  0  0  0
  5 10  1  6  0  0  0
  5  4  1  0  0  0  0
  5 29  1  0  0  0  0
 11 14  1  6  0  0  0
 11 18  1  0  0  0  0
 11 12  1  0  0  0  0
 12  2  1  0  0  0  0
 12 15  1  1  0  0  0
 13 17  1  0  0  0  0
 13 11  1  0  0  0  0
 13 12  1  0  0  0  0
 16 13  1  0  0  0  0
 18 19  1  0  0  0  0
 19 20  2  0  0  0  0
 19 24  1  0  0  0  0
 20 25  1  0  0  0  0
 21 20  1  0  0  0  0
 22 21  2  0  0  0  0
 23 22  1  0  0  0  0
 23 18  2  0  0  0  0
 26 22  1  0  0  0  0
 27  1  1  0  0  0  0
 28 27  1  0  0  0  0
 29 30  1  0  0  0  0
 30 37  1  0  0  0  0
 30 31  2  0  0  0  0
 31 32  1  0  0  0  0
 31 33  1  0  0  0  0
 33 34  1  0  0  0  0
 35 33  1  0  0  0  0
 35 36  1  0  0  0  0
 37 35  2  0  0  0  0
M  END
>  <minimizedAffinity>
-4.98359299

$$$$

 OpenBabel03272508293D

 37 40  0  0  1  0  0  0  0  0999 V2000
   38.6440   24.7270   33.1030 C   0  0  2  0  0  0  0  0  0  0  0  0
   37.6410   25.2800   32.1050 C   0  0  2  0  0  0  0  0  0  0  0  0
   36.7760   26.0390   32.8290 O   0  0  0  0  0  0  0  0  0  0  0  0
   37.3540   26.4550   33.9910 C   0  0  0  0  0  0  0  0  0  0  0  0
   38.7780   25.9480   34.0190 C   0  0  1  0  0  0  0  0  0  0  0  0
   38.2520   23.8780   33.6790 H   0  0  0  0  0  0  0  0  0  0  0  0
   38.1880   25.9170   31.3970 H   0  0  0  0  0  0  0  0  0  0  0  0
   36.8100   25.9770   34.8480 H   0  0  0  0  0  0  0  0  0  0  0  0
   37.2920   27.5490   34.1640 H   0  0  0  0  0  0  0  0  0  0  0  0
   39.4130   26.7220   33.5450 H   0  0  0  0  0  0  0  0  0  0  0  0
   36.1310   23.1820   32.1890 C   0  0  1  0  0  0  0  0  0  0  0  0
   36.9630   24.1120   31.4640 C   0  0  1  0  0  0  0  0  0  0  0  0
   35.5020   24.1250   31.1520 C   0  0  0  0  0  0  0  0  0  0  0  0
   35.6410   23.3310   33.1690 H   0  0  0  0  0  0  0  0  0  0  0  0
   37.5960   23.6590   30.6460 H   0  0  0  0  0  0  0  0  0  0  0  0
   34.8820   24.9630   31.4950 H   0  0  0  0  0  0  0  0  0  0  0  0
   35.1420   23.6820   30.1900 H   0  0  0  0  0  0  0  0  0  0  0  0
   36.0220   21.7250   31.7640 C   0  0  0  0  0  0  0  0  0  0  0  0
   34.9950   20.9630   32.3230 C   0  0  0  0  0  0  0  0  0  0  0  0
   34.9550   19.6420   31.9190 C   0  0  0  0  0  0  0  0  0  0  0  0
   35.8670   19.1440   31.0340 N   0  0  0  0  0  0  0  0  0  0  0  0
   36.8550   19.9210   30.5110 C   0  0  0  0  0  0  0  0  0  0  0  0
   36.9270   21.2240   30.8850 N   0  0  0  0  0  0  0  0  0  0  0  0
   34.2990   21.3950   33.0150 H   0  0  0  0  0  0  0  0  0  0  0  0
   34.1800   18.9780   32.3100 H   0  0  0  0  0  0  0  0  0  0  0  0
   37.5580   19.4870   29.8140 H   0  0  0  0  0  0  0  0  0  0  0  0
   39.8570   24.3750   32.5450 O   0  0  0  0  0  0  0  0  0  0  0  0
   39.6500   23.9900   31.6540 H   0  0  0  0  0  0  0  0  0  0  0  0
   39.2430   25.6160   35.2600 O   0  0  0  0  0  0  0  0  0  0  0  0
   38.7150   24.5670   35.9990 C   0  0  0  0  0  0  0  0  0  0  0  0
   39.4280   23.4050   36.1990 C   0  0  0  0  0  0  0  0  0  0  0  0
   40.4230   23.0890   35.8740 H   0  0  0  0  0  0  0  0  0  0  0  0
   38.7200   22.5260   36.9450 N   0  0  0  0  0  0  0  0  0  0  0  0
   38.9000   21.5700   37.3020 H   0  0  0  0  0  0  0  0  0  0  0  0
   37.5370   23.1490   37.2160 C   0  0  0  0  0  0  0  0  0  0  0  0
   36.7000   22.7770   37.7860 H   0  0  0  0  0  0  0  0  0  0  0  0
   37.5400   24.3560   36.6540 N   0  0  0  0  0  0  0  0  0  0  0  0
  1  6  1  1  0  0  0
  1  5  1  0  0  0  0
  2  7  1  6  0  0  0
  2  3  1  0  0  0  0
  2  1  1  0  0  0  0
  3  4  1  0  0  0  0
  4  5  1  0  0  0  0
  4  9  1  0  0  0  0
  4  8  1  0  0  0  0
  5 10  1  6  0  0  0
  5 29  1  0  0  0  0
 11 14  1  1  0  0  0
 12 15  1  6  0  0  0
 12  2  1  0  0  0  0
 12 11  1  0  0  0  0
 13 12  1  0  0  0  0
 13 16  1  0  0  0  0
 13 11  1  0  0  0  0
 17 13  1  0  0  0  0
 18 11  1  0  0  0  0
 18 19  1  0  0  0  0
 19 24  1  0  0  0  0
 20 25  1  0  0  0  0
 20 19  2  0  0  0  0
 21 20  1  0  0  0  0
 22 23  1  0  0  0  0
 22 21  2  0  0  0  0
 23 18  2  0  0  0  0
 26 22  1  0  0  0  0
 27  1  1  0  0  0  0
 28 27  1  0  0  0  0
 29 30  1  0  0  0  0
 30 31  2  0  0  0  0
 30 37  1  0  0  0  0
 31 33  1  0  0  0  0
 32 31  1  0  0  0  0
 33 35  1  0  0  0  0
 33 34  1  0  0  0  0
 35 36  1  0  0  0  0
 37 35  2  0  0  0  0
M  END
>  <minimizedAffinity>
-4.95863628

$$$$

 OpenBabel03272508293D

 37 40  0  0  1  0  0  0  0  0999 V2000
   39.1290   23.8470   34.2110 C   0  0  2  0  0  0  0  0  0  0  0  0
   39.0390   24.7580   35.4230 C   0  0  2  0  0  0  0  0  0  0  0  0
   38.0320   24.2600   36.1890 O   0  0  0  0  0  0  0  0  0  0  0  0
   37.8300   22.9380   35.9220 C   0  0  0  0  0  0  0  0  0  0  0  0
   38.8460   22.5030   34.8920 C   0  0  1  0  0  0  0  0  0  0  0  0
   38.3500   24.0490   33.4640 H   0  0  0  0  0  0  0  0  0  0  0  0
   39.9890   24.6850   35.9690 H   0  0  0  0  0  0  0  0  0  0  0  0
   36.8140   22.8220   35.4610 H   0  0  0  0  0  0  0  0  0  0  0  0
   37.8320   22.2880   36.8200 H   0  0  0  0  0  0  0  0  0  0  0  0
   39.7420   22.1500   35.4420 H   0  0  0  0  0  0  0  0  0  0  0  0
   37.4210   26.7250   34.9730 C   0  0  1  0  0  0  0  0  0  0  0  0
   38.7370   26.1340   34.9230 C   0  0  1  0  0  0  0  0  0  0  0  0
   38.5470   27.2850   35.8540 C   0  0  0  0  0  0  0  0  0  0  0  0
   36.5680   26.4270   35.6090 H   0  0  0  0  0  0  0  0  0  0  0  0
   39.3460   26.3880   34.0060 H   0  0  0  0  0  0  0  0  0  0  0  0
   38.5210   27.1090   36.9370 H   0  0  0  0  0  0  0  0  0  0  0  0
   38.9760   28.2840   35.5870 H   0  0  0  0  0  0  0  0  0  0  0  0
   36.9690   27.7340   33.9270 C   0  0  0  0  0  0  0  0  0  0  0  0
   36.0140   28.6770   34.3080 C   0  0  0  0  0  0  0  0  0  0  0  0
   35.6240   29.5540   33.3150 C   0  0  0  0  0  0  0  0  0  0  0  0
   36.1520   29.4820   32.0580 N   0  0  0  0  0  0  0  0  0  0  0  0
   37.0840   28.5460   31.7260 C   0  0  0  0  0  0  0  0  0  0  0  0
   37.4910   27.6660   32.6760 N   0  0  0  0  0  0  0  0  0  0  0  0
   35.6250   28.6980   35.3070 H   0  0  0  0  0  0  0  0  0  0  0  0
   34.8800   30.3250   33.5320 H   0  0  0  0  0  0  0  0  0  0  0  0
   37.4760   28.5230   30.7190 H   0  0  0  0  0  0  0  0  0  0  0  0
   40.3630   23.8540   33.5920 O   0  0  0  0  0  0  0  0  0  0  0  0
   40.6920   24.7880   33.6440 H   0  0  0  0  0  0  0  0  0  0  0  0
   38.4010   21.5590   34.0120 O   0  0  0  0  0  0  0  0  0  0  0  0
   37.2350   21.7160   33.2770 C   0  0  0  0  0  0  0  0  0  0  0  0
   36.1470   20.8940   33.4810 C   0  0  0  0  0  0  0  0  0  0  0  0
   35.9760   20.0590   34.1650 H   0  0  0  0  0  0  0  0  0  0  0  0
   35.1280   21.2280   32.6570 N   0  0  0  0  0  0  0  0  0  0  0  0
   34.1690   20.8630   32.5050 H   0  0  0  0  0  0  0  0  0  0  0  0
   35.5860   22.2800   31.9190 C   0  0  0  0  0  0  0  0  0  0  0  0
   35.0710   22.8320   31.1480 H   0  0  0  0  0  0  0  0  0  0  0  0
   36.8330   22.5640   32.2900 N   0  0  0  0  0  0  0  0  0  0  0  0
  1  6  1  6  0  0  0
  1  5  1  0  0  0  0
  1  2  1  0  0  0  0
  2  7  1  1  0  0  0
  2  3  1  0  0  0  0
  4  3  1  0  0  0  0
  4  9  1  0  0  0  0
  5 10  1  1  0  0  0
  5  4  1  0  0  0  0
  8  4  1  0  0  0  0
 11 14  1  1  0  0  0
 11 13  1  0  0  0  0
 12 15  1  6  0  0  0
 12 11  1  0  0  0  0
 12  2  1  0  0  0  0
 12 13  1  0  0  0  0
 13 16  1  0  0  0  0
 17 13  1  0  0  0  0
 18 19  1  0  0  0  0
 18 11  1  0  0  0  0
 19 24  1  0  0  0  0
 20 25  1  0  0  0  0
 20 19  2  0  0  0  0
 21 20  1  0  0  0  0
 22 21  2  0  0  0  0
 22 23  1  0  0  0  0
 23 18  2  0  0  0  0
 26 22  1  0  0  0  0
 27 28  1  0  0  0  0
 27  1  1  0  0  0  0
 29  5  1  0  0  0  0
 30 31  2  0  0  0  0
 30 29  1  0  0  0  0
 31 32  1  0  0  0  0
 33 31  1  0  0  0  0
 34 33  1  0  0  0  0
 35 37  2  0  0  0  0
 35 33  1  0  0  0  0
 36 35  1  0  0  0  0
 37 30  1  0  0  0  0
M  END
>  <minimizedAffinity>
-4.92403221

$$$$

 OpenBabel03272508293D

 37 40  0  0  1  0  0  0  0  0999 V2000
   35.8640   27.9370   31.6550 C   0  0  2  0  0  0  0  0  0  0  0  0
   36.4860   28.5980   32.8740 C   0  0  2  0  0  0  0  0  0  0  0  0
   36.7590   27.5910   33.7450 O   0  0  0  0  0  0  0  0  0  0  0  0
   36.8840   26.4030   33.0870 C   0  0  0  0  0  0  0  0  0  0  0  0
   36.7150   26.6620   31.6080 C   0  0  1  0  0  0  0  0  0  0  0  0
   34.8100   27.6680   31.8040 H   0  0  0  0  0  0  0  0  0  0  0  0
   37.4220   29.0760   32.5550 H   0  0  0  0  0  0  0  0  0  0  0  0
   36.0460   25.7320   33.4090 H   0  0  0  0  0  0  0  0  0  0  0  0
   37.8190   25.8530   33.3150 H   0  0  0  0  0  0  0  0  0  0  0  0
   37.7190   26.8800   31.1940 H   0  0  0  0  0  0  0  0  0  0  0  0
   35.7360   30.4240   34.5460 C   0  0  1  0  0  0  0  0  0  0  0  0
   35.4780   29.5560   33.4210 C   0  0  1  0  0  0  0  0  0  0  0  0
   35.5520   31.0220   33.1430 C   0  0  0  0  0  0  0  0  0  0  0  0
   36.7160   30.7320   34.9530 H   0  0  0  0  0  0  0  0  0  0  0  0
   34.4300   29.1370   33.3640 H   0  0  0  0  0  0  0  0  0  0  0  0
   36.4230   31.4300   32.6140 H   0  0  0  0  0  0  0  0  0  0  0  0
   34.6120   31.5900   32.9320 H   0  0  0  0  0  0  0  0  0  0  0  0
   34.6180   30.8460   35.4880 C   0  0  0  0  0  0  0  0  0  0  0  0
   34.9120   31.8180   36.4450 C   0  0  0  0  0  0  0  0  0  0  0  0
   33.8690   32.1490   37.2880 C   0  0  0  0  0  0  0  0  0  0  0  0
   32.6460   31.5520   37.1710 N   0  0  0  0  0  0  0  0  0  0  0  0
   32.4000   30.6070   36.2220 C   0  0  0  0  0  0  0  0  0  0  0  0
   33.4010   30.2550   35.3760 N   0  0  0  0  0  0  0  0  0  0  0  0
   35.8870   32.2620   36.5020 H   0  0  0  0  0  0  0  0  0  0  0  0
   34.0170   32.9040   38.0650 H   0  0  0  0  0  0  0  0  0  0  0  0
   31.4180   30.1590   36.1640 H   0  0  0  0  0  0  0  0  0  0  0  0
   35.9860   28.6720   30.4930 O   0  0  0  0  0  0  0  0  0  0  0  0
   35.8810   29.6230   30.7560 H   0  0  0  0  0  0  0  0  0  0  0  0
   36.1010   25.6560   30.9170 O   0  0  0  0  0  0  0  0  0  0  0  0
   36.5390   24.3410   30.9690 C   0  0  0  0  0  0  0  0  0  0  0  0
   35.7030   23.3260   31.3850 C   0  0  0  0  0  0  0  0  0  0  0  0
   34.6620   23.3230   31.7180 H   0  0  0  0  0  0  0  0  0  0  0  0
   36.3400   22.1330   31.3550 N   0  0  0  0  0  0  0  0  0  0  0  0
   36.0670   21.1600   31.5860 H   0  0  0  0  0  0  0  0  0  0  0  0
   37.6010   22.4040   30.9120 C   0  0  0  0  0  0  0  0  0  0  0  0
   38.4180   21.7170   30.7520 H   0  0  0  0  0  0  0  0  0  0  0  0
   37.7130   23.7120   30.6850 N   0  0  0  0  0  0  0  0  0  0  0  0
  1  6  1  1  0  0  0
  1  2  1  0  0  0  0
  2  7  1  6  0  0  0
  2 12  1  0  0  0  0
  2  3  1  0  0  0  0
  4  9  1  0  0  0  0
  4  8  1  0  0  0  0
  4  3  1  0  0  0  0
  5 10  1  6  0  0  0
  5  1  1  0  0  0  0
  5  4  1  0  0  0  0
 11 14  1  1  0  0  0
 11 18  1  0  0  0  0
 12 15  1  6  0  0  0
 12 11  1  0  0  0  0
 13 12  1  0  0  0  0
 13 11  1  0  0  0  0
 16 13  1  0  0  0  0
 17 13  1  0  0  0  0
 18 19  1  0  0  0  0
 19 24  1  0  0  0  0
 19 20  2  0  0  0  0
 20 25  1  0  0  0  0
 21 20  1  0  0  0  0
 22 21  2  0  0  0  0
 23 18  2  0  0  0  0
 23 22  1  0  0  0  0
 26 22  1  0  0  0  0
 27 28  1  0  0  0  0
 27  1  1  0  0  0  0
 29 30  1  0  0  0  0
 29  5  1  0  0  0  0
 30 31  2  0  0  0  0
 31 32  1  0  0  0  0
 33 31  1  0  0  0  0
 33 34  1  0  0  0  0
 35 33  1  0  0  0  0
 36 35  1  0  0  0  0
 37 35  2  0  0  0  0
 37 30  1  0  0  0  0
M  END
>  <minimizedAffinity>
-4.87720871

$$$$

 OpenBabel03272508293D

 37 40  0  0  1  0  0  0  0  0999 V2000
   37.6580   26.6420   32.9110 C   0  0  2  0  0  0  0  0  0  0  0  0
   39.0300   27.1710   33.2940 C   0  0  2  0  0  0  0  0  0  0  0  0
   39.8560   26.8390   32.2660 O   0  0  0  0  0  0  0  0  0  0  0  0
   39.1480   26.6550   31.1160 C   0  0  0  0  0  0  0  0  0  0  0  0
   37.6920   26.9380   31.4070 C   0  0  1  0  0  0  0  0  0  0  0  0
   37.5560   25.5600   33.0690 H   0  0  0  0  0  0  0  0  0  0  0  0
   38.9580   28.2640   33.3730 H   0  0  0  0  0  0  0  0  0  0  0  0
   39.2280   25.5770   30.8200 H   0  0  0  0  0  0  0  0  0  0  0  0
   39.5260   27.2370   30.2510 H   0  0  0  0  0  0  0  0  0  0  0  0
   37.5220   28.0160   31.2190 H   0  0  0  0  0  0  0  0  0  0  0  0
   39.5310   25.0670   34.7130 C   0  0  1  0  0  0  0  0  0  0  0  0
   39.4230   26.5000   34.5700 C   0  0  1  0  0  0  0  0  0  0  0  0
   40.7930   25.9410   34.7750 C   0  0  0  0  0  0  0  0  0  0  0  0
   39.6430   24.3130   33.9130 H   0  0  0  0  0  0  0  0  0  0  0  0
   39.0180   27.0470   35.4710 H   0  0  0  0  0  0  0  0  0  0  0  0
   41.5020   25.9210   33.9370 H   0  0  0  0  0  0  0  0  0  0  0  0
   41.2960   26.0680   35.7660 H   0  0  0  0  0  0  0  0  0  0  0  0
   39.2530   24.3850   36.0440 C   0  0  0  0  0  0  0  0  0  0  0  0
   38.1740   24.8500   36.7960 C   0  0  0  0  0  0  0  0  0  0  0  0
   37.9790   24.2110   38.0050 C   0  0  0  0  0  0  0  0  0  0  0  0
   38.8000   23.1980   38.4110 N   0  0  0  0  0  0  0  0  0  0  0  0
   39.8430   22.7720   37.6460 C   0  0  0  0  0  0  0  0  0  0  0  0
   40.0660   23.3770   36.4520 N   0  0  0  0  0  0  0  0  0  0  0  0
   37.5550   25.6500   36.4400 H   0  0  0  0  0  0  0  0  0  0  0  0
   37.1540   24.5150   38.6540 H   0  0  0  0  0  0  0  0  0  0  0  0
   40.4680   21.9670   38.0060 H   0  0  0  0  0  0  0  0  0  0  0  0
   36.6110   27.2920   33.5330 O   0  0  0  0  0  0  0  0  0  0  0  0
   36.9200   27.4950   34.4530 H   0  0  0  0  0  0  0  0  0  0  0  0
   36.8090   26.1660   30.7080 O   0  0  0  0  0  0  0  0  0  0  0  0
   36.6630   24.8050   30.9350 C   0  0  0  0  0  0  0  0  0  0  0  0
   35.4790   24.2830   31.4090 C   0  0  0  0  0  0  0  0  0  0  0  0
   34.5260   24.7480   31.6730 H   0  0  0  0  0  0  0  0  0  0  0  0
   35.5670   22.9410   31.5540 N   0  0  0  0  0  0  0  0  0  0  0  0
   34.9130   22.2030   31.8750 H   0  0  0  0  0  0  0  0  0  0  0  0
   36.8320   22.6150   31.1640 C   0  0  0  0  0  0  0  0  0  0  0  0
   37.2940   21.6400   31.1350 H   0  0  0  0  0  0  0  0  0  0  0  0
   37.4760   23.7210   30.7990 N   0  0  0  0  0  0  0  0  0  0  0  0
  1  6  1  1  0  0  0
  1  2  1  0  0  0  0
  1 27  1  0  0  0  0
  2  7  1  1  0  0  0
  2 12  1  0  0  0  0
  3  2  1  0  0  0  0
  4  5  1  0  0  0  0
  4  3  1  0  0  0  0
  5 10  1  6  0  0  0
  5  1  1  0  0  0  0
  8  4  1  0  0  0  0
  9  4  1  0  0  0  0
 11 14  1  6  0  0  0
 11 13  1  0  0  0  0
 11 18  1  0  0  0  0
 12 11  1  0  0  0  0
 12 13  1  0  0  0  0
 12 15  1  1  0  0  0
 13 17  1  0  0  0  0
 16 13  1  0  0  0  0
 18 23  2  0  0  0  0
 18 19  1  0  0  0  0
 19 20  2  0  0  0  0
 20 21  1  0  0  0  0
 20 25  1  0  0  0  0
 22 26  1  0  0  0  0
 22 21  2  0  0  0  0
 23 22  1  0  0  0  0
 24 19  1  0  0  0  0
 27 28  1  0  0  0  0
 29 30  1  0  0  0  0
 29  5  1  0  0  0  0
 30 31  2  0  0  0  0
 31 33  1  0  0  0  0
 31 32  1  0  0  0  0
 33 34  1  0  0  0  0
 35 33  1  0  0  0  0
 36 35  1  0  0  0  0
 37 30  1  0  0  0  0
 37 35  2  0  0  0  0
M  END
>  <minimizedAffinity>
-4.87217283

$$$$
