
 OpenBabel03262521393D

 28 30  0  0  0  0  0  0  0  0999 V2000
   32.9020   29.4400   34.1940 F   0  0  0  0  0  0  0  0  0  0  0  0
   33.5790   30.2700   35.0740 C   0  0  0  0  0  0  0  0  0  0  0  0
   34.9210   30.5800   34.9050 C   0  0  0  0  0  0  0  0  0  0  0  0
   35.5300   31.4140   35.8190 C   0  0  0  0  0  0  0  0  0  0  0  0
   34.8220   31.9420   36.8950 C   0  0  0  0  0  0  0  0  0  0  0  0
   33.4860   31.5990   37.0150 C   0  0  0  0  0  0  0  0  0  0  0  0
   32.8380   30.7760   36.1360 C   0  0  0  0  0  0  0  0  0  0  0  0
   36.5680   31.6540   35.6870 H   0  0  0  0  0  0  0  0  0  0  0  0
   35.2740   32.6010   37.6300 H   0  0  0  0  0  0  0  0  0  0  0  0
   32.8730   31.9710   37.8270 H   0  0  0  0  0  0  0  0  0  0  0  0
   36.0340   28.7200   33.9520 C   0  0  0  0  0  0  0  0  0  0  0  0
   35.5620   29.9990   33.7810 C   0  0  0  0  0  0  0  0  0  0  0  0
   35.7540   30.6040   32.5160 C   0  0  0  0  0  0  0  0  0  0  0  0
   36.3950   29.8820   31.5490 N   0  0  0  0  0  0  0  0  0  0  0  0
   36.8350   28.6280   31.7790 C   0  0  0  0  0  0  0  0  0  0  0  0
   36.6660   28.0310   32.9680 N   0  0  0  0  0  0  0  0  0  0  0  0
   35.9410   28.1640   34.8780 H   0  0  0  0  0  0  0  0  0  0  0  0
   35.3750   31.6010   32.4140 H   0  0  0  0  0  0  0  0  0  0  0  0
   37.3040   28.2670   30.8710 H   0  0  0  0  0  0  0  0  0  0  0  0
   31.1030   30.3470   36.3200 S   0  0  0  0  0  0  0  0  0  0  0  0
   30.9290   28.6690   36.9000 C   0  0  0  0  0  0  0  0  0  0  0  0
   31.3860   27.5220   36.2730 C   0  0  0  0  0  0  0  0  0  0  0  0
   31.9190   27.5600   35.3220 H   0  0  0  0  0  0  0  0  0  0  0  0
   31.0470   26.4730   37.0440 N   0  0  0  0  0  0  0  0  0  0  0  0
   31.3210   25.5210   36.7110 H   0  0  0  0  0  0  0  0  0  0  0  0
   30.3870   26.9470   38.1390 C   0  0  0  0  0  0  0  0  0  0  0  0
   30.0640   26.1990   38.8330 H   0  0  0  0  0  0  0  0  0  0  0  0
   30.3290   28.3060   38.0230 N   0  0  0  0  0  0  0  0  0  0  0  0
  1  2  1  0  0  0  0
  2  7  1  0  0  0  0
  3  2  2  0  0  0  0
  3  4  1  0  0  0  0
  4  5  2  0  0  0  0
  5  6  1  0  0  0  0
  5  9  1  0  0  0  0
  6 10  1  0  0  0  0
  7 20  1  0  0  0  0
  7  6  2  0  0  0  0
  8  4  1  0  0  0  0
 11 17  1  0  0  0  0
 12 11  1  0  0  0  0
 12  3  1  0  0  0  0
 13 12  2  0  0  0  0
 14 15  2  0  0  0  0
 14 13  1  0  0  0  0
 15 16  1  0  0  0  0
 16 11  2  0  0  0  0
 18 13  1  0  0  0  0
 19 15  1  0  0  0  0
 20 21  1  0  0  0  0
 21 28  1  0  0  0  0
 22 21  2  0  0  0  0
 22 24  1  0  0  0  0
 23 22  1  0  0  0  0
 24 26  1  0  0  0  0
 25 24  1  0  0  0  0
 26 27  1  0  0  0  0
 28 26  2  0  0  0  0
M  END
>  <minimizedAffinity>
-5.15837765

$$$$

 OpenBabel03262521393D

 28 30  0  0  0  0  0  0  0  0999 V2000
   38.3000   21.5630   34.1630 F   0  0  0  0  0  0  0  0  0  0  0  0
   37.7000   22.5780   33.4360 C   0  0  0  0  0  0  0  0  0  0  0  0
   36.6790   22.3270   32.5310 C   0  0  0  0  0  0  0  0  0  0  0  0
   36.1260   23.3870   31.8430 C   0  0  0  0  0  0  0  0  0  0  0  0
   36.5750   24.6890   32.0450 C   0  0  0  0  0  0  0  0  0  0  0  0
   37.5960   24.8810   32.9590 C   0  0  0  0  0  0  0  0  0  0  0  0
   38.1770   23.8630   33.6650 C   0  0  0  0  0  0  0  0  0  0  0  0
   35.3350   23.1920   31.1420 H   0  0  0  0  0  0  0  0  0  0  0  0
   36.1590   25.5430   31.5190 H   0  0  0  0  0  0  0  0  0  0  0  0
   37.9960   25.8660   33.1680 H   0  0  0  0  0  0  0  0  0  0  0  0
   36.6370   20.3630   31.2100 C   0  0  0  0  0  0  0  0  0  0  0  0
   36.2840   20.9730   32.3900 C   0  0  0  0  0  0  0  0  0  0  0  0
   35.5740   20.1990   33.3390 C   0  0  0  0  0  0  0  0  0  0  0  0
   35.2850   18.9020   33.0250 N   0  0  0  0  0  0  0  0  0  0  0  0
   35.6610   18.3600   31.8480 C   0  0  0  0  0  0  0  0  0  0  0  0
   36.3340   19.0690   30.9310 N   0  0  0  0  0  0  0  0  0  0  0  0
   37.1810   20.8610   30.4150 H   0  0  0  0  0  0  0  0  0  0  0  0
   35.3130   20.7040   34.2480 H   0  0  0  0  0  0  0  0  0  0  0  0
   35.3220   17.3300   31.8310 H   0  0  0  0  0  0  0  0  0  0  0  0
   39.5030   24.1450   34.8440 S   0  0  0  0  0  0  0  0  0  0  0  0
   38.9880   23.6890   36.4900 C   0  0  0  0  0  0  0  0  0  0  0  0
   39.6950   22.9180   37.3980 C   0  0  0  0  0  0  0  0  0  0  0  0
   40.6780   22.5070   37.1610 H   0  0  0  0  0  0  0  0  0  0  0  0
   38.9500   22.8150   38.5120 N   0  0  0  0  0  0  0  0  0  0  0  0
   39.3420   22.2590   39.3060 H   0  0  0  0  0  0  0  0  0  0  0  0
   37.7930   23.5080   38.3150 C   0  0  0  0  0  0  0  0  0  0  0  0
   37.1110   23.5000   39.1410 H   0  0  0  0  0  0  0  0  0  0  0  0
   37.8440   24.0370   37.0580 N   0  0  0  0  0  0  0  0  0  0  0  0
  2  7  1  0  0  0  0
  2  1  1  0  0  0  0
  3  2  2  0  0  0  0
  4  5  2  0  0  0  0
  4  3  1  0  0  0  0
  5  6  1  0  0  0  0
  6 10  1  0  0  0  0
  6  7  2  0  0  0  0
  7 20  1  0  0  0  0
  8  4  1  0  0  0  0
  9  5  1  0  0  0  0
 11 12  1  0  0  0  0
 12  3  1  0  0  0  0
 12 13  2  0  0  0  0
 13 18  1  0  0  0  0
 14 13  1  0  0  0  0
 15 14  2  0  0  0  0
 16 11  2  0  0  0  0
 16 15  1  0  0  0  0
 17 11  1  0  0  0  0
 19 15  1  0  0  0  0
 20 21  1  0  0  0  0
 21 28  1  0  0  0  0
 21 22  2  0  0  0  0
 22 24  1  0  0  0  0
 23 22  1  0  0  0  0
 24 25  1  0  0  0  0
 26 24  1  0  0  0  0
 26 27  1  0  0  0  0
 28 26  2  0  0  0  0
M  END
>  <minimizedAffinity>
-5.15305662

$$$$

 OpenBabel03262521393D

 28 30  0  0  0  0  0  0  0  0999 V2000
   38.0570   26.5370   33.0040 F   0  0  0  0  0  0  0  0  0  0  0  0
   37.1890   25.6520   32.3840 C   0  0  0  0  0  0  0  0  0  0  0  0
   36.1490   26.0900   31.5770 C   0  0  0  0  0  0  0  0  0  0  0  0
   35.3260   25.1530   30.9890 C   0  0  0  0  0  0  0  0  0  0  0  0
   35.5240   23.7900   31.1930 C   0  0  0  0  0  0  0  0  0  0  0  0
   36.5770   23.4110   32.0080 C   0  0  0  0  0  0  0  0  0  0  0  0
   37.4210   24.3010   32.6130 C   0  0  0  0  0  0  0  0  0  0  0  0
   34.5200   25.4930   30.3640 H   0  0  0  0  0  0  0  0  0  0  0  0
   34.8930   23.0300   30.7440 H   0  0  0  0  0  0  0  0  0  0  0  0
   36.7920   22.3690   32.2120 H   0  0  0  0  0  0  0  0  0  0  0  0
   36.6700   28.0410   30.3420 C   0  0  0  0  0  0  0  0  0  0  0  0
   36.0220   27.4930   31.4230 C   0  0  0  0  0  0  0  0  0  0  0  0
   35.2970   28.3710   32.2650 C   0  0  0  0  0  0  0  0  0  0  0  0
   35.2880   29.7010   31.9510 N   0  0  0  0  0  0  0  0  0  0  0  0
   35.9440   30.1770   30.8740 C   0  0  0  0  0  0  0  0  0  0  0  0
   36.6390   29.3690   30.0600 N   0  0  0  0  0  0  0  0  0  0  0  0
   37.2530   27.4630   29.6340 H   0  0  0  0  0  0  0  0  0  0  0  0
   34.8040   27.9140   33.0990 H   0  0  0  0  0  0  0  0  0  0  0  0
   35.7890   31.2500   30.8360 H   0  0  0  0  0  0  0  0  0  0  0  0
   38.7770   23.7750   33.6670 S   0  0  0  0  0  0  0  0  0  0  0  0
   38.2120   23.5280   35.3410 C   0  0  0  0  0  0  0  0  0  0  0  0
   37.7360   22.3490   35.8920 C   0  0  0  0  0  0  0  0  0  0  0  0
   37.6670   21.4290   35.3090 H   0  0  0  0  0  0  0  0  0  0  0  0
   37.4180   22.5980   37.1740 N   0  0  0  0  0  0  0  0  0  0  0  0
   37.0390   21.8040   37.7400 H   0  0  0  0  0  0  0  0  0  0  0  0
   37.6880   23.9090   37.4320 C   0  0  0  0  0  0  0  0  0  0  0  0
   37.4740   24.2290   38.4310 H   0  0  0  0  0  0  0  0  0  0  0  0
   38.1770   24.4580   36.2830 N   0  0  0  0  0  0  0  0  0  0  0  0
  2  7  1  0  0  0  0
  2  1  1  0  0  0  0
  3  2  2  0  0  0  0
  4  5  2  0  0  0  0
  4  3  1  0  0  0  0
  5  6  1  0  0  0  0
  6 10  1  0  0  0  0
  6  7  2  0  0  0  0
  7 20  1  0  0  0  0
  8  4  1  0  0  0  0
  9  5  1  0  0  0  0
 11 12  1  0  0  0  0
 12  3  1  0  0  0  0
 12 13  2  0  0  0  0
 13 18  1  0  0  0  0
 14 13  1  0  0  0  0
 15 14  2  0  0  0  0
 16 11  2  0  0  0  0
 16 15  1  0  0  0  0
 17 11  1  0  0  0  0
 19 15  1  0  0  0  0
 20 21  1  0  0  0  0
 21 22  2  0  0  0  0
 21 28  1  0  0  0  0
 22 24  1  0  0  0  0
 23 22  1  0  0  0  0
 24 26  1  0  0  0  0
 24 25  1  0  0  0  0
 26 27  1  0  0  0  0
 28 26  2  0  0  0  0
M  END
>  <minimizedAffinity>
-5.07984543

$$$$

 OpenBabel03262521393D

 28 30  0  0  0  0  0  0  0  0999 V2000
   38.1560   22.7590   32.8510 F   0  0  0  0  0  0  0  0  0  0  0  0
   37.1700   23.4860   32.2040 C   0  0  0  0  0  0  0  0  0  0  0  0
   35.9990   22.8940   31.7540 C   0  0  0  0  0  0  0  0  0  0  0  0
   35.0600   23.6790   31.1190 C   0  0  0  0  0  0  0  0  0  0  0  0
   35.2710   25.0420   30.9280 C   0  0  0  0  0  0  0  0  0  0  0  0
   36.4570   25.5790   31.3970 C   0  0  0  0  0  0  0  0  0  0  0  0
   37.4200   24.8430   32.0320 C   0  0  0  0  0  0  0  0  0  0  0  0
   34.1530   23.2200   30.7720 H   0  0  0  0  0  0  0  0  0  0  0  0
   34.5500   25.6850   30.4320 H   0  0  0  0  0  0  0  0  0  0  0  0
   36.6900   26.6310   31.2830 H   0  0  0  0  0  0  0  0  0  0  0  0
   36.1200   20.6820   30.9200 C   0  0  0  0  0  0  0  0  0  0  0  0
   35.8670   21.5030   31.9930 C   0  0  0  0  0  0  0  0  0  0  0  0
   35.5100   20.8890   33.2170 C   0  0  0  0  0  0  0  0  0  0  0  0
   35.4380   19.5250   33.2550 N   0  0  0  0  0  0  0  0  0  0  0  0
   35.6980   18.7730   32.1660 C   0  0  0  0  0  0  0  0  0  0  0  0
   36.0390   19.3290   30.9940 N   0  0  0  0  0  0  0  0  0  0  0  0
   36.4010   21.0450   29.9380 H   0  0  0  0  0  0  0  0  0  0  0  0
   35.3190   21.5560   34.0340 H   0  0  0  0  0  0  0  0  0  0  0  0
   35.5770   17.7320   32.4420 H   0  0  0  0  0  0  0  0  0  0  0  0
   38.9510   25.5700   32.6270 S   0  0  0  0  0  0  0  0  0  0  0  0
   38.6540   26.5510   34.0870 C   0  0  0  0  0  0  0  0  0  0  0  0
   39.5300   26.7590   35.1400 C   0  0  0  0  0  0  0  0  0  0  0  0
   40.5260   26.3130   35.1560 H   0  0  0  0  0  0  0  0  0  0  0  0
   38.9140   27.5550   36.0310 N   0  0  0  0  0  0  0  0  0  0  0  0
   39.4430   27.8140   36.8950 H   0  0  0  0  0  0  0  0  0  0  0  0
   37.6710   27.8470   35.5520 C   0  0  0  0  0  0  0  0  0  0  0  0
   37.0790   28.4810   36.1800 H   0  0  0  0  0  0  0  0  0  0  0  0
   37.5390   27.2130   34.3510 N   0  0  0  0  0  0  0  0  0  0  0  0
  2  1  1  0  0  0  0
  3 12  1  0  0  0  0
  3  2  2  0  0  0  0
  4  3  1  0  0  0  0
  5  4  2  0  0  0  0
  5  6  1  0  0  0  0
  6  7  2  0  0  0  0
  7  2  1  0  0  0  0
  7 20  1  0  0  0  0
  8  4  1  0  0  0  0
  9  5  1  0  0  0  0
 10  6  1  0  0  0  0
 11 16  2  0  0  0  0
 11 12  1  0  0  0  0
 12 13  2  0  0  0  0
 13 14  1  0  0  0  0
 13 18  1  0  0  0  0
 15 19  1  0  0  0  0
 15 14  2  0  0  0  0
 16 15  1  0  0  0  0
 17 11  1  0  0  0  0
 20 21  1  0  0  0  0
 21 28  1  0  0  0  0
 21 22  2  0  0  0  0
 22 23  1  0  0  0  0
 22 24  1  0  0  0  0
 24 25  1  0  0  0  0
 26 24  1  0  0  0  0
 26 27  1  0  0  0  0
 28 26  2  0  0  0  0
M  END
>  <minimizedAffinity>
-4.9663105

$$$$

 OpenBabel03262521393D

 28 30  0  0  0  0  0  0  0  0999 V2000
   37.8050   24.6230   33.7930 F   0  0  0  0  0  0  0  0  0  0  0  0
   38.9840   25.3490   33.8290 C   0  0  0  0  0  0  0  0  0  0  0  0
   39.0690   26.6360   33.3180 C   0  0  0  0  0  0  0  0  0  0  0  0
   40.2750   27.3010   33.3900 C   0  0  0  0  0  0  0  0  0  0  0  0
   41.3930   26.7030   33.9640 C   0  0  0  0  0  0  0  0  0  0  0  0
   41.2510   25.4180   34.4580 C   0  0  0  0  0  0  0  0  0  0  0  0
   40.0780   24.7170   34.4100 C   0  0  0  0  0  0  0  0  0  0  0  0
   40.3400   28.2970   32.9940 H   0  0  0  0  0  0  0  0  0  0  0  0
   42.3550   27.2020   34.0350 H   0  0  0  0  0  0  0  0  0  0  0  0
   42.0780   24.8900   34.9180 H   0  0  0  0  0  0  0  0  0  0  0  0
   37.0520   27.8380   33.6200 C   0  0  0  0  0  0  0  0  0  0  0  0
   37.8810   27.1660   32.7540 C   0  0  0  0  0  0  0  0  0  0  0  0
   37.4770   27.0750   31.4000 C   0  0  0  0  0  0  0  0  0  0  0  0
   36.2940   27.6560   31.0420 N   0  0  0  0  0  0  0  0  0  0  0  0
   35.5240   28.3020   31.9400 C   0  0  0  0  0  0  0  0  0  0  0  0
   35.8820   28.4050   33.2290 N   0  0  0  0  0  0  0  0  0  0  0  0
   37.2630   27.9680   34.6750 H   0  0  0  0  0  0  0  0  0  0  0  0
   38.1450   26.5450   30.7500 H   0  0  0  0  0  0  0  0  0  0  0  0
   34.6470   28.6740   31.4220 H   0  0  0  0  0  0  0  0  0  0  0  0
   39.9270   23.0480   35.0580 S   0  0  0  0  0  0  0  0  0  0  0  0
   39.2450   23.0750   36.7070 C   0  0  0  0  0  0  0  0  0  0  0  0
   39.9020   22.7520   37.8820 C   0  0  0  0  0  0  0  0  0  0  0  0
   40.9470   22.4380   37.8900 H   0  0  0  0  0  0  0  0  0  0  0  0
   39.0270   22.9030   38.8920 N   0  0  0  0  0  0  0  0  0  0  0  0
   39.3660   22.6980   39.8600 H   0  0  0  0  0  0  0  0  0  0  0  0
   37.8390   23.3160   38.3670 C   0  0  0  0  0  0  0  0  0  0  0  0
   37.0560   23.4720   39.0800 H   0  0  0  0  0  0  0  0  0  0  0  0
   38.0030   23.4130   37.0150 N   0  0  0  0  0  0  0  0  0  0  0  0
  1  2  1  0  0  0  0
  2  7  1  0  0  0  0
  3  4  1  0  0  0  0
  3  2  2  0  0  0  0
  4  5  2  0  0  0  0
  5  9  1  0  0  0  0
  5  6  1  0  0  0  0
  6 10  1  0  0  0  0
  7  6  2  0  0  0  0
  7 20  1  0  0  0  0
  8  4  1  0  0  0  0
 11 17  1  0  0  0  0
 12  3  1  0  0  0  0
 12 11  2  0  0  0  0
 13 12  1  0  0  0  0
 14 13  2  0  0  0  0
 14 15  1  0  0  0  0
 15 16  2  0  0  0  0
 16 11  1  0  0  0  0
 18 13  1  0  0  0  0
 19 15  1  0  0  0  0
 20 21  1  0  0  0  0
 21 28  1  0  0  0  0
 21 22  2  0  0  0  0
 22 23  1  0  0  0  0
 22 24  1  0  0  0  0
 24 25  1  0  0  0  0
 26 24  1  0  0  0  0
 26 27  1  0  0  0  0
 28 26  2  0  0  0  0
M  END
>  <minimizedAffinity>
-4.95308352

$$$$

 OpenBabel03262521393D

 28 30  0  0  0  0  0  0  0  0999 V2000
   36.1470   28.0550   34.9120 F   0  0  0  0  0  0  0  0  0  0  0  0
   36.2130   28.7480   33.7130 C   0  0  0  0  0  0  0  0  0  0  0  0
   35.6280   29.9960   33.5540 C   0  0  0  0  0  0  0  0  0  0  0  0
   35.7360   30.6280   32.3330 C   0  0  0  0  0  0  0  0  0  0  0  0
   36.4160   30.0360   31.2730 C   0  0  0  0  0  0  0  0  0  0  0  0
   36.9790   28.7900   31.4880 C   0  0  0  0  0  0  0  0  0  0  0  0
   36.9000   28.1220   32.6790 C   0  0  0  0  0  0  0  0  0  0  0  0
   35.2830   31.5950   32.2110 H   0  0  0  0  0  0  0  0  0  0  0  0
   36.5170   30.5100   30.3010 H   0  0  0  0  0  0  0  0  0  0  0  0
   37.5230   28.2690   30.7090 H   0  0  0  0  0  0  0  0  0  0  0  0
   35.7150   31.3110   35.5210 C   0  0  0  0  0  0  0  0  0  0  0  0
   34.9580   30.5230   34.6860 C   0  0  0  0  0  0  0  0  0  0  0  0
   33.6000   30.3220   35.0310 C   0  0  0  0  0  0  0  0  0  0  0  0
   33.1290   30.9190   36.1660 N   0  0  0  0  0  0  0  0  0  0  0  0
   33.9240   31.6820   36.9440 C   0  0  0  0  0  0  0  0  0  0  0  0
   35.2140   31.8900   36.6420 N   0  0  0  0  0  0  0  0  0  0  0  0
   36.7630   31.5300   35.3530 H   0  0  0  0  0  0  0  0  0  0  0  0
   33.0370   29.7030   34.3610 H   0  0  0  0  0  0  0  0  0  0  0  0
   33.3300   32.0420   37.7770 H   0  0  0  0  0  0  0  0  0  0  0  0
   37.6410   26.5040   32.9250 S   0  0  0  0  0  0  0  0  0  0  0  0
   36.6650   25.2400   32.1290 C   0  0  0  0  0  0  0  0  0  0  0  0
   35.5810   25.4330   31.2890 C   0  0  0  0  0  0  0  0  0  0  0  0
   35.2190   26.4310   31.0370 H   0  0  0  0  0  0  0  0  0  0  0  0
   35.1380   24.2210   30.9110 N   0  0  0  0  0  0  0  0  0  0  0  0
   34.3140   24.1870   30.2680 H   0  0  0  0  0  0  0  0  0  0  0  0
   35.9280   23.2780   31.4980 C   0  0  0  0  0  0  0  0  0  0  0  0
   35.6710   22.2640   31.2700 H   0  0  0  0  0  0  0  0  0  0  0  0
   36.8620   23.9360   32.2440 N   0  0  0  0  0  0  0  0  0  0  0  0
  2  1  1  0  0  0  0
  3  2  1  0  0  0  0
  3 12  1  0  0  0  0
  4  3  2  0  0  0  0
  5  6  2  0  0  0  0
  5  4  1  0  0  0  0
  6  7  1  0  0  0  0
  7 20  1  0  0  0  0
  7  2  2  0  0  0  0
  8  4  1  0  0  0  0
  9  5  1  0  0  0  0
 10  6  1  0  0  0  0
 11 16  1  0  0  0  0
 12 13  1  0  0  0  0
 12 11  2  0  0  0  0
 13 14  2  0  0  0  0
 14 15  1  0  0  0  0
 15 19  1  0  0  0  0
 16 15  2  0  0  0  0
 17 11  1  0  0  0  0
 18 13  1  0  0  0  0
 21 28  1  0  0  0  0
 21 20  1  0  0  0  0
 22 21  2  0  0  0  0
 23 22  1  0  0  0  0
 24 22  1  0  0  0  0
 24 26  1  0  0  0  0
 25 24  1  0  0  0  0
 26 28  2  0  0  0  0
 27 26  1  0  0  0  0
M  END
>  <minimizedAffinity>
-4.82142687

$$$$

 OpenBabel03262521393D

 28 30  0  0  0  0  0  0  0  0999 V2000
   38.0450   24.0930   33.5790 F   0  0  0  0  0  0  0  0  0  0  0  0
   37.9660   25.3120   34.2330 C   0  0  0  0  0  0  0  0  0  0  0  0
   38.5820   25.5300   35.4560 C   0  0  0  0  0  0  0  0  0  0  0  0
   38.4630   26.7690   36.0490 C   0  0  0  0  0  0  0  0  0  0  0  0
   37.7410   27.7920   35.4400 C   0  0  0  0  0  0  0  0  0  0  0  0
   37.1470   27.5190   34.2200 C   0  0  0  0  0  0  0  0  0  0  0  0
   37.2350   26.3070   33.5920 C   0  0  0  0  0  0  0  0  0  0  0  0
   38.9410   26.9370   36.9960 H   0  0  0  0  0  0  0  0  0  0  0  0
   37.6300   28.7770   35.8820 H   0  0  0  0  0  0  0  0  0  0  0  0
   36.5690   28.2660   33.6880 H   0  0  0  0  0  0  0  0  0  0  0  0
   38.7210   23.8200   37.0880 C   0  0  0  0  0  0  0  0  0  0  0  0
   39.2970   24.4340   36.0020 C   0  0  0  0  0  0  0  0  0  0  0  0
   40.5310   23.9170   35.5370 C   0  0  0  0  0  0  0  0  0  0  0  0
   41.0680   22.8460   36.1940 N   0  0  0  0  0  0  0  0  0  0  0  0
   40.4510   22.2870   37.2550 C   0  0  0  0  0  0  0  0  0  0  0  0
   39.2820   22.7560   37.7160 N   0  0  0  0  0  0  0  0  0  0  0  0
   37.7790   24.1330   37.5250 H   0  0  0  0  0  0  0  0  0  0  0  0
   40.9550   24.4180   34.6890 H   0  0  0  0  0  0  0  0  0  0  0  0
   41.0640   21.4620   37.6000 H   0  0  0  0  0  0  0  0  0  0  0  0
   36.4500   25.9830   32.0090 S   0  0  0  0  0  0  0  0  0  0  0  0
   37.1270   27.0430   30.7440 C   0  0  0  0  0  0  0  0  0  0  0  0
   38.3510   26.9040   30.1110 C   0  0  0  0  0  0  0  0  0  0  0  0
   39.0330   26.0870   30.3520 H   0  0  0  0  0  0  0  0  0  0  0  0
   38.4710   27.9110   29.2290 N   0  0  0  0  0  0  0  0  0  0  0  0
   39.3480   27.9540   28.6600 H   0  0  0  0  0  0  0  0  0  0  0  0
   37.3440   28.6750   29.3010 C   0  0  0  0  0  0  0  0  0  0  0  0
   37.3220   29.5160   28.6390 H   0  0  0  0  0  0  0  0  0  0  0  0
   36.5330   28.1160   30.2450 N   0  0  0  0  0  0  0  0  0  0  0  0
  1  2  1  0  0  0  0
  2  3  1  0  0  0  0
  3 12  1  0  0  0  0
  3  4  2  0  0  0  0
  4  8  1  0  0  0  0
  5  9  1  0  0  0  0
  5  4  1  0  0  0  0
  6  5  2  0  0  0  0
  7  6  1  0  0  0  0
  7  2  2  0  0  0  0
 10  6  1  0  0  0  0
 11 17  1  0  0  0  0
 11 16  1  0  0  0  0
 12 11  2  0  0  0  0
 13 12  1  0  0  0  0
 13 14  2  0  0  0  0
 14 15  1  0  0  0  0
 15 19  1  0  0  0  0
 15 16  2  0  0  0  0
 18 13  1  0  0  0  0
 20  7  1  0  0  0  0
 21 20  1  0  0  0  0
 22 23  1  0  0  0  0
 22 21  2  0  0  0  0
 24 26  1  0  0  0  0
 24 22  1  0  0  0  0
 25 24  1  0  0  0  0
 26 28  2  0  0  0  0
 27 26  1  0  0  0  0
 28 21  1  0  0  0  0
M  END
>  <minimizedAffinity>
-4.8035121

$$$$

 OpenBabel03262521393D

 28 30  0  0  0  0  0  0  0  0999 V2000
   36.2790   28.2890   34.9430 F   0  0  0  0  0  0  0  0  0  0  0  0
   36.1180   28.9070   33.7130 C   0  0  0  0  0  0  0  0  0  0  0  0
   35.4820   30.1340   33.5870 C   0  0  0  0  0  0  0  0  0  0  0  0
   35.3590   30.6910   32.3320 C   0  0  0  0  0  0  0  0  0  0  0  0
   35.8600   30.0450   31.2050 C   0  0  0  0  0  0  0  0  0  0  0  0
   36.4840   28.8240   31.3900 C   0  0  0  0  0  0  0  0  0  0  0  0
   36.6300   28.2300   32.6130 C   0  0  0  0  0  0  0  0  0  0  0  0
   34.8680   31.6420   32.2350 H   0  0  0  0  0  0  0  0  0  0  0  0
   35.7780   30.4600   30.2050 H   0  0  0  0  0  0  0  0  0  0  0  0
   36.8970   28.2640   30.5600 H   0  0  0  0  0  0  0  0  0  0  0  0
   33.6760   30.5150   35.0690 C   0  0  0  0  0  0  0  0  0  0  0  0
   35.0060   30.7200   34.7870 C   0  0  0  0  0  0  0  0  0  0  0  0
   35.7610   31.4820   35.7100 C   0  0  0  0  0  0  0  0  0  0  0  0
   35.1240   31.9650   36.8190 N   0  0  0  0  0  0  0  0  0  0  0  0
   33.8150   31.7280   37.0400 C   0  0  0  0  0  0  0  0  0  0  0  0
   33.0760   31.0090   36.1820 N   0  0  0  0  0  0  0  0  0  0  0  0
   33.0070   29.9480   34.4330 H   0  0  0  0  0  0  0  0  0  0  0  0
   36.7940   31.6250   35.4610 H   0  0  0  0  0  0  0  0  0  0  0  0
   33.5420   32.2070   37.9730 H   0  0  0  0  0  0  0  0  0  0  0  0
   37.4440   26.6410   32.8200 S   0  0  0  0  0  0  0  0  0  0  0  0
   39.0730   26.8560   33.5140 C   0  0  0  0  0  0  0  0  0  0  0  0
   39.4110   26.8550   34.8570 C   0  0  0  0  0  0  0  0  0  0  0  0
   38.6620   26.7150   35.6380 H   0  0  0  0  0  0  0  0  0  0  0  0
   40.7380   27.0490   34.9440 N   0  0  0  0  0  0  0  0  0  0  0  0
   41.1610   27.0750   35.9000 H   0  0  0  0  0  0  0  0  0  0  0  0
   41.2340   27.1690   33.6800 C   0  0  0  0  0  0  0  0  0  0  0  0
   42.2910   27.3280   33.6180 H   0  0  0  0  0  0  0  0  0  0  0  0
   40.1830   27.0460   32.8170 N   0  0  0  0  0  0  0  0  0  0  0  0
  2  1  1  0  0  0  0
  3  2  1  0  0  0  0
  3 12  1  0  0  0  0
  4  3  2  0  0  0  0
  5  6  2  0  0  0  0
  5  4  1  0  0  0  0
  6  7  1  0  0  0  0
  7 20  1  0  0  0  0
  7  2  2  0  0  0  0
  8  4  1  0  0  0  0
  9  5  1  0  0  0  0
 10  6  1  0  0  0  0
 11 16  1  0  0  0  0
 12 11  2  0  0  0  0
 12 13  1  0  0  0  0
 13 14  2  0  0  0  0
 14 15  1  0  0  0  0
 15 19  1  0  0  0  0
 16 15  2  0  0  0  0
 17 11  1  0  0  0  0
 18 13  1  0  0  0  0
 20 21  1  0  0  0  0
 21 22  2  0  0  0  0
 22 24  1  0  0  0  0
 22 23  1  0  0  0  0
 24 25  1  0  0  0  0
 26 24  1  0  0  0  0
 27 26  1  0  0  0  0
 28 21  1  0  0  0  0
 28 26  2  0  0  0  0
M  END
>  <minimizedAffinity>
-4.8019433

$$$$

 OpenBabel03262521393D

 28 30  0  0  0  0  0  0  0  0999 V2000
   37.8780   23.9040   33.8240 F   0  0  0  0  0  0  0  0  0  0  0  0
   37.8660   25.1830   34.3580 C   0  0  0  0  0  0  0  0  0  0  0  0
   38.4730   25.4770   35.5710 C   0  0  0  0  0  0  0  0  0  0  0  0
   38.4230   26.7730   36.0400 C   0  0  0  0  0  0  0  0  0  0  0  0
   37.7800   27.7760   35.3200 C   0  0  0  0  0  0  0  0  0  0  0  0
   37.1920   27.4250   34.1170 C   0  0  0  0  0  0  0  0  0  0  0  0
   37.2130   26.1560   33.6090 C   0  0  0  0  0  0  0  0  0  0  0  0
   38.8930   27.0000   36.9790 H   0  0  0  0  0  0  0  0  0  0  0  0
   37.7250   28.8040   35.6650 H   0  0  0  0  0  0  0  0  0  0  0  0
   36.6740   28.1530   33.5040 H   0  0  0  0  0  0  0  0  0  0  0  0
   40.3040   23.9830   35.7030 C   0  0  0  0  0  0  0  0  0  0  0  0
   39.1050   24.3960   36.2340 C   0  0  0  0  0  0  0  0  0  0  0  0
   38.6270   23.7140   37.3790 C   0  0  0  0  0  0  0  0  0  0  0  0
   39.3830   22.6930   37.8810 N   0  0  0  0  0  0  0  0  0  0  0  0
   40.5530   22.3350   37.3140 C   0  0  0  0  0  0  0  0  0  0  0  0
   41.0300   22.9640   36.2300 N   0  0  0  0  0  0  0  0  0  0  0  0
   40.7610   24.4330   34.8300 H   0  0  0  0  0  0  0  0  0  0  0  0
   37.6900   24.0590   37.7680 H   0  0  0  0  0  0  0  0  0  0  0  0
   40.9630   21.5100   37.8860 H   0  0  0  0  0  0  0  0  0  0  0  0
   36.4380   25.7330   32.0450 S   0  0  0  0  0  0  0  0  0  0  0  0
   37.6630   25.2080   30.8580 C   0  0  0  0  0  0  0  0  0  0  0  0
   38.6260   25.9980   30.2540 C   0  0  0  0  0  0  0  0  0  0  0  0
   38.7140   27.0640   30.4710 H   0  0  0  0  0  0  0  0  0  0  0  0
   39.3400   25.2120   29.4300 N   0  0  0  0  0  0  0  0  0  0  0  0
   40.1180   25.6570   28.8910 H   0  0  0  0  0  0  0  0  0  0  0  0
   38.8400   23.9460   29.5110 C   0  0  0  0  0  0  0  0  0  0  0  0
   39.3310   23.2230   28.8940 H   0  0  0  0  0  0  0  0  0  0  0  0
   37.8050   23.9740   30.4000 N   0  0  0  0  0  0  0  0  0  0  0  0
  1  2  1  0  0  0  0
  2  3  1  0  0  0  0
  3  4  2  0  0  0  0
  3 12  1  0  0  0  0
  4  8  1  0  0  0  0
  5  9  1  0  0  0  0
  5  4  1  0  0  0  0
  6  5  2  0  0  0  0
  7  6  1  0  0  0  0
  7  2  2  0  0  0  0
 10  6  1  0  0  0  0
 11 16  2  0  0  0  0
 11 12  1  0  0  0  0
 12 13  2  0  0  0  0
 13 18  1  0  0  0  0
 13 14  1  0  0  0  0
 15 14  2  0  0  0  0
 15 19  1  0  0  0  0
 16 15  1  0  0  0  0
 17 11  1  0  0  0  0
 20  7  1  0  0  0  0
 21 20  1  0  0  0  0
 22 23  1  0  0  0  0
 22 21  2  0  0  0  0
 24 26  1  0  0  0  0
 24 22  1  0  0  0  0
 25 24  1  0  0  0  0
 26 28  2  0  0  0  0
 27 26  1  0  0  0  0
 28 21  1  0  0  0  0
M  END
>  <minimizedAffinity>
-4.78784227

$$$$
