
 OpenBabel03272508273D

 37 40  0  0  1  0  0  0  0  0999 V2000
   33.8790   28.9430   47.2600 C   0  0  2  0  0  0  0  0  0  0  0  0
   34.5940   28.1700   48.3550 C   0  0  2  0  0  0  0  0  0  0  0  0
   33.6850   28.0110   49.3530 O   0  0  0  0  0  0  0  0  0  0  0  0
   32.4140   28.1010   48.8670 C   0  0  0  0  0  0  0  0  0  0  0  0
   32.4920   28.3010   47.3710 C   0  0  1  0  0  0  0  0  0  0  0  0
   33.8030   30.0180   47.4740 H   0  0  0  0  0  0  0  0  0  0  0  0
   34.8710   27.1880   47.9480 H   0  0  0  0  0  0  0  0  0  0  0  0
   31.9330   29.0150   49.3030 H   0  0  0  0  0  0  0  0  0  0  0  0
   31.7590   27.2510   49.1460 H   0  0  0  0  0  0  0  0  0  0  0  0
   32.4910   27.2960   46.9040 H   0  0  0  0  0  0  0  0  0  0  0  0
   35.6840   30.4100   49.0530 C   0  0  1  0  0  0  0  0  0  0  0  0
   35.7650   28.9930   48.7880 C   0  0  1  0  0  0  0  0  0  0  0  0
   35.9390   29.4280   50.2060 C   0  0  0  0  0  0  0  0  0  0  0  0
   34.7800   31.0080   49.2700 H   0  0  0  0  0  0  0  0  0  0  0  0
   36.7220   28.6460   48.2990 H   0  0  0  0  0  0  0  0  0  0  0  0
   35.1420   29.2350   50.9340 H   0  0  0  0  0  0  0  0  0  0  0  0
   36.9600   29.4100   50.6640 H   0  0  0  0  0  0  0  0  0  0  0  0
   36.8760   31.3250   48.8180 C   0  0  0  0  0  0  0  0  0  0  0  0
   37.0770   32.3710   49.7200 C   0  0  0  0  0  0  0  0  0  0  0  0
   38.1600   33.1830   49.4480 C   0  0  0  0  0  0  0  0  0  0  0  0
   38.9630   32.9570   48.3670 N   0  0  0  0  0  0  0  0  0  0  0  0
   38.7330   31.9240   47.5100 C   0  0  0  0  0  0  0  0  0  0  0  0
   37.6770   31.1040   47.7440 N   0  0  0  0  0  0  0  0  0  0  0  0
   36.4210   32.5130   50.5570 H   0  0  0  0  0  0  0  0  0  0  0  0
   38.3870   34.0250   50.1080 H   0  0  0  0  0  0  0  0  0  0  0  0
   39.3920   31.7800   46.6660 H   0  0  0  0  0  0  0  0  0  0  0  0
   34.4220   28.7680   46.0020 O   0  0  0  0  0  0  0  0  0  0  0  0
   35.4040   28.7140   46.1300 H   0  0  0  0  0  0  0  0  0  0  0  0
   31.5110   29.0930   46.8470 O   0  0  0  0  0  0  0  0  0  0  0  0
   30.5850   28.6230   45.9270 C   0  0  0  0  0  0  0  0  0  0  0  0
   30.6390   27.3290   45.4560 C   0  0  0  0  0  0  0  0  0  0  0  0
   31.3180   26.4990   45.6660 H   0  0  0  0  0  0  0  0  0  0  0  0
   29.6410   27.0950   44.5730 N   0  0  0  0  0  0  0  0  0  0  0  0
   29.3480   26.2720   44.0140 H   0  0  0  0  0  0  0  0  0  0  0  0
   28.9470   28.2670   44.4870 C   0  0  0  0  0  0  0  0  0  0  0  0
   28.0790   28.4890   43.8870 H   0  0  0  0  0  0  0  0  0  0  0  0
   29.5100   29.1670   45.2910 N   0  0  0  0  0  0  0  0  0  0  0  0
  1  5  1  0  0  0  0
  1  6  1  1  0  0  0
  1  2  1  0  0  0  0
  2  7  1  6  0  0  0
  2 12  1  0  0  0  0
  2  3  1  0  0  0  0
  4  9  1  0  0  0  0
  4  8  1  0  0  0  0
  4  3  1  0  0  0  0
  5 10  1  6  0  0  0
  5  4  1  0  0  0  0
 11 14  1  6  0  0  0
 11 13  1  0  0  0  0
 12 15  1  6  0  0  0
 12 11  1  0  0  0  0
 12 13  1  0  0  0  0
 13 17  1  0  0  0  0
 13 16  1  0  0  0  0
 18 11  1  0  0  0  0
 18 19  1  0  0  0  0
 19 24  1  0  0  0  0
 20 19  2  0  0  0  0
 20 25  1  0  0  0  0
 21 20  1  0  0  0  0
 22 23  1  0  0  0  0
 22 21  2  0  0  0  0
 23 18  2  0  0  0  0
 26 22  1  0  0  0  0
 27 28  1  0  0  0  0
 27  1  1  0  0  0  0
 29  5  1  0  0  0  0
 30 29  1  0  0  0  0
 31 32  1  0  0  0  0
 31 30  2  0  0  0  0
 33 31  1  0  0  0  0
 34 33  1  0  0  0  0
 35 33  1  0  0  0  0
 35 37  2  0  0  0  0
 36 35  1  0  0  0  0
 37 30  1  0  0  0  0
M  END
>  <minimizedAffinity>
-4.72559786

>  <minimizedRMSD>
0.210161284

$$$$
