
 OpenBabel03272502273D

 39 42  0  0  0  0  0  0  0  0999 V2000
   39.5530   27.0810   32.1840 C   0  0  0  0  0  0  0  0  0  0  0  0
   39.5490   25.9770   33.0500 C   0  0  0  0  0  0  0  0  0  0  0  0
   38.3400   25.6050   33.6070 C   0  0  0  0  0  0  0  0  0  0  0  0
   37.2650   26.3230   33.2790 N   0  0  0  0  0  0  0  0  0  0  0  0
   37.2780   27.3810   32.4450 C   0  0  0  0  0  0  0  0  0  0  0  0
   38.4350   27.7580   31.8970 N   0  0  0  0  0  0  0  0  0  0  0  0
   40.4910   27.3910   31.7350 H   0  0  0  0  0  0  0  0  0  0  0  0
   40.4500   25.4240   33.2870 H   0  0  0  0  0  0  0  0  0  0  0  0
   38.2060   24.4840   34.5110 C   0  0  0  0  0  0  0  0  0  0  0  0
   38.0040   23.2020   34.0160 C   0  0  0  0  0  0  0  0  0  0  0  0
   37.8760   22.1030   34.8250 C   0  0  0  0  0  0  0  0  0  0  0  0
   37.9470   22.2650   36.1710 N   0  0  0  0  0  0  0  0  0  0  0  0
   38.1410   23.5070   36.6270 C   0  0  0  0  0  0  0  0  0  0  0  0
   38.2710   24.5990   35.8570 N   0  0  0  0  0  0  0  0  0  0  0  0
   37.9500   23.0980   32.9300 H   0  0  0  0  0  0  0  0  0  0  0  0
   37.7190   21.1220   34.3850 H   0  0  0  0  0  0  0  0  0  0  0  0
   38.2240   23.7150   38.0950 C   0  0  0  0  0  0  0  0  0  0  0  0
   39.4970   23.2690   38.5140 F   0  0  0  0  0  0  0  0  0  0  0  0
   38.0110   25.0160   38.4330 F   0  0  0  0  0  0  0  0  0  0  0  0
   37.3470   22.8910   38.7820 F   0  0  0  0  0  0  0  0  0  0  0  0
   36.0650   28.0110   32.2170 O   0  0  0  0  0  0  0  0  0  0  0  0
   36.0710   31.6780   31.9190 N   0  0  0  0  0  0  0  0  0  0  0  0
   36.2720   30.4080   31.5370 C   0  0  0  0  0  0  0  0  0  0  0  0
   35.9420   29.3750   32.4040 C   0  0  0  0  0  0  0  0  0  0  0  0
   35.4110   29.6860   33.6460 C   0  0  0  0  0  0  0  0  0  0  0  0
   35.0470   28.9120   34.5730 O   0  0  0  0  0  0  0  0  0  0  0  0
   35.2280   30.9920   33.9820 N   0  0  0  0  0  0  0  0  0  0  0  0
   35.5520   31.9870   33.1320 C   0  0  0  0  0  0  0  0  0  0  0  0
   35.4020   33.2080   33.3980 O   0  0  0  0  0  0  0  0  0  0  0  0
   36.3400   32.4050   31.2190 H   0  0  0  0  0  0  0  0  0  0  0  0
   36.6710   30.0800   30.6110 H   0  0  0  0  0  0  0  0  0  0  0  0
   34.6920   31.4240   35.2310 C   0  0  0  0  0  0  0  0  0  0  0  0
   35.6410   31.6990   36.1990 C   0  0  0  0  0  0  0  0  0  0  0  0
   36.7370   31.6850   36.3030 H   0  0  0  0  0  0  0  0  0  0  0  0
   34.9830   32.0960   37.3230 N   0  0  0  0  0  0  0  0  0  0  0  0
   35.2530   32.4040   38.3020 H   0  0  0  0  0  0  0  0  0  0  0  0
   33.6490   32.0650   37.0490 C   0  0  0  0  0  0  0  0  0  0  0  0
   32.7710   32.3010   37.6540 H   0  0  0  0  0  0  0  0  0  0  0  0
   33.4750   31.6530   35.7670 N   0  0  0  0  0  0  0  0  0  0  0  0
  1  2  1  0  0  0  0
  2  8  1  0  0  0  0
  2  3  2  0  0  0  0
  3  9  1  0  0  0  0
  4  3  1  0  0  0  0
  5  4  2  0  0  0  0
  6  1  2  0  0  0  0
  6  5  1  0  0  0  0
  7  1  1  0  0  0  0
  9 14  1  0  0  0  0
 10  9  2  0  0  0  0
 10 11  1  0  0  0  0
 11 12  2  0  0  0  0
 12 13  1  0  0  0  0
 13 17  1  0  0  0  0
 14 13  2  0  0  0  0
 15 10  1  0  0  0  0
 16 11  1  0  0  0  0
 17 19  1  0  0  0  0
 17 18  1  0  0  0  0
 17 20  1  0  0  0  0
 21 24  1  0  0  0  0
 21  5  1  0  0  0  0
 22 28  1  0  0  0  0
 23 22  1  0  0  0  0
 23 24  2  0  0  0  0
 24 25  1  0  0  0  0
 25 27  1  0  0  0  0
 25 26  2  0  0  0  0
 27 32  1  0  0  0  0
 28 29  2  0  0  0  0
 28 27  1  0  0  0  0
 30 22  1  0  0  0  0
 31 23  1  0  0  0  0
 32 39  1  0  0  0  0
 32 33  2  0  0  0  0
 33 34  1  0  0  0  0
 33 35  1  0  0  0  0
 35 36  1  0  0  0  0
 37 35  1  0  0  0  0
 37 38  1  0  0  0  0
 39 37  2  0  0  0  0
M  END
>  <minimizedAffinity>
-6.77453995

$$$$

 OpenBabel03272502273D

 39 42  0  0  0  0  0  0  0  0999 V2000
   37.2180   28.2970   30.1170 C   0  0  0  0  0  0  0  0  0  0  0  0
   36.2570   28.9870   30.8720 C   0  0  0  0  0  0  0  0  0  0  0  0
   36.2540   28.7910   32.2400 C   0  0  0  0  0  0  0  0  0  0  0  0
   37.1690   27.9590   32.7420 N   0  0  0  0  0  0  0  0  0  0  0  0
   38.0880   27.3010   32.0110 C   0  0  0  0  0  0  0  0  0  0  0  0
   38.1070   27.4750   30.6880 N   0  0  0  0  0  0  0  0  0  0  0  0
   37.2370   28.4360   29.0420 H   0  0  0  0  0  0  0  0  0  0  0  0
   35.5330   29.6530   30.4180 H   0  0  0  0  0  0  0  0  0  0  0  0
   35.3170   29.4470   33.1250 C   0  0  0  0  0  0  0  0  0  0  0  0
   33.9550   29.2060   33.0090 C   0  0  0  0  0  0  0  0  0  0  0  0
   33.0220   29.7960   33.8220 C   0  0  0  0  0  0  0  0  0  0  0  0
   33.4400   30.6560   34.7860 N   0  0  0  0  0  0  0  0  0  0  0  0
   34.7560   30.8740   34.8810 C   0  0  0  0  0  0  0  0  0  0  0  0
   35.6890   30.3100   34.0980 N   0  0  0  0  0  0  0  0  0  0  0  0
   33.6430   28.5110   32.2250 H   0  0  0  0  0  0  0  0  0  0  0  0
   31.9670   29.5730   33.6880 H   0  0  0  0  0  0  0  0  0  0  0  0
   35.2440   31.8090   35.9260 C   0  0  0  0  0  0  0  0  0  0  0  0
   36.6050   31.5120   36.1590 F   0  0  0  0  0  0  0  0  0  0  0  0
   35.0690   33.1090   35.5630 F   0  0  0  0  0  0  0  0  0  0  0  0
   34.6440   31.5680   37.1520 F   0  0  0  0  0  0  0  0  0  0  0  0
   38.9610   26.4750   32.7000 O   0  0  0  0  0  0  0  0  0  0  0  0
   37.6830   23.0410   33.0230 N   0  0  0  0  0  0  0  0  0  0  0  0
   38.0260   24.1770   32.3970 C   0  0  0  0  0  0  0  0  0  0  0  0
   38.5470   25.2300   33.1350 C   0  0  0  0  0  0  0  0  0  0  0  0
   38.6990   25.0790   34.5050 C   0  0  0  0  0  0  0  0  0  0  0  0
   39.1470   25.8990   35.3530 O   0  0  0  0  0  0  0  0  0  0  0  0
   38.3340   23.9050   35.0880 N   0  0  0  0  0  0  0  0  0  0  0  0
   37.8290   22.8880   34.3610 C   0  0  0  0  0  0  0  0  0  0  0  0
   37.4780   21.7850   34.8540 O   0  0  0  0  0  0  0  0  0  0  0  0
   37.2980   22.2890   32.4080 H   0  0  0  0  0  0  0  0  0  0  0  0
   37.9450   24.3790   31.3600 H   0  0  0  0  0  0  0  0  0  0  0  0
   38.4460   23.6420   36.4850 C   0  0  0  0  0  0  0  0  0  0  0  0
   39.5800   22.9390   36.8490 C   0  0  0  0  0  0  0  0  0  0  0  0
   40.4650   22.5000   36.3630 H   0  0  0  0  0  0  0  0  0  0  0  0
   39.5460   22.7650   38.1990 N   0  0  0  0  0  0  0  0  0  0  0  0
   40.1630   22.3070   38.9290 H   0  0  0  0  0  0  0  0  0  0  0  0
   38.4070   23.3550   38.6580 C   0  0  0  0  0  0  0  0  0  0  0  0
   37.9870   23.4530   39.6610 H   0  0  0  0  0  0  0  0  0  0  0  0
   37.7360   23.8900   37.6060 N   0  0  0  0  0  0  0  0  0  0  0  0
  1  6  2  0  0  0  0
  1  2  1  0  0  0  0
  2  3  2  0  0  0  0
  3  4  1  0  0  0  0
  3  9  1  0  0  0  0
  5 21  1  0  0  0  0
  5  4  2  0  0  0  0
  6  5  1  0  0  0  0
  7  1  1  0  0  0  0
  8  2  1  0  0  0  0
  9 14  1  0  0  0  0
 10  9  2  0  0  0  0
 10 11  1  0  0  0  0
 11 12  2  0  0  0  0
 12 13  1  0  0  0  0
 13 17  1  0  0  0  0
 14 13  2  0  0  0  0
 15 10  1  0  0  0  0
 16 11  1  0  0  0  0
 17 18  1  0  0  0  0
 17 20  1  0  0  0  0
 19 17  1  0  0  0  0
 21 24  1  0  0  0  0
 22 28  1  0  0  0  0
 23 22  1  0  0  0  0
 23 24  2  0  0  0  0
 24 25  1  0  0  0  0
 25 27  1  0  0  0  0
 25 26  2  0  0  0  0
 27 32  1  0  0  0  0
 28 29  2  0  0  0  0
 28 27  1  0  0  0  0
 30 22  1  0  0  0  0
 31 23  1  0  0  0  0
 32 33  2  0  0  0  0
 32 39  1  0  0  0  0
 33 35  1  0  0  0  0
 34 33  1  0  0  0  0
 35 37  1  0  0  0  0
 35 36  1  0  0  0  0
 37 38  1  0  0  0  0
 39 37  2  0  0  0  0
M  END
>  <minimizedAffinity>
-6.64523411

$$$$

 OpenBabel03272502273D

 39 42  0  0  0  0  0  0  0  0999 V2000
   35.3450   20.6840   33.1460 C   0  0  0  0  0  0  0  0  0  0  0  0
   36.2390   20.9320   34.1990 C   0  0  0  0  0  0  0  0  0  0  0  0
   37.1610   21.9480   34.0320 C   0  0  0  0  0  0  0  0  0  0  0  0
   37.1320   22.6190   32.8790 N   0  0  0  0  0  0  0  0  0  0  0  0
   36.2700   22.3760   31.8730 C   0  0  0  0  0  0  0  0  0  0  0  0
   35.3720   21.3980   32.0140 N   0  0  0  0  0  0  0  0  0  0  0  0
   34.6130   19.8910   33.2550 H   0  0  0  0  0  0  0  0  0  0  0  0
   36.2230   20.3580   35.1180 H   0  0  0  0  0  0  0  0  0  0  0  0
   38.1300   22.3010   35.0450 C   0  0  0  0  0  0  0  0  0  0  0  0
   39.4890   22.1660   34.7940 C   0  0  0  0  0  0  0  0  0  0  0  0
   40.4520   22.4900   35.7150 C   0  0  0  0  0  0  0  0  0  0  0  0
   40.0690   22.9630   36.9280 N   0  0  0  0  0  0  0  0  0  0  0  0
   38.7560   23.0850   37.1500 C   0  0  0  0  0  0  0  0  0  0  0  0
   37.7940   22.7760   36.2660 N   0  0  0  0  0  0  0  0  0  0  0  0
   39.7720   21.7830   33.8110 H   0  0  0  0  0  0  0  0  0  0  0  0
   41.5030   22.3650   35.4680 H   0  0  0  0  0  0  0  0  0  0  0  0
   38.3060   23.6010   38.4680 C   0  0  0  0  0  0  0  0  0  0  0  0
   37.9480   24.9560   38.2910 F   0  0  0  0  0  0  0  0  0  0  0  0
   37.2740   22.8700   38.9700 F   0  0  0  0  0  0  0  0  0  0  0  0
   39.3460   23.6550   39.3810 F   0  0  0  0  0  0  0  0  0  0  0  0
   36.3840   23.1720   30.7450 O   0  0  0  0  0  0  0  0  0  0  0  0
   39.2100   25.5200   30.5510 N   0  0  0  0  0  0  0  0  0  0  0  0
   38.5820   24.3360   30.4910 C   0  0  0  0  0  0  0  0  0  0  0  0
   37.2200   24.2730   30.7520 C   0  0  0  0  0  0  0  0  0  0  0  0
   36.5430   25.4410   31.0680 C   0  0  0  0  0  0  0  0  0  0  0  0
   35.3210   25.6060   31.3360 O   0  0  0  0  0  0  0  0  0  0  0  0
   37.2300   26.6150   31.1160 N   0  0  0  0  0  0  0  0  0  0  0  0
   38.5530   26.6640   30.8610 C   0  0  0  0  0  0  0  0  0  0  0  0
   39.2300   27.7240   30.8920 O   0  0  0  0  0  0  0  0  0  0  0  0
   40.2330   25.4960   30.3440 H   0  0  0  0  0  0  0  0  0  0  0  0
   39.0180   23.3980   30.2580 H   0  0  0  0  0  0  0  0  0  0  0  0
   36.6360   27.8710   31.4310 C   0  0  0  0  0  0  0  0  0  0  0  0
   36.5600   28.1480   32.7840 C   0  0  0  0  0  0  0  0  0  0  0  0
   36.8330   27.6690   33.7370 H   0  0  0  0  0  0  0  0  0  0  0  0
   35.9750   29.3690   32.9270 N   0  0  0  0  0  0  0  0  0  0  0  0
   35.7050   30.0020   33.7340 H   0  0  0  0  0  0  0  0  0  0  0  0
   35.6960   29.8370   31.6770 C   0  0  0  0  0  0  0  0  0  0  0  0
   35.2330   30.7620   31.3290 H   0  0  0  0  0  0  0  0  0  0  0  0
   36.1010   28.9160   30.7650 N   0  0  0  0  0  0  0  0  0  0  0  0
  1  7  1  0  0  0  0
  1  2  1  0  0  0  0
  2  8  1  0  0  0  0
  3  2  2  0  0  0  0
  3  9  1  0  0  0  0
  4  3  1  0  0  0  0
  5  6  1  0  0  0  0
  5  4  2  0  0  0  0
  6  1  2  0  0  0  0
  9 14  1  0  0  0  0
 10  9  2  0  0  0  0
 10 11  1  0  0  0  0
 11 12  2  0  0  0  0
 12 13  1  0  0  0  0
 13 17  1  0  0  0  0
 14 13  2  0  0  0  0
 15 10  1  0  0  0  0
 16 11  1  0  0  0  0
 17 19  1  0  0  0  0
 17 20  1  0  0  0  0
 18 17  1  0  0  0  0
 21 24  1  0  0  0  0
 21  5  1  0  0  0  0
 22 28  1  0  0  0  0
 23 22  1  0  0  0  0
 23 24  2  0  0  0  0
 24 25  1  0  0  0  0
 25 27  1  0  0  0  0
 25 26  2  0  0  0  0
 27 32  1  0  0  0  0
 28 29  2  0  0  0  0
 28 27  1  0  0  0  0
 30 22  1  0  0  0  0
 31 23  1  0  0  0  0
 32 33  2  0  0  0  0
 33 35  1  0  0  0  0
 33 34  1  0  0  0  0
 35 36  1  0  0  0  0
 37 35  1  0  0  0  0
 38 37  1  0  0  0  0
 39 32  1  0  0  0  0
 39 37  2  0  0  0  0
M  END
>  <minimizedAffinity>
-6.61345291

$$$$

 OpenBabel03272502273D

 39 42  0  0  0  0  0  0  0  0999 V2000
   36.5710   26.5510   31.9690 C   0  0  0  0  0  0  0  0  0  0  0  0
   37.0910   25.4660   32.6910 C   0  0  0  0  0  0  0  0  0  0  0  0
   37.4140   25.6750   34.0180 C   0  0  0  0  0  0  0  0  0  0  0  0
   37.2060   26.8950   34.5150 N   0  0  0  0  0  0  0  0  0  0  0  0
   36.7060   27.9320   33.8160 C   0  0  0  0  0  0  0  0  0  0  0  0
   36.3880   27.7510   32.5320 N   0  0  0  0  0  0  0  0  0  0  0  0
   36.3120   26.4090   30.9250 H   0  0  0  0  0  0  0  0  0  0  0  0
   37.2430   24.4910   32.2420 H   0  0  0  0  0  0  0  0  0  0  0  0
   37.9530   24.6350   34.8670 C   0  0  0  0  0  0  0  0  0  0  0  0
   38.5870   23.5320   34.3100 C   0  0  0  0  0  0  0  0  0  0  0  0
   39.1200   22.5200   35.0660 C   0  0  0  0  0  0  0  0  0  0  0  0
   39.0290   22.5910   36.4190 N   0  0  0  0  0  0  0  0  0  0  0  0
   38.4150   23.6620   36.9340 C   0  0  0  0  0  0  0  0  0  0  0  0
   37.8860   24.6650   36.2180 N   0  0  0  0  0  0  0  0  0  0  0  0
   38.6460   23.4980   33.2200 H   0  0  0  0  0  0  0  0  0  0  0  0
   39.6050   21.6780   34.5800 H   0  0  0  0  0  0  0  0  0  0  0  0
   38.3010   23.7680   38.4110 C   0  0  0  0  0  0  0  0  0  0  0  0
   39.5500   23.4010   38.9590 F   0  0  0  0  0  0  0  0  0  0  0  0
   37.9300   25.0180   38.8000 F   0  0  0  0  0  0  0  0  0  0  0  0
   37.4290   22.8240   38.9290 F   0  0  0  0  0  0  0  0  0  0  0  0
   36.5570   29.1300   34.4940 O   0  0  0  0  0  0  0  0  0  0  0  0
   33.0590   30.1790   34.0470 N   0  0  0  0  0  0  0  0  0  0  0  0
   34.1440   29.4040   33.9000 C   0  0  0  0  0  0  0  0  0  0  0  0
   35.3330   29.7730   34.5130 C   0  0  0  0  0  0  0  0  0  0  0  0
   35.3670   30.9370   35.2650 C   0  0  0  0  0  0  0  0  0  0  0  0
   36.3300   31.4490   35.8990 O   0  0  0  0  0  0  0  0  0  0  0  0
   34.2370   31.6860   35.3810 N   0  0  0  0  0  0  0  0  0  0  0  0
   33.0870   31.3180   34.7800 C   0  0  0  0  0  0  0  0  0  0  0  0
   32.0180   31.9770   34.8580 O   0  0  0  0  0  0  0  0  0  0  0  0
   32.1990   29.8440   33.5590 H   0  0  0  0  0  0  0  0  0  0  0  0
   34.2090   28.5020   33.3460 H   0  0  0  0  0  0  0  0  0  0  0  0
   34.1590   32.8990   36.1260 C   0  0  0  0  0  0  0  0  0  0  0  0
   33.8490   32.7320   37.4640 C   0  0  0  0  0  0  0  0  0  0  0  0
   33.6340   31.9070   38.1610 H   0  0  0  0  0  0  0  0  0  0  0  0
   33.8110   33.9660   38.0390 N   0  0  0  0  0  0  0  0  0  0  0  0
   33.6230   34.3560   39.0070 H   0  0  0  0  0  0  0  0  0  0  0  0
   34.0940   34.8780   37.0660 C   0  0  0  0  0  0  0  0  0  0  0  0
   34.1680   35.9670   37.0840 H   0  0  0  0  0  0  0  0  0  0  0  0
   34.3060   34.2210   35.8980 N   0  0  0  0  0  0  0  0  0  0  0  0
  1  6  2  0  0  0  0
  1  2  1  0  0  0  0
  2  3  2  0  0  0  0
  3  4  1  0  0  0  0
  3  9  1  0  0  0  0
  5 21  1  0  0  0  0
  5  4  2  0  0  0  0
  6  5  1  0  0  0  0
  7  1  1  0  0  0  0
  8  2  1  0  0  0  0
  9 14  1  0  0  0  0
 10  9  2  0  0  0  0
 10 11  1  0  0  0  0
 11 12  2  0  0  0  0
 12 13  1  0  0  0  0
 13 17  1  0  0  0  0
 14 13  2  0  0  0  0
 15 10  1  0  0  0  0
 16 11  1  0  0  0  0
 17 19  1  0  0  0  0
 17 20  1  0  0  0  0
 17 18  1  0  0  0  0
 21 24  1  0  0  0  0
 22 28  1  0  0  0  0
 23 22  1  0  0  0  0
 23 24  2  0  0  0  0
 24 25  1  0  0  0  0
 25 27  1  0  0  0  0
 25 26  2  0  0  0  0
 27 32  1  0  0  0  0
 28 29  2  0  0  0  0
 28 27  1  0  0  0  0
 30 22  1  0  0  0  0
 31 23  1  0  0  0  0
 32 33  2  0  0  0  0
 33 35  1  0  0  0  0
 33 34  1  0  0  0  0
 35 36  1  0  0  0  0
 37 38  1  0  0  0  0
 37 35  1  0  0  0  0
 39 32  1  0  0  0  0
 39 37  2  0  0  0  0
M  END
>  <minimizedAffinity>
-6.51018476

$$$$

 OpenBabel03272502273D

 39 42  0  0  0  0  0  0  0  0999 V2000
   37.3930   28.5280   30.1810 C   0  0  0  0  0  0  0  0  0  0  0  0
   36.3170   29.0760   30.8960 C   0  0  0  0  0  0  0  0  0  0  0  0
   36.2050   28.7500   32.2350 C   0  0  0  0  0  0  0  0  0  0  0  0
   37.1300   27.9380   32.7480 N   0  0  0  0  0  0  0  0  0  0  0  0
   38.1600   27.4160   32.0550 C   0  0  0  0  0  0  0  0  0  0  0  0
   38.2860   27.7170   30.7610 N   0  0  0  0  0  0  0  0  0  0  0  0
   37.5000   28.7690   29.1290 H   0  0  0  0  0  0  0  0  0  0  0  0
   35.5890   29.7320   30.4340 H   0  0  0  0  0  0  0  0  0  0  0  0
   35.1430   29.2550   33.0770 C   0  0  0  0  0  0  0  0  0  0  0  0
   35.4360   30.0680   34.1640 C   0  0  0  0  0  0  0  0  0  0  0  0
   34.4700   30.5780   34.9930 C   0  0  0  0  0  0  0  0  0  0  0  0
   33.1690   30.2800   34.7490 N   0  0  0  0  0  0  0  0  0  0  0  0
   32.9090   29.4950   33.6980 C   0  0  0  0  0  0  0  0  0  0  0  0
   33.8340   28.9840   32.8710 N   0  0  0  0  0  0  0  0  0  0  0  0
   36.4900   30.2930   34.3400 H   0  0  0  0  0  0  0  0  0  0  0  0
   34.7540   31.2100   35.8310 H   0  0  0  0  0  0  0  0  0  0  0  0
   31.4940   29.1520   33.4050 C   0  0  0  0  0  0  0  0  0  0  0  0
   30.8230   29.0300   34.6420 F   0  0  0  0  0  0  0  0  0  0  0  0
   30.9050   30.0810   32.6040 F   0  0  0  0  0  0  0  0  0  0  0  0
   31.3760   27.8900   32.8450 F   0  0  0  0  0  0  0  0  0  0  0  0
   39.0270   26.5890   32.7510 O   0  0  0  0  0  0  0  0  0  0  0  0
   37.7740   23.1380   32.9790 N   0  0  0  0  0  0  0  0  0  0  0  0
   38.1140   24.2910   32.3840 C   0  0  0  0  0  0  0  0  0  0  0  0
   38.6190   25.3310   33.1520 C   0  0  0  0  0  0  0  0  0  0  0  0
   38.7590   25.1480   34.5200 C   0  0  0  0  0  0  0  0  0  0  0  0
   39.1920   25.9520   35.3910 O   0  0  0  0  0  0  0  0  0  0  0  0
   38.3980   23.9580   35.0710 N   0  0  0  0  0  0  0  0  0  0  0  0
   37.9090   22.9550   34.3150 C   0  0  0  0  0  0  0  0  0  0  0  0
   37.5620   21.8370   34.7780 O   0  0  0  0  0  0  0  0  0  0  0  0
   37.4010   22.3980   32.3430 H   0  0  0  0  0  0  0  0  0  0  0  0
   38.0410   24.5170   31.3510 H   0  0  0  0  0  0  0  0  0  0  0  0
   38.4980   23.6630   36.4620 C   0  0  0  0  0  0  0  0  0  0  0  0
   39.6440   22.9770   36.8230 C   0  0  0  0  0  0  0  0  0  0  0  0
   40.5450   22.5710   36.3380 H   0  0  0  0  0  0  0  0  0  0  0  0
   39.5970   22.7700   38.1680 N   0  0  0  0  0  0  0  0  0  0  0  0
   40.2160   22.3080   38.8950 H   0  0  0  0  0  0  0  0  0  0  0  0
   38.4390   23.3210   38.6270 C   0  0  0  0  0  0  0  0  0  0  0  0
   38.0040   23.3840   39.6260 H   0  0  0  0  0  0  0  0  0  0  0  0
   37.7690   23.8660   37.5790 N   0  0  0  0  0  0  0  0  0  0  0  0
  1  6  2  0  0  0  0
  1  2  1  0  0  0  0
  2  3  2  0  0  0  0
  3  4  1  0  0  0  0
  3  9  1  0  0  0  0
  5  4  2  0  0  0  0
  5 21  1  0  0  0  0
  6  5  1  0  0  0  0
  7  1  1  0  0  0  0
  8  2  1  0  0  0  0
  9 10  1  0  0  0  0
 10 15  1  0  0  0  0
 10 11  2  0  0  0  0
 11 16  1  0  0  0  0
 12 11  1  0  0  0  0
 13 12  2  0  0  0  0
 14  9  2  0  0  0  0
 14 13  1  0  0  0  0
 17 13  1  0  0  0  0
 17 18  1  0  0  0  0
 19 17  1  0  0  0  0
 20 17  1  0  0  0  0
 21 24  1  0  0  0  0
 22 28  1  0  0  0  0
 23 22  1  0  0  0  0
 23 24  2  0  0  0  0
 24 25  1  0  0  0  0
 25 27  1  0  0  0  0
 25 26  2  0  0  0  0
 27 32  1  0  0  0  0
 28 29  2  0  0  0  0
 28 27  1  0  0  0  0
 30 22  1  0  0  0  0
 31 23  1  0  0  0  0
 32 33  2  0  0  0  0
 32 39  1  0  0  0  0
 33 35  1  0  0  0  0
 34 33  1  0  0  0  0
 35 37  1  0  0  0  0
 35 36  1  0  0  0  0
 37 38  1  0  0  0  0
 39 37  2  0  0  0  0
M  END
>  <minimizedAffinity>
-6.50124788

$$$$

 OpenBabel03272502273D

 39 42  0  0  0  0  0  0  0  0999 V2000
   35.3530   20.5380   33.3250 C   0  0  0  0  0  0  0  0  0  0  0  0
   36.2500   20.8310   34.3640 C   0  0  0  0  0  0  0  0  0  0  0  0
   37.1510   21.8590   34.1620 C   0  0  0  0  0  0  0  0  0  0  0  0
   37.1000   22.4980   32.9920 N   0  0  0  0  0  0  0  0  0  0  0  0
   36.2350   22.2120   32.0000 C   0  0  0  0  0  0  0  0  0  0  0  0
   35.3570   21.2220   32.1740 N   0  0  0  0  0  0  0  0  0  0  0  0
   34.6370   19.7350   33.4620 H   0  0  0  0  0  0  0  0  0  0  0  0
   36.2530   20.2810   35.2970 H   0  0  0  0  0  0  0  0  0  0  0  0
   38.1220   22.2570   35.1570 C   0  0  0  0  0  0  0  0  0  0  0  0
   39.4810   22.1430   34.8970 C   0  0  0  0  0  0  0  0  0  0  0  0
   40.4450   22.5090   35.8010 C   0  0  0  0  0  0  0  0  0  0  0  0
   40.0630   23.0060   37.0050 N   0  0  0  0  0  0  0  0  0  0  0  0
   38.7490   23.1070   37.2350 C   0  0  0  0  0  0  0  0  0  0  0  0
   37.7860   22.7560   36.3680 N   0  0  0  0  0  0  0  0  0  0  0  0
   39.7630   21.7400   33.9220 H   0  0  0  0  0  0  0  0  0  0  0  0
   41.4960   22.3990   35.5470 H   0  0  0  0  0  0  0  0  0  0  0  0
   38.3000   23.6470   38.5430 C   0  0  0  0  0  0  0  0  0  0  0  0
   37.2900   22.7900   39.0310 F   0  0  0  0  0  0  0  0  0  0  0  0
   39.3320   23.7600   39.4240 F   0  0  0  0  0  0  0  0  0  0  0  0
   37.6540   24.8650   38.4020 F   0  0  0  0  0  0  0  0  0  0  0  0
   36.3250   22.9810   30.8510 O   0  0  0  0  0  0  0  0  0  0  0  0
   35.5260   26.5540   31.2130 N   0  0  0  0  0  0  0  0  0  0  0  0
   35.2900   25.2340   31.1710 C   0  0  0  0  0  0  0  0  0  0  0  0
   36.3420   24.3600   30.9350 C   0  0  0  0  0  0  0  0  0  0  0  0
   37.6150   24.8790   30.7490 C   0  0  0  0  0  0  0  0  0  0  0  0
   38.6980   24.2710   30.5250 O   0  0  0  0  0  0  0  0  0  0  0  0
   37.7980   26.2260   30.8020 N   0  0  0  0  0  0  0  0  0  0  0  0
   36.7670   27.0640   31.0320 C   0  0  0  0  0  0  0  0  0  0  0  0
   36.8870   28.3160   31.0890 O   0  0  0  0  0  0  0  0  0  0  0  0
   34.6900   27.1530   31.3950 H   0  0  0  0  0  0  0  0  0  0  0  0
   34.3540   24.7520   31.3010 H   0  0  0  0  0  0  0  0  0  0  0  0
   39.0590   26.8650   30.6240 C   0  0  0  0  0  0  0  0  0  0  0  0
   39.8060   26.9960   31.7810 C   0  0  0  0  0  0  0  0  0  0  0  0
   39.7160   26.7440   32.8490 H   0  0  0  0  0  0  0  0  0  0  0  0
   40.9720   27.6180   31.4550 N   0  0  0  0  0  0  0  0  0  0  0  0
   41.8430   27.9350   31.9710 H   0  0  0  0  0  0  0  0  0  0  0  0
   40.9420   27.8660   30.1160 C   0  0  0  0  0  0  0  0  0  0  0  0
   41.6600   28.3410   29.4430 H   0  0  0  0  0  0  0  0  0  0  0  0
   39.7700   27.4030   29.6110 N   0  0  0  0  0  0  0  0  0  0  0  0
  1  7  1  0  0  0  0
  1  2  1  0  0  0  0
  2  8  1  0  0  0  0
  3  2  2  0  0  0  0
  3  9  1  0  0  0  0
  4  3  1  0  0  0  0
  5  6  1  0  0  0  0
  5  4  2  0  0  0  0
  6  1  2  0  0  0  0
  9 14  1  0  0  0  0
 10  9  2  0  0  0  0
 10 11  1  0  0  0  0
 11 12  2  0  0  0  0
 12 13  1  0  0  0  0
 13 17  1  0  0  0  0
 14 13  2  0  0  0  0
 15 10  1  0  0  0  0
 16 11  1  0  0  0  0
 17 18  1  0  0  0  0
 17 19  1  0  0  0  0
 20 17  1  0  0  0  0
 21 24  1  0  0  0  0
 21  5  1  0  0  0  0
 22 30  1  0  0  0  0
 23 22  1  0  0  0  0
 23 31  1  0  0  0  0
 24 23  2  0  0  0  0
 25 27  1  0  0  0  0
 25 24  1  0  0  0  0
 26 25  2  0  0  0  0
 27 28  1  0  0  0  0
 28 29  2  0  0  0  0
 28 22  1  0  0  0  0
 32 27  1  0  0  0  0
 32 33  2  0  0  0  0
 33 34  1  0  0  0  0
 35 33  1  0  0  0  0
 35 36  1  0  0  0  0
 37 35  1  0  0  0  0
 38 37  1  0  0  0  0
 39 37  2  0  0  0  0
 39 32  1  0  0  0  0
M  END
>  <minimizedAffinity>
-6.46425438

$$$$

 OpenBabel03272502273D

 39 42  0  0  0  0  0  0  0  0999 V2000
   36.2830   28.9870   31.0360 C   0  0  0  0  0  0  0  0  0  0  0  0
   35.1090   29.4800   31.6270 C   0  0  0  0  0  0  0  0  0  0  0  0
   34.9140   29.2280   32.9720 C   0  0  0  0  0  0  0  0  0  0  0  0
   35.8590   28.5340   33.6100 N   0  0  0  0  0  0  0  0  0  0  0  0
   36.9830   28.0650   33.0350 C   0  0  0  0  0  0  0  0  0  0  0  0
   37.1910   28.2970   31.7370 N   0  0  0  0  0  0  0  0  0  0  0  0
   36.4560   29.1730   29.9820 H   0  0  0  0  0  0  0  0  0  0  0  0
   34.3700   30.0390   31.0670 H   0  0  0  0  0  0  0  0  0  0  0  0
   33.7480   29.6860   33.6940 C   0  0  0  0  0  0  0  0  0  0  0  0
   32.4910   29.6320   33.1060 C   0  0  0  0  0  0  0  0  0  0  0  0
   31.3520   30.0470   33.7450 C   0  0  0  0  0  0  0  0  0  0  0  0
   31.4470   30.5340   35.0080 N   0  0  0  0  0  0  0  0  0  0  0  0
   32.6660   30.5780   35.5560 C   0  0  0  0  0  0  0  0  0  0  0  0
   33.7960   30.1770   34.9530 N   0  0  0  0  0  0  0  0  0  0  0  0
   32.4410   29.2370   32.0890 H   0  0  0  0  0  0  0  0  0  0  0  0
   30.3930   29.9840   33.2380 H   0  0  0  0  0  0  0  0  0  0  0  0
   32.8010   31.1050   36.9380 C   0  0  0  0  0  0  0  0  0  0  0  0
   32.3800   30.0870   37.8220 F   0  0  0  0  0  0  0  0  0  0  0  0
   34.0740   31.5060   37.2030 F   0  0  0  0  0  0  0  0  0  0  0  0
   31.9110   32.1380   37.1840 F   0  0  0  0  0  0  0  0  0  0  0  0
   37.8560   27.3630   33.8500 O   0  0  0  0  0  0  0  0  0  0  0  0
   37.4700   23.7940   33.0450 N   0  0  0  0  0  0  0  0  0  0  0  0
   37.3390   25.1190   32.8780 C   0  0  0  0  0  0  0  0  0  0  0  0
   37.8750   25.9810   33.8240 C   0  0  0  0  0  0  0  0  0  0  0  0
   38.5350   25.4470   34.9210 C   0  0  0  0  0  0  0  0  0  0  0  0
   39.0890   26.0430   35.8850 O   0  0  0  0  0  0  0  0  0  0  0  0
   38.6380   24.0960   35.0410 N   0  0  0  0  0  0  0  0  0  0  0  0
   38.1140   23.2680   34.1160 C   0  0  0  0  0  0  0  0  0  0  0  0
   38.1840   22.0130   34.1830 O   0  0  0  0  0  0  0  0  0  0  0  0
   37.0440   23.2030   32.2970 H   0  0  0  0  0  0  0  0  0  0  0  0
   36.8540   25.6110   32.0750 H   0  0  0  0  0  0  0  0  0  0  0  0
   39.2920   23.4420   36.1260 C   0  0  0  0  0  0  0  0  0  0  0  0
   38.4910   23.2220   37.2320 C   0  0  0  0  0  0  0  0  0  0  0  0
   37.4520   23.4080   37.5430 H   0  0  0  0  0  0  0  0  0  0  0  0
   39.2480   22.5960   38.1750 N   0  0  0  0  0  0  0  0  0  0  0  0
   39.0990   22.2290   39.1590 H   0  0  0  0  0  0  0  0  0  0  0  0
   40.4970   22.4330   37.6550 C   0  0  0  0  0  0  0  0  0  0  0  0
   41.4060   21.9860   38.0610 H   0  0  0  0  0  0  0  0  0  0  0  0
   40.5200   22.9530   36.4000 N   0  0  0  0  0  0  0  0  0  0  0  0
  1  2  2  0  0  0  0
  1  6  1  0  0  0  0
  2  3  1  0  0  0  0
  3  4  2  0  0  0  0
  3  9  1  0  0  0  0
  5  4  1  0  0  0  0
  5 21  1  0  0  0  0
  6  5  2  0  0  0  0
  7  1  1  0  0  0  0
  8  2  1  0  0  0  0
  9 14  1  0  0  0  0
 10  9  2  0  0  0  0
 10 11  1  0  0  0  0
 11 12  2  0  0  0  0
 12 13  1  0  0  0  0
 13 17  1  0  0  0  0
 14 13  2  0  0  0  0
 15 10  1  0  0  0  0
 16 11  1  0  0  0  0
 17 20  1  0  0  0  0
 17 19  1  0  0  0  0
 17 18  1  0  0  0  0
 22 28  1  0  0  0  0
 23 22  1  0  0  0  0
 23 24  2  0  0  0  0
 24 21  1  0  0  0  0
 24 25  1  0  0  0  0
 25 27  1  0  0  0  0
 25 26  2  0  0  0  0
 27 32  1  0  0  0  0
 28 29  2  0  0  0  0
 28 27  1  0  0  0  0
 30 22  1  0  0  0  0
 31 23  1  0  0  0  0
 32 39  1  0  0  0  0
 32 33  2  0  0  0  0
 33 34  1  0  0  0  0
 33 35  1  0  0  0  0
 35 36  1  0  0  0  0
 37 38  1  0  0  0  0
 37 35  1  0  0  0  0
 39 37  2  0  0  0  0
M  END
>  <minimizedAffinity>
-6.43828106

$$$$

 OpenBabel03272502273D

 39 42  0  0  0  0  0  0  0  0999 V2000
   36.8710   24.4210   31.4490 C   0  0  0  0  0  0  0  0  0  0  0  0
   37.3870   23.6920   32.5310 C   0  0  0  0  0  0  0  0  0  0  0  0
   38.0640   24.3930   33.5110 C   0  0  0  0  0  0  0  0  0  0  0  0
   38.1770   25.7130   33.3550 N   0  0  0  0  0  0  0  0  0  0  0  0
   37.6780   26.4060   32.3130 C   0  0  0  0  0  0  0  0  0  0  0  0
   37.0210   25.7480   31.3550 N   0  0  0  0  0  0  0  0  0  0  0  0
   36.3370   23.8920   30.6670 H   0  0  0  0  0  0  0  0  0  0  0  0
   37.2700   22.6180   32.6140 H   0  0  0  0  0  0  0  0  0  0  0  0
   38.6370   23.7550   34.6760 C   0  0  0  0  0  0  0  0  0  0  0  0
   39.6640   22.8300   34.5370 C   0  0  0  0  0  0  0  0  0  0  0  0
   40.2470   22.2000   35.6060 C   0  0  0  0  0  0  0  0  0  0  0  0
   39.8070   22.4850   36.8580 N   0  0  0  0  0  0  0  0  0  0  0  0
   38.8180   23.3780   36.9700 C   0  0  0  0  0  0  0  0  0  0  0  0
   38.2310   24.0090   35.9410 N   0  0  0  0  0  0  0  0  0  0  0  0
   39.9990   22.6170   33.5200 H   0  0  0  0  0  0  0  0  0  0  0  0
   41.0470   21.4830   35.4410 H   0  0  0  0  0  0  0  0  0  0  0  0
   38.3170   23.7110   38.3270 C   0  0  0  0  0  0  0  0  0  0  0  0
   37.9600   25.0780   38.3230 F   0  0  0  0  0  0  0  0  0  0  0  0
   37.2700   22.9200   38.6870 F   0  0  0  0  0  0  0  0  0  0  0  0
   39.3220   23.6410   39.2790 F   0  0  0  0  0  0  0  0  0  0  0  0
   37.8900   27.7750   32.3140 O   0  0  0  0  0  0  0  0  0  0  0  0
   35.5990   29.9830   30.4680 N   0  0  0  0  0  0  0  0  0  0  0  0
   36.6390   29.1540   30.6470 C   0  0  0  0  0  0  0  0  0  0  0  0
   36.8870   28.6350   31.9100 C   0  0  0  0  0  0  0  0  0  0  0  0
   36.0490   28.9890   32.9570 C   0  0  0  0  0  0  0  0  0  0  0  0
   36.0930   28.6350   34.1670 O   0  0  0  0  0  0  0  0  0  0  0  0
   35.0090   29.8330   32.7190 N   0  0  0  0  0  0  0  0  0  0  0  0
   34.7780   30.3320   31.4880 C   0  0  0  0  0  0  0  0  0  0  0  0
   33.8300   31.1150   31.2190 O   0  0  0  0  0  0  0  0  0  0  0  0
   35.4700   30.3370   29.4940 H   0  0  0  0  0  0  0  0  0  0  0  0
   37.3270   28.8320   29.9080 H   0  0  0  0  0  0  0  0  0  0  0  0
   34.0880   30.2630   33.7190 C   0  0  0  0  0  0  0  0  0  0  0  0
   32.9480   29.4860   33.8230 C   0  0  0  0  0  0  0  0  0  0  0  0
   32.5160   28.5940   33.3440 H   0  0  0  0  0  0  0  0  0  0  0  0
   32.1740   30.0150   34.8090 N   0  0  0  0  0  0  0  0  0  0  0  0
   31.2370   29.7900   35.2530 H   0  0  0  0  0  0  0  0  0  0  0  0
   32.8290   31.1020   35.3050 C   0  0  0  0  0  0  0  0  0  0  0  0
   32.5750   31.8130   36.0940 H   0  0  0  0  0  0  0  0  0  0  0  0
   34.0010   31.2500   34.6350 N   0  0  0  0  0  0  0  0  0  0  0  0
  1  2  1  0  0  0  0
  2  8  1  0  0  0  0
  2  3  2  0  0  0  0
  3  9  1  0  0  0  0
  4  3  1  0  0  0  0
  5 21  1  0  0  0  0
  5  4  2  0  0  0  0
  6  1  2  0  0  0  0
  6  5  1  0  0  0  0
  7  1  1  0  0  0  0
  9 14  1  0  0  0  0
 10  9  2  0  0  0  0
 10 11  1  0  0  0  0
 11 12  2  0  0  0  0
 12 13  1  0  0  0  0
 13 17  1  0  0  0  0
 14 13  2  0  0  0  0
 15 10  1  0  0  0  0
 16 11  1  0  0  0  0
 17 19  1  0  0  0  0
 17 20  1  0  0  0  0
 18 17  1  0  0  0  0
 22 23  1  0  0  0  0
 22 28  1  0  0  0  0
 23 24  2  0  0  0  0
 24 21  1  0  0  0  0
 24 25  1  0  0  0  0
 25 26  2  0  0  0  0
 27 25  1  0  0  0  0
 27 32  1  0  0  0  0
 28 27  1  0  0  0  0
 29 28  2  0  0  0  0
 30 22  1  0  0  0  0
 31 23  1  0  0  0  0
 32 33  2  0  0  0  0
 32 39  1  0  0  0  0
 33 35  1  0  0  0  0
 34 33  1  0  0  0  0
 35 36  1  0  0  0  0
 35 37  1  0  0  0  0
 37 38  1  0  0  0  0
 39 37  2  0  0  0  0
M  END
>  <minimizedAffinity>
-6.41030979

$$$$

 OpenBabel03272502273D

 39 42  0  0  0  0  0  0  0  0999 V2000
   39.9160   26.9980   32.2970 C   0  0  0  0  0  0  0  0  0  0  0  0
   40.0520   26.1400   33.3990 C   0  0  0  0  0  0  0  0  0  0  0  0
   38.9170   25.8570   34.1350 C   0  0  0  0  0  0  0  0  0  0  0  0
   37.7740   26.4210   33.7400 N   0  0  0  0  0  0  0  0  0  0  0  0
   37.6510   27.2420   32.6800 C   0  0  0  0  0  0  0  0  0  0  0  0
   38.7350   27.5300   31.9570 N   0  0  0  0  0  0  0  0  0  0  0  0
   40.7940   27.2350   31.7050 H   0  0  0  0  0  0  0  0  0  0  0  0
   41.0040   25.7070   33.6810 H   0  0  0  0  0  0  0  0  0  0  0  0
   38.9280   24.9860   35.2890 C   0  0  0  0  0  0  0  0  0  0  0  0
   37.8860   25.0210   36.2060 C   0  0  0  0  0  0  0  0  0  0  0  0
   37.8420   24.2150   37.3140 C   0  0  0  0  0  0  0  0  0  0  0  0
   38.8570   23.3410   37.5320 N   0  0  0  0  0  0  0  0  0  0  0  0
   39.8500   23.3230   36.6370 C   0  0  0  0  0  0  0  0  0  0  0  0
   39.9180   24.1000   35.5450 N   0  0  0  0  0  0  0  0  0  0  0  0
   37.0810   25.7330   36.0080 H   0  0  0  0  0  0  0  0  0  0  0  0
   37.0020   24.2840   38.0010 H   0  0  0  0  0  0  0  0  0  0  0  0
   40.9750   22.3760   36.8490 C   0  0  0  0  0  0  0  0  0  0  0  0
   42.1560   23.1420   36.9720 F   0  0  0  0  0  0  0  0  0  0  0  0
   40.7720   21.5880   37.9390 F   0  0  0  0  0  0  0  0  0  0  0  0
   41.2090   21.5960   35.7270 F   0  0  0  0  0  0  0  0  0  0  0  0
   36.3850   27.7380   32.4160 O   0  0  0  0  0  0  0  0  0  0  0  0
   36.0260   31.3550   31.8470 N   0  0  0  0  0  0  0  0  0  0  0  0
   36.3400   30.0840   31.5540 C   0  0  0  0  0  0  0  0  0  0  0  0
   36.1340   29.0940   32.5050 C   0  0  0  0  0  0  0  0  0  0  0  0
   35.6070   29.4480   33.7380 C   0  0  0  0  0  0  0  0  0  0  0  0
   35.3430   28.7170   34.7310 O   0  0  0  0  0  0  0  0  0  0  0  0
   35.3060   30.7520   33.9820 N   0  0  0  0  0  0  0  0  0  0  0  0
   35.5100   31.7050   33.0500 C   0  0  0  0  0  0  0  0  0  0  0  0
   35.2480   32.9230   33.2290 O   0  0  0  0  0  0  0  0  0  0  0  0
   36.2060   32.0480   31.0870 H   0  0  0  0  0  0  0  0  0  0  0  0
   36.7460   29.7250   30.6420 H   0  0  0  0  0  0  0  0  0  0  0  0
   34.7620   31.2260   35.2110 C   0  0  0  0  0  0  0  0  0  0  0  0
   35.7040   31.6470   36.1330 C   0  0  0  0  0  0  0  0  0  0  0  0
   36.7990   31.7310   36.2070 H   0  0  0  0  0  0  0  0  0  0  0  0
   35.0390   32.0670   37.2440 N   0  0  0  0  0  0  0  0  0  0  0  0
   35.3030   32.4650   38.1910 H   0  0  0  0  0  0  0  0  0  0  0  0
   33.7070   31.9070   37.0080 C   0  0  0  0  0  0  0  0  0  0  0  0
   32.8260   32.1130   37.6190 H   0  0  0  0  0  0  0  0  0  0  0  0
   33.5420   31.3920   35.7630 N   0  0  0  0  0  0  0  0  0  0  0  0
  1  2  1  0  0  0  0
  2  8  1  0  0  0  0
  2  3  2  0  0  0  0
  3  9  1  0  0  0  0
  4  3  1  0  0  0  0
  5  4  2  0  0  0  0
  6  1  2  0  0  0  0
  6  5  1  0  0  0  0
  7  1  1  0  0  0  0
  9 14  2  0  0  0  0
  9 10  1  0  0  0  0
 10 11  2  0  0  0  0
 11 12  1  0  0  0  0
 11 16  1  0  0  0  0
 13 17  1  0  0  0  0
 13 12  2  0  0  0  0
 14 13  1  0  0  0  0
 15 10  1  0  0  0  0
 17 18  1  0  0  0  0
 17 19  1  0  0  0  0
 20 17  1  0  0  0  0
 21 24  1  0  0  0  0
 21  5  1  0  0  0  0
 22 28  1  0  0  0  0
 23 22  1  0  0  0  0
 23 24  2  0  0  0  0
 24 25  1  0  0  0  0
 25 27  1  0  0  0  0
 25 26  2  0  0  0  0
 27 32  1  0  0  0  0
 28 29  2  0  0  0  0
 28 27  1  0  0  0  0
 30 22  1  0  0  0  0
 31 23  1  0  0  0  0
 32 39  1  0  0  0  0
 32 33  2  0  0  0  0
 33 34  1  0  0  0  0
 33 35  1  0  0  0  0
 35 36  1  0  0  0  0
 37 35  1  0  0  0  0
 37 38  1  0  0  0  0
 39 37  2  0  0  0  0
M  END
>  <minimizedAffinity>
-6.31361198

$$$$
