
 OpenBabel03272508163D

 30 32  0  0  0  0  0  0  0  0999 V2000
   35.4000   30.6220   47.5130 Cl  0  0  0  0  0  0  0  0  0  0  0  0
   35.5800   29.9720   45.9240 C   0  0  0  0  0  0  0  0  0  0  0  0
   34.6480   29.0350   45.6200 C   0  0  0  0  0  0  0  0  0  0  0  0
   34.6980   28.4310   44.3380 C   0  0  0  0  0  0  0  0  0  0  0  0
   35.6580   28.7810   43.4290 C   0  0  0  0  0  0  0  0  0  0  0  0
   36.5940   29.7370   43.7660 C   0  0  0  0  0  0  0  0  0  0  0  0
   37.8240   30.2060   42.6440 Cl  0  0  0  0  0  0  0  0  0  0  0  0
   36.5370   30.3090   44.9960 C   0  0  0  0  0  0  0  0  0  0  0  0
   33.9980   27.6750   44.0060 H   0  0  0  0  0  0  0  0  0  0  0  0
   35.7220   28.3370   42.4420 H   0  0  0  0  0  0  0  0  0  0  0  0
   33.8220   27.4520   47.3150 C   0  0  0  0  0  0  0  0  0  0  0  0
   33.5320   28.5040   46.4290 C   0  0  0  0  0  0  0  0  0  0  0  0
   32.2280   28.9900   46.3560 C   0  0  0  0  0  0  0  0  0  0  0  0
   31.2990   28.4000   47.1660 N   0  0  0  0  0  0  0  0  0  0  0  0
   31.5970   27.4040   47.9980 C   0  0  0  0  0  0  0  0  0  0  0  0
   32.8790   26.9120   48.0830 N   0  0  0  0  0  0  0  0  0  0  0  0
   34.8060   27.0110   47.4390 H   0  0  0  0  0  0  0  0  0  0  0  0
   32.0290   29.8010   45.6670 H   0  0  0  0  0  0  0  0  0  0  0  0
   30.7260   27.0810   48.5440 H   0  0  0  0  0  0  0  0  0  0  0  0
   37.4960   31.3380   45.4360 C   0  0  0  0  0  0  0  0  0  0  0  0
   37.6750   32.4810   44.9980 O   0  0  0  0  0  0  0  0  0  0  0  0
   38.4350   31.2140   46.4880 O   0  0  0  0  0  0  0  0  0  0  0  0
   38.7130   32.2400   47.3540 C   0  0  0  0  0  0  0  0  0  0  0  0
   38.1300   32.6400   48.5280 C   0  0  0  0  0  0  0  0  0  0  0  0
   37.2650   32.0890   48.9260 H   0  0  0  0  0  0  0  0  0  0  0  0
   38.7420   33.7230   49.0600 N   0  0  0  0  0  0  0  0  0  0  0  0
   38.4330   34.1680   49.9540 H   0  0  0  0  0  0  0  0  0  0  0  0
   39.7360   33.9960   48.1820 C   0  0  0  0  0  0  0  0  0  0  0  0
   40.4220   34.8370   48.3400 H   0  0  0  0  0  0  0  0  0  0  0  0
   39.7270   33.1230   47.1680 N   0  0  0  0  0  0  0  0  0  0  0  0
  2  1  1  0  0  0  0
  3  2  1  0  0  0  0
  3 12  1  0  0  0  0
  4  3  2  0  0  0  0
  5  6  2  0  0  0  0
  5  4  1  0  0  0  0
  6  8  1  0  0  0  0
  7  6  1  0  0  0  0
  8 20  1  0  0  0  0
  8  2  2  0  0  0  0
  9  4  1  0  0  0  0
 10  5  1  0  0  0  0
 11 17  1  0  0  0  0
 11 16  1  0  0  0  0
 12 11  2  0  0  0  0
 13 12  1  0  0  0  0
 13 14  2  0  0  0  0
 14 15  1  0  0  0  0
 15 16  2  0  0  0  0
 15 19  1  0  0  0  0
 18 13  1  0  0  0  0
 20 22  1  0  0  0  0
 21 20  2  0  0  0  0
 22 23  1  0  0  0  0
 23 24  2  0  0  0  0
 24 25  1  0  0  0  0
 24 26  1  0  0  0  0
 26 27  1  0  0  0  0
 28 29  1  0  0  0  0
 28 26  1  0  0  0  0
 30 23  1  0  0  0  0
 30 28  2  0  0  0  0
M  END
>  <minimizedAffinity>
-4.20390892

>  <minimizedRMSD>
4.12364483

$$$$
