
 OpenBabel03272505433D

 23 24  0  0  0  0  0  0  0  0999 V2000
   32.3840   28.0280   49.0540 O   0  0  0  0  0  0  0  0  0  0  0  0
   33.8120   28.2160   48.5610 P   0  0  2  0  0  0  0  0  0  0  0  0
   34.0840   26.9580   47.4690 O   0  0  0  0  0  0  0  0  0  0  0  0
   33.6360   26.1280   47.8000 H   0  0  0  0  0  0  0  0  0  0  0  0
   34.8460   28.1350   49.9070 O   0  0  0  0  0  0  0  0  0  0  0  0
   37.3280   30.3430   51.3970 C   0  0  0  0  0  0  0  0  0  0  0  0
   38.0420   30.7420   50.2350 C   0  0  0  0  0  0  0  0  0  0  0  0
   37.6110   30.2120   48.9970 C   0  0  0  0  0  0  0  0  0  0  0  0
   36.5500   29.3640   49.0000 N   0  0  0  0  0  0  0  0  0  0  0  0
   35.8990   29.0100   50.1260 C   0  0  0  0  0  0  0  0  0  0  0  0
   36.2820   29.4960   51.3280 N   0  0  0  0  0  0  0  0  0  0  0  0
   37.6180   30.7200   52.3750 H   0  0  0  0  0  0  0  0  0  0  0  0
   38.8820   31.4250   50.3120 H   0  0  0  0  0  0  0  0  0  0  0  0
   38.1320   30.4950   48.0920 H   0  0  0  0  0  0  0  0  0  0  0  0
   33.8640   29.6690   47.7430 O   0  0  0  0  0  0  0  0  0  0  0  0
   34.0780   29.7440   46.3730 C   0  0  0  0  0  0  0  0  0  0  0  0
   35.2140   30.0970   45.6770 C   0  0  0  0  0  0  0  0  0  0  0  0
   36.1540   30.3820   46.1140 H   0  0  0  0  0  0  0  0  0  0  0  0
   34.8790   30.0040   44.3920 N   0  0  0  0  0  0  0  0  0  0  0  0
   35.4860   30.1950   43.5570 H   0  0  0  0  0  0  0  0  0  0  0  0
   33.5880   29.6090   44.2240 C   0  0  0  0  0  0  0  0  0  0  0  0
   33.0410   29.4480   43.3050 H   0  0  0  0  0  0  0  0  0  0  0  0
   33.0960   29.4490   45.4810 N   0  0  0  0  0  0  0  0  0  0  0  0
  2  1  2  1  0  0  0
  2  5  1  0  0  0  0
  3  4  1  0  0  0  0
  3  2  1  0  0  0  0
  5 10  1  0  0  0  0
  6 12  1  0  0  0  0
  7 13  1  0  0  0  0
  7  6  2  0  0  0  0
  8  9  2  0  0  0  0
  8  7  1  0  0  0  0
  9 10  1  0  0  0  0
 10 11  2  0  0  0  0
 11  6  1  0  0  0  0
 14  8  1  0  0  0  0
 15  2  1  0  0  0  0
 16 15  1  0  0  0  0
 17 18  1  0  0  0  0
 17 16  2  0  0  0  0
 19 17  1  0  0  0  0
 20 19  1  0  0  0  0
 21 19  1  0  0  0  0
 21 23  2  0  0  0  0
 22 21  1  0  0  0  0
 23 16  1  0  0  0  0
M  END
>  <minimizedAffinity>
-3.98224354

>  <minimizedRMSD>
0.938578248

$$$$
