
 OpenBabel03272505433D

 23 24  0  0  0  0  0  0  0  0999 V2000
   32.4690   27.9900   49.0690 O   0  0  0  0  0  0  0  0  0  0  0  0
   33.8310   28.3550   48.4950 P   0  0  2  0  0  0  0  0  0  0  0  0
   34.0550   27.3280   47.1740 O   0  0  0  0  0  0  0  0  0  0  0  0
   33.6830   26.4260   47.3890 H   0  0  0  0  0  0  0  0  0  0  0  0
   34.9950   28.1080   49.7080 O   0  0  0  0  0  0  0  0  0  0  0  0
   37.3280   30.3330   51.4000 C   0  0  0  0  0  0  0  0  0  0  0  0
   38.0570   30.8310   50.2870 C   0  0  0  0  0  0  0  0  0  0  0  0
   37.6870   30.3550   49.0070 C   0  0  0  0  0  0  0  0  0  0  0  0
   36.6670   29.4620   48.9280 N   0  0  0  0  0  0  0  0  0  0  0  0
   35.9990   29.0140   50.0100 C   0  0  0  0  0  0  0  0  0  0  0  0
   36.3240   29.4460   51.2500 N   0  0  0  0  0  0  0  0  0  0  0  0
   37.5710   30.6650   52.4070 H   0  0  0  0  0  0  0  0  0  0  0  0
   38.8610   31.5440   50.4290 H   0  0  0  0  0  0  0  0  0  0  0  0
   38.2210   30.7130   48.1370 H   0  0  0  0  0  0  0  0  0  0  0  0
   33.7310   29.9290   47.9510 O   0  0  0  0  0  0  0  0  0  0  0  0
   33.6430   30.2450   46.6020 C   0  0  0  0  0  0  0  0  0  0  0  0
   32.6310   30.8770   45.9110 C   0  0  0  0  0  0  0  0  0  0  0  0
   31.7120   31.2400   46.3350 H   0  0  0  0  0  0  0  0  0  0  0  0
   33.0510   30.9290   44.6480 N   0  0  0  0  0  0  0  0  0  0  0  0
   32.5490   31.3400   43.8230 H   0  0  0  0  0  0  0  0  0  0  0  0
   34.2790   30.3630   44.4890 C   0  0  0  0  0  0  0  0  0  0  0  0
   34.8680   30.2580   43.5890 H   0  0  0  0  0  0  0  0  0  0  0  0
   34.6390   29.9370   45.7300 N   0  0  0  0  0  0  0  0  0  0  0  0
  2  1  2  1  0  0  0
  2  5  1  0  0  0  0
  3  4  1  0  0  0  0
  3  2  1  0  0  0  0
  5 10  1  0  0  0  0
  6 12  1  0  0  0  0
  7 13  1  0  0  0  0
  7  6  2  0  0  0  0
  8  7  1  0  0  0  0
  9  8  2  0  0  0  0
  9 10  1  0  0  0  0
 10 11  2  0  0  0  0
 11  6  1  0  0  0  0
 14  8  1  0  0  0  0
 15  2  1  0  0  0  0
 16 15  1  0  0  0  0
 17 18  1  0  0  0  0
 17 16  2  0  0  0  0
 19 17  1  0  0  0  0
 20 19  1  0  0  0  0
 21 19  1  0  0  0  0
 21 23  2  0  0  0  0
 22 21  1  0  0  0  0
 23 16  1  0  0  0  0
M  END
>  <minimizedAffinity>
-4.16870689

>  <minimizedRMSD>
0.824334562

$$$$
