
 OpenBabel03262521053D

 35 37  0  0  0  0  0  0  0  0999 V2000
   38.4450   32.0560   48.3850 Br  0  0  0  0  0  0  0  0  0  0  0  0
   37.3890   31.3370   47.0060 C   0  0  0  0  0  0  0  0  0  0  0  0
   36.4110   30.4780   47.4020 C   0  0  0  0  0  0  0  0  0  0  0  0
   35.5710   29.8900   46.4410 C   0  0  0  0  0  0  0  0  0  0  0  0
   35.7570   30.2000   45.1010 C   0  0  0  0  0  0  0  0  0  0  0  0
   36.7530   31.0660   44.7820 C   0  0  0  0  0  0  0  0  0  0  0  0
   37.5830   31.6500   45.7060 C   0  0  0  0  0  0  0  0  0  0  0  0
   34.7740   29.2000   46.6820 H   0  0  0  0  0  0  0  0  0  0  0  0
   35.1150   29.7540   44.3390 H   0  0  0  0  0  0  0  0  0  0  0  0
   36.8900   31.3020   43.7330 H   0  0  0  0  0  0  0  0  0  0  0  0
   37.0220   29.5920   49.7040 C   0  0  0  0  0  0  0  0  0  0  0  0
   36.0810   30.0450   48.7750 C   0  0  0  0  0  0  0  0  0  0  0  0
   34.7220   30.0920   49.1810 C   0  0  0  0  0  0  0  0  0  0  0  0
   34.4370   29.6850   50.4580 N   0  0  0  0  0  0  0  0  0  0  0  0
   35.3810   29.2620   51.2990 C   0  0  0  0  0  0  0  0  0  0  0  0
   36.6650   29.2120   50.9370 N   0  0  0  0  0  0  0  0  0  0  0  0
   38.0580   29.5660   49.3690 H   0  0  0  0  0  0  0  0  0  0  0  0
   34.0050   30.4400   48.4620 H   0  0  0  0  0  0  0  0  0  0  0  0
   34.9470   28.9900   52.2540 H   0  0  0  0  0  0  0  0  0  0  0  0
   38.6250   32.5540   45.3800 N   0  0  0  0  0  0  0  0  0  0  0  0
   38.4240   33.4860   45.8350 H   0  0  0  0  0  0  0  0  0  0  0  0
   40.0410   32.4080   44.4520 S   0  0  0  0  0  0  0  0  0  0  0  0
   40.4000   30.9810   44.2150 O   0  0  0  0  0  0  0  0  0  0  0  0
   39.8150   30.1900   44.3150 H   0  0  0  0  0  0  0  0  0  0  0  0
   41.1960   33.0620   45.1830 O   0  0  0  0  0  0  0  0  0  0  0  0
   42.1080   32.6910   45.2750 H   0  0  0  0  0  0  0  0  0  0  0  0
   39.7880   33.1860   42.9590 O   0  0  0  0  0  0  0  0  0  0  0  0
   38.8400   32.6060   42.1250 C   0  0  0  0  0  0  0  0  0  0  0  0
   37.7330   33.2760   41.5910 C   0  0  0  0  0  0  0  0  0  0  0  0
   37.4190   34.3030   41.7130 H   0  0  0  0  0  0  0  0  0  0  0  0
   37.0990   32.3230   40.8490 N   0  0  0  0  0  0  0  0  0  0  0  0
   36.2070   32.5490   40.3170 H   0  0  0  0  0  0  0  0  0  0  0  0
   37.7360   31.1400   40.8970 C   0  0  0  0  0  0  0  0  0  0  0  0
   37.3950   30.2540   40.3760 H   0  0  0  0  0  0  0  0  0  0  0  0
   38.8150   31.3330   41.6930 N   0  0  0  0  0  0  0  0  0  0  0  0
  2  3  1  0  0  0  0
  2  1  1  0  0  0  0
  3 12  1  0  0  0  0
  4  8  1  0  0  0  0
  4  3  2  0  0  0  0
  5  4  1  0  0  0  0
  6  5  2  0  0  0  0
  6  7  1  0  0  0  0
  7  2  2  0  0  0  0
  9  5  1  0  0  0  0
 10  6  1  0  0  0  0
 11 16  1  0  0  0  0
 12 13  1  0  0  0  0
 12 11  2  0  0  0  0
 13 14  2  0  0  0  0
 14 15  1  0  0  0  0
 15 19  1  0  0  0  0
 16 15  2  0  0  0  0
 17 11  1  0  0  0  0
 18 13  1  0  0  0  0
 20  7  1  0  0  0  0
 20 21  1  0  0  0  0
 22 25  1  0  0  0  0
 22 20  1  0  0  0  0
 23 24  1  0  0  0  0
 23 22  1  0  0  0  0
 25 26  1  0  0  0  0
 27 22  1  0  0  0  0
 28 27  1  0  0  0  0
 29 30  1  0  0  0  0
 29 28  2  0  0  0  0
 31 33  1  0  0  0  0
 31 29  1  0  0  0  0
 32 31  1  0  0  0  0
 33 35  2  0  0  0  0
 34 33  1  0  0  0  0
 35 28  1  0  0  0  0
M  END
>  <minimizedAffinity>
-5.02899027

>  <minimizedRMSD>
1.81119466

$$$$
