
 OpenBabel03272505223D

 27 29  0  0  0  0  0  0  0  0999 V2000
   39.6400   25.4400   31.9050 Br  0  0  0  0  0  0  0  0  0  0  0  0
   38.8950   26.3040   33.4310 C   0  0  0  0  0  0  0  0  0  0  0  0
   39.7020   26.6800   34.4900 C   0  0  0  0  0  0  0  0  0  0  0  0
   39.1130   27.3060   35.5790 C   0  0  0  0  0  0  0  0  0  0  0  0
   37.7540   27.5380   35.5830 C   0  0  0  0  0  0  0  0  0  0  0  0
   36.9340   27.1640   34.5240 C   0  0  0  0  0  0  0  0  0  0  0  0
   37.5310   26.5410   33.4450 C   0  0  0  0  0  0  0  0  0  0  0  0
   39.7610   27.5820   36.3790 H   0  0  0  0  0  0  0  0  0  0  0  0
   37.3530   28.0280   36.4550 H   0  0  0  0  0  0  0  0  0  0  0  0
   35.8610   27.3600   34.5530 H   0  0  0  0  0  0  0  0  0  0  0  0
   43.3840   26.9170   33.6410 C   0  0  0  0  0  0  0  0  0  0  0  0
   42.0180   27.2270   33.7330 C   0  0  0  0  0  0  0  0  0  0  0  0
   41.1320   26.3820   34.3780 C   0  0  0  0  0  0  0  0  0  0  0  0
   41.6640   25.2450   34.9100 N   0  0  0  0  0  0  0  0  0  0  0  0
   42.9760   24.9550   34.8170 C   0  0  0  0  0  0  0  0  0  0  0  0
   43.8270   25.7720   34.1940 N   0  0  0  0  0  0  0  0  0  0  0  0
   44.0870   27.5650   33.1430 H   0  0  0  0  0  0  0  0  0  0  0  0
   41.6400   28.1380   33.2980 H   0  0  0  0  0  0  0  0  0  0  0  0
   43.1900   24.0010   35.3090 H   0  0  0  0  0  0  0  0  0  0  0  0
   36.7200   26.1270   32.3040 C   0  0  0  0  0  0  0  0  0  0  0  0
   36.3460   26.9230   31.2440 C   0  0  0  0  0  0  0  0  0  0  0  0
   36.5650   27.9620   31.0500 H   0  0  0  0  0  0  0  0  0  0  0  0
   35.6080   26.2370   30.3730 N   0  0  0  0  0  0  0  0  0  0  0  0
   35.1200   26.3990   29.4650 H   0  0  0  0  0  0  0  0  0  0  0  0
   35.5000   24.9900   30.8660 C   0  0  0  0  0  0  0  0  0  0  0  0
   35.0510   24.0180   30.6360 H   0  0  0  0  0  0  0  0  0  0  0  0
   36.1730   24.9040   32.0440 N   0  0  0  0  0  0  0  0  0  0  0  0
  1  2  1  0  0  0  0
  2  7  2  0  0  0  0
  2  3  1  0  0  0  0
  3  4  2  0  0  0  0
  4  5  1  0  0  0  0
  4  8  1  0  0  0  0
  5  9  1  0  0  0  0
  6 10  1  0  0  0  0
  6  5  2  0  0  0  0
  7  6  1  0  0  0  0
 11 12  2  0  0  0  0
 11 16  1  0  0  0  0
 12 13  1  0  0  0  0
 13  3  1  0  0  0  0
 13 14  2  0  0  0  0
 15 14  1  0  0  0  0
 15 19  1  0  0  0  0
 16 15  2  0  0  0  0
 17 11  1  0  0  0  0
 18 12  1  0  0  0  0
 20  7  1  0  0  0  0
 21 20  2  0  0  0  0
 22 21  1  0  0  0  0
 23 25  1  0  0  0  0
 23 21  1  0  0  0  0
 24 23  1  0  0  0  0
 25 27  2  0  0  0  0
 26 25  1  0  0  0  0
 27 20  1  0  0  0  0
M  END
>  <minimizedAffinity>
-4.98070526

$$$$

 OpenBabel03272505223D

 27 29  0  0  0  0  0  0  0  0999 V2000
   39.6590   25.4580   31.9050 Br  0  0  0  0  0  0  0  0  0  0  0  0
   38.9120   26.3100   33.4370 C   0  0  0  0  0  0  0  0  0  0  0  0
   39.7180   26.6810   34.4980 C   0  0  0  0  0  0  0  0  0  0  0  0
   39.1280   27.2980   35.5920 C   0  0  0  0  0  0  0  0  0  0  0  0
   37.7690   27.5260   35.5980 C   0  0  0  0  0  0  0  0  0  0  0  0
   36.9500   27.1580   34.5370 C   0  0  0  0  0  0  0  0  0  0  0  0
   37.5480   26.5440   33.4540 C   0  0  0  0  0  0  0  0  0  0  0  0
   39.7760   27.5710   36.3940 H   0  0  0  0  0  0  0  0  0  0  0  0
   37.3670   28.0090   36.4740 H   0  0  0  0  0  0  0  0  0  0  0  0
   35.8760   27.3510   34.5680 H   0  0  0  0  0  0  0  0  0  0  0  0
   43.0860   24.9690   34.7520 C   0  0  0  0  0  0  0  0  0  0  0  0
   41.7110   25.2230   34.8770 C   0  0  0  0  0  0  0  0  0  0  0  0
   41.1490   26.3880   34.3840 C   0  0  0  0  0  0  0  0  0  0  0  0
   42.0060   27.2600   33.7770 N   0  0  0  0  0  0  0  0  0  0  0  0
   43.3240   27.0070   33.6630 C   0  0  0  0  0  0  0  0  0  0  0  0
   43.8610   25.8840   34.1400 N   0  0  0  0  0  0  0  0  0  0  0  0
   43.5380   24.0670   35.1310 H   0  0  0  0  0  0  0  0  0  0  0  0
   41.0710   24.5060   35.3630 H   0  0  0  0  0  0  0  0  0  0  0  0
   43.8250   27.8320   33.1460 H   0  0  0  0  0  0  0  0  0  0  0  0
   36.7370   26.1350   32.3110 C   0  0  0  0  0  0  0  0  0  0  0  0
   36.3620   26.9360   31.2550 C   0  0  0  0  0  0  0  0  0  0  0  0
   36.5790   27.9770   31.0670 H   0  0  0  0  0  0  0  0  0  0  0  0
   35.6250   26.2550   30.3800 N   0  0  0  0  0  0  0  0  0  0  0  0
   35.1370   26.4210   29.4730 H   0  0  0  0  0  0  0  0  0  0  0  0
   35.5190   25.0050   30.8660 C   0  0  0  0  0  0  0  0  0  0  0  0
   35.0700   24.0330   30.6300 H   0  0  0  0  0  0  0  0  0  0  0  0
   36.1910   24.9130   32.0430 N   0  0  0  0  0  0  0  0  0  0  0  0
  1  2  1  0  0  0  0
  2  7  2  0  0  0  0
  2  3  1  0  0  0  0
  3  4  2  0  0  0  0
  4  5  1  0  0  0  0
  4  8  1  0  0  0  0
  5  9  1  0  0  0  0
  6 10  1  0  0  0  0
  6  5  2  0  0  0  0
  7  6  1  0  0  0  0
 11 12  1  0  0  0  0
 11 17  1  0  0  0  0
 12 18  1  0  0  0  0
 13  3  1  0  0  0  0
 13 12  2  0  0  0  0
 14 13  1  0  0  0  0
 15 14  2  0  0  0  0
 15 16  1  0  0  0  0
 16 11  2  0  0  0  0
 19 15  1  0  0  0  0
 20  7  1  0  0  0  0
 21 20  2  0  0  0  0
 22 21  1  0  0  0  0
 23 25  1  0  0  0  0
 23 21  1  0  0  0  0
 24 23  1  0  0  0  0
 25 27  2  0  0  0  0
 26 25  1  0  0  0  0
 27 20  1  0  0  0  0
M  END
>  <minimizedAffinity>
-4.94368553

$$$$

 OpenBabel03272505223D

 27 29  0  0  0  0  0  0  0  0999 V2000
   38.6540   25.9370   35.3480 Br  0  0  0  0  0  0  0  0  0  0  0  0
   38.1120   24.3820   34.3900 C   0  0  0  0  0  0  0  0  0  0  0  0
   37.7260   24.4720   33.0640 C   0  0  0  0  0  0  0  0  0  0  0  0
   37.3400   23.3120   32.4080 C   0  0  0  0  0  0  0  0  0  0  0  0
   37.3490   22.1100   33.0820 C   0  0  0  0  0  0  0  0  0  0  0  0
   37.7350   22.0080   34.4130 C   0  0  0  0  0  0  0  0  0  0  0  0
   38.1170   23.1690   35.0560 C   0  0  0  0  0  0  0  0  0  0  0  0
   37.0480   23.4150   31.3880 H   0  0  0  0  0  0  0  0  0  0  0  0
   37.0400   21.2430   32.5210 H   0  0  0  0  0  0  0  0  0  0  0  0
   37.7330   21.0430   34.9230 H   0  0  0  0  0  0  0  0  0  0  0  0
   38.8580   27.5600   31.1860 C   0  0  0  0  0  0  0  0  0  0  0  0
   38.8590   26.2810   31.7650 C   0  0  0  0  0  0  0  0  0  0  0  0
   37.7550   25.8020   32.4490 C   0  0  0  0  0  0  0  0  0  0  0  0
   36.6810   26.6410   32.5230 N   0  0  0  0  0  0  0  0  0  0  0  0
   36.6900   27.8670   31.9640 C   0  0  0  0  0  0  0  0  0  0  0  0
   37.7560   28.3240   31.3060 N   0  0  0  0  0  0  0  0  0  0  0  0
   39.7090   27.9470   30.6510 H   0  0  0  0  0  0  0  0  0  0  0  0
   39.7290   25.6510   31.6830 H   0  0  0  0  0  0  0  0  0  0  0  0
   35.7340   28.3700   32.1400 H   0  0  0  0  0  0  0  0  0  0  0  0
   38.5330   23.1230   36.4550 C   0  0  0  0  0  0  0  0  0  0  0  0
   39.7240   22.6220   36.9310 C   0  0  0  0  0  0  0  0  0  0  0  0
   40.5520   22.1830   36.3940 H   0  0  0  0  0  0  0  0  0  0  0  0
   39.7890   22.7300   38.2560 N   0  0  0  0  0  0  0  0  0  0  0  0
   40.4550   22.5030   39.0260 H   0  0  0  0  0  0  0  0  0  0  0  0
   38.6370   23.3040   38.6470 C   0  0  0  0  0  0  0  0  0  0  0  0
   38.1140   23.6390   39.5500 H   0  0  0  0  0  0  0  0  0  0  0  0
   37.8580   23.5510   37.5620 N   0  0  0  0  0  0  0  0  0  0  0  0
  2  7  1  0  0  0  0
  2  1  1  0  0  0  0
  3  2  2  0  0  0  0
  4  3  1  0  0  0  0
  4  5  2  0  0  0  0
  5  6  1  0  0  0  0
  6 10  1  0  0  0  0
  6  7  2  0  0  0  0
  7 20  1  0  0  0  0
  8  4  1  0  0  0  0
  9  5  1  0  0  0  0
 11 16  2  0  0  0  0
 11 12  1  0  0  0  0
 12 13  2  0  0  0  0
 13 14  1  0  0  0  0
 13  3  1  0  0  0  0
 15 19  1  0  0  0  0
 15 14  2  0  0  0  0
 16 15  1  0  0  0  0
 17 11  1  0  0  0  0
 18 12  1  0  0  0  0
 20 21  2  0  0  0  0
 20 27  1  0  0  0  0
 21 23  1  0  0  0  0
 22 21  1  0  0  0  0
 23 25  1  0  0  0  0
 23 24  1  0  0  0  0
 25 26  1  0  0  0  0
 27 25  2  0  0  0  0
M  END
>  <minimizedAffinity>
-4.91508627

$$$$

 OpenBabel03272505223D

 27 29  0  0  0  0  0  0  0  0999 V2000
   38.0590   23.1580   33.7060 Br  0  0  0  0  0  0  0  0  0  0  0  0
   36.9860   24.2960   32.6180 C   0  0  0  0  0  0  0  0  0  0  0  0
   36.1020   23.7600   31.6980 C   0  0  0  0  0  0  0  0  0  0  0  0
   35.3430   24.6300   30.9290 C   0  0  0  0  0  0  0  0  0  0  0  0
   35.4820   25.9910   31.0940 C   0  0  0  0  0  0  0  0  0  0  0  0
   36.3670   26.5400   32.0150 C   0  0  0  0  0  0  0  0  0  0  0  0
   37.1180   25.6650   32.7760 C   0  0  0  0  0  0  0  0  0  0  0  0
   34.6710   24.1860   30.2290 H   0  0  0  0  0  0  0  0  0  0  0  0
   34.8660   26.6170   30.4690 H   0  0  0  0  0  0  0  0  0  0  0  0
   36.4570   27.6210   32.1260 H   0  0  0  0  0  0  0  0  0  0  0  0
   35.0460   20.1560   32.1720 C   0  0  0  0  0  0  0  0  0  0  0  0
   35.0840   21.5550   32.2780 C   0  0  0  0  0  0  0  0  0  0  0  0
   36.0370   22.3000   31.6070 C   0  0  0  0  0  0  0  0  0  0  0  0
   36.9250   21.5970   30.8460 N   0  0  0  0  0  0  0  0  0  0  0  0
   36.8810   20.2530   30.7500 C   0  0  0  0  0  0  0  0  0  0  0  0
   35.9600   19.5390   31.4000 N   0  0  0  0  0  0  0  0  0  0  0  0
   34.3090   19.5620   32.6890 H   0  0  0  0  0  0  0  0  0  0  0  0
   34.3630   22.0700   32.8910 H   0  0  0  0  0  0  0  0  0  0  0  0
   37.6790   19.8940   30.0930 H   0  0  0  0  0  0  0  0  0  0  0  0
   38.0630   26.1840   33.7600 C   0  0  0  0  0  0  0  0  0  0  0  0
   37.7600   26.5920   35.0400 C   0  0  0  0  0  0  0  0  0  0  0  0
   36.8090   26.6110   35.5500 H   0  0  0  0  0  0  0  0  0  0  0  0
   38.8510   27.0110   35.6760 N   0  0  0  0  0  0  0  0  0  0  0  0
   39.1120   27.3940   36.6110 H   0  0  0  0  0  0  0  0  0  0  0  0
   39.8720   26.8770   34.8090 C   0  0  0  0  0  0  0  0  0  0  0  0
   40.9520   27.0370   34.7320 H   0  0  0  0  0  0  0  0  0  0  0  0
   39.4100   26.3730   33.6340 N   0  0  0  0  0  0  0  0  0  0  0  0
  2  7  1  0  0  0  0
  2  1  1  0  0  0  0
  3  2  2  0  0  0  0
  4  5  2  0  0  0  0
  4  3  1  0  0  0  0
  5  6  1  0  0  0  0
  6 10  1  0  0  0  0
  6  7  2  0  0  0  0
  7 20  1  0  0  0  0
  8  4  1  0  0  0  0
  9  5  1  0  0  0  0
 11 12  1  0  0  0  0
 11 17  1  0  0  0  0
 12 18  1  0  0  0  0
 13  3  1  0  0  0  0
 13 12  2  0  0  0  0
 14 13  1  0  0  0  0
 15 14  2  0  0  0  0
 15 16  1  0  0  0  0
 16 11  2  0  0  0  0
 19 15  1  0  0  0  0
 20 21  2  0  0  0  0
 21 22  1  0  0  0  0
 21 23  1  0  0  0  0
 23 24  1  0  0  0  0
 25 23  1  0  0  0  0
 26 25  1  0  0  0  0
 27 20  1  0  0  0  0
 27 25  2  0  0  0  0
M  END
>  <minimizedAffinity>
-4.79724646

$$$$

 OpenBabel03272505223D

 27 29  0  0  0  0  0  0  0  0999 V2000
   40.7050   24.6230   34.2070 Br  0  0  0  0  0  0  0  0  0  0  0  0
   39.7930   24.0970   35.7960 C   0  0  0  0  0  0  0  0  0  0  0  0
   38.5250   24.5770   36.0690 C   0  0  0  0  0  0  0  0  0  0  0  0
   37.9020   24.1660   37.2390 C   0  0  0  0  0  0  0  0  0  0  0  0
   38.5500   23.2990   38.0920 C   0  0  0  0  0  0  0  0  0  0  0  0
   39.8240   22.8120   37.8270 C   0  0  0  0  0  0  0  0  0  0  0  0
   40.4360   23.2280   36.6600 C   0  0  0  0  0  0  0  0  0  0  0  0
   36.9250   24.5540   37.4210 H   0  0  0  0  0  0  0  0  0  0  0  0
   38.0160   23.0150   38.9850 H   0  0  0  0  0  0  0  0  0  0  0  0
   40.3150   22.1260   38.5200 H   0  0  0  0  0  0  0  0  0  0  0  0
   37.1410   27.6860   34.4100 C   0  0  0  0  0  0  0  0  0  0  0  0
   37.7100   26.8310   35.3670 C   0  0  0  0  0  0  0  0  0  0  0  0
   37.9330   25.4930   35.0920 C   0  0  0  0  0  0  0  0  0  0  0  0
   37.5680   25.0660   33.8480 N   0  0  0  0  0  0  0  0  0  0  0  0
   37.0220   25.8940   32.9370 C   0  0  0  0  0  0  0  0  0  0  0  0
   36.8090   27.1820   33.2070 N   0  0  0  0  0  0  0  0  0  0  0  0
   36.9620   28.7300   34.6100 H   0  0  0  0  0  0  0  0  0  0  0  0
   37.9830   27.2110   36.3380 H   0  0  0  0  0  0  0  0  0  0  0  0
   36.8070   25.3500   32.0120 H   0  0  0  0  0  0  0  0  0  0  0  0
   41.7740   22.7480   36.3290 C   0  0  0  0  0  0  0  0  0  0  0  0
   42.0770   21.5620   35.6970 C   0  0  0  0  0  0  0  0  0  0  0  0
   41.4200   20.7850   35.3360 H   0  0  0  0  0  0  0  0  0  0  0  0
   43.3920   21.4270   35.5460 N   0  0  0  0  0  0  0  0  0  0  0  0
   44.0660   20.7370   35.1480 H   0  0  0  0  0  0  0  0  0  0  0  0
   43.9510   22.5280   36.0810 C   0  0  0  0  0  0  0  0  0  0  0  0
   44.9290   22.9880   36.2590 H   0  0  0  0  0  0  0  0  0  0  0  0
   42.9780   23.3450   36.5640 N   0  0  0  0  0  0  0  0  0  0  0  0
  1  2  1  0  0  0  0
  2  3  2  0  0  0  0
  2  7  1  0  0  0  0
  3  4  1  0  0  0  0
  4  8  1  0  0  0  0
  4  5  2  0  0  0  0
  5  9  1  0  0  0  0
  6  5  1  0  0  0  0
  6 10  1  0  0  0  0
  7  6  2  0  0  0  0
 11 17  1  0  0  0  0
 11 12  1  0  0  0  0
 12 18  1  0  0  0  0
 13 12  2  0  0  0  0
 13  3  1  0  0  0  0
 14 13  1  0  0  0  0
 15 16  1  0  0  0  0
 15 14  2  0  0  0  0
 16 11  2  0  0  0  0
 19 15  1  0  0  0  0
 20 27  1  0  0  0  0
 20  7  1  0  0  0  0
 21 20  2  0  0  0  0
 22 21  1  0  0  0  0
 23 21  1  0  0  0  0
 23 25  1  0  0  0  0
 24 23  1  0  0  0  0
 25 26  1  0  0  0  0
 25 27  2  0  0  0  0
M  END
>  <minimizedAffinity>
-4.7213006

$$$$

 OpenBabel03272505223D

 27 29  0  0  0  0  0  0  0  0999 V2000
   36.6160   21.2620   35.7160 Br  0  0  0  0  0  0  0  0  0  0  0  0
   37.7080   22.3180   34.5650 C   0  0  0  0  0  0  0  0  0  0  0  0
   37.6500   22.1510   33.1930 C   0  0  0  0  0  0  0  0  0  0  0  0
   38.4650   22.9440   32.3970 C   0  0  0  0  0  0  0  0  0  0  0  0
   39.3020   23.8700   32.9820 C   0  0  0  0  0  0  0  0  0  0  0  0
   39.3670   24.0460   34.3590 C   0  0  0  0  0  0  0  0  0  0  0  0
   38.5520   23.2510   35.1420 C   0  0  0  0  0  0  0  0  0  0  0  0
   38.3980   22.7900   31.3440 H   0  0  0  0  0  0  0  0  0  0  0  0
   39.9100   24.4570   32.3130 H   0  0  0  0  0  0  0  0  0  0  0  0
   40.0390   24.7860   34.7960 H   0  0  0  0  0  0  0  0  0  0  0  0
   34.5140   20.3990   31.9960 C   0  0  0  0  0  0  0  0  0  0  0  0
   35.3780   21.3910   32.4870 C   0  0  0  0  0  0  0  0  0  0  0  0
   36.7250   21.1370   32.6820 C   0  0  0  0  0  0  0  0  0  0  0  0
   37.1520   19.8790   32.3700 N   0  0  0  0  0  0  0  0  0  0  0  0
   36.3150   18.9340   31.9000 C   0  0  0  0  0  0  0  0  0  0  0  0
   35.0180   19.1830   31.7140 N   0  0  0  0  0  0  0  0  0  0  0  0
   33.4640   20.5820   31.8390 H   0  0  0  0  0  0  0  0  0  0  0  0
   34.9990   22.3710   32.7210 H   0  0  0  0  0  0  0  0  0  0  0  0
   36.8600   18.0030   31.7160 H   0  0  0  0  0  0  0  0  0  0  0  0
   38.5780   23.3920   36.5950 C   0  0  0  0  0  0  0  0  0  0  0  0
   39.4410   22.7530   37.4570 C   0  0  0  0  0  0  0  0  0  0  0  0
   40.2350   22.0530   37.2450 H   0  0  0  0  0  0  0  0  0  0  0  0
   39.1980   23.1030   38.7180 N   0  0  0  0  0  0  0  0  0  0  0  0
   39.5680   22.8940   39.6710 H   0  0  0  0  0  0  0  0  0  0  0  0
   38.1720   23.9720   38.6800 C   0  0  0  0  0  0  0  0  0  0  0  0
   37.5450   24.5810   39.3410 H   0  0  0  0  0  0  0  0  0  0  0  0
   37.7810   24.1620   37.3930 N   0  0  0  0  0  0  0  0  0  0  0  0
  2  7  1  0  0  0  0
  2  1  1  0  0  0  0
  3  2  2  0  0  0  0
  4  5  2  0  0  0  0
  4  3  1  0  0  0  0
  5  6  1  0  0  0  0
  6 10  1  0  0  0  0
  6  7  2  0  0  0  0
  7 20  1  0  0  0  0
  8  4  1  0  0  0  0
  9  5  1  0  0  0  0
 11 12  1  0  0  0  0
 12 13  2  0  0  0  0
 12 18  1  0  0  0  0
 13  3  1  0  0  0  0
 14 13  1  0  0  0  0
 15 14  2  0  0  0  0
 16 15  1  0  0  0  0
 16 11  2  0  0  0  0
 17 11  1  0  0  0  0
 19 15  1  0  0  0  0
 20 27  1  0  0  0  0
 20 21  2  0  0  0  0
 21 23  1  0  0  0  0
 22 21  1  0  0  0  0
 23 24  1  0  0  0  0
 25 23  1  0  0  0  0
 25 26  1  0  0  0  0
 27 25  2  0  0  0  0
M  END
>  <minimizedAffinity>
-4.64947224

$$$$

 OpenBabel03272505223D

 27 29  0  0  0  0  0  0  0  0999 V2000
   37.9460   23.0350   33.5920 Br  0  0  0  0  0  0  0  0  0  0  0  0
   36.8450   24.1430   32.5010 C   0  0  0  0  0  0  0  0  0  0  0  0
   36.9140   25.5220   32.6040 C   0  0  0  0  0  0  0  0  0  0  0  0
   36.0930   26.2860   31.7880 C   0  0  0  0  0  0  0  0  0  0  0  0
   35.2370   25.6660   30.9030 C   0  0  0  0  0  0  0  0  0  0  0  0
   35.1600   24.2830   30.7910 C   0  0  0  0  0  0  0  0  0  0  0  0
   35.9830   23.5310   31.6090 C   0  0  0  0  0  0  0  0  0  0  0  0
   36.1680   27.3450   31.8920 H   0  0  0  0  0  0  0  0  0  0  0  0
   34.6240   26.3110   30.2950 H   0  0  0  0  0  0  0  0  0  0  0  0
   34.4740   23.8170   30.0820 H   0  0  0  0  0  0  0  0  0  0  0  0
   40.0350   26.9570   34.1960 C   0  0  0  0  0  0  0  0  0  0  0  0
   39.1510   26.4320   33.2400 C   0  0  0  0  0  0  0  0  0  0  0  0
   37.8590   26.0720   33.5790 C   0  0  0  0  0  0  0  0  0  0  0  0
   37.5040   26.2570   34.8830 N   0  0  0  0  0  0  0  0  0  0  0  0
   38.3600   26.7620   35.7940 C   0  0  0  0  0  0  0  0  0  0  0  0
   39.6050   27.1070   35.4630 N   0  0  0  0  0  0  0  0  0  0  0  0
   41.0440   27.2420   33.9470 H   0  0  0  0  0  0  0  0  0  0  0  0
   39.4730   26.3020   32.2200 H   0  0  0  0  0  0  0  0  0  0  0  0
   37.8760   26.8270   36.7740 H   0  0  0  0  0  0  0  0  0  0  0  0
   35.9450   22.0740   31.5350 C   0  0  0  0  0  0  0  0  0  0  0  0
   35.0670   21.2490   32.2020 C   0  0  0  0  0  0  0  0  0  0  0  0
   34.2670   21.5010   32.8830 H   0  0  0  0  0  0  0  0  0  0  0  0
   35.3020   19.9710   31.9150 N   0  0  0  0  0  0  0  0  0  0  0  0
   34.9210   19.0320   32.1630 H   0  0  0  0  0  0  0  0  0  0  0  0
   36.3380   19.9600   31.0570 C   0  0  0  0  0  0  0  0  0  0  0  0
   36.9670   19.2660   30.4870 H   0  0  0  0  0  0  0  0  0  0  0  0
   36.7440   21.2340   30.8130 N   0  0  0  0  0  0  0  0  0  0  0  0
  2  3  1  0  0  0  0
  2  1  1  0  0  0  0
  3 13  1  0  0  0  0
  4  8  1  0  0  0  0
  4  3  2  0  0  0  0
  5  4  1  0  0  0  0
  6  5  2  0  0  0  0
  6  7  1  0  0  0  0
  7  2  2  0  0  0  0
  9  5  1  0  0  0  0
 10  6  1  0  0  0  0
 11 16  1  0  0  0  0
 12 13  1  0  0  0  0
 12 11  2  0  0  0  0
 13 14  2  0  0  0  0
 14 15  1  0  0  0  0
 15 19  1  0  0  0  0
 16 15  2  0  0  0  0
 17 11  1  0  0  0  0
 18 12  1  0  0  0  0
 20  7  1  0  0  0  0
 20 21  2  0  0  0  0
 21 22  1  0  0  0  0
 23 24  1  0  0  0  0
 23 21  1  0  0  0  0
 25 23  1  0  0  0  0
 26 25  1  0  0  0  0
 27 25  2  0  0  0  0
 27 20  1  0  0  0  0
M  END
>  <minimizedAffinity>
-4.59758615

$$$$

 OpenBabel03272505223D

 27 29  0  0  0  0  0  0  0  0999 V2000
   36.3430   20.8760   35.4750 Br  0  0  0  0  0  0  0  0  0  0  0  0
   37.3010   21.7670   34.0890 C   0  0  0  0  0  0  0  0  0  0  0  0
   38.2330   22.7430   34.3950 C   0  0  0  0  0  0  0  0  0  0  0  0
   38.9040   23.3640   33.3510 C   0  0  0  0  0  0  0  0  0  0  0  0
   38.6340   22.9990   32.0500 C   0  0  0  0  0  0  0  0  0  0  0  0
   37.7000   22.0200   31.7320 C   0  0  0  0  0  0  0  0  0  0  0  0
   37.0370   21.4090   32.7790 C   0  0  0  0  0  0  0  0  0  0  0  0
   39.6150   24.1120   33.6190 H   0  0  0  0  0  0  0  0  0  0  0  0
   39.1860   23.5150   31.2820 H   0  0  0  0  0  0  0  0  0  0  0  0
   37.5050   21.7500   30.6930 H   0  0  0  0  0  0  0  0  0  0  0  0
   39.6620   22.8330   37.9000 C   0  0  0  0  0  0  0  0  0  0  0  0
   39.4890   22.5220   36.5420 C   0  0  0  0  0  0  0  0  0  0  0  0
   38.4380   23.0500   35.8120 C   0  0  0  0  0  0  0  0  0  0  0  0
   37.5930   23.8810   36.4880 N   0  0  0  0  0  0  0  0  0  0  0  0
   37.7670   24.1740   37.7920 C   0  0  0  0  0  0  0  0  0  0  0  0
   38.7810   23.6620   38.4910 N   0  0  0  0  0  0  0  0  0  0  0  0
   40.4750   22.4300   38.4810 H   0  0  0  0  0  0  0  0  0  0  0  0
   40.1810   21.8600   36.0470 H   0  0  0  0  0  0  0  0  0  0  0  0
   36.9820   24.8550   38.1350 H   0  0  0  0  0  0  0  0  0  0  0  0
   36.0450   20.3730   32.5060 C   0  0  0  0  0  0  0  0  0  0  0  0
   34.7290   20.5810   32.1590 C   0  0  0  0  0  0  0  0  0  0  0  0
   34.1880   21.5060   32.0270 H   0  0  0  0  0  0  0  0  0  0  0  0
   34.0960   19.4230   31.9790 N   0  0  0  0  0  0  0  0  0  0  0  0
   33.1420   19.0860   31.7240 H   0  0  0  0  0  0  0  0  0  0  0  0
   35.0020   18.4560   32.2090 C   0  0  0  0  0  0  0  0  0  0  0  0
   35.1000   17.3650   32.2230 H   0  0  0  0  0  0  0  0  0  0  0  0
   36.1980   19.0160   32.5310 N   0  0  0  0  0  0  0  0  0  0  0  0
  2  3  1  0  0  0  0
  2  1  1  0  0  0  0
  3 13  1  0  0  0  0
  4  8  1  0  0  0  0
  4  3  2  0  0  0  0
  5  4  1  0  0  0  0
  6  5  2  0  0  0  0
  6  7  1  0  0  0  0
  7  2  2  0  0  0  0
  9  5  1  0  0  0  0
 10  6  1  0  0  0  0
 11 17  1  0  0  0  0
 11 16  1  0  0  0  0
 12 11  2  0  0  0  0
 13 14  2  0  0  0  0
 13 12  1  0  0  0  0
 14 15  1  0  0  0  0
 15 19  1  0  0  0  0
 15 16  2  0  0  0  0
 18 12  1  0  0  0  0
 20 27  1  0  0  0  0
 20  7  1  0  0  0  0
 21 20  2  0  0  0  0
 22 21  1  0  0  0  0
 23 21  1  0  0  0  0
 23 25  1  0  0  0  0
 24 23  1  0  0  0  0
 25 26  1  0  0  0  0
 25 27  2  0  0  0  0
M  END
>  <minimizedAffinity>
-4.56000853

$$$$

 OpenBabel03272505223D

 27 29  0  0  0  0  0  0  0  0999 V2000
   32.7900   29.3960   33.6890 Br  0  0  0  0  0  0  0  0  0  0  0  0
   33.9860   30.4430   34.7400 C   0  0  0  0  0  0  0  0  0  0  0  0
   35.3140   30.5710   34.3750 C   0  0  0  0  0  0  0  0  0  0  0  0
   36.1470   31.3430   35.1720 C   0  0  0  0  0  0  0  0  0  0  0  0
   35.6400   31.9590   36.2960 C   0  0  0  0  0  0  0  0  0  0  0  0
   34.3070   31.8370   36.6720 C   0  0  0  0  0  0  0  0  0  0  0  0
   33.4870   31.0650   35.8710 C   0  0  0  0  0  0  0  0  0  0  0  0
   37.1650   31.4210   34.8650 H   0  0  0  0  0  0  0  0  0  0  0  0
   36.3330   32.5460   36.8760 H   0  0  0  0  0  0  0  0  0  0  0  0
   33.9320   32.3360   37.5670 H   0  0  0  0  0  0  0  0  0  0  0  0
   36.6170   27.9230   32.0020 C   0  0  0  0  0  0  0  0  0  0  0  0
   36.2120   28.5690   33.1810 C   0  0  0  0  0  0  0  0  0  0  0  0
   35.7430   29.8710   33.1620 C   0  0  0  0  0  0  0  0  0  0  0  0
   35.7000   30.4770   31.9400 N   0  0  0  0  0  0  0  0  0  0  0  0
   36.0910   29.8490   30.8140 C   0  0  0  0  0  0  0  0  0  0  0  0
   36.5420   28.5950   30.8370 N   0  0  0  0  0  0  0  0  0  0  0  0
   36.9840   26.9100   32.0010 H   0  0  0  0  0  0  0  0  0  0  0  0
   36.2630   28.0520   34.1250 H   0  0  0  0  0  0  0  0  0  0  0  0
   35.9750   30.5120   29.9510 H   0  0  0  0  0  0  0  0  0  0  0  0
   32.0780   30.9020   36.2160 C   0  0  0  0  0  0  0  0  0  0  0  0
   31.5410   29.8840   36.9730 C   0  0  0  0  0  0  0  0  0  0  0  0
   32.0280   29.0420   37.4410 H   0  0  0  0  0  0  0  0  0  0  0  0
   30.2240   30.0310   37.1000 N   0  0  0  0  0  0  0  0  0  0  0  0
   29.4240   29.5400   37.5560 H   0  0  0  0  0  0  0  0  0  0  0  0
   29.9000   31.1480   36.4240 C   0  0  0  0  0  0  0  0  0  0  0  0
   29.0340   31.7670   36.1660 H   0  0  0  0  0  0  0  0  0  0  0  0
   31.0190   31.6940   35.8780 N   0  0  0  0  0  0  0  0  0  0  0  0
  1  2  1  0  0  0  0
  2  7  1  0  0  0  0
  3  2  2  0  0  0  0
  3  4  1  0  0  0  0
  4  5  2  0  0  0  0
  5  6  1  0  0  0  0
  5  9  1  0  0  0  0
  6 10  1  0  0  0  0
  7 20  1  0  0  0  0
  7  6  2  0  0  0  0
  8  4  1  0  0  0  0
 11 12  1  0  0  0  0
 12 18  1  0  0  0  0
 13 12  2  0  0  0  0
 13  3  1  0  0  0  0
 14 13  1  0  0  0  0
 15 16  1  0  0  0  0
 15 14  2  0  0  0  0
 16 11  2  0  0  0  0
 17 11  1  0  0  0  0
 19 15  1  0  0  0  0
 20 21  2  0  0  0  0
 21 23  1  0  0  0  0
 21 22  1  0  0  0  0
 23 24  1  0  0  0  0
 25 23  1  0  0  0  0
 26 25  1  0  0  0  0
 27 20  1  0  0  0  0
 27 25  2  0  0  0  0
M  END
>  <minimizedAffinity>
-4.5504303

$$$$
