
 OpenBabel03272510113D

 34 37  0  0  0  0  0  0  0  0999 V2000
   33.6630   28.4970   48.8130 C   0  0  0  0  0  0  0  0  0  0  0  0
   33.8660   28.7950   50.1140 C   0  0  0  0  0  0  0  0  0  0  0  0
   34.9450   29.4940   50.6070 C   0  0  0  0  0  0  0  0  0  0  0  0
   35.9110   29.9410   49.7480 C   0  0  0  0  0  0  0  0  0  0  0  0
   35.7050   29.6350   48.4020 C   0  0  0  0  0  0  0  0  0  0  0  0
   34.6350   28.9490   47.9720 N   0  0  0  0  0  0  0  0  0  0  0  0
   33.1560   28.4850   50.8670 H   0  0  0  0  0  0  0  0  0  0  0  0
   35.0960   29.7280   51.6540 H   0  0  0  0  0  0  0  0  0  0  0  0
   36.4470   29.9670   47.6720 H   0  0  0  0  0  0  0  0  0  0  0  0
   31.2940   27.6690   48.9700 C   0  0  0  0  0  0  0  0  0  0  0  0
   32.5380   27.7690   48.3090 C   0  0  0  0  0  0  0  0  0  0  0  0
   32.6310   27.1080   47.1020 C   0  0  0  0  0  0  0  0  0  0  0  0
   31.5650   26.4100   46.6080 N   0  0  0  0  0  0  0  0  0  0  0  0
   30.4060   26.3540   47.2910 C   0  0  0  0  0  0  0  0  0  0  0  0
   30.2610   26.9770   48.4670 N   0  0  0  0  0  0  0  0  0  0  0  0
   31.1900   28.1760   49.9180 H   0  0  0  0  0  0  0  0  0  0  0  0
   33.5760   27.1670   46.5700 H   0  0  0  0  0  0  0  0  0  0  0  0
   29.6870   25.7560   46.7380 H   0  0  0  0  0  0  0  0  0  0  0  0
   37.0610   30.6580   50.0750 O   0  0  0  0  0  0  0  0  0  0  0  0
   37.8290   31.2750   49.0900 C   0  0  0  0  0  0  0  0  0  0  0  0
   38.2140   32.5860   49.4060 C   0  0  0  0  0  0  0  0  0  0  0  0
   38.9660   33.0870   48.3590 C   0  0  0  0  0  0  0  0  0  0  0  0
   39.0140   32.0930   47.4610 N   0  0  0  0  0  0  0  0  0  0  0  0
   38.3580   31.0370   47.8760 N   0  0  0  0  0  0  0  0  0  0  0  0
   38.0480   33.2520   50.2690 H   0  0  0  0  0  0  0  0  0  0  0  0
   39.4650   34.0130   48.1440 H   0  0  0  0  0  0  0  0  0  0  0  0
   39.6620   32.0620   46.1850 C   0  0  0  0  0  0  0  0  0  0  0  0
   40.6550   31.3610   45.5400 C   0  0  0  0  0  0  0  0  0  0  0  0
   41.1290   30.5840   46.1290 H   0  0  0  0  0  0  0  0  0  0  0  0
   40.7490   31.8750   44.3090 N   0  0  0  0  0  0  0  0  0  0  0  0
   41.4550   31.4760   43.6550 H   0  0  0  0  0  0  0  0  0  0  0  0
   39.8580   32.8670   44.1500 C   0  0  0  0  0  0  0  0  0  0  0  0
   39.7450   33.4450   43.2190 H   0  0  0  0  0  0  0  0  0  0  0  0
   39.1820   32.9880   45.3040 N   0  0  0  0  0  0  0  0  0  0  0  0
  1  2  1  0  0  0  0
  2  3  2  0  0  0  0
  2  7  1  0  0  0  0
  3  8  1  0  0  0  0
  4 19  1  0  0  0  0
  4  3  1  0  0  0  0
  5  4  2  0  0  0  0
  6  5  1  0  0  0  0
  6  1  2  0  0  0  0
  9  5  1  0  0  0  0
 10 16  1  0  0  0  0
 11  1  1  0  0  0  0
 11 10  2  0  0  0  0
 12 11  1  0  0  0  0
 13 12  2  0  0  0  0
 13 14  1  0  0  0  0
 14 15  2  0  0  0  0
 15 10  1  0  0  0  0
 17 12  1  0  0  0  0
 18 14  1  0  0  0  0
 20 21  1  0  0  0  0
 20 19  1  0  0  0  0
 21 25  1  0  0  0  0
 22 21  2  0  0  0  0
 23 24  1  0  0  0  0
 23 22  1  0  0  0  0
 24 20  2  0  0  0  0
 26 22  1  0  0  0  0
 27 23  1  0  0  0  0
 28 29  1  0  0  0  0
 28 27  2  0  0  0  0
 30 28  1  0  0  0  0
 31 30  1  0  0  0  0
 32 30  1  0  0  0  0
 32 34  2  0  0  0  0
 33 32  1  0  0  0  0
 34 27  1  0  0  0  0
M  END
>  <minimizedAffinity>
-5.93584299

>  <minimizedRMSD>
1.72175872

$$$$
