
 OpenBabel03272506493D

 41 44  0  0  1  0  0  0  0  0999 V2000
   37.0710   25.6500   31.0550 C   0  0  2  0  0  0  0  0  0  0  0  0
   37.2130   24.1920   31.3820 C   0  0  1  0  0  0  0  0  0  0  0  0
   37.8210   24.0910   32.5970 O   0  0  0  0  0  0  0  0  0  0  0  0
   37.8380   25.3380   33.2100 C   0  0  0  0  0  0  0  0  0  0  0  0
   36.8220   26.1980   32.4980 C   0  0  1  0  0  0  0  0  0  0  0  0
   37.9680   26.1280   30.6710 H   0  0  0  0  0  0  0  0  0  0  0  0
   37.7510   23.6690   30.5560 H   0  0  0  0  0  0  0  0  0  0  0  0
   38.8610   25.6810   33.1830 H   0  0  0  0  0  0  0  0  0  0  0  0
   37.4540   25.2170   34.2680 H   0  0  0  0  0  0  0  0  0  0  0  0
   35.7930   25.9350   32.7160 H   0  0  0  0  0  0  0  0  0  0  0  0
   35.9190   25.8730   30.2740 O   0  0  0  0  0  0  0  0  0  0  0  0
   35.1830   26.0350   30.9160 H   0  0  0  0  0  0  0  0  0  0  0  0
   35.5220   23.4910   31.5370 S   0  0  0  0  0  0  0  0  0  0  0  0
   35.5030   19.9060   33.2210 C   0  0  0  0  0  0  0  0  0  0  0  0
   35.8560   19.0250   32.1970 C   0  0  0  0  0  0  0  0  0  0  0  0
   36.1110   19.5630   30.9270 C   0  0  0  0  0  0  0  0  0  0  0  0
   36.0020   20.9100   30.7610 N   0  0  0  0  0  0  0  0  0  0  0  0
   35.6560   21.7250   31.7840 C   0  0  0  0  0  0  0  0  0  0  0  0
   35.4020   21.2370   33.0260 N   0  0  0  0  0  0  0  0  0  0  0  0
   35.3190   19.4330   34.1740 H   0  0  0  0  0  0  0  0  0  0  0  0
   35.9420   17.9570   32.3290 H   0  0  0  0  0  0  0  0  0  0  0  0
   36.3890   18.9750   30.0810 H   0  0  0  0  0  0  0  0  0  0  0  0
   37.1990   27.5160   32.5930 O   0  0  0  0  0  0  0  0  0  0  0  0
   36.8950   28.5210   35.3330 Cl  0  0  0  0  0  0  0  0  0  0  0  0
   36.1520   29.1210   33.8700 C   0  0  0  0  0  0  0  0  0  0  0  0
   36.3890   28.5680   32.6320 C   0  0  0  0  0  0  0  0  0  0  0  0
   35.7720   29.1470   31.5210 C   0  0  0  0  0  0  0  0  0  0  0  0
   34.9490   30.2440   31.6720 C   0  0  0  0  0  0  0  0  0  0  0  0
   34.7050   30.8060   32.9140 C   0  0  0  0  0  0  0  0  0  0  0  0
   35.3270   30.2220   34.0300 C   0  0  0  0  0  0  0  0  0  0  0  0
   35.9080   28.7820   30.5160 H   0  0  0  0  0  0  0  0  0  0  0  0
   34.4860   30.6690   30.7940 H   0  0  0  0  0  0  0  0  0  0  0  0
   34.0580   31.6440   32.9170 H   0  0  0  0  0  0  0  0  0  0  0  0
   34.9890   30.9030   35.2670 C   0  0  0  0  0  0  0  0  0  0  0  0
   35.7150   31.6490   36.1620 C   0  0  0  0  0  0  0  0  0  0  0  0
   36.7540   31.8890   36.1100 H   0  0  0  0  0  0  0  0  0  0  0  0
   35.0170   32.1060   37.1950 N   0  0  0  0  0  0  0  0  0  0  0  0
   35.2940   32.6860   38.0130 H   0  0  0  0  0  0  0  0  0  0  0  0
   33.7790   31.6400   36.9710 C   0  0  0  0  0  0  0  0  0  0  0  0
   32.8570   31.7430   37.5270 H   0  0  0  0  0  0  0  0  0  0  0  0
   33.7820   30.9350   35.8320 N   0  0  0  0  0  0  0  0  0  0  0  0
  1  6  1  6  0  0  0
  1  2  1  0  0  0  0
  1  5  1  0  0  0  0
  2  7  1  6  0  0  0
  2 13  1  0  0  0  0
  2  3  1  0  0  0  0
  3  4  1  0  0  0  0
  4  9  1  0  0  0  0
  5 23  1  0  0  0  0
  5 10  1  1  0  0  0
  5  4  1  0  0  0  0
  8  4  1  0  0  0  0
 11 12  1  0  0  0  0
 11  1  1  0  0  0  0
 13 18  1  0  0  0  0
 14 20  1  0  0  0  0
 15 21  1  0  0  0  0
 15 14  2  0  0  0  0
 16 15  1  0  0  0  0
 17 16  2  0  0  0  0
 17 18  1  0  0  0  0
 18 19  2  0  0  0  0
 19 14  1  0  0  0  0
 22 16  1  0  0  0  0
 23 26  1  0  0  0  0
 25 30  1  0  0  0  0
 25 24  1  0  0  0  0
 26 25  2  0  0  0  0
 27 28  2  0  0  0  0
 27 26  1  0  0  0  0
 28 29  1  0  0  0  0
 29 33  1  0  0  0  0
 29 30  2  0  0  0  0
 30 34  1  0  0  0  0
 31 27  1  0  0  0  0
 32 28  1  0  0  0  0
 34 41  1  0  0  0  0
 34 35  2  0  0  0  0
 35 37  1  0  0  0  0
 36 35  1  0  0  0  0
 37 38  1  0  0  0  0
 39 37  1  0  0  0  0
 39 40  1  0  0  0  0
 41 39  2  0  0  0  0
M  END
>  <minimizedAffinity>
-5.91821289

$$$$

 OpenBabel03272506493D

 41 44  0  0  1  0  0  0  0  0999 V2000
   36.7300   28.6460   31.6670 C   0  0  2  0  0  0  0  0  0  0  0  0
   37.0700   27.2030   31.9080 C   0  0  1  0  0  0  0  0  0  0  0  0
   37.0490   26.9850   33.2520 O   0  0  0  0  0  0  0  0  0  0  0  0
   36.4610   28.0720   33.8880 C   0  0  0  0  0  0  0  0  0  0  0  0
   35.7100   28.8510   32.8350 C   0  0  1  0  0  0  0  0  0  0  0  0
   37.5470   29.3450   31.8170 H   0  0  0  0  0  0  0  0  0  0  0  0
   38.0430   26.9570   31.4200 H   0  0  0  0  0  0  0  0  0  0  0  0
   37.2550   28.5970   34.3980 H   0  0  0  0  0  0  0  0  0  0  0  0
   35.6760   27.6810   34.6030 H   0  0  0  0  0  0  0  0  0  0  0  0
   34.8020   28.3660   32.4930 H   0  0  0  0  0  0  0  0  0  0  0  0
   36.0570   28.7970   30.4380 O   0  0  0  0  0  0  0  0  0  0  0  0
   35.0940   28.6940   30.6410 H   0  0  0  0  0  0  0  0  0  0  0  0
   35.7410   26.1860   31.1500 S   0  0  0  0  0  0  0  0  0  0  0  0
   35.7630   22.2400   31.4880 C   0  0  0  0  0  0  0  0  0  0  0  0
   37.0510   21.8530   31.1110 C   0  0  0  0  0  0  0  0  0  0  0  0
   37.9540   22.8570   30.7340 C   0  0  0  0  0  0  0  0  0  0  0  0
   37.5300   24.1510   30.7560 N   0  0  0  0  0  0  0  0  0  0  0  0
   36.2710   24.4780   31.1290 C   0  0  0  0  0  0  0  0  0  0  0  0
   35.3710   23.5310   31.5000 N   0  0  0  0  0  0  0  0  0  0  0  0
   35.1150   21.4230   31.7670 H   0  0  0  0  0  0  0  0  0  0  0  0
   37.3860   20.8270   31.0940 H   0  0  0  0  0  0  0  0  0  0  0  0
   38.9590   22.6650   30.4310 H   0  0  0  0  0  0  0  0  0  0  0  0
   35.6500   30.1720   33.2060 O   0  0  0  0  0  0  0  0  0  0  0  0
   32.8070   29.5320   33.5480 Cl  0  0  0  0  0  0  0  0  0  0  0  0
   33.8530   30.4280   34.6230 C   0  0  0  0  0  0  0  0  0  0  0  0
   35.1850   30.6490   34.3550 C   0  0  0  0  0  0  0  0  0  0  0  0
   35.9420   31.3460   35.2990 C   0  0  0  0  0  0  0  0  0  0  0  0
   35.3590   31.7960   36.4660 C   0  0  0  0  0  0  0  0  0  0  0  0
   34.0200   31.5780   36.7430 C   0  0  0  0  0  0  0  0  0  0  0  0
   33.2610   30.8760   35.7920 C   0  0  0  0  0  0  0  0  0  0  0  0
   36.9910   31.5570   35.1720 H   0  0  0  0  0  0  0  0  0  0  0  0
   35.9710   32.3340   37.1760 H   0  0  0  0  0  0  0  0  0  0  0  0
   33.6760   31.9670   37.6660 H   0  0  0  0  0  0  0  0  0  0  0  0
   31.8780   30.7160   36.2020 C   0  0  0  0  0  0  0  0  0  0  0  0
   30.8550   31.6010   36.4380 C   0  0  0  0  0  0  0  0  0  0  0  0
   30.8890   32.6650   36.3560 H   0  0  0  0  0  0  0  0  0  0  0  0
   29.7110   31.0380   36.8100 N   0  0  0  0  0  0  0  0  0  0  0  0
   28.7860   31.4480   37.0500 H   0  0  0  0  0  0  0  0  0  0  0  0
   29.9930   29.7260   36.8190 C   0  0  0  0  0  0  0  0  0  0  0  0
   29.3910   28.8590   37.0540 H   0  0  0  0  0  0  0  0  0  0  0  0
   31.2730   29.5560   36.4580 N   0  0  0  0  0  0  0  0  0  0  0  0
  1  6  1  1  0  0  0
  1  2  1  0  0  0  0
  1  5  1  0  0  0  0
  2  7  1  6  0  0  0
  2  3  1  0  0  0  0
  3  4  1  0  0  0  0
  4  8  1  0  0  0  0
  4  9  1  0  0  0  0
  5 10  1  6  0  0  0
  5 23  1  0  0  0  0
  5  4  1  0  0  0  0
 11 12  1  0  0  0  0
 11  1  1  0  0  0  0
 13  2  1  0  0  0  0
 14 19  1  0  0  0  0
 14 20  1  0  0  0  0
 15 14  2  0  0  0  0
 16 17  2  0  0  0  0
 16 15  1  0  0  0  0
 17 18  1  0  0  0  0
 18 13  1  0  0  0  0
 18 19  2  0  0  0  0
 21 15  1  0  0  0  0
 22 16  1  0  0  0  0
 23 26  1  0  0  0  0
 24 25  1  0  0  0  0
 25 30  1  0  0  0  0
 26 25  2  0  0  0  0
 26 27  1  0  0  0  0
 27 28  2  0  0  0  0
 28 29  1  0  0  0  0
 28 32  1  0  0  0  0
 29 33  1  0  0  0  0
 30 34  1  0  0  0  0
 30 29  2  0  0  0  0
 31 27  1  0  0  0  0
 34 35  2  0  0  0  0
 34 41  1  0  0  0  0
 35 37  1  0  0  0  0
 36 35  1  0  0  0  0
 37 39  1  0  0  0  0
 37 38  1  0  0  0  0
 39 40  1  0  0  0  0
 41 39  2  0  0  0  0
M  END
>  <minimizedAffinity>
-5.71921778

$$$$

 OpenBabel03272506493D

 41 44  0  0  1  0  0  0  0  0999 V2000
   37.1670   28.0780   33.0890 C   0  0  2  0  0  0  0  0  0  0  0  0
   36.2360   29.0450   32.4190 C   0  0  1  0  0  0  0  0  0  0  0  0
   36.0450   28.6260   31.1370 O   0  0  0  0  0  0  0  0  0  0  0  0
   36.5430   27.3360   30.9940 C   0  0  0  0  0  0  0  0  0  0  0  0
   36.7010   26.7640   32.3810 C   0  0  1  0  0  0  0  0  0  0  0  0
   38.2210   28.2170   32.8640 H   0  0  0  0  0  0  0  0  0  0  0  0
   36.6380   30.0820   32.5070 H   0  0  0  0  0  0  0  0  0  0  0  0
   37.4420   27.4170   30.4020 H   0  0  0  0  0  0  0  0  0  0  0  0
   35.7500   26.7070   30.4870 H   0  0  0  0  0  0  0  0  0  0  0  0
   35.7630   26.5120   32.8630 H   0  0  0  0  0  0  0  0  0  0  0  0
   36.8790   27.9840   34.4660 O   0  0  0  0  0  0  0  0  0  0  0  0
   36.2070   27.2630   34.5550 H   0  0  0  0  0  0  0  0  0  0  0  0
   34.6190   28.9510   33.2890 S   0  0  0  0  0  0  0  0  0  0  0  0
   33.4380   31.2930   36.2560 C   0  0  0  0  0  0  0  0  0  0  0  0
   34.6000   31.9290   36.6980 C   0  0  0  0  0  0  0  0  0  0  0  0
   35.8040   31.6200   36.0500 C   0  0  0  0  0  0  0  0  0  0  0  0
   35.7770   30.7200   35.0280 N   0  0  0  0  0  0  0  0  0  0  0  0
   34.6260   30.1280   34.6350 C   0  0  0  0  0  0  0  0  0  0  0  0
   33.4430   30.4040   35.2410 N   0  0  0  0  0  0  0  0  0  0  0  0
   32.5440   31.5710   36.7940 H   0  0  0  0  0  0  0  0  0  0  0  0
   34.6210   32.6420   37.5080 H   0  0  0  0  0  0  0  0  0  0  0  0
   36.7440   32.0520   36.3120 H   0  0  0  0  0  0  0  0  0  0  0  0
   37.7070   25.8280   32.3730 O   0  0  0  0  0  0  0  0  0  0  0  0
   39.2200   25.7360   34.8850 Cl  0  0  0  0  0  0  0  0  0  0  0  0
   38.3540   24.4410   34.0930 C   0  0  0  0  0  0  0  0  0  0  0  0
   37.6640   24.6170   32.9150 C   0  0  0  0  0  0  0  0  0  0  0  0
   36.9740   23.5240   32.3840 C   0  0  0  0  0  0  0  0  0  0  0  0
   36.9920   22.3070   33.0320 C   0  0  0  0  0  0  0  0  0  0  0  0
   37.6830   22.1220   34.2170 C   0  0  0  0  0  0  0  0  0  0  0  0
   38.3760   23.2220   34.7490 C   0  0  0  0  0  0  0  0  0  0  0  0
   36.4040   23.5760   31.4710 H   0  0  0  0  0  0  0  0  0  0  0  0
   36.4490   21.4800   32.5960 H   0  0  0  0  0  0  0  0  0  0  0  0
   37.6310   21.1470   34.6300 H   0  0  0  0  0  0  0  0  0  0  0  0
   39.0580   22.8950   35.9890 C   0  0  0  0  0  0  0  0  0  0  0  0
   38.7130   23.0080   37.3130 C   0  0  0  0  0  0  0  0  0  0  0  0
   37.8000   23.3900   37.7130 H   0  0  0  0  0  0  0  0  0  0  0  0
   39.6430   22.5890   38.1640 N   0  0  0  0  0  0  0  0  0  0  0  0
   39.6620   22.5540   39.2030 H   0  0  0  0  0  0  0  0  0  0  0  0
   40.6420   22.1830   37.3660 C   0  0  0  0  0  0  0  0  0  0  0  0
   41.6140   21.7620   37.5830 H   0  0  0  0  0  0  0  0  0  0  0  0
   40.2790   22.3710   36.0890 N   0  0  0  0  0  0  0  0  0  0  0  0
  1  6  1  6  0  0  0
  1 11  1  0  0  0  0
  2  7  1  1  0  0  0
  2  1  1  0  0  0  0
  2 13  1  0  0  0  0
  3  2  1  0  0  0  0
  4  3  1  0  0  0  0
  4  5  1  0  0  0  0
  5 10  1  1  0  0  0
  5  1  1  0  0  0  0
  8  4  1  0  0  0  0
  9  4  1  0  0  0  0
 11 12  1  0  0  0  0
 13 18  1  0  0  0  0
 14 15  1  0  0  0  0
 14 20  1  0  0  0  0
 15 21  1  0  0  0  0
 16 22  1  0  0  0  0
 16 15  2  0  0  0  0
 17 16  1  0  0  0  0
 18 17  2  0  0  0  0
 18 19  1  0  0  0  0
 19 14  2  0  0  0  0
 23  5  1  0  0  0  0
 23 26  1  0  0  0  0
 25 30  1  0  0  0  0
 25 24  1  0  0  0  0
 26 25  2  0  0  0  0
 27 26  1  0  0  0  0
 27 28  2  0  0  0  0
 28 29  1  0  0  0  0
 29 33  1  0  0  0  0
 29 30  2  0  0  0  0
 30 34  1  0  0  0  0
 31 27  1  0  0  0  0
 32 28  1  0  0  0  0
 34 41  1  0  0  0  0
 34 35  2  0  0  0  0
 35 36  1  0  0  0  0
 35 37  1  0  0  0  0
 37 38  1  0  0  0  0
 39 40  1  0  0  0  0
 39 37  1  0  0  0  0
 41 39  2  0  0  0  0
M  END
>  <minimizedAffinity>
-5.71531105

$$$$

 OpenBabel03272506493D

 41 44  0  0  1  0  0  0  0  0999 V2000
   38.0610   24.0950   32.2830 C   0  0  2  0  0  0  0  0  0  0  0  0
   38.9550   23.1930   33.0830 C   0  0  1  0  0  0  0  0  0  0  0  0
   39.8070   23.9760   33.8030 O   0  0  0  0  0  0  0  0  0  0  0  0
   39.3710   25.2950   33.7570 C   0  0  0  0  0  0  0  0  0  0  0  0
   37.9310   25.2730   33.3030 C   0  0  1  0  0  0  0  0  0  0  0  0
   38.4990   24.4940   31.3730 H   0  0  0  0  0  0  0  0  0  0  0  0
   39.4640   22.4670   32.4060 H   0  0  0  0  0  0  0  0  0  0  0  0
   40.0650   25.8280   33.1260 H   0  0  0  0  0  0  0  0  0  0  0  0
   39.3550   25.6980   34.8150 H   0  0  0  0  0  0  0  0  0  0  0  0
   37.2390   24.9090   34.0540 H   0  0  0  0  0  0  0  0  0  0  0  0
   36.7940   23.5020   32.1030 O   0  0  0  0  0  0  0  0  0  0  0  0
   36.2470   23.7900   32.8760 H   0  0  0  0  0  0  0  0  0  0  0  0
   37.8970   22.2720   34.2690 S   0  0  0  0  0  0  0  0  0  0  0  0
   39.9890   22.5310   37.6230 C   0  0  0  0  0  0  0  0  0  0  0  0
   39.2100   23.3180   38.4740 C   0  0  0  0  0  0  0  0  0  0  0  0
   37.9820   23.7910   37.9890 C   0  0  0  0  0  0  0  0  0  0  0  0
   37.6160   23.4590   36.7210 N   0  0  0  0  0  0  0  0  0  0  0  0
   38.4040   22.6940   35.9320 C   0  0  0  0  0  0  0  0  0  0  0  0
   39.6000   22.2200   36.3690 N   0  0  0  0  0  0  0  0  0  0  0  0
   40.9230   22.1980   38.0520 H   0  0  0  0  0  0  0  0  0  0  0  0
   39.5020   23.5810   39.4790 H   0  0  0  0  0  0  0  0  0  0  0  0
   37.3160   24.3970   38.5610 H   0  0  0  0  0  0  0  0  0  0  0  0
   37.6420   26.4500   32.6570 O   0  0  0  0  0  0  0  0  0  0  0  0
   36.3390   28.0270   30.5530 Cl  0  0  0  0  0  0  0  0  0  0  0  0
   36.3590   28.3240   32.2750 C   0  0  0  0  0  0  0  0  0  0  0  0
   36.9990   27.4940   33.1680 C   0  0  0  0  0  0  0  0  0  0  0  0
   36.9220   27.8020   34.5280 C   0  0  0  0  0  0  0  0  0  0  0  0
   36.2220   28.9120   34.9530 C   0  0  0  0  0  0  0  0  0  0  0  0
   35.5760   29.7520   34.0620 C   0  0  0  0  0  0  0  0  0  0  0  0
   35.6540   29.4400   32.6940 C   0  0  0  0  0  0  0  0  0  0  0  0
   37.3870   27.2030   35.2930 H   0  0  0  0  0  0  0  0  0  0  0  0
   36.1820   29.1250   36.0120 H   0  0  0  0  0  0  0  0  0  0  0  0
   35.0690   30.5750   34.4950 H   0  0  0  0  0  0  0  0  0  0  0  0
   34.9380   30.3960   31.8700 C   0  0  0  0  0  0  0  0  0  0  0  0
   35.3340   31.3130   30.9280 C   0  0  0  0  0  0  0  0  0  0  0  0
   36.3290   31.5110   30.5980 H   0  0  0  0  0  0  0  0  0  0  0  0
   34.3440   32.0170   30.3910 N   0  0  0  0  0  0  0  0  0  0  0  0
   34.3420   32.7660   29.6690 H   0  0  0  0  0  0  0  0  0  0  0  0
   33.2490   31.5420   31.0060 C   0  0  0  0  0  0  0  0  0  0  0  0
   32.2010   31.7950   30.9120 H   0  0  0  0  0  0  0  0  0  0  0  0
   33.6190   30.5890   31.8720 N   0  0  0  0  0  0  0  0  0  0  0  0
  1  6  1  6  0  0  0
  1  2  1  0  0  0  0
  1  5  1  0  0  0  0
  2  7  1  6  0  0  0
  2  3  1  0  0  0  0
  2 13  1  0  0  0  0
  4  3  1  0  0  0  0
  4  9  1  0  0  0  0
  5  4  1  0  0  0  0
  5 10  1  1  0  0  0
  8  4  1  0  0  0  0
 11  1  1  0  0  0  0
 11 12  1  0  0  0  0
 13 18  1  0  0  0  0
 14 20  1  0  0  0  0
 14 15  1  0  0  0  0
 15 21  1  0  0  0  0
 16 15  2  0  0  0  0
 16 22  1  0  0  0  0
 17 16  1  0  0  0  0
 18 19  1  0  0  0  0
 18 17  2  0  0  0  0
 19 14  2  0  0  0  0
 23 26  1  0  0  0  0
 23  5  1  0  0  0  0
 24 25  1  0  0  0  0
 25 30  2  0  0  0  0
 25 26  1  0  0  0  0
 26 27  2  0  0  0  0
 27 28  1  0  0  0  0
 27 31  1  0  0  0  0
 28 32  1  0  0  0  0
 29 33  1  0  0  0  0
 29 28  2  0  0  0  0
 30 29  1  0  0  0  0
 34 41  1  0  0  0  0
 34 30  1  0  0  0  0
 35 34  2  0  0  0  0
 36 35  1  0  0  0  0
 37 35  1  0  0  0  0
 37 39  1  0  0  0  0
 38 37  1  0  0  0  0
 39 41  2  0  0  0  0
 40 39  1  0  0  0  0
M  END
>  <minimizedAffinity>
-5.48386431

$$$$

 OpenBabel03272506493D

 41 44  0  0  1  0  0  0  0  0999 V2000
   36.4230   28.9410   33.2720 C   0  0  2  0  0  0  0  0  0  0  0  0
   35.4730   29.6270   32.3340 C   0  0  1  0  0  0  0  0  0  0  0  0
   35.6580   29.1030   31.0900 O   0  0  0  0  0  0  0  0  0  0  0  0
   36.4390   27.9570   31.1830 C   0  0  0  0  0  0  0  0  0  0  0  0
   36.4120   27.5160   32.6270 C   0  0  1  0  0  0  0  0  0  0  0  0
   37.4450   29.3060   33.2460 H   0  0  0  0  0  0  0  0  0  0  0  0
   35.6160   30.7320   32.3900 H   0  0  0  0  0  0  0  0  0  0  0  0
   37.4070   28.2090   30.7760 H   0  0  0  0  0  0  0  0  0  0  0  0
   35.9280   27.1330   30.5980 H   0  0  0  0  0  0  0  0  0  0  0  0
   35.4680   27.0830   32.9370 H   0  0  0  0  0  0  0  0  0  0  0  0
   35.8700   28.8620   34.5660 O   0  0  0  0  0  0  0  0  0  0  0  0
   35.3640   28.0120   34.5950 H   0  0  0  0  0  0  0  0  0  0  0  0
   33.7660   29.2120   32.8710 S   0  0  0  0  0  0  0  0  0  0  0  0
   30.5510   31.4350   32.2280 C   0  0  0  0  0  0  0  0  0  0  0  0
   30.8940   32.2640   31.1580 C   0  0  0  0  0  0  0  0  0  0  0  0
   32.1780   32.1310   30.6100 C   0  0  0  0  0  0  0  0  0  0  0  0
   33.0180   31.2040   31.1480 N   0  0  0  0  0  0  0  0  0  0  0  0
   32.6410   30.4230   32.1850 C   0  0  0  0  0  0  0  0  0  0  0  0
   31.4060   30.5260   32.7400 N   0  0  0  0  0  0  0  0  0  0  0  0
   29.5510   31.5850   32.6060 H   0  0  0  0  0  0  0  0  0  0  0  0
   30.2280   32.9990   30.7330 H   0  0  0  0  0  0  0  0  0  0  0  0
   32.5350   32.7160   29.7930 H   0  0  0  0  0  0  0  0  0  0  0  0
   37.5720   26.8390   32.9150 O   0  0  0  0  0  0  0  0  0  0  0  0
   38.3250   26.6010   35.7410 Cl  0  0  0  0  0  0  0  0  0  0  0  0
   38.0400   25.3240   34.5830 C   0  0  0  0  0  0  0  0  0  0  0  0
   37.6740   25.5660   33.2790 C   0  0  0  0  0  0  0  0  0  0  0  0
   37.4350   24.4710   32.4460 C   0  0  0  0  0  0  0  0  0  0  0  0
   37.5660   23.1860   32.9280 C   0  0  0  0  0  0  0  0  0  0  0  0
   37.9350   22.9330   34.2380 C   0  0  0  0  0  0  0  0  0  0  0  0
   38.1740   24.0360   35.0750 C   0  0  0  0  0  0  0  0  0  0  0  0
   37.1380   24.5720   31.4140 H   0  0  0  0  0  0  0  0  0  0  0  0
   37.3760   22.3590   32.2580 H   0  0  0  0  0  0  0  0  0  0  0  0
   38.0060   21.9090   34.5030 H   0  0  0  0  0  0  0  0  0  0  0  0
   38.5520   23.6350   36.4180 C   0  0  0  0  0  0  0  0  0  0  0  0
   39.6380   22.9730   36.9350 C   0  0  0  0  0  0  0  0  0  0  0  0
   40.4810   22.5980   36.3980 H   0  0  0  0  0  0  0  0  0  0  0  0
   39.6030   22.7960   38.2510 N   0  0  0  0  0  0  0  0  0  0  0  0
   40.2710   22.3390   38.9040 H   0  0  0  0  0  0  0  0  0  0  0  0
   38.4440   23.3650   38.6150 C   0  0  0  0  0  0  0  0  0  0  0  0
   37.9660   23.4770   39.5790 H   0  0  0  0  0  0  0  0  0  0  0  0
   37.8390   23.8530   37.5230 N   0  0  0  0  0  0  0  0  0  0  0  0
  1  6  1  6  0  0  0
  1 11  1  0  0  0  0
  2  7  1  6  0  0  0
  2 13  1  0  0  0  0
  2  1  1  0  0  0  0
  3  4  1  0  0  0  0
  3  2  1  0  0  0  0
  4  5  1  0  0  0  0
  5 23  1  0  0  0  0
  5 10  1  1  0  0  0
  5  1  1  0  0  0  0
  8  4  1  0  0  0  0
  9  4  1  0  0  0  0
 11 12  1  0  0  0  0
 14 20  1  0  0  0  0
 14 19  1  0  0  0  0
 15 14  2  0  0  0  0
 16 17  2  0  0  0  0
 16 15  1  0  0  0  0
 17 18  1  0  0  0  0
 18 19  2  0  0  0  0
 18 13  1  0  0  0  0
 21 15  1  0  0  0  0
 22 16  1  0  0  0  0
 23 26  1  0  0  0  0
 25 30  1  0  0  0  0
 25 24  1  0  0  0  0
 26 25  2  0  0  0  0
 27 28  2  0  0  0  0
 27 26  1  0  0  0  0
 28 29  1  0  0  0  0
 29 33  1  0  0  0  0
 29 30  2  0  0  0  0
 30 34  1  0  0  0  0
 31 27  1  0  0  0  0
 32 28  1  0  0  0  0
 34 35  2  0  0  0  0
 34 41  1  0  0  0  0
 35 37  1  0  0  0  0
 36 35  1  0  0  0  0
 37 39  1  0  0  0  0
 37 38  1  0  0  0  0
 39 40  1  0  0  0  0
 41 39  2  0  0  0  0
M  END
>  <minimizedAffinity>
-5.43326569

$$$$

 OpenBabel03272506493D

 41 44  0  0  1  0  0  0  0  0999 V2000
   37.8360   27.4250   30.7390 C   0  0  2  0  0  0  0  0  0  0  0  0
   36.4320   27.9480   30.6360 C   0  0  1  0  0  0  0  0  0  0  0  0
   35.6800   27.3250   31.5860 O   0  0  0  0  0  0  0  0  0  0  0  0
   36.5170   26.6540   32.4700 C   0  0  0  0  0  0  0  0  0  0  0  0
   37.9040   27.2210   32.2880 C   0  0  1  0  0  0  0  0  0  0  0  0
   38.0060   26.4600   30.2720 H   0  0  0  0  0  0  0  0  0  0  0  0
   36.0540   27.8170   29.5940 H   0  0  0  0  0  0  0  0  0  0  0  0
   36.3980   25.6000   32.2680 H   0  0  0  0  0  0  0  0  0  0  0  0
   36.2070   26.9270   33.5240 H   0  0  0  0  0  0  0  0  0  0  0  0
   38.0270   28.2210   32.6900 H   0  0  0  0  0  0  0  0  0  0  0  0
   38.7630   28.4190   30.3650 O   0  0  0  0  0  0  0  0  0  0  0  0
   38.9800   28.9140   31.1950 H   0  0  0  0  0  0  0  0  0  0  0  0
   36.4780   29.7400   31.0390 S   0  0  0  0  0  0  0  0  0  0  0  0
   34.8250   30.2680   34.6000 C   0  0  0  0  0  0  0  0  0  0  0  0
   33.4830   30.5520   34.3370 C   0  0  0  0  0  0  0  0  0  0  0  0
   33.0700   30.5830   32.9970 C   0  0  0  0  0  0  0  0  0  0  0  0
   33.9950   30.3350   32.0290 N   0  0  0  0  0  0  0  0  0  0  0  0
   35.2840   30.0640   32.3320 C   0  0  0  0  0  0  0  0  0  0  0  0
   35.7180   30.0260   33.6190 N   0  0  0  0  0  0  0  0  0  0  0  0
   35.0820   30.2580   35.6490 H   0  0  0  0  0  0  0  0  0  0  0  0
   32.7520   30.7490   35.1050 H   0  0  0  0  0  0  0  0  0  0  0  0
   32.0690   30.7900   32.6920 H   0  0  0  0  0  0  0  0  0  0  0  0
   38.8310   26.2620   32.6140 O   0  0  0  0  0  0  0  0  0  0  0  0
   39.0850   26.2910   35.5380 Cl  0  0  0  0  0  0  0  0  0  0  0  0
   38.6840   24.9450   34.4980 C   0  0  0  0  0  0  0  0  0  0  0  0
   38.5800   25.0640   33.1300 C   0  0  0  0  0  0  0  0  0  0  0  0
   38.2180   23.9330   32.3950 C   0  0  0  0  0  0  0  0  0  0  0  0
   37.9750   22.7340   33.0320 C   0  0  0  0  0  0  0  0  0  0  0  0
   38.0780   22.6060   34.4070 C   0  0  0  0  0  0  0  0  0  0  0  0
   38.4420   23.7450   35.1450 C   0  0  0  0  0  0  0  0  0  0  0  0
   38.1080   23.9400   31.3230 H   0  0  0  0  0  0  0  0  0  0  0  0
   37.6980   21.8770   32.4360 H   0  0  0  0  0  0  0  0  0  0  0  0
   37.8700   21.6410   34.7930 H   0  0  0  0  0  0  0  0  0  0  0  0
   38.5140   23.4770   36.5700 C   0  0  0  0  0  0  0  0  0  0  0  0
   39.5130   23.0190   37.3940 C   0  0  0  0  0  0  0  0  0  0  0  0
   40.5080   22.7530   37.1170 H   0  0  0  0  0  0  0  0  0  0  0  0
   39.1660   22.9050   38.6710 N   0  0  0  0  0  0  0  0  0  0  0  0
   39.7010   22.5920   39.5060 H   0  0  0  0  0  0  0  0  0  0  0  0
   37.8850   23.3050   38.6880 C   0  0  0  0  0  0  0  0  0  0  0  0
   37.1660   23.3910   39.4920 H   0  0  0  0  0  0  0  0  0  0  0  0
   37.5190   23.6370   37.4430 N   0  0  0  0  0  0  0  0  0  0  0  0
  1  6  1  6  0  0  0
  1  5  1  0  0  0  0
  2  7  1  6  0  0  0
  2  1  1  0  0  0  0
  2 13  1  0  0  0  0
  2  3  1  0  0  0  0
  3  4  1  0  0  0  0
  4  9  1  0  0  0  0
  5  4  1  0  0  0  0
  5 23  1  0  0  0  0
  5 10  1  1  0  0  0
  8  4  1  0  0  0  0
 11  1  1  0  0  0  0
 11 12  1  0  0  0  0
 13 18  1  0  0  0  0
 14 20  1  0  0  0  0
 15 14  1  0  0  0  0
 15 21  1  0  0  0  0
 16 15  2  0  0  0  0
 17 18  2  0  0  0  0
 17 16  1  0  0  0  0
 18 19  1  0  0  0  0
 19 14  2  0  0  0  0
 22 16  1  0  0  0  0
 23 26  1  0  0  0  0
 25 30  1  0  0  0  0
 25 24  1  0  0  0  0
 26 25  2  0  0  0  0
 27 28  2  0  0  0  0
 27 26  1  0  0  0  0
 28 29  1  0  0  0  0
 29 33  1  0  0  0  0
 29 30  2  0  0  0  0
 30 34  1  0  0  0  0
 31 27  1  0  0  0  0
 32 28  1  0  0  0  0
 34 35  2  0  0  0  0
 34 41  1  0  0  0  0
 35 37  1  0  0  0  0
 36 35  1  0  0  0  0
 37 39  1  0  0  0  0
 37 38  1  0  0  0  0
 39 40  1  0  0  0  0
 41 39  2  0  0  0  0
M  END
>  <minimizedAffinity>
-5.43104553

$$$$

 OpenBabel03272506493D

 41 44  0  0  1  0  0  0  0  0999 V2000
   36.0900   26.7420   30.7050 C   0  0  2  0  0  0  0  0  0  0  0  0
   37.3310   25.9230   30.9070 C   0  0  1  0  0  0  0  0  0  0  0  0
   38.3720   26.7780   31.1120 O   0  0  0  0  0  0  0  0  0  0  0  0
   37.8790   28.0590   31.3340 C   0  0  0  0  0  0  0  0  0  0  0  0
   36.4160   27.9200   31.6800 C   0  0  1  0  0  0  0  0  0  0  0  0
   35.9690   27.1620   29.7110 H   0  0  0  0  0  0  0  0  0  0  0  0
   37.4720   25.2290   30.0450 H   0  0  0  0  0  0  0  0  0  0  0  0
   38.1110   28.6360   30.4510 H   0  0  0  0  0  0  0  0  0  0  0  0
   38.3790   28.4740   32.2610 H   0  0  0  0  0  0  0  0  0  0  0  0
   36.2350   27.5140   32.6690 H   0  0  0  0  0  0  0  0  0  0  0  0
   34.9570   26.0520   31.1820 O   0  0  0  0  0  0  0  0  0  0  0  0
   34.8650   26.3060   32.1340 H   0  0  0  0  0  0  0  0  0  0  0  0
   37.1010   24.9380   32.4420 S   0  0  0  0  0  0  0  0  0  0  0  0
   37.8240   27.1790   35.6260 C   0  0  0  0  0  0  0  0  0  0  0  0
   39.1970   27.0590   35.8480 C   0  0  0  0  0  0  0  0  0  0  0  0
   39.9340   26.2480   34.9740 C   0  0  0  0  0  0  0  0  0  0  0  0
   39.2750   25.6230   33.9590 N   0  0  0  0  0  0  0  0  0  0  0  0
   37.9420   25.7700   33.7840 C   0  0  0  0  0  0  0  0  0  0  0  0
   37.1980   26.5470   34.6120 N   0  0  0  0  0  0  0  0  0  0  0  0
   37.3110   27.8160   36.3320 H   0  0  0  0  0  0  0  0  0  0  0  0
   39.7190   27.5540   36.6530 H   0  0  0  0  0  0  0  0  0  0  0  0
   40.9870   26.0920   35.0570 H   0  0  0  0  0  0  0  0  0  0  0  0
   35.7520   29.0630   31.3070 O   0  0  0  0  0  0  0  0  0  0  0  0
   34.7020   29.0630   34.0470 Cl  0  0  0  0  0  0  0  0  0  0  0  0
   35.3940   30.3950   33.1510 C   0  0  0  0  0  0  0  0  0  0  0  0
   35.8690   30.2620   31.8670 C   0  0  0  0  0  0  0  0  0  0  0  0
   36.4370   31.3820   31.2540 C   0  0  0  0  0  0  0  0  0  0  0  0
   36.5120   32.5830   31.9280 C   0  0  0  0  0  0  0  0  0  0  0  0
   36.0360   32.7250   33.2200 C   0  0  0  0  0  0  0  0  0  0  0  0
   35.4660   31.5970   33.8350 C   0  0  0  0  0  0  0  0  0  0  0  0
   36.8390   31.3640   30.2540 H   0  0  0  0  0  0  0  0  0  0  0  0
   36.9550   33.4310   31.4270 H   0  0  0  0  0  0  0  0  0  0  0  0
   36.1430   33.6900   33.6430 H   0  0  0  0  0  0  0  0  0  0  0  0
   35.0060   31.8790   35.1830 C   0  0  0  0  0  0  0  0  0  0  0  0
   35.6490   32.0250   36.3870 C   0  0  0  0  0  0  0  0  0  0  0  0
   36.6970   31.9530   36.5730 H   0  0  0  0  0  0  0  0  0  0  0  0
   34.8470   32.2820   37.4140 N   0  0  0  0  0  0  0  0  0  0  0  0
   35.0450   32.4370   38.4230 H   0  0  0  0  0  0  0  0  0  0  0  0
   33.6240   32.3060   36.8620 C   0  0  0  0  0  0  0  0  0  0  0  0
   32.6430   32.4760   37.2850 H   0  0  0  0  0  0  0  0  0  0  0  0
   33.7380   32.0670   35.5480 N   0  0  0  0  0  0  0  0  0  0  0  0
  1  6  1  6  0  0  0
  1  2  1  0  0  0  0
  1 11  1  0  0  0  0
  1  5  1  0  0  0  0
  2  7  1  6  0  0  0
  2  3  1  0  0  0  0
  2 13  1  0  0  0  0
  3  4  1  0  0  0  0
  4  5  1  0  0  0  0
  4  9  1  0  0  0  0
  5 10  1  1  0  0  0
  8  4  1  0  0  0  0
 11 12  1  0  0  0  0
 13 18  1  0  0  0  0
 14 15  1  0  0  0  0
 14 20  1  0  0  0  0
 15 21  1  0  0  0  0
 16 22  1  0  0  0  0
 16 15  2  0  0  0  0
 17 16  1  0  0  0  0
 18 17  2  0  0  0  0
 18 19  1  0  0  0  0
 19 14  2  0  0  0  0
 23  5  1  0  0  0  0
 23 26  1  0  0  0  0
 25 30  1  0  0  0  0
 25 24  1  0  0  0  0
 26 25  2  0  0  0  0
 27 26  1  0  0  0  0
 27 28  2  0  0  0  0
 28 29  1  0  0  0  0
 29 33  1  0  0  0  0
 29 30  2  0  0  0  0
 30 34  1  0  0  0  0
 31 27  1  0  0  0  0
 32 28  1  0  0  0  0
 34 41  1  0  0  0  0
 34 35  2  0  0  0  0
 35 36  1  0  0  0  0
 35 37  1  0  0  0  0
 37 38  1  0  0  0  0
 39 40  1  0  0  0  0
 39 37  1  0  0  0  0
 41 39  2  0  0  0  0
M  END
>  <minimizedAffinity>
-5.40785456

$$$$

 OpenBabel03272506493D

 41 44  0  0  1  0  0  0  0  0999 V2000
   38.7160   24.3430   32.4230 C   0  0  2  0  0  0  0  0  0  0  0  0
   39.3130   23.2320   33.2370 C   0  0  1  0  0  0  0  0  0  0  0  0
   40.2710   23.7700   34.0430 O   0  0  0  0  0  0  0  0  0  0  0  0
   40.1630   25.1560   34.0280 C   0  0  0  0  0  0  0  0  0  0  0  0
   38.7950   25.4890   33.4830 C   0  0  1  0  0  0  0  0  0  0  0  0
   39.3000   24.6510   31.5610 H   0  0  0  0  0  0  0  0  0  0  0  0
   39.6830   22.4240   32.5630 H   0  0  0  0  0  0  0  0  0  0  0  0
   41.0070   25.5250   33.4650 H   0  0  0  0  0  0  0  0  0  0  0  0
   40.1680   25.5210   35.0990 H   0  0  0  0  0  0  0  0  0  0  0  0
   37.9840   25.2810   34.1720 H   0  0  0  0  0  0  0  0  0  0  0  0
   37.3620   24.0750   32.1370 O   0  0  0  0  0  0  0  0  0  0  0  0
   36.8440   24.4630   32.8860 H   0  0  0  0  0  0  0  0  0  0  0  0
   37.9850   22.5580   34.3130 S   0  0  0  0  0  0  0  0  0  0  0  0
   37.8730   23.9520   38.0180 C   0  0  0  0  0  0  0  0  0  0  0  0
   39.0190   23.4420   38.6310 C   0  0  0  0  0  0  0  0  0  0  0  0
   39.8650   22.6280   37.8650 C   0  0  0  0  0  0  0  0  0  0  0  0
   39.5270   22.3810   36.5690 N   0  0  0  0  0  0  0  0  0  0  0  0
   38.4050   22.8980   36.0180 C   0  0  0  0  0  0  0  0  0  0  0  0
   37.5630   23.6890   36.7320 N   0  0  0  0  0  0  0  0  0  0  0  0
   37.2620   24.5710   38.6590 H   0  0  0  0  0  0  0  0  0  0  0  0
   39.2860   23.6380   39.6580 H   0  0  0  0  0  0  0  0  0  0  0  0
   40.7640   22.1910   38.2390 H   0  0  0  0  0  0  0  0  0  0  0  0
   38.8390   26.7190   32.8730 O   0  0  0  0  0  0  0  0  0  0  0  0
   37.4980   27.9870   35.1540 Cl  0  0  0  0  0  0  0  0  0  0  0  0
   37.0730   28.0740   33.4620 C   0  0  0  0  0  0  0  0  0  0  0  0
   37.7980   27.4420   32.4770 C   0  0  0  0  0  0  0  0  0  0  0  0
   37.3930   27.6070   31.1500 C   0  0  0  0  0  0  0  0  0  0  0  0
   36.2950   28.3850   30.8470 C   0  0  0  0  0  0  0  0  0  0  0  0
   35.5600   29.0240   31.8320 C   0  0  0  0  0  0  0  0  0  0  0  0
   35.9700   28.8570   33.1660 C   0  0  0  0  0  0  0  0  0  0  0  0
   37.9060   27.1530   30.3190 H   0  0  0  0  0  0  0  0  0  0  0  0
   36.0060   28.4920   29.8120 H   0  0  0  0  0  0  0  0  0  0  0  0
   34.7370   29.5950   31.4890 H   0  0  0  0  0  0  0  0  0  0  0  0
   35.1180   29.5760   34.0960 C   0  0  0  0  0  0  0  0  0  0  0  0
   33.8310   29.3890   34.5350 C   0  0  0  0  0  0  0  0  0  0  0  0
   33.1570   28.6120   34.2490 H   0  0  0  0  0  0  0  0  0  0  0  0
   33.4080   30.2950   35.4100 N   0  0  0  0  0  0  0  0  0  0  0  0
   32.4990   30.4060   35.9030 H   0  0  0  0  0  0  0  0  0  0  0  0
   34.4620   31.1130   35.5520 C   0  0  0  0  0  0  0  0  0  0  0  0
   34.6130   31.9990   36.1540 H   0  0  0  0  0  0  0  0  0  0  0  0
   35.4590   30.6730   34.7720 N   0  0  0  0  0  0  0  0  0  0  0  0
  1  6  1  6  0  0  0
  1  2  1  0  0  0  0
  1  5  1  0  0  0  0
  2  7  1  6  0  0  0
  2  3  1  0  0  0  0
  2 13  1  0  0  0  0
  4  3  1  0  0  0  0
  4  9  1  0  0  0  0
  5  4  1  0  0  0  0
  5 10  1  1  0  0  0
  8  4  1  0  0  0  0
 11  1  1  0  0  0  0
 11 12  1  0  0  0  0
 13 18  1  0  0  0  0
 14 15  1  0  0  0  0
 14 20  1  0  0  0  0
 15 21  1  0  0  0  0
 16 22  1  0  0  0  0
 16 15  2  0  0  0  0
 17 16  1  0  0  0  0
 18 17  2  0  0  0  0
 18 19  1  0  0  0  0
 19 14  2  0  0  0  0
 23  5  1  0  0  0  0
 25 24  1  0  0  0  0
 26 23  1  0  0  0  0
 26 25  2  0  0  0  0
 27 26  1  0  0  0  0
 28 27  2  0  0  0  0
 28 29  1  0  0  0  0
 29 30  2  0  0  0  0
 30 25  1  0  0  0  0
 30 34  1  0  0  0  0
 31 27  1  0  0  0  0
 32 28  1  0  0  0  0
 33 29  1  0  0  0  0
 34 35  2  0  0  0  0
 34 41  1  0  0  0  0
 35 37  1  0  0  0  0
 36 35  1  0  0  0  0
 37 39  1  0  0  0  0
 37 38  1  0  0  0  0
 39 40  1  0  0  0  0
 41 39  2  0  0  0  0
M  END
>  <minimizedAffinity>
-5.34341574

$$$$

 OpenBabel03272506493D

 41 44  0  0  1  0  0  0  0  0999 V2000
   35.8130   30.3400   34.1660 C   0  0  2  0  0  0  0  0  0  0  0  0
   34.4140   30.8040   33.8810 C   0  0  1  0  0  0  0  0  0  0  0  0
   33.9150   30.0400   32.8690 O   0  0  0  0  0  0  0  0  0  0  0  0
   34.7510   28.9500   32.6580 C   0  0  0  0  0  0  0  0  0  0  0  0
   35.6230   28.8130   33.8840 C   0  0  1  0  0  0  0  0  0  0  0  0
   36.5720   30.7090   33.4820 H   0  0  0  0  0  0  0  0  0  0  0  0
   34.4140   31.8990   33.6690 H   0  0  0  0  0  0  0  0  0  0  0  0
   35.2620   29.1280   31.7240 H   0  0  0  0  0  0  0  0  0  0  0  0
   34.1130   28.0160   32.6270 H   0  0  0  0  0  0  0  0  0  0  0  0
   35.1000   28.4380   34.7560 H   0  0  0  0  0  0  0  0  0  0  0  0
   36.1270   30.5190   35.5280 O   0  0  0  0  0  0  0  0  0  0  0  0
   35.8500   29.6840   35.9830 H   0  0  0  0  0  0  0  0  0  0  0  0
   33.4060   30.4800   35.3820 S   0  0  0  0  0  0  0  0  0  0  0  0
   34.1610   33.6730   37.6010 C   0  0  0  0  0  0  0  0  0  0  0  0
   32.9480   34.3610   37.6680 C   0  0  0  0  0  0  0  0  0  0  0  0
   31.8460   33.8140   36.9950 C   0  0  0  0  0  0  0  0  0  0  0  0
   32.0160   32.6460   36.3170 N   0  0  0  0  0  0  0  0  0  0  0  0
   33.2110   32.0150   36.2810 C   0  0  0  0  0  0  0  0  0  0  0  0
   34.2990   32.5170   36.9200 N   0  0  0  0  0  0  0  0  0  0  0  0
   34.9710   34.1430   38.1380 H   0  0  0  0  0  0  0  0  0  0  0  0
   32.8140   35.2870   38.2050 H   0  0  0  0  0  0  0  0  0  0  0  0
   30.8770   34.2620   36.9860 H   0  0  0  0  0  0  0  0  0  0  0  0
   36.8140   28.2290   33.5280 O   0  0  0  0  0  0  0  0  0  0  0  0
   38.0550   27.1000   35.9360 Cl  0  0  0  0  0  0  0  0  0  0  0  0
   37.6430   26.2860   34.4460 C   0  0  0  0  0  0  0  0  0  0  0  0
   37.0440   26.9290   33.3860 C   0  0  0  0  0  0  0  0  0  0  0  0
   36.7230   26.1760   32.2540 C   0  0  0  0  0  0  0  0  0  0  0  0
   37.0030   24.8260   32.2110 C   0  0  0  0  0  0  0  0  0  0  0  0
   37.6050   24.1730   33.2720 C   0  0  0  0  0  0  0  0  0  0  0  0
   37.9270   24.9310   34.4100 C   0  0  0  0  0  0  0  0  0  0  0  0
   36.2480   26.5980   31.3830 H   0  0  0  0  0  0  0  0  0  0  0  0
   36.7430   24.2710   31.3210 H   0  0  0  0  0  0  0  0  0  0  0  0
   37.7750   23.1360   33.1340 H   0  0  0  0  0  0  0  0  0  0  0  0
   38.5520   24.1290   35.4470 C   0  0  0  0  0  0  0  0  0  0  0  0
   38.0620   23.4200   36.5150 C   0  0  0  0  0  0  0  0  0  0  0  0
   37.0400   23.3150   36.8070 H   0  0  0  0  0  0  0  0  0  0  0  0
   38.9880   22.8090   37.2450 N   0  0  0  0  0  0  0  0  0  0  0  0
   38.9150   22.2130   38.0940 H   0  0  0  0  0  0  0  0  0  0  0  0
   40.1370   23.1320   36.6310 C   0  0  0  0  0  0  0  0  0  0  0  0
   41.1660   22.8770   36.8460 H   0  0  0  0  0  0  0  0  0  0  0  0
   39.8600   23.9090   35.5750 N   0  0  0  0  0  0  0  0  0  0  0  0
  1  6  1  6  0  0  0
  1 11  1  0  0  0  0
  2  7  1  6  0  0  0
  2  1  1  0  0  0  0
  2 13  1  0  0  0  0
  3  2  1  0  0  0  0
  4  3  1  0  0  0  0
  4  5  1  0  0  0  0
  5  1  1  0  0  0  0
  5 10  1  1  0  0  0
  8  4  1  0  0  0  0
  9  4  1  0  0  0  0
 11 12  1  0  0  0  0
 13 18  1  0  0  0  0
 14 15  1  0  0  0  0
 14 20  1  0  0  0  0
 15 21  1  0  0  0  0
 16 15  2  0  0  0  0
 17 16  1  0  0  0  0
 18 17  2  0  0  0  0
 18 19  1  0  0  0  0
 19 14  2  0  0  0  0
 22 16  1  0  0  0  0
 23  5  1  0  0  0  0
 25 24  1  0  0  0  0
 26 23  1  0  0  0  0
 26 25  2  0  0  0  0
 27 26  1  0  0  0  0
 28 27  2  0  0  0  0
 28 29  1  0  0  0  0
 29 30  2  0  0  0  0
 30 25  1  0  0  0  0
 30 34  1  0  0  0  0
 31 27  1  0  0  0  0
 32 28  1  0  0  0  0
 33 29  1  0  0  0  0
 34 41  1  0  0  0  0
 34 35  2  0  0  0  0
 35 36  1  0  0  0  0
 35 37  1  0  0  0  0
 37 38  1  0  0  0  0
 39 40  1  0  0  0  0
 39 37  1  0  0  0  0
 41 39  2  0  0  0  0
M  END
>  <minimizedAffinity>
-5.17533207

$$$$
