
 OpenBabel03272508273D

 37 40  0  0  1  0  0  0  0  0999 V2000
   33.8190   28.8640   47.2450 C   0  0  2  0  0  0  0  0  0  0  0  0
   34.5330   28.1140   48.3570 C   0  0  2  0  0  0  0  0  0  0  0  0
   33.6100   27.9370   49.3390 O   0  0  0  0  0  0  0  0  0  0  0  0
   32.3460   27.9920   48.8300 C   0  0  0  0  0  0  0  0  0  0  0  0
   32.4470   28.1860   47.3350 C   0  0  1  0  0  0  0  0  0  0  0  0
   33.7120   29.9370   47.4520 H   0  0  0  0  0  0  0  0  0  0  0  0
   34.8420   27.1380   47.9600 H   0  0  0  0  0  0  0  0  0  0  0  0
   31.8340   28.8950   49.2520 H   0  0  0  0  0  0  0  0  0  0  0  0
   31.7090   27.1260   49.1020 H   0  0  0  0  0  0  0  0  0  0  0  0
   32.4800   27.1790   46.8730 H   0  0  0  0  0  0  0  0  0  0  0  0
   35.5760   30.4000   48.9730 C   0  0  1  0  0  0  0  0  0  0  0  0
   35.6740   28.9690   48.8060 C   0  0  1  0  0  0  0  0  0  0  0  0
   35.7610   29.4950   50.2010 C   0  0  0  0  0  0  0  0  0  0  0  0
   34.6610   31.0070   49.0960 H   0  0  0  0  0  0  0  0  0  0  0  0
   36.6600   28.5960   48.4010 H   0  0  0  0  0  0  0  0  0  0  0  0
   34.9200   29.3460   50.8900 H   0  0  0  0  0  0  0  0  0  0  0  0
   36.7510   29.5120   50.7220 H   0  0  0  0  0  0  0  0  0  0  0  0
   36.7800   31.3030   48.7540 C   0  0  0  0  0  0  0  0  0  0  0  0
   37.0430   32.2760   49.7180 C   0  0  0  0  0  0  0  0  0  0  0  0
   38.1350   33.0830   49.4590 C   0  0  0  0  0  0  0  0  0  0  0  0
   38.8850   32.9180   48.3310 N   0  0  0  0  0  0  0  0  0  0  0  0
   38.5950   31.9560   47.4130 C   0  0  0  0  0  0  0  0  0  0  0  0
   37.5290   31.1440   47.6330 N   0  0  0  0  0  0  0  0  0  0  0  0
   36.4270   32.3720   50.5910 H   0  0  0  0  0  0  0  0  0  0  0  0
   38.4090   33.8690   50.1670 H   0  0  0  0  0  0  0  0  0  0  0  0
   39.2150   31.8600   46.5330 H   0  0  0  0  0  0  0  0  0  0  0  0
   34.3880   28.6960   45.9980 O   0  0  0  0  0  0  0  0  0  0  0  0
   35.3690   28.6680   46.1440 H   0  0  0  0  0  0  0  0  0  0  0  0
   31.4560   28.9500   46.7890 O   0  0  0  0  0  0  0  0  0  0  0  0
   30.1340   28.5320   46.7370 C   0  0  0  0  0  0  0  0  0  0  0  0
   29.0960   29.4390   46.7980 C   0  0  0  0  0  0  0  0  0  0  0  0
   29.0770   30.5280   46.8890 H   0  0  0  0  0  0  0  0  0  0  0  0
   27.9010   28.8090   46.7300 N   0  0  0  0  0  0  0  0  0  0  0  0
   26.9140   29.1260   46.7430 H   0  0  0  0  0  0  0  0  0  0  0  0
   28.1940   27.4800   46.6220 C   0  0  0  0  0  0  0  0  0  0  0  0
   27.5130   26.6480   46.5430 H   0  0  0  0  0  0  0  0  0  0  0  0
   29.5160   27.3240   46.6270 N   0  0  0  0  0  0  0  0  0  0  0  0
  1  5  1  0  0  0  0
  1  6  1  1  0  0  0
  1  2  1  0  0  0  0
  2  7  1  6  0  0  0
  2 12  1  0  0  0  0
  2  3  1  0  0  0  0
  4  9  1  0  0  0  0
  4  8  1  0  0  0  0
  4  3  1  0  0  0  0
  5 10  1  6  0  0  0
  5  4  1  0  0  0  0
 11 14  1  6  0  0  0
 11 13  1  0  0  0  0
 12 15  1  6  0  0  0
 12 11  1  0  0  0  0
 12 13  1  0  0  0  0
 13 17  1  0  0  0  0
 13 16  1  0  0  0  0
 18 11  1  0  0  0  0
 18 19  1  0  0  0  0
 19 24  1  0  0  0  0
 20 19  2  0  0  0  0
 20 25  1  0  0  0  0
 21 20  1  0  0  0  0
 22 23  1  0  0  0  0
 22 21  2  0  0  0  0
 23 18  2  0  0  0  0
 26 22  1  0  0  0  0
 27 28  1  0  0  0  0
 27  1  1  0  0  0  0
 29  5  1  0  0  0  0
 30 29  1  0  0  0  0
 30 31  2  0  0  0  0
 31 32  1  0  0  0  0
 33 34  1  0  0  0  0
 33 31  1  0  0  0  0
 35 37  2  0  0  0  0
 35 33  1  0  0  0  0
 36 35  1  0  0  0  0
 37 30  1  0  0  0  0
M  END
>  <minimizedAffinity>
-5.12322998

>  <minimizedRMSD>
0.947550833

$$$$
