
 OpenBabel03272503473D

 23 24  0  0  0  0  0  0  0  0999 V2000
   39.7370   27.1370   34.1120 O   0  0  0  0  0  0  0  0  0  0  0  0
   38.4300   26.9520   34.8400 P   0  0  2  0  0  0  0  0  0  0  0  0
   38.6530   27.6230   36.3840 O   0  0  0  0  0  0  0  0  0  0  0  0
   37.7990   27.8600   36.7790 H   0  0  0  0  0  0  0  0  0  0  0  0
   38.0100   25.2950   35.0060 O   0  0  0  0  0  0  0  0  0  0  0  0
   38.4620   24.5280   36.0580 C   0  0  0  0  0  0  0  0  0  0  0  0
   39.5080   23.5850   36.0000 C   0  0  0  0  0  0  0  0  0  0  0  0
   39.8400   22.8960   37.1530 C   0  0  0  0  0  0  0  0  0  0  0  0
   39.1490   23.1520   38.2930 N   0  0  0  0  0  0  0  0  0  0  0  0
   38.1410   24.0670   38.3300 C   0  0  0  0  0  0  0  0  0  0  0  0
   37.8060   24.7510   37.2040 N   0  0  0  0  0  0  0  0  0  0  0  0
   39.9760   23.4730   35.0470 H   0  0  0  0  0  0  0  0  0  0  0  0
   40.6430   22.1750   37.1000 H   0  0  0  0  0  0  0  0  0  0  0  0
   37.6010   24.2510   39.2680 H   0  0  0  0  0  0  0  0  0  0  0  0
   37.1330   27.6900   34.0480 O   0  0  0  0  0  0  0  0  0  0  0  0
   36.8590   27.3870   32.7200 C   0  0  0  0  0  0  0  0  0  0  0  0
   36.4990   26.3170   31.9250 C   0  0  0  0  0  0  0  0  0  0  0  0
   36.3780   25.3900   32.4470 H   0  0  0  0  0  0  0  0  0  0  0  0
   36.3960   26.7510   30.6560 N   0  0  0  0  0  0  0  0  0  0  0  0
   36.1310   26.0820   29.8960 H   0  0  0  0  0  0  0  0  0  0  0  0
   36.6830   28.0780   30.6310 C   0  0  0  0  0  0  0  0  0  0  0  0
   36.6630   28.6530   29.7020 H   0  0  0  0  0  0  0  0  0  0  0  0
   36.9700   28.4760   31.9050 N   0  0  0  0  0  0  0  0  0  0  0  0
  2  1  2  6  0  0  0
  2  5  1  0  0  0  0
  2  3  1  0  0  0  0
  3  4  1  0  0  0  0
  5  6  1  0  0  0  0
  6 11  1  0  0  0  0
  7  6  2  0  0  0  0
  7  8  1  0  0  0  0
  8  9  2  0  0  0  0
  9 10  1  0  0  0  0
 10 14  1  0  0  0  0
 11 10  2  0  0  0  0
 12  7  1  0  0  0  0
 13  8  1  0  0  0  0
 15  2  1  0  0  0  0
 16 15  1  0  0  0  0
 17 18  1  0  0  0  0
 17 16  2  0  0  0  0
 19 17  1  0  0  0  0
 20 19  1  0  0  0  0
 21 19  1  0  0  0  0
 21 23  2  0  0  0  0
 22 21  1  0  0  0  0
 23 16  1  0  0  0  0
M  END
>  <minimizedAffinity>
-4.56593323

$$$$

 OpenBabel03272503473D

 23 24  0  0  0  0  0  0  0  0999 V2000
   38.4640   27.0950   36.4360 O   0  0  0  0  0  0  0  0  0  0  0  0
   38.1580   25.9810   35.4690 P   0  0  2  0  0  0  0  0  0  0  0  0
   39.6260   25.6090   34.7000 O   0  0  0  0  0  0  0  0  0  0  0  0
   39.6030   24.7100   34.3390 H   0  0  0  0  0  0  0  0  0  0  0  0
   37.0090   26.4510   34.2820 O   0  0  0  0  0  0  0  0  0  0  0  0
   37.3730   26.7310   32.9820 C   0  0  0  0  0  0  0  0  0  0  0  0
   37.2700   27.9880   32.3520 C   0  0  0  0  0  0  0  0  0  0  0  0
   37.6830   28.1010   31.0360 C   0  0  0  0  0  0  0  0  0  0  0  0
   38.1680   27.0020   30.4030 N   0  0  0  0  0  0  0  0  0  0  0  0
   38.2600   25.7960   31.0290 C   0  0  0  0  0  0  0  0  0  0  0  0
   37.8590   25.6730   32.3220 N   0  0  0  0  0  0  0  0  0  0  0  0
   36.8730   28.7750   32.9530 H   0  0  0  0  0  0  0  0  0  0  0  0
   37.6000   29.0670   30.5590 H   0  0  0  0  0  0  0  0  0  0  0  0
   38.6580   24.9270   30.4890 H   0  0  0  0  0  0  0  0  0  0  0  0
   37.5180   24.6140   36.2300 O   0  0  0  0  0  0  0  0  0  0  0  0
   38.2950   23.8780   37.1150 C   0  0  0  0  0  0  0  0  0  0  0  0
   38.3120   23.4780   38.4360 C   0  0  0  0  0  0  0  0  0  0  0  0
   37.4810   23.8170   39.0190 H   0  0  0  0  0  0  0  0  0  0  0  0
   39.4190   22.7400   38.6380 N   0  0  0  0  0  0  0  0  0  0  0  0
   39.6140   22.3420   39.5860 H   0  0  0  0  0  0  0  0  0  0  0  0
   40.1030   22.6630   37.4690 C   0  0  0  0  0  0  0  0  0  0  0  0
   41.0430   22.1100   37.3880 H   0  0  0  0  0  0  0  0  0  0  0  0
   39.4130   23.3650   36.5240 N   0  0  0  0  0  0  0  0  0  0  0  0
  2 15  1  0  0  0  0
  2  1  2  1  0  0  0
  3  2  1  0  0  0  0
  4  3  1  0  0  0  0
  5  2  1  0  0  0  0
  6  5  1  0  0  0  0
  7 12  1  0  0  0  0
  7  6  1  0  0  0  0
  8  7  2  0  0  0  0
  9 10  2  0  0  0  0
  9  8  1  0  0  0  0
 10 11  1  0  0  0  0
 11  6  2  0  0  0  0
 13  8  1  0  0  0  0
 14 10  1  0  0  0  0
 15 16  1  0  0  0  0
 16 17  2  0  0  0  0
 17 19  1  0  0  0  0
 17 18  1  0  0  0  0
 19 20  1  0  0  0  0
 21 19  1  0  0  0  0
 22 21  1  0  0  0  0
 23 16  1  0  0  0  0
 23 21  2  0  0  0  0
M  END
>  <minimizedAffinity>
-4.27891636

$$$$

 OpenBabel03272503473D

 23 24  0  0  0  0  0  0  0  0999 V2000
   38.5330   27.3670   36.0610 O   0  0  0  0  0  0  0  0  0  0  0  0
   38.3640   26.0870   35.2840 P   0  0  2  0  0  0  0  0  0  0  0  0
   39.9300   25.5710   34.8810 O   0  0  0  0  0  0  0  0  0  0  0  0
   39.9380   24.6180   34.6990 H   0  0  0  0  0  0  0  0  0  0  0  0
   37.4630   26.3220   33.8390 O   0  0  0  0  0  0  0  0  0  0  0  0
   37.3130   25.3230   32.9010 C   0  0  0  0  0  0  0  0  0  0  0  0
   36.2860   25.2460   31.9390 C   0  0  0  0  0  0  0  0  0  0  0  0
   36.2800   24.1720   31.0660 C   0  0  0  0  0  0  0  0  0  0  0  0
   37.2580   23.2360   31.1690 N   0  0  0  0  0  0  0  0  0  0  0  0
   38.2420   23.3270   32.1060 C   0  0  0  0  0  0  0  0  0  0  0  0
   38.2590   24.3780   32.9690 N   0  0  0  0  0  0  0  0  0  0  0  0
   35.5760   26.0420   31.9570 H   0  0  0  0  0  0  0  0  0  0  0  0
   35.4900   24.1200   30.3310 H   0  0  0  0  0  0  0  0  0  0  0  0
   39.0180   22.5540   32.1640 H   0  0  0  0  0  0  0  0  0  0  0  0
   37.5470   24.8960   36.1600 O   0  0  0  0  0  0  0  0  0  0  0  0
   38.2330   24.1060   37.0740 C   0  0  0  0  0  0  0  0  0  0  0  0
   38.2370   23.7940   38.4190 C   0  0  0  0  0  0  0  0  0  0  0  0
   37.4900   24.2950   38.9990 H   0  0  0  0  0  0  0  0  0  0  0  0
   39.2230   22.9060   38.6430 N   0  0  0  0  0  0  0  0  0  0  0  0
   39.3890   22.5440   39.6100 H   0  0  0  0  0  0  0  0  0  0  0  0
   39.8440   22.6490   37.4640 C   0  0  0  0  0  0  0  0  0  0  0  0
   40.6840   21.9510   37.3970 H   0  0  0  0  0  0  0  0  0  0  0  0
   39.2360   23.3870   36.4900 N   0  0  0  0  0  0  0  0  0  0  0  0
  2  1  2  1  0  0  0
  2 15  1  0  0  0  0
  3  2  1  0  0  0  0
  4  3  1  0  0  0  0
  5  2  1  0  0  0  0
  6 11  1  0  0  0  0
  6  5  1  0  0  0  0
  7 12  1  0  0  0  0
  7  6  2  0  0  0  0
  8  9  2  0  0  0  0
  8  7  1  0  0  0  0
  9 10  1  0  0  0  0
 10 14  1  0  0  0  0
 10 11  2  0  0  0  0
 13  8  1  0  0  0  0
 15 16  1  0  0  0  0
 16 17  2  0  0  0  0
 17 19  1  0  0  0  0
 17 18  1  0  0  0  0
 19 20  1  0  0  0  0
 21 19  1  0  0  0  0
 22 21  1  0  0  0  0
 23 16  1  0  0  0  0
 23 21  2  0  0  0  0
M  END
>  <minimizedAffinity>
-4.27842569

$$$$

 OpenBabel03272503473D

 23 24  0  0  0  0  0  0  0  0999 V2000
   39.7580   26.8180   35.3740 O   0  0  0  0  0  0  0  0  0  0  0  0
   39.2070   25.6570   34.5880 P   0  0  2  0  0  0  0  0  0  0  0  0
   40.5510   24.7560   34.0740 O   0  0  0  0  0  0  0  0  0  0  0  0
   40.2930   23.8420   33.8760 H   0  0  0  0  0  0  0  0  0  0  0  0
   38.3190   26.1710   33.2100 O   0  0  0  0  0  0  0  0  0  0  0  0
   37.4720   27.2580   33.2500 C   0  0  0  0  0  0  0  0  0  0  0  0
   36.7420   27.6910   34.3750 C   0  0  0  0  0  0  0  0  0  0  0  0
   35.9330   28.8070   34.2470 C   0  0  0  0  0  0  0  0  0  0  0  0
   35.8730   29.4400   33.0480 N   0  0  0  0  0  0  0  0  0  0  0  0
   36.5860   29.0070   31.9710 C   0  0  0  0  0  0  0  0  0  0  0  0
   37.3850   27.9120   32.0850 N   0  0  0  0  0  0  0  0  0  0  0  0
   36.8720   27.1100   35.2610 H   0  0  0  0  0  0  0  0  0  0  0  0
   35.3760   29.1320   35.1130 H   0  0  0  0  0  0  0  0  0  0  0  0
   36.5170   29.5410   31.0150 H   0  0  0  0  0  0  0  0  0  0  0  0
   38.1540   24.6960   35.4950 O   0  0  0  0  0  0  0  0  0  0  0  0
   38.6310   23.9560   36.5700 C   0  0  0  0  0  0  0  0  0  0  0  0
   39.5530   22.9700   36.8570 C   0  0  0  0  0  0  0  0  0  0  0  0
   40.1130   22.6200   36.0150 H   0  0  0  0  0  0  0  0  0  0  0  0
   39.4910   22.7060   38.1740 N   0  0  0  0  0  0  0  0  0  0  0  0
   40.1180   21.9790   38.5910 H   0  0  0  0  0  0  0  0  0  0  0  0
   38.5470   23.5080   38.7290 C   0  0  0  0  0  0  0  0  0  0  0  0
   38.3180   23.4720   39.7980 H   0  0  0  0  0  0  0  0  0  0  0  0
   38.0110   24.2830   37.7420 N   0  0  0  0  0  0  0  0  0  0  0  0
  2  1  2  1  0  0  0
  2 15  1  0  0  0  0
  3  2  1  0  0  0  0
  4  3  1  0  0  0  0
  5  6  1  0  0  0  0
  5  2  1  0  0  0  0
  6  7  1  0  0  0  0
  7 12  1  0  0  0  0
  8  7  2  0  0  0  0
  8 13  1  0  0  0  0
  9  8  1  0  0  0  0
 10 11  1  0  0  0  0
 10  9  2  0  0  0  0
 11  6  2  0  0  0  0
 14 10  1  0  0  0  0
 15 16  1  0  0  0  0
 16 17  2  0  0  0  0
 16 23  1  0  0  0  0
 17 19  1  0  0  0  0
 18 17  1  0  0  0  0
 19 20  1  0  0  0  0
 19 21  1  0  0  0  0
 21 22  1  0  0  0  0
 23 21  2  0  0  0  0
M  END
>  <minimizedAffinity>
-4.21310616

$$$$

 OpenBabel03272503473D

 23 24  0  0  0  0  0  0  0  0999 V2000
   40.1510   24.6110   34.2420 O   0  0  0  0  0  0  0  0  0  0  0  0
   38.7330   24.1770   33.9760 P   0  0  2  0  0  0  0  0  0  0  0  0
   38.6980   23.6420   32.3650 O   0  0  0  0  0  0  0  0  0  0  0  0
   37.9510   23.0410   32.2210 H   0  0  0  0  0  0  0  0  0  0  0  0
   37.6150   25.4690   34.1610 O   0  0  0  0  0  0  0  0  0  0  0  0
   37.1820   26.2200   33.0890 C   0  0  0  0  0  0  0  0  0  0  0  0
   37.4960   27.5740   32.8530 C   0  0  0  0  0  0  0  0  0  0  0  0
   36.9790   28.1830   31.7240 C   0  0  0  0  0  0  0  0  0  0  0  0
   36.1910   27.4590   30.8880 N   0  0  0  0  0  0  0  0  0  0  0  0
   35.8990   26.1510   31.1330 C   0  0  0  0  0  0  0  0  0  0  0  0
   36.4020   25.5400   32.2390 N   0  0  0  0  0  0  0  0  0  0  0  0
   38.1250   28.0360   33.5820 H   0  0  0  0  0  0  0  0  0  0  0  0
   37.2230   29.2210   31.5500 H   0  0  0  0  0  0  0  0  0  0  0  0
   35.2590   25.5920   30.4380 H   0  0  0  0  0  0  0  0  0  0  0  0
   38.2180   22.9550   35.0230 O   0  0  0  0  0  0  0  0  0  0  0  0
   38.6810   22.9140   36.3330 C   0  0  0  0  0  0  0  0  0  0  0  0
   39.7710   22.4870   37.0630 C   0  0  0  0  0  0  0  0  0  0  0  0
   40.5460   22.0260   36.4860 H   0  0  0  0  0  0  0  0  0  0  0  0
   39.5510   22.7770   38.3580 N   0  0  0  0  0  0  0  0  0  0  0  0
   40.2690   22.5290   39.0780 H   0  0  0  0  0  0  0  0  0  0  0  0
   38.3410   23.3830   38.4620 C   0  0  0  0  0  0  0  0  0  0  0  0
   37.9450   23.7130   39.4260 H   0  0  0  0  0  0  0  0  0  0  0  0
   37.7980   23.4700   37.2130 N   0  0  0  0  0  0  0  0  0  0  0  0
  2  5  1  0  0  0  0
  2  1  2  1  0  0  0
  2 15  1  0  0  0  0
  3  2  1  0  0  0  0
  4  3  1  0  0  0  0
  6  5  1  0  0  0  0
  7  6  1  0  0  0  0
  7 12  1  0  0  0  0
  8  7  2  0  0  0  0
  9 10  2  0  0  0  0
  9  8  1  0  0  0  0
 10 11  1  0  0  0  0
 11  6  2  0  0  0  0
 13  8  1  0  0  0  0
 14 10  1  0  0  0  0
 15 16  1  0  0  0  0
 16 17  2  0  0  0  0
 16 23  1  0  0  0  0
 17 19  1  0  0  0  0
 18 17  1  0  0  0  0
 19 21  1  0  0  0  0
 19 20  1  0  0  0  0
 21 22  1  0  0  0  0
 23 21  2  0  0  0  0
M  END
>  <minimizedAffinity>
-4.14157248

$$$$

 OpenBabel03272503473D

 23 24  0  0  0  0  0  0  0  0999 V2000
   39.5840   25.7260   32.6900 O   0  0  0  0  0  0  0  0  0  0  0  0
   38.7410   25.7080   33.9390 P   0  0  2  0  0  0  0  0  0  0  0  0
   39.5760   26.6440   35.0840 O   0  0  0  0  0  0  0  0  0  0  0  0
   38.9690   26.9690   35.7670 H   0  0  0  0  0  0  0  0  0  0  0  0
   38.5350   24.1190   34.5580 O   0  0  0  0  0  0  0  0  0  0  0  0
   38.7350   23.8220   35.8900 C   0  0  0  0  0  0  0  0  0  0  0  0
   39.7420   22.9790   36.4020 C   0  0  0  0  0  0  0  0  0  0  0  0
   39.8060   22.7860   37.7710 C   0  0  0  0  0  0  0  0  0  0  0  0
   38.8990   23.4100   38.5660 N   0  0  0  0  0  0  0  0  0  0  0  0
   37.9330   24.2210   38.0520 C   0  0  0  0  0  0  0  0  0  0  0  0
   37.8610   24.4200   36.7090 N   0  0  0  0  0  0  0  0  0  0  0  0
   40.3950   22.5460   35.6770 H   0  0  0  0  0  0  0  0  0  0  0  0
   40.5800   22.1380   38.1570 H   0  0  0  0  0  0  0  0  0  0  0  0
   37.2160   24.7130   38.7210 H   0  0  0  0  0  0  0  0  0  0  0  0
   37.1870   26.3200   33.6850 O   0  0  0  0  0  0  0  0  0  0  0  0
   36.5930   26.2250   32.4320 C   0  0  0  0  0  0  0  0  0  0  0  0
   36.2480   27.0170   31.3560 C   0  0  0  0  0  0  0  0  0  0  0  0
   36.4930   28.0530   31.4630 H   0  0  0  0  0  0  0  0  0  0  0  0
   35.6730   26.2340   30.4240 N   0  0  0  0  0  0  0  0  0  0  0  0
   35.3390   26.6530   29.5260 H   0  0  0  0  0  0  0  0  0  0  0  0
   35.6480   24.9600   30.8910 C   0  0  0  0  0  0  0  0  0  0  0  0
   35.2240   24.1410   30.3030 H   0  0  0  0  0  0  0  0  0  0  0  0
   36.2150   24.9480   32.1320 N   0  0  0  0  0  0  0  0  0  0  0  0
  2  1  2  6  0  0  0
  2  5  1  0  0  0  0
  2  3  1  0  0  0  0
  3  4  1  0  0  0  0
  5  6  1  0  0  0  0
  6  7  2  0  0  0  0
  6 11  1  0  0  0  0
  7  8  1  0  0  0  0
  8 13  1  0  0  0  0
  8  9  2  0  0  0  0
 10  9  1  0  0  0  0
 10 14  1  0  0  0  0
 11 10  2  0  0  0  0
 12  7  1  0  0  0  0
 15  2  1  0  0  0  0
 16 15  1  0  0  0  0
 17 18  1  0  0  0  0
 17 16  2  0  0  0  0
 19 21  1  0  0  0  0
 19 17  1  0  0  0  0
 20 19  1  0  0  0  0
 21 23  2  0  0  0  0
 22 21  1  0  0  0  0
 23 16  1  0  0  0  0
M  END
>  <minimizedAffinity>
-4.13639402

$$$$

 OpenBabel03272503473D

 23 24  0  0  0  0  0  0  0  0999 V2000
   37.3920   24.2110   32.8420 O   0  0  0  0  0  0  0  0  0  0  0  0
   38.2040   23.4520   33.8600 P   0  0  2  0  0  0  0  0  0  0  0  0
   39.6470   23.0140   33.0800 O   0  0  0  0  0  0  0  0  0  0  0  0
   40.3470   22.8420   33.7290 H   0  0  0  0  0  0  0  0  0  0  0  0
   37.4040   22.0290   34.3950 O   0  0  0  0  0  0  0  0  0  0  0  0
   36.8780   21.1100   33.5120 C   0  0  0  0  0  0  0  0  0  0  0  0
   35.5880   20.5480   33.5810 C   0  0  0  0  0  0  0  0  0  0  0  0
   35.2130   19.6360   32.6100 C   0  0  0  0  0  0  0  0  0  0  0  0
   36.0990   19.3150   31.6330 N   0  0  0  0  0  0  0  0  0  0  0  0
   37.3430   19.8690   31.5830 C   0  0  0  0  0  0  0  0  0  0  0  0
   37.7220   20.7680   32.5300 N   0  0  0  0  0  0  0  0  0  0  0  0
   34.9830   20.8780   34.3970 H   0  0  0  0  0  0  0  0  0  0  0  0
   34.2220   19.2090   32.6700 H   0  0  0  0  0  0  0  0  0  0  0  0
   38.0360   19.5900   30.7790 H   0  0  0  0  0  0  0  0  0  0  0  0
   38.5250   24.3620   35.2470 O   0  0  0  0  0  0  0  0  0  0  0  0
   38.8550   23.7290   36.4390 C   0  0  0  0  0  0  0  0  0  0  0  0
   39.7700   22.8300   36.9490 C   0  0  0  0  0  0  0  0  0  0  0  0
   40.4850   22.4660   36.2400 H   0  0  0  0  0  0  0  0  0  0  0  0
   39.5010   22.6500   38.2550 N   0  0  0  0  0  0  0  0  0  0  0  0
   40.0900   21.9980   38.8230 H   0  0  0  0  0  0  0  0  0  0  0  0
   38.4320   23.4190   38.5830 C   0  0  0  0  0  0  0  0  0  0  0  0
   38.0280   23.4380   39.5990 H   0  0  0  0  0  0  0  0  0  0  0  0
   38.0280   24.0880   37.4640 N   0  0  0  0  0  0  0  0  0  0  0  0
  2  1  2  6  0  0  0
  2  5  1  0  0  0  0
  2 15  1  0  0  0  0
  3  4  1  0  0  0  0
  3  2  1  0  0  0  0
  6  7  1  0  0  0  0
  6  5  1  0  0  0  0
  7 12  1  0  0  0  0
  8 13  1  0  0  0  0
  8  7  2  0  0  0  0
  9  8  1  0  0  0  0
 10  9  2  0  0  0  0
 10 11  1  0  0  0  0
 11  6  2  0  0  0  0
 14 10  1  0  0  0  0
 15 16  1  0  0  0  0
 16 17  2  0  0  0  0
 16 23  1  0  0  0  0
 17 19  1  0  0  0  0
 18 17  1  0  0  0  0
 19 21  1  0  0  0  0
 19 20  1  0  0  0  0
 21 22  1  0  0  0  0
 23 21  2  0  0  0  0
M  END
>  <minimizedAffinity>
-4.10855961

$$$$

 OpenBabel03272503473D

 23 24  0  0  0  0  0  0  0  0999 V2000
   38.4030   27.4030   35.1660 O   0  0  0  0  0  0  0  0  0  0  0  0
   38.6230   25.9350   34.9020 P   0  0  2  0  0  0  0  0  0  0  0  0
   40.2770   25.6540   35.1570 O   0  0  0  0  0  0  0  0  0  0  0  0
   40.4380   24.7170   35.3490 H   0  0  0  0  0  0  0  0  0  0  0  0
   38.2230   25.5020   33.2880 O   0  0  0  0  0  0  0  0  0  0  0  0
   37.7790   26.4300   32.3710 C   0  0  0  0  0  0  0  0  0  0  0  0
   38.5900   27.3330   31.6550 C   0  0  0  0  0  0  0  0  0  0  0  0
   37.9820   28.2020   30.7660 C   0  0  0  0  0  0  0  0  0  0  0  0
   36.6330   28.1550   30.6180 N   0  0  0  0  0  0  0  0  0  0  0  0
   35.8660   27.2750   31.3190 C   0  0  0  0  0  0  0  0  0  0  0  0
   36.4510   26.4140   32.1950 N   0  0  0  0  0  0  0  0  0  0  0  0
   39.6360   27.2740   31.8570 H   0  0  0  0  0  0  0  0  0  0  0  0
   38.6100   28.8920   30.2210 H   0  0  0  0  0  0  0  0  0  0  0  0
   34.7780   27.2610   31.1770 H   0  0  0  0  0  0  0  0  0  0  0  0
   37.6860   24.9460   35.9010 O   0  0  0  0  0  0  0  0  0  0  0  0
   38.2960   24.0860   36.8060 C   0  0  0  0  0  0  0  0  0  0  0  0
   39.0780   22.9490   36.8320 C   0  0  0  0  0  0  0  0  0  0  0  0
   39.3280   22.5530   35.8690 H   0  0  0  0  0  0  0  0  0  0  0  0
   39.3230   22.6350   38.1160 N   0  0  0  0  0  0  0  0  0  0  0  0
   39.9040   21.7950   38.3470 H   0  0  0  0  0  0  0  0  0  0  0  0
   38.7110   23.5530   38.9070 C   0  0  0  0  0  0  0  0  0  0  0  0
   38.7700   23.5030   39.9980 H   0  0  0  0  0  0  0  0  0  0  0  0
   38.0740   24.4530   38.1020 N   0  0  0  0  0  0  0  0  0  0  0  0
  2  3  1  0  0  0  0
  2  1  2  1  0  0  0
  2 15  1  0  0  0  0
  3  4  1  0  0  0  0
  5  2  1  0  0  0  0
  6  5  1  0  0  0  0
  7 12  1  0  0  0  0
  7  6  2  0  0  0  0
  8  7  1  0  0  0  0
  9  8  2  0  0  0  0
  9 10  1  0  0  0  0
 10 11  2  0  0  0  0
 11  6  1  0  0  0  0
 13  8  1  0  0  0  0
 14 10  1  0  0  0  0
 15 16  1  0  0  0  0
 16 17  2  0  0  0  0
 16 23  1  0  0  0  0
 17 19  1  0  0  0  0
 18 17  1  0  0  0  0
 19 20  1  0  0  0  0
 19 21  1  0  0  0  0
 21 22  1  0  0  0  0
 23 21  2  0  0  0  0
M  END
>  <minimizedAffinity>
-4.07608318

$$$$

 OpenBabel03272503473D

 23 24  0  0  0  0  0  0  0  0999 V2000
   36.7180   26.9670   34.9530 O   0  0  0  0  0  0  0  0  0  0  0  0
   38.0330   26.3760   35.3940 P   0  0  2  0  0  0  0  0  0  0  0  0
   38.3530   27.0320   36.9270 O   0  0  0  0  0  0  0  0  0  0  0  0
   38.9670   26.4660   37.4190 H   0  0  0  0  0  0  0  0  0  0  0  0
   39.3170   26.7890   34.3310 O   0  0  0  0  0  0  0  0  0  0  0  0
   39.2800   26.4850   32.9870 C   0  0  0  0  0  0  0  0  0  0  0  0
   39.7730   25.3030   32.3970 C   0  0  0  0  0  0  0  0  0  0  0  0
   39.6560   25.1530   31.0260 C   0  0  0  0  0  0  0  0  0  0  0  0
   39.0750   26.1440   30.3030 N   0  0  0  0  0  0  0  0  0  0  0  0
   38.6040   27.2790   30.8910 C   0  0  0  0  0  0  0  0  0  0  0  0
   38.7120   27.4390   32.2380 N   0  0  0  0  0  0  0  0  0  0  0  0
   40.2080   24.5980   33.0690 H   0  0  0  0  0  0  0  0  0  0  0  0
   40.0370   24.2450   30.5810 H   0  0  0  0  0  0  0  0  0  0  0  0
   38.1390   28.0620   30.2790 H   0  0  0  0  0  0  0  0  0  0  0  0
   38.0000   24.6880   35.4600 O   0  0  0  0  0  0  0  0  0  0  0  0
   38.3890   24.0250   36.6170 C   0  0  0  0  0  0  0  0  0  0  0  0
   37.9320   23.7480   37.8900 C   0  0  0  0  0  0  0  0  0  0  0  0
   36.9670   24.1520   38.1190 H   0  0  0  0  0  0  0  0  0  0  0  0
   38.8660   23.0150   38.5230 N   0  0  0  0  0  0  0  0  0  0  0  0
   38.7040   22.7030   39.5080 H   0  0  0  0  0  0  0  0  0  0  0  0
   39.9070   22.8210   37.6740 C   0  0  0  0  0  0  0  0  0  0  0  0
   40.7900   22.2480   37.9700 H   0  0  0  0  0  0  0  0  0  0  0  0
   39.6180   23.4430   36.4940 N   0  0  0  0  0  0  0  0  0  0  0  0
  2  1  2  6  0  0  0
  2 15  1  0  0  0  0
  2  3  1  0  0  0  0
  3  4  1  0  0  0  0
  5  2  1  0  0  0  0
  6  5  1  0  0  0  0
  7  6  1  0  0  0  0
  7 12  1  0  0  0  0
  8  7  2  0  0  0  0
  9 10  2  0  0  0  0
  9  8  1  0  0  0  0
 10 11  1  0  0  0  0
 11  6  2  0  0  0  0
 13  8  1  0  0  0  0
 14 10  1  0  0  0  0
 15 16  1  0  0  0  0
 16 17  2  0  0  0  0
 17 18  1  0  0  0  0
 17 19  1  0  0  0  0
 19 20  1  0  0  0  0
 21 22  1  0  0  0  0
 21 19  1  0  0  0  0
 23 16  1  0  0  0  0
 23 21  2  0  0  0  0
M  END
>  <minimizedAffinity>
-3.99010992

$$$$
