
 OpenBabel03272510113D

 34 37  0  0  0  0  0  0  0  0999 V2000
   33.6110   28.4630   48.8230 C   0  0  0  0  0  0  0  0  0  0  0  0
   33.7220   28.8970   50.0970 C   0  0  0  0  0  0  0  0  0  0  0  0
   34.7960   29.5910   50.6070 C   0  0  0  0  0  0  0  0  0  0  0  0
   35.8580   29.8870   49.7960 C   0  0  0  0  0  0  0  0  0  0  0  0
   35.7480   29.4400   48.4790 C   0  0  0  0  0  0  0  0  0  0  0  0
   34.6780   28.7660   48.0300 N   0  0  0  0  0  0  0  0  0  0  0  0
   32.9330   28.7120   50.8110 H   0  0  0  0  0  0  0  0  0  0  0  0
   34.8720   29.9340   51.6320 H   0  0  0  0  0  0  0  0  0  0  0  0
   36.5690   29.6480   47.7870 H   0  0  0  0  0  0  0  0  0  0  0  0
   31.2320   27.6610   48.9350 C   0  0  0  0  0  0  0  0  0  0  0  0
   32.4910   27.7420   48.3000 C   0  0  0  0  0  0  0  0  0  0  0  0
   32.6040   27.0690   47.1020 C   0  0  0  0  0  0  0  0  0  0  0  0
   31.5430   26.3770   46.5910 N   0  0  0  0  0  0  0  0  0  0  0  0
   30.3680   26.3390   47.2480 C   0  0  0  0  0  0  0  0  0  0  0  0
   30.2030   26.9750   48.4140 N   0  0  0  0  0  0  0  0  0  0  0  0
   31.1120   28.1780   49.8750 H   0  0  0  0  0  0  0  0  0  0  0  0
   33.5620   27.1130   46.5910 H   0  0  0  0  0  0  0  0  0  0  0  0
   29.6560   25.7430   46.6840 H   0  0  0  0  0  0  0  0  0  0  0  0
   37.0180   30.5750   50.1470 O   0  0  0  0  0  0  0  0  0  0  0  0
   37.7910   31.2190   49.1840 C   0  0  0  0  0  0  0  0  0  0  0  0
   38.1020   32.5500   49.5010 C   0  0  0  0  0  0  0  0  0  0  0  0
   38.8670   33.0770   48.4770 C   0  0  0  0  0  0  0  0  0  0  0  0
   38.9940   32.0790   47.5910 N   0  0  0  0  0  0  0  0  0  0  0  0
   38.3740   30.9970   47.9920 N   0  0  0  0  0  0  0  0  0  0  0  0
   37.8730   33.2150   50.3500 H   0  0  0  0  0  0  0  0  0  0  0  0
   39.3300   34.0240   48.2700 H   0  0  0  0  0  0  0  0  0  0  0  0
   39.6890   32.0680   46.3390 C   0  0  0  0  0  0  0  0  0  0  0  0
   40.4820   31.2230   45.5980 C   0  0  0  0  0  0  0  0  0  0  0  0
   40.6750   30.2560   46.0490 H   0  0  0  0  0  0  0  0  0  0  0  0
   40.7990   31.8800   44.4770 N   0  0  0  0  0  0  0  0  0  0  0  0
   41.4040   31.4030   43.7750 H   0  0  0  0  0  0  0  0  0  0  0  0
   40.2400   33.1010   44.4790 C   0  0  0  0  0  0  0  0  0  0  0  0
   40.3570   33.8300   43.6620 H   0  0  0  0  0  0  0  0  0  0  0  0
   39.5530   33.2250   45.6270 N   0  0  0  0  0  0  0  0  0  0  0  0
  1  2  1  0  0  0  0
  2  3  2  0  0  0  0
  2  7  1  0  0  0  0
  3  8  1  0  0  0  0
  4 19  1  0  0  0  0
  4  3  1  0  0  0  0
  5  4  2  0  0  0  0
  6  5  1  0  0  0  0
  6  1  2  0  0  0  0
  9  5  1  0  0  0  0
 10 16  1  0  0  0  0
 11  1  1  0  0  0  0
 11 10  2  0  0  0  0
 12 11  1  0  0  0  0
 13 12  2  0  0  0  0
 13 14  1  0  0  0  0
 14 15  2  0  0  0  0
 15 10  1  0  0  0  0
 17 12  1  0  0  0  0
 18 14  1  0  0  0  0
 20 21  1  0  0  0  0
 20 19  1  0  0  0  0
 21 25  1  0  0  0  0
 22 21  2  0  0  0  0
 23 24  1  0  0  0  0
 23 22  1  0  0  0  0
 24 20  2  0  0  0  0
 26 22  1  0  0  0  0
 27 23  1  0  0  0  0
 28 29  1  0  0  0  0
 28 27  2  0  0  0  0
 30 32  1  0  0  0  0
 30 28  1  0  0  0  0
 31 30  1  0  0  0  0
 32 34  2  0  0  0  0
 33 32  1  0  0  0  0
 34 27  1  0  0  0  0
M  END
>  <minimizedAffinity>
-5.90320349

>  <minimizedRMSD>
1.66509259

$$$$
