
 OpenBabel03272510293D

 27 29  0  0  0  0  0  0  0  0999 V2000
   37.3560   31.3750   49.2260 C   0  0  0  0  0  0  0  0  0  0  0  0
   37.6710   32.6750   49.6210 C   0  0  0  0  0  0  0  0  0  0  0  0
   38.5610   33.3520   48.8020 C   0  0  0  0  0  0  0  0  0  0  0  0
   39.0690   32.7400   47.6910 N   0  0  0  0  0  0  0  0  0  0  0  0
   38.7360   31.4660   47.3370 C   0  0  0  0  0  0  0  0  0  0  0  0
   37.8580   30.7730   48.1310 N   0  0  0  0  0  0  0  0  0  0  0  0
   37.2610   33.1340   50.4970 H   0  0  0  0  0  0  0  0  0  0  0  0
   38.8800   34.3470   48.9950 H   0  0  0  0  0  0  0  0  0  0  0  0
   36.3670   30.6140   50.0690 C   0  0  0  0  0  0  0  0  0  0  0  0
   36.2690   29.1760   50.0420 C   0  0  0  0  0  0  0  0  0  0  0  0
   37.0300   29.8050   51.1870 C   0  0  0  0  0  0  0  0  0  0  0  0
   35.4660   31.2040   50.4120 H   0  0  0  0  0  0  0  0  0  0  0  0
   35.3330   28.6510   50.2210 H   0  0  0  0  0  0  0  0  0  0  0  0
   36.9100   28.6450   49.2890 H   0  0  0  0  0  0  0  0  0  0  0  0
   38.1190   29.7760   51.2300 H   0  0  0  0  0  0  0  0  0  0  0  0
   36.4660   29.7560   52.1380 H   0  0  0  0  0  0  0  0  0  0  0  0
   39.2460   30.7730   46.1590 C   0  0  0  0  0  0  0  0  0  0  0  0
   40.3100   30.4840   46.3900 H   0  0  0  0  0  0  0  0  0  0  0  0
   38.6930   29.8400   46.0270 H   0  0  0  0  0  0  0  0  0  0  0  0
   39.1950   31.6220   44.9260 C   0  0  0  0  0  0  0  0  0  0  0  0
   40.1900   32.1550   44.1360 C   0  0  0  0  0  0  0  0  0  0  0  0
   41.2410   32.0030   44.3390 H   0  0  0  0  0  0  0  0  0  0  0  0
   39.5490   32.8360   43.1570 N   0  0  0  0  0  0  0  0  0  0  0  0
   40.0590   33.3540   42.3970 H   0  0  0  0  0  0  0  0  0  0  0  0
   38.2220   32.7530   43.3000 C   0  0  0  0  0  0  0  0  0  0  0  0
   37.4640   33.1880   42.6790 H   0  0  0  0  0  0  0  0  0  0  0  0
   38.0060   31.9940   44.4050 N   0  0  0  0  0  0  0  0  0  0  0  0
  1  2  1  0  0  0  0
  1  9  1  0  0  0  0
  2  7  1  0  0  0  0
  3  8  1  0  0  0  0
  3  2  2  0  0  0  0
  4  3  1  0  0  0  0
  5  4  2  0  0  0  0
  5  6  1  0  0  0  0
  6  1  2  0  0  0  0
  9 12  1  0  0  0  0
  9 11  1  0  0  0  0
 10  9  1  0  0  0  0
 10 13  1  0  0  0  0
 10 11  1  0  0  0  0
 11 15  1  0  0  0  0
 11 16  1  0  0  0  0
 14 10  1  0  0  0  0
 17 18  1  0  0  0  0
 17  5  1  0  0  0  0
 19 17  1  0  0  0  0
 20 17  1  0  0  0  0
 21 22  1  0  0  0  0
 21 20  2  0  0  0  0
 23 25  1  0  0  0  0
 23 21  1  0  0  0  0
 24 23  1  0  0  0  0
 25 27  2  0  0  0  0
 26 25  1  0  0  0  0
 27 20  1  0  0  0  0
M  END
>  <minimizedAffinity>
-5.17742538

>  <minimizedRMSD>
1.18020689

$$$$
