
 OpenBabel03262522193D

 23 24  0  0  0  0  0  0  0  0999 V2000
   40.0050   26.1180   34.8890 O   0  0  0  0  0  0  0  0  0  0  0  0
   38.5840   26.4330   35.3470 P   0  0  1  0  0  0  0  0  0  0  0  0
   38.6680   27.7600   36.4150 O   0  0  0  0  0  0  0  0  0  0  0  0
   39.5760   28.1330   36.4370 H   0  0  0  0  0  0  0  0  0  0  0  0
   37.7190   26.9740   33.9880 O   0  0  0  0  0  0  0  0  0  0  0  0
   36.2320   26.8180   32.1350 C   0  0  0  0  0  0  0  0  0  0  0  0
   37.1320   26.2150   33.0280 C   0  0  0  0  0  0  0  0  0  0  0  0
   37.3610   24.8410   32.8530 C   0  0  0  0  0  0  0  0  0  0  0  0
   36.7200   24.1680   31.8560 N   0  0  0  0  0  0  0  0  0  0  0  0
   35.8600   24.8120   31.0250 C   0  0  0  0  0  0  0  0  0  0  0  0
   35.6130   26.1300   31.1600 N   0  0  0  0  0  0  0  0  0  0  0  0
   36.0230   27.8750   32.2300 H   0  0  0  0  0  0  0  0  0  0  0  0
   38.0550   24.3500   33.5320 H   0  0  0  0  0  0  0  0  0  0  0  0
   35.4600   24.1020   30.3070 H   0  0  0  0  0  0  0  0  0  0  0  0
   37.9500   25.0890   36.0800 O   0  0  0  0  0  0  0  0  0  0  0  0
   38.6570   24.1290   36.7910 C   0  0  0  0  0  0  0  0  0  0  0  0
   38.2120   23.8520   38.0770 C   0  0  0  0  0  0  0  0  0  0  0  0
   37.4020   24.2190   38.7040 H   0  0  0  0  0  0  0  0  0  0  0  0
   39.0450   22.8950   38.5730 N   0  0  0  0  0  0  0  0  0  0  0  0
   39.0310   22.4320   39.5050 H   0  0  0  0  0  0  0  0  0  0  0  0
   39.9820   22.5800   37.6330 C   0  0  0  0  0  0  0  0  0  0  0  0
   40.7780   21.8540   37.7360 H   0  0  0  0  0  0  0  0  0  0  0  0
   39.7280   23.3450   36.5530 N   0  0  0  0  0  0  0  0  0  0  0  0
  2  1  2  6  0  0  0
  2 15  1  0  0  0  0
  2  3  1  0  0  0  0
  3  4  1  0  0  0  0
  5  2  1  0  0  0  0
  6 12  1  0  0  0  0
  6  7  1  0  0  0  0
  7  5  1  0  0  0  0
  8  7  2  0  0  0  0
  8 13  1  0  0  0  0
  9  8  1  0  0  0  0
 10 11  1  0  0  0  0
 10  9  2  0  0  0  0
 11  6  2  0  0  0  0
 14 10  1  0  0  0  0
 15 16  1  0  0  0  0
 16 17  2  0  0  0  0
 17 19  1  0  0  0  0
 17 18  1  0  0  0  0
 19 20  1  0  0  0  0
 21 22  1  0  0  0  0
 21 19  1  0  0  0  0
 23 16  1  0  0  0  0
 23 21  2  0  0  0  0
M  END
>  <minimizedAffinity>
-4.79981899

$$$$

 OpenBabel03262522193D

 23 24  0  0  0  0  0  0  0  0999 V2000
   39.2200   26.9530   35.5680 O   0  0  0  0  0  0  0  0  0  0  0  0
   37.9930   26.1350   35.1720 P   0  0  1  0  0  0  0  0  0  0  0  0
   36.7010   27.2230   34.9400 O   0  0  0  0  0  0  0  0  0  0  0  0
   37.0140   28.1520   34.9870 H   0  0  0  0  0  0  0  0  0  0  0  0
   38.3090   25.4470   33.6500 O   0  0  0  0  0  0  0  0  0  0  0  0
   37.5560   23.2970   32.9560 C   0  0  0  0  0  0  0  0  0  0  0  0
   37.4680   24.6970   32.8940 C   0  0  0  0  0  0  0  0  0  0  0  0
   36.4920   25.2250   32.0330 C   0  0  0  0  0  0  0  0  0  0  0  0
   35.6950   24.3850   31.3130 N   0  0  0  0  0  0  0  0  0  0  0  0
   35.8330   23.0380   31.4200 C   0  0  0  0  0  0  0  0  0  0  0  0
   36.7570   22.4910   32.2350 N   0  0  0  0  0  0  0  0  0  0  0  0
   38.2920   22.8430   33.6040 H   0  0  0  0  0  0  0  0  0  0  0  0
   36.4040   26.3070   31.9660 H   0  0  0  0  0  0  0  0  0  0  0  0
   35.1090   22.5530   30.7710 H   0  0  0  0  0  0  0  0  0  0  0  0
   37.6720   25.0410   36.3730 O   0  0  0  0  0  0  0  0  0  0  0  0
   38.5470   24.0850   36.8710 C   0  0  0  0  0  0  0  0  0  0  0  0
   38.3320   23.6640   38.1770 C   0  0  0  0  0  0  0  0  0  0  0  0
   37.6100   23.9070   38.9530 H   0  0  0  0  0  0  0  0  0  0  0  0
   39.2970   22.7400   38.4440 N   0  0  0  0  0  0  0  0  0  0  0  0
   39.4640   22.1990   39.3180 H   0  0  0  0  0  0  0  0  0  0  0  0
   40.0920   22.5850   37.3470 C   0  0  0  0  0  0  0  0  0  0  0  0
   40.9420   21.9210   37.2560 H   0  0  0  0  0  0  0  0  0  0  0  0
   39.6170   23.4150   36.3980 N   0  0  0  0  0  0  0  0  0  0  0  0
  2  1  2  1  0  0  0
  2 15  1  0  0  0  0
  3  4  1  0  0  0  0
  3  2  1  0  0  0  0
  5  2  1  0  0  0  0
  6 12  1  0  0  0  0
  7  6  1  0  0  0  0
  7  5  1  0  0  0  0
  8  7  2  0  0  0  0
  9 10  2  0  0  0  0
  9  8  1  0  0  0  0
 10 11  1  0  0  0  0
 11  6  2  0  0  0  0
 13  8  1  0  0  0  0
 14 10  1  0  0  0  0
 15 16  1  0  0  0  0
 16 17  2  0  0  0  0
 17 19  1  0  0  0  0
 17 18  1  0  0  0  0
 19 20  1  0  0  0  0
 21 19  1  0  0  0  0
 22 21  1  0  0  0  0
 23 16  1  0  0  0  0
 23 21  2  0  0  0  0
M  END
>  <minimizedAffinity>
-4.46193266

$$$$

 OpenBabel03262522193D

 23 24  0  0  0  0  0  0  0  0999 V2000
   39.6130   27.0230   34.3230 O   0  0  0  0  0  0  0  0  0  0  0  0
   38.4660   26.4430   35.1450 P   0  0  1  0  0  0  0  0  0  0  0  0
   38.3500   27.3500   36.5840 O   0  0  0  0  0  0  0  0  0  0  0  0
   38.9490   28.1280   36.5550 H   0  0  0  0  0  0  0  0  0  0  0  0
   37.0270   26.7310   34.2870 O   0  0  0  0  0  0  0  0  0  0  0  0
   35.9640   28.8610   34.3000 C   0  0  0  0  0  0  0  0  0  0  0  0
   36.6760   27.8600   33.6210 C   0  0  0  0  0  0  0  0  0  0  0  0
   36.9790   28.1130   32.2730 C   0  0  0  0  0  0  0  0  0  0  0  0
   36.5790   29.2820   31.6960 N   0  0  0  0  0  0  0  0  0  0  0  0
   35.8910   30.2100   32.4110 C   0  0  0  0  0  0  0  0  0  0  0  0
   35.5820   30.0050   33.7060 N   0  0  0  0  0  0  0  0  0  0  0  0
   35.7070   28.7130   35.3400 H   0  0  0  0  0  0  0  0  0  0  0  0
   37.5300   27.3530   31.7240 H   0  0  0  0  0  0  0  0  0  0  0  0
   35.6700   31.0600   31.7720 H   0  0  0  0  0  0  0  0  0  0  0  0
   38.7820   24.8450   35.4460 O   0  0  0  0  0  0  0  0  0  0  0  0
   38.7210   24.2120   36.6800 C   0  0  0  0  0  0  0  0  0  0  0  0
   39.5700   23.1290   36.8680 C   0  0  0  0  0  0  0  0  0  0  0  0
   40.3150   22.6220   36.2580 H   0  0  0  0  0  0  0  0  0  0  0  0
   39.3380   22.6750   38.1310 N   0  0  0  0  0  0  0  0  0  0  0  0
   39.7810   21.8800   38.6350 H   0  0  0  0  0  0  0  0  0  0  0  0
   38.3760   23.4440   38.7190 C   0  0  0  0  0  0  0  0  0  0  0  0
   37.9800   23.3280   39.7190 H   0  0  0  0  0  0  0  0  0  0  0  0
   38.0130   24.3760   37.8150 N   0  0  0  0  0  0  0  0  0  0  0  0
  2  1  2  6  0  0  0
  2 15  1  0  0  0  0
  2  3  1  0  0  0  0
  4  3  1  0  0  0  0
  5  2  1  0  0  0  0
  6 12  1  0  0  0  0
  7  5  1  0  0  0  0
  7  6  2  0  0  0  0
  8  7  1  0  0  0  0
  9  8  2  0  0  0  0
  9 10  1  0  0  0  0
 10 11  2  0  0  0  0
 11  6  1  0  0  0  0
 13  8  1  0  0  0  0
 14 10  1  0  0  0  0
 15 16  1  0  0  0  0
 16 17  2  0  0  0  0
 16 23  1  0  0  0  0
 17 19  1  0  0  0  0
 18 17  1  0  0  0  0
 19 20  1  0  0  0  0
 19 21  1  0  0  0  0
 21 22  1  0  0  0  0
 23 21  2  0  0  0  0
M  END
>  <minimizedAffinity>
-4.446877

$$$$

 OpenBabel03262522193D

 23 24  0  0  0  0  0  0  0  0999 V2000
   41.0240   26.6210   34.9600 O   0  0  0  0  0  0  0  0  0  0  0  0
   39.5000   26.5810   34.8850 P   0  0  1  0  0  0  0  0  0  0  0  0
   38.8960   27.6040   36.1090 O   0  0  0  0  0  0  0  0  0  0  0  0
   39.6250   28.1020   36.5380 H   0  0  0  0  0  0  0  0  0  0  0  0
   39.0440   27.2900   33.4090 O   0  0  0  0  0  0  0  0  0  0  0  0
   37.9260   25.8910   31.8400 C   0  0  0  0  0  0  0  0  0  0  0  0
   37.9360   27.0210   32.6730 C   0  0  0  0  0  0  0  0  0  0  0  0
   36.7700   27.8040   32.6790 C   0  0  0  0  0  0  0  0  0  0  0  0
   35.7090   27.4470   31.9000 N   0  0  0  0  0  0  0  0  0  0  0  0
   35.7650   26.3390   31.1160 C   0  0  0  0  0  0  0  0  0  0  0  0
   36.8650   25.5620   31.0820 N   0  0  0  0  0  0  0  0  0  0  0  0
   38.8010   25.2570   31.8010 H   0  0  0  0  0  0  0  0  0  0  0  0
   36.7520   28.6860   33.3160 H   0  0  0  0  0  0  0  0  0  0  0  0
   34.8260   26.2340   30.5810 H   0  0  0  0  0  0  0  0  0  0  0  0
   38.9980   25.0160   35.0840 O   0  0  0  0  0  0  0  0  0  0  0  0
   38.6590   24.4060   36.2850 C   0  0  0  0  0  0  0  0  0  0  0  0
   39.0440   23.0810   36.4400 C   0  0  0  0  0  0  0  0  0  0  0  0
   39.5730   22.3570   35.8240 H   0  0  0  0  0  0  0  0  0  0  0  0
   38.6110   22.6990   37.6750 N   0  0  0  0  0  0  0  0  0  0  0  0
   38.7110   21.7790   38.1500 H   0  0  0  0  0  0  0  0  0  0  0  0
   37.9760   23.7470   38.2750 C   0  0  0  0  0  0  0  0  0  0  0  0
   37.5260   23.7490   39.2600 H   0  0  0  0  0  0  0  0  0  0  0  0
   38.0170   24.7790   37.4090 N   0  0  0  0  0  0  0  0  0  0  0  0
  2  1  2  1  0  0  0
  2 15  1  0  0  0  0
  2  3  1  0  0  0  0
  3  4  1  0  0  0  0
  5  2  1  0  0  0  0
  6  7  1  0  0  0  0
  7  8  2  0  0  0  0
  7  5  1  0  0  0  0
  8 13  1  0  0  0  0
  9  8  1  0  0  0  0
 10  9  2  0  0  0  0
 11 10  1  0  0  0  0
 11  6  2  0  0  0  0
 12  6  1  0  0  0  0
 14 10  1  0  0  0  0
 15 16  1  0  0  0  0
 16 17  2  0  0  0  0
 16 23  1  0  0  0  0
 17 19  1  0  0  0  0
 18 17  1  0  0  0  0
 19 20  1  0  0  0  0
 19 21  1  0  0  0  0
 21 22  1  0  0  0  0
 23 21  2  0  0  0  0
M  END
>  <minimizedAffinity>
-4.44451332

$$$$

 OpenBabel03262522193D

 23 24  0  0  0  0  0  0  0  0999 V2000
   39.6650   27.1840   34.4340 O   0  0  0  0  0  0  0  0  0  0  0  0
   38.5410   26.6150   35.2960 P   0  0  1  0  0  0  0  0  0  0  0  0
   38.5310   27.4770   36.7670 O   0  0  0  0  0  0  0  0  0  0  0  0
   39.1550   28.2340   36.7320 H   0  0  0  0  0  0  0  0  0  0  0  0
   37.0720   26.9810   34.5240 O   0  0  0  0  0  0  0  0  0  0  0  0
   36.4890   28.4790   32.7670 C   0  0  0  0  0  0  0  0  0  0  0  0
   36.8670   27.1980   33.2000 C   0  0  0  0  0  0  0  0  0  0  0  0
   37.0090   26.2180   32.2040 C   0  0  0  0  0  0  0  0  0  0  0  0
   36.7790   26.5390   30.8990 N   0  0  0  0  0  0  0  0  0  0  0  0
   36.4150   27.7990   30.5470 C   0  0  0  0  0  0  0  0  0  0  0  0
   36.2680   28.7680   31.4730 N   0  0  0  0  0  0  0  0  0  0  0  0
   36.3670   29.2670   33.4970 H   0  0  0  0  0  0  0  0  0  0  0  0
   37.3010   25.2170   32.5130 H   0  0  0  0  0  0  0  0  0  0  0  0
   36.2820   27.8450   29.4710 H   0  0  0  0  0  0  0  0  0  0  0  0
   38.8160   24.9980   35.5290 O   0  0  0  0  0  0  0  0  0  0  0  0
   38.7180   24.3120   36.7310 C   0  0  0  0  0  0  0  0  0  0  0  0
   39.5140   23.1820   36.8700 C   0  0  0  0  0  0  0  0  0  0  0  0
   40.2360   22.6690   36.2380 H   0  0  0  0  0  0  0  0  0  0  0  0
   39.2530   22.6800   38.1090 N   0  0  0  0  0  0  0  0  0  0  0  0
   39.6550   21.8410   38.5760 H   0  0  0  0  0  0  0  0  0  0  0  0
   38.3260   23.4660   38.7300 C   0  0  0  0  0  0  0  0  0  0  0  0
   37.9200   23.3210   39.7230 H   0  0  0  0  0  0  0  0  0  0  0  0
   38.0130   24.4550   37.8700 N   0  0  0  0  0  0  0  0  0  0  0  0
  2  1  2  6  0  0  0
  2 15  1  0  0  0  0
  2  3  1  0  0  0  0
  4  3  1  0  0  0  0
  5  2  1  0  0  0  0
  6  7  1  0  0  0  0
  6 12  1  0  0  0  0
  7  5  1  0  0  0  0
  8 13  1  0  0  0  0
  8  7  2  0  0  0  0
  9  8  1  0  0  0  0
 10  9  2  0  0  0  0
 10 11  1  0  0  0  0
 11  6  2  0  0  0  0
 14 10  1  0  0  0  0
 15 16  1  0  0  0  0
 16 17  2  0  0  0  0
 16 23  1  0  0  0  0
 17 19  1  0  0  0  0
 18 17  1  0  0  0  0
 19 20  1  0  0  0  0
 19 21  1  0  0  0  0
 21 22  1  0  0  0  0
 23 21  2  0  0  0  0
M  END
>  <minimizedAffinity>
-4.42275238

$$$$

 OpenBabel03262522193D

 23 24  0  0  0  0  0  0  0  0999 V2000
   36.8560   21.3990   34.5020 O   0  0  0  0  0  0  0  0  0  0  0  0
   37.9100   22.3190   33.8910 P   0  0  1  0  0  0  0  0  0  0  0  0
   39.2990   21.3790   33.5840 O   0  0  0  0  0  0  0  0  0  0  0  0
   39.1190   20.4270   33.7430 H   0  0  0  0  0  0  0  0  0  0  0  0
   37.3320   22.8190   32.3730 O   0  0  0  0  0  0  0  0  0  0  0  0
   35.5720   24.0870   31.3930 C   0  0  0  0  0  0  0  0  0  0  0  0
   36.8130   24.0300   32.0460 C   0  0  0  0  0  0  0  0  0  0  0  0
   37.4340   25.2590   32.3180 C   0  0  0  0  0  0  0  0  0  0  0  0
   36.8280   26.4220   31.9470 N   0  0  0  0  0  0  0  0  0  0  0  0
   35.6250   26.4080   31.3160 C   0  0  0  0  0  0  0  0  0  0  0  0
   34.9960   25.2490   31.0380 N   0  0  0  0  0  0  0  0  0  0  0  0
   35.0540   23.1670   31.1620 H   0  0  0  0  0  0  0  0  0  0  0  0
   38.3980   25.2420   32.8240 H   0  0  0  0  0  0  0  0  0  0  0  0
   35.3190   27.4290   31.1100 H   0  0  0  0  0  0  0  0  0  0  0  0
   38.2200   23.5520   34.9530 O   0  0  0  0  0  0  0  0  0  0  0  0
   38.3170   23.4440   36.3340 C   0  0  0  0  0  0  0  0  0  0  0  0
   39.4260   22.7690   36.8290 C   0  0  0  0  0  0  0  0  0  0  0  0
   40.2870   22.2760   36.3830 H   0  0  0  0  0  0  0  0  0  0  0  0
   39.3100   22.7880   38.1860 N   0  0  0  0  0  0  0  0  0  0  0  0
   39.9460   22.3860   38.9050 H   0  0  0  0  0  0  0  0  0  0  0  0
   38.1690   23.4500   38.5340 C   0  0  0  0  0  0  0  0  0  0  0  0
   37.8070   23.6260   39.5390 H   0  0  0  0  0  0  0  0  0  0  0  0
   37.5780   23.8410   37.3880 N   0  0  0  0  0  0  0  0  0  0  0  0
  2  1  2  1  0  0  0
  2 15  1  0  0  0  0
  3  4  1  0  0  0  0
  3  2  1  0  0  0  0
  5  2  1  0  0  0  0
  6  7  1  0  0  0  0
  7  8  2  0  0  0  0
  7  5  1  0  0  0  0
  8 13  1  0  0  0  0
  9  8  1  0  0  0  0
 10  9  2  0  0  0  0
 11 10  1  0  0  0  0
 11  6  2  0  0  0  0
 12  6  1  0  0  0  0
 14 10  1  0  0  0  0
 15 16  1  0  0  0  0
 16 17  2  0  0  0  0
 16 23  1  0  0  0  0
 17 19  1  0  0  0  0
 18 17  1  0  0  0  0
 19 21  1  0  0  0  0
 19 20  1  0  0  0  0
 21 22  1  0  0  0  0
 23 21  2  0  0  0  0
M  END
>  <minimizedAffinity>
-4.28580093

$$$$

 OpenBabel03262522193D

 23 24  0  0  0  0  0  0  0  0999 V2000
   40.4580   26.3330   35.1300 O   0  0  0  0  0  0  0  0  0  0  0  0
   38.9460   26.5170   35.2260 P   0  0  1  0  0  0  0  0  0  0  0  0
   38.6440   27.7090   36.4080 O   0  0  0  0  0  0  0  0  0  0  0  0
   39.4820   28.1240   36.7070 H   0  0  0  0  0  0  0  0  0  0  0  0
   38.4170   27.1720   33.7500 O   0  0  0  0  0  0  0  0  0  0  0  0
   37.9830   25.6280   31.9900 C   0  0  0  0  0  0  0  0  0  0  0  0
   38.6990   26.7220   32.5000 C   0  0  0  0  0  0  0  0  0  0  0  0
   39.6730   27.2810   31.6570 C   0  0  0  0  0  0  0  0  0  0  0  0
   39.8800   26.7540   30.4170 N   0  0  0  0  0  0  0  0  0  0  0  0
   39.1520   25.6920   29.9840 C   0  0  0  0  0  0  0  0  0  0  0  0
   38.2070   25.1280   30.7620 N   0  0  0  0  0  0  0  0  0  0  0  0
   37.2210   25.1640   32.6010 H   0  0  0  0  0  0  0  0  0  0  0  0
   40.2430   28.1300   32.0300 H   0  0  0  0  0  0  0  0  0  0  0  0
   39.4690   25.4290   28.9790 H   0  0  0  0  0  0  0  0  0  0  0  0
   38.2570   25.0640   35.6240 O   0  0  0  0  0  0  0  0  0  0  0  0
   38.4440   24.3610   36.8060 C   0  0  0  0  0  0  0  0  0  0  0  0
   39.2680   23.2440   36.7430 C   0  0  0  0  0  0  0  0  0  0  0  0
   39.8360   22.7530   35.9550 H   0  0  0  0  0  0  0  0  0  0  0  0
   39.3030   22.7220   38.0000 N   0  0  0  0  0  0  0  0  0  0  0  0
   39.8130   21.8850   38.3500 H   0  0  0  0  0  0  0  0  0  0  0  0
   38.5280   23.4830   38.8270 C   0  0  0  0  0  0  0  0  0  0  0  0
   38.3600   23.3180   39.8840 H   0  0  0  0  0  0  0  0  0  0  0  0
   38.0130   24.4770   38.0780 N   0  0  0  0  0  0  0  0  0  0  0  0
  2  1  2  6  0  0  0
  2 15  1  0  0  0  0
  2  3  1  0  0  0  0
  3  4  1  0  0  0  0
  5  2  1  0  0  0  0
  6  7  1  0  0  0  0
  6 12  1  0  0  0  0
  7  5  1  0  0  0  0
  8 13  1  0  0  0  0
  8  7  2  0  0  0  0
  9  8  1  0  0  0  0
 10  9  2  0  0  0  0
 10 11  1  0  0  0  0
 11  6  2  0  0  0  0
 14 10  1  0  0  0  0
 15 16  1  0  0  0  0
 16 23  1  0  0  0  0
 17 16  2  0  0  0  0
 17 19  1  0  0  0  0
 18 17  1  0  0  0  0
 19 20  1  0  0  0  0
 19 21  1  0  0  0  0
 21 22  1  0  0  0  0
 23 21  2  0  0  0  0
M  END
>  <minimizedAffinity>
-4.2322464

$$$$

 OpenBabel03262522193D

 23 24  0  0  0  0  0  0  0  0999 V2000
   39.5950   25.3600   33.9650 O   0  0  0  0  0  0  0  0  0  0  0  0
   38.3380   24.6180   33.5180 P   0  0  1  0  0  0  0  0  0  0  0  0
   38.7070   23.8080   32.0640 O   0  0  0  0  0  0  0  0  0  0  0  0
   39.6650   23.8740   31.8610 H   0  0  0  0  0  0  0  0  0  0  0  0
   38.0260   23.4060   34.6680 O   0  0  0  0  0  0  0  0  0  0  0  0
   37.5540   24.1280   36.8870 C   0  0  0  0  0  0  0  0  0  0  0  0
   38.3570   23.4130   35.9840 C   0  0  0  0  0  0  0  0  0  0  0  0
   39.4650   22.7430   36.5280 C   0  0  0  0  0  0  0  0  0  0  0  0
   39.7120   22.8140   37.8660 N   0  0  0  0  0  0  0  0  0  0  0  0
   38.8940   23.5250   38.6860 C   0  0  0  0  0  0  0  0  0  0  0  0
   37.8200   24.1810   38.2040 N   0  0  0  0  0  0  0  0  0  0  0  0
   36.6890   24.6600   36.5170 H   0  0  0  0  0  0  0  0  0  0  0  0
   40.1040   22.1820   35.8490 H   0  0  0  0  0  0  0  0  0  0  0  0
   39.2620   23.4530   39.7050 H   0  0  0  0  0  0  0  0  0  0  0  0
   37.1130   25.7160   33.3210 O   0  0  0  0  0  0  0  0  0  0  0  0
   36.9250   26.5520   32.2290 C   0  0  0  0  0  0  0  0  0  0  0  0
   36.1320   26.0620   31.1990 C   0  0  0  0  0  0  0  0  0  0  0  0
   35.5900   25.1360   31.0220 H   0  0  0  0  0  0  0  0  0  0  0  0
   36.0900   27.0390   30.2510 N   0  0  0  0  0  0  0  0  0  0  0  0
   35.5970   27.0440   29.3340 H   0  0  0  0  0  0  0  0  0  0  0  0
   36.8310   28.1060   30.6670 C   0  0  0  0  0  0  0  0  0  0  0  0
   36.9870   29.0320   30.1290 H   0  0  0  0  0  0  0  0  0  0  0  0
   37.3320   27.7870   31.8770 N   0  0  0  0  0  0  0  0  0  0  0  0
  2  1  2  1  0  0  0
  2  5  1  0  0  0  0
  3  2  1  0  0  0  0
  4  3  1  0  0  0  0
  5  7  1  0  0  0  0
  6 11  1  0  0  0  0
  7  8  1  0  0  0  0
  7  6  2  0  0  0  0
  8  9  2  0  0  0  0
  9 10  1  0  0  0  0
 10 14  1  0  0  0  0
 11 10  2  0  0  0  0
 12  6  1  0  0  0  0
 13  8  1  0  0  0  0
 15  2  1  0  0  0  0
 16 15  1  0  0  0  0
 17 16  2  0  0  0  0
 18 17  1  0  0  0  0
 19 21  1  0  0  0  0
 19 17  1  0  0  0  0
 20 19  1  0  0  0  0
 21 23  2  0  0  0  0
 22 21  1  0  0  0  0
 23 16  1  0  0  0  0
M  END
>  <minimizedAffinity>
-4.05796814

$$$$

 OpenBabel03262522193D

 23 24  0  0  0  0  0  0  0  0999 V2000
   37.7960   24.0420   33.6330 O   0  0  0  0  0  0  0  0  0  0  0  0
   39.1340   24.6400   34.0580 P   0  0  1  0  0  0  0  0  0  0  0  0
   40.1650   24.6140   32.7000 O   0  0  0  0  0  0  0  0  0  0  0  0
   39.6760   24.3370   31.8950 H   0  0  0  0  0  0  0  0  0  0  0  0
   38.8680   26.2800   34.4170 O   0  0  0  0  0  0  0  0  0  0  0  0
   36.9660   27.6980   34.6280 C   0  0  0  0  0  0  0  0  0  0  0  0
   37.9690   27.1160   33.8360 C   0  0  0  0  0  0  0  0  0  0  0  0
   37.9650   27.4540   32.4730 C   0  0  0  0  0  0  0  0  0  0  0  0
   37.0170   28.3050   31.9880 N   0  0  0  0  0  0  0  0  0  0  0  0
   36.0720   28.8330   32.8090 C   0  0  0  0  0  0  0  0  0  0  0  0
   36.0420   28.5340   34.1230 N   0  0  0  0  0  0  0  0  0  0  0  0
   36.9280   27.4680   35.6840 H   0  0  0  0  0  0  0  0  0  0  0  0
   38.7320   27.0170   31.8380 H   0  0  0  0  0  0  0  0  0  0  0  0
   35.4190   29.4790   32.2310 H   0  0  0  0  0  0  0  0  0  0  0  0
   39.7420   23.7480   35.3140 O   0  0  0  0  0  0  0  0  0  0  0  0
   39.1670   23.5950   36.5680 C   0  0  0  0  0  0  0  0  0  0  0  0
   39.8380   22.7710   37.4640 C   0  0  0  0  0  0  0  0  0  0  0  0
   40.7520   22.1820   37.4290 H   0  0  0  0  0  0  0  0  0  0  0  0
   39.1010   22.7720   38.6090 N   0  0  0  0  0  0  0  0  0  0  0  0
   39.2800   22.2740   39.5060 H   0  0  0  0  0  0  0  0  0  0  0  0
   38.0040   23.5670   38.4420 C   0  0  0  0  0  0  0  0  0  0  0  0
   37.2340   23.7650   39.1760 H   0  0  0  0  0  0  0  0  0  0  0  0
   38.0650   24.0590   37.1890 N   0  0  0  0  0  0  0  0  0  0  0  0
  2  1  2  6  0  0  0
  2  5  1  0  0  0  0
  2 15  1  0  0  0  0
  3  2  1  0  0  0  0
  4  3  1  0  0  0  0
  6 12  1  0  0  0  0
  7  5  1  0  0  0  0
  7  6  2  0  0  0  0
  8  7  1  0  0  0  0
  9  8  2  0  0  0  0
  9 10  1  0  0  0  0
 10 11  2  0  0  0  0
 11  6  1  0  0  0  0
 13  8  1  0  0  0  0
 14 10  1  0  0  0  0
 15 16  1  0  0  0  0
 16 23  1  0  0  0  0
 16 17  2  0  0  0  0
 17 19  1  0  0  0  0
 18 17  1  0  0  0  0
 19 20  1  0  0  0  0
 21 19  1  0  0  0  0
 21 22  1  0  0  0  0
 23 21  2  0  0  0  0
M  END
>  <minimizedAffinity>
-4.03893566

$$$$
