
 OpenBabel03272510113D

 34 37  0  0  0  0  0  0  0  0999 V2000
   33.5860   28.4230   48.9320 C   0  0  0  0  0  0  0  0  0  0  0  0
   33.8600   28.8790   50.1730 C   0  0  0  0  0  0  0  0  0  0  0  0
   35.0590   29.4280   50.5690 C   0  0  0  0  0  0  0  0  0  0  0  0
   36.0820   29.5400   49.6670 C   0  0  0  0  0  0  0  0  0  0  0  0
   35.8040   29.0690   48.3830 C   0  0  0  0  0  0  0  0  0  0  0  0
   34.6170   28.5420   48.0470 N   0  0  0  0  0  0  0  0  0  0  0  0
   33.1130   28.8330   50.9530 H   0  0  0  0  0  0  0  0  0  0  0  0
   35.2660   29.7910   51.5680 H   0  0  0  0  0  0  0  0  0  0  0  0
   36.5860   29.1330   47.6230 H   0  0  0  0  0  0  0  0  0  0  0  0
   31.1640   27.8710   49.3170 C   0  0  0  0  0  0  0  0  0  0  0  0
   32.3360   27.8540   48.5290 C   0  0  0  0  0  0  0  0  0  0  0  0
   32.2240   27.2390   47.3000 C   0  0  0  0  0  0  0  0  0  0  0  0
   31.0380   26.6920   46.9010 N   0  0  0  0  0  0  0  0  0  0  0  0
   29.9560   26.7420   47.7020 C   0  0  0  0  0  0  0  0  0  0  0  0
   30.0090   27.3270   48.9050 N   0  0  0  0  0  0  0  0  0  0  0  0
   31.2190   28.3460   50.2850 H   0  0  0  0  0  0  0  0  0  0  0  0
   33.1100   27.2100   46.6720 H   0  0  0  0  0  0  0  0  0  0  0  0
   29.1180   26.2560   47.2110 H   0  0  0  0  0  0  0  0  0  0  0  0
   37.3530   30.0660   49.8970 O   0  0  0  0  0  0  0  0  0  0  0  0
   37.9340   30.9600   49.0020 C   0  0  0  0  0  0  0  0  0  0  0  0
   38.2500   32.2040   49.5650 C   0  0  0  0  0  0  0  0  0  0  0  0
   38.8180   32.9990   48.5850 C   0  0  0  0  0  0  0  0  0  0  0  0
   38.8290   32.2330   47.4840 N   0  0  0  0  0  0  0  0  0  0  0  0
   38.3190   31.0490   47.7160 N   0  0  0  0  0  0  0  0  0  0  0  0
   38.1430   32.6470   50.5700 H   0  0  0  0  0  0  0  0  0  0  0  0
   39.2080   33.9970   48.5340 H   0  0  0  0  0  0  0  0  0  0  0  0
   39.3060   32.5490   46.1720 C   0  0  0  0  0  0  0  0  0  0  0  0
   40.4810   32.9030   45.5510 C   0  0  0  0  0  0  0  0  0  0  0  0
   41.3430   32.9820   46.2040 H   0  0  0  0  0  0  0  0  0  0  0  0
   40.1990   33.0540   44.2530 N   0  0  0  0  0  0  0  0  0  0  0  0
   40.9680   33.3250   43.6040 H   0  0  0  0  0  0  0  0  0  0  0  0
   38.8980   32.8110   44.0290 C   0  0  0  0  0  0  0  0  0  0  0  0
   38.4250   32.8720   43.0360 H   0  0  0  0  0  0  0  0  0  0  0  0
   38.3380   32.4980   45.2100 N   0  0  0  0  0  0  0  0  0  0  0  0
  1  2  1  0  0  0  0
  2  3  2  0  0  0  0
  2  7  1  0  0  0  0
  3  8  1  0  0  0  0
  4 19  1  0  0  0  0
  4  3  1  0  0  0  0
  5  4  2  0  0  0  0
  6  5  1  0  0  0  0
  6  1  2  0  0  0  0
  9  5  1  0  0  0  0
 10 16  1  0  0  0  0
 11  1  1  0  0  0  0
 11 10  2  0  0  0  0
 12 11  1  0  0  0  0
 13 12  2  0  0  0  0
 13 14  1  0  0  0  0
 14 15  2  0  0  0  0
 15 10  1  0  0  0  0
 17 12  1  0  0  0  0
 18 14  1  0  0  0  0
 20 21  1  0  0  0  0
 20 19  1  0  0  0  0
 21 25  1  0  0  0  0
 22 21  2  0  0  0  0
 23 24  1  0  0  0  0
 23 22  1  0  0  0  0
 24 20  2  0  0  0  0
 26 22  1  0  0  0  0
 27 23  1  0  0  0  0
 28 27  2  0  0  0  0
 28 29  1  0  0  0  0
 30 28  1  0  0  0  0
 31 30  1  0  0  0  0
 32 30  1  0  0  0  0
 32 34  2  0  0  0  0
 33 32  1  0  0  0  0
 34 27  1  0  0  0  0
M  END
>  <minimizedAffinity>
-5.8443594

>  <minimizedRMSD>
1.36382508

$$$$
