
 OpenBabel03272504193D

 26 27  0  0  0  0  0  0  0  0999 V2000
   37.9490   32.3070   47.4150 O   0  0  0  0  0  0  0  0  0  0  0  0
   38.6780   31.8190   48.4670 C   0  0  0  0  0  0  0  0  0  0  0  0
   39.0800   32.6930   49.0580 H   0  0  0  0  0  0  0  0  0  0  0  0
   39.5850   31.2470   48.1720 H   0  0  0  0  0  0  0  0  0  0  0  0
   37.9020   30.9060   49.3440 C   0  0  0  0  0  0  0  0  0  0  0  0
   37.0250   30.0200   48.7260 C   0  0  0  0  0  0  0  0  0  0  0  0
   36.2850   29.1520   49.5440 C   0  0  0  0  0  0  0  0  0  0  0  0
   36.4730   29.2330   50.8860 N   0  0  0  0  0  0  0  0  0  0  0  0
   37.3230   30.0950   51.4580 C   0  0  0  0  0  0  0  0  0  0  0  0
   38.0310   30.9260   50.6850 N   0  0  0  0  0  0  0  0  0  0  0  0
   36.8620   29.9400   47.6560 H   0  0  0  0  0  0  0  0  0  0  0  0
   35.5890   28.4390   49.1320 H   0  0  0  0  0  0  0  0  0  0  0  0
   37.4690   30.1570   52.5290 H   0  0  0  0  0  0  0  0  0  0  0  0
   39.8540   31.1610   46.0150 O   0  0  0  0  0  0  0  0  0  0  0  0
   38.9690   32.3780   46.0670 P   0  0  2  0  0  0  0  0  0  0  0  0
   39.9910   33.7430   46.1990 O   0  0  0  0  0  0  0  0  0  0  0  0
   39.4170   34.5280   46.0130 H   0  0  0  0  0  0  0  0  0  0  0  0
   38.0680   32.4700   44.6340 O   0  0  0  0  0  0  0  0  0  0  0  0
   37.5800   31.3050   44.0440 C   0  0  0  0  0  0  0  0  0  0  0  0
   36.5930   30.5410   44.6360 C   0  0  0  0  0  0  0  0  0  0  0  0
   36.0330   30.6480   45.5740 H   0  0  0  0  0  0  0  0  0  0  0  0
   36.3070   29.4690   43.8550 N   0  0  0  0  0  0  0  0  0  0  0  0
   35.6470   28.6640   43.9190 H   0  0  0  0  0  0  0  0  0  0  0  0
   37.1180   29.5620   42.7700 C   0  0  0  0  0  0  0  0  0  0  0  0
   37.2840   28.9670   41.8620 H   0  0  0  0  0  0  0  0  0  0  0  0
   37.8680   30.6610   42.9020 N   0  0  0  0  0  0  0  0  0  0  0  0
  1  2  1  0  0  0  0
  2  3  1  0  0  0  0
  2  5  1  0  0  0  0
  4  2  1  0  0  0  0
  5 10  1  0  0  0  0
  6  5  2  0  0  0  0
  6  7  1  0  0  0  0
  7  8  2  0  0  0  0
  8  9  1  0  0  0  0
  9 13  1  0  0  0  0
 10  9  2  0  0  0  0
 11  6  1  0  0  0  0
 12  7  1  0  0  0  0
 15 14  2  6  0  0  0
 15 16  1  0  0  0  0
 15  1  1  0  0  0  0
 17 16  1  0  0  0  0
 18 15  1  0  0  0  0
 19 18  1  0  0  0  0
 19 20  2  0  0  0  0
 20 21  1  0  0  0  0
 22 23  1  0  0  0  0
 22 20  1  0  0  0  0
 24 26  2  0  0  0  0
 24 22  1  0  0  0  0
 25 24  1  0  0  0  0
 26 19  1  0  0  0  0
M  END
>  <minimizedAffinity>
-4.49803305

>  <minimizedRMSD>
6.0156188

$$$$
