
 OpenBabel03272505213D

 27 29  0  0  0  0  0  0  0  0999 V2000
   38.4260   31.2880   48.2630 Br  0  0  0  0  0  0  0  0  0  0  0  0
   37.2280   30.7970   46.8640 C   0  0  0  0  0  0  0  0  0  0  0  0
   36.0310   30.1660   47.1530 C   0  0  0  0  0  0  0  0  0  0  0  0
   35.1930   29.8270   46.1010 C   0  0  0  0  0  0  0  0  0  0  0  0
   35.5630   30.1240   44.8070 C   0  0  0  0  0  0  0  0  0  0  0  0
   36.7630   30.7570   44.5060 C   0  0  0  0  0  0  0  0  0  0  0  0
   37.5910   31.0890   45.5610 C   0  0  0  0  0  0  0  0  0  0  0  0
   34.2780   29.3410   46.3570 H   0  0  0  0  0  0  0  0  0  0  0  0
   34.8710   29.8380   44.0320 H   0  0  0  0  0  0  0  0  0  0  0  0
   37.0320   30.9800   43.4720 H   0  0  0  0  0  0  0  0  0  0  0  0
   36.3690   29.1050   50.7720 C   0  0  0  0  0  0  0  0  0  0  0  0
   36.6750   29.3490   49.4250 C   0  0  0  0  0  0  0  0  0  0  0  0
   35.7410   29.8990   48.5640 C   0  0  0  0  0  0  0  0  0  0  0  0
   34.5210   30.1860   49.1040 N   0  0  0  0  0  0  0  0  0  0  0  0
   34.2360   29.9470   50.3990 C   0  0  0  0  0  0  0  0  0  0  0  0
   35.1390   29.4170   51.2240 N   0  0  0  0  0  0  0  0  0  0  0  0
   37.0850   28.6770   51.4540 H   0  0  0  0  0  0  0  0  0  0  0  0
   37.6520   29.1080   49.0400 H   0  0  0  0  0  0  0  0  0  0  0  0
   33.2070   30.2490   50.6220 H   0  0  0  0  0  0  0  0  0  0  0  0
   38.8640   31.7570   45.3050 C   0  0  0  0  0  0  0  0  0  0  0  0
   39.0270   33.0570   44.8820 C   0  0  0  0  0  0  0  0  0  0  0  0
   38.2840   33.8100   44.6640 H   0  0  0  0  0  0  0  0  0  0  0  0
   40.3170   33.3540   44.7440 N   0  0  0  0  0  0  0  0  0  0  0  0
   40.9050   34.1680   44.4630 H   0  0  0  0  0  0  0  0  0  0  0  0
   40.9990   32.2440   45.0780 C   0  0  0  0  0  0  0  0  0  0  0  0
   42.0240   31.8660   45.1660 H   0  0  0  0  0  0  0  0  0  0  0  0
   40.1290   31.2590   45.4240 N   0  0  0  0  0  0  0  0  0  0  0  0
  2  3  1  0  0  0  0
  2  1  1  0  0  0  0
  3 13  1  0  0  0  0
  4  8  1  0  0  0  0
  4  3  2  0  0  0  0
  5  4  1  0  0  0  0
  6  5  2  0  0  0  0
  6  7  1  0  0  0  0
  7  2  2  0  0  0  0
  9  5  1  0  0  0  0
 10  6  1  0  0  0  0
 11 16  1  0  0  0  0
 11 17  1  0  0  0  0
 12 11  2  0  0  0  0
 13 14  2  0  0  0  0
 13 12  1  0  0  0  0
 14 15  1  0  0  0  0
 15 19  1  0  0  0  0
 15 16  2  0  0  0  0
 18 12  1  0  0  0  0
 20 27  1  0  0  0  0
 20  7  1  0  0  0  0
 21 20  2  0  0  0  0
 22 21  1  0  0  0  0
 23 21  1  0  0  0  0
 23 25  1  0  0  0  0
 24 23  1  0  0  0  0
 25 26  1  0  0  0  0
 25 27  2  0  0  0  0
M  END
>  <minimizedAffinity>
-5.04908276

>  <minimizedRMSD>
3.02750158

$$$$
