
 OpenBabel03272510113D

 34 37  0  0  0  0  0  0  0  0999 V2000
   33.1650   28.3300   49.0330 C   0  0  0  0  0  0  0  0  0  0  0  0
   33.4830   28.9650   50.1820 C   0  0  0  0  0  0  0  0  0  0  0  0
   34.7330   29.4490   50.4990 C   0  0  0  0  0  0  0  0  0  0  0  0
   35.7620   29.2990   49.6100 C   0  0  0  0  0  0  0  0  0  0  0  0
   35.4370   28.6440   48.4220 C   0  0  0  0  0  0  0  0  0  0  0  0
   34.2030   28.1890   48.1600 N   0  0  0  0  0  0  0  0  0  0  0  0
   32.7360   29.1300   50.9430 H   0  0  0  0  0  0  0  0  0  0  0  0
   34.9750   29.9570   51.4240 H   0  0  0  0  0  0  0  0  0  0  0  0
   36.2230   28.4960   47.6760 H   0  0  0  0  0  0  0  0  0  0  0  0
   30.7520   27.8880   49.5790 C   0  0  0  0  0  0  0  0  0  0  0  0
   31.8630   27.8300   48.7110 C   0  0  0  0  0  0  0  0  0  0  0  0
   31.6350   27.2440   47.4830 C   0  0  0  0  0  0  0  0  0  0  0  0
   30.3980   26.7620   47.1610 N   0  0  0  0  0  0  0  0  0  0  0  0
   29.3800   26.8490   48.0380 C   0  0  0  0  0  0  0  0  0  0  0  0
   29.5450   27.4070   49.2430 N   0  0  0  0  0  0  0  0  0  0  0  0
   30.8980   28.3410   50.5490 H   0  0  0  0  0  0  0  0  0  0  0  0
   32.4730   27.1850   46.7930 H   0  0  0  0  0  0  0  0  0  0  0  0
   28.4860   26.4130   47.6000 H   0  0  0  0  0  0  0  0  0  0  0  0
   37.0800   29.7250   49.7700 O   0  0  0  0  0  0  0  0  0  0  0  0
   37.6410   30.6640   48.9080 C   0  0  0  0  0  0  0  0  0  0  0  0
   38.1580   31.7950   49.5570 C   0  0  0  0  0  0  0  0  0  0  0  0
   38.6840   32.6460   48.6020 C   0  0  0  0  0  0  0  0  0  0  0  0
   38.4770   32.0250   47.4330 N   0  0  0  0  0  0  0  0  0  0  0  0
   37.8730   30.8730   47.6000 N   0  0  0  0  0  0  0  0  0  0  0  0
   38.2230   32.1180   50.6090 H   0  0  0  0  0  0  0  0  0  0  0  0
   39.1720   33.6030   48.6090 H   0  0  0  0  0  0  0  0  0  0  0  0
   38.8230   32.4530   46.1110 C   0  0  0  0  0  0  0  0  0  0  0  0
   38.3000   32.4190   44.8390 C   0  0  0  0  0  0  0  0  0  0  0  0
   37.3360   31.9300   44.7480 H   0  0  0  0  0  0  0  0  0  0  0  0
   39.1850   33.0310   44.0450 N   0  0  0  0  0  0  0  0  0  0  0  0
   38.9710   33.1090   43.0290 H   0  0  0  0  0  0  0  0  0  0  0  0
   40.2400   33.4490   44.7620 C   0  0  0  0  0  0  0  0  0  0  0  0
   41.1020   33.9810   44.3300 H   0  0  0  0  0  0  0  0  0  0  0  0
   40.0240   33.0960   46.0390 N   0  0  0  0  0  0  0  0  0  0  0  0
  1  2  1  0  0  0  0
  2  3  2  0  0  0  0
  2  7  1  0  0  0  0
  3  8  1  0  0  0  0
  4 19  1  0  0  0  0
  4  3  1  0  0  0  0
  5  4  2  0  0  0  0
  6  5  1  0  0  0  0
  6  1  2  0  0  0  0
  9  5  1  0  0  0  0
 10 16  1  0  0  0  0
 11  1  1  0  0  0  0
 11 10  2  0  0  0  0
 12 11  1  0  0  0  0
 13 12  2  0  0  0  0
 13 14  1  0  0  0  0
 14 15  2  0  0  0  0
 15 10  1  0  0  0  0
 17 12  1  0  0  0  0
 18 14  1  0  0  0  0
 20 21  1  0  0  0  0
 20 19  1  0  0  0  0
 21 25  1  0  0  0  0
 22 26  1  0  0  0  0
 22 21  2  0  0  0  0
 23 24  1  0  0  0  0
 23 22  1  0  0  0  0
 24 20  2  0  0  0  0
 27 23  1  0  0  0  0
 28 27  2  0  0  0  0
 29 28  1  0  0  0  0
 30 32  1  0  0  0  0
 30 28  1  0  0  0  0
 31 30  1  0  0  0  0
 32 34  2  0  0  0  0
 33 32  1  0  0  0  0
 34 27  1  0  0  0  0
M  END
>  <minimizedAffinity>
-5.64742613

>  <minimizedRMSD>
1.58670878

$$$$
