
 OpenBabel03262522183D

 23 24  0  0  0  0  0  0  0  0999 V2000
   37.3280   33.7430   49.4430 O   0  0  0  0  0  0  0  0  0  0  0  0
   38.4570   32.9190   48.8290 P   0  0  1  0  0  0  0  0  0  0  0  0
   39.9030   33.8030   49.0170 O   0  0  0  0  0  0  0  0  0  0  0  0
   39.7560   34.5970   49.5760 H   0  0  0  0  0  0  0  0  0  0  0  0
   38.6350   31.5160   49.7710 O   0  0  0  0  0  0  0  0  0  0  0  0
   37.3510   30.3500   51.4020 C   0  0  0  0  0  0  0  0  0  0  0  0
   37.6850   30.5900   50.0600 C   0  0  0  0  0  0  0  0  0  0  0  0
   36.9940   29.8360   49.0980 C   0  0  0  0  0  0  0  0  0  0  0  0
   36.0570   28.9290   49.4920 N   0  0  0  0  0  0  0  0  0  0  0  0
   35.7800   28.7440   50.8100 C   0  0  0  0  0  0  0  0  0  0  0  0
   36.4210   29.4480   51.7630 N   0  0  0  0  0  0  0  0  0  0  0  0
   37.8560   30.9060   52.1800 H   0  0  0  0  0  0  0  0  0  0  0  0
   37.2350   30.0040   48.0500 H   0  0  0  0  0  0  0  0  0  0  0  0
   35.0110   27.9840   50.9090 H   0  0  0  0  0  0  0  0  0  0  0  0
   38.1060   32.6410   47.2340 O   0  0  0  0  0  0  0  0  0  0  0  0
   39.0220   32.5320   46.1970 C   0  0  0  0  0  0  0  0  0  0  0  0
   38.5040   32.5140   44.9080 C   0  0  0  0  0  0  0  0  0  0  0  0
   37.5050   32.5680   44.4820 H   0  0  0  0  0  0  0  0  0  0  0  0
   39.5700   32.4030   44.0690 N   0  0  0  0  0  0  0  0  0  0  0  0
   39.5860   32.3590   43.0280 H   0  0  0  0  0  0  0  0  0  0  0  0
   40.7200   32.3520   44.8020 C   0  0  0  0  0  0  0  0  0  0  0  0
   41.7260   32.2630   44.4150 H   0  0  0  0  0  0  0  0  0  0  0  0
   40.3620   32.4320   46.0990 N   0  0  0  0  0  0  0  0  0  0  0  0
  2  3  1  0  0  0  0
  2  1  2  1  0  0  0
  2  5  1  0  0  0  0
  3  4  1  0  0  0  0
  5  7  1  0  0  0  0
  6 11  1  0  0  0  0
  6 12  1  0  0  0  0
  7  6  2  0  0  0  0
  8  9  2  0  0  0  0
  8  7  1  0  0  0  0
  9 10  1  0  0  0  0
 10 14  1  0  0  0  0
 10 11  2  0  0  0  0
 13  8  1  0  0  0  0
 15  2  1  0  0  0  0
 16 15  1  0  0  0  0
 17 16  2  0  0  0  0
 18 17  1  0  0  0  0
 19 21  1  0  0  0  0
 19 17  1  0  0  0  0
 20 19  1  0  0  0  0
 21 23  2  0  0  0  0
 22 21  1  0  0  0  0
 23 16  1  0  0  0  0
M  END
>  <minimizedAffinity>
-3.99317813

>  <minimizedRMSD>
1.31124365

$$$$
