
 OpenBabel03272508083D

 23 24  0  0  0  0  0  0  0  0999 V2000
   36.8200   32.1140   48.4150 O   0  0  0  0  0  0  0  0  0  0  0  0
   37.2470   31.1880   47.3280 P   0  0  2  0  0  0  0  0  0  0  0  0
   37.1740   31.9700   45.8250 O   0  0  0  0  0  0  0  0  0  0  0  0
   37.8830   31.6420   45.2310 H   0  0  0  0  0  0  0  0  0  0  0  0
   36.4340   29.7220   47.2860 O   0  0  0  0  0  0  0  0  0  0  0  0
   33.8810   29.0900   49.9000 C   0  0  0  0  0  0  0  0  0  0  0  0
   35.0630   29.6330   49.3530 C   0  0  0  0  0  0  0  0  0  0  0  0
   35.3670   29.3250   48.0270 C   0  0  0  0  0  0  0  0  0  0  0  0
   34.5070   28.5210   47.3390 N   0  0  0  0  0  0  0  0  0  0  0  0
   33.3970   28.0280   47.8970 C   0  0  0  0  0  0  0  0  0  0  0  0
   33.0820   28.3080   49.1720 N   0  0  0  0  0  0  0  0  0  0  0  0
   33.7070   29.3720   50.9410 H   0  0  0  0  0  0  0  0  0  0  0  0
   35.7740   30.2610   49.8240 H   0  0  0  0  0  0  0  0  0  0  0  0
   32.7100   27.3880   47.3560 H   0  0  0  0  0  0  0  0  0  0  0  0
   38.9120   30.8810   47.6210 O   0  0  0  0  0  0  0  0  0  0  0  0
   39.7830   31.4840   46.6920 C   0  0  0  0  0  0  0  0  0  0  0  0
   39.7120   31.6080   45.3130 C   0  0  0  0  0  0  0  0  0  0  0  0
   38.8940   31.2150   44.7420 H   0  0  0  0  0  0  0  0  0  0  0  0
   40.8020   32.2750   44.8860 N   0  0  0  0  0  0  0  0  0  0  0  0
   40.9860   32.4990   43.8840 H   0  0  0  0  0  0  0  0  0  0  0  0
   41.5250   32.5510   45.9960 C   0  0  0  0  0  0  0  0  0  0  0  0
   42.4630   33.0980   45.8550 H   0  0  0  0  0  0  0  0  0  0  0  0
   40.9190   32.0770   47.1000 N   0  0  0  0  0  0  0  0  0  0  0  0
  2 15  1  0  0  0  0
  2  1  2  1  0  0  0
  3  2  1  0  0  0  0
  4  3  1  0  0  0  0
  5  2  1  0  0  0  0
  5  8  1  0  0  0  0
  6 12  1  0  0  0  0
  7 13  1  0  0  0  0
  7  6  1  0  0  0  0
  8  7  2  0  0  0  0
  9 10  2  0  0  0  0
  9  8  1  0  0  0  0
 10 11  1  0  0  0  0
 11  6  2  0  0  0  0
 14 10  1  0  0  0  0
 16 23  1  0  0  0  0
 16 15  1  0  0  0  0
 17 16  2  0  0  0  0
 18 17  1  0  0  0  0
 19 17  1  0  0  0  0
 19 21  1  0  0  0  0
 20 19  1  0  0  0  0
 21 23  2  0  0  0  0
 22 21  1  0  0  0  0
M  END
>  <minimizedAffinity>
-0.538126886

>  <minimizedRMSD>
2.42054772

$$$$
