
 OpenBabel03272508083D

 23 24  0  0  0  0  0  0  0  0999 V2000
   38.6390   33.0010   48.0330 O   0  0  0  0  0  0  0  0  0  0  0  0
   38.5140   31.8340   47.1150 P   0  0  2  0  0  0  0  0  0  0  0  0
   37.3720   32.1580   45.9030 O   0  0  0  0  0  0  0  0  0  0  0  0
   37.6270   31.7180   45.0630 H   0  0  0  0  0  0  0  0  0  0  0  0
   38.1960   30.3700   47.8690 O   0  0  0  0  0  0  0  0  0  0  0  0
   37.2720   30.1930   51.4560 C   0  0  0  0  0  0  0  0  0  0  0  0
   38.0600   30.5520   50.3400 C   0  0  0  0  0  0  0  0  0  0  0  0
   37.6190   30.1500   49.0790 C   0  0  0  0  0  0  0  0  0  0  0  0
   36.4600   29.4390   48.9970 N   0  0  0  0  0  0  0  0  0  0  0  0
   35.7440   29.1210   50.0800 C   0  0  0  0  0  0  0  0  0  0  0  0
   36.1460   29.4940   51.3060 N   0  0  0  0  0  0  0  0  0  0  0  0
   37.6760   30.5390   52.4090 H   0  0  0  0  0  0  0  0  0  0  0  0
   38.9660   31.0990   50.3280 H   0  0  0  0  0  0  0  0  0  0  0  0
   34.8220   28.5560   50.0220 H   0  0  0  0  0  0  0  0  0  0  0  0
   40.0310   31.7190   46.3160 O   0  0  0  0  0  0  0  0  0  0  0  0
   39.9710   31.9380   44.9260 C   0  0  0  0  0  0  0  0  0  0  0  0
   40.2580   31.1100   43.8520 C   0  0  0  0  0  0  0  0  0  0  0  0
   40.5970   30.1000   43.9800 H   0  0  0  0  0  0  0  0  0  0  0  0
   40.0380   31.7930   42.7130 N   0  0  0  0  0  0  0  0  0  0  0  0
   40.1830   31.3910   41.7600 H   0  0  0  0  0  0  0  0  0  0  0  0
   39.6220   33.0240   43.0930 C   0  0  0  0  0  0  0  0  0  0  0  0
   39.3890   33.7370   42.2970 H   0  0  0  0  0  0  0  0  0  0  0  0
   39.5760   33.1260   44.4340 N   0  0  0  0  0  0  0  0  0  0  0  0
  2  5  1  0  0  0  0
  2  1  2  1  0  0  0
  3  2  1  0  0  0  0
  4  3  1  0  0  0  0
  5  8  1  0  0  0  0
  6 12  1  0  0  0  0
  7  6  2  0  0  0  0
  8  7  1  0  0  0  0
  9  8  2  0  0  0  0
  9 10  1  0  0  0  0
 10 11  2  0  0  0  0
 11  6  1  0  0  0  0
 13  7  1  0  0  0  0
 14 10  1  0  0  0  0
 15  2  1  0  0  0  0
 16 15  1  0  0  0  0
 17 18  1  0  0  0  0
 17 16  2  0  0  0  0
 19 21  1  0  0  0  0
 19 17  1  0  0  0  0
 20 19  1  0  0  0  0
 21 23  2  0  0  0  0
 22 21  1  0  0  0  0
 23 16  1  0  0  0  0
M  END
>  <minimizedAffinity>
-5.00549746

>  <minimizedRMSD>
1.3083638

$$$$
