
 OpenBabel03272504203D

 26 27  0  0  0  0  0  0  0  0999 V2000
   37.0010   31.3810   46.9980 O   0  0  0  0  0  0  0  0  0  0  0  0
   37.7820   31.5240   48.1140 C   0  0  0  0  0  0  0  0  0  0  0  0
   37.8910   32.6260   48.3340 H   0  0  0  0  0  0  0  0  0  0  0  0
   38.8270   31.1640   47.9930 H   0  0  0  0  0  0  0  0  0  0  0  0
   37.2500   30.8030   49.2980 C   0  0  0  0  0  0  0  0  0  0  0  0
   36.1050   30.0340   49.1150 C   0  0  0  0  0  0  0  0  0  0  0  0
   35.5910   29.3480   50.2280 C   0  0  0  0  0  0  0  0  0  0  0  0
   36.2460   29.4800   51.4100 N   0  0  0  0  0  0  0  0  0  0  0  0
   37.3460   30.2270   51.5610 C   0  0  0  0  0  0  0  0  0  0  0  0
   37.8410   30.8840   50.5060 N   0  0  0  0  0  0  0  0  0  0  0  0
   35.5680   29.9160   48.1800 H   0  0  0  0  0  0  0  0  0  0  0  0
   34.7080   28.7330   50.1580 H   0  0  0  0  0  0  0  0  0  0  0  0
   37.8650   30.3300   52.5060 H   0  0  0  0  0  0  0  0  0  0  0  0
   39.2830   30.5340   46.0120 O   0  0  0  0  0  0  0  0  0  0  0  0
   38.0260   31.2830   45.6560 P   0  0  2  0  0  0  0  0  0  0  0  0
   38.4920   32.8590   45.1810 O   0  0  0  0  0  0  0  0  0  0  0  0
   37.6950   33.2560   44.7500 H   0  0  0  0  0  0  0  0  0  0  0  0
   37.2580   30.4970   44.3670 O   0  0  0  0  0  0  0  0  0  0  0  0
   37.9770   29.6090   43.5660 C   0  0  0  0  0  0  0  0  0  0  0  0
   39.0980   30.0000   42.8610 C   0  0  0  0  0  0  0  0  0  0  0  0
   39.6200   30.9610   42.7710 H   0  0  0  0  0  0  0  0  0  0  0  0
   39.6000   28.9470   42.1700 N   0  0  0  0  0  0  0  0  0  0  0  0
   40.4110   28.8040   41.5290 H   0  0  0  0  0  0  0  0  0  0  0  0
   38.7900   27.8910   42.4430 C   0  0  0  0  0  0  0  0  0  0  0  0
   38.7530   26.8350   42.1460 H   0  0  0  0  0  0  0  0  0  0  0  0
   37.8310   28.3070   43.2760 N   0  0  0  0  0  0  0  0  0  0  0  0
  1  2  1  0  0  0  0
  2  3  1  0  0  0  0
  2  5  1  0  0  0  0
  4  2  1  0  0  0  0
  5 10  1  0  0  0  0
  6  5  2  0  0  0  0
  6  7  1  0  0  0  0
  7  8  2  0  0  0  0
  8  9  1  0  0  0  0
  9 13  1  0  0  0  0
 10  9  2  0  0  0  0
 11  6  1  0  0  0  0
 12  7  1  0  0  0  0
 15 14  2  1  0  0  0
 15  1  1  0  0  0  0
 16 15  1  0  0  0  0
 17 16  1  0  0  0  0
 18 15  1  0  0  0  0
 19 18  1  0  0  0  0
 20 19  2  0  0  0  0
 21 20  1  0  0  0  0
 22 24  1  0  0  0  0
 22 20  1  0  0  0  0
 23 22  1  0  0  0  0
 24 26  2  0  0  0  0
 25 24  1  0  0  0  0
 26 19  1  0  0  0  0
M  END
>  <minimizedAffinity>
-3.91053414

>  <minimizedRMSD>
6.72356415

$$$$
