
 OpenBabel03262522193D

 23 24  0  0  0  0  0  0  0  0999 V2000
   37.3130   33.7410   49.4760 O   0  0  0  0  0  0  0  0  0  0  0  0
   38.4430   32.9240   48.8550 P   0  0  1  0  0  0  0  0  0  0  0  0
   39.8860   33.8120   49.0440 O   0  0  0  0  0  0  0  0  0  0  0  0
   39.7380   34.6030   49.6070 H   0  0  0  0  0  0  0  0  0  0  0  0
   38.6280   31.5180   49.7910 O   0  0  0  0  0  0  0  0  0  0  0  0
   37.3460   30.3430   51.4180 C   0  0  0  0  0  0  0  0  0  0  0  0
   37.6820   30.5870   50.0770 C   0  0  0  0  0  0  0  0  0  0  0  0
   36.9960   29.8310   49.1130 C   0  0  0  0  0  0  0  0  0  0  0  0
   36.0620   28.9180   49.5050 N   0  0  0  0  0  0  0  0  0  0  0  0
   35.7840   28.7310   50.8220 C   0  0  0  0  0  0  0  0  0  0  0  0
   36.4210   29.4370   51.7780 N   0  0  0  0  0  0  0  0  0  0  0  0
   37.8480   30.9010   52.1970 H   0  0  0  0  0  0  0  0  0  0  0  0
   37.2380   30.0000   48.0660 H   0  0  0  0  0  0  0  0  0  0  0  0
   35.0180   27.9680   50.9200 H   0  0  0  0  0  0  0  0  0  0  0  0
   38.0890   32.6520   47.2600 O   0  0  0  0  0  0  0  0  0  0  0  0
   38.9950   32.6250   46.2090 C   0  0  0  0  0  0  0  0  0  0  0  0
   38.4730   32.4070   44.9410 C   0  0  0  0  0  0  0  0  0  0  0  0
   37.4740   32.2430   44.5400 H   0  0  0  0  0  0  0  0  0  0  0  0
   39.5290   32.4220   44.0830 N   0  0  0  0  0  0  0  0  0  0  0  0
   39.5400   32.2950   43.0490 H   0  0  0  0  0  0  0  0  0  0  0  0
   40.6790   32.6410   44.7840 C   0  0  0  0  0  0  0  0  0  0  0  0
   41.6790   32.7060   44.3780 H   0  0  0  0  0  0  0  0  0  0  0  0
   40.3290   32.7620   46.0810 N   0  0  0  0  0  0  0  0  0  0  0  0
  2  3  1  0  0  0  0
  2  1  2  1  0  0  0
  2  5  1  0  0  0  0
  3  4  1  0  0  0  0
  5  7  1  0  0  0  0
  6 11  1  0  0  0  0
  6 12  1  0  0  0  0
  7  6  2  0  0  0  0
  8  9  2  0  0  0  0
  8  7  1  0  0  0  0
  9 10  1  0  0  0  0
 10 14  1  0  0  0  0
 10 11  2  0  0  0  0
 13  8  1  0  0  0  0
 15  2  1  0  0  0  0
 16 15  1  0  0  0  0
 17 16  2  0  0  0  0
 18 17  1  0  0  0  0
 19 21  1  0  0  0  0
 19 17  1  0  0  0  0
 20 19  1  0  0  0  0
 21 23  2  0  0  0  0
 22 21  1  0  0  0  0
 23 16  1  0  0  0  0
M  END
>  <minimizedAffinity>
-3.98513198

>  <minimizedRMSD>
1.27325237

$$$$
