
 OpenBabel03272501073D

 39 42  0  0  1  0  0  0  0  0999 V2000
   38.9950   32.4420   47.6280 C   0  0  2  0  0  0  0  0  0  0  0  0
   37.9810   32.6100   48.8010 C   0  0  2  0  0  0  0  0  0  0  0  0
   38.7950   33.3220   49.7710 C   0  0  0  0  0  0  0  0  0  0  0  0
   39.6350   34.1880   49.0790 O   0  0  0  0  0  0  0  0  0  0  0  0
   39.6000   33.8690   47.7570 C   0  0  0  0  0  0  0  0  0  0  0  0
   39.7480   31.6990   47.8900 H   0  0  0  0  0  0  0  0  0  0  0  0
   37.1950   33.2670   48.3670 H   0  0  0  0  0  0  0  0  0  0  0  0
   39.4070   32.7400   50.4530 H   0  0  0  0  0  0  0  0  0  0  0  0
   38.1300   33.9610   50.4190 H   0  0  0  0  0  0  0  0  0  0  0  0
   40.5550   33.9410   47.2260 H   0  0  0  0  0  0  0  0  0  0  0  0
   38.8750   34.5250   47.2380 H   0  0  0  0  0  0  0  0  0  0  0  0
   37.3330   29.3170   50.4970 C   0  0  0  0  0  0  0  0  0  0  0  0
   37.9770   30.5430   50.1760 C   0  0  0  0  0  0  0  0  0  0  0  0
   37.3720   31.3600   49.1800 C   0  0  0  0  0  0  0  0  0  0  0  0
   36.2090   30.9330   48.5840 N   0  0  0  0  0  0  0  0  0  0  0  0
   35.6410   29.7720   48.9190 C   0  0  0  0  0  0  0  0  0  0  0  0
   36.1880   28.9580   49.8690 N   0  0  0  0  0  0  0  0  0  0  0  0
   37.7970   28.7190   51.2410 H   0  0  0  0  0  0  0  0  0  0  0  0
   38.8910   30.8280   50.6770 H   0  0  0  0  0  0  0  0  0  0  0  0
   34.7280   29.3910   48.4820 H   0  0  0  0  0  0  0  0  0  0  0  0
   38.3760   32.3450   46.4220 O   0  0  0  0  0  0  0  0  0  0  0  0
   40.9140   32.0750   44.6970 Cl  0  0  0  0  0  0  0  0  0  0  0  0
   39.4180   31.2310   44.4290 C   0  0  0  0  0  0  0  0  0  0  0  0
   38.4240   31.5300   45.3520 C   0  0  0  0  0  0  0  0  0  0  0  0
   37.2170   30.8720   45.1600 C   0  0  0  0  0  0  0  0  0  0  0  0
   37.0350   29.9730   44.1040 C   0  0  0  0  0  0  0  0  0  0  0  0
   38.0580   29.7280   43.2320 C   0  0  0  0  0  0  0  0  0  0  0  0
   39.2730   30.3620   43.3900 C   0  0  0  0  0  0  0  0  0  0  0  0
   36.3370   30.9810   45.7800 H   0  0  0  0  0  0  0  0  0  0  0  0
   36.0750   29.4540   43.9550 H   0  0  0  0  0  0  0  0  0  0  0  0
   37.8480   29.0120   42.4240 H   0  0  0  0  0  0  0  0  0  0  0  0
   40.3090   30.0500   42.4280 C   0  0  0  0  0  0  0  0  0  0  0  0
   41.3530   29.1630   42.3630 C   0  0  0  0  0  0  0  0  0  0  0  0
   41.6010   28.4540   43.1310 H   0  0  0  0  0  0  0  0  0  0  0  0
   42.0600   29.2520   41.2300 N   0  0  0  0  0  0  0  0  0  0  0  0
   42.8810   28.6930   40.9580 H   0  0  0  0  0  0  0  0  0  0  0  0
   41.4580   30.2240   40.5430 C   0  0  0  0  0  0  0  0  0  0  0  0
   41.7090   30.6190   39.5720 H   0  0  0  0  0  0  0  0  0  0  0  0
   40.4400   30.6860   41.2440 N   0  0  0  0  0  0  0  0  0  0  0  0
  1  5  1  0  0  0  0
  1  6  1  1  0  0  0
  1  2  1  0  0  0  0
  2  7  1  6  0  0  0
  2 14  1  0  0  0  0
  2  3  1  0  0  0  0
  3  9  1  0  0  0  0
  3  8  1  0  0  0  0
  4  3  1  0  0  0  0
  5  4  1  0  0  0  0
 10  5  1  0  0  0  0
 11  5  1  0  0  0  0
 12 18  1  0  0  0  0
 13 12  1  0  0  0  0
 13 19  1  0  0  0  0
 14 13  2  0  0  0  0
 15 16  2  0  0  0  0
 15 14  1  0  0  0  0
 16 17  1  0  0  0  0
 17 12  2  0  0  0  0
 20 16  1  0  0  0  0
 21  1  1  0  0  0  0
 23 22  1  0  0  0  0
 23 24  1  0  0  0  0
 24 21  1  0  0  0  0
 25 24  2  0  0  0  0
 25 29  1  0  0  0  0
 26 25  1  0  0  0  0
 27 28  1  0  0  0  0
 27 26  2  0  0  0  0
 28 23  2  0  0  0  0
 30 26  1  0  0  0  0
 31 27  1  0  0  0  0
 32 28  1  0  0  0  0
 33 32  2  0  0  0  0
 33 34  1  0  0  0  0
 35 33  1  0  0  0  0
 36 35  1  0  0  0  0
 37 35  1  0  0  0  0
 37 39  2  0  0  0  0
 38 37  1  0  0  0  0
 39 32  1  0  0  0  0
M  END
>  <minimizedAffinity>
-6.36953974

>  <minimizedRMSD>
0.842946351

$$$$
