
 OpenBabel03272510113D

 34 37  0  0  0  0  0  0  0  0999 V2000
   33.6950   28.5930   48.7400 C   0  0  0  0  0  0  0  0  0  0  0  0
   33.9140   28.7900   50.0580 C   0  0  0  0  0  0  0  0  0  0  0  0
   34.9950   29.4560   50.5910 C   0  0  0  0  0  0  0  0  0  0  0  0
   35.9470   29.9760   49.7580 C   0  0  0  0  0  0  0  0  0  0  0  0
   35.7250   29.7750   48.3950 C   0  0  0  0  0  0  0  0  0  0  0  0
   34.6540   29.1180   47.9250 N   0  0  0  0  0  0  0  0  0  0  0  0
   33.2160   28.4160   50.7920 H   0  0  0  0  0  0  0  0  0  0  0  0
   35.1580   29.6080   51.6510 H   0  0  0  0  0  0  0  0  0  0  0  0
   36.4560   30.1690   47.6840 H   0  0  0  0  0  0  0  0  0  0  0  0
   31.3840   27.6210   48.9090 C   0  0  0  0  0  0  0  0  0  0  0  0
   32.5690   27.9000   48.1940 C   0  0  0  0  0  0  0  0  0  0  0  0
   32.6000   27.4570   46.8880 C   0  0  0  0  0  0  0  0  0  0  0  0
   31.5320   26.7940   46.3530 N   0  0  0  0  0  0  0  0  0  0  0  0
   30.4300   26.5600   47.0910 C   0  0  0  0  0  0  0  0  0  0  0  0
   30.3470   26.9670   48.3630 N   0  0  0  0  0  0  0  0  0  0  0  0
   31.3280   27.9550   49.9350 H   0  0  0  0  0  0  0  0  0  0  0  0
   33.4990   27.6570   46.3130 H   0  0  0  0  0  0  0  0  0  0  0  0
   29.6990   26.0240   46.4930 H   0  0  0  0  0  0  0  0  0  0  0  0
   37.0970   30.6730   50.1260 O   0  0  0  0  0  0  0  0  0  0  0  0
   37.8470   31.3710   49.1840 C   0  0  0  0  0  0  0  0  0  0  0  0
   38.1690   32.6810   49.5690 C   0  0  0  0  0  0  0  0  0  0  0  0
   38.9110   33.2660   48.5580 C   0  0  0  0  0  0  0  0  0  0  0  0
   39.0150   32.3200   47.6140 N   0  0  0  0  0  0  0  0  0  0  0  0
   38.4010   31.2170   47.9670 N   0  0  0  0  0  0  0  0  0  0  0  0
   37.9620   33.2960   50.4600 H   0  0  0  0  0  0  0  0  0  0  0  0
   39.3700   34.2220   48.3950 H   0  0  0  0  0  0  0  0  0  0  0  0
   39.6790   32.3800   46.3470 C   0  0  0  0  0  0  0  0  0  0  0  0
   39.9990   33.3100   45.3850 C   0  0  0  0  0  0  0  0  0  0  0  0
   39.6760   34.3240   45.5980 H   0  0  0  0  0  0  0  0  0  0  0  0
   40.6500   32.6540   44.4190 N   0  0  0  0  0  0  0  0  0  0  0  0
   40.9820   33.1900   43.5900 H   0  0  0  0  0  0  0  0  0  0  0  0
   40.7530   31.3520   44.7300 C   0  0  0  0  0  0  0  0  0  0  0  0
   41.2500   30.6070   44.0880 H   0  0  0  0  0  0  0  0  0  0  0  0
   40.1550   31.1740   45.9190 N   0  0  0  0  0  0  0  0  0  0  0  0
  1  2  1  0  0  0  0
  2  3  2  0  0  0  0
  2  7  1  0  0  0  0
  3  8  1  0  0  0  0
  4 19  1  0  0  0  0
  4  3  1  0  0  0  0
  5  4  2  0  0  0  0
  6  5  1  0  0  0  0
  6  1  2  0  0  0  0
  9  5  1  0  0  0  0
 10 16  1  0  0  0  0
 11  1  1  0  0  0  0
 11 10  2  0  0  0  0
 12 11  1  0  0  0  0
 13 12  2  0  0  0  0
 13 14  1  0  0  0  0
 14 15  2  0  0  0  0
 15 10  1  0  0  0  0
 17 12  1  0  0  0  0
 18 14  1  0  0  0  0
 20 21  1  0  0  0  0
 20 19  1  0  0  0  0
 21 25  1  0  0  0  0
 22 21  2  0  0  0  0
 23 24  1  0  0  0  0
 23 22  1  0  0  0  0
 24 20  2  0  0  0  0
 26 22  1  0  0  0  0
 27 23  1  0  0  0  0
 28 29  1  0  0  0  0
 28 27  2  0  0  0  0
 30 32  1  0  0  0  0
 30 28  1  0  0  0  0
 31 30  1  0  0  0  0
 32 34  2  0  0  0  0
 33 32  1  0  0  0  0
 34 27  1  0  0  0  0
M  END
>  <minimizedAffinity>
-6.05505419

>  <minimizedRMSD>
1.42757547

$$$$
