
 OpenBabel03272508163D

 30 32  0  0  0  0  0  0  0  0999 V2000
   35.0900   30.5270   47.5670 Cl  0  0  0  0  0  0  0  0  0  0  0  0
   35.2920   29.8930   45.9740 C   0  0  0  0  0  0  0  0  0  0  0  0
   34.2830   29.0720   45.5920 C   0  0  0  0  0  0  0  0  0  0  0  0
   34.3440   28.4920   44.2990 C   0  0  0  0  0  0  0  0  0  0  0  0
   35.3890   28.7510   43.4570 C   0  0  0  0  0  0  0  0  0  0  0  0
   36.4020   29.5900   43.8720 C   0  0  0  0  0  0  0  0  0  0  0  0
   37.7420   29.9420   42.8360 Cl  0  0  0  0  0  0  0  0  0  0  0  0
   36.3340   30.1400   45.1120 C   0  0  0  0  0  0  0  0  0  0  0  0
   33.5860   27.8260   43.9080 H   0  0  0  0  0  0  0  0  0  0  0  0
   35.4630   28.3230   42.4640 H   0  0  0  0  0  0  0  0  0  0  0  0
   33.2000   27.5900   47.2330 C   0  0  0  0  0  0  0  0  0  0  0  0
   33.0690   28.6520   46.3220 C   0  0  0  0  0  0  0  0  0  0  0  0
   31.8220   29.2510   46.1500 C   0  0  0  0  0  0  0  0  0  0  0  0
   30.7880   28.7560   46.8950 N   0  0  0  0  0  0  0  0  0  0  0  0
   30.9360   27.7480   47.7520 C   0  0  0  0  0  0  0  0  0  0  0  0
   32.1600   27.1460   47.9330 N   0  0  0  0  0  0  0  0  0  0  0  0
   34.1290   27.0660   47.4300 H   0  0  0  0  0  0  0  0  0  0  0  0
   31.7460   30.0670   45.4440 H   0  0  0  0  0  0  0  0  0  0  0  0
   30.0030   27.5110   48.2360 H   0  0  0  0  0  0  0  0  0  0  0  0
   37.3730   31.0480   45.6340 C   0  0  0  0  0  0  0  0  0  0  0  0
   37.5630   32.2450   45.3870 O   0  0  0  0  0  0  0  0  0  0  0  0
   38.3930   30.7130   46.5550 O   0  0  0  0  0  0  0  0  0  0  0  0
   38.3910   31.1560   47.8530 C   0  0  0  0  0  0  0  0  0  0  0  0
   38.1130   30.5310   49.0400 C   0  0  0  0  0  0  0  0  0  0  0  0
   37.8270   29.4690   49.0480 H   0  0  0  0  0  0  0  0  0  0  0  0
   38.2390   31.3650   50.0990 N   0  0  0  0  0  0  0  0  0  0  0  0
   38.0670   31.0640   51.0830 H   0  0  0  0  0  0  0  0  0  0  0  0
   38.6080   32.5420   49.5390 C   0  0  0  0  0  0  0  0  0  0  0  0
   38.7910   33.4330   50.1530 H   0  0  0  0  0  0  0  0  0  0  0  0
   38.7010   32.4280   48.2100 N   0  0  0  0  0  0  0  0  0  0  0  0
  2  1  1  0  0  0  0
  3  2  1  0  0  0  0
  3 12  1  0  0  0  0
  4  3  2  0  0  0  0
  5  6  2  0  0  0  0
  5  4  1  0  0  0  0
  6  8  1  0  0  0  0
  7  6  1  0  0  0  0
  8 20  1  0  0  0  0
  8  2  2  0  0  0  0
  9  4  1  0  0  0  0
 10  5  1  0  0  0  0
 11 17  1  0  0  0  0
 11 16  1  0  0  0  0
 12 11  2  0  0  0  0
 13 12  1  0  0  0  0
 13 14  2  0  0  0  0
 14 15  1  0  0  0  0
 15 16  2  0  0  0  0
 15 19  1  0  0  0  0
 18 13  1  0  0  0  0
 20 22  1  0  0  0  0
 21 20  2  0  0  0  0
 22 23  1  0  0  0  0
 23 30  1  0  0  0  0
 23 24  2  0  0  0  0
 24 25  1  0  0  0  0
 24 26  1  0  0  0  0
 26 27  1  0  0  0  0
 28 26  1  0  0  0  0
 28 29  1  0  0  0  0
 30 28  2  0  0  0  0
M  END
>  <minimizedAffinity>
-4.39102125

>  <minimizedRMSD>
4.46707916

$$$$
