
 OpenBabel03272503143D

 45 49  0  0  0  0  0  0  0  0999 V2000
   37.9090   26.4380   34.9690 C   0  0  0  0  0  0  0  0  0  0  0  0
   38.5990   26.8880   35.9360 O   0  0  0  0  0  0  0  0  0  0  0  0
   37.7370   25.0190   34.9320 N   0  0  0  0  0  0  0  0  0  0  0  0
   37.1900   24.6190   34.1500 H   0  0  0  0  0  0  0  0  0  0  0  0
   36.2760   28.1110   34.4380 C   0  0  0  0  0  0  0  0  0  0  0  0
   37.3540   27.3570   33.9930 C   0  0  0  0  0  0  0  0  0  0  0  0
   37.8620   27.4650   32.7350 C   0  0  0  0  0  0  0  0  0  0  0  0
   37.2970   28.3570   31.8430 C   0  0  0  0  0  0  0  0  0  0  0  0
   37.5860   28.6660   30.5690 N   0  0  0  0  0  0  0  0  0  0  0  0
   36.7170   29.6030   30.1810 C   0  0  0  0  0  0  0  0  0  0  0  0
   35.8860   29.8830   31.2020 N   0  0  0  0  0  0  0  0  0  0  0  0
   36.2340   29.1100   32.2600 C   0  0  0  0  0  0  0  0  0  0  0  0
   35.6890   29.0220   33.5460 C   0  0  0  0  0  0  0  0  0  0  0  0
   35.8840   28.0200   35.4260 H   0  0  0  0  0  0  0  0  0  0  0  0
   38.7110   26.8620   32.4060 H   0  0  0  0  0  0  0  0  0  0  0  0
   38.3310   28.2730   29.9700 H   0  0  0  0  0  0  0  0  0  0  0  0
   36.6200   30.1080   29.2280 H   0  0  0  0  0  0  0  0  0  0  0  0
   34.6200   29.7750   33.9750 O   0  0  0  0  0  0  0  0  0  0  0  0
   34.8150   30.6340   35.0480 C   0  0  0  0  0  0  0  0  0  0  0  0
   35.9230   31.2970   35.5450 C   0  0  0  0  0  0  0  0  0  0  0  0
   36.8960   31.1970   35.0770 H   0  0  0  0  0  0  0  0  0  0  0  0
   35.5820   32.0240   36.6260 N   0  0  0  0  0  0  0  0  0  0  0  0
   36.1900   32.6190   37.2040 H   0  0  0  0  0  0  0  0  0  0  0  0
   34.2470   31.8340   36.8340 C   0  0  0  0  0  0  0  0  0  0  0  0
   33.6360   32.2730   37.6260 H   0  0  0  0  0  0  0  0  0  0  0  0
   33.8180   31.0040   35.8820 N   0  0  0  0  0  0  0  0  0  0  0  0
   40.2070   23.8910   34.6570 F   0  0  0  0  0  0  0  0  0  0  0  0
   39.6080   23.7810   35.8740 C   0  0  0  0  0  0  0  0  0  0  0  0
   40.2540   23.1250   36.8890 C   0  0  0  0  0  0  0  0  0  0  0  0
   39.6050   23.0470   38.0870 C   0  0  0  0  0  0  0  0  0  0  0  0
   38.3610   23.5920   38.2930 C   0  0  0  0  0  0  0  0  0  0  0  0
   37.7190   24.2560   37.2510 C   0  0  0  0  0  0  0  0  0  0  0  0
   38.3690   24.3440   36.0230 C   0  0  0  0  0  0  0  0  0  0  0  0
   40.0910   22.5340   38.9070 H   0  0  0  0  0  0  0  0  0  0  0  0
   37.8460   23.5270   39.2530 H   0  0  0  0  0  0  0  0  0  0  0  0
   36.7390   24.7050   37.3550 H   0  0  0  0  0  0  0  0  0  0  0  0
   43.9690   22.7780   36.2200 C   0  0  0  0  0  0  0  0  0  0  0  0
   42.6990   23.3470   36.4820 C   0  0  0  0  0  0  0  0  0  0  0  0
   41.5760   22.5630   36.6180 C   0  0  0  0  0  0  0  0  0  0  0  0
   41.7540   21.2190   36.4870 N   0  0  0  0  0  0  0  0  0  0  0  0
   42.9540   20.6660   36.2380 C   0  0  0  0  0  0  0  0  0  0  0  0
   44.0340   21.4330   36.1080 N   0  0  0  0  0  0  0  0  0  0  0  0
   44.8460   23.4030   36.1140 H   0  0  0  0  0  0  0  0  0  0  0  0
   42.6150   24.4210   36.5770 H   0  0  0  0  0  0  0  0  0  0  0  0
   42.9490   19.5760   36.1570 H   0  0  0  0  0  0  0  0  0  0  0  0
  1  2  2  0  0  0  0
  3  1  1  0  0  0  0
  3 33  1  0  0  0  0
  4  3  1  0  0  0  0
  5 14  1  0  0  0  0
  6  5  1  0  0  0  0
  6  1  1  0  0  0  0
  7  6  2  0  0  0  0
  8 12  2  0  0  0  0
  8  7  1  0  0  0  0
  9  8  1  0  0  0  0
 10  9  1  0  0  0  0
 10 11  2  0  0  0  0
 11 12  1  0  0  0  0
 12 13  1  0  0  0  0
 13 18  1  0  0  0  0
 13  5  2  0  0  0  0
 15  7  1  0  0  0  0
 16  9  1  0  0  0  0
 17 10  1  0  0  0  0
 18 19  1  0  0  0  0
 19 20  2  0  0  0  0
 19 26  1  0  0  0  0
 20 22  1  0  0  0  0
 21 20  1  0  0  0  0
 22 24  1  0  0  0  0
 22 23  1  0  0  0  0
 24 25  1  0  0  0  0
 26 24  2  0  0  0  0
 27 28  1  0  0  0  0
 28 33  2  0  0  0  0
 28 29  1  0  0  0  0
 29 30  2  0  0  0  0
 30 31  1  0  0  0  0
 30 34  1  0  0  0  0
 31 35  1  0  0  0  0
 32 36  1  0  0  0  0
 32 31  2  0  0  0  0
 33 32  1  0  0  0  0
 37 38  1  0  0  0  0
 38 44  1  0  0  0  0
 38 39  2  0  0  0  0
 39 29  1  0  0  0  0
 40 39  1  0  0  0  0
 41 40  2  0  0  0  0
 42 37  2  0  0  0  0
 42 41  1  0  0  0  0
 43 37  1  0  0  0  0
 45 41  1  0  0  0  0
M  END
>  <minimizedAffinity>
-7.12014294

$$$$

 OpenBabel03272503143D

 45 49  0  0  0  0  0  0  0  0999 V2000
   37.9710   26.4350   34.9870 C   0  0  0  0  0  0  0  0  0  0  0  0
   38.7300   26.8790   35.9040 O   0  0  0  0  0  0  0  0  0  0  0  0
   37.7070   25.0300   35.0220 N   0  0  0  0  0  0  0  0  0  0  0  0
   37.1020   24.6350   34.2810 H   0  0  0  0  0  0  0  0  0  0  0  0
   36.4360   28.1960   34.4500 C   0  0  0  0  0  0  0  0  0  0  0  0
   37.4350   27.3460   33.9940 C   0  0  0  0  0  0  0  0  0  0  0  0
   37.8880   27.3600   32.7100 C   0  0  0  0  0  0  0  0  0  0  0  0
   37.3430   28.2500   31.8020 C   0  0  0  0  0  0  0  0  0  0  0  0
   37.5910   28.4780   30.5020 N   0  0  0  0  0  0  0  0  0  0  0  0
   36.7710   29.4570   30.1090 C   0  0  0  0  0  0  0  0  0  0  0  0
   36.0140   29.8420   31.1520 N   0  0  0  0  0  0  0  0  0  0  0  0
   36.3570   29.0950   32.2300 C   0  0  0  0  0  0  0  0  0  0  0  0
   35.8710   29.1060   33.5420 C   0  0  0  0  0  0  0  0  0  0  0  0
   36.0870   28.1790   35.4580 H   0  0  0  0  0  0  0  0  0  0  0  0
   38.6750   26.6830   32.3720 H   0  0  0  0  0  0  0  0  0  0  0  0
   38.2760   28.0060   29.8910 H   0  0  0  0  0  0  0  0  0  0  0  0
   36.6640   29.9230   29.1380 H   0  0  0  0  0  0  0  0  0  0  0  0
   34.8800   29.9520   33.9820 O   0  0  0  0  0  0  0  0  0  0  0  0
   33.5600   29.5570   33.8100 C   0  0  0  0  0  0  0  0  0  0  0  0
   32.7720   29.3330   32.6950 C   0  0  0  0  0  0  0  0  0  0  0  0
   33.1660   29.4630   31.6930 H   0  0  0  0  0  0  0  0  0  0  0  0
   31.5350   28.9560   33.0690 N   0  0  0  0  0  0  0  0  0  0  0  0
   30.7370   28.7220   32.4650 H   0  0  0  0  0  0  0  0  0  0  0  0
   31.5160   28.9350   34.4340 C   0  0  0  0  0  0  0  0  0  0  0  0
   30.6710   28.6730   35.0760 H   0  0  0  0  0  0  0  0  0  0  0  0
   32.7320   29.2960   34.8460 N   0  0  0  0  0  0  0  0  0  0  0  0
   40.1700   23.8870   34.7450 F   0  0  0  0  0  0  0  0  0  0  0  0
   39.5770   23.7920   35.9660 C   0  0  0  0  0  0  0  0  0  0  0  0
   40.2240   23.1410   36.9840 C   0  0  0  0  0  0  0  0  0  0  0  0
   39.5800   23.0780   38.1850 C   0  0  0  0  0  0  0  0  0  0  0  0
   38.3390   23.6310   38.3920 C   0  0  0  0  0  0  0  0  0  0  0  0
   37.6960   24.2890   37.3480 C   0  0  0  0  0  0  0  0  0  0  0  0
   38.3410   24.3620   36.1150 C   0  0  0  0  0  0  0  0  0  0  0  0
   40.0670   22.5690   39.0080 H   0  0  0  0  0  0  0  0  0  0  0  0
   37.8290   23.5770   39.3550 H   0  0  0  0  0  0  0  0  0  0  0  0
   36.7190   24.7440   37.4520 H   0  0  0  0  0  0  0  0  0  0  0  0
   43.0690   20.6850   36.4870 C   0  0  0  0  0  0  0  0  0  0  0  0
   41.7830   21.2150   36.7540 C   0  0  0  0  0  0  0  0  0  0  0  0
   41.5420   22.5690   36.7120 C   0  0  0  0  0  0  0  0  0  0  0  0
   42.6010   23.3660   36.4000 N   0  0  0  0  0  0  0  0  0  0  0  0
   43.8270   22.8770   36.1440 C   0  0  0  0  0  0  0  0  0  0  0  0
   44.0510   21.5650   36.1890 N   0  0  0  0  0  0  0  0  0  0  0  0
   43.2490   19.6190   36.5230 H   0  0  0  0  0  0  0  0  0  0  0  0
   40.9760   20.5360   36.9970 H   0  0  0  0  0  0  0  0  0  0  0  0
   44.5830   23.6310   35.9090 H   0  0  0  0  0  0  0  0  0  0  0  0
  1  3  1  0  0  0  0
  1  2  2  0  0  0  0
  3 33  1  0  0  0  0
  4  3  1  0  0  0  0
  5 14  1  0  0  0  0
  6  5  1  0  0  0  0
  6  1  1  0  0  0  0
  7  6  2  0  0  0  0
  8 12  2  0  0  0  0
  8  7  1  0  0  0  0
  9  8  1  0  0  0  0
 10  9  1  0  0  0  0
 10 11  2  0  0  0  0
 11 12  1  0  0  0  0
 12 13  1  0  0  0  0
 13 18  1  0  0  0  0
 13  5  2  0  0  0  0
 15  7  1  0  0  0  0
 16  9  1  0  0  0  0
 17 10  1  0  0  0  0
 19 18  1  0  0  0  0
 19 26  1  0  0  0  0
 20 22  1  0  0  0  0
 20 19  2  0  0  0  0
 21 20  1  0  0  0  0
 22 24  1  0  0  0  0
 23 22  1  0  0  0  0
 24 26  2  0  0  0  0
 24 25  1  0  0  0  0
 27 28  1  0  0  0  0
 28 33  2  0  0  0  0
 28 29  1  0  0  0  0
 29 30  2  0  0  0  0
 30 31  1  0  0  0  0
 30 34  1  0  0  0  0
 31 35  1  0  0  0  0
 32 36  1  0  0  0  0
 32 31  2  0  0  0  0
 33 32  1  0  0  0  0
 37 43  1  0  0  0  0
 37 38  1  0  0  0  0
 38 44  1  0  0  0  0
 39 38  2  0  0  0  0
 39 29  1  0  0  0  0
 40 39  1  0  0  0  0
 41 42  1  0  0  0  0
 41 40  2  0  0  0  0
 42 37  2  0  0  0  0
 45 41  1  0  0  0  0
M  END
>  <minimizedAffinity>
-6.94938993

$$$$

 OpenBabel03272503143D

 45 49  0  0  0  0  0  0  0  0999 V2000
   36.3870   25.8700   32.0580 C   0  0  0  0  0  0  0  0  0  0  0  0
   35.3440   26.3380   31.5030 O   0  0  0  0  0  0  0  0  0  0  0  0
   37.2610   26.8320   32.6550 N   0  0  0  0  0  0  0  0  0  0  0  0
   38.1260   26.4850   33.1040 H   0  0  0  0  0  0  0  0  0  0  0  0
   37.7050   24.0170   32.8150 C   0  0  0  0  0  0  0  0  0  0  0  0
   36.6220   24.4390   32.0550 C   0  0  0  0  0  0  0  0  0  0  0  0
   35.8300   23.5810   31.3560 C   0  0  0  0  0  0  0  0  0  0  0  0
   36.0960   22.2240   31.3870 C   0  0  0  0  0  0  0  0  0  0  0  0
   35.4960   21.1730   30.8070 N   0  0  0  0  0  0  0  0  0  0  0  0
   36.1690   20.0800   31.1760 C   0  0  0  0  0  0  0  0  0  0  0  0
   37.1850   20.4390   31.9820 N   0  0  0  0  0  0  0  0  0  0  0  0
   37.1580   21.7870   32.1290 C   0  0  0  0  0  0  0  0  0  0  0  0
   37.9900   22.6430   32.8580 C   0  0  0  0  0  0  0  0  0  0  0  0
   38.3200   24.6960   33.3600 H   0  0  0  0  0  0  0  0  0  0  0  0
   34.9820   23.9350   30.7650 H   0  0  0  0  0  0  0  0  0  0  0  0
   34.6690   21.1710   30.1880 H   0  0  0  0  0  0  0  0  0  0  0  0
   36.0010   19.0410   30.9200 H   0  0  0  0  0  0  0  0  0  0  0  0
   39.0610   22.2120   33.6070 O   0  0  0  0  0  0  0  0  0  0  0  0
   39.0160   22.4020   34.9810 C   0  0  0  0  0  0  0  0  0  0  0  0
   38.0130   22.2710   35.9260 C   0  0  0  0  0  0  0  0  0  0  0  0
   37.0130   21.9600   35.6460 H   0  0  0  0  0  0  0  0  0  0  0  0
   38.4860   22.5780   37.1500 N   0  0  0  0  0  0  0  0  0  0  0  0
   37.9770   22.5710   38.0420 H   0  0  0  0  0  0  0  0  0  0  0  0
   39.8010   22.9110   37.0010 C   0  0  0  0  0  0  0  0  0  0  0  0
   40.4960   23.2140   37.7880 H   0  0  0  0  0  0  0  0  0  0  0  0
   40.0880   22.7980   35.7030 N   0  0  0  0  0  0  0  0  0  0  0  0
   35.9910   28.0750   34.7270 F   0  0  0  0  0  0  0  0  0  0  0  0
   36.1530   28.7910   33.5810 C   0  0  0  0  0  0  0  0  0  0  0  0
   35.6830   30.0770   33.5140 C   0  0  0  0  0  0  0  0  0  0  0  0
   35.8740   30.7450   32.3400 C   0  0  0  0  0  0  0  0  0  0  0  0
   36.5050   30.1790   31.2580 C   0  0  0  0  0  0  0  0  0  0  0  0
   36.9760   28.8720   31.3430 C   0  0  0  0  0  0  0  0  0  0  0  0
   36.7890   28.1770   32.5360 C   0  0  0  0  0  0  0  0  0  0  0  0
   35.5140   31.7630   32.2580 H   0  0  0  0  0  0  0  0  0  0  0  0
   36.6550   30.7180   30.3210 H   0  0  0  0  0  0  0  0  0  0  0  0
   37.4800   28.3740   30.5240 H   0  0  0  0  0  0  0  0  0  0  0  0
   35.0180   31.9300   36.7530 C   0  0  0  0  0  0  0  0  0  0  0  0
   35.6830   31.4030   35.6200 C   0  0  0  0  0  0  0  0  0  0  0  0
   35.0190   30.6330   34.6920 C   0  0  0  0  0  0  0  0  0  0  0  0
   33.6960   30.4070   34.9240 N   0  0  0  0  0  0  0  0  0  0  0  0
   33.0530   30.9020   35.9960 C   0  0  0  0  0  0  0  0  0  0  0  0
   33.7030   31.6450   36.8880 N   0  0  0  0  0  0  0  0  0  0  0  0
   35.5480   32.5340   37.4780 H   0  0  0  0  0  0  0  0  0  0  0  0
   36.7360   31.6130   35.4850 H   0  0  0  0  0  0  0  0  0  0  0  0
   31.9920   30.6410   36.0550 H   0  0  0  0  0  0  0  0  0  0  0  0
  1  3  1  0  0  0  0
  2  1  2  0  0  0  0
  3  4  1  0  0  0  0
  5 13  1  0  0  0  0
  5 14  1  0  0  0  0
  6  1  1  0  0  0  0
  6  5  2  0  0  0  0
  7  8  2  0  0  0  0
  7  6  1  0  0  0  0
  8 12  1  0  0  0  0
  9 10  1  0  0  0  0
  9  8  1  0  0  0  0
 10 11  2  0  0  0  0
 11 12  1  0  0  0  0
 12 13  2  0  0  0  0
 13 18  1  0  0  0  0
 15  7  1  0  0  0  0
 16  9  1  0  0  0  0
 17 10  1  0  0  0  0
 18 19  1  0  0  0  0
 19 26  1  0  0  0  0
 19 20  2  0  0  0  0
 20 22  1  0  0  0  0
 21 20  1  0  0  0  0
 22 23  1  0  0  0  0
 24 22  1  0  0  0  0
 24 25  1  0  0  0  0
 26 24  2  0  0  0  0
 28 27  1  0  0  0  0
 29 28  1  0  0  0  0
 29 39  1  0  0  0  0
 30 29  2  0  0  0  0
 31 32  2  0  0  0  0
 31 30  1  0  0  0  0
 32 33  1  0  0  0  0
 33  3  1  0  0  0  0
 33 28  2  0  0  0  0
 34 30  1  0  0  0  0
 35 31  1  0  0  0  0
 36 32  1  0  0  0  0
 37 42  1  0  0  0  0
 37 43  1  0  0  0  0
 38 37  2  0  0  0  0
 39 40  2  0  0  0  0
 39 38  1  0  0  0  0
 40 41  1  0  0  0  0
 41 45  1  0  0  0  0
 41 42  2  0  0  0  0
 44 38  1  0  0  0  0
M  END
>  <minimizedAffinity>
-6.8496604

$$$$

 OpenBabel03272503143D

 45 49  0  0  0  0  0  0  0  0999 V2000
   37.8230   26.3050   35.0830 C   0  0  0  0  0  0  0  0  0  0  0  0
   38.5760   26.7710   35.9940 O   0  0  0  0  0  0  0  0  0  0  0  0
   37.6850   24.8820   35.0550 N   0  0  0  0  0  0  0  0  0  0  0  0
   37.0870   24.4700   34.3170 H   0  0  0  0  0  0  0  0  0  0  0  0
   37.3310   26.9040   32.8150 C   0  0  0  0  0  0  0  0  0  0  0  0
   37.1680   27.2110   34.1590 C   0  0  0  0  0  0  0  0  0  0  0  0
   36.4470   28.2830   34.5900 C   0  0  0  0  0  0  0  0  0  0  0  0
   35.8420   29.1160   33.6670 C   0  0  0  0  0  0  0  0  0  0  0  0
   35.0890   30.2180   33.8040 N   0  0  0  0  0  0  0  0  0  0  0  0
   34.7620   30.6300   32.5760 C   0  0  0  0  0  0  0  0  0  0  0  0
   35.3050   29.7940   31.6730 N   0  0  0  0  0  0  0  0  0  0  0  0
   35.9900   28.8310   32.3380 C   0  0  0  0  0  0  0  0  0  0  0  0
   36.7230   27.7390   31.8640 C   0  0  0  0  0  0  0  0  0  0  0  0
   37.8980   26.0620   32.4850 H   0  0  0  0  0  0  0  0  0  0  0  0
   36.3320   28.5060   35.6530 H   0  0  0  0  0  0  0  0  0  0  0  0
   34.7980   30.6880   34.6770 H   0  0  0  0  0  0  0  0  0  0  0  0
   34.1680   31.4800   32.2650 H   0  0  0  0  0  0  0  0  0  0  0  0
   36.8780   27.4440   30.5290 O   0  0  0  0  0  0  0  0  0  0  0  0
   37.8040   28.1790   29.8010 C   0  0  0  0  0  0  0  0  0  0  0  0
   39.1780   28.3220   29.8800 C   0  0  0  0  0  0  0  0  0  0  0  0
   39.7560   27.7950   30.6310 H   0  0  0  0  0  0  0  0  0  0  0  0
   39.6130   29.1670   28.9260 N   0  0  0  0  0  0  0  0  0  0  0  0
   40.5780   29.4650   28.7390 H   0  0  0  0  0  0  0  0  0  0  0  0
   38.5170   29.5780   28.2230 C   0  0  0  0  0  0  0  0  0  0  0  0
   38.5000   30.2680   27.3760 H   0  0  0  0  0  0  0  0  0  0  0  0
   37.4580   28.9750   28.7650 N   0  0  0  0  0  0  0  0  0  0  0  0
   40.1840   23.8840   34.5980 F   0  0  0  0  0  0  0  0  0  0  0  0
   39.6720   23.7240   35.8490 C   0  0  0  0  0  0  0  0  0  0  0  0
   40.4150   23.0830   36.8070 C   0  0  0  0  0  0  0  0  0  0  0  0
   39.8500   22.9540   38.0430 C   0  0  0  0  0  0  0  0  0  0  0  0
   38.5960   23.4330   38.3390 C   0  0  0  0  0  0  0  0  0  0  0  0
   37.8570   24.0810   37.3550 C   0  0  0  0  0  0  0  0  0  0  0  0
   38.4200   24.2210   36.0880 C   0  0  0  0  0  0  0  0  0  0  0  0
   40.4130   22.4520   38.8200 H   0  0  0  0  0  0  0  0  0  0  0  0
   38.1490   23.3260   39.3290 H   0  0  0  0  0  0  0  0  0  0  0  0
   36.8640   24.4780   37.5310 H   0  0  0  0  0  0  0  0  0  0  0  0
   44.1430   22.8830   36.1510 C   0  0  0  0  0  0  0  0  0  0  0  0
   42.8670   23.3810   36.5120 C   0  0  0  0  0  0  0  0  0  0  0  0
   41.7420   22.5930   36.4400 C   0  0  0  0  0  0  0  0  0  0  0  0
   41.9210   21.3140   36.0060 N   0  0  0  0  0  0  0  0  0  0  0  0
   43.1260   20.8280   35.6600 C   0  0  0  0  0  0  0  0  0  0  0  0
   44.2100   21.5990   35.7320 N   0  0  0  0  0  0  0  0  0  0  0  0
   45.0220   23.5110   36.2100 H   0  0  0  0  0  0  0  0  0  0  0  0
   42.7810   24.4050   36.8500 H   0  0  0  0  0  0  0  0  0  0  0  0
   43.1230   19.7860   35.3290 H   0  0  0  0  0  0  0  0  0  0  0  0
  1  2  2  0  0  0  0
  3  1  1  0  0  0  0
  3 33  1  0  0  0  0
  4  3  1  0  0  0  0
  5  6  1  0  0  0  0
  6  7  2  0  0  0  0
  6  1  1  0  0  0  0
  7 15  1  0  0  0  0
  8  9  1  0  0  0  0
  8  7  1  0  0  0  0
  9 16  1  0  0  0  0
 10  9  1  0  0  0  0
 11 12  1  0  0  0  0
 11 10  2  0  0  0  0
 12  8  2  0  0  0  0
 13 12  1  0  0  0  0
 13  5  2  0  0  0  0
 14  5  1  0  0  0  0
 17 10  1  0  0  0  0
 18 13  1  0  0  0  0
 19 20  2  0  0  0  0
 19 18  1  0  0  0  0
 20 21  1  0  0  0  0
 22 20  1  0  0  0  0
 23 22  1  0  0  0  0
 24 26  2  0  0  0  0
 24 22  1  0  0  0  0
 25 24  1  0  0  0  0
 26 19  1  0  0  0  0
 27 28  1  0  0  0  0
 28 33  2  0  0  0  0
 28 29  1  0  0  0  0
 29 30  2  0  0  0  0
 30 31  1  0  0  0  0
 30 34  1  0  0  0  0
 31 35  1  0  0  0  0
 32 36  1  0  0  0  0
 32 31  2  0  0  0  0
 33 32  1  0  0  0  0
 37 43  1  0  0  0  0
 37 38  1  0  0  0  0
 38 44  1  0  0  0  0
 39 38  2  0  0  0  0
 39 29  1  0  0  0  0
 40 39  1  0  0  0  0
 41 42  1  0  0  0  0
 41 40  2  0  0  0  0
 42 37  2  0  0  0  0
 45 41  1  0  0  0  0
M  END
>  <minimizedAffinity>
-6.39272165

$$$$

 OpenBabel03272503143D

 45 49  0  0  0  0  0  0  0  0999 V2000
   37.7520   26.4840   35.6100 C   0  0  0  0  0  0  0  0  0  0  0  0
   38.4880   26.8890   36.5640 O   0  0  0  0  0  0  0  0  0  0  0  0
   37.6550   25.0650   35.4560 N   0  0  0  0  0  0  0  0  0  0  0  0
   37.0730   24.7020   34.6810 H   0  0  0  0  0  0  0  0  0  0  0  0
   36.8020   27.0140   33.4750 C   0  0  0  0  0  0  0  0  0  0  0  0
   37.0760   27.4480   34.7650 C   0  0  0  0  0  0  0  0  0  0  0  0
   36.7380   28.6880   35.2150 C   0  0  0  0  0  0  0  0  0  0  0  0
   36.0930   29.5710   34.3680 C   0  0  0  0  0  0  0  0  0  0  0  0
   35.6520   30.8270   34.5390 N   0  0  0  0  0  0  0  0  0  0  0  0
   35.0990   31.2140   33.3870 C   0  0  0  0  0  0  0  0  0  0  0  0
   35.1910   30.2090   32.4960 N   0  0  0  0  0  0  0  0  0  0  0  0
   35.8140   29.1640   33.0930 C   0  0  0  0  0  0  0  0  0  0  0  0
   36.1470   27.8970   32.6010 C   0  0  0  0  0  0  0  0  0  0  0  0
   37.0700   26.0410   33.1300 H   0  0  0  0  0  0  0  0  0  0  0  0
   36.9630   29.0090   36.2340 H   0  0  0  0  0  0  0  0  0  0  0  0
   35.7120   31.4150   35.3870 H   0  0  0  0  0  0  0  0  0  0  0  0
   34.6340   32.1540   33.1210 H   0  0  0  0  0  0  0  0  0  0  0  0
   35.8710   27.4780   31.3200 O   0  0  0  0  0  0  0  0  0  0  0  0
   35.8580   26.1130   31.0680 C   0  0  0  0  0  0  0  0  0  0  0  0
   34.8440   25.1900   30.8820 C   0  0  0  0  0  0  0  0  0  0  0  0
   33.8010   25.4860   30.9210 H   0  0  0  0  0  0  0  0  0  0  0  0
   35.3630   23.9670   30.6650 N   0  0  0  0  0  0  0  0  0  0  0  0
   34.8580   23.0880   30.4940 H   0  0  0  0  0  0  0  0  0  0  0  0
   36.7220   24.0930   30.7090 C   0  0  0  0  0  0  0  0  0  0  0  0
   37.4600   23.2990   30.5750 H   0  0  0  0  0  0  0  0  0  0  0  0
   36.9860   25.3780   30.9510 N   0  0  0  0  0  0  0  0  0  0  0  0
   40.1370   24.0790   34.8910 F   0  0  0  0  0  0  0  0  0  0  0  0
   39.6480   23.8460   36.1400 C   0  0  0  0  0  0  0  0  0  0  0  0
   40.4030   23.1430   37.0420 C   0  0  0  0  0  0  0  0  0  0  0  0
   39.8610   22.9420   38.2780 C   0  0  0  0  0  0  0  0  0  0  0  0
   38.6170   23.4110   38.6280 C   0  0  0  0  0  0  0  0  0  0  0  0
   37.8640   24.1230   37.6990 C   0  0  0  0  0  0  0  0  0  0  0  0
   38.4040   24.3370   36.4330 C   0  0  0  0  0  0  0  0  0  0  0  0
   40.4340   22.3900   39.0120 H   0  0  0  0  0  0  0  0  0  0  0  0
   38.1880   23.2470   39.6180 H   0  0  0  0  0  0  0  0  0  0  0  0
   36.8790   24.5160   37.9180 H   0  0  0  0  0  0  0  0  0  0  0  0
   43.2390   20.9160   35.8760 C   0  0  0  0  0  0  0  0  0  0  0  0
   41.9550   21.3540   36.2810 C   0  0  0  0  0  0  0  0  0  0  0  0
   41.7190   22.6660   36.6200 C   0  0  0  0  0  0  0  0  0  0  0  0
   42.7810   23.5150   36.5450 N   0  0  0  0  0  0  0  0  0  0  0  0
   44.0060   23.1120   36.1610 C   0  0  0  0  0  0  0  0  0  0  0  0
   44.2250   21.8400   35.8360 N   0  0  0  0  0  0  0  0  0  0  0  0
   43.4160   19.8810   35.6120 H   0  0  0  0  0  0  0  0  0  0  0  0
   41.1460   20.6370   36.3240 H   0  0  0  0  0  0  0  0  0  0  0  0
   44.7640   23.8990   36.1460 H   0  0  0  0  0  0  0  0  0  0  0  0
  1  2  2  0  0  0  0
  3  1  1  0  0  0  0
  3 33  1  0  0  0  0
  4  3  1  0  0  0  0
  5  6  1  0  0  0  0
  6  7  2  0  0  0  0
  6  1  1  0  0  0  0
  7 15  1  0  0  0  0
  8  9  1  0  0  0  0
  8  7  1  0  0  0  0
  9 16  1  0  0  0  0
 10  9  1  0  0  0  0
 11 12  1  0  0  0  0
 11 10  2  0  0  0  0
 12  8  2  0  0  0  0
 13 12  1  0  0  0  0
 13  5  2  0  0  0  0
 14  5  1  0  0  0  0
 17 10  1  0  0  0  0
 18 13  1  0  0  0  0
 19 18  1  0  0  0  0
 20 21  1  0  0  0  0
 20 19  2  0  0  0  0
 22 24  1  0  0  0  0
 22 20  1  0  0  0  0
 23 22  1  0  0  0  0
 24 26  2  0  0  0  0
 25 24  1  0  0  0  0
 26 19  1  0  0  0  0
 27 28  1  0  0  0  0
 28 33  2  0  0  0  0
 28 29  1  0  0  0  0
 29 30  2  0  0  0  0
 30 31  1  0  0  0  0
 30 34  1  0  0  0  0
 31 35  1  0  0  0  0
 32 36  1  0  0  0  0
 32 31  2  0  0  0  0
 33 32  1  0  0  0  0
 37 38  1  0  0  0  0
 38 44  1  0  0  0  0
 38 39  2  0  0  0  0
 39 29  1  0  0  0  0
 40 39  1  0  0  0  0
 41 40  2  0  0  0  0
 42 37  2  0  0  0  0
 42 41  1  0  0  0  0
 43 37  1  0  0  0  0
 45 41  1  0  0  0  0
M  END
>  <minimizedAffinity>
-6.36170578

$$$$

 OpenBabel03272503143D

 45 49  0  0  0  0  0  0  0  0999 V2000
   37.5920   26.5570   32.7280 C   0  0  0  0  0  0  0  0  0  0  0  0
   38.3930   27.5090   32.9860 O   0  0  0  0  0  0  0  0  0  0  0  0
   36.2840   26.9410   32.2970 N   0  0  0  0  0  0  0  0  0  0  0  0
   35.6040   26.1890   32.0910 H   0  0  0  0  0  0  0  0  0  0  0  0
   38.9240   24.9620   33.9240 C   0  0  0  0  0  0  0  0  0  0  0  0
   38.0360   25.1840   32.8800 C   0  0  0  0  0  0  0  0  0  0  0  0
   37.6050   24.1930   32.0520 C   0  0  0  0  0  0  0  0  0  0  0  0
   38.0580   22.9000   32.2400 C   0  0  0  0  0  0  0  0  0  0  0  0
   37.8060   21.7520   31.5910 N   0  0  0  0  0  0  0  0  0  0  0  0
   38.5140   20.7930   32.1940 C   0  0  0  0  0  0  0  0  0  0  0  0
   39.2060   21.3320   33.2140 N   0  0  0  0  0  0  0  0  0  0  0  0
   38.9330   22.6590   33.2620 C   0  0  0  0  0  0  0  0  0  0  0  0
   39.3950   23.6550   34.1290 C   0  0  0  0  0  0  0  0  0  0  0  0
   39.2570   25.7450   34.5670 H   0  0  0  0  0  0  0  0  0  0  0  0
   36.9050   24.3900   31.2370 H   0  0  0  0  0  0  0  0  0  0  0  0
   37.1890   21.6010   30.7760 H   0  0  0  0  0  0  0  0  0  0  0  0
   38.5820   19.7360   31.9690 H   0  0  0  0  0  0  0  0  0  0  0  0
   40.2760   23.4230   35.1600 O   0  0  0  0  0  0  0  0  0  0  0  0
   39.7550   23.2160   36.4300 C   0  0  0  0  0  0  0  0  0  0  0  0
   40.2110   22.5350   37.5450 C   0  0  0  0  0  0  0  0  0  0  0  0
   41.1640   22.0180   37.5370 H   0  0  0  0  0  0  0  0  0  0  0  0
   39.3180   22.6350   38.5480 N   0  0  0  0  0  0  0  0  0  0  0  0
   39.3820   22.2360   39.4920 H   0  0  0  0  0  0  0  0  0  0  0  0
   38.2750   23.3840   38.0840 C   0  0  0  0  0  0  0  0  0  0  0  0
   37.3720   23.6650   38.6320 H   0  0  0  0  0  0  0  0  0  0  0  0
   38.5620   23.7150   36.8240 N   0  0  0  0  0  0  0  0  0  0  0  0
   35.4920   28.4010   34.4630 F   0  0  0  0  0  0  0  0  0  0  0  0
   35.7110   29.0810   33.3040 C   0  0  0  0  0  0  0  0  0  0  0  0
   35.5300   30.4390   33.2720 C   0  0  0  0  0  0  0  0  0  0  0  0
   35.7660   31.0660   32.0830 C   0  0  0  0  0  0  0  0  0  0  0  0
   36.1660   30.3910   30.9550 C   0  0  0  0  0  0  0  0  0  0  0  0
   36.3450   29.0120   31.0050 C   0  0  0  0  0  0  0  0  0  0  0  0
   36.1090   28.3580   32.2120 C   0  0  0  0  0  0  0  0  0  0  0  0
   35.6310   32.1390   32.0270 H   0  0  0  0  0  0  0  0  0  0  0  0
   36.3530   30.8980   30.0060 H   0  0  0  0  0  0  0  0  0  0  0  0
   36.6590   28.4280   30.1490 H   0  0  0  0  0  0  0  0  0  0  0  0
   33.4050   31.7700   36.1150 C   0  0  0  0  0  0  0  0  0  0  0  0
   33.7940   31.1130   34.9220 C   0  0  0  0  0  0  0  0  0  0  0  0
   35.1030   31.1090   34.4990 C   0  0  0  0  0  0  0  0  0  0  0  0
   35.9990   31.7690   35.2850 N   0  0  0  0  0  0  0  0  0  0  0  0
   35.6430   32.3960   36.4200 C   0  0  0  0  0  0  0  0  0  0  0  0
   34.3730   32.3950   36.8210 N   0  0  0  0  0  0  0  0  0  0  0  0
   32.3730   31.7680   36.4390 H   0  0  0  0  0  0  0  0  0  0  0  0
   33.0410   30.6040   34.3340 H   0  0  0  0  0  0  0  0  0  0  0  0
   36.4640   32.8850   36.9520 H   0  0  0  0  0  0  0  0  0  0  0  0
  1  6  1  0  0  0  0
  1  2  2  0  0  0  0
  3  1  1  0  0  0  0
  4  3  1  0  0  0  0
  5 13  1  0  0  0  0
  5 14  1  0  0  0  0
  6  5  2  0  0  0  0
  7  8  2  0  0  0  0
  7  6  1  0  0  0  0
  8 12  1  0  0  0  0
  9 10  1  0  0  0  0
  9  8  1  0  0  0  0
 10 11  2  0  0  0  0
 11 12  1  0  0  0  0
 12 13  2  0  0  0  0
 13 18  1  0  0  0  0
 15  7  1  0  0  0  0
 16  9  1  0  0  0  0
 17 10  1  0  0  0  0
 18 19  1  0  0  0  0
 19 26  1  0  0  0  0
 19 20  2  0  0  0  0
 20 22  1  0  0  0  0
 21 20  1  0  0  0  0
 22 23  1  0  0  0  0
 24 22  1  0  0  0  0
 24 25  1  0  0  0  0
 26 24  2  0  0  0  0
 28 27  1  0  0  0  0
 29 28  1  0  0  0  0
 29 39  1  0  0  0  0
 30 29  2  0  0  0  0
 31 32  2  0  0  0  0
 31 30  1  0  0  0  0
 32 33  1  0  0  0  0
 33  3  1  0  0  0  0
 33 28  2  0  0  0  0
 34 30  1  0  0  0  0
 35 31  1  0  0  0  0
 36 32  1  0  0  0  0
 37 43  1  0  0  0  0
 37 42  1  0  0  0  0
 38 37  2  0  0  0  0
 39 38  1  0  0  0  0
 39 40  2  0  0  0  0
 40 41  1  0  0  0  0
 41 42  2  0  0  0  0
 41 45  1  0  0  0  0
 44 38  1  0  0  0  0
M  END
>  <minimizedAffinity>
-6.35393286

$$$$

 OpenBabel03272503143D

 45 49  0  0  0  0  0  0  0  0999 V2000
   36.6630   27.1180   31.6650 C   0  0  0  0  0  0  0  0  0  0  0  0
   37.3740   26.7090   32.6350 O   0  0  0  0  0  0  0  0  0  0  0  0
   36.5680   26.2340   30.5450 N   0  0  0  0  0  0  0  0  0  0  0  0
   36.0060   26.5430   29.7330 H   0  0  0  0  0  0  0  0  0  0  0  0
   35.2420   28.6120   32.8880 C   0  0  0  0  0  0  0  0  0  0  0  0
   36.0090   28.4100   31.7480 C   0  0  0  0  0  0  0  0  0  0  0  0
   36.1460   29.3500   30.7730 C   0  0  0  0  0  0  0  0  0  0  0  0
   35.5020   30.5670   30.9010 C   0  0  0  0  0  0  0  0  0  0  0  0
   35.4600   31.6530   30.1130 N   0  0  0  0  0  0  0  0  0  0  0  0
   34.6820   32.5530   30.7200 C   0  0  0  0  0  0  0  0  0  0  0  0
   34.2370   32.0380   31.8810 N   0  0  0  0  0  0  0  0  0  0  0  0
   34.7410   30.7870   32.0150 C   0  0  0  0  0  0  0  0  0  0  0  0
   34.5810   29.8420   33.0350 C   0  0  0  0  0  0  0  0  0  0  0  0
   35.1410   27.8700   33.6470 H   0  0  0  0  0  0  0  0  0  0  0  0
   36.7550   29.1700   29.8850 H   0  0  0  0  0  0  0  0  0  0  0  0
   35.9280   31.8000   29.2030 H   0  0  0  0  0  0  0  0  0  0  0  0
   34.4000   33.5500   30.4070 H   0  0  0  0  0  0  0  0  0  0  0  0
   33.8180   30.0540   34.1590 O   0  0  0  0  0  0  0  0  0  0  0  0
   34.3600   30.8210   35.1820 C   0  0  0  0  0  0  0  0  0  0  0  0
   35.6580   31.1130   35.5650 C   0  0  0  0  0  0  0  0  0  0  0  0
   36.5080   30.7130   35.0240 H   0  0  0  0  0  0  0  0  0  0  0  0
   35.6520   31.9190   36.6440 N   0  0  0  0  0  0  0  0  0  0  0  0
   36.4610   32.3020   37.1500 H   0  0  0  0  0  0  0  0  0  0  0  0
   34.3460   32.1520   36.9660 C   0  0  0  0  0  0  0  0  0  0  0  0
   33.9710   32.7650   37.7890 H   0  0  0  0  0  0  0  0  0  0  0  0
   33.6020   31.4870   36.0810 N   0  0  0  0  0  0  0  0  0  0  0  0
   35.3530   24.0020   31.5410 F   0  0  0  0  0  0  0  0  0  0  0  0
   36.6730   23.9000   31.2250 C   0  0  0  0  0  0  0  0  0  0  0  0
   37.3230   22.7080   31.4140 C   0  0  0  0  0  0  0  0  0  0  0  0
   38.6450   22.6660   31.0780 C   0  0  0  0  0  0  0  0  0  0  0  0
   39.3180   23.7520   30.5720 C   0  0  0  0  0  0  0  0  0  0  0  0
   38.6410   24.9540   30.3860 C   0  0  0  0  0  0  0  0  0  0  0  0
   37.2910   25.0130   30.7240 C   0  0  0  0  0  0  0  0  0  0  0  0
   39.1860   21.7380   31.2170 H   0  0  0  0  0  0  0  0  0  0  0  0
   40.3750   23.7120   30.3060 H   0  0  0  0  0  0  0  0  0  0  0  0
   39.1190   25.8430   29.9910 H   0  0  0  0  0  0  0  0  0  0  0  0
   35.3070   19.5120   31.7040 C   0  0  0  0  0  0  0  0  0  0  0  0
   36.0400   20.5920   31.1560 C   0  0  0  0  0  0  0  0  0  0  0  0
   36.5630   21.5830   31.9550 C   0  0  0  0  0  0  0  0  0  0  0  0
   36.3370   21.4690   33.2930 N   0  0  0  0  0  0  0  0  0  0  0  0
   35.6420   20.4480   33.8270 C   0  0  0  0  0  0  0  0  0  0  0  0
   35.1400   19.4940   33.0460 N   0  0  0  0  0  0  0  0  0  0  0  0
   34.8990   18.7380   31.0680 H   0  0  0  0  0  0  0  0  0  0  0  0
   36.1900   20.6350   30.0860 H   0  0  0  0  0  0  0  0  0  0  0  0
   35.5380   20.4830   34.9150 H   0  0  0  0  0  0  0  0  0  0  0  0
  1  6  1  0  0  0  0
  1  2  2  0  0  0  0
  3 33  1  0  0  0  0
  3  1  1  0  0  0  0
  4  3  1  0  0  0  0
  5 13  1  0  0  0  0
  5 14  1  0  0  0  0
  6  5  2  0  0  0  0
  7  8  2  0  0  0  0
  7  6  1  0  0  0  0
  8 12  1  0  0  0  0
  9 10  1  0  0  0  0
  9  8  1  0  0  0  0
 10 11  2  0  0  0  0
 11 12  1  0  0  0  0
 12 13  2  0  0  0  0
 13 18  1  0  0  0  0
 15  7  1  0  0  0  0
 16  9  1  0  0  0  0
 17 10  1  0  0  0  0
 18 19  1  0  0  0  0
 19 20  2  0  0  0  0
 19 26  1  0  0  0  0
 20 22  1  0  0  0  0
 21 20  1  0  0  0  0
 22 24  1  0  0  0  0
 22 23  1  0  0  0  0
 24 25  1  0  0  0  0
 26 24  2  0  0  0  0
 28 29  1  0  0  0  0
 28 27  1  0  0  0  0
 29 39  1  0  0  0  0
 30 34  1  0  0  0  0
 30 29  2  0  0  0  0
 31 30  1  0  0  0  0
 32 31  2  0  0  0  0
 32 33  1  0  0  0  0
 33 28  2  0  0  0  0
 35 31  1  0  0  0  0
 36 32  1  0  0  0  0
 37 42  1  0  0  0  0
 38 37  2  0  0  0  0
 38 39  1  0  0  0  0
 39 40  2  0  0  0  0
 40 41  1  0  0  0  0
 41 45  1  0  0  0  0
 42 41  2  0  0  0  0
 43 37  1  0  0  0  0
 44 38  1  0  0  0  0
M  END
>  <minimizedAffinity>
-6.31614304

$$$$

 OpenBabel03272503143D

 45 49  0  0  0  0  0  0  0  0999 V2000
   35.9510   28.6740   33.3210 C   0  0  0  0  0  0  0  0  0  0  0  0
   35.4100   28.3860   32.2080 O   0  0  0  0  0  0  0  0  0  0  0  0
   37.2200   28.0650   33.5730 N   0  0  0  0  0  0  0  0  0  0  0  0
   37.6820   28.2690   34.4770 H   0  0  0  0  0  0  0  0  0  0  0  0
   33.9050   29.3800   34.3510 C   0  0  0  0  0  0  0  0  0  0  0  0
   35.2760   29.5730   34.2370 C   0  0  0  0  0  0  0  0  0  0  0  0
   35.9480   30.5320   34.9320 C   0  0  0  0  0  0  0  0  0  0  0  0
   35.2570   31.3630   35.7940 C   0  0  0  0  0  0  0  0  0  0  0  0
   35.6520   32.3700   36.5870 N   0  0  0  0  0  0  0  0  0  0  0  0
   34.5660   32.8340   37.2110 C   0  0  0  0  0  0  0  0  0  0  0  0
   33.4940   32.1230   36.8140 N   0  0  0  0  0  0  0  0  0  0  0  0
   33.9060   31.1910   35.9210 C   0  0  0  0  0  0  0  0  0  0  0  0
   33.1870   30.2150   35.2220 C   0  0  0  0  0  0  0  0  0  0  0  0
   33.3860   28.6260   33.8030 H   0  0  0  0  0  0  0  0  0  0  0  0
   37.0260   30.6650   34.8270 H   0  0  0  0  0  0  0  0  0  0  0  0
   36.6070   32.7440   36.7160 H   0  0  0  0  0  0  0  0  0  0  0  0
   34.4680   33.6380   37.9290 H   0  0  0  0  0  0  0  0  0  0  0  0
   31.8290   30.0340   35.3430 O   0  0  0  0  0  0  0  0  0  0  0  0
   31.3620   28.7560   35.6170 C   0  0  0  0  0  0  0  0  0  0  0  0
   30.6640   27.8190   34.8750 C   0  0  0  0  0  0  0  0  0  0  0  0
   30.3680   28.0200   33.8520 H   0  0  0  0  0  0  0  0  0  0  0  0
   30.4470   26.7120   35.6110 N   0  0  0  0  0  0  0  0  0  0  0  0
   29.9580   25.8530   35.3290 H   0  0  0  0  0  0  0  0  0  0  0  0
   31.0060   26.9290   36.8370 C   0  0  0  0  0  0  0  0  0  0  0  0
   31.0180   26.2400   37.6850 H   0  0  0  0  0  0  0  0  0  0  0  0
   31.5410   28.1500   36.8120 N   0  0  0  0  0  0  0  0  0  0  0  0
   36.7190   25.3820   33.5460 F   0  0  0  0  0  0  0  0  0  0  0  0
   37.4180   25.8920   32.4950 C   0  0  0  0  0  0  0  0  0  0  0  0
   37.8330   25.0580   31.4900 C   0  0  0  0  0  0  0  0  0  0  0  0
   38.5290   25.6270   30.4620 C   0  0  0  0  0  0  0  0  0  0  0  0
   38.8150   26.9700   30.4150 C   0  0  0  0  0  0  0  0  0  0  0  0
   38.3860   27.8020   31.4450 C   0  0  0  0  0  0  0  0  0  0  0  0
   37.6740   27.2370   32.5000 C   0  0  0  0  0  0  0  0  0  0  0  0
   38.8690   24.9930   29.6540 H   0  0  0  0  0  0  0  0  0  0  0  0
   39.3720   27.4190   29.5910 H   0  0  0  0  0  0  0  0  0  0  0  0
   38.5830   28.8680   31.4600 H   0  0  0  0  0  0  0  0  0  0  0  0
   36.0080   21.7440   31.2520 C   0  0  0  0  0  0  0  0  0  0  0  0
   36.3050   23.1250   31.1450 C   0  0  0  0  0  0  0  0  0  0  0  0
   37.5020   23.6380   31.5880 C   0  0  0  0  0  0  0  0  0  0  0  0
   38.3800   22.7500   32.1320 N   0  0  0  0  0  0  0  0  0  0  0  0
   38.1110   21.4370   32.2400 C   0  0  0  0  0  0  0  0  0  0  0  0
   36.9500   20.9500   31.8080 N   0  0  0  0  0  0  0  0  0  0  0  0
   35.0630   21.3500   30.9010 H   0  0  0  0  0  0  0  0  0  0  0  0
   35.5710   23.7860   30.7050 H   0  0  0  0  0  0  0  0  0  0  0  0
   38.9060   20.8410   32.6960 H   0  0  0  0  0  0  0  0  0  0  0  0
  1  3  1  0  0  0  0
  1  6  1  0  0  0  0
  2  1  2  0  0  0  0
  3  4  1  0  0  0  0
  5 13  1  0  0  0  0
  6  5  2  0  0  0  0
  6  7  1  0  0  0  0
  7  8  2  0  0  0  0
  8 12  1  0  0  0  0
  8  9  1  0  0  0  0
  9 16  1  0  0  0  0
  9 10  1  0  0  0  0
 10 17  1  0  0  0  0
 11 10  2  0  0  0  0
 12 11  1  0  0  0  0
 13 18  1  0  0  0  0
 13 12  2  0  0  0  0
 14  5  1  0  0  0  0
 15  7  1  0  0  0  0
 18 19  1  0  0  0  0
 19 26  1  0  0  0  0
 20 22  1  0  0  0  0
 20 19  2  0  0  0  0
 21 20  1  0  0  0  0
 22 24  1  0  0  0  0
 23 22  1  0  0  0  0
 24 25  1  0  0  0  0
 26 24  2  0  0  0  0
 28 33  1  0  0  0  0
 28 27  1  0  0  0  0
 29 39  1  0  0  0  0
 29 28  2  0  0  0  0
 30 29  1  0  0  0  0
 31 30  2  0  0  0  0
 31 32  1  0  0  0  0
 32 36  1  0  0  0  0
 32 33  2  0  0  0  0
 33  3  1  0  0  0  0
 34 30  1  0  0  0  0
 35 31  1  0  0  0  0
 37 42  1  0  0  0  0
 38 37  2  0  0  0  0
 38 39  1  0  0  0  0
 39 40  2  0  0  0  0
 40 41  1  0  0  0  0
 41 45  1  0  0  0  0
 42 41  2  0  0  0  0
 43 37  1  0  0  0  0
 44 38  1  0  0  0  0
M  END
>  <minimizedAffinity>
-6.25260496

$$$$

 OpenBabel03272503143D

 45 49  0  0  0  0  0  0  0  0999 V2000
   37.1080   27.8900   33.4430 C   0  0  0  0  0  0  0  0  0  0  0  0
   37.0820   28.6360   32.4150 O   0  0  0  0  0  0  0  0  0  0  0  0
   36.1630   28.2080   34.4690 N   0  0  0  0  0  0  0  0  0  0  0  0
   36.1660   27.6260   35.3250 H   0  0  0  0  0  0  0  0  0  0  0  0
   37.6150   25.6710   34.1940 C   0  0  0  0  0  0  0  0  0  0  0  0
   38.0580   26.7970   33.5140 C   0  0  0  0  0  0  0  0  0  0  0  0
   39.2940   26.8800   32.9480 C   0  0  0  0  0  0  0  0  0  0  0  0
   40.1630   25.8090   33.0430 C   0  0  0  0  0  0  0  0  0  0  0  0
   41.4130   25.6180   32.5920 N   0  0  0  0  0  0  0  0  0  0  0  0
   41.7860   24.3910   32.9670 C   0  0  0  0  0  0  0  0  0  0  0  0
   40.7800   23.8140   33.6490 N   0  0  0  0  0  0  0  0  0  0  0  0
   39.7470   24.6900   33.7100 C   0  0  0  0  0  0  0  0  0  0  0  0
   38.4840   24.5740   34.3010 C   0  0  0  0  0  0  0  0  0  0  0  0
   36.6450   25.6140   34.6340 H   0  0  0  0  0  0  0  0  0  0  0  0
   39.6230   27.7760   32.4170 H   0  0  0  0  0  0  0  0  0  0  0  0
   42.0040   26.2720   32.0530 H   0  0  0  0  0  0  0  0  0  0  0  0
   42.7180   23.8670   32.7970 H   0  0  0  0  0  0  0  0  0  0  0  0
   38.0560   23.4520   34.9730 O   0  0  0  0  0  0  0  0  0  0  0  0
   38.4500   23.2930   36.2950 C   0  0  0  0  0  0  0  0  0  0  0  0
   39.5220   22.6590   36.8970 C   0  0  0  0  0  0  0  0  0  0  0  0
   40.2750   22.1460   36.3100 H   0  0  0  0  0  0  0  0  0  0  0  0
   39.4490   22.7950   38.2360 N   0  0  0  0  0  0  0  0  0  0  0  0
   40.1010   22.4330   38.9430 H   0  0  0  0  0  0  0  0  0  0  0  0
   38.3250   23.5200   38.5060 C   0  0  0  0  0  0  0  0  0  0  0  0
   37.9550   23.8180   39.4900 H   0  0  0  0  0  0  0  0  0  0  0  0
   37.7520   23.8020   37.3350 N   0  0  0  0  0  0  0  0  0  0  0  0
   36.4310   30.6030   35.7510 F   0  0  0  0  0  0  0  0  0  0  0  0
   35.4680   30.5180   34.7920 C   0  0  0  0  0  0  0  0  0  0  0  0
   34.6910   31.6120   34.5150 C   0  0  0  0  0  0  0  0  0  0  0  0
   33.7430   31.4670   33.5430 C   0  0  0  0  0  0  0  0  0  0  0  0
   33.5560   30.2890   32.8600 C   0  0  0  0  0  0  0  0  0  0  0  0
   34.3550   29.1880   33.1540 C   0  0  0  0  0  0  0  0  0  0  0  0
   35.3260   29.3210   34.1430 C   0  0  0  0  0  0  0  0  0  0  0  0
   33.1140   32.3140   33.3020 H   0  0  0  0  0  0  0  0  0  0  0  0
   32.7960   30.1790   32.0840 H   0  0  0  0  0  0  0  0  0  0  0  0
   34.2520   28.2360   32.6480 H   0  0  0  0  0  0  0  0  0  0  0  0
   36.0820   34.9540   35.6370 C   0  0  0  0  0  0  0  0  0  0  0  0
   35.8690   33.7720   34.8880 C   0  0  0  0  0  0  0  0  0  0  0  0
   34.9300   32.8400   35.2700 C   0  0  0  0  0  0  0  0  0  0  0  0
   34.2240   33.1170   36.4010 N   0  0  0  0  0  0  0  0  0  0  0  0
   34.4170   34.2360   37.1220 C   0  0  0  0  0  0  0  0  0  0  0  0
   35.3270   35.1310   36.7440 N   0  0  0  0  0  0  0  0  0  0  0  0
   36.8220   35.6810   35.3290 H   0  0  0  0  0  0  0  0  0  0  0  0
   36.4580   33.6010   33.9970 H   0  0  0  0  0  0  0  0  0  0  0  0
   33.7800   34.3280   38.0060 H   0  0  0  0  0  0  0  0  0  0  0  0
  1  6  1  0  0  0  0
  1  3  1  0  0  0  0
  2  1  2  0  0  0  0
  3  4  1  0  0  0  0
  5 13  1  0  0  0  0
  5 14  1  0  0  0  0
  6  5  2  0  0  0  0
  7  8  2  0  0  0  0
  7  6  1  0  0  0  0
  8 12  1  0  0  0  0
  9 10  1  0  0  0  0
  9  8  1  0  0  0  0
 10 11  2  0  0  0  0
 11 12  1  0  0  0  0
 12 13  2  0  0  0  0
 13 18  1  0  0  0  0
 15  7  1  0  0  0  0
 16  9  1  0  0  0  0
 17 10  1  0  0  0  0
 18 19  1  0  0  0  0
 19 20  2  0  0  0  0
 19 26  1  0  0  0  0
 20 22  1  0  0  0  0
 21 20  1  0  0  0  0
 22 24  1  0  0  0  0
 22 23  1  0  0  0  0
 24 25  1  0  0  0  0
 26 24  2  0  0  0  0
 28 27  1  0  0  0  0
 29 28  1  0  0  0  0
 29 39  1  0  0  0  0
 30 29  2  0  0  0  0
 31 32  2  0  0  0  0
 31 30  1  0  0  0  0
 32 33  1  0  0  0  0
 33  3  1  0  0  0  0
 33 28  2  0  0  0  0
 34 30  1  0  0  0  0
 35 31  1  0  0  0  0
 36 32  1  0  0  0  0
 37 42  1  0  0  0  0
 38 39  1  0  0  0  0
 38 37  2  0  0  0  0
 39 40  2  0  0  0  0
 40 41  1  0  0  0  0
 41 45  1  0  0  0  0
 42 41  2  0  0  0  0
 43 37  1  0  0  0  0
 44 38  1  0  0  0  0
M  END
>  <minimizedAffinity>
-6.14371204

$$$$
