
 OpenBabel03272500453D

 24 26  0  0  0  0  0  0  0  0999 V2000
   36.5640   30.4300   47.6690 C   0  0  0  0  0  0  0  0  0  0  0  0
   35.8990   30.1830   46.4590 C   0  0  0  0  0  0  0  0  0  0  0  0
   36.6920   30.7060   45.4350 C   0  0  0  0  0  0  0  0  0  0  0  0
   37.7840   31.2390   46.0280 N   0  0  0  0  0  0  0  0  0  0  0  0
   37.6830   31.0640   47.3360 N   0  0  0  0  0  0  0  0  0  0  0  0
   34.9590   29.6970   46.2500 H   0  0  0  0  0  0  0  0  0  0  0  0
   36.5510   30.7290   44.3650 H   0  0  0  0  0  0  0  0  0  0  0  0
   36.8210   29.7990   50.0770 C   0  0  0  0  0  0  0  0  0  0  0  0
   36.0330   30.0250   48.9510 C   0  0  0  0  0  0  0  0  0  0  0  0
   34.6470   29.8450   49.0820 C   0  0  0  0  0  0  0  0  0  0  0  0
   34.1500   29.4650   50.2890 N   0  0  0  0  0  0  0  0  0  0  0  0
   34.9650   29.2570   51.3590 C   0  0  0  0  0  0  0  0  0  0  0  0
   36.3070   29.4250   51.2520 N   0  0  0  0  0  0  0  0  0  0  0  0
   37.8890   29.9350   49.9830 H   0  0  0  0  0  0  0  0  0  0  0  0
   34.0300   30.0150   48.2270 H   0  0  0  0  0  0  0  0  0  0  0  0
   34.3630   28.9630   52.2090 H   0  0  0  0  0  0  0  0  0  0  0  0
   38.9310   31.9040   45.5080 C   0  0  0  0  0  0  0  0  0  0  0  0
   40.2490   31.5830   45.7210 C   0  0  0  0  0  0  0  0  0  0  0  0
   40.6340   30.7700   46.3220 H   0  0  0  0  0  0  0  0  0  0  0  0
   40.9600   32.5080   45.0170 N   0  0  0  0  0  0  0  0  0  0  0  0
   42.0200   32.5610   44.9550 H   0  0  0  0  0  0  0  0  0  0  0  0
   40.1150   33.3630   44.3940 C   0  0  0  0  0  0  0  0  0  0  0  0
   40.3430   34.2110   43.7560 H   0  0  0  0  0  0  0  0  0  0  0  0
   38.8560   32.9820   44.7040 N   0  0  0  0  0  0  0  0  0  0  0  0
  1  9  1  0  0  0  0
  2  1  1  0  0  0  0
  3  4  1  0  0  0  0
  3  2  2  0  0  0  0
  4  5  1  0  0  0  0
  5  1  2  0  0  0  0
  6  2  1  0  0  0  0
  7  3  1  0  0  0  0
  8 13  1  0  0  0  0
  9 10  1  0  0  0  0
  9  8  2  0  0  0  0
 10 11  2  0  0  0  0
 11 12  1  0  0  0  0
 12 16  1  0  0  0  0
 13 12  2  0  0  0  0
 14  8  1  0  0  0  0
 15 10  1  0  0  0  0
 17 18  2  0  0  0  0
 17  4  1  0  0  0  0
 18 19  1  0  0  0  0
 20 18  1  0  0  0  0
 21 20  1  0  0  0  0
 22 24  2  0  0  0  0
 22 20  1  0  0  0  0
 23 22  1  0  0  0  0
 24 17  1  0  0  0  0
M  END
>  <minimizedAffinity>
-4.56132364

>  <minimizedRMSD>
3.57994127

$$$$
