
 OpenBabel03272510313D

 27 29  0  0  0  0  0  0  0  0999 V2000
   36.5920   21.1840   33.3470 C   0  0  0  0  0  0  0  0  0  0  0  0
   35.6540   20.5850   34.1880 C   0  0  0  0  0  0  0  0  0  0  0  0
   35.8190   20.8300   35.5420 C   0  0  0  0  0  0  0  0  0  0  0  0
   36.8490   21.6150   35.9740 N   0  0  0  0  0  0  0  0  0  0  0  0
   37.7470   22.1860   35.1200 C   0  0  0  0  0  0  0  0  0  0  0  0
   37.6080   21.9580   33.7750 N   0  0  0  0  0  0  0  0  0  0  0  0
   34.8530   19.9720   33.8260 H   0  0  0  0  0  0  0  0  0  0  0  0
   35.1710   20.4300   36.2830 H   0  0  0  0  0  0  0  0  0  0  0  0
   36.4310   20.9720   31.8660 C   0  0  0  0  0  0  0  0  0  0  0  0
   35.1620   20.6520   31.2600 C   0  0  0  0  0  0  0  0  0  0  0  0
   35.6320   22.0860   31.1840 C   0  0  0  0  0  0  0  0  0  0  0  0
   37.3730   20.6870   31.3100 H   0  0  0  0  0  0  0  0  0  0  0  0
   35.0800   20.0460   30.3600 H   0  0  0  0  0  0  0  0  0  0  0  0
   34.3030   20.4770   31.9620 H   0  0  0  0  0  0  0  0  0  0  0  0
   35.1910   22.8630   31.8080 H   0  0  0  0  0  0  0  0  0  0  0  0
   35.9700   22.3600   30.1650 H   0  0  0  0  0  0  0  0  0  0  0  0
   38.8590   23.0350   35.5330 C   0  0  0  0  0  0  0  0  0  0  0  0
   39.8040   22.4670   35.2970 H   0  0  0  0  0  0  0  0  0  0  0  0
   38.8720   23.9310   34.9090 H   0  0  0  0  0  0  0  0  0  0  0  0
   38.8100   23.3780   36.9890 C   0  0  0  0  0  0  0  0  0  0  0  0
   39.5330   22.9150   38.0670 C   0  0  0  0  0  0  0  0  0  0  0  0
   40.3040   22.1640   37.9730 H   0  0  0  0  0  0  0  0  0  0  0  0
   39.0540   23.5870   39.1410 N   0  0  0  0  0  0  0  0  0  0  0  0
   39.4200   23.4390   40.1140 H   0  0  0  0  0  0  0  0  0  0  0  0
   38.0820   24.4360   38.7850 C   0  0  0  0  0  0  0  0  0  0  0  0
   37.5210   25.0970   39.4160 H   0  0  0  0  0  0  0  0  0  0  0  0
   37.9340   24.3020   37.4420 N   0  0  0  0  0  0  0  0  0  0  0  0
  1  6  2  0  0  0  0
  1  2  1  0  0  0  0
  2  3  2  0  0  0  0
  3  4  1  0  0  0  0
  3  8  1  0  0  0  0
  5 17  1  0  0  0  0
  5  4  2  0  0  0  0
  6  5  1  0  0  0  0
  7  2  1  0  0  0  0
  9  1  1  0  0  0  0
 10  9  1  0  0  0  0
 10 14  1  0  0  0  0
 11 10  1  0  0  0  0
 11 15  1  0  0  0  0
 11  9  1  0  0  0  0
 12  9  1  0  0  0  0
 13 10  1  0  0  0  0
 16 11  1  0  0  0  0
 17 20  1  0  0  0  0
 18 17  1  0  0  0  0
 19 17  1  0  0  0  0
 20 27  1  0  0  0  0
 20 21  2  0  0  0  0
 21 23  1  0  0  0  0
 22 21  1  0  0  0  0
 23 24  1  0  0  0  0
 25 23  1  0  0  0  0
 25 26  1  0  0  0  0
 27 25  2  0  0  0  0
M  END
>  <minimizedAffinity>
-4.51376009

$$$$

 OpenBabel03272510313D

 27 29  0  0  0  0  0  0  0  0999 V2000
   36.0880   22.8970   31.6270 C   0  0  0  0  0  0  0  0  0  0  0  0
   35.4840   24.0720   31.1810 C   0  0  0  0  0  0  0  0  0  0  0  0
   36.0220   25.2480   31.6790 C   0  0  0  0  0  0  0  0  0  0  0  0
   37.0750   25.2060   32.5470 N   0  0  0  0  0  0  0  0  0  0  0  0
   37.6400   24.0350   32.9600 C   0  0  0  0  0  0  0  0  0  0  0  0
   37.1270   22.8560   32.4840 N   0  0  0  0  0  0  0  0  0  0  0  0
   34.6580   24.0820   30.5000 H   0  0  0  0  0  0  0  0  0  0  0  0
   35.6500   26.2090   31.4160 H   0  0  0  0  0  0  0  0  0  0  0  0
   35.5580   21.5960   31.0860 C   0  0  0  0  0  0  0  0  0  0  0  0
   36.0910   20.3150   31.4820 C   0  0  0  0  0  0  0  0  0  0  0  0
   34.8070   20.7720   32.1360 C   0  0  0  0  0  0  0  0  0  0  0  0
   35.0180   21.6650   30.0960 H   0  0  0  0  0  0  0  0  0  0  0  0
   36.0990   19.4550   30.8160 H   0  0  0  0  0  0  0  0  0  0  0  0
   36.9910   20.3340   32.1520 H   0  0  0  0  0  0  0  0  0  0  0  0
   34.7910   21.1340   33.1640 H   0  0  0  0  0  0  0  0  0  0  0  0
   33.9280   20.2120   31.7620 H   0  0  0  0  0  0  0  0  0  0  0  0
   38.7680   23.9380   33.8800 C   0  0  0  0  0  0  0  0  0  0  0  0
   39.4560   23.1480   33.4660 H   0  0  0  0  0  0  0  0  0  0  0  0
   39.3260   24.8770   33.8590 H   0  0  0  0  0  0  0  0  0  0  0  0
   38.3460   23.5800   35.2710 C   0  0  0  0  0  0  0  0  0  0  0  0
   38.2360   22.3670   35.9150 C   0  0  0  0  0  0  0  0  0  0  0  0
   38.4680   21.4280   35.4320 H   0  0  0  0  0  0  0  0  0  0  0  0
   37.8070   22.6580   37.1660 N   0  0  0  0  0  0  0  0  0  0  0  0
   37.6310   21.9200   37.8920 H   0  0  0  0  0  0  0  0  0  0  0  0
   37.6480   23.9770   37.3270 C   0  0  0  0  0  0  0  0  0  0  0  0
   37.3210   24.4980   38.2060 H   0  0  0  0  0  0  0  0  0  0  0  0
   37.9860   24.5480   36.1430 N   0  0  0  0  0  0  0  0  0  0  0  0
  1  6  1  0  0  0  0
  2  1  2  0  0  0  0
  2  3  1  0  0  0  0
  3  4  2  0  0  0  0
  4  5  1  0  0  0  0
  5 17  1  0  0  0  0
  6  5  2  0  0  0  0
  7  2  1  0  0  0  0
  8  3  1  0  0  0  0
  9 10  1  0  0  0  0
  9  1  1  0  0  0  0
  9 11  1  0  0  0  0
 10 11  1  0  0  0  0
 10 14  1  0  0  0  0
 11 15  1  0  0  0  0
 12  9  1  0  0  0  0
 13 10  1  0  0  0  0
 16 11  1  0  0  0  0
 17 20  1  0  0  0  0
 18 17  1  0  0  0  0
 19 17  1  0  0  0  0
 20 21  2  0  0  0  0
 20 27  1  0  0  0  0
 21 23  1  0  0  0  0
 22 21  1  0  0  0  0
 23 25  1  0  0  0  0
 23 24  1  0  0  0  0
 25 26  1  0  0  0  0
 27 25  2  0  0  0  0
M  END
>  <minimizedAffinity>
-4.37563515

$$$$

 OpenBabel03272510313D

 27 29  0  0  0  0  0  0  0  0999 V2000
   37.1520   26.8380   33.6240 C   0  0  0  0  0  0  0  0  0  0  0  0
   37.3920   27.8710   34.5290 C   0  0  0  0  0  0  0  0  0  0  0  0
   38.0530   27.5090   35.6910 C   0  0  0  0  0  0  0  0  0  0  0  0
   38.4250   26.2100   35.8910 N   0  0  0  0  0  0  0  0  0  0  0  0
   38.1730   25.2260   34.9810 C   0  0  0  0  0  0  0  0  0  0  0  0
   37.5190   25.5570   33.8210 N   0  0  0  0  0  0  0  0  0  0  0  0
   37.0910   28.8840   34.3510 H   0  0  0  0  0  0  0  0  0  0  0  0
   38.2930   28.2050   36.4590 H   0  0  0  0  0  0  0  0  0  0  0  0
   36.4660   27.1920   32.3310 C   0  0  0  0  0  0  0  0  0  0  0  0
   36.4490   28.5350   31.8040 C   0  0  0  0  0  0  0  0  0  0  0  0
   37.4460   27.5640   31.2150 C   0  0  0  0  0  0  0  0  0  0  0  0
   35.6540   26.4790   32.0010 H   0  0  0  0  0  0  0  0  0  0  0  0
   35.6250   28.9160   31.2040 H   0  0  0  0  0  0  0  0  0  0  0  0
   36.8980   29.3320   32.4530 H   0  0  0  0  0  0  0  0  0  0  0  0
   38.5070   27.6220   31.4560 H   0  0  0  0  0  0  0  0  0  0  0  0
   37.1550   27.2350   30.1980 H   0  0  0  0  0  0  0  0  0  0  0  0
   38.5550   23.8280   35.1450 C   0  0  0  0  0  0  0  0  0  0  0  0
   37.7820   23.2150   34.5990 H   0  0  0  0  0  0  0  0  0  0  0  0
   39.5050   23.6560   34.6340 H   0  0  0  0  0  0  0  0  0  0  0  0
   38.6200   23.4160   36.5830 C   0  0  0  0  0  0  0  0  0  0  0  0
   39.6540   22.9320   37.3540 C   0  0  0  0  0  0  0  0  0  0  0  0
   40.6500   22.7770   36.9630 H   0  0  0  0  0  0  0  0  0  0  0  0
   39.1260   22.7330   38.5850 N   0  0  0  0  0  0  0  0  0  0  0  0
   39.6880   22.3630   39.3920 H   0  0  0  0  0  0  0  0  0  0  0  0
   37.8310   23.0670   38.6140 C   0  0  0  0  0  0  0  0  0  0  0  0
   37.1560   23.0160   39.4470 H   0  0  0  0  0  0  0  0  0  0  0  0
   37.5200   23.4920   37.3640 N   0  0  0  0  0  0  0  0  0  0  0  0
  1  6  2  0  0  0  0
  1  2  1  0  0  0  0
  2  3  2  0  0  0  0
  3  4  1  0  0  0  0
  3  8  1  0  0  0  0
  5 17  1  0  0  0  0
  5  4  2  0  0  0  0
  6  5  1  0  0  0  0
  7  2  1  0  0  0  0
  9  1  1  0  0  0  0
 10  9  1  0  0  0  0
 10 14  1  0  0  0  0
 11 15  1  0  0  0  0
 11 10  1  0  0  0  0
 11  9  1  0  0  0  0
 12  9  1  0  0  0  0
 13 10  1  0  0  0  0
 16 11  1  0  0  0  0
 17 20  1  0  0  0  0
 18 17  1  0  0  0  0
 19 17  1  0  0  0  0
 20 21  2  0  0  0  0
 20 27  1  0  0  0  0
 21 23  1  0  0  0  0
 22 21  1  0  0  0  0
 23 25  1  0  0  0  0
 23 24  1  0  0  0  0
 25 26  1  0  0  0  0
 27 25  2  0  0  0  0
M  END
>  <minimizedAffinity>
-4.36281776

$$$$

 OpenBabel03272510313D

 27 29  0  0  0  0  0  0  0  0999 V2000
   38.0400   24.9000   35.3740 C   0  0  0  0  0  0  0  0  0  0  0  0
   37.8310   24.6060   36.7210 C   0  0  0  0  0  0  0  0  0  0  0  0
   37.7340   23.2590   37.0320 C   0  0  0  0  0  0  0  0  0  0  0  0
   37.8420   22.3190   36.0460 N   0  0  0  0  0  0  0  0  0  0  0  0
   38.0460   22.6470   34.7380 C   0  0  0  0  0  0  0  0  0  0  0  0
   38.1460   23.9740   34.4030 N   0  0  0  0  0  0  0  0  0  0  0  0
   37.7500   25.3590   37.4780 H   0  0  0  0  0  0  0  0  0  0  0  0
   37.5750   22.9050   38.0220 H   0  0  0  0  0  0  0  0  0  0  0  0
   38.1850   26.3510   34.9960 C   0  0  0  0  0  0  0  0  0  0  0  0
   38.5410   27.3700   35.9520 C   0  0  0  0  0  0  0  0  0  0  0  0
   39.6350   26.8420   35.0530 C   0  0  0  0  0  0  0  0  0  0  0  0
   37.6390   26.6660   34.0580 H   0  0  0  0  0  0  0  0  0  0  0  0
   38.1980   28.3990   35.8620 H   0  0  0  0  0  0  0  0  0  0  0  0
   38.6170   27.0460   37.0230 H   0  0  0  0  0  0  0  0  0  0  0  0
   40.3980   26.1600   35.4270 H   0  0  0  0  0  0  0  0  0  0  0  0
   39.9210   27.5730   34.2720 H   0  0  0  0  0  0  0  0  0  0  0  0
   38.1740   21.6820   33.6520 C   0  0  0  0  0  0  0  0  0  0  0  0
   38.9460   22.0950   32.9420 H   0  0  0  0  0  0  0  0  0  0  0  0
   38.5840   20.7510   34.0490 H   0  0  0  0  0  0  0  0  0  0  0  0
   36.8800   21.4520   32.9340 C   0  0  0  0  0  0  0  0  0  0  0  0
   35.6950   20.8760   33.3360 C   0  0  0  0  0  0  0  0  0  0  0  0
   35.5490   20.4780   34.3300 H   0  0  0  0  0  0  0  0  0  0  0  0
   34.8750   20.9430   32.2610 N   0  0  0  0  0  0  0  0  0  0  0  0
   33.8910   20.5760   32.2720 H   0  0  0  0  0  0  0  0  0  0  0  0
   35.4870   21.5280   31.2230 C   0  0  0  0  0  0  0  0  0  0  0  0
   35.0880   21.7180   30.2460 H   0  0  0  0  0  0  0  0  0  0  0  0
   36.7360   21.8430   31.6480 N   0  0  0  0  0  0  0  0  0  0  0  0
  1  2  1  0  0  0  0
  2  3  2  0  0  0  0
  2  7  1  0  0  0  0
  3  8  1  0  0  0  0
  4  3  1  0  0  0  0
  5  4  2  0  0  0  0
  6  5  1  0  0  0  0
  6  1  2  0  0  0  0
  9 11  1  0  0  0  0
  9  1  1  0  0  0  0
  9 10  1  0  0  0  0
 10 14  1  0  0  0  0
 11 15  1  0  0  0  0
 11 10  1  0  0  0  0
 12  9  1  0  0  0  0
 13 10  1  0  0  0  0
 16 11  1  0  0  0  0
 17 19  1  0  0  0  0
 17  5  1  0  0  0  0
 18 17  1  0  0  0  0
 20 21  2  0  0  0  0
 20 17  1  0  0  0  0
 21 22  1  0  0  0  0
 23 24  1  0  0  0  0
 23 21  1  0  0  0  0
 25 27  2  0  0  0  0
 25 23  1  0  0  0  0
 26 25  1  0  0  0  0
 27 20  1  0  0  0  0
M  END
>  <minimizedAffinity>
-4.33302259

$$$$

 OpenBabel03272510313D

 27 29  0  0  0  0  0  0  0  0999 V2000
   36.1310   23.4160   31.5530 C   0  0  0  0  0  0  0  0  0  0  0  0
   35.3420   24.4810   31.1180 C   0  0  0  0  0  0  0  0  0  0  0  0
   35.8060   25.7440   31.4490 C   0  0  0  0  0  0  0  0  0  0  0  0
   36.9670   25.8840   32.1560 N   0  0  0  0  0  0  0  0  0  0  0  0
   37.7120   24.8160   32.5630 C   0  0  0  0  0  0  0  0  0  0  0  0
   37.2750   23.5540   32.2500 N   0  0  0  0  0  0  0  0  0  0  0  0
   34.4350   24.3480   30.5650 H   0  0  0  0  0  0  0  0  0  0  0  0
   35.2960   26.6360   31.1770 H   0  0  0  0  0  0  0  0  0  0  0  0
   35.6820   22.0260   31.1870 C   0  0  0  0  0  0  0  0  0  0  0  0
   36.3050   20.8420   31.7250 C   0  0  0  0  0  0  0  0  0  0  0  0
   35.0020   21.2920   32.3460 C   0  0  0  0  0  0  0  0  0  0  0  0
   35.1250   21.9370   30.2070 H   0  0  0  0  0  0  0  0  0  0  0  0
   36.3610   19.9080   31.1700 H   0  0  0  0  0  0  0  0  0  0  0  0
   37.2100   21.0020   32.3690 H   0  0  0  0  0  0  0  0  0  0  0  0
   34.9740   21.7770   33.3210 H   0  0  0  0  0  0  0  0  0  0  0  0
   34.1570   20.6340   32.0620 H   0  0  0  0  0  0  0  0  0  0  0  0
   38.9590   24.9130   33.3130 C   0  0  0  0  0  0  0  0  0  0  0  0
   39.1990   23.8740   33.6780 H   0  0  0  0  0  0  0  0  0  0  0  0
   39.7640   25.1960   32.6310 H   0  0  0  0  0  0  0  0  0  0  0  0
   38.8610   25.8580   34.4700 C   0  0  0  0  0  0  0  0  0  0  0  0
   39.4440   27.0830   34.7090 C   0  0  0  0  0  0  0  0  0  0  0  0
   40.1190   27.5540   34.0080 H   0  0  0  0  0  0  0  0  0  0  0  0
   38.9870   27.4730   35.9230 N   0  0  0  0  0  0  0  0  0  0  0  0
   39.2680   28.3800   36.3720 H   0  0  0  0  0  0  0  0  0  0  0  0
   38.1570   26.5600   36.4410 C   0  0  0  0  0  0  0  0  0  0  0  0
   37.6450   26.5960   37.3830 H   0  0  0  0  0  0  0  0  0  0  0  0
   38.0810   25.5560   35.5320 N   0  0  0  0  0  0  0  0  0  0  0  0
  1  6  1  0  0  0  0
  2  3  1  0  0  0  0
  2  1  2  0  0  0  0
  3  4  2  0  0  0  0
  4  5  1  0  0  0  0
  5 17  1  0  0  0  0
  6  5  2  0  0  0  0
  7  2  1  0  0  0  0
  8  3  1  0  0  0  0
  9  1  1  0  0  0  0
  9 10  1  0  0  0  0
  9 11  1  0  0  0  0
 10 11  1  0  0  0  0
 10 14  1  0  0  0  0
 11 15  1  0  0  0  0
 12  9  1  0  0  0  0
 13 10  1  0  0  0  0
 16 11  1  0  0  0  0
 17 18  1  0  0  0  0
 17 20  1  0  0  0  0
 19 17  1  0  0  0  0
 20 21  2  0  0  0  0
 20 27  1  0  0  0  0
 21 23  1  0  0  0  0
 22 21  1  0  0  0  0
 23 24  1  0  0  0  0
 23 25  1  0  0  0  0
 25 26  1  0  0  0  0
 27 25  2  0  0  0  0
M  END
>  <minimizedAffinity>
-4.19058895

$$$$

 OpenBabel03272510313D

 27 29  0  0  0  0  0  0  0  0999 V2000
   36.2610   25.7240   31.8680 C   0  0  0  0  0  0  0  0  0  0  0  0
   35.5000   24.7970   31.1580 C   0  0  0  0  0  0  0  0  0  0  0  0
   35.8320   23.4670   31.3590 C   0  0  0  0  0  0  0  0  0  0  0  0
   36.8490   23.1370   32.2090 N   0  0  0  0  0  0  0  0  0  0  0  0
   37.5720   24.0730   32.8880 C   0  0  0  0  0  0  0  0  0  0  0  0
   37.2640   25.3980   32.7060 N   0  0  0  0  0  0  0  0  0  0  0  0
   34.7060   25.0790   30.4960 H   0  0  0  0  0  0  0  0  0  0  0  0
   35.3270   22.6660   30.8750 H   0  0  0  0  0  0  0  0  0  0  0  0
   35.9130   27.1790   31.7060 C   0  0  0  0  0  0  0  0  0  0  0  0
   36.8060   28.2400   32.1010 C   0  0  0  0  0  0  0  0  0  0  0  0
   36.7530   27.8800   30.6340 C   0  0  0  0  0  0  0  0  0  0  0  0
   34.8090   27.4100   31.6360 H   0  0  0  0  0  0  0  0  0  0  0  0
   36.4470   29.2070   32.4480 H   0  0  0  0  0  0  0  0  0  0  0  0
   37.7480   27.9310   32.6250 H   0  0  0  0  0  0  0  0  0  0  0  0
   37.5560   27.3190   30.1570 H   0  0  0  0  0  0  0  0  0  0  0  0
   36.2200   28.6460   30.0370 H   0  0  0  0  0  0  0  0  0  0  0  0
   38.6610   23.7710   33.8090 C   0  0  0  0  0  0  0  0  0  0  0  0
   39.2500   22.9270   33.3490 H   0  0  0  0  0  0  0  0  0  0  0  0
   39.3360   24.6290   33.8570 H   0  0  0  0  0  0  0  0  0  0  0  0
   38.1720   23.3800   35.1690 C   0  0  0  0  0  0  0  0  0  0  0  0
   37.7180   22.1800   35.6730 C   0  0  0  0  0  0  0  0  0  0  0  0
   37.6550   21.2830   35.0730 H   0  0  0  0  0  0  0  0  0  0  0  0
   37.4110   22.4240   36.9690 N   0  0  0  0  0  0  0  0  0  0  0  0
   37.0350   21.6840   37.6130 H   0  0  0  0  0  0  0  0  0  0  0  0
   37.6520   23.7000   37.2900 C   0  0  0  0  0  0  0  0  0  0  0  0
   37.5060   24.1790   38.2390 H   0  0  0  0  0  0  0  0  0  0  0  0
   38.1260   24.2920   36.1650 N   0  0  0  0  0  0  0  0  0  0  0  0
  1  6  1  0  0  0  0
  2  3  1  0  0  0  0
  2  1  2  0  0  0  0
  3  4  2  0  0  0  0
  4  5  1  0  0  0  0
  5 17  1  0  0  0  0
  6  5  2  0  0  0  0
  7  2  1  0  0  0  0
  8  3  1  0  0  0  0
  9  1  1  0  0  0  0
  9 10  1  0  0  0  0
 10 13  1  0  0  0  0
 10 14  1  0  0  0  0
 11  9  1  0  0  0  0
 11 10  1  0  0  0  0
 12  9  1  0  0  0  0
 15 11  1  0  0  0  0
 16 11  1  0  0  0  0
 17 19  1  0  0  0  0
 17 20  1  0  0  0  0
 18 17  1  0  0  0  0
 20 21  2  0  0  0  0
 20 27  1  0  0  0  0
 21 23  1  0  0  0  0
 22 21  1  0  0  0  0
 23 25  1  0  0  0  0
 23 24  1  0  0  0  0
 25 26  1  0  0  0  0
 27 25  2  0  0  0  0
M  END
>  <minimizedAffinity>
-4.17192173

$$$$

 OpenBabel03272510313D

 27 29  0  0  0  0  0  0  0  0999 V2000
   35.9330   21.8640   31.7210 C   0  0  0  0  0  0  0  0  0  0  0  0
   37.2330   21.6140   31.2820 C   0  0  0  0  0  0  0  0  0  0  0  0
   37.8910   22.6930   30.7130 C   0  0  0  0  0  0  0  0  0  0  0  0
   37.2630   23.9020   30.6110 N   0  0  0  0  0  0  0  0  0  0  0  0
   35.9890   24.1070   31.0540 C   0  0  0  0  0  0  0  0  0  0  0  0
   35.3140   23.0560   31.6200 N   0  0  0  0  0  0  0  0  0  0  0  0
   37.7060   20.6580   31.3720 H   0  0  0  0  0  0  0  0  0  0  0  0
   38.8840   22.6310   30.3390 H   0  0  0  0  0  0  0  0  0  0  0  0
   35.1920   20.7290   32.3770 C   0  0  0  0  0  0  0  0  0  0  0  0
   35.8500   19.5200   32.8080 C   0  0  0  0  0  0  0  0  0  0  0  0
   35.5430   20.5620   33.8590 C   0  0  0  0  0  0  0  0  0  0  0  0
   34.0830   20.6870   32.1690 H   0  0  0  0  0  0  0  0  0  0  0  0
   35.3470   18.5550   32.8210 H   0  0  0  0  0  0  0  0  0  0  0  0
   36.9370   19.4220   32.5490 H   0  0  0  0  0  0  0  0  0  0  0  0
   36.3260   21.1920   34.2800 H   0  0  0  0  0  0  0  0  0  0  0  0
   34.7040   20.2570   34.5150 H   0  0  0  0  0  0  0  0  0  0  0  0
   35.2790   25.3780   30.9730 C   0  0  0  0  0  0  0  0  0  0  0  0
   34.9400   25.4930   29.9040 H   0  0  0  0  0  0  0  0  0  0  0  0
   34.3730   25.3190   31.5800 H   0  0  0  0  0  0  0  0  0  0  0  0
   36.1340   26.5410   31.3720 C   0  0  0  0  0  0  0  0  0  0  0  0
   36.5510   27.6560   30.6790 C   0  0  0  0  0  0  0  0  0  0  0  0
   36.2780   27.8370   29.6490 H   0  0  0  0  0  0  0  0  0  0  0  0
   37.3070   28.3640   31.5510 N   0  0  0  0  0  0  0  0  0  0  0  0
   37.7660   29.2740   31.2980 H   0  0  0  0  0  0  0  0  0  0  0  0
   37.3760   27.7500   32.7390 C   0  0  0  0  0  0  0  0  0  0  0  0
   37.9000   28.0730   33.6170 H   0  0  0  0  0  0  0  0  0  0  0  0
   36.6430   26.6140   32.6220 N   0  0  0  0  0  0  0  0  0  0  0  0
  1  9  1  0  0  0  0
  2  7  1  0  0  0  0
  2  1  2  0  0  0  0
  3  2  1  0  0  0  0
  4  3  2  0  0  0  0
  4  5  1  0  0  0  0
  5  6  2  0  0  0  0
  6  1  1  0  0  0  0
  8  3  1  0  0  0  0
  9 10  1  0  0  0  0
  9 11  1  0  0  0  0
 10 13  1  0  0  0  0
 10 11  1  0  0  0  0
 11 15  1  0  0  0  0
 11 16  1  0  0  0  0
 12  9  1  0  0  0  0
 14 10  1  0  0  0  0
 17  5  1  0  0  0  0
 17 20  1  0  0  0  0
 17 19  1  0  0  0  0
 18 17  1  0  0  0  0
 20 27  1  0  0  0  0
 21 20  2  0  0  0  0
 21 23  1  0  0  0  0
 22 21  1  0  0  0  0
 23 25  1  0  0  0  0
 24 23  1  0  0  0  0
 25 26  1  0  0  0  0
 27 25  2  0  0  0  0
M  END
>  <minimizedAffinity>
-4.16951227

$$$$

 OpenBabel03272510313D

 27 29  0  0  0  0  0  0  0  0999 V2000
   38.0780   25.5360   32.7110 C   0  0  0  0  0  0  0  0  0  0  0  0
   38.2750   26.8380   33.1700 C   0  0  0  0  0  0  0  0  0  0  0  0
   38.9980   26.9570   34.3460 C   0  0  0  0  0  0  0  0  0  0  0  0
   39.4670   25.8400   34.9770 N   0  0  0  0  0  0  0  0  0  0  0  0
   39.2540   24.5810   34.4960 C   0  0  0  0  0  0  0  0  0  0  0  0
   38.5400   24.4350   33.3340 N   0  0  0  0  0  0  0  0  0  0  0  0
   37.8980   27.7000   32.6580 H   0  0  0  0  0  0  0  0  0  0  0  0
   39.2140   27.8950   34.7980 H   0  0  0  0  0  0  0  0  0  0  0  0
   37.3260   25.3620   31.4190 C   0  0  0  0  0  0  0  0  0  0  0  0
   36.8580   24.0770   30.9610 C   0  0  0  0  0  0  0  0  0  0  0  0
   35.8550   24.9900   31.6270 C   0  0  0  0  0  0  0  0  0  0  0  0
   37.4820   26.1770   30.6520 H   0  0  0  0  0  0  0  0  0  0  0  0
   36.7670   23.8310   29.9040 H   0  0  0  0  0  0  0  0  0  0  0  0
   37.1610   23.1870   31.5730 H   0  0  0  0  0  0  0  0  0  0  0  0
   35.5060   24.8070   32.6430 H   0  0  0  0  0  0  0  0  0  0  0  0
   35.1450   25.4310   30.9000 H   0  0  0  0  0  0  0  0  0  0  0  0
   39.7380   23.3600   35.1300 C   0  0  0  0  0  0  0  0  0  0  0  0
   39.3580   22.5000   34.5080 H   0  0  0  0  0  0  0  0  0  0  0  0
   40.8280   23.3320   35.0630 H   0  0  0  0  0  0  0  0  0  0  0  0
   39.2700   23.2220   36.5450 C   0  0  0  0  0  0  0  0  0  0  0  0
   39.9100   22.7980   37.6890 C   0  0  0  0  0  0  0  0  0  0  0  0
   40.9430   22.4790   37.6930 H   0  0  0  0  0  0  0  0  0  0  0  0
   38.9870   22.8860   38.6760 N   0  0  0  0  0  0  0  0  0  0  0  0
   39.1930   22.6240   39.6720 H   0  0  0  0  0  0  0  0  0  0  0  0
   37.8190   23.3400   38.2050 C   0  0  0  0  0  0  0  0  0  0  0  0
   36.9120   23.5110   38.7510 H   0  0  0  0  0  0  0  0  0  0  0  0
   38.0000   23.5490   36.8770 N   0  0  0  0  0  0  0  0  0  0  0  0
  1  2  2  0  0  0  0
  1  6  1  0  0  0  0
  2  3  1  0  0  0  0
  3  8  1  0  0  0  0
  3  4  2  0  0  0  0
  5  4  1  0  0  0  0
  5 17  1  0  0  0  0
  6  5  2  0  0  0  0
  7  2  1  0  0  0  0
  9 11  1  0  0  0  0
  9  1  1  0  0  0  0
 10  9  1  0  0  0  0
 10 14  1  0  0  0  0
 10 11  1  0  0  0  0
 11 15  1  0  0  0  0
 12  9  1  0  0  0  0
 13 10  1  0  0  0  0
 16 11  1  0  0  0  0
 17 20  1  0  0  0  0
 18 17  1  0  0  0  0
 19 17  1  0  0  0  0
 20 27  1  0  0  0  0
 20 21  2  0  0  0  0
 21 22  1  0  0  0  0
 21 23  1  0  0  0  0
 23 24  1  0  0  0  0
 25 23  1  0  0  0  0
 25 26  1  0  0  0  0
 27 25  2  0  0  0  0
M  END
>  <minimizedAffinity>
-4.16317844

$$$$

 OpenBabel03272510313D

 27 29  0  0  0  0  0  0  0  0999 V2000
   38.1690   24.9870   35.9930 C   0  0  0  0  0  0  0  0  0  0  0  0
   37.6670   24.2690   37.0780 C   0  0  0  0  0  0  0  0  0  0  0  0
   37.4530   22.9180   36.8560 C   0  0  0  0  0  0  0  0  0  0  0  0
   37.7320   22.3730   35.6360 N   0  0  0  0  0  0  0  0  0  0  0  0
   38.2240   23.1080   34.5970 C   0  0  0  0  0  0  0  0  0  0  0  0
   38.4440   24.4480   34.7890 N   0  0  0  0  0  0  0  0  0  0  0  0
   37.4550   24.7180   38.0270 H   0  0  0  0  0  0  0  0  0  0  0  0
   37.0720   22.2640   37.6030 H   0  0  0  0  0  0  0  0  0  0  0  0
   38.4490   26.4520   36.1990 C   0  0  0  0  0  0  0  0  0  0  0  0
   39.1200   27.2610   35.2120 C   0  0  0  0  0  0  0  0  0  0  0  0
   37.6130   27.3550   35.2870 C   0  0  0  0  0  0  0  0  0  0  0  0
   38.4730   26.7960   37.2760 H   0  0  0  0  0  0  0  0  0  0  0  0
   39.7430   28.1120   35.4790 H   0  0  0  0  0  0  0  0  0  0  0  0
   39.5110   26.7240   34.3070 H   0  0  0  0  0  0  0  0  0  0  0  0
   36.9760   26.8870   34.5380 H   0  0  0  0  0  0  0  0  0  0  0  0
   37.2780   28.3090   35.7400 H   0  0  0  0  0  0  0  0  0  0  0  0
   38.5430   22.5710   33.2790 C   0  0  0  0  0  0  0  0  0  0  0  0
   39.6610   22.6490   33.1600 H   0  0  0  0  0  0  0  0  0  0  0  0
   38.3030   21.5060   33.2620 H   0  0  0  0  0  0  0  0  0  0  0  0
   37.8520   23.3090   32.1750 C   0  0  0  0  0  0  0  0  0  0  0  0
   38.3380   24.0380   31.1120 C   0  0  0  0  0  0  0  0  0  0  0  0
   39.3950   24.1770   30.9350 H   0  0  0  0  0  0  0  0  0  0  0  0
   37.2450   24.4750   30.4420 N   0  0  0  0  0  0  0  0  0  0  0  0
   37.3070   25.0650   29.5750 H   0  0  0  0  0  0  0  0  0  0  0  0
   36.1180   24.0560   31.0310 C   0  0  0  0  0  0  0  0  0  0  0  0
   35.1070   24.2450   30.7270 H   0  0  0  0  0  0  0  0  0  0  0  0
   36.5020   23.3290   32.1110 N   0  0  0  0  0  0  0  0  0  0  0  0
  1  9  1  0  0  0  0
  1  2  1  0  0  0  0
  2  7  1  0  0  0  0
  3  2  2  0  0  0  0
  3  8  1  0  0  0  0
  4  3  1  0  0  0  0
  5  6  1  0  0  0  0
  5  4  2  0  0  0  0
  6  1  2  0  0  0  0
  9 12  1  0  0  0  0
 10 11  1  0  0  0  0
 10 13  1  0  0  0  0
 10  9  1  0  0  0  0
 11 16  1  0  0  0  0
 11  9  1  0  0  0  0
 14 10  1  0  0  0  0
 15 11  1  0  0  0  0
 17  5  1  0  0  0  0
 18 17  1  0  0  0  0
 19 17  1  0  0  0  0
 20 17  1  0  0  0  0
 21 20  2  0  0  0  0
 22 21  1  0  0  0  0
 23 25  1  0  0  0  0
 23 21  1  0  0  0  0
 24 23  1  0  0  0  0
 25 27  2  0  0  0  0
 26 25  1  0  0  0  0
 27 20  1  0  0  0  0
M  END
>  <minimizedAffinity>
-4.15556288

$$$$
