
 OpenBabel03272510293D

 27 29  0  0  0  0  0  0  0  0999 V2000
   37.1980   31.3360   49.2060 C   0  0  0  0  0  0  0  0  0  0  0  0
   37.3670   32.6020   49.7650 C   0  0  0  0  0  0  0  0  0  0  0  0
   38.3200   33.4040   49.1570 C   0  0  0  0  0  0  0  0  0  0  0  0
   39.0210   32.9370   48.0820 N   0  0  0  0  0  0  0  0  0  0  0  0
   38.8260   31.6900   47.5620 C   0  0  0  0  0  0  0  0  0  0  0  0
   37.8900   30.8760   48.1470 N   0  0  0  0  0  0  0  0  0  0  0  0
   36.8060   32.9480   50.6090 H   0  0  0  0  0  0  0  0  0  0  0  0
   38.5430   34.3880   49.4890 H   0  0  0  0  0  0  0  0  0  0  0  0
   36.1490   30.4440   49.8150 C   0  0  0  0  0  0  0  0  0  0  0  0
   36.1390   29.0150   49.6230 C   0  0  0  0  0  0  0  0  0  0  0  0
   36.6990   29.5420   50.9240 C   0  0  0  0  0  0  0  0  0  0  0  0
   35.1760   30.9520   50.0870 H   0  0  0  0  0  0  0  0  0  0  0  0
   35.2190   28.4330   49.6110 H   0  0  0  0  0  0  0  0  0  0  0  0
   36.9060   28.6000   48.9170 H   0  0  0  0  0  0  0  0  0  0  0  0
   37.7720   29.5560   51.1180 H   0  0  0  0  0  0  0  0  0  0  0  0
   36.0140   29.3630   51.7760 H   0  0  0  0  0  0  0  0  0  0  0  0
   39.5450   31.1490   46.4140 C   0  0  0  0  0  0  0  0  0  0  0  0
   40.6440   31.2320   46.6520 H   0  0  0  0  0  0  0  0  0  0  0  0
   39.3260   30.0830   46.3280 H   0  0  0  0  0  0  0  0  0  0  0  0
   39.2330   31.8800   45.1450 C   0  0  0  0  0  0  0  0  0  0  0  0
   40.0340   32.5690   44.2600 C   0  0  0  0  0  0  0  0  0  0  0  0
   41.1010   32.6720   44.3990 H   0  0  0  0  0  0  0  0  0  0  0  0
   39.2000   33.0210   43.2940 N   0  0  0  0  0  0  0  0  0  0  0  0
   39.5350   33.5870   42.4750 H   0  0  0  0  0  0  0  0  0  0  0  0
   37.9370   32.6510   43.5330 C   0  0  0  0  0  0  0  0  0  0  0  0
   37.0660   32.8610   42.9440 H   0  0  0  0  0  0  0  0  0  0  0  0
   37.9630   31.9390   44.6890 N   0  0  0  0  0  0  0  0  0  0  0  0
  1  2  1  0  0  0  0
  1  9  1  0  0  0  0
  2  7  1  0  0  0  0
  3  8  1  0  0  0  0
  3  2  2  0  0  0  0
  4  3  1  0  0  0  0
  5  4  2  0  0  0  0
  5  6  1  0  0  0  0
  6  1  2  0  0  0  0
  9 12  1  0  0  0  0
  9 11  1  0  0  0  0
 10  9  1  0  0  0  0
 10 11  1  0  0  0  0
 11 15  1  0  0  0  0
 11 16  1  0  0  0  0
 13 10  1  0  0  0  0
 14 10  1  0  0  0  0
 17 18  1  0  0  0  0
 17  5  1  0  0  0  0
 19 17  1  0  0  0  0
 20 17  1  0  0  0  0
 21 22  1  0  0  0  0
 21 20  2  0  0  0  0
 23 25  1  0  0  0  0
 23 21  1  0  0  0  0
 24 23  1  0  0  0  0
 25 27  2  0  0  0  0
 26 25  1  0  0  0  0
 27 20  1  0  0  0  0
M  END
>  <minimizedAffinity>
-5.15763903

>  <minimizedRMSD>
1.17950749

$$$$
