
 OpenBabel03272510293D

 27 29  0  0  0  0  0  0  0  0999 V2000
   37.1420   31.3050   49.2160 C   0  0  0  0  0  0  0  0  0  0  0  0
   37.3630   32.5400   49.8240 C   0  0  0  0  0  0  0  0  0  0  0  0
   38.3230   33.3400   49.2250 C   0  0  0  0  0  0  0  0  0  0  0  0
   38.9820   32.9010   48.1120 N   0  0  0  0  0  0  0  0  0  0  0  0
   38.7380   31.6850   47.5450 C   0  0  0  0  0  0  0  0  0  0  0  0
   37.7930   30.8720   48.1190 N   0  0  0  0  0  0  0  0  0  0  0  0
   36.8340   32.8640   50.6970 H   0  0  0  0  0  0  0  0  0  0  0  0
   38.5830   34.3030   49.5930 H   0  0  0  0  0  0  0  0  0  0  0  0
   36.0840   30.4170   49.8140 C   0  0  0  0  0  0  0  0  0  0  0  0
   36.0740   28.9870   49.6270 C   0  0  0  0  0  0  0  0  0  0  0  0
   36.6180   29.5170   50.9330 C   0  0  0  0  0  0  0  0  0  0  0  0
   35.1090   30.9270   50.0720 H   0  0  0  0  0  0  0  0  0  0  0  0
   35.1530   28.4070   49.6050 H   0  0  0  0  0  0  0  0  0  0  0  0
   36.8490   28.5680   48.9310 H   0  0  0  0  0  0  0  0  0  0  0  0
   37.6880   29.5290   51.1400 H   0  0  0  0  0  0  0  0  0  0  0  0
   35.9220   29.3420   51.7760 H   0  0  0  0  0  0  0  0  0  0  0  0
   39.4100   31.1740   46.3560 C   0  0  0  0  0  0  0  0  0  0  0  0
   40.3580   31.7720   46.2390 H   0  0  0  0  0  0  0  0  0  0  0  0
   39.7150   30.1410   46.5360 H   0  0  0  0  0  0  0  0  0  0  0  0
   38.5680   31.2930   45.1240 C   0  0  0  0  0  0  0  0  0  0  0  0
   38.2260   30.3800   44.1510 C   0  0  0  0  0  0  0  0  0  0  0  0
   38.5670   29.3530   44.1700 H   0  0  0  0  0  0  0  0  0  0  0  0
   37.4410   31.0550   43.2790 N   0  0  0  0  0  0  0  0  0  0  0  0
   37.0260   30.6060   42.4240 H   0  0  0  0  0  0  0  0  0  0  0  0
   37.2810   32.3270   43.6570 C   0  0  0  0  0  0  0  0  0  0  0  0
   36.7160   33.0940   43.1670 H   0  0  0  0  0  0  0  0  0  0  0  0
   37.9860   32.4720   44.8090 N   0  0  0  0  0  0  0  0  0  0  0  0
  1  9  1  0  0  0  0
  1  2  1  0  0  0  0
  2  7  1  0  0  0  0
  3  8  1  0  0  0  0
  3  2  2  0  0  0  0
  4  3  1  0  0  0  0
  5  4  2  0  0  0  0
  5  6  1  0  0  0  0
  6  1  2  0  0  0  0
  9 12  1  0  0  0  0
  9 11  1  0  0  0  0
 10  9  1  0  0  0  0
 10 11  1  0  0  0  0
 11 15  1  0  0  0  0
 11 16  1  0  0  0  0
 13 10  1  0  0  0  0
 14 10  1  0  0  0  0
 17 19  1  0  0  0  0
 17  5  1  0  0  0  0
 18 17  1  0  0  0  0
 20 17  1  0  0  0  0
 21 22  1  0  0  0  0
 21 20  2  0  0  0  0
 23 25  1  0  0  0  0
 23 21  1  0  0  0  0
 24 23  1  0  0  0  0
 25 27  2  0  0  0  0
 26 25  1  0  0  0  0
 27 20  1  0  0  0  0
M  END
>  <minimizedAffinity>
-5.08422089

>  <minimizedRMSD>
0.546948373

$$$$
