
 OpenBabel03272506463D

 41 44  0  0  1  0  0  0  0  0999 V2000
   31.1520   28.1040   47.4260 C   0  0  2  0  0  0  0  0  0  0  0  0
   32.2340   27.4130   48.2040 C   0  0  1  0  0  0  0  0  0  0  0  0
   32.0220   26.0700   48.1180 O   0  0  0  0  0  0  0  0  0  0  0  0
   31.0700   25.8140   47.1370 C   0  0  0  0  0  0  0  0  0  0  0  0
   30.9690   27.0540   46.2820 C   0  0  1  0  0  0  0  0  0  0  0  0
   30.2010   28.1990   47.9410 H   0  0  0  0  0  0  0  0  0  0  0  0
   32.2610   27.8050   49.2480 H   0  0  0  0  0  0  0  0  0  0  0  0
   30.1700   25.5120   47.6510 H   0  0  0  0  0  0  0  0  0  0  0  0
   31.4720   25.0020   46.4590 H   0  0  0  0  0  0  0  0  0  0  0  0
   31.8220   27.2090   45.6300 H   0  0  0  0  0  0  0  0  0  0  0  0
   31.6320   29.3080   46.8720 O   0  0  0  0  0  0  0  0  0  0  0  0
   31.9990   29.0710   45.9840 H   0  0  0  0  0  0  0  0  0  0  0  0
   33.8340   27.7840   47.3790 S   0  0  0  0  0  0  0  0  0  0  0  0
   35.5780   29.3410   50.5750 C   0  0  0  0  0  0  0  0  0  0  0  0
   36.2440   30.4760   50.1060 C   0  0  0  0  0  0  0  0  0  0  0  0
   36.1500   30.7730   48.7390 C   0  0  0  0  0  0  0  0  0  0  0  0
   35.4180   29.9440   47.9450 N   0  0  0  0  0  0  0  0  0  0  0  0
   34.7900   28.8550   48.4450 C   0  0  0  0  0  0  0  0  0  0  0  0
   34.8610   28.5380   49.7640 N   0  0  0  0  0  0  0  0  0  0  0  0
   35.6880   29.1650   51.6350 H   0  0  0  0  0  0  0  0  0  0  0  0
   36.8250   31.1320   50.7360 H   0  0  0  0  0  0  0  0  0  0  0  0
   36.6200   31.6160   48.2840 H   0  0  0  0  0  0  0  0  0  0  0  0
   29.7080   27.1310   45.7440 O   0  0  0  0  0  0  0  0  0  0  0  0
   29.1930   29.7830   44.5990 Cl  0  0  0  0  0  0  0  0  0  0  0  0
   28.3100   28.9570   45.8600 C   0  0  0  0  0  0  0  0  0  0  0  0
   28.6440   27.6980   46.3030 C   0  0  0  0  0  0  0  0  0  0  0  0
   27.8500   27.1130   47.2910 C   0  0  0  0  0  0  0  0  0  0  0  0
   26.7620   27.7890   47.8020 C   0  0  0  0  0  0  0  0  0  0  0  0
   26.4190   29.0560   47.3630 C   0  0  0  0  0  0  0  0  0  0  0  0
   27.2200   29.6430   46.3690 C   0  0  0  0  0  0  0  0  0  0  0  0
   28.0360   26.1290   47.6880 H   0  0  0  0  0  0  0  0  0  0  0  0
   26.1670   27.3100   48.5670 H   0  0  0  0  0  0  0  0  0  0  0  0
   25.5660   29.4840   47.8230 H   0  0  0  0  0  0  0  0  0  0  0  0
   26.7540   30.9680   45.9990 C   0  0  0  0  0  0  0  0  0  0  0  0
   26.5160   32.1170   46.7110 C   0  0  0  0  0  0  0  0  0  0  0  0
   26.6390   32.2630   47.7610 H   0  0  0  0  0  0  0  0  0  0  0  0
   26.0830   33.1390   45.9820 N   0  0  0  0  0  0  0  0  0  0  0  0
   25.8250   34.1120   46.2420 H   0  0  0  0  0  0  0  0  0  0  0  0
   26.0340   32.6410   44.7360 C   0  0  0  0  0  0  0  0  0  0  0  0
   25.7450   33.0830   43.7920 H   0  0  0  0  0  0  0  0  0  0  0  0
   26.4330   31.3620   44.7660 N   0  0  0  0  0  0  0  0  0  0  0  0
  1  6  1  1  0  0  0
  1  2  1  0  0  0  0
  2  7  1  1  0  0  0
  3  2  1  0  0  0  0
  4  8  1  0  0  0  0
  4  3  1  0  0  0  0
  5 10  1  6  0  0  0
  5  4  1  0  0  0  0
  5  1  1  0  0  0  0
  9  4  1  0  0  0  0
 11  1  1  0  0  0  0
 12 11  1  0  0  0  0
 13  2  1  0  0  0  0
 13 18  1  0  0  0  0
 14 20  1  0  0  0  0
 15 14  1  0  0  0  0
 15 21  1  0  0  0  0
 16 15  2  0  0  0  0
 17 18  2  0  0  0  0
 17 16  1  0  0  0  0
 18 19  1  0  0  0  0
 19 14  2  0  0  0  0
 22 16  1  0  0  0  0
 23  5  1  0  0  0  0
 23 26  1  0  0  0  0
 24 25  1  0  0  0  0
 25 26  2  0  0  0  0
 25 30  1  0  0  0  0
 26 27  1  0  0  0  0
 27 31  1  0  0  0  0
 27 28  2  0  0  0  0
 28 32  1  0  0  0  0
 29 28  1  0  0  0  0
 29 33  1  0  0  0  0
 30 29  2  0  0  0  0
 34 30  1  0  0  0  0
 34 35  2  0  0  0  0
 35 36  1  0  0  0  0
 37 38  1  0  0  0  0
 37 35  1  0  0  0  0
 39 41  2  0  0  0  0
 39 37  1  0  0  0  0
 40 39  1  0  0  0  0
 41 34  1  0  0  0  0
M  END
>  <minimizedAffinity>
-5.66734266

>  <minimizedRMSD>
1.81860197

$$$$
