
 OpenBabel03272510163D

 27 29  0  0  0  0  0  0  0  0999 V2000
   37.3150   29.3550   51.0570 Br  0  0  0  0  0  0  0  0  0  0  0  0
   35.9730   29.3390   49.7070 C   0  0  0  0  0  0  0  0  0  0  0  0
   35.9920   30.2560   48.6590 C   0  0  0  0  0  0  0  0  0  0  0  0
   34.9900   30.1830   47.7210 C   0  0  0  0  0  0  0  0  0  0  0  0
   33.9740   29.2410   47.7800 C   0  0  0  0  0  0  0  0  0  0  0  0
   33.9790   28.3480   48.8230 C   0  0  0  0  0  0  0  0  0  0  0  0
   34.9790   28.4070   49.7750 C   0  0  0  0  0  0  0  0  0  0  0  0
   35.0390   30.9160   46.9190 H   0  0  0  0  0  0  0  0  0  0  0  0
   33.2100   27.5880   48.9230 H   0  0  0  0  0  0  0  0  0  0  0  0
   34.9430   27.6780   50.5850 H   0  0  0  0  0  0  0  0  0  0  0  0
   37.9980   33.1930   49.4380 C   0  0  0  0  0  0  0  0  0  0  0  0
   39.0270   33.1890   48.4710 C   0  0  0  0  0  0  0  0  0  0  0  0
   39.0080   32.1440   47.5440 C   0  0  0  0  0  0  0  0  0  0  0  0
   38.0140   31.2120   47.6310 N   0  0  0  0  0  0  0  0  0  0  0  0
   37.0490   31.2570   48.5750 C   0  0  0  0  0  0  0  0  0  0  0  0
   37.0350   32.2600   49.4940 N   0  0  0  0  0  0  0  0  0  0  0  0
   37.9620   33.9850   50.1870 H   0  0  0  0  0  0  0  0  0  0  0  0
   39.7780   33.9560   48.4620 H   0  0  0  0  0  0  0  0  0  0  0  0
   39.7660   32.0900   46.7850 H   0  0  0  0  0  0  0  0  0  0  0  0
   32.9280   29.1940   46.7650 C   0  0  0  0  0  0  0  0  0  0  0  0
   32.5030   30.2780   46.0190 C   0  0  0  0  0  0  0  0  0  0  0  0
   32.8960   31.2720   46.1040 H   0  0  0  0  0  0  0  0  0  0  0  0
   31.5290   29.8240   45.2000 N   0  0  0  0  0  0  0  0  0  0  0  0
   31.0600   30.5020   44.5340 H   0  0  0  0  0  0  0  0  0  0  0  0
   31.3490   28.4960   45.4270 C   0  0  0  0  0  0  0  0  0  0  0  0
   30.6070   27.9910   44.8500 H   0  0  0  0  0  0  0  0  0  0  0  0
   32.2270   28.1260   46.4020 N   0  0  0  0  0  0  0  0  0  0  0  0
  2  7  1  0  0  0  0
  2  1  1  0  0  0  0
  3  2  2  0  0  0  0
  4  5  2  0  0  0  0
  4  3  1  0  0  0  0
  5  6  1  0  0  0  0
  6  9  1  0  0  0  0
  6  7  2  0  0  0  0
  7 10  1  0  0  0  0
  8  4  1  0  0  0  0
 11 16  1  0  0  0  0
 11 17  1  0  0  0  0
 12 11  2  0  0  0  0
 13 14  2  0  0  0  0
 13 12  1  0  0  0  0
 14 15  1  0  0  0  0
 15  3  1  0  0  0  0
 15 16  2  0  0  0  0
 18 12  1  0  0  0  0
 19 13  1  0  0  0  0
 20  5  1  0  0  0  0
 21 22  1  0  0  0  0
 21 20  2  0  0  0  0
 23 25  1  0  0  0  0
 23 21  1  0  0  0  0
 24 23  1  0  0  0  0
 25 27  2  0  0  0  0
 26 25  1  0  0  0  0
 27 20  1  0  0  0  0
M  END
>  <minimizedAffinity>
-5.79675531

>  <minimizedRMSD>
0.362973779

$$$$
