
 OpenBabel03262522183D

 23 24  0  0  0  0  0  0  0  0999 V2000
   37.1920   33.6630   49.6580 O   0  0  0  0  0  0  0  0  0  0  0  0
   38.4500   32.9850   49.1230 P   0  0  1  0  0  0  0  0  0  0  0  0
   39.7940   33.8660   49.6930 O   0  0  0  0  0  0  0  0  0  0  0  0
   39.5140   34.5520   50.3370 H   0  0  0  0  0  0  0  0  0  0  0  0
   38.5490   31.4510   49.8470 O   0  0  0  0  0  0  0  0  0  0  0  0
   37.0920   30.2370   51.2870 C   0  0  0  0  0  0  0  0  0  0  0  0
   37.5510   30.5430   49.9960 C   0  0  0  0  0  0  0  0  0  0  0  0
   36.9260   29.8690   48.9330 C   0  0  0  0  0  0  0  0  0  0  0  0
   35.9320   28.9730   49.1890 N   0  0  0  0  0  0  0  0  0  0  0  0
   35.5340   28.7230   50.4640 C   0  0  0  0  0  0  0  0  0  0  0  0
   36.1080   29.3480   51.5110 N   0  0  0  0  0  0  0  0  0  0  0  0
   37.5420   30.7300   52.1370 H   0  0  0  0  0  0  0  0  0  0  0  0
   37.2640   30.0880   47.9230 H   0  0  0  0  0  0  0  0  0  0  0  0
   34.7370   27.9850   50.4500 H   0  0  0  0  0  0  0  0  0  0  0  0
   38.3810   32.9650   47.4680 O   0  0  0  0  0  0  0  0  0  0  0  0
   39.3560   32.4770   46.6090 C   0  0  0  0  0  0  0  0  0  0  0  0
   39.3820   31.1030   46.4120 C   0  0  0  0  0  0  0  0  0  0  0  0
   38.7980   30.2620   46.7830 H   0  0  0  0  0  0  0  0  0  0  0  0
   40.4040   30.8580   45.5470 N   0  0  0  0  0  0  0  0  0  0  0  0
   40.7370   29.9500   45.1600 H   0  0  0  0  0  0  0  0  0  0  0  0
   41.0020   32.0370   45.2090 C   0  0  0  0  0  0  0  0  0  0  0  0
   41.8420   32.1650   44.5390 H   0  0  0  0  0  0  0  0  0  0  0  0
   40.3460   33.0120   45.8690 N   0  0  0  0  0  0  0  0  0  0  0  0
  2  1  2  1  0  0  0
  2  3  1  0  0  0  0
  2  5  1  0  0  0  0
  3  4  1  0  0  0  0
  5  7  1  0  0  0  0
  6 11  1  0  0  0  0
  6 12  1  0  0  0  0
  7  6  2  0  0  0  0
  8  9  2  0  0  0  0
  8  7  1  0  0  0  0
  9 10  1  0  0  0  0
 10 11  2  0  0  0  0
 13  8  1  0  0  0  0
 14 10  1  0  0  0  0
 15  2  1  0  0  0  0
 16 15  1  0  0  0  0
 17 16  2  0  0  0  0
 17 18  1  0  0  0  0
 19 17  1  0  0  0  0
 20 19  1  0  0  0  0
 21 19  1  0  0  0  0
 21 23  2  0  0  0  0
 22 21  1  0  0  0  0
 23 16  1  0  0  0  0
M  END
>  <minimizedAffinity>
-4.70500755

>  <minimizedRMSD>
1.11369848

$$$$
