
 OpenBabel03272510293D

 27 29  0  0  0  0  0  0  0  0999 V2000
   37.1420   31.3050   49.2160 C   0  0  0  0  0  0  0  0  0  0  0  0
   37.3620   32.5400   49.8240 C   0  0  0  0  0  0  0  0  0  0  0  0
   38.3220   33.3410   49.2250 C   0  0  0  0  0  0  0  0  0  0  0  0
   38.9820   32.9020   48.1120 N   0  0  0  0  0  0  0  0  0  0  0  0
   38.7370   31.6850   47.5450 C   0  0  0  0  0  0  0  0  0  0  0  0
   37.7930   30.8720   48.1190 N   0  0  0  0  0  0  0  0  0  0  0  0
   36.8330   32.8640   50.6970 H   0  0  0  0  0  0  0  0  0  0  0  0
   38.5820   34.3030   49.5930 H   0  0  0  0  0  0  0  0  0  0  0  0
   36.0840   30.4160   49.8140 C   0  0  0  0  0  0  0  0  0  0  0  0
   36.0740   28.9860   49.6260 C   0  0  0  0  0  0  0  0  0  0  0  0
   36.6190   29.5170   50.9330 C   0  0  0  0  0  0  0  0  0  0  0  0
   35.1090   30.9270   50.0730 H   0  0  0  0  0  0  0  0  0  0  0  0
   35.1530   28.4060   49.6050 H   0  0  0  0  0  0  0  0  0  0  0  0
   36.8490   28.5680   48.9310 H   0  0  0  0  0  0  0  0  0  0  0  0
   37.6890   29.5290   51.1400 H   0  0  0  0  0  0  0  0  0  0  0  0
   35.9220   29.3410   51.7760 H   0  0  0  0  0  0  0  0  0  0  0  0
   39.4100   31.1750   46.3560 C   0  0  0  0  0  0  0  0  0  0  0  0
   40.3580   31.7730   46.2390 H   0  0  0  0  0  0  0  0  0  0  0  0
   39.7160   30.1420   46.5360 H   0  0  0  0  0  0  0  0  0  0  0  0
   38.5680   31.2930   45.1240 C   0  0  0  0  0  0  0  0  0  0  0  0
   38.2230   30.3780   44.1540 C   0  0  0  0  0  0  0  0  0  0  0  0
   38.5630   29.3510   44.1750 H   0  0  0  0  0  0  0  0  0  0  0  0
   37.4380   31.0530   43.2800 N   0  0  0  0  0  0  0  0  0  0  0  0
   37.0220   30.6040   42.4260 H   0  0  0  0  0  0  0  0  0  0  0  0
   37.2810   32.3270   43.6570 C   0  0  0  0  0  0  0  0  0  0  0  0
   36.7170   33.0930   43.1660 H   0  0  0  0  0  0  0  0  0  0  0  0
   37.9870   32.4720   44.8080 N   0  0  0  0  0  0  0  0  0  0  0  0
  1  9  1  0  0  0  0
  1  2  1  0  0  0  0
  2  7  1  0  0  0  0
  3  8  1  0  0  0  0
  3  2  2  0  0  0  0
  4  3  1  0  0  0  0
  5  4  2  0  0  0  0
  5  6  1  0  0  0  0
  6  1  2  0  0  0  0
  9 12  1  0  0  0  0
  9 11  1  0  0  0  0
 10  9  1  0  0  0  0
 10 11  1  0  0  0  0
 11 15  1  0  0  0  0
 11 16  1  0  0  0  0
 13 10  1  0  0  0  0
 14 10  1  0  0  0  0
 17 19  1  0  0  0  0
 17  5  1  0  0  0  0
 18 17  1  0  0  0  0
 20 17  1  0  0  0  0
 21 22  1  0  0  0  0
 21 20  2  0  0  0  0
 23 25  1  0  0  0  0
 23 21  1  0  0  0  0
 24 23  1  0  0  0  0
 25 27  2  0  0  0  0
 26 25  1  0  0  0  0
 27 20  1  0  0  0  0
M  END
>  <minimizedAffinity>
-5.08722162

>  <minimizedRMSD>
0.512670577

$$$$
