
 OpenBabel03272508563D

 39 42  0  0  1  0  0  0  0  0999 V2000
   38.3550   31.9020   44.5050 C   0  0  0  0  0  0  0  0  0  0  0  0
   37.2460   32.4480   44.4040 O   0  0  0  0  0  0  0  0  0  0  0  0
   38.9410   31.6370   45.8120 N   0  0  0  0  0  0  0  0  0  0  0  0
   39.9250   31.3960   45.9560 H   0  0  0  0  0  0  0  0  0  0  0  0
   39.1480   31.4880   43.3210 C   0  0  0  0  0  0  0  0  0  0  0  0
   40.1410   30.5610   43.4670 C   0  0  0  0  0  0  0  0  0  0  0  0
   40.8480   30.2200   42.3250 C   0  0  0  0  0  0  0  0  0  0  0  0
   40.5190   30.8180   41.1350 C   0  0  0  0  0  0  0  0  0  0  0  0
   39.5140   31.7550   40.9910 C   0  0  0  0  0  0  0  0  0  0  0  0
   38.8570   32.0550   42.1210 N   0  0  0  0  0  0  0  0  0  0  0  0
   40.3950   30.0950   44.4070 H   0  0  0  0  0  0  0  0  0  0  0  0
   41.6320   29.5060   42.3780 H   0  0  0  0  0  0  0  0  0  0  0  0
   41.0890   30.5380   40.2400 H   0  0  0  0  0  0  0  0  0  0  0  0
   39.2060   32.3600   39.6980 C   0  0  0  0  0  0  0  0  0  0  0  0
   38.7790   33.5390   39.6830 O   0  0  0  0  0  0  0  0  0  0  0  0
   39.3920   31.6100   38.4610 C   0  0  0  0  0  0  0  0  0  0  0  0
   38.5370   30.6310   38.0000 C   0  0  0  0  0  0  0  0  0  0  0  0
   37.6190   30.2370   38.4200 H   0  0  0  0  0  0  0  0  0  0  0  0
   39.0970   30.2180   36.8380 N   0  0  0  0  0  0  0  0  0  0  0  0
   38.7440   29.4760   36.1790 H   0  0  0  0  0  0  0  0  0  0  0  0
   40.2470   30.8960   36.5680 C   0  0  0  0  0  0  0  0  0  0  0  0
   40.8830   30.7580   35.7080 H   0  0  0  0  0  0  0  0  0  0  0  0
   40.4170   31.7690   37.6040 N   0  0  0  0  0  0  0  0  0  0  0  0
   38.4400   31.1020   48.1830 C   0  0  2  0  0  0  0  0  0  0  0  0
   38.6780   32.5700   48.1130 C   0  0  0  0  0  0  0  0  0  0  0  0
   38.0670   31.7260   46.9540 C   0  0  1  0  0  0  0  0  0  0  0  0
   39.3620   30.4840   48.2580 H   0  0  0  0  0  0  0  0  0  0  0  0
   39.7050   32.9120   48.0100 H   0  0  0  0  0  0  0  0  0  0  0  0
   37.9950   33.2260   48.6720 H   0  0  0  0  0  0  0  0  0  0  0  0
   36.9870   31.9580   46.7650 H   0  0  0  0  0  0  0  0  0  0  0  0
   35.0680   30.2410   49.4990 C   0  0  0  0  0  0  0  0  0  0  0  0
   35.3980   29.5460   50.7120 C   0  0  0  0  0  0  0  0  0  0  0  0
   36.7840   29.4010   51.0470 C   0  0  0  0  0  0  0  0  0  0  0  0
   37.7460   29.9190   50.2150 N   0  0  0  0  0  0  0  0  0  0  0  0
   37.3620   30.5600   49.0920 C   0  0  0  0  0  0  0  0  0  0  0  0
   36.0370   30.7370   48.7070 N   0  0  0  0  0  0  0  0  0  0  0  0
   34.0140   30.3320   49.2760 H   0  0  0  0  0  0  0  0  0  0  0  0
   34.6380   29.1510   51.3480 H   0  0  0  0  0  0  0  0  0  0  0  0
   37.0430   28.8810   51.9580 H   0  0  0  0  0  0  0  0  0  0  0  0
  1  3  1  0  0  0  0
  2  1  2  0  0  0  0
  3  4  1  0  0  0  0
  3 26  1  0  0  0  0
  5  6  1  0  0  0  0
  5  1  1  0  0  0  0
  6 11  1  0  0  0  0
  7 12  1  0  0  0  0
  7  6  2  0  0  0  0
  8  7  1  0  0  0  0
  9  8  2  0  0  0  0
  9 10  1  0  0  0  0
 10  5  2  0  0  0  0
 13  8  1  0  0  0  0
 14  9  1  0  0  0  0
 15 14  2  0  0  0  0
 16 14  1  0  0  0  0
 17 18  1  0  0  0  0
 17 16  2  0  0  0  0
 19 17  1  0  0  0  0
 20 19  1  0  0  0  0
 21 19  1  0  0  0  0
 21 23  2  0  0  0  0
 22 21  1  0  0  0  0
 23 16  1  0  0  0  0
 24 27  1  6  0  0  0
 24 35  1  0  0  0  0
 25 24  1  0  0  0  0
 25 29  1  0  0  0  0
 26 30  1  6  0  0  0
 26 25  1  0  0  0  0
 26 24  1  0  0  0  0
 28 25  1  0  0  0  0
 31 32  1  0  0  0  0
 32 33  2  0  0  0  0
 32 38  1  0  0  0  0
 33 39  1  0  0  0  0
 34 33  1  0  0  0  0
 35 34  2  0  0  0  0
 36 35  1  0  0  0  0
 36 31  2  0  0  0  0
 37 31  1  0  0  0  0
M  END
>  <minimizedAffinity>
-4.90213537

>  <minimizedRMSD>
0.183140352

$$$$
