
 OpenBabel03272502243D

 28 30  0  0  0  0  0  0  0  0999 V2000
   36.3760   21.6010   32.1910 C   0  0  0  0  0  0  0  0  0  0  0  0
   37.1630   21.4790   33.3480 C   0  0  0  0  0  0  0  0  0  0  0  0
   37.7890   22.6060   33.8500 C   0  0  0  0  0  0  0  0  0  0  0  0
   37.6040   23.7760   33.1860 N   0  0  0  0  0  0  0  0  0  0  0  0
   36.8470   23.8670   32.0810 C   0  0  0  0  0  0  0  0  0  0  0  0
   36.2340   22.7740   31.5870 N   0  0  0  0  0  0  0  0  0  0  0  0
   35.8950   20.7130   31.8150 H   0  0  0  0  0  0  0  0  0  0  0  0
   37.3210   20.5710   33.8850 H   0  0  0  0  0  0  0  0  0  0  0  0
   38.6340   22.6290   35.0400 C   0  0  0  0  0  0  0  0  0  0  0  0
   39.9240   22.1780   35.0400 C   0  0  0  0  0  0  0  0  0  0  0  0
   40.7250   22.2000   36.1680 C   0  0  0  0  0  0  0  0  0  0  0  0
   40.2250   22.6840   37.3270 N   0  0  0  0  0  0  0  0  0  0  0  0
   38.9600   23.1230   37.3110 C   0  0  0  0  0  0  0  0  0  0  0  0
   38.1840   23.1050   36.2300 N   0  0  0  0  0  0  0  0  0  0  0  0
   40.2920   21.7950   34.0890 H   0  0  0  0  0  0  0  0  0  0  0  0
   41.7340   21.8210   36.0730 H   0  0  0  0  0  0  0  0  0  0  0  0
   38.3870   23.6620   38.5770 C   0  0  0  0  0  0  0  0  0  0  0  0
   37.9420   24.9530   38.3140 F   0  0  0  0  0  0  0  0  0  0  0  0
   37.3420   22.8710   39.0410 F   0  0  0  0  0  0  0  0  0  0  0  0
   39.3140   23.7680   39.5620 F   0  0  0  0  0  0  0  0  0  0  0  0
   36.7190   25.1770   31.4490 C   0  0  0  0  0  0  0  0  0  0  0  0
   35.6340   25.7780   30.8430 C   0  0  0  0  0  0  0  0  0  0  0  0
   34.6790   25.2910   30.7710 H   0  0  0  0  0  0  0  0  0  0  0  0
   35.9850   27.0160   30.3900 N   0  0  0  0  0  0  0  0  0  0  0  0
   35.3480   27.6770   29.8950 H   0  0  0  0  0  0  0  0  0  0  0  0
   37.2870   27.1750   30.7170 C   0  0  0  0  0  0  0  0  0  0  0  0
   37.8680   28.0560   30.4950 H   0  0  0  0  0  0  0  0  0  0  0  0
   37.7340   26.0740   31.3530 N   0  0  0  0  0  0  0  0  0  0  0  0
  1  2  1  0  0  0  0
  2  3  2  0  0  0  0
  2  8  1  0  0  0  0
  3  9  1  0  0  0  0
  4  3  1  0  0  0  0
  5  4  2  0  0  0  0
  6  5  1  0  0  0  0
  6  1  2  0  0  0  0
  7  1  1  0  0  0  0
  9 14  1  0  0  0  0
 10  9  2  0  0  0  0
 10 11  1  0  0  0  0
 11 12  2  0  0  0  0
 13 12  1  0  0  0  0
 13 17  1  0  0  0  0
 14 13  2  0  0  0  0
 15 10  1  0  0  0  0
 16 11  1  0  0  0  0
 17 19  1  0  0  0  0
 17 20  1  0  0  0  0
 18 17  1  0  0  0  0
 21  5  1  0  0  0  0
 22 21  2  0  0  0  0
 23 22  1  0  0  0  0
 24 26  1  0  0  0  0
 24 22  1  0  0  0  0
 25 24  1  0  0  0  0
 26 28  2  0  0  0  0
 27 26  1  0  0  0  0
 28 21  1  0  0  0  0
M  END
>  <minimizedAffinity>
-5.7199173

$$$$

 OpenBabel03272502243D

 28 30  0  0  0  0  0  0  0  0999 V2000
   36.2480   28.5450   34.1310 C   0  0  0  0  0  0  0  0  0  0  0  0
   36.6810   27.4270   34.8620 C   0  0  0  0  0  0  0  0  0  0  0  0
   37.4680   26.4810   34.2320 C   0  0  0  0  0  0  0  0  0  0  0  0
   37.7790   26.6910   32.9260 N   0  0  0  0  0  0  0  0  0  0  0  0
   37.3530   27.7670   32.2470 C   0  0  0  0  0  0  0  0  0  0  0  0
   36.5860   28.6930   32.8560 N   0  0  0  0  0  0  0  0  0  0  0  0
   35.6360   29.2720   34.6380 H   0  0  0  0  0  0  0  0  0  0  0  0
   36.4490   27.2430   35.8870 H   0  0  0  0  0  0  0  0  0  0  0  0
   37.9890   25.2740   34.8650 C   0  0  0  0  0  0  0  0  0  0  0  0
   38.5760   24.2620   34.1590 C   0  0  0  0  0  0  0  0  0  0  0  0
   39.0690   23.1170   34.7600 C   0  0  0  0  0  0  0  0  0  0  0  0
   38.9730   22.9780   36.1020 N   0  0  0  0  0  0  0  0  0  0  0  0
   38.3950   23.9780   36.7810 C   0  0  0  0  0  0  0  0  0  0  0  0
   37.9190   25.0820   36.2090 N   0  0  0  0  0  0  0  0  0  0  0  0
   38.6360   24.4090   33.0820 H   0  0  0  0  0  0  0  0  0  0  0  0
   39.5170   22.3690   34.1200 H   0  0  0  0  0  0  0  0  0  0  0  0
   38.2780   23.8470   38.2600 C   0  0  0  0  0  0  0  0  0  0  0  0
   39.4970   23.3730   38.7320 F   0  0  0  0  0  0  0  0  0  0  0  0
   37.9640   25.0630   38.8560 F   0  0  0  0  0  0  0  0  0  0  0  0
   37.3420   22.9360   38.6280 F   0  0  0  0  0  0  0  0  0  0  0  0
   37.7480   27.8910   30.8470 C   0  0  0  0  0  0  0  0  0  0  0  0
   37.0360   28.3270   29.7490 C   0  0  0  0  0  0  0  0  0  0  0  0
   36.0150   28.6530   29.8250 H   0  0  0  0  0  0  0  0  0  0  0  0
   37.8200   28.2680   28.6350 N   0  0  0  0  0  0  0  0  0  0  0  0
   37.5210   28.5420   27.6740 H   0  0  0  0  0  0  0  0  0  0  0  0
   39.0170   27.7950   29.0490 C   0  0  0  0  0  0  0  0  0  0  0  0
   39.8640   27.6300   28.4030 H   0  0  0  0  0  0  0  0  0  0  0  0
   38.9800   27.5650   30.3770 N   0  0  0  0  0  0  0  0  0  0  0  0
  1  7  1  0  0  0  0
  1  2  1  0  0  0  0
  2  8  1  0  0  0  0
  3  2  2  0  0  0  0
  3  9  1  0  0  0  0
  4  3  1  0  0  0  0
  5  6  1  0  0  0  0
  5  4  2  0  0  0  0
  6  1  2  0  0  0  0
  9 14  1  0  0  0  0
 10 11  1  0  0  0  0
 10  9  2  0  0  0  0
 11 12  2  0  0  0  0
 12 13  1  0  0  0  0
 13 17  1  0  0  0  0
 14 13  2  0  0  0  0
 15 10  1  0  0  0  0
 16 11  1  0  0  0  0
 17 20  1  0  0  0  0
 17 18  1  0  0  0  0
 17 19  1  0  0  0  0
 21  5  1  0  0  0  0
 22 23  1  0  0  0  0
 22 21  2  0  0  0  0
 24 26  1  0  0  0  0
 24 22  1  0  0  0  0
 25 24  1  0  0  0  0
 26 28  2  0  0  0  0
 27 26  1  0  0  0  0
 28 21  1  0  0  0  0
M  END
>  <minimizedAffinity>
-5.61533165

$$$$

 OpenBabel03272502243D

 28 30  0  0  0  0  0  0  0  0999 V2000
   35.0690   30.4830   32.0020 C   0  0  0  0  0  0  0  0  0  0  0  0
   35.7100   29.2340   32.0340 C   0  0  0  0  0  0  0  0  0  0  0  0
   35.9910   28.6590   33.2590 C   0  0  0  0  0  0  0  0  0  0  0  0
   35.6260   29.3440   34.3740 N   0  0  0  0  0  0  0  0  0  0  0  0
   35.0140   30.5370   34.3190 C   0  0  0  0  0  0  0  0  0  0  0  0
   34.7370   31.1030   33.1280 N   0  0  0  0  0  0  0  0  0  0  0  0
   34.8580   30.9160   31.0390 H   0  0  0  0  0  0  0  0  0  0  0  0
   36.0060   28.6790   31.1720 H   0  0  0  0  0  0  0  0  0  0  0  0
   36.6510   27.3700   33.4440 C   0  0  0  0  0  0  0  0  0  0  0  0
   36.8680   26.4960   32.4160 C   0  0  0  0  0  0  0  0  0  0  0  0
   37.4940   25.2740   32.5900 C   0  0  0  0  0  0  0  0  0  0  0  0
   37.9130   24.9140   33.8240 N   0  0  0  0  0  0  0  0  0  0  0  0
   37.6940   25.7810   34.8220 C   0  0  0  0  0  0  0  0  0  0  0  0
   37.0930   26.9580   34.6600 N   0  0  0  0  0  0  0  0  0  0  0  0
   36.5170   26.8200   31.4370 H   0  0  0  0  0  0  0  0  0  0  0  0
   37.6220   24.6480   31.7170 H   0  0  0  0  0  0  0  0  0  0  0  0
   38.1480   25.4060   36.1910 C   0  0  0  0  0  0  0  0  0  0  0  0
   39.3580   24.7350   36.0560 F   0  0  0  0  0  0  0  0  0  0  0  0
   38.2980   26.5250   37.0020 F   0  0  0  0  0  0  0  0  0  0  0  0
   37.2960   24.5450   36.8020 F   0  0  0  0  0  0  0  0  0  0  0  0
   34.6670   31.1840   35.5810 C   0  0  0  0  0  0  0  0  0  0  0  0
   35.4430   31.9120   36.4590 C   0  0  0  0  0  0  0  0  0  0  0  0
   36.4870   32.0930   36.2820 H   0  0  0  0  0  0  0  0  0  0  0  0
   34.6840   32.3250   37.5140 N   0  0  0  0  0  0  0  0  0  0  0  0
   35.0310   32.8910   38.3180 H   0  0  0  0  0  0  0  0  0  0  0  0
   33.4390   31.8490   37.2850 C   0  0  0  0  0  0  0  0  0  0  0  0
   32.5970   32.0040   37.9400 H   0  0  0  0  0  0  0  0  0  0  0  0
   33.4220   31.1630   36.1250 N   0  0  0  0  0  0  0  0  0  0  0  0
  1  2  2  0  0  0  0
  1  6  1  0  0  0  0
  2  3  1  0  0  0  0
  3  9  1  0  0  0  0
  3  4  2  0  0  0  0
  5  4  1  0  0  0  0
  5 21  1  0  0  0  0
  6  5  2  0  0  0  0
  7  1  1  0  0  0  0
  8  2  1  0  0  0  0
  9 14  1  0  0  0  0
 10 11  1  0  0  0  0
 10  9  2  0  0  0  0
 11 12  2  0  0  0  0
 12 13  1  0  0  0  0
 13 17  1  0  0  0  0
 14 13  2  0  0  0  0
 15 10  1  0  0  0  0
 16 11  1  0  0  0  0
 17 20  1  0  0  0  0
 17 19  1  0  0  0  0
 18 17  1  0  0  0  0
 21 28  1  0  0  0  0
 21 22  2  0  0  0  0
 22 24  1  0  0  0  0
 23 22  1  0  0  0  0
 24 25  1  0  0  0  0
 26 24  1  0  0  0  0
 26 27  1  0  0  0  0
 28 26  2  0  0  0  0
M  END
>  <minimizedAffinity>
-5.49327564

$$$$

 OpenBabel03272502243D

 28 30  0  0  0  0  0  0  0  0999 V2000
   41.1740   27.0510   33.3610 C   0  0  0  0  0  0  0  0  0  0  0  0
   40.7220   26.0230   34.2040 C   0  0  0  0  0  0  0  0  0  0  0  0
   39.4590   25.4980   33.9980 C   0  0  0  0  0  0  0  0  0  0  0  0
   38.7210   26.0150   32.9810 N   0  0  0  0  0  0  0  0  0  0  0  0
   39.1750   26.9990   32.1890 C   0  0  0  0  0  0  0  0  0  0  0  0
   40.4040   27.5140   32.3840 N   0  0  0  0  0  0  0  0  0  0  0  0
   42.1600   27.4480   33.5360 H   0  0  0  0  0  0  0  0  0  0  0  0
   41.2840   25.6020   35.0070 H   0  0  0  0  0  0  0  0  0  0  0  0
   38.8600   24.4310   34.7930 C   0  0  0  0  0  0  0  0  0  0  0  0
   38.3170   23.3080   34.2350 C   0  0  0  0  0  0  0  0  0  0  0  0
   37.7500   22.2950   34.9880 C   0  0  0  0  0  0  0  0  0  0  0  0
   37.7220   22.4080   36.3360 N   0  0  0  0  0  0  0  0  0  0  0  0
   38.2580   23.5140   36.8690 C   0  0  0  0  0  0  0  0  0  0  0  0
   38.8060   24.4910   36.1490 N   0  0  0  0  0  0  0  0  0  0  0  0
   38.3580   23.2520   33.1480 H   0  0  0  0  0  0  0  0  0  0  0  0
   37.3440   21.4440   34.4590 H   0  0  0  0  0  0  0  0  0  0  0  0
   38.2390   23.6600   38.3510 C   0  0  0  0  0  0  0  0  0  0  0  0
   39.5190   23.3690   38.8120 F   0  0  0  0  0  0  0  0  0  0  0  0
   37.8630   24.9430   38.7330 F   0  0  0  0  0  0  0  0  0  0  0  0
   37.4040   22.7730   38.9490 F   0  0  0  0  0  0  0  0  0  0  0  0
   38.2950   27.4790   31.1260 C   0  0  0  0  0  0  0  0  0  0  0  0
   36.9800   27.1730   30.8430 C   0  0  0  0  0  0  0  0  0  0  0  0
   36.4150   26.4800   31.4390 H   0  0  0  0  0  0  0  0  0  0  0  0
   36.5700   27.8690   29.7450 N   0  0  0  0  0  0  0  0  0  0  0  0
   35.6170   27.8170   29.3220 H   0  0  0  0  0  0  0  0  0  0  0  0
   37.6350   28.6040   29.3510 C   0  0  0  0  0  0  0  0  0  0  0  0
   37.6360   29.2680   28.5030 H   0  0  0  0  0  0  0  0  0  0  0  0
   38.6750   28.3740   30.1770 N   0  0  0  0  0  0  0  0  0  0  0  0
  1  7  1  0  0  0  0
  1  2  1  0  0  0  0
  2  8  1  0  0  0  0
  3  2  2  0  0  0  0
  3  9  1  0  0  0  0
  4  3  1  0  0  0  0
  5  6  1  0  0  0  0
  5  4  2  0  0  0  0
  6  1  2  0  0  0  0
  9 14  1  0  0  0  0
 10  9  2  0  0  0  0
 10 11  1  0  0  0  0
 11 12  2  0  0  0  0
 12 13  1  0  0  0  0
 13 17  1  0  0  0  0
 14 13  2  0  0  0  0
 15 10  1  0  0  0  0
 16 11  1  0  0  0  0
 17 19  1  0  0  0  0
 17 18  1  0  0  0  0
 17 20  1  0  0  0  0
 21  5  1  0  0  0  0
 22 21  2  0  0  0  0
 22 23  1  0  0  0  0
 24 22  1  0  0  0  0
 25 24  1  0  0  0  0
 26 24  1  0  0  0  0
 26 28  2  0  0  0  0
 27 26  1  0  0  0  0
 28 21  1  0  0  0  0
M  END
>  <minimizedAffinity>
-5.49142408

$$$$

 OpenBabel03272502243D

 28 30  0  0  0  0  0  0  0  0999 V2000
   39.5290   21.8230   33.0520 C   0  0  0  0  0  0  0  0  0  0  0  0
   38.6930   22.6760   32.3150 C   0  0  0  0  0  0  0  0  0  0  0  0
   37.9330   23.6130   32.9900 C   0  0  0  0  0  0  0  0  0  0  0  0
   38.0400   23.6520   34.3440 N   0  0  0  0  0  0  0  0  0  0  0  0
   38.8470   22.8250   35.0280 C   0  0  0  0  0  0  0  0  0  0  0  0
   39.5910   21.9110   34.3750 N   0  0  0  0  0  0  0  0  0  0  0  0
   40.1150   21.0990   32.5100 H   0  0  0  0  0  0  0  0  0  0  0  0
   38.5930   22.6620   31.2530 H   0  0  0  0  0  0  0  0  0  0  0  0
   37.0220   24.5620   32.3560 C   0  0  0  0  0  0  0  0  0  0  0  0
   35.9890   24.1710   31.5530 C   0  0  0  0  0  0  0  0  0  0  0  0
   35.1260   25.0700   30.9510 C   0  0  0  0  0  0  0  0  0  0  0  0
   35.3010   26.3960   31.1570 N   0  0  0  0  0  0  0  0  0  0  0  0
   36.3180   26.7630   31.9470 C   0  0  0  0  0  0  0  0  0  0  0  0
   37.1510   25.9030   32.5290 N   0  0  0  0  0  0  0  0  0  0  0  0
   35.8790   23.0970   31.4100 H   0  0  0  0  0  0  0  0  0  0  0  0
   34.3360   24.6690   30.3310 H   0  0  0  0  0  0  0  0  0  0  0  0
   36.5300   28.2180   32.1890 C   0  0  0  0  0  0  0  0  0  0  0  0
   36.6450   28.3970   33.5630 F   0  0  0  0  0  0  0  0  0  0  0  0
   37.6680   28.6820   31.5390 F   0  0  0  0  0  0  0  0  0  0  0  0
   35.4730   28.9700   31.7900 F   0  0  0  0  0  0  0  0  0  0  0  0
   38.8830   22.9560   36.4820 C   0  0  0  0  0  0  0  0  0  0  0  0
   39.8620   22.6080   37.3890 C   0  0  0  0  0  0  0  0  0  0  0  0
   40.7900   22.1610   37.0830 H   0  0  0  0  0  0  0  0  0  0  0  0
   39.4530   22.9190   38.6520 N   0  0  0  0  0  0  0  0  0  0  0  0
   40.0090   22.7570   39.5200 H   0  0  0  0  0  0  0  0  0  0  0  0
   38.2210   23.4590   38.5210 C   0  0  0  0  0  0  0  0  0  0  0  0
   37.6190   23.8120   39.3430 H   0  0  0  0  0  0  0  0  0  0  0  0
   37.8720   23.4840   37.2190 N   0  0  0  0  0  0  0  0  0  0  0  0
  1  6  1  0  0  0  0
  2  3  1  0  0  0  0
  2  1  2  0  0  0  0
  3  4  2  0  0  0  0
  4  5  1  0  0  0  0
  5 21  1  0  0  0  0
  6  5  2  0  0  0  0
  7  1  1  0  0  0  0
  8  2  1  0  0  0  0
  9 14  1  0  0  0  0
  9  3  1  0  0  0  0
 10  9  2  0  0  0  0
 11 12  2  0  0  0  0
 11 10  1  0  0  0  0
 12 13  1  0  0  0  0
 13 17  1  0  0  0  0
 13 14  2  0  0  0  0
 15 10  1  0  0  0  0
 16 11  1  0  0  0  0
 17 18  1  0  0  0  0
 19 17  1  0  0  0  0
 20 17  1  0  0  0  0
 21 28  1  0  0  0  0
 21 22  2  0  0  0  0
 22 24  1  0  0  0  0
 23 22  1  0  0  0  0
 24 25  1  0  0  0  0
 26 24  1  0  0  0  0
 26 27  1  0  0  0  0
 28 26  2  0  0  0  0
M  END
>  <minimizedAffinity>
-5.46851444

$$$$

 OpenBabel03272502243D

 28 30  0  0  0  0  0  0  0  0999 V2000
   35.5430   30.9530   31.8000 C   0  0  0  0  0  0  0  0  0  0  0  0
   36.0120   29.6320   31.7120 C   0  0  0  0  0  0  0  0  0  0  0  0
   36.0960   28.8760   32.8660 C   0  0  0  0  0  0  0  0  0  0  0  0
   35.7160   29.4620   34.0310 N   0  0  0  0  0  0  0  0  0  0  0  0
   35.2710   30.7270   34.0910 C   0  0  0  0  0  0  0  0  0  0  0  0
   35.1860   31.4690   32.9690 N   0  0  0  0  0  0  0  0  0  0  0  0
   35.4830   31.5270   30.8900 H   0  0  0  0  0  0  0  0  0  0  0  0
   36.3150   29.1530   30.8080 H   0  0  0  0  0  0  0  0  0  0  0  0
   36.5640   27.4940   32.9250 C   0  0  0  0  0  0  0  0  0  0  0  0
   37.5040   27.0690   33.8210 C   0  0  0  0  0  0  0  0  0  0  0  0
   37.9480   25.7600   33.8770 C   0  0  0  0  0  0  0  0  0  0  0  0
   37.4400   24.8500   33.0140 N   0  0  0  0  0  0  0  0  0  0  0  0
   36.5200   25.2820   32.1410 C   0  0  0  0  0  0  0  0  0  0  0  0
   36.0890   26.5400   32.0830 N   0  0  0  0  0  0  0  0  0  0  0  0
   37.8890   27.8290   34.5000 H   0  0  0  0  0  0  0  0  0  0  0  0
   38.6950   25.5150   34.6200 H   0  0  0  0  0  0  0  0  0  0  0  0
   35.9470   24.2980   31.1810 C   0  0  0  0  0  0  0  0  0  0  0  0
   36.9580   23.9470   30.2930 F   0  0  0  0  0  0  0  0  0  0  0  0
   35.4600   23.1710   31.8350 F   0  0  0  0  0  0  0  0  0  0  0  0
   34.9440   24.8250   30.4340 F   0  0  0  0  0  0  0  0  0  0  0  0
   34.8900   31.2550   35.3980 C   0  0  0  0  0  0  0  0  0  0  0  0
   35.6200   31.9710   36.3230 C   0  0  0  0  0  0  0  0  0  0  0  0
   36.6460   32.2400   36.1550 H   0  0  0  0  0  0  0  0  0  0  0  0
   34.8420   32.2520   37.4080 N   0  0  0  0  0  0  0  0  0  0  0  0
   35.1550   32.7830   38.2500 H   0  0  0  0  0  0  0  0  0  0  0  0
   33.6330   31.7060   37.1490 C   0  0  0  0  0  0  0  0  0  0  0  0
   32.7880   31.7510   37.8170 H   0  0  0  0  0  0  0  0  0  0  0  0
   33.6550   31.1050   35.9430 N   0  0  0  0  0  0  0  0  0  0  0  0
  1  6  1  0  0  0  0
  2  1  2  0  0  0  0
  2  3  1  0  0  0  0
  3  9  1  0  0  0  0
  3  4  2  0  0  0  0
  4  5  1  0  0  0  0
  5 21  1  0  0  0  0
  6  5  2  0  0  0  0
  7  1  1  0  0  0  0
  8  2  1  0  0  0  0
  9 10  1  0  0  0  0
 10 11  2  0  0  0  0
 10 15  1  0  0  0  0
 11 16  1  0  0  0  0
 12 11  1  0  0  0  0
 13 12  2  0  0  0  0
 14 13  1  0  0  0  0
 14  9  2  0  0  0  0
 17 19  1  0  0  0  0
 17 13  1  0  0  0  0
 18 17  1  0  0  0  0
 20 17  1  0  0  0  0
 21 28  1  0  0  0  0
 21 22  2  0  0  0  0
 22 24  1  0  0  0  0
 23 22  1  0  0  0  0
 24 25  1  0  0  0  0
 26 24  1  0  0  0  0
 26 27  1  0  0  0  0
 28 26  2  0  0  0  0
M  END
>  <minimizedAffinity>
-5.4515028

$$$$

 OpenBabel03272502243D

 28 30  0  0  0  0  0  0  0  0999 V2000
   38.9630   25.4960   33.3520 C   0  0  0  0  0  0  0  0  0  0  0  0
   38.5420   24.4990   32.4580 C   0  0  0  0  0  0  0  0  0  0  0  0
   38.2110   23.2520   32.9570 C   0  0  0  0  0  0  0  0  0  0  0  0
   38.3160   23.0640   34.2990 N   0  0  0  0  0  0  0  0  0  0  0  0
   38.7210   24.0330   35.1330 C   0  0  0  0  0  0  0  0  0  0  0  0
   39.0440   25.2500   34.6540 N   0  0  0  0  0  0  0  0  0  0  0  0
   39.2160   26.4620   32.9460 H   0  0  0  0  0  0  0  0  0  0  0  0
   38.4520   24.6250   31.4030 H   0  0  0  0  0  0  0  0  0  0  0  0
   37.7590   22.1240   32.1490 C   0  0  0  0  0  0  0  0  0  0  0  0
   38.3090   21.8150   30.9370 C   0  0  0  0  0  0  0  0  0  0  0  0
   37.8810   20.7460   30.1700 C   0  0  0  0  0  0  0  0  0  0  0  0
   36.8760   19.9640   30.6260 N   0  0  0  0  0  0  0  0  0  0  0  0
   36.3470   20.2780   31.8160 C   0  0  0  0  0  0  0  0  0  0  0  0
   36.7550   21.3060   32.5580 N   0  0  0  0  0  0  0  0  0  0  0  0
   39.1150   22.4660   30.6020 H   0  0  0  0  0  0  0  0  0  0  0  0
   38.3750   20.5790   29.2230 H   0  0  0  0  0  0  0  0  0  0  0  0
   35.2390   19.4310   32.3390 C   0  0  0  0  0  0  0  0  0  0  0  0
   35.3420   19.4230   33.7260 F   0  0  0  0  0  0  0  0  0  0  0  0
   33.9970   19.9160   31.9450 F   0  0  0  0  0  0  0  0  0  0  0  0
   35.3400   18.1390   31.9380 F   0  0  0  0  0  0  0  0  0  0  0  0
   38.7970   23.7190   36.5580 C   0  0  0  0  0  0  0  0  0  0  0  0
   39.6150   22.8430   37.2410 C   0  0  0  0  0  0  0  0  0  0  0  0
   40.3530   22.2450   36.7410 H   0  0  0  0  0  0  0  0  0  0  0  0
   39.3250   22.8840   38.5730 N   0  0  0  0  0  0  0  0  0  0  0  0
   39.8000   22.3160   39.3080 H   0  0  0  0  0  0  0  0  0  0  0  0
   38.3270   23.7860   38.7080 C   0  0  0  0  0  0  0  0  0  0  0  0
   37.8670   24.0500   39.6470 H   0  0  0  0  0  0  0  0  0  0  0  0
   38.0040   24.2910   37.5010 N   0  0  0  0  0  0  0  0  0  0  0  0
  1  6  1  0  0  0  0
  2  3  1  0  0  0  0
  2  1  2  0  0  0  0
  3  4  2  0  0  0  0
  4  5  1  0  0  0  0
  5 21  1  0  0  0  0
  6  5  2  0  0  0  0
  7  1  1  0  0  0  0
  8  2  1  0  0  0  0
  9 14  1  0  0  0  0
  9  3  1  0  0  0  0
 10  9  2  0  0  0  0
 11 12  2  0  0  0  0
 11 10  1  0  0  0  0
 12 13  1  0  0  0  0
 13 17  1  0  0  0  0
 13 14  2  0  0  0  0
 15 10  1  0  0  0  0
 16 11  1  0  0  0  0
 17 18  1  0  0  0  0
 19 17  1  0  0  0  0
 20 17  1  0  0  0  0
 21 22  2  0  0  0  0
 21 28  1  0  0  0  0
 22 24  1  0  0  0  0
 23 22  1  0  0  0  0
 24 26  1  0  0  0  0
 24 25  1  0  0  0  0
 26 27  1  0  0  0  0
 28 26  2  0  0  0  0
M  END
>  <minimizedAffinity>
-5.40495777

$$$$

 OpenBabel03272502243D

 28 30  0  0  0  0  0  0  0  0999 V2000
   39.6010   27.2160   33.3070 C   0  0  0  0  0  0  0  0  0  0  0  0
   39.8890   26.4370   34.4390 C   0  0  0  0  0  0  0  0  0  0  0  0
   39.0940   25.3390   34.7130 C   0  0  0  0  0  0  0  0  0  0  0  0
   38.0680   25.0780   33.8620 N   0  0  0  0  0  0  0  0  0  0  0  0
   37.8120   25.8380   32.7870 C   0  0  0  0  0  0  0  0  0  0  0  0
   38.5830   26.9080   32.5130 N   0  0  0  0  0  0  0  0  0  0  0  0
   40.2310   28.0670   33.1090 H   0  0  0  0  0  0  0  0  0  0  0  0
   40.6890   26.6240   35.1200 H   0  0  0  0  0  0  0  0  0  0  0  0
   39.2750   24.4420   35.8510 C   0  0  0  0  0  0  0  0  0  0  0  0
   38.3950   24.3850   36.8950 C   0  0  0  0  0  0  0  0  0  0  0  0
   38.5660   23.5340   37.9730 C   0  0  0  0  0  0  0  0  0  0  0  0
   39.6460   22.7200   38.0110 N   0  0  0  0  0  0  0  0  0  0  0  0
   40.4990   22.7880   36.9800 C   0  0  0  0  0  0  0  0  0  0  0  0
   40.3390   23.6030   35.9400 N   0  0  0  0  0  0  0  0  0  0  0  0
   37.5380   25.0540   36.8300 H   0  0  0  0  0  0  0  0  0  0  0  0
   37.8180   23.5580   38.7540 H   0  0  0  0  0  0  0  0  0  0  0  0
   41.6950   21.9000   36.9990 C   0  0  0  0  0  0  0  0  0  0  0  0
   41.6390   21.1040   35.8600 F   0  0  0  0  0  0  0  0  0  0  0  0
   42.8760   22.6350   37.0220 F   0  0  0  0  0  0  0  0  0  0  0  0
   41.6980   21.0550   38.0600 F   0  0  0  0  0  0  0  0  0  0  0  0
   36.6820   25.4630   31.9400 C   0  0  0  0  0  0  0  0  0  0  0  0
   35.8920   26.2290   31.1080 C   0  0  0  0  0  0  0  0  0  0  0  0
   36.0460   27.2860   30.9890 H   0  0  0  0  0  0  0  0  0  0  0  0
   34.9500   25.4430   30.5130 N   0  0  0  0  0  0  0  0  0  0  0  0
   34.2280   25.7780   29.8390 H   0  0  0  0  0  0  0  0  0  0  0  0
   35.1610   24.1920   30.9800 C   0  0  0  0  0  0  0  0  0  0  0  0
   34.5780   23.3300   30.6990 H   0  0  0  0  0  0  0  0  0  0  0  0
   36.2010   24.1970   31.8380 N   0  0  0  0  0  0  0  0  0  0  0  0
  1  2  1  0  0  0  0
  2  3  2  0  0  0  0
  2  8  1  0  0  0  0
  3  9  1  0  0  0  0
  4  3  1  0  0  0  0
  5  4  2  0  0  0  0
  6  5  1  0  0  0  0
  6  1  2  0  0  0  0
  7  1  1  0  0  0  0
  9 14  2  0  0  0  0
  9 10  1  0  0  0  0
 10 11  2  0  0  0  0
 11 12  1  0  0  0  0
 11 16  1  0  0  0  0
 13 17  1  0  0  0  0
 13 12  2  0  0  0  0
 14 13  1  0  0  0  0
 15 10  1  0  0  0  0
 17 19  1  0  0  0  0
 17 20  1  0  0  0  0
 18 17  1  0  0  0  0
 21  5  1  0  0  0  0
 22 21  2  0  0  0  0
 23 22  1  0  0  0  0
 24 26  1  0  0  0  0
 24 22  1  0  0  0  0
 25 24  1  0  0  0  0
 26 28  2  0  0  0  0
 27 26  1  0  0  0  0
 28 21  1  0  0  0  0
M  END
>  <minimizedAffinity>
-5.38865805

$$$$

 OpenBabel03272502243D

 28 30  0  0  0  0  0  0  0  0999 V2000
   39.0260   23.9810   32.8380 C   0  0  0  0  0  0  0  0  0  0  0  0
   38.3800   25.1960   32.5590 C   0  0  0  0  0  0  0  0  0  0  0  0
   37.8520   25.9260   33.6080 C   0  0  0  0  0  0  0  0  0  0  0  0
   37.9900   25.4190   34.8600 N   0  0  0  0  0  0  0  0  0  0  0  0
   38.6110   24.2540   35.1020 C   0  0  0  0  0  0  0  0  0  0  0  0
   39.1290   23.5380   34.0850 N   0  0  0  0  0  0  0  0  0  0  0  0
   39.4320   23.4250   32.0090 H   0  0  0  0  0  0  0  0  0  0  0  0
   38.2610   25.6130   31.5840 H   0  0  0  0  0  0  0  0  0  0  0  0
   37.1560   27.2020   33.4670 C   0  0  0  0  0  0  0  0  0  0  0  0
   36.5670   27.8430   34.5200 C   0  0  0  0  0  0  0  0  0  0  0  0
   35.9070   29.0520   34.3880 C   0  0  0  0  0  0  0  0  0  0  0  0
   35.8330   29.6370   33.1710 N   0  0  0  0  0  0  0  0  0  0  0  0
   36.4150   28.9960   32.1480 C   0  0  0  0  0  0  0  0  0  0  0  0
   37.0510   27.8340   32.2690 N   0  0  0  0  0  0  0  0  0  0  0  0
   36.6470   27.3430   35.4850 H   0  0  0  0  0  0  0  0  0  0  0  0
   35.4710   29.4850   35.2780 H   0  0  0  0  0  0  0  0  0  0  0  0
   36.3460   29.6210   30.7970 C   0  0  0  0  0  0  0  0  0  0  0  0
   36.4730   28.6010   29.8610 F   0  0  0  0  0  0  0  0  0  0  0  0
   35.1500   30.3060   30.6130 F   0  0  0  0  0  0  0  0  0  0  0  0
   37.3700   30.4810   30.5700 F   0  0  0  0  0  0  0  0  0  0  0  0
   38.7010   23.8040   36.4880 C   0  0  0  0  0  0  0  0  0  0  0  0
   39.5370   22.8790   37.0780 C   0  0  0  0  0  0  0  0  0  0  0  0
   40.2810   22.3440   36.5180 H   0  0  0  0  0  0  0  0  0  0  0  0
   39.2550   22.7840   38.4100 N   0  0  0  0  0  0  0  0  0  0  0  0
   39.7440   22.1560   39.0830 H   0  0  0  0  0  0  0  0  0  0  0  0
   38.2450   23.6530   38.6380 C   0  0  0  0  0  0  0  0  0  0  0  0
   37.7880   23.8170   39.6000 H   0  0  0  0  0  0  0  0  0  0  0  0
   37.9060   24.2690   37.4870 N   0  0  0  0  0  0  0  0  0  0  0  0
  1  6  1  0  0  0  0
  2  1  2  0  0  0  0
  2  3  1  0  0  0  0
  3  4  2  0  0  0  0
  4  5  1  0  0  0  0
  5 21  1  0  0  0  0
  6  5  2  0  0  0  0
  7  1  1  0  0  0  0
  8  2  1  0  0  0  0
  9  3  1  0  0  0  0
  9 10  1  0  0  0  0
 10 15  1  0  0  0  0
 11 10  2  0  0  0  0
 11 16  1  0  0  0  0
 12 11  1  0  0  0  0
 13 14  1  0  0  0  0
 13 12  2  0  0  0  0
 14  9  2  0  0  0  0
 17 13  1  0  0  0  0
 18 17  1  0  0  0  0
 19 17  1  0  0  0  0
 20 17  1  0  0  0  0
 21 22  2  0  0  0  0
 21 28  1  0  0  0  0
 22 24  1  0  0  0  0
 23 22  1  0  0  0  0
 24 26  1  0  0  0  0
 24 25  1  0  0  0  0
 26 27  1  0  0  0  0
 28 26  2  0  0  0  0
M  END
>  <minimizedAffinity>
-5.38556623

$$$$
