
 OpenBabel03272508563D

 39 42  0  0  1  0  0  0  0  0999 V2000
   38.3570   31.9030   44.5050 C   0  0  0  0  0  0  0  0  0  0  0  0
   37.2500   32.4520   44.4040 O   0  0  0  0  0  0  0  0  0  0  0  0
   38.9410   31.6340   45.8130 N   0  0  0  0  0  0  0  0  0  0  0  0
   39.9250   31.3890   45.9570 H   0  0  0  0  0  0  0  0  0  0  0  0
   39.1500   31.4880   43.3210 C   0  0  0  0  0  0  0  0  0  0  0  0
   40.1420   30.5610   43.4670 C   0  0  0  0  0  0  0  0  0  0  0  0
   40.8480   30.2190   42.3240 C   0  0  0  0  0  0  0  0  0  0  0  0
   40.5190   30.8180   41.1350 C   0  0  0  0  0  0  0  0  0  0  0  0
   39.5150   31.7550   40.9910 C   0  0  0  0  0  0  0  0  0  0  0  0
   38.8580   32.0550   42.1210 N   0  0  0  0  0  0  0  0  0  0  0  0
   40.3960   30.0940   44.4070 H   0  0  0  0  0  0  0  0  0  0  0  0
   41.6320   29.5050   42.3770 H   0  0  0  0  0  0  0  0  0  0  0  0
   41.0890   30.5370   40.2400 H   0  0  0  0  0  0  0  0  0  0  0  0
   39.2060   32.3600   39.6980 C   0  0  0  0  0  0  0  0  0  0  0  0
   38.7790   33.5380   39.6830 O   0  0  0  0  0  0  0  0  0  0  0  0
   39.3920   31.6100   38.4610 C   0  0  0  0  0  0  0  0  0  0  0  0
   38.5380   30.6300   38.0000 C   0  0  0  0  0  0  0  0  0  0  0  0
   37.6190   30.2370   38.4200 H   0  0  0  0  0  0  0  0  0  0  0  0
   39.0970   30.2180   36.8380 N   0  0  0  0  0  0  0  0  0  0  0  0
   38.7440   29.4750   36.1780 H   0  0  0  0  0  0  0  0  0  0  0  0
   40.2490   30.8960   36.5690 C   0  0  0  0  0  0  0  0  0  0  0  0
   40.8830   30.7570   35.7080 H   0  0  0  0  0  0  0  0  0  0  0  0
   40.4170   31.7690   37.6050 N   0  0  0  0  0  0  0  0  0  0  0  0
   38.4390   31.1010   48.1830 C   0  0  2  0  0  0  0  0  0  0  0  0
   38.6770   32.5680   48.1120 C   0  0  0  0  0  0  0  0  0  0  0  0
   38.0660   31.7230   46.9540 C   0  0  1  0  0  0  0  0  0  0  0  0
   39.3610   30.4830   48.2590 H   0  0  0  0  0  0  0  0  0  0  0  0
   39.7030   32.9110   48.0090 H   0  0  0  0  0  0  0  0  0  0  0  0
   37.9930   33.2250   48.6700 H   0  0  0  0  0  0  0  0  0  0  0  0
   36.9870   31.9550   46.7640 H   0  0  0  0  0  0  0  0  0  0  0  0
   35.0680   30.2400   49.4990 C   0  0  0  0  0  0  0  0  0  0  0  0
   35.3980   29.5460   50.7130 C   0  0  0  0  0  0  0  0  0  0  0  0
   36.7840   29.4010   51.0480 C   0  0  0  0  0  0  0  0  0  0  0  0
   37.7450   29.9180   50.2160 N   0  0  0  0  0  0  0  0  0  0  0  0
   37.3610   30.5580   49.0920 C   0  0  0  0  0  0  0  0  0  0  0  0
   36.0360   30.7350   48.7080 N   0  0  0  0  0  0  0  0  0  0  0  0
   34.0140   30.3300   49.2770 H   0  0  0  0  0  0  0  0  0  0  0  0
   34.6380   29.1500   51.3490 H   0  0  0  0  0  0  0  0  0  0  0  0
   37.0430   28.8810   51.9590 H   0  0  0  0  0  0  0  0  0  0  0  0
  1  3  1  0  0  0  0
  2  1  2  0  0  0  0
  3  4  1  0  0  0  0
  3 26  1  0  0  0  0
  5  6  1  0  0  0  0
  5  1  1  0  0  0  0
  6 11  1  0  0  0  0
  7 12  1  0  0  0  0
  7  6  2  0  0  0  0
  8  7  1  0  0  0  0
  9  8  2  0  0  0  0
  9 10  1  0  0  0  0
 10  5  2  0  0  0  0
 13  8  1  0  0  0  0
 14  9  1  0  0  0  0
 15 14  2  0  0  0  0
 16 14  1  0  0  0  0
 17 18  1  0  0  0  0
 17 16  2  0  0  0  0
 19 17  1  0  0  0  0
 20 19  1  0  0  0  0
 21 19  1  0  0  0  0
 21 23  2  0  0  0  0
 22 21  1  0  0  0  0
 23 16  1  0  0  0  0
 24 27  1  6  0  0  0
 24 35  1  0  0  0  0
 25 24  1  0  0  0  0
 25 29  1  0  0  0  0
 26 30  1  6  0  0  0
 26 25  1  0  0  0  0
 26 24  1  0  0  0  0
 28 25  1  0  0  0  0
 31 32  1  0  0  0  0
 32 33  2  0  0  0  0
 32 38  1  0  0  0  0
 33 39  1  0  0  0  0
 34 33  1  0  0  0  0
 35 34  2  0  0  0  0
 36 35  1  0  0  0  0
 36 31  2  0  0  0  0
 37 31  1  0  0  0  0
M  END
>  <minimizedAffinity>
-4.90213156

>  <minimizedRMSD>
0.395589292

$$$$
