
 OpenBabel03272508563D

 39 42  0  0  1  0  0  0  0  0999 V2000
   38.3560   31.9020   44.5060 C   0  0  0  0  0  0  0  0  0  0  0  0
   37.2490   32.4520   44.4050 O   0  0  0  0  0  0  0  0  0  0  0  0
   38.9400   31.6330   45.8130 N   0  0  0  0  0  0  0  0  0  0  0  0
   39.9240   31.3880   45.9570 H   0  0  0  0  0  0  0  0  0  0  0  0
   39.1480   31.4870   43.3210 C   0  0  0  0  0  0  0  0  0  0  0  0
   40.1370   30.5560   43.4660 C   0  0  0  0  0  0  0  0  0  0  0  0
   40.8430   30.2150   42.3230 C   0  0  0  0  0  0  0  0  0  0  0  0
   40.5170   30.8170   41.1350 C   0  0  0  0  0  0  0  0  0  0  0  0
   39.5160   31.7580   40.9920 C   0  0  0  0  0  0  0  0  0  0  0  0
   38.8600   32.0580   42.1230 N   0  0  0  0  0  0  0  0  0  0  0  0
   40.3890   30.0870   44.4050 H   0  0  0  0  0  0  0  0  0  0  0  0
   41.6240   29.4980   42.3760 H   0  0  0  0  0  0  0  0  0  0  0  0
   41.0860   30.5360   40.2400 H   0  0  0  0  0  0  0  0  0  0  0  0
   39.2110   32.3670   39.7010 C   0  0  0  0  0  0  0  0  0  0  0  0
   38.7820   33.5450   39.6880 O   0  0  0  0  0  0  0  0  0  0  0  0
   39.4010   31.6210   38.4610 C   0  0  0  0  0  0  0  0  0  0  0  0
   40.4210   31.8430   37.5600 C   0  0  0  0  0  0  0  0  0  0  0  0
   41.2350   32.5580   37.5730 H   0  0  0  0  0  0  0  0  0  0  0  0
   40.2040   30.9350   36.5790 N   0  0  0  0  0  0  0  0  0  0  0  0
   40.7700   30.7810   35.7030 H   0  0  0  0  0  0  0  0  0  0  0  0
   39.1050   30.1710   36.8370 C   0  0  0  0  0  0  0  0  0  0  0  0
   38.7180   29.3790   36.2160 H   0  0  0  0  0  0  0  0  0  0  0  0
   38.6120   30.6200   38.0290 N   0  0  0  0  0  0  0  0  0  0  0  0
   38.4390   31.1000   48.1840 C   0  0  2  0  0  0  0  0  0  0  0  0
   38.6770   32.5670   48.1130 C   0  0  0  0  0  0  0  0  0  0  0  0
   38.0660   31.7220   46.9550 C   0  0  1  0  0  0  0  0  0  0  0  0
   39.3610   30.4820   48.2590 H   0  0  0  0  0  0  0  0  0  0  0  0
   39.7030   32.9100   48.0090 H   0  0  0  0  0  0  0  0  0  0  0  0
   37.9940   33.2240   48.6710 H   0  0  0  0  0  0  0  0  0  0  0  0
   36.9860   31.9540   46.7650 H   0  0  0  0  0  0  0  0  0  0  0  0
   35.0680   30.2400   49.5010 C   0  0  0  0  0  0  0  0  0  0  0  0
   35.3980   29.5460   50.7150 C   0  0  0  0  0  0  0  0  0  0  0  0
   36.7840   29.4010   51.0490 C   0  0  0  0  0  0  0  0  0  0  0  0
   37.7450   29.9180   50.2160 N   0  0  0  0  0  0  0  0  0  0  0  0
   37.3610   30.5580   49.0930 C   0  0  0  0  0  0  0  0  0  0  0  0
   36.0360   30.7350   48.7090 N   0  0  0  0  0  0  0  0  0  0  0  0
   34.0130   30.3310   49.2790 H   0  0  0  0  0  0  0  0  0  0  0  0
   34.6380   29.1510   51.3510 H   0  0  0  0  0  0  0  0  0  0  0  0
   37.0430   28.8810   51.9600 H   0  0  0  0  0  0  0  0  0  0  0  0
  1  3  1  0  0  0  0
  2  1  2  0  0  0  0
  3  4  1  0  0  0  0
  3 26  1  0  0  0  0
  5  6  1  0  0  0  0
  5  1  1  0  0  0  0
  6 11  1  0  0  0  0
  7 12  1  0  0  0  0
  7  6  2  0  0  0  0
  8  7  1  0  0  0  0
  9  8  2  0  0  0  0
  9 10  1  0  0  0  0
 10  5  2  0  0  0  0
 13  8  1  0  0  0  0
 14  9  1  0  0  0  0
 15 14  2  0  0  0  0
 16 14  1  0  0  0  0
 17 18  1  0  0  0  0
 17 16  2  0  0  0  0
 19 21  1  0  0  0  0
 19 17  1  0  0  0  0
 20 19  1  0  0  0  0
 21 23  2  0  0  0  0
 22 21  1  0  0  0  0
 23 16  1  0  0  0  0
 24 27  1  6  0  0  0
 24 35  1  0  0  0  0
 25 24  1  0  0  0  0
 25 29  1  0  0  0  0
 26 30  1  6  0  0  0
 26 25  1  0  0  0  0
 26 24  1  0  0  0  0
 28 25  1  0  0  0  0
 31 32  1  0  0  0  0
 32 33  2  0  0  0  0
 32 38  1  0  0  0  0
 33 39  1  0  0  0  0
 34 33  1  0  0  0  0
 35 34  2  0  0  0  0
 36 35  1  0  0  0  0
 36 31  2  0  0  0  0
 37 31  1  0  0  0  0
M  END
>  <minimizedAffinity>
-4.90636492

>  <minimizedRMSD>
0.496787786

$$$$
