
 OpenBabel03272508563D

 39 42  0  0  1  0  0  0  0  0999 V2000
   38.3470   31.8850   44.5180 C   0  0  0  0  0  0  0  0  0  0  0  0
   37.2270   32.4060   44.4100 O   0  0  0  0  0  0  0  0  0  0  0  0
   38.9380   31.6500   45.8290 N   0  0  0  0  0  0  0  0  0  0  0  0
   39.9280   31.4310   45.9750 H   0  0  0  0  0  0  0  0  0  0  0  0
   39.1490   31.4710   43.3390 C   0  0  0  0  0  0  0  0  0  0  0  0
   40.1370   30.5400   43.4910 C   0  0  0  0  0  0  0  0  0  0  0  0
   40.8520   30.1990   42.3530 C   0  0  0  0  0  0  0  0  0  0  0  0
   40.5340   30.8020   41.1630 C   0  0  0  0  0  0  0  0  0  0  0  0
   39.5340   31.7430   41.0130 C   0  0  0  0  0  0  0  0  0  0  0  0
   38.8690   32.0420   42.1390 N   0  0  0  0  0  0  0  0  0  0  0  0
   40.3820   30.0700   44.4320 H   0  0  0  0  0  0  0  0  0  0  0  0
   41.6320   29.4820   42.4110 H   0  0  0  0  0  0  0  0  0  0  0  0
   41.1100   30.5210   40.2720 H   0  0  0  0  0  0  0  0  0  0  0  0
   39.2380   32.3520   39.7200 C   0  0  0  0  0  0  0  0  0  0  0  0
   38.6830   33.4760   39.7070 O   0  0  0  0  0  0  0  0  0  0  0  0
   39.5820   31.6680   38.4770 C   0  0  0  0  0  0  0  0  0  0  0  0
   40.6300   32.0180   37.6520 C   0  0  0  0  0  0  0  0  0  0  0  0
   41.3660   32.8100   37.7380 H   0  0  0  0  0  0  0  0  0  0  0  0
   40.5700   31.1250   36.6370 N   0  0  0  0  0  0  0  0  0  0  0  0
   41.2030   31.0560   35.7970 H   0  0  0  0  0  0  0  0  0  0  0  0
   39.5390   30.2490   36.8010 C   0  0  0  0  0  0  0  0  0  0  0  0
   39.2740   29.4420   36.1360 H   0  0  0  0  0  0  0  0  0  0  0  0
   38.9280   30.6080   37.9680 N   0  0  0  0  0  0  0  0  0  0  0  0
   38.4350   31.1120   48.1980 C   0  0  2  0  0  0  0  0  0  0  0  0
   38.6720   32.5800   48.1290 C   0  0  0  0  0  0  0  0  0  0  0  0
   38.0630   31.7360   46.9700 C   0  0  1  0  0  0  0  0  0  0  0  0
   39.3580   30.4950   48.2730 H   0  0  0  0  0  0  0  0  0  0  0  0
   39.6970   32.9240   48.0270 H   0  0  0  0  0  0  0  0  0  0  0  0
   37.9870   33.2350   48.6880 H   0  0  0  0  0  0  0  0  0  0  0  0
   36.9830   31.9670   46.7790 H   0  0  0  0  0  0  0  0  0  0  0  0
   35.0640   30.2440   49.5090 C   0  0  0  0  0  0  0  0  0  0  0  0
   35.3940   29.5490   50.7230 C   0  0  0  0  0  0  0  0  0  0  0  0
   36.7800   29.4070   51.0590 C   0  0  0  0  0  0  0  0  0  0  0  0
   37.7420   29.9270   50.2280 N   0  0  0  0  0  0  0  0  0  0  0  0
   37.3570   30.5670   49.1050 C   0  0  0  0  0  0  0  0  0  0  0  0
   36.0330   30.7420   48.7190 N   0  0  0  0  0  0  0  0  0  0  0  0
   34.0100   30.3330   49.2860 H   0  0  0  0  0  0  0  0  0  0  0  0
   34.6340   29.1520   51.3570 H   0  0  0  0  0  0  0  0  0  0  0  0
   37.0390   28.8870   51.9700 H   0  0  0  0  0  0  0  0  0  0  0  0
  1  3  1  0  0  0  0
  2  1  2  0  0  0  0
  3  4  1  0  0  0  0
  3 26  1  0  0  0  0
  5  6  1  0  0  0  0
  5  1  1  0  0  0  0
  6 11  1  0  0  0  0
  7 12  1  0  0  0  0
  7  6  2  0  0  0  0
  8  7  1  0  0  0  0
  9  8  2  0  0  0  0
  9 10  1  0  0  0  0
 10  5  2  0  0  0  0
 13  8  1  0  0  0  0
 14  9  1  0  0  0  0
 15 14  2  0  0  0  0
 16 14  1  0  0  0  0
 17 18  1  0  0  0  0
 17 16  2  0  0  0  0
 19 21  1  0  0  0  0
 19 17  1  0  0  0  0
 20 19  1  0  0  0  0
 21 23  2  0  0  0  0
 22 21  1  0  0  0  0
 23 16  1  0  0  0  0
 24 27  1  6  0  0  0
 24 35  1  0  0  0  0
 25 24  1  0  0  0  0
 25 29  1  0  0  0  0
 26 30  1  6  0  0  0
 26 25  1  0  0  0  0
 26 24  1  0  0  0  0
 28 25  1  0  0  0  0
 31 32  1  0  0  0  0
 32 33  2  0  0  0  0
 32 38  1  0  0  0  0
 33 39  1  0  0  0  0
 34 33  1  0  0  0  0
 35 34  2  0  0  0  0
 36 35  1  0  0  0  0
 36 31  2  0  0  0  0
 37 31  1  0  0  0  0
M  END
>  <minimizedAffinity>
-4.92558241

>  <minimizedRMSD>
0.451072842

$$$$
