
 OpenBabel03272508563D

 39 42  0  0  1  0  0  0  0  0999 V2000
   38.4120   31.8310   44.5540 C   0  0  0  0  0  0  0  0  0  0  0  0
   37.3340   32.4310   44.4300 O   0  0  0  0  0  0  0  0  0  0  0  0
   38.9510   31.5280   45.8740 N   0  0  0  0  0  0  0  0  0  0  0  0
   39.9190   31.2380   46.0400 H   0  0  0  0  0  0  0  0  0  0  0  0
   39.2140   31.3890   43.3870 C   0  0  0  0  0  0  0  0  0  0  0  0
   40.2020   30.4610   43.5620 C   0  0  0  0  0  0  0  0  0  0  0  0
   40.9170   30.0920   42.4340 C   0  0  0  0  0  0  0  0  0  0  0  0
   40.6020   30.6660   41.2290 C   0  0  0  0  0  0  0  0  0  0  0  0
   39.6030   31.6040   41.0550 C   0  0  0  0  0  0  0  0  0  0  0  0
   38.9370   31.9310   42.1720 N   0  0  0  0  0  0  0  0  0  0  0  0
   40.4450   30.0140   44.5140 H   0  0  0  0  0  0  0  0  0  0  0  0
   41.6970   29.3760   42.5100 H   0  0  0  0  0  0  0  0  0  0  0  0
   41.1790   30.3640   40.3460 H   0  0  0  0  0  0  0  0  0  0  0  0
   39.3090   32.1820   39.7470 C   0  0  0  0  0  0  0  0  0  0  0  0
   38.6240   33.2310   39.7040 O   0  0  0  0  0  0  0  0  0  0  0  0
   39.8020   31.5530   38.5260 C   0  0  0  0  0  0  0  0  0  0  0  0
   39.1460   30.5550   37.8380 C   0  0  0  0  0  0  0  0  0  0  0  0
   38.2020   30.0600   38.0330 H   0  0  0  0  0  0  0  0  0  0  0  0
   39.9580   30.2820   36.7890 N   0  0  0  0  0  0  0  0  0  0  0  0
   39.8110   29.5730   36.0230 H   0  0  0  0  0  0  0  0  0  0  0  0
   41.0750   31.0640   36.8050 C   0  0  0  0  0  0  0  0  0  0  0  0
   41.8770   31.0450   36.0840 H   0  0  0  0  0  0  0  0  0  0  0  0
   40.9570   31.8580   37.9080 N   0  0  0  0  0  0  0  0  0  0  0  0
   38.4110   31.0840   48.2540 C   0  0  2  0  0  0  0  0  0  0  0  0
   38.6290   32.5500   48.1280 C   0  0  0  0  0  0  0  0  0  0  0  0
   38.0530   31.6500   46.9940 C   0  0  1  0  0  0  0  0  0  0  0  0
   39.3410   30.4830   48.3720 H   0  0  0  0  0  0  0  0  0  0  0  0
   39.6520   32.9040   48.0300 H   0  0  0  0  0  0  0  0  0  0  0  0
   37.9250   33.2190   48.6460 H   0  0  0  0  0  0  0  0  0  0  0  0
   36.9740   31.8580   46.7740 H   0  0  0  0  0  0  0  0  0  0  0  0
   35.0280   30.2280   49.5420 C   0  0  0  0  0  0  0  0  0  0  0  0
   35.3440   29.5860   50.7880 C   0  0  0  0  0  0  0  0  0  0  0  0
   36.7250   29.4730   51.1530 C   0  0  0  0  0  0  0  0  0  0  0  0
   37.6960   29.9710   50.3180 N   0  0  0  0  0  0  0  0  0  0  0  0
   37.3240   30.5620   49.1640 C   0  0  0  0  0  0  0  0  0  0  0  0
   36.0040   30.7060   48.7490 N   0  0  0  0  0  0  0  0  0  0  0  0
   33.9760   30.2960   49.2970 H   0  0  0  0  0  0  0  0  0  0  0  0
   34.5780   29.2050   51.4240 H   0  0  0  0  0  0  0  0  0  0  0  0
   36.9740   28.9920   52.0870 H   0  0  0  0  0  0  0  0  0  0  0  0
  1  3  1  0  0  0  0
  2  1  2  0  0  0  0
  3  4  1  0  0  0  0
  3 26  1  0  0  0  0
  5  6  1  0  0  0  0
  5  1  1  0  0  0  0
  6 11  1  0  0  0  0
  7 12  1  0  0  0  0
  7  6  2  0  0  0  0
  8  7  1  0  0  0  0
  9  8  2  0  0  0  0
  9 10  1  0  0  0  0
 10  5  2  0  0  0  0
 13  8  1  0  0  0  0
 14  9  1  0  0  0  0
 15 14  2  0  0  0  0
 16 14  1  0  0  0  0
 17 18  1  0  0  0  0
 17 16  2  0  0  0  0
 19 21  1  0  0  0  0
 19 17  1  0  0  0  0
 20 19  1  0  0  0  0
 21 23  2  0  0  0  0
 22 21  1  0  0  0  0
 23 16  1  0  0  0  0
 24 27  1  6  0  0  0
 24 35  1  0  0  0  0
 25 24  1  0  0  0  0
 25 29  1  0  0  0  0
 26 30  1  6  0  0  0
 26 25  1  0  0  0  0
 26 24  1  0  0  0  0
 28 25  1  0  0  0  0
 31 32  1  0  0  0  0
 32 33  2  0  0  0  0
 32 38  1  0  0  0  0
 33 39  1  0  0  0  0
 34 33  1  0  0  0  0
 35 34  2  0  0  0  0
 36 35  1  0  0  0  0
 36 31  2  0  0  0  0
 37 31  1  0  0  0  0
M  END
>  <minimizedAffinity>
-4.93964767

>  <minimizedRMSD>
0.707519829

$$$$
