
 OpenBabel03272507113D

 39 43  0  0  0  0  0  0  0  0999 V2000
   35.8690   29.1830   49.7860 C   0  0  0  0  0  0  0  0  0  0  0  0
   34.8230   29.7280   50.4760 C   0  0  0  0  0  0  0  0  0  0  0  0
   33.6520   29.1460   49.9790 C   0  0  0  0  0  0  0  0  0  0  0  0
   34.0750   28.2620   48.9930 C   0  0  0  0  0  0  0  0  0  0  0  0
   35.3740   28.3360   48.9350 O   0  0  0  0  0  0  0  0  0  0  0  0
   34.8460   30.4810   51.2760 H   0  0  0  0  0  0  0  0  0  0  0  0
   32.6660   29.4020   50.3540 H   0  0  0  0  0  0  0  0  0  0  0  0
   33.5650   26.4830   47.3230 C   0  0  0  0  0  0  0  0  0  0  0  0
   33.1510   27.4400   48.2120 C   0  0  0  0  0  0  0  0  0  0  0  0
   31.8000   27.6900   48.4250 C   0  0  0  0  0  0  0  0  0  0  0  0
   30.8720   26.9440   47.7110 C   0  0  0  0  0  0  0  0  0  0  0  0
   29.5340   26.9670   47.7080 N   0  0  0  0  0  0  0  0  0  0  0  0
   29.1210   26.0410   46.8340 N   0  0  0  0  0  0  0  0  0  0  0  0
   30.2070   25.4430   46.2920 C   0  0  0  0  0  0  0  0  0  0  0  0
   31.3380   25.9950   46.8300 C   0  0  0  0  0  0  0  0  0  0  0  0
   32.6770   25.7340   46.6070 C   0  0  0  0  0  0  0  0  0  0  0  0
   34.6260   26.3240   47.1920 H   0  0  0  0  0  0  0  0  0  0  0  0
   31.3880   28.4370   49.1180 H   0  0  0  0  0  0  0  0  0  0  0  0
   28.9010   27.5840   48.2770 H   0  0  0  0  0  0  0  0  0  0  0  0
   30.1480   24.6590   45.5560 H   0  0  0  0  0  0  0  0  0  0  0  0
   32.9820   24.9740   45.9010 H   0  0  0  0  0  0  0  0  0  0  0  0
   37.2440   29.5700   50.0550 C   0  0  0  0  0  0  0  0  0  0  0  0
   37.8950   28.9450   50.9130 O   0  0  0  0  0  0  0  0  0  0  0  0
   37.7790   30.6800   49.2910 C   0  0  0  0  0  0  0  0  0  0  0  0
   37.7280   31.9400   49.8810 C   0  0  0  0  0  0  0  0  0  0  0  0
   38.2310   33.0420   49.1820 C   0  0  0  0  0  0  0  0  0  0  0  0
   38.7530   32.7990   47.9390 N   0  0  0  0  0  0  0  0  0  0  0  0
   38.7940   31.5850   47.3900 C   0  0  0  0  0  0  0  0  0  0  0  0
   38.3060   30.5340   48.0710 N   0  0  0  0  0  0  0  0  0  0  0  0
   37.3260   32.1760   50.8570 H   0  0  0  0  0  0  0  0  0  0  0  0
   38.2130   34.0340   49.5990 H   0  0  0  0  0  0  0  0  0  0  0  0
   39.3530   31.3450   46.0630 C   0  0  0  0  0  0  0  0  0  0  0  0
   40.3440   32.1340   45.4970 C   0  0  0  0  0  0  0  0  0  0  0  0
   40.8210   32.9950   45.9330 H   0  0  0  0  0  0  0  0  0  0  0  0
   40.6000   31.6040   44.2720 N   0  0  0  0  0  0  0  0  0  0  0  0
   41.3080   31.9660   43.5710 H   0  0  0  0  0  0  0  0  0  0  0  0
   39.8100   30.5170   44.0500 C   0  0  0  0  0  0  0  0  0  0  0  0
   39.8080   29.9050   43.1520 H   0  0  0  0  0  0  0  0  0  0  0  0
   39.0490   30.3710   45.1610 N   0  0  0  0  0  0  0  0  0  0  0  0
  1 22  1  0  0  0  0
  1  2  2  0  0  0  0
  2  6  1  0  0  0  0
  3  7  1  0  0  0  0
  3  2  1  0  0  0  0
  4  3  2  0  0  0  0
  5  4  1  0  0  0  0
  5  1  1  0  0  0  0
  8  9  1  0  0  0  0
  9 10  2  0  0  0  0
  9  4  1  0  0  0  0
 10 18  1  0  0  0  0
 11 10  1  0  0  0  0
 12 11  1  0  0  0  0
 12 19  1  0  0  0  0
 13 12  1  0  0  0  0
 14 15  1  0  0  0  0
 14 13  2  0  0  0  0
 15 11  2  0  0  0  0
 16 15  1  0  0  0  0
 16  8  2  0  0  0  0
 17  8  1  0  0  0  0
 20 14  1  0  0  0  0
 21 16  1  0  0  0  0
 22 23  2  0  0  0  0
 24 25  1  0  0  0  0
 24 22  1  0  0  0  0
 25 30  1  0  0  0  0
 26 31  1  0  0  0  0
 26 25  2  0  0  0  0
 27 26  1  0  0  0  0
 28 27  2  0  0  0  0
 28 29  1  0  0  0  0
 29 24  2  0  0  0  0
 32 28  1  0  0  0  0
 33 34  1  0  0  0  0
 33 32  2  0  0  0  0
 35 33  1  0  0  0  0
 36 35  1  0  0  0  0
 37 35  1  0  0  0  0
 37 39  2  0  0  0  0
 38 37  1  0  0  0  0
 39 32  1  0  0  0  0
M  END
>  <minimizedAffinity>
-6.77433109

>  <minimizedRMSD>
0.539456725

$$$$
