
 OpenBabel03262521023D

 36 38  0  0  1  0  0  0  0  0999 V2000
   36.2990   25.0730   31.4590 S   0  0  0  0  0  0  0  0  0  0  0  0
   38.1130   26.9970   32.0610 N   0  0  0  0  0  0  0  0  0  0  0  0
   36.7110   26.7090   32.1880 C   0  0  1  0  0  0  0  0  0  0  0  0
   35.8910   27.7200   31.4400 C   0  0  0  0  0  0  0  0  0  0  0  0
   36.3090   27.6700   30.0470 N   0  0  0  0  0  0  0  0  0  0  0  0
   37.6720   28.2330   30.0520 C   0  0  0  0  0  0  0  0  0  0  0  0
   38.5490   27.1900   30.7160 C   0  0  2  0  0  0  0  0  0  0  0  0
   38.5280   27.5790   32.7840 H   0  0  0  0  0  0  0  0  0  0  0  0
   36.4500   26.6540   33.2520 H   0  0  0  0  0  0  0  0  0  0  0  0
   36.0590   28.7400   31.8190 H   0  0  0  0  0  0  0  0  0  0  0  0
   34.8160   27.4400   31.4740 H   0  0  0  0  0  0  0  0  0  0  0  0
   36.4370   26.6400   29.8350 H   0  0  0  0  0  0  0  0  0  0  0  0
   37.6290   29.1530   30.6510 H   0  0  0  0  0  0  0  0  0  0  0  0
   37.9710   28.4020   28.9960 H   0  0  0  0  0  0  0  0  0  0  0  0
   39.5860   27.5960   30.7460 H   0  0  0  0  0  0  0  0  0  0  0  0
   38.5180   25.9700   29.9440 N   0  0  0  0  0  0  0  0  0  0  0  0
   38.5630   26.2730   28.9280 H   0  0  0  0  0  0  0  0  0  0  0  0
   39.4090   25.4450   30.0930 H   0  0  0  0  0  0  0  0  0  0  0  0
   37.2960   21.5170   33.1290 C   0  0  0  0  0  0  0  0  0  0  0  0
   36.6830   22.4390   32.3060 C   0  0  0  0  0  0  0  0  0  0  0  0
   37.0030   23.7730   32.4460 C   0  0  0  0  0  0  0  0  0  0  0  0
   37.9260   24.1280   33.4080 N   0  0  0  0  0  0  0  0  0  0  0  0
   38.4800   23.1830   34.1700 C   0  0  0  0  0  0  0  0  0  0  0  0
   38.1850   21.8910   34.0510 N   0  0  0  0  0  0  0  0  0  0  0  0
   37.0040   20.4740   32.9750 H   0  0  0  0  0  0  0  0  0  0  0  0
   35.9510   22.1850   31.5390 H   0  0  0  0  0  0  0  0  0  0  0  0
   39.4610   23.5860   35.1810 C   0  0  0  0  0  0  0  0  0  0  0  0
   40.5670   24.0950   34.9190 O   0  0  0  0  0  0  0  0  0  0  0  0
   39.1330   23.3830   36.6010 C   0  0  0  0  0  0  0  0  0  0  0  0
   39.9320   22.6530   37.4770 C   0  0  0  0  0  0  0  0  0  0  0  0
   40.8630   22.1490   37.2680 H   0  0  0  0  0  0  0  0  0  0  0  0
   39.2740   22.7150   38.6680 N   0  0  0  0  0  0  0  0  0  0  0  0
   39.6780   22.2350   39.5070 H   0  0  0  0  0  0  0  0  0  0  0  0
   38.1370   23.4300   38.5730 C   0  0  0  0  0  0  0  0  0  0  0  0
   37.4540   23.6140   39.3900 H   0  0  0  0  0  0  0  0  0  0  0  0
   38.0750   23.8310   37.2870 N   0  0  0  0  0  0  0  0  0  0  0  0
  1  3  1  0  0  0  0
  1 21  1  0  0  0  0
  2  3  1  0  0  0  0
  2  8  1  0  0  0  0
  3  9  1  1  0  0  0
  4 11  1  0  0  0  0
  4 10  1  0  0  0  0
  4  3  1  0  0  0  0
  5  6  1  0  0  0  0
  5  4  1  0  0  0  0
  6 13  1  0  0  0  0
  6  7  1  0  0  0  0
  7 15  1  1  0  0  0
  7  2  1  0  0  0  0
 12  5  1  0  0  0  0
 14  6  1  0  0  0  0
 16 18  1  0  0  0  0
 16  7  1  0  0  0  0
 17 16  1  0  0  0  0
 19 24  1  0  0  0  0
 20 21  1  0  0  0  0
 20 19  2  0  0  0  0
 21 22  2  0  0  0  0
 22 23  1  0  0  0  0
 23 27  1  0  0  0  0
 24 23  2  0  0  0  0
 25 19  1  0  0  0  0
 26 20  1  0  0  0  0
 27 29  1  0  0  0  0
 28 27  2  0  0  0  0
 29 36  1  0  0  0  0
 29 30  2  0  0  0  0
 30 32  1  0  0  0  0
 31 30  1  0  0  0  0
 32 33  1  0  0  0  0
 34 32  1  0  0  0  0
 34 35  1  0  0  0  0
 36 34  2  0  0  0  0
M  END
>  <minimizedAffinity>
-5.3912034

$$$$

 OpenBabel03262521023D

 36 38  0  0  1  0  0  0  0  0999 V2000
   38.8450   22.1370   35.0610 S   0  0  0  0  0  0  0  0  0  0  0  0
   38.5130   24.4090   36.5030 N   0  0  0  0  0  0  0  0  0  0  0  0
   39.5450   23.6210   35.8890 C   0  0  1  0  0  0  0  0  0  0  0  0
   40.5080   23.1100   36.9220 C   0  0  0  0  0  0  0  0  0  0  0  0
   39.7420   22.3170   37.8710 N   0  0  0  0  0  0  0  0  0  0  0  0
   38.9190   23.3040   38.5940 C   0  0  0  0  0  0  0  0  0  0  0  0
   37.8690   23.7720   37.6050 C   0  0  2  0  0  0  0  0  0  0  0  0
   38.6770   25.4110   36.5620 H   0  0  0  0  0  0  0  0  0  0  0  0
   40.0350   24.2150   35.1080 H   0  0  0  0  0  0  0  0  0  0  0  0
   40.9950   23.9330   37.4650 H   0  0  0  0  0  0  0  0  0  0  0  0
   41.2520   22.4320   36.4480 H   0  0  0  0  0  0  0  0  0  0  0  0
   39.0570   21.7660   37.2810 H   0  0  0  0  0  0  0  0  0  0  0  0
   39.5900   24.1270   38.8750 H   0  0  0  0  0  0  0  0  0  0  0  0
   38.4570   22.7880   39.4610 H   0  0  0  0  0  0  0  0  0  0  0  0
   37.2390   24.5320   38.1210 H   0  0  0  0  0  0  0  0  0  0  0  0
   37.0570   22.6490   37.1970 N   0  0  0  0  0  0  0  0  0  0  0  0
   36.8800   22.0870   38.0790 H   0  0  0  0  0  0  0  0  0  0  0  0
   36.1090   22.9920   36.9200 H   0  0  0  0  0  0  0  0  0  0  0  0
   36.1130   22.3180   32.0720 C   0  0  0  0  0  0  0  0  0  0  0  0
   36.8510   21.8270   33.1290 C   0  0  0  0  0  0  0  0  0  0  0  0
   37.8190   22.6300   33.6960 C   0  0  0  0  0  0  0  0  0  0  0  0
   38.0070   23.8940   33.1770 N   0  0  0  0  0  0  0  0  0  0  0  0
   37.2570   24.3040   32.1520 C   0  0  0  0  0  0  0  0  0  0  0  0
   36.3190   23.5460   31.5920 N   0  0  0  0  0  0  0  0  0  0  0  0
   35.3600   21.6380   31.6620 H   0  0  0  0  0  0  0  0  0  0  0  0
   36.7220   20.8320   33.5580 H   0  0  0  0  0  0  0  0  0  0  0  0
   37.4750   25.6520   31.6220 C   0  0  0  0  0  0  0  0  0  0  0  0
   38.1850   25.9080   30.6300 O   0  0  0  0  0  0  0  0  0  0  0  0
   36.8220   26.7880   32.2920 C   0  0  0  0  0  0  0  0  0  0  0  0
   35.7790   27.5170   31.7280 C   0  0  0  0  0  0  0  0  0  0  0  0
   35.3110   27.3760   30.7660 H   0  0  0  0  0  0  0  0  0  0  0  0
   35.4770   28.4580   32.6660 N   0  0  0  0  0  0  0  0  0  0  0  0
   34.7090   29.1450   32.4780 H   0  0  0  0  0  0  0  0  0  0  0  0
   36.2620   28.3480   33.7530 C   0  0  0  0  0  0  0  0  0  0  0  0
   36.2020   28.9860   34.6240 H   0  0  0  0  0  0  0  0  0  0  0  0
   37.0820   27.3090   33.4970 N   0  0  0  0  0  0  0  0  0  0  0  0
  1  3  1  0  0  0  0
  2  8  1  0  0  0  0
  2  7  1  0  0  0  0
  3  9  1  6  0  0  0
  3  2  1  0  0  0  0
  3  4  1  0  0  0  0
  4 10  1  0  0  0  0
  4  5  1  0  0  0  0
  5  6  1  0  0  0  0
  6 13  1  0  0  0  0
  6 14  1  0  0  0  0
  7 15  1  1  0  0  0
  7  6  1  0  0  0  0
 11  4  1  0  0  0  0
 12  5  1  0  0  0  0
 16  7  1  0  0  0  0
 16 17  1  0  0  0  0
 18 16  1  0  0  0  0
 19 20  1  0  0  0  0
 20 26  1  0  0  0  0
 20 21  2  0  0  0  0
 21  1  1  0  0  0  0
 22 21  1  0  0  0  0
 23 22  2  0  0  0  0
 24 19  2  0  0  0  0
 24 23  1  0  0  0  0
 25 19  1  0  0  0  0
 27 23  1  0  0  0  0
 27 29  1  0  0  0  0
 28 27  2  0  0  0  0
 29 36  1  0  0  0  0
 30 29  2  0  0  0  0
 30 32  1  0  0  0  0
 31 30  1  0  0  0  0
 32 34  1  0  0  0  0
 33 32  1  0  0  0  0
 34 35  1  0  0  0  0
 36 34  2  0  0  0  0
M  END
>  <minimizedAffinity>
-5.12911272

$$$$

 OpenBabel03262521023D

 36 38  0  0  1  0  0  0  0  0999 V2000
   38.9230   22.3520   34.6920 S   0  0  0  0  0  0  0  0  0  0  0  0
   38.8340   24.4360   36.4240 N   0  0  0  0  0  0  0  0  0  0  0  0
   39.7730   23.6620   35.6610 C   0  0  1  0  0  0  0  0  0  0  0  0
   40.7390   22.9530   36.5670 C   0  0  0  0  0  0  0  0  0  0  0  0
   39.9570   22.1010   37.4490 N   0  0  0  0  0  0  0  0  0  0  0  0
   39.2460   23.0430   38.3350 C   0  0  0  0  0  0  0  0  0  0  0  0
   38.1930   23.7090   37.4710 C   0  0  2  0  0  0  0  0  0  0  0  0
   39.0790   25.4080   36.6010 H   0  0  0  0  0  0  0  0  0  0  0  0
   40.2730   24.3160   34.9350 H   0  0  0  0  0  0  0  0  0  0  0  0
   41.3120   23.6620   37.1820 H   0  0  0  0  0  0  0  0  0  0  0  0
   41.4050   22.2910   35.9710 H   0  0  0  0  0  0  0  0  0  0  0  0
   39.2050   21.6820   36.8330 H   0  0  0  0  0  0  0  0  0  0  0  0
   39.9920   23.7720   38.6800 H   0  0  0  0  0  0  0  0  0  0  0  0
   38.7850   22.4540   39.1540 H   0  0  0  0  0  0  0  0  0  0  0  0
   37.6480   24.4390   38.1120 H   0  0  0  0  0  0  0  0  0  0  0  0
   37.2780   22.7110   36.9700 N   0  0  0  0  0  0  0  0  0  0  0  0
   37.0970   22.0530   37.7830 H   0  0  0  0  0  0  0  0  0  0  0  0
   36.3480   23.1540   36.7910 H   0  0  0  0  0  0  0  0  0  0  0  0
   36.2300   23.0540   31.7440 C   0  0  0  0  0  0  0  0  0  0  0  0
   37.0330   22.3710   32.6340 C   0  0  0  0  0  0  0  0  0  0  0  0
   37.8370   23.0910   33.4930 C   0  0  0  0  0  0  0  0  0  0  0  0
   37.8010   24.4680   33.4250 N   0  0  0  0  0  0  0  0  0  0  0  0
   37.0000   25.0630   32.5390 C   0  0  0  0  0  0  0  0  0  0  0  0
   36.2170   24.3880   31.7020 N   0  0  0  0  0  0  0  0  0  0  0  0
   35.6150   22.4330   31.0860 H   0  0  0  0  0  0  0  0  0  0  0  0
   37.0810   21.2840   32.7080 H   0  0  0  0  0  0  0  0  0  0  0  0
   36.9780   26.5270   32.4900 C   0  0  0  0  0  0  0  0  0  0  0  0
   36.7140   27.2560   33.4660 O   0  0  0  0  0  0  0  0  0  0  0  0
   37.2830   27.1950   31.2150 C   0  0  0  0  0  0  0  0  0  0  0  0
   36.3270   27.8430   30.4380 C   0  0  0  0  0  0  0  0  0  0  0  0
   35.2720   27.9530   30.6340 H   0  0  0  0  0  0  0  0  0  0  0  0
   37.0230   28.3120   29.3650 N   0  0  0  0  0  0  0  0  0  0  0  0
   36.5200   28.8480   28.6180 H   0  0  0  0  0  0  0  0  0  0  0  0
   38.3280   27.9940   29.4390 C   0  0  0  0  0  0  0  0  0  0  0  0
   39.0710   28.2620   28.7010 H   0  0  0  0  0  0  0  0  0  0  0  0
   38.4620   27.3050   30.5900 N   0  0  0  0  0  0  0  0  0  0  0  0
  1  3  1  0  0  0  0
  2  8  1  0  0  0  0
  2  7  1  0  0  0  0
  3  9  1  6  0  0  0
  3  2  1  0  0  0  0
  3  4  1  0  0  0  0
  4 10  1  0  0  0  0
  4  5  1  0  0  0  0
  5  6  1  0  0  0  0
  6 13  1  0  0  0  0
  6 14  1  0  0  0  0
  7 15  1  1  0  0  0
  7  6  1  0  0  0  0
 11  4  1  0  0  0  0
 12  5  1  0  0  0  0
 16  7  1  0  0  0  0
 16 17  1  0  0  0  0
 18 16  1  0  0  0  0
 19 20  1  0  0  0  0
 20 26  1  0  0  0  0
 20 21  2  0  0  0  0
 21  1  1  0  0  0  0
 22 21  1  0  0  0  0
 23 22  2  0  0  0  0
 24 19  2  0  0  0  0
 24 23  1  0  0  0  0
 25 19  1  0  0  0  0
 27 23  1  0  0  0  0
 27 28  2  0  0  0  0
 29 27  1  0  0  0  0
 30 31  1  0  0  0  0
 30 29  2  0  0  0  0
 32 34  1  0  0  0  0
 32 30  1  0  0  0  0
 33 32  1  0  0  0  0
 34 36  2  0  0  0  0
 35 34  1  0  0  0  0
 36 29  1  0  0  0  0
M  END
>  <minimizedAffinity>
-5.05371475

$$$$

 OpenBabel03262521023D

 36 38  0  0  1  0  0  0  0  0999 V2000
   38.0670   27.2740   32.7210 S   0  0  0  0  0  0  0  0  0  0  0  0
   36.6880   27.0740   30.3950 N   0  0  0  0  0  0  0  0  0  0  0  0
   37.8320   26.5190   31.0620 C   0  0  1  0  0  0  0  0  0  0  0  0
   39.0880   26.8040   30.2890 C   0  0  0  0  0  0  0  0  0  0  0  0
   39.2040   28.2490   30.1720 N   0  0  0  0  0  0  0  0  0  0  0  0
   38.1140   28.6320   29.2550 C   0  0  0  0  0  0  0  0  0  0  0  0
   36.8290   28.4490   30.0390 C   0  0  2  0  0  0  0  0  0  0  0  0
   36.1950   26.4640   29.7470 H   0  0  0  0  0  0  0  0  0  0  0  0
   37.6680   25.4460   31.2260 H   0  0  0  0  0  0  0  0  0  0  0  0
   39.0490   26.3730   29.2780 H   0  0  0  0  0  0  0  0  0  0  0  0
   39.9750   26.4450   30.8560 H   0  0  0  0  0  0  0  0  0  0  0  0
   38.9140   28.6270   31.1180 H   0  0  0  0  0  0  0  0  0  0  0  0
   38.1600   27.9370   28.4050 H   0  0  0  0  0  0  0  0  0  0  0  0
   38.2680   29.6940   28.9730 H   0  0  0  0  0  0  0  0  0  0  0  0
   35.9850   28.7180   29.3650 H   0  0  0  0  0  0  0  0  0  0  0  0
   36.8390   29.3190   31.1920 N   0  0  0  0  0  0  0  0  0  0  0  0
   37.2390   30.2410   30.8520 H   0  0  0  0  0  0  0  0  0  0  0  0
   35.8550   29.5510   31.4570 H   0  0  0  0  0  0  0  0  0  0  0  0
   41.7310   26.4970   34.2700 C   0  0  0  0  0  0  0  0  0  0  0  0
   40.7090   27.1580   33.6210 C   0  0  0  0  0  0  0  0  0  0  0  0
   39.4760   26.5480   33.5250 C   0  0  0  0  0  0  0  0  0  0  0  0
   39.3190   25.2980   34.0870 N   0  0  0  0  0  0  0  0  0  0  0  0
   40.3510   24.7160   34.7010 C   0  0  0  0  0  0  0  0  0  0  0  0
   41.5480   25.2870   34.8030 N   0  0  0  0  0  0  0  0  0  0  0  0
   42.6870   27.0270   34.3150 H   0  0  0  0  0  0  0  0  0  0  0  0
   40.8080   28.1460   33.1680 H   0  0  0  0  0  0  0  0  0  0  0  0
   40.1560   23.3900   35.2920 C   0  0  0  0  0  0  0  0  0  0  0  0
   40.4880   22.3230   34.7410 O   0  0  0  0  0  0  0  0  0  0  0  0
   39.5300   23.2950   36.6200 C   0  0  0  0  0  0  0  0  0  0  0  0
   40.1270   22.6650   37.7080 C   0  0  0  0  0  0  0  0  0  0  0  0
   41.0870   22.1750   37.7500 H   0  0  0  0  0  0  0  0  0  0  0  0
   39.2240   22.8050   38.7190 N   0  0  0  0  0  0  0  0  0  0  0  0
   39.4420   22.4080   39.6640 H   0  0  0  0  0  0  0  0  0  0  0  0
   38.1270   23.4730   38.3180 C   0  0  0  0  0  0  0  0  0  0  0  0
   37.2800   23.7030   38.9490 H   0  0  0  0  0  0  0  0  0  0  0  0
   38.3420   23.7650   37.0200 N   0  0  0  0  0  0  0  0  0  0  0  0
  1 21  1  0  0  0  0
  2  3  1  0  0  0  0
  3  9  1  1  0  0  0
  3  1  1  0  0  0  0
  4 11  1  0  0  0  0
  4  3  1  0  0  0  0
  5  4  1  0  0  0  0
  5 12  1  0  0  0  0
  6  7  1  0  0  0  0
  6  5  1  0  0  0  0
  7 15  1  6  0  0  0
  7  2  1  0  0  0  0
  7 16  1  0  0  0  0
  8  2  1  0  0  0  0
 10  4  1  0  0  0  0
 13  6  1  0  0  0  0
 14  6  1  0  0  0  0
 16 18  1  0  0  0  0
 17 16  1  0  0  0  0
 19 25  1  0  0  0  0
 19 24  1  0  0  0  0
 20 19  2  0  0  0  0
 21 20  1  0  0  0  0
 21 22  2  0  0  0  0
 22 23  1  0  0  0  0
 23 24  2  0  0  0  0
 23 27  1  0  0  0  0
 26 20  1  0  0  0  0
 27 29  1  0  0  0  0
 28 27  2  0  0  0  0
 29 36  1  0  0  0  0
 29 30  2  0  0  0  0
 30 31  1  0  0  0  0
 30 32  1  0  0  0  0
 32 33  1  0  0  0  0
 34 32  1  0  0  0  0
 34 35  1  0  0  0  0
 36 34  2  0  0  0  0
M  END
>  <minimizedAffinity>
-5.00098801

$$$$

 OpenBabel03262521023D

 36 38  0  0  1  0  0  0  0  0999 V2000
   35.8860   22.3690   31.5490 S   0  0  0  0  0  0  0  0  0  0  0  0
   37.3770   20.3040   32.4790 N   0  0  0  0  0  0  0  0  0  0  0  0
   36.9090   20.8730   31.2460 C   0  0  1  0  0  0  0  0  0  0  0  0
   36.0270   19.9030   30.5130 C   0  0  0  0  0  0  0  0  0  0  0  0
   34.9140   19.5820   31.3940 N   0  0  0  0  0  0  0  0  0  0  0  0
   35.5200   18.7830   32.4750 C   0  0  0  0  0  0  0  0  0  0  0  0
   36.3440   19.7550   33.2970 C   0  0  2  0  0  0  0  0  0  0  0  0
   38.2690   19.8160   32.4490 H   0  0  0  0  0  0  0  0  0  0  0  0
   37.7710   21.1970   30.6490 H   0  0  0  0  0  0  0  0  0  0  0  0
   36.5620   18.9720   30.2710 H   0  0  0  0  0  0  0  0  0  0  0  0
   35.6030   20.3830   29.6050 H   0  0  0  0  0  0  0  0  0  0  0  0
   34.6470   20.5010   31.8470 H   0  0  0  0  0  0  0  0  0  0  0  0
   36.1610   18.0330   31.9910 H   0  0  0  0  0  0  0  0  0  0  0  0
   34.6950   18.3440   33.0740 H   0  0  0  0  0  0  0  0  0  0  0  0
   36.8270   19.1740   34.1160 H   0  0  0  0  0  0  0  0  0  0  0  0
   35.4810   20.7700   33.8520 N   0  0  0  0  0  0  0  0  0  0  0  0
   34.6090   20.2600   34.1750 H   0  0  0  0  0  0  0  0  0  0  0  0
   35.9030   21.1360   34.7360 H   0  0  0  0  0  0  0  0  0  0  0  0
   37.5110   25.8060   32.9550 C   0  0  0  0  0  0  0  0  0  0  0  0
   36.7160   24.9510   32.2200 C   0  0  0  0  0  0  0  0  0  0  0  0
   36.8390   23.5910   32.4190 C   0  0  0  0  0  0  0  0  0  0  0  0
   37.7550   23.1460   33.3490 N   0  0  0  0  0  0  0  0  0  0  0  0
   38.4920   24.0300   34.0250 C   0  0  0  0  0  0  0  0  0  0  0  0
   38.3880   25.3450   33.8480 N   0  0  0  0  0  0  0  0  0  0  0  0
   37.3720   26.8730   32.7560 H   0  0  0  0  0  0  0  0  0  0  0  0
   35.9850   25.2770   31.4790 H   0  0  0  0  0  0  0  0  0  0  0  0
   39.4540   23.5310   35.0100 C   0  0  0  0  0  0  0  0  0  0  0  0
   40.6300   23.2160   34.7420 O   0  0  0  0  0  0  0  0  0  0  0  0
   39.0220   23.3870   36.4090 C   0  0  0  0  0  0  0  0  0  0  0  0
   39.8020   22.7910   37.3970 C   0  0  0  0  0  0  0  0  0  0  0  0
   40.7880   22.3650   37.3010 H   0  0  0  0  0  0  0  0  0  0  0  0
   39.0370   22.8650   38.5220 N   0  0  0  0  0  0  0  0  0  0  0  0
   39.4070   22.4770   39.4230 H   0  0  0  0  0  0  0  0  0  0  0  0
   37.8550   23.4620   38.2840 C   0  0  0  0  0  0  0  0  0  0  0  0
   37.0880   23.6310   39.0270 H   0  0  0  0  0  0  0  0  0  0  0  0
   37.8710   23.7740   36.9730 N   0  0  0  0  0  0  0  0  0  0  0  0
  1 21  1  0  0  0  0
  2  7  1  0  0  0  0
  3  9  1  6  0  0  0
  3  1  1  0  0  0  0
  3  2  1  0  0  0  0
  4  3  1  0  0  0  0
  4  5  1  0  0  0  0
  5 12  1  0  0  0  0
  5  6  1  0  0  0  0
  6 14  1  0  0  0  0
  6  7  1  0  0  0  0
  7 16  1  0  0  0  0
  7 15  1  1  0  0  0
  8  2  1  0  0  0  0
 10  4  1  0  0  0  0
 11  4  1  0  0  0  0
 13  6  1  0  0  0  0
 16 17  1  0  0  0  0
 16 18  1  0  0  0  0
 19 24  1  0  0  0  0
 20 21  1  0  0  0  0
 20 19  2  0  0  0  0
 21 22  2  0  0  0  0
 22 23  1  0  0  0  0
 23 27  1  0  0  0  0
 24 23  2  0  0  0  0
 25 19  1  0  0  0  0
 26 20  1  0  0  0  0
 27 29  1  0  0  0  0
 28 27  2  0  0  0  0
 29 36  1  0  0  0  0
 29 30  2  0  0  0  0
 30 32  1  0  0  0  0
 31 30  1  0  0  0  0
 32 33  1  0  0  0  0
 34 32  1  0  0  0  0
 34 35  1  0  0  0  0
 36 34  2  0  0  0  0
M  END
>  <minimizedAffinity>
-4.81362677

$$$$

 OpenBabel03262521023D

 36 38  0  0  1  0  0  0  0  0999 V2000
   38.8490   26.9450   30.9380 S   0  0  0  0  0  0  0  0  0  0  0  0
   39.4770   26.3150   28.3760 N   0  0  0  0  0  0  0  0  0  0  0  0
   40.0500   26.3240   29.6930 C   0  0  1  0  0  0  0  0  0  0  0  0
   41.2310   27.2500   29.7520 C   0  0  0  0  0  0  0  0  0  0  0  0
   40.7600   28.5750   29.3800 N   0  0  0  0  0  0  0  0  0  0  0  0
   40.4510   28.4640   27.9420 C   0  0  0  0  0  0  0  0  0  0  0  0
   39.2010   27.6120   27.8500 C   0  0  2  0  0  0  0  0  0  0  0  0
   39.8190   25.6040   27.7340 H   0  0  0  0  0  0  0  0  0  0  0  0
   40.3010   25.2970   29.9850 H   0  0  0  0  0  0  0  0  0  0  0  0
   42.0190   26.9480   29.0470 H   0  0  0  0  0  0  0  0  0  0  0  0
   41.6140   27.3160   30.7940 H   0  0  0  0  0  0  0  0  0  0  0  0
   39.8200   28.6780   29.8560 H   0  0  0  0  0  0  0  0  0  0  0  0
   41.3080   27.9590   27.4750 H   0  0  0  0  0  0  0  0  0  0  0  0
   40.2730   29.4890   27.5550 H   0  0  0  0  0  0  0  0  0  0  0  0
   38.9520   27.4990   26.7710 H   0  0  0  0  0  0  0  0  0  0  0  0
   38.1170   28.2700   28.5430 N   0  0  0  0  0  0  0  0  0  0  0  0
   38.1960   29.2960   28.2880 H   0  0  0  0  0  0  0  0  0  0  0  0
   37.2080   27.9720   28.1220 H   0  0  0  0  0  0  0  0  0  0  0  0
   40.6170   26.7200   34.5780 C   0  0  0  0  0  0  0  0  0  0  0  0
   40.2900   27.1800   33.3200 C   0  0  0  0  0  0  0  0  0  0  0  0
   39.3690   26.4760   32.5710 C   0  0  0  0  0  0  0  0  0  0  0  0
   38.8130   25.3390   33.1180 N   0  0  0  0  0  0  0  0  0  0  0  0
   39.1750   24.9510   34.3430 C   0  0  0  0  0  0  0  0  0  0  0  0
   40.0610   25.6150   35.0800 N   0  0  0  0  0  0  0  0  0  0  0  0
   41.3520   27.3150   35.1260 H   0  0  0  0  0  0  0  0  0  0  0  0
   40.7150   28.0750   32.8640 H   0  0  0  0  0  0  0  0  0  0  0  0
   38.5670   23.7420   34.9020 C   0  0  0  0  0  0  0  0  0  0  0  0
   37.8890   22.9300   34.2420 O   0  0  0  0  0  0  0  0  0  0  0  0
   38.7570   23.4520   36.3320 C   0  0  0  0  0  0  0  0  0  0  0  0
   39.7330   22.5860   36.8170 C   0  0  0  0  0  0  0  0  0  0  0  0
   40.4610   22.0220   36.2570 H   0  0  0  0  0  0  0  0  0  0  0  0
   39.5630   22.6070   38.1690 N   0  0  0  0  0  0  0  0  0  0  0  0
   40.1880   22.0260   38.7770 H   0  0  0  0  0  0  0  0  0  0  0  0
   38.5570   23.4230   38.5330 C   0  0  0  0  0  0  0  0  0  0  0  0
   38.2420   23.5980   39.5520 H   0  0  0  0  0  0  0  0  0  0  0  0
   38.0770   23.9320   37.3800 N   0  0  0  0  0  0  0  0  0  0  0  0
  1 21  1  0  0  0  0
  2  3  1  0  0  0  0
  3  4  1  0  0  0  0
  3  9  1  1  0  0  0
  3  1  1  0  0  0  0
  4 11  1  0  0  0  0
  5  4  1  0  0  0  0
  5 12  1  0  0  0  0
  6  5  1  0  0  0  0
  7 15  1  6  0  0  0
  7  6  1  0  0  0  0
  7  2  1  0  0  0  0
  7 16  1  0  0  0  0
  8  2  1  0  0  0  0
 10  4  1  0  0  0  0
 13  6  1  0  0  0  0
 14  6  1  0  0  0  0
 17 16  1  0  0  0  0
 18 16  1  0  0  0  0
 19 24  1  0  0  0  0
 19 25  1  0  0  0  0
 20 19  2  0  0  0  0
 21 22  2  0  0  0  0
 21 20  1  0  0  0  0
 22 23  1  0  0  0  0
 23 27  1  0  0  0  0
 23 24  2  0  0  0  0
 26 20  1  0  0  0  0
 27 29  1  0  0  0  0
 28 27  2  0  0  0  0
 29 30  2  0  0  0  0
 29 36  1  0  0  0  0
 30 32  1  0  0  0  0
 31 30  1  0  0  0  0
 32 34  1  0  0  0  0
 32 33  1  0  0  0  0
 34 35  1  0  0  0  0
 36 34  2  0  0  0  0
M  END
>  <minimizedAffinity>
-4.79302692

$$$$

 OpenBabel03262521023D

 36 38  0  0  1  0  0  0  0  0999 V2000
   38.2470   25.2650   36.6450 S   0  0  0  0  0  0  0  0  0  0  0  0
   38.3930   22.6550   35.9240 N   0  0  0  0  0  0  0  0  0  0  0  0
   37.7730   23.5070   36.8990 C   0  0  1  0  0  0  0  0  0  0  0  0
   38.2260   23.1470   38.2850 C   0  0  0  0  0  0  0  0  0  0  0  0
   39.6730   23.2880   38.3160 N   0  0  0  0  0  0  0  0  0  0  0  0
   40.1680   22.1860   37.4700 C   0  0  0  0  0  0  0  0  0  0  0  0
   39.8130   22.5650   36.0460 C   0  0  2  0  0  0  0  0  0  0  0  0
   37.8840   21.8140   35.6610 H   0  0  0  0  0  0  0  0  0  0  0  0
   36.6830   23.4560   36.7820 H   0  0  0  0  0  0  0  0  0  0  0  0
   37.9690   22.1070   38.5380 H   0  0  0  0  0  0  0  0  0  0  0  0
   37.8070   23.8660   39.0230 H   0  0  0  0  0  0  0  0  0  0  0  0
   39.8770   24.1700   37.7670 H   0  0  0  0  0  0  0  0  0  0  0  0
   39.6280   21.2820   37.7850 H   0  0  0  0  0  0  0  0  0  0  0  0
   41.2670   22.1200   37.6100 H   0  0  0  0  0  0  0  0  0  0  0  0
   40.1620   21.7410   35.3830 H   0  0  0  0  0  0  0  0  0  0  0  0
   40.4760   23.7980   35.6950 N   0  0  0  0  0  0  0  0  0  0  0  0
   41.4550   23.7210   36.0970 H   0  0  0  0  0  0  0  0  0  0  0  0
   40.6280   23.8260   34.6610 H   0  0  0  0  0  0  0  0  0  0  0  0
   36.8050   27.4050   33.5190 C   0  0  0  0  0  0  0  0  0  0  0  0
   37.2080   27.0860   34.8000 C   0  0  0  0  0  0  0  0  0  0  0  0
   37.6920   25.8190   35.0510 C   0  0  0  0  0  0  0  0  0  0  0  0
   37.7520   24.9230   34.0040 N   0  0  0  0  0  0  0  0  0  0  0  0
   37.3460   25.2990   32.7890 C   0  0  0  0  0  0  0  0  0  0  0  0
   36.8760   26.5150   32.5270 N   0  0  0  0  0  0  0  0  0  0  0  0
   36.4300   28.4220   33.3780 H   0  0  0  0  0  0  0  0  0  0  0  0
   37.1700   27.7760   35.6440 H   0  0  0  0  0  0  0  0  0  0  0  0
   37.4240   24.3280   31.6950 C   0  0  0  0  0  0  0  0  0  0  0  0
   37.9870   24.5480   30.6040 O   0  0  0  0  0  0  0  0  0  0  0  0
   36.8050   23.0060   31.8780 C   0  0  0  0  0  0  0  0  0  0  0  0
   37.5310   21.8460   32.1340 C   0  0  0  0  0  0  0  0  0  0  0  0
   38.5990   21.7370   32.2330 H   0  0  0  0  0  0  0  0  0  0  0  0
   36.5850   20.8700   32.2330 N   0  0  0  0  0  0  0  0  0  0  0  0
   36.8810   19.8840   32.4270 H   0  0  0  0  0  0  0  0  0  0  0  0
   35.3440   21.3580   32.0550 C   0  0  0  0  0  0  0  0  0  0  0  0
   34.4380   20.7690   32.0910 H   0  0  0  0  0  0  0  0  0  0  0  0
   35.5080   22.6780   31.8380 N   0  0  0  0  0  0  0  0  0  0  0  0
  1  3  1  0  0  0  0
  2  7  1  0  0  0  0
  2  3  1  0  0  0  0
  3  9  1  6  0  0  0
  3  4  1  0  0  0  0
  4  5  1  0  0  0  0
  4 10  1  0  0  0  0
  4 11  1  0  0  0  0
  6 14  1  0  0  0  0
  6 13  1  0  0  0  0
  6  5  1  0  0  0  0
  7 15  1  6  0  0  0
  7  6  1  0  0  0  0
  8  2  1  0  0  0  0
 12  5  1  0  0  0  0
 16  7  1  0  0  0  0
 16 17  1  0  0  0  0
 18 16  1  0  0  0  0
 19 20  1  0  0  0  0
 20 21  2  0  0  0  0
 20 26  1  0  0  0  0
 21  1  1  0  0  0  0
 22 21  1  0  0  0  0
 23 22  2  0  0  0  0
 24 23  1  0  0  0  0
 24 19  2  0  0  0  0
 25 19  1  0  0  0  0
 27 29  1  0  0  0  0
 27 23  1  0  0  0  0
 28 27  2  0  0  0  0
 29 30  2  0  0  0  0
 30 32  1  0  0  0  0
 30 31  1  0  0  0  0
 32 33  1  0  0  0  0
 34 35  1  0  0  0  0
 34 32  1  0  0  0  0
 36 29  1  0  0  0  0
 36 34  2  0  0  0  0
M  END
>  <minimizedAffinity>
-4.79107428

$$$$

 OpenBabel03262521023D

 36 38  0  0  1  0  0  0  0  0999 V2000
   39.4810   22.0560   35.1700 S   0  0  0  0  0  0  0  0  0  0  0  0
   38.6730   24.3330   36.4010 N   0  0  0  0  0  0  0  0  0  0  0  0
   39.8700   23.6100   36.0710 C   0  0  1  0  0  0  0  0  0  0  0  0
   40.6030   23.2000   37.3160 C   0  0  0  0  0  0  0  0  0  0  0  0
   39.6970   22.3760   38.1000 N   0  0  0  0  0  0  0  0  0  0  0  0
   38.6640   23.3160   38.5750 C   0  0  0  0  0  0  0  0  0  0  0  0
   37.8390   23.6770   37.3560 C   0  0  2  0  0  0  0  0  0  0  0  0
   38.7500   25.3460   36.4540 H   0  0  0  0  0  0  0  0  0  0  0  0
   40.4840   24.2190   35.3970 H   0  0  0  0  0  0  0  0  0  0  0  0
   40.8950   24.0720   37.9200 H   0  0  0  0  0  0  0  0  0  0  0  0
   41.4800   22.5690   37.0520 H   0  0  0  0  0  0  0  0  0  0  0  0
   39.2040   21.7590   37.3940 H   0  0  0  0  0  0  0  0  0  0  0  0
   39.1960   24.1950   38.9660 H   0  0  0  0  0  0  0  0  0  0  0  0
   38.0530   22.7890   39.3370 H   0  0  0  0  0  0  0  0  0  0  0  0
   37.0580   24.4000   37.6830 H   0  0  0  0  0  0  0  0  0  0  0  0
   37.2200   22.4860   36.8220 N   0  0  0  0  0  0  0  0  0  0  0  0
   36.8850   21.9350   37.6650 H   0  0  0  0  0  0  0  0  0  0  0  0
   36.3400   22.7490   36.3240 H   0  0  0  0  0  0  0  0  0  0  0  0
   39.1120   23.7670   31.5140 C   0  0  0  0  0  0  0  0  0  0  0  0
   39.4460   23.6000   32.8420 C   0  0  0  0  0  0  0  0  0  0  0  0
   39.1160   22.4160   33.4680 C   0  0  0  0  0  0  0  0  0  0  0  0
   38.4640   21.4470   32.7340 N   0  0  0  0  0  0  0  0  0  0  0  0
   38.1720   21.6760   31.4520 C   0  0  0  0  0  0  0  0  0  0  0  0
   38.4810   22.8110   30.8300 N   0  0  0  0  0  0  0  0  0  0  0  0
   39.3960   24.7250   31.0690 H   0  0  0  0  0  0  0  0  0  0  0  0
   39.9610   24.3500   33.4440 H   0  0  0  0  0  0  0  0  0  0  0  0
   37.4830   20.6290   30.6940 C   0  0  0  0  0  0  0  0  0  0  0  0
   37.8980   20.1550   29.6190 O   0  0  0  0  0  0  0  0  0  0  0  0
   36.2180   20.0920   31.2220 C   0  0  0  0  0  0  0  0  0  0  0  0
   35.9780   18.7330   31.4050 C   0  0  0  0  0  0  0  0  0  0  0  0
   36.6390   17.9060   31.2020 H   0  0  0  0  0  0  0  0  0  0  0  0
   34.7110   18.6770   31.9030 N   0  0  0  0  0  0  0  0  0  0  0  0
   34.2860   17.7470   32.1300 H   0  0  0  0  0  0  0  0  0  0  0  0
   34.1710   19.9030   32.0320 C   0  0  0  0  0  0  0  0  0  0  0  0
   33.1780   20.1040   32.4070 H   0  0  0  0  0  0  0  0  0  0  0  0
   35.1230   20.7580   31.6060 N   0  0  0  0  0  0  0  0  0  0  0  0
  1  3  1  0  0  0  0
  2  8  1  0  0  0  0
  2  7  1  0  0  0  0
  3  9  1  6  0  0  0
  3  2  1  0  0  0  0
  3  4  1  0  0  0  0
  4 10  1  0  0  0  0
  4  5  1  0  0  0  0
  5  6  1  0  0  0  0
  6 13  1  0  0  0  0
  6 14  1  0  0  0  0
  7 15  1  1  0  0  0
  7  6  1  0  0  0  0
 11  4  1  0  0  0  0
 12  5  1  0  0  0  0
 16  7  1  0  0  0  0
 16 17  1  0  0  0  0
 18 16  1  0  0  0  0
 19 20  1  0  0  0  0
 20 26  1  0  0  0  0
 20 21  2  0  0  0  0
 21  1  1  0  0  0  0
 22 21  1  0  0  0  0
 23 22  2  0  0  0  0
 24 23  1  0  0  0  0
 24 19  2  0  0  0  0
 25 19  1  0  0  0  0
 27 29  1  0  0  0  0
 27 23  1  0  0  0  0
 28 27  2  0  0  0  0
 29 30  2  0  0  0  0
 29 36  1  0  0  0  0
 30 32  1  0  0  0  0
 31 30  1  0  0  0  0
 32 34  1  0  0  0  0
 32 33  1  0  0  0  0
 34 35  1  0  0  0  0
 36 34  2  0  0  0  0
M  END
>  <minimizedAffinity>
-4.78940058

$$$$

 OpenBabel03262521023D

 36 38  0  0  1  0  0  0  0  0999 V2000
   36.8940   25.7360   31.6990 S   0  0  0  0  0  0  0  0  0  0  0  0
   38.2010   28.0770   31.2930 N   0  0  0  0  0  0  0  0  0  0  0  0
   37.6950   27.2550   32.3560 C   0  0  1  0  0  0  0  0  0  0  0  0
   36.6370   27.9840   33.1340 C   0  0  0  0  0  0  0  0  0  0  0  0
   35.5790   28.3360   32.2000 N   0  0  0  0  0  0  0  0  0  0  0  0
   36.1800   29.3710   31.3380 C   0  0  0  0  0  0  0  0  0  0  0  0
   37.1890   28.6500   30.4650 C   0  0  2  0  0  0  0  0  0  0  0  0
   39.0210   28.6420   31.5020 H   0  0  0  0  0  0  0  0  0  0  0  0
   38.5310   26.9220   32.9840 H   0  0  0  0  0  0  0  0  0  0  0  0
   37.0290   28.9080   33.5840 H   0  0  0  0  0  0  0  0  0  0  0  0
   36.1930   27.3090   33.8990 H   0  0  0  0  0  0  0  0  0  0  0  0
   35.4690   27.4880   31.5750 H   0  0  0  0  0  0  0  0  0  0  0  0
   36.6770   30.0870   32.0080 H   0  0  0  0  0  0  0  0  0  0  0  0
   35.3660   29.8190   30.7310 H   0  0  0  0  0  0  0  0  0  0  0  0
   37.6710   29.4130   29.8120 H   0  0  0  0  0  0  0  0  0  0  0  0
   36.5110   27.6630   29.6580 N   0  0  0  0  0  0  0  0  0  0  0  0
   35.6160   28.1290   29.3280 H   0  0  0  0  0  0  0  0  0  0  0  0
   37.0530   27.5040   28.7790 H   0  0  0  0  0  0  0  0  0  0  0  0
   37.4270   22.0280   33.2470 C   0  0  0  0  0  0  0  0  0  0  0  0
   37.0640   23.0300   32.3700 C   0  0  0  0  0  0  0  0  0  0  0  0
   37.3040   24.3420   32.7220 C   0  0  0  0  0  0  0  0  0  0  0  0
   37.9000   24.5950   33.9400 N   0  0  0  0  0  0  0  0  0  0  0  0
   38.2250   23.5760   34.7390 C   0  0  0  0  0  0  0  0  0  0  0  0
   38.0020   22.3040   34.4190 N   0  0  0  0  0  0  0  0  0  0  0  0
   37.2120   21.0070   32.9170 H   0  0  0  0  0  0  0  0  0  0  0  0
   36.5920   22.8570   31.4020 H   0  0  0  0  0  0  0  0  0  0  0  0
   38.8600   23.8720   36.0260 C   0  0  0  0  0  0  0  0  0  0  0  0
   38.3930   24.6590   36.8720 O   0  0  0  0  0  0  0  0  0  0  0  0
   40.1300   23.2060   36.3550 C   0  0  0  0  0  0  0  0  0  0  0  0
   40.2760   22.3070   37.4080 C   0  0  0  0  0  0  0  0  0  0  0  0
   39.5260   21.9740   38.1090 H   0  0  0  0  0  0  0  0  0  0  0  0
   41.5860   21.9360   37.3580 N   0  0  0  0  0  0  0  0  0  0  0  0
   41.9550   21.2510   38.0600 H   0  0  0  0  0  0  0  0  0  0  0  0
   42.2390   22.5460   36.3520 C   0  0  0  0  0  0  0  0  0  0  0  0
   43.2850   22.4050   36.1200 H   0  0  0  0  0  0  0  0  0  0  0  0
   41.3180   23.3240   35.7490 N   0  0  0  0  0  0  0  0  0  0  0  0
  1  3  1  0  0  0  0
  1 21  1  0  0  0  0
  2  8  1  0  0  0  0
  2  3  1  0  0  0  0
  3  9  1  1  0  0  0
  3  4  1  0  0  0  0
  4 10  1  0  0  0  0
  4 11  1  0  0  0  0
  5  4  1  0  0  0  0
  6 13  1  0  0  0  0
  6  5  1  0  0  0  0
  7 15  1  6  0  0  0
  7  2  1  0  0  0  0
  7  6  1  0  0  0  0
 12  5  1  0  0  0  0
 14  6  1  0  0  0  0
 16  7  1  0  0  0  0
 17 16  1  0  0  0  0
 18 16  1  0  0  0  0
 19 24  1  0  0  0  0
 20 21  1  0  0  0  0
 20 19  2  0  0  0  0
 21 22  2  0  0  0  0
 22 23  1  0  0  0  0
 23 27  1  0  0  0  0
 24 23  2  0  0  0  0
 25 19  1  0  0  0  0
 26 20  1  0  0  0  0
 27 29  1  0  0  0  0
 27 28  2  0  0  0  0
 29 30  2  0  0  0  0
 30 31  1  0  0  0  0
 32 30  1  0  0  0  0
 32 33  1  0  0  0  0
 34 32  1  0  0  0  0
 35 34  1  0  0  0  0
 36 34  2  0  0  0  0
 36 29  1  0  0  0  0
M  END
>  <minimizedAffinity>
-4.73818731

$$$$
