
 OpenBabel03272507413D

 40 43  0  0  0  0  0  0  0  0999 V2000
   36.8590   32.2960   49.3150 O   0  0  0  0  0  0  0  0  0  0  0  0
   38.2920   32.2780   47.3110 C   0  0  0  0  0  0  0  0  0  0  0  0
   37.9460   32.7140   48.5790 C   0  0  0  0  0  0  0  0  0  0  0  0
   38.7180   33.6590   49.2350 C   0  0  0  0  0  0  0  0  0  0  0  0
   39.8510   34.1690   48.6050 C   0  0  0  0  0  0  0  0  0  0  0  0
   40.1910   33.7320   47.3430 C   0  0  0  0  0  0  0  0  0  0  0  0
   39.3990   32.7930   46.7260 C   0  0  0  0  0  0  0  0  0  0  0  0
   38.5210   34.0430   50.2030 H   0  0  0  0  0  0  0  0  0  0  0  0
   40.4700   34.9090   49.0980 H   0  0  0  0  0  0  0  0  0  0  0  0
   41.0660   34.1230   46.8510 H   0  0  0  0  0  0  0  0  0  0  0  0
   39.7760   32.3310   45.3690 C   0  0  0  0  0  0  0  0  0  0  0  0
   40.6000   31.2900   45.0020 C   0  0  0  0  0  0  0  0  0  0  0  0
   40.6370   31.2630   43.6110 C   0  0  0  0  0  0  0  0  0  0  0  0
   39.8240   32.3000   43.2180 C   0  0  0  0  0  0  0  0  0  0  0  0
   39.3230   32.9220   44.2740 O   0  0  0  0  0  0  0  0  0  0  0  0
   41.1090   30.6340   45.6770 H   0  0  0  0  0  0  0  0  0  0  0  0
   41.1860   30.5750   42.9700 H   0  0  0  0  0  0  0  0  0  0  0  0
   39.5790   32.6250   42.2230 H   0  0  0  0  0  0  0  0  0  0  0  0
   36.7590   30.5290   46.2110 N   0  0  0  0  0  0  0  0  0  0  0  0
   37.4400   31.3030   46.7120 C   0  0  0  0  0  0  0  0  0  0  0  0
   36.8520   31.2260   50.1480 C   0  0  0  0  0  0  0  0  0  0  0  0
   35.7830   30.3640   49.8990 C   0  0  0  0  0  0  0  0  0  0  0  0
   35.6010   29.2160   50.6430 C   0  0  0  0  0  0  0  0  0  0  0  0
   36.5080   28.9610   51.6250 N   0  0  0  0  0  0  0  0  0  0  0  0
   37.5490   29.8150   51.8560 C   0  0  0  0  0  0  0  0  0  0  0  0
   37.6950   30.9040   51.1280 N   0  0  0  0  0  0  0  0  0  0  0  0
   34.8200   28.5080   50.5220 H   0  0  0  0  0  0  0  0  0  0  0  0
   38.2300   29.5550   52.6490 H   0  0  0  0  0  0  0  0  0  0  0  0
   34.3670   29.4420   48.1150 C   0  0  0  0  0  0  0  0  0  0  0  0
   34.8190   28.2180   47.9960 O   0  0  0  0  0  0  0  0  0  0  0  0
   34.8030   30.5290   48.9140 N   0  0  0  0  0  0  0  0  0  0  0  0
   34.3770   31.4550   48.7490 H   0  0  0  0  0  0  0  0  0  0  0  0
   33.1940   29.6710   47.2400 C   0  0  0  0  0  0  0  0  0  0  0  0
   32.0430   28.8780   47.1670 C   0  0  0  0  0  0  0  0  0  0  0  0
   31.8420   27.9680   47.7500 H   0  0  0  0  0  0  0  0  0  0  0  0
   31.1640   29.3470   46.2820 N   0  0  0  0  0  0  0  0  0  0  0  0
   30.2360   28.9440   46.0410 H   0  0  0  0  0  0  0  0  0  0  0  0
   31.7350   30.4490   45.7700 C   0  0  0  0  0  0  0  0  0  0  0  0
   31.2880   31.0860   45.0140 H   0  0  0  0  0  0  0  0  0  0  0  0
   32.9340   30.6180   46.3540 N   0  0  0  0  0  0  0  0  0  0  0  0
  1 21  1  0  0  0  0
  2  3  1  0  0  0  0
  3  4  2  0  0  0  0
  3  1  1  0  0  0  0
  4  8  1  0  0  0  0
  5  9  1  0  0  0  0
  5  4  1  0  0  0  0
  6  5  2  0  0  0  0
  7  2  2  0  0  0  0
  7  6  1  0  0  0  0
 10  6  1  0  0  0  0
 11  7  1  0  0  0  0
 12 11  2  0  0  0  0
 12 16  1  0  0  0  0
 13 12  1  0  0  0  0
 14 13  2  0  0  0  0
 14 15  1  0  0  0  0
 15 11  1  0  0  0  0
 17 13  1  0  0  0  0
 18 14  1  0  0  0  0
 19 20  3  0  0  0  0
 20  2  1  0  0  0  0
 21 26  1  0  0  0  0
 22 21  2  0  0  0  0
 22 23  1  0  0  0  0
 23 24  2  0  0  0  0
 24 25  1  0  0  0  0
 25 28  1  0  0  0  0
 26 25  2  0  0  0  0
 27 23  1  0  0  0  0
 29 31  1  0  0  0  0
 30 29  2  0  0  0  0
 31 22  1  0  0  0  0
 32 31  1  0  0  0  0
 33 29  1  0  0  0  0
 34 33  2  0  0  0  0
 34 35  1  0  0  0  0
 36 34  1  0  0  0  0
 37 36  1  0  0  0  0
 38 36  1  0  0  0  0
 38 40  2  0  0  0  0
 39 38  1  0  0  0  0
 40 33  1  0  0  0  0
M  END
>  <minimizedAffinity>
-5.9195962

>  <minimizedRMSD>
0.331309676

$$$$
