
 OpenBabel03272507403D

 40 43  0  0  0  0  0  0  0  0999 V2000
   36.7830   32.2870   49.2470 O   0  0  0  0  0  0  0  0  0  0  0  0
   38.2540   32.2580   47.2720 C   0  0  0  0  0  0  0  0  0  0  0  0
   37.8880   32.6960   48.5330 C   0  0  0  0  0  0  0  0  0  0  0  0
   38.6560   33.6320   49.2050 C   0  0  0  0  0  0  0  0  0  0  0  0
   39.8060   34.1330   48.5980 C   0  0  0  0  0  0  0  0  0  0  0  0
   40.1660   33.6940   47.3420 C   0  0  0  0  0  0  0  0  0  0  0  0
   39.3770   32.7630   46.7090 C   0  0  0  0  0  0  0  0  0  0  0  0
   38.4440   34.0170   50.1700 H   0  0  0  0  0  0  0  0  0  0  0  0
   40.4220   34.8660   49.1040 H   0  0  0  0  0  0  0  0  0  0  0  0
   41.0540   34.0770   46.8680 H   0  0  0  0  0  0  0  0  0  0  0  0
   39.7760   32.2990   45.3590 C   0  0  0  0  0  0  0  0  0  0  0  0
   40.5950   31.2490   45.0060 C   0  0  0  0  0  0  0  0  0  0  0  0
   40.6600   31.2240   43.6160 C   0  0  0  0  0  0  0  0  0  0  0  0
   39.8680   32.2730   43.2090 C   0  0  0  0  0  0  0  0  0  0  0  0
   39.3530   32.8990   44.2560 O   0  0  0  0  0  0  0  0  0  0  0  0
   41.0810   30.5850   45.6900 H   0  0  0  0  0  0  0  0  0  0  0  0
   41.2130   30.5310   42.9840 H   0  0  0  0  0  0  0  0  0  0  0  0
   39.6480   32.6030   42.2100 H   0  0  0  0  0  0  0  0  0  0  0  0
   36.7260   30.5250   46.1400 N   0  0  0  0  0  0  0  0  0  0  0  0
   37.4050   31.2920   46.6540 C   0  0  0  0  0  0  0  0  0  0  0  0
   36.7560   31.2290   50.0970 C   0  0  0  0  0  0  0  0  0  0  0  0
   35.7050   30.3530   49.8240 C   0  0  0  0  0  0  0  0  0  0  0  0
   35.5070   29.2150   50.5780 C   0  0  0  0  0  0  0  0  0  0  0  0
   36.3800   28.9840   51.5960 N   0  0  0  0  0  0  0  0  0  0  0  0
   37.4050   29.8520   51.8490 C   0  0  0  0  0  0  0  0  0  0  0  0
   37.5670   30.9310   51.1110 N   0  0  0  0  0  0  0  0  0  0  0  0
   34.7370   28.4980   50.4410 H   0  0  0  0  0  0  0  0  0  0  0  0
   38.0600   29.6110   52.6700 H   0  0  0  0  0  0  0  0  0  0  0  0
   34.3270   29.3820   48.0350 C   0  0  0  0  0  0  0  0  0  0  0  0
   34.7600   28.1470   47.9810 O   0  0  0  0  0  0  0  0  0  0  0  0
   34.7580   30.4940   48.8010 N   0  0  0  0  0  0  0  0  0  0  0  0
   34.3550   31.4200   48.5850 H   0  0  0  0  0  0  0  0  0  0  0  0
   33.1860   29.5940   47.1150 C   0  0  0  0  0  0  0  0  0  0  0  0
   32.1380   28.7000   46.8680 C   0  0  0  0  0  0  0  0  0  0  0  0
   32.0100   27.7080   47.3220 H   0  0  0  0  0  0  0  0  0  0  0  0
   31.2630   29.1820   45.9870 N   0  0  0  0  0  0  0  0  0  0  0  0
   30.4020   28.7170   45.6350 H   0  0  0  0  0  0  0  0  0  0  0  0
   31.7330   30.3950   45.6520 C   0  0  0  0  0  0  0  0  0  0  0  0
   31.2580   31.0700   44.9470 H   0  0  0  0  0  0  0  0  0  0  0  0
   32.8700   30.6140   46.3330 N   0  0  0  0  0  0  0  0  0  0  0  0
  1 21  1  0  0  0  0
  2  3  1  0  0  0  0
  3  4  2  0  0  0  0
  3  1  1  0  0  0  0
  4  8  1  0  0  0  0
  5  9  1  0  0  0  0
  5  4  1  0  0  0  0
  6  5  2  0  0  0  0
  7  2  2  0  0  0  0
  7  6  1  0  0  0  0
 10  6  1  0  0  0  0
 11  7  1  0  0  0  0
 12 11  2  0  0  0  0
 12 16  1  0  0  0  0
 13 12  1  0  0  0  0
 14 13  2  0  0  0  0
 14 15  1  0  0  0  0
 15 11  1  0  0  0  0
 17 13  1  0  0  0  0
 18 14  1  0  0  0  0
 19 20  3  0  0  0  0
 20  2  1  0  0  0  0
 21 26  1  0  0  0  0
 22 21  2  0  0  0  0
 22 23  1  0  0  0  0
 23 24  2  0  0  0  0
 24 25  1  0  0  0  0
 25 28  1  0  0  0  0
 26 25  2  0  0  0  0
 27 23  1  0  0  0  0
 29 31  1  0  0  0  0
 30 29  2  0  0  0  0
 31 22  1  0  0  0  0
 32 31  1  0  0  0  0
 33 29  1  0  0  0  0
 34 33  2  0  0  0  0
 34 35  1  0  0  0  0
 36 34  1  0  0  0  0
 37 36  1  0  0  0  0
 38 36  1  0  0  0  0
 38 40  2  0  0  0  0
 39 38  1  0  0  0  0
 40 33  1  0  0  0  0
M  END
>  <minimizedAffinity>
-5.99162769

>  <minimizedRMSD>
0.543404102

$$$$
