
 OpenBabel03272507403D

 40 43  0  0  0  0  0  0  0  0999 V2000
   36.8300   32.2460   49.2950 O   0  0  0  0  0  0  0  0  0  0  0  0
   38.2650   32.2450   47.2920 C   0  0  0  0  0  0  0  0  0  0  0  0
   37.9140   32.6740   48.5610 C   0  0  0  0  0  0  0  0  0  0  0  0
   38.6790   33.6220   49.2200 C   0  0  0  0  0  0  0  0  0  0  0  0
   39.8100   34.1430   48.5930 C   0  0  0  0  0  0  0  0  0  0  0  0
   40.1530   33.7120   47.3290 C   0  0  0  0  0  0  0  0  0  0  0  0
   39.3680   32.7700   46.7090 C   0  0  0  0  0  0  0  0  0  0  0  0
   38.4790   34.0020   50.1900 H   0  0  0  0  0  0  0  0  0  0  0  0
   40.4230   34.8850   49.0880 H   0  0  0  0  0  0  0  0  0  0  0  0
   41.0260   34.1100   46.8390 H   0  0  0  0  0  0  0  0  0  0  0  0
   39.7500   32.3140   45.3510 C   0  0  0  0  0  0  0  0  0  0  0  0
   40.5820   31.2810   44.9810 C   0  0  0  0  0  0  0  0  0  0  0  0
   40.6200   31.2580   43.5900 C   0  0  0  0  0  0  0  0  0  0  0  0
   39.7990   32.2910   43.1990 C   0  0  0  0  0  0  0  0  0  0  0  0
   39.2920   32.9050   44.2570 O   0  0  0  0  0  0  0  0  0  0  0  0
   41.0950   30.6270   45.6550 H   0  0  0  0  0  0  0  0  0  0  0  0
   41.1740   30.5770   42.9470 H   0  0  0  0  0  0  0  0  0  0  0  0
   39.5520   32.6170   42.2050 H   0  0  0  0  0  0  0  0  0  0  0  0
   36.7440   30.4890   46.1850 N   0  0  0  0  0  0  0  0  0  0  0  0
   37.4200   31.2660   46.6890 C   0  0  0  0  0  0  0  0  0  0  0  0
   36.8390   31.1930   50.1500 C   0  0  0  0  0  0  0  0  0  0  0  0
   35.7870   30.3070   49.9160 C   0  0  0  0  0  0  0  0  0  0  0  0
   35.6230   29.1720   50.6830 C   0  0  0  0  0  0  0  0  0  0  0  0
   36.5310   28.9540   51.6730 N   0  0  0  0  0  0  0  0  0  0  0  0
   37.5560   29.8310   51.8890 C   0  0  0  0  0  0  0  0  0  0  0  0
   37.6850   30.9070   51.1400 N   0  0  0  0  0  0  0  0  0  0  0  0
   34.8560   28.4480   50.5750 H   0  0  0  0  0  0  0  0  0  0  0  0
   38.2390   29.6010   52.6890 H   0  0  0  0  0  0  0  0  0  0  0  0
   34.3420   29.3100   48.1960 C   0  0  0  0  0  0  0  0  0  0  0  0
   34.7650   28.0710   48.1530 O   0  0  0  0  0  0  0  0  0  0  0  0
   34.8070   30.4340   48.9240 N   0  0  0  0  0  0  0  0  0  0  0  0
   34.4030   31.3580   48.7030 H   0  0  0  0  0  0  0  0  0  0  0  0
   33.1720   29.5120   47.3120 C   0  0  0  0  0  0  0  0  0  0  0  0
   32.8860   30.6550   46.5580 C   0  0  0  0  0  0  0  0  0  0  0  0
   33.4910   31.5730   46.5130 H   0  0  0  0  0  0  0  0  0  0  0  0
   31.7570   30.5310   45.8610 N   0  0  0  0  0  0  0  0  0  0  0  0
   31.3270   31.2330   45.2270 H   0  0  0  0  0  0  0  0  0  0  0  0
   31.2970   29.3040   46.1560 C   0  0  0  0  0  0  0  0  0  0  0  0
   30.3860   28.8710   45.7570 H   0  0  0  0  0  0  0  0  0  0  0  0
   32.1520   28.7230   47.0150 N   0  0  0  0  0  0  0  0  0  0  0  0
  1 21  1  0  0  0  0
  2  3  1  0  0  0  0
  3  4  2  0  0  0  0
  3  1  1  0  0  0  0
  4  8  1  0  0  0  0
  5  9  1  0  0  0  0
  5  4  1  0  0  0  0
  6  5  2  0  0  0  0
  7  2  2  0  0  0  0
  7  6  1  0  0  0  0
 10  6  1  0  0  0  0
 11  7  1  0  0  0  0
 12 11  2  0  0  0  0
 12 16  1  0  0  0  0
 13 12  1  0  0  0  0
 14 13  2  0  0  0  0
 14 15  1  0  0  0  0
 15 11  1  0  0  0  0
 17 13  1  0  0  0  0
 18 14  1  0  0  0  0
 19 20  3  0  0  0  0
 20  2  1  0  0  0  0
 21 26  1  0  0  0  0
 22 21  2  0  0  0  0
 22 23  1  0  0  0  0
 23 24  2  0  0  0  0
 24 25  1  0  0  0  0
 25 28  1  0  0  0  0
 26 25  2  0  0  0  0
 27 23  1  0  0  0  0
 29 31  1  0  0  0  0
 30 29  2  0  0  0  0
 31 22  1  0  0  0  0
 32 31  1  0  0  0  0
 33 29  1  0  0  0  0
 34 33  2  0  0  0  0
 35 34  1  0  0  0  0
 36 38  1  0  0  0  0
 36 34  1  0  0  0  0
 37 36  1  0  0  0  0
 38 40  2  0  0  0  0
 39 38  1  0  0  0  0
 40 33  1  0  0  0  0
M  END
>  <minimizedAffinity>
-5.92038059

>  <minimizedRMSD>
0.382782012

$$$$
