
 OpenBabel03272507413D

 40 43  0  0  0  0  0  0  0  0999 V2000
   36.6690   32.2060   49.1740 O   0  0  0  0  0  0  0  0  0  0  0  0
   38.1840   32.1550   47.2310 C   0  0  0  0  0  0  0  0  0  0  0  0
   37.7900   32.6060   48.4790 C   0  0  0  0  0  0  0  0  0  0  0  0
   38.5450   33.5480   49.1580 C   0  0  0  0  0  0  0  0  0  0  0  0
   39.7090   34.0410   48.5720 C   0  0  0  0  0  0  0  0  0  0  0  0
   40.0950   33.5890   47.3280 C   0  0  0  0  0  0  0  0  0  0  0  0
   39.3190   32.6530   46.6870 C   0  0  0  0  0  0  0  0  0  0  0  0
   38.3120   33.9430   50.1150 H   0  0  0  0  0  0  0  0  0  0  0  0
   40.3150   34.7790   49.0830 H   0  0  0  0  0  0  0  0  0  0  0  0
   40.9940   33.9660   46.8690 H   0  0  0  0  0  0  0  0  0  0  0  0
   39.7470   32.1750   45.3510 C   0  0  0  0  0  0  0  0  0  0  0  0
   40.6000   31.1430   45.0280 C   0  0  0  0  0  0  0  0  0  0  0  0
   40.6810   31.0920   43.6400 C   0  0  0  0  0  0  0  0  0  0  0  0
   39.8630   32.1090   43.2030 C   0  0  0  0  0  0  0  0  0  0  0  0
   39.3190   32.7390   44.2320 O   0  0  0  0  0  0  0  0  0  0  0  0
   41.0990   30.5070   45.7310 H   0  0  0  0  0  0  0  0  0  0  0  0
   41.2620   30.4040   43.0280 H   0  0  0  0  0  0  0  0  0  0  0  0
   39.6450   32.4120   42.1960 H   0  0  0  0  0  0  0  0  0  0  0  0
   36.6780   30.4130   46.0840 N   0  0  0  0  0  0  0  0  0  0  0  0
   37.3460   31.1840   46.6050 C   0  0  0  0  0  0  0  0  0  0  0  0
   36.6330   31.1830   50.0640 C   0  0  0  0  0  0  0  0  0  0  0  0
   35.5540   30.3250   49.8450 C   0  0  0  0  0  0  0  0  0  0  0  0
   35.3420   29.2230   50.6470 C   0  0  0  0  0  0  0  0  0  0  0  0
   36.2300   29.0080   51.6570 N   0  0  0  0  0  0  0  0  0  0  0  0
   37.2810   29.8580   51.8570 C   0  0  0  0  0  0  0  0  0  0  0  0
   37.4560   30.9030   51.0740 N   0  0  0  0  0  0  0  0  0  0  0  0
   34.5520   28.5210   50.5530 H   0  0  0  0  0  0  0  0  0  0  0  0
   37.9460   29.6320   52.6740 H   0  0  0  0  0  0  0  0  0  0  0  0
   34.2250   29.3490   48.0230 C   0  0  0  0  0  0  0  0  0  0  0  0
   34.7340   28.1480   47.9110 O   0  0  0  0  0  0  0  0  0  0  0  0
   34.5920   30.4510   48.8360 N   0  0  0  0  0  0  0  0  0  0  0  0
   34.1290   31.3580   48.6640 H   0  0  0  0  0  0  0  0  0  0  0  0
   33.0640   29.5290   47.1210 C   0  0  0  0  0  0  0  0  0  0  0  0
   32.8470   30.6010   46.2500 C   0  0  0  0  0  0  0  0  0  0  0  0
   33.5070   31.4690   46.1070 H   0  0  0  0  0  0  0  0  0  0  0  0
   31.7080   30.4750   45.5690 N   0  0  0  0  0  0  0  0  0  0  0  0
   31.3190   31.1320   44.8630 H   0  0  0  0  0  0  0  0  0  0  0  0
   31.1740   29.3180   45.9910 C   0  0  0  0  0  0  0  0  0  0  0  0
   30.2340   28.9030   45.6400 H   0  0  0  0  0  0  0  0  0  0  0  0
   31.9950   28.7790   46.9080 N   0  0  0  0  0  0  0  0  0  0  0  0
  1 21  1  0  0  0  0
  2  3  1  0  0  0  0
  3  4  2  0  0  0  0
  3  1  1  0  0  0  0
  4  8  1  0  0  0  0
  5  9  1  0  0  0  0
  5  4  1  0  0  0  0
  6  5  2  0  0  0  0
  7  2  2  0  0  0  0
  7  6  1  0  0  0  0
 10  6  1  0  0  0  0
 11  7  1  0  0  0  0
 12 11  2  0  0  0  0
 12 16  1  0  0  0  0
 13 12  1  0  0  0  0
 14 13  2  0  0  0  0
 14 15  1  0  0  0  0
 15 11  1  0  0  0  0
 17 13  1  0  0  0  0
 18 14  1  0  0  0  0
 19 20  3  0  0  0  0
 20  2  1  0  0  0  0
 21 26  1  0  0  0  0
 22 21  2  0  0  0  0
 22 23  1  0  0  0  0
 23 24  2  0  0  0  0
 24 25  1  0  0  0  0
 25 28  1  0  0  0  0
 26 25  2  0  0  0  0
 27 23  1  0  0  0  0
 29 31  1  0  0  0  0
 30 29  2  0  0  0  0
 31 22  1  0  0  0  0
 32 31  1  0  0  0  0
 33 29  1  0  0  0  0
 34 33  2  0  0  0  0
 35 34  1  0  0  0  0
 36 38  1  0  0  0  0
 36 34  1  0  0  0  0
 37 36  1  0  0  0  0
 38 40  2  0  0  0  0
 39 38  1  0  0  0  0
 40 33  1  0  0  0  0
M  END
>  <minimizedAffinity>
-5.90927982

>  <minimizedRMSD>
0.401204824

$$$$
