
 OpenBabel03272507403D

 40 43  0  0  0  0  0  0  0  0999 V2000
   36.6870   32.2430   49.1840 O   0  0  0  0  0  0  0  0  0  0  0  0
   38.2030   32.1830   47.2430 C   0  0  0  0  0  0  0  0  0  0  0  0
   37.8110   32.6350   48.4920 C   0  0  0  0  0  0  0  0  0  0  0  0
   38.5720   33.5710   49.1720 C   0  0  0  0  0  0  0  0  0  0  0  0
   39.7400   34.0560   48.5870 C   0  0  0  0  0  0  0  0  0  0  0  0
   40.1240   33.6020   47.3440 C   0  0  0  0  0  0  0  0  0  0  0  0
   39.3420   32.6730   46.7010 C   0  0  0  0  0  0  0  0  0  0  0  0
   38.3410   33.9670   50.1290 H   0  0  0  0  0  0  0  0  0  0  0  0
   40.3510   34.7890   49.1000 H   0  0  0  0  0  0  0  0  0  0  0  0
   41.0260   33.9730   46.8860 H   0  0  0  0  0  0  0  0  0  0  0  0
   39.7680   32.1920   45.3650 C   0  0  0  0  0  0  0  0  0  0  0  0
   40.6090   31.1510   45.0420 C   0  0  0  0  0  0  0  0  0  0  0  0
   40.6940   31.1030   43.6530 C   0  0  0  0  0  0  0  0  0  0  0  0
   39.8900   32.1300   43.2170 C   0  0  0  0  0  0  0  0  0  0  0  0
   39.3500   32.7650   44.2460 O   0  0  0  0  0  0  0  0  0  0  0  0
   41.0980   30.5070   45.7440 H   0  0  0  0  0  0  0  0  0  0  0  0
   41.2670   30.4090   43.0420 H   0  0  0  0  0  0  0  0  0  0  0  0
   39.6780   32.4390   42.2100 H   0  0  0  0  0  0  0  0  0  0  0  0
   36.6860   30.4520   46.0930 N   0  0  0  0  0  0  0  0  0  0  0  0
   37.3590   31.2180   46.6150 C   0  0  0  0  0  0  0  0  0  0  0  0
   36.6320   31.1960   50.0450 C   0  0  0  0  0  0  0  0  0  0  0  0
   35.5450   30.3580   49.7970 C   0  0  0  0  0  0  0  0  0  0  0  0
   35.3150   29.2360   50.5660 C   0  0  0  0  0  0  0  0  0  0  0  0
   36.1940   28.9820   51.5740 N   0  0  0  0  0  0  0  0  0  0  0  0
   37.2540   29.8120   51.8030 C   0  0  0  0  0  0  0  0  0  0  0  0
   37.4460   30.8770   51.0510 N   0  0  0  0  0  0  0  0  0  0  0  0
   34.5170   28.5470   50.4470 H   0  0  0  0  0  0  0  0  0  0  0  0
   37.9110   29.5550   52.6170 H   0  0  0  0  0  0  0  0  0  0  0  0
   34.2100   29.4480   47.9440 C   0  0  0  0  0  0  0  0  0  0  0  0
   34.7010   28.2420   47.8050 O   0  0  0  0  0  0  0  0  0  0  0  0
   34.5900   30.5240   48.7860 N   0  0  0  0  0  0  0  0  0  0  0  0
   34.1420   31.4410   48.6340 H   0  0  0  0  0  0  0  0  0  0  0  0
   33.0570   29.6690   47.0410 C   0  0  0  0  0  0  0  0  0  0  0  0
   31.9980   28.7840   46.8120 C   0  0  0  0  0  0  0  0  0  0  0  0
   31.8670   27.7930   47.2690 H   0  0  0  0  0  0  0  0  0  0  0  0
   31.1130   29.2710   45.9430 N   0  0  0  0  0  0  0  0  0  0  0  0
   30.2430   28.8130   45.6040 H   0  0  0  0  0  0  0  0  0  0  0  0
   31.5900   30.4790   45.5980 C   0  0  0  0  0  0  0  0  0  0  0  0
   31.1110   31.1580   44.8980 H   0  0  0  0  0  0  0  0  0  0  0  0
   32.7380   30.6890   46.2610 N   0  0  0  0  0  0  0  0  0  0  0  0
  1 21  1  0  0  0  0
  2  3  1  0  0  0  0
  3  4  2  0  0  0  0
  3  1  1  0  0  0  0
  4  8  1  0  0  0  0
  5  9  1  0  0  0  0
  5  4  1  0  0  0  0
  6  5  2  0  0  0  0
  7  2  2  0  0  0  0
  7  6  1  0  0  0  0
 10  6  1  0  0  0  0
 11  7  1  0  0  0  0
 12 11  2  0  0  0  0
 12 16  1  0  0  0  0
 13 12  1  0  0  0  0
 14 13  2  0  0  0  0
 14 15  1  0  0  0  0
 15 11  1  0  0  0  0
 17 13  1  0  0  0  0
 18 14  1  0  0  0  0
 19 20  3  0  0  0  0
 20  2  1  0  0  0  0
 21 26  1  0  0  0  0
 22 21  2  0  0  0  0
 22 23  1  0  0  0  0
 23 24  2  0  0  0  0
 24 25  1  0  0  0  0
 25 28  1  0  0  0  0
 26 25  2  0  0  0  0
 27 23  1  0  0  0  0
 29 31  1  0  0  0  0
 30 29  2  0  0  0  0
 31 22  1  0  0  0  0
 32 31  1  0  0  0  0
 33 29  1  0  0  0  0
 34 33  2  0  0  0  0
 34 35  1  0  0  0  0
 36 34  1  0  0  0  0
 37 36  1  0  0  0  0
 38 36  1  0  0  0  0
 38 40  2  0  0  0  0
 39 38  1  0  0  0  0
 40 33  1  0  0  0  0
M  END
>  <minimizedAffinity>
-5.94320154

>  <minimizedRMSD>
0.505008221

$$$$
