
 OpenBabel03272508463D

 39 43  0  0  0  0  0  0  0  0999 V2000
   35.5120   29.5450   49.6540 C   0  0  0  0  0  0  0  0  0  0  0  0
   36.5420   29.1760   50.5020 C   0  0  0  0  0  0  0  0  0  0  0  0
   37.6750   29.6820   49.8660 C   0  0  0  0  0  0  0  0  0  0  0  0
   37.3040   30.3090   48.7100 C   0  0  0  0  0  0  0  0  0  0  0  0
   35.9990   30.2110   48.6080 O   0  0  0  0  0  0  0  0  0  0  0  0
   36.5200   28.6330   51.4340 H   0  0  0  0  0  0  0  0  0  0  0  0
   38.6800   29.5730   50.2620 H   0  0  0  0  0  0  0  0  0  0  0  0
   38.5930   32.2670   47.9940 C   0  0  0  0  0  0  0  0  0  0  0  0
   38.1710   30.9770   47.7400 C   0  0  0  0  0  0  0  0  0  0  0  0
   38.5440   30.2950   46.5930 C   0  0  0  0  0  0  0  0  0  0  0  0
   39.3660   30.9140   45.6620 C   0  0  0  0  0  0  0  0  0  0  0  0
   39.8960   30.5330   44.4730 N   0  0  0  0  0  0  0  0  0  0  0  0
   40.6160   31.5680   44.0300 N   0  0  0  0  0  0  0  0  0  0  0  0
   40.5510   32.5810   44.9040 C   0  0  0  0  0  0  0  0  0  0  0  0
   39.7590   32.1930   45.9580 C   0  0  0  0  0  0  0  0  0  0  0  0
   39.4230   32.9270   47.0830 C   0  0  0  0  0  0  0  0  0  0  0  0
   38.3130   32.8190   48.8850 H   0  0  0  0  0  0  0  0  0  0  0  0
   38.2030   29.2900   46.4140 H   0  0  0  0  0  0  0  0  0  0  0  0
   39.7540   29.6130   44.0200 H   0  0  0  0  0  0  0  0  0  0  0  0
   41.0780   33.4990   44.6990 H   0  0  0  0  0  0  0  0  0  0  0  0
   39.7800   33.9230   47.2270 H   0  0  0  0  0  0  0  0  0  0  0  0
   34.1130   29.2410   49.8870 C   0  0  0  0  0  0  0  0  0  0  0  0
   33.5220   29.8270   50.8210 O   0  0  0  0  0  0  0  0  0  0  0  0
   31.4330   27.2220   48.4600 C   0  0  0  0  0  0  0  0  0  0  0  0
   32.0790   26.4660   47.4810 C   0  0  0  0  0  0  0  0  0  0  0  0
   33.4270   26.6480   47.3120 C   0  0  0  0  0  0  0  0  0  0  0  0
   34.0780   27.5350   48.0800 N   0  0  0  0  0  0  0  0  0  0  0  0
   33.4320   28.2700   49.0360 C   0  0  0  0  0  0  0  0  0  0  0  0
   32.1100   28.0910   49.2020 N   0  0  0  0  0  0  0  0  0  0  0  0
   30.3860   27.1030   48.6140 H   0  0  0  0  0  0  0  0  0  0  0  0
   31.5240   25.7640   46.8830 H   0  0  0  0  0  0  0  0  0  0  0  0
   34.1120   25.8610   46.2900 C   0  0  0  0  0  0  0  0  0  0  0  0
   34.3280   26.1430   44.9590 C   0  0  0  0  0  0  0  0  0  0  0  0
   34.0020   27.0390   44.4480 H   0  0  0  0  0  0  0  0  0  0  0  0
   35.0160   25.1070   44.4080 N   0  0  0  0  0  0  0  0  0  0  0  0
   35.2970   25.1030   43.3840 H   0  0  0  0  0  0  0  0  0  0  0  0
   35.2300   24.1830   45.3880 C   0  0  0  0  0  0  0  0  0  0  0  0
   35.7690   23.2850   45.1150 H   0  0  0  0  0  0  0  0  0  0  0  0
   34.6750   24.6640   46.5060 N   0  0  0  0  0  0  0  0  0  0  0  0
  1 22  1  0  0  0  0
  1  2  2  0  0  0  0
  2  6  1  0  0  0  0
  3  7  1  0  0  0  0
  3  2  1  0  0  0  0
  4  3  2  0  0  0  0
  5  4  1  0  0  0  0
  5  1  1  0  0  0  0
  8 17  1  0  0  0  0
  9  8  1  0  0  0  0
  9  4  1  0  0  0  0
 10  9  2  0  0  0  0
 11 15  2  0  0  0  0
 11 10  1  0  0  0  0
 12 11  1  0  0  0  0
 13 12  1  0  0  0  0
 13 14  2  0  0  0  0
 14 15  1  0  0  0  0
 15 16  1  0  0  0  0
 16 21  1  0  0  0  0
 16  8  2  0  0  0  0
 18 10  1  0  0  0  0
 19 12  1  0  0  0  0
 20 14  1  0  0  0  0
 22 23  2  0  0  0  0
 24 30  1  0  0  0  0
 24 29  1  0  0  0  0
 25 24  2  0  0  0  0
 26 25  1  0  0  0  0
 26 27  2  0  0  0  0
 27 28  1  0  0  0  0
 28 29  2  0  0  0  0
 28 22  1  0  0  0  0
 31 25  1  0  0  0  0
 32 39  1  0  0  0  0
 32 26  1  0  0  0  0
 33 32  2  0  0  0  0
 34 33  1  0  0  0  0
 35 33  1  0  0  0  0
 35 37  1  0  0  0  0
 36 35  1  0  0  0  0
 37 39  2  0  0  0  0
 38 37  1  0  0  0  0
M  END
>  <minimizedAffinity>
-6.42727852

>  <minimizedRMSD>
0.423841774

$$$$
