
 OpenBabel03272508313D

 31 33  0  0  1  0  0  0  0  0999 V2000
   38.3840   23.5310   34.6270 N   0  0  0  0  0  0  0  0  0  0  0  0
   37.6830   22.4530   33.9360 C   0  0  0  0  0  0  0  0  0  0  0  0
   37.7300   22.5790   32.4580 C   0  0  0  0  0  0  0  0  0  0  0  0
   38.9260   23.2950   32.0820 N   0  0  0  0  0  0  0  0  0  0  0  0
   38.6490   24.6880   32.4920 C   0  0  0  0  0  0  0  0  0  0  0  0
   38.9180   24.7070   33.9650 C   0  0  1  0  0  0  0  0  0  0  0  0
   36.6700   22.2790   34.3310 H   0  0  0  0  0  0  0  0  0  0  0  0
   38.2440   21.5160   34.2260 H   0  0  0  0  0  0  0  0  0  0  0  0
   37.7320   21.5650   31.9800 H   0  0  0  0  0  0  0  0  0  0  0  0
   36.8660   23.1940   32.1310 H   0  0  0  0  0  0  0  0  0  0  0  0
   38.9780   23.3040   31.0590 H   0  0  0  0  0  0  0  0  0  0  0  0
   39.3840   25.3810   32.0120 H   0  0  0  0  0  0  0  0  0  0  0  0
   37.6030   24.9770   32.2370 H   0  0  0  0  0  0  0  0  0  0  0  0
   40.0290   24.5940   34.0700 H   0  0  0  0  0  0  0  0  0  0  0  0
   39.7890   22.9990   36.5660 C   0  0  0  0  0  0  0  0  0  0  0  0
   38.5480   23.4090   36.0290 C   0  0  0  0  0  0  0  0  0  0  0  0
   37.5250   23.6800   36.9230 C   0  0  0  0  0  0  0  0  0  0  0  0
   37.7620   23.5380   38.2630 N   0  0  0  0  0  0  0  0  0  0  0  0
   38.9620   23.1440   38.7290 C   0  0  0  0  0  0  0  0  0  0  0  0
   39.9860   22.8690   37.9070 N   0  0  0  0  0  0  0  0  0  0  0  0
   40.6120   22.7790   35.9160 H   0  0  0  0  0  0  0  0  0  0  0  0
   36.5510   23.9990   36.5520 H   0  0  0  0  0  0  0  0  0  0  0  0
   39.0570   23.0610   39.8010 H   0  0  0  0  0  0  0  0  0  0  0  0
   38.5230   25.9760   34.6100 C   0  0  0  0  0  0  0  0  0  0  0  0
   39.2390   26.7890   35.4660 C   0  0  0  0  0  0  0  0  0  0  0  0
   40.2370   26.6040   35.8020 H   0  0  0  0  0  0  0  0  0  0  0  0
   38.4770   27.8550   35.8110 N   0  0  0  0  0  0  0  0  0  0  0  0
   38.6890   28.6630   36.4340 H   0  0  0  0  0  0  0  0  0  0  0  0
   37.2950   27.7150   35.1790 C   0  0  0  0  0  0  0  0  0  0  0  0
   36.3980   28.3150   35.1590 H   0  0  0  0  0  0  0  0  0  0  0  0
   37.3210   26.6020   34.4660 N   0  0  0  0  0  0  0  0  0  0  0  0
  1 16  1  0  0  0  0
  2  8  1  0  0  0  0
  2  7  1  0  0  0  0
  2  1  1  0  0  0  0
  3  2  1  0  0  0  0
  4  3  1  0  0  0  0
  4  5  1  0  0  0  0
  5  6  1  0  0  0  0
  6 14  1  1  0  0  0
  6 24  1  0  0  0  0
  6  1  1  0  0  0  0
  9  3  1  0  0  0  0
 10  3  1  0  0  0  0
 11  4  1  0  0  0  0
 12  5  1  0  0  0  0
 13  5  1  0  0  0  0
 15 20  1  0  0  0  0
 16 15  2  0  0  0  0
 16 17  1  0  0  0  0
 17 18  2  0  0  0  0
 18 19  1  0  0  0  0
 19 23  1  0  0  0  0
 20 19  2  0  0  0  0
 21 15  1  0  0  0  0
 22 17  1  0  0  0  0
 24 25  2  0  0  0  0
 25 26  1  0  0  0  0
 25 27  1  0  0  0  0
 27 28  1  0  0  0  0
 29 27  1  0  0  0  0
 30 29  1  0  0  0  0
 31 24  1  0  0  0  0
 31 29  2  0  0  0  0
M  END
>  <minimizedAffinity>
-4.41006231

$$$$

 OpenBabel03272508313D

 31 33  0  0  1  0  0  0  0  0999 V2000
   39.1200   23.7380   35.6690 N   0  0  0  0  0  0  0  0  0  0  0  0
   40.1420   22.9720   36.3770 C   0  0  0  0  0  0  0  0  0  0  0  0
   39.8420   22.7930   37.8200 C   0  0  0  0  0  0  0  0  0  0  0  0
   38.4120   22.8290   38.0140 N   0  0  0  0  0  0  0  0  0  0  0  0
   38.0620   24.2500   37.8100 C   0  0  0  0  0  0  0  0  0  0  0  0
   38.0160   24.4170   36.3230 C   0  0  1  0  0  0  0  0  0  0  0  0
   41.1620   23.3360   36.1810 H   0  0  0  0  0  0  0  0  0  0  0  0
   40.1250   21.9540   35.8870 H   0  0  0  0  0  0  0  0  0  0  0  0
   40.2470   21.8130   38.1840 H   0  0  0  0  0  0  0  0  0  0  0  0
   40.2670   23.6540   38.3760 H   0  0  0  0  0  0  0  0  0  0  0  0
   38.2230   22.6270   39.0000 H   0  0  0  0  0  0  0  0  0  0  0  0
   37.0310   24.4490   38.1970 H   0  0  0  0  0  0  0  0  0  0  0  0
   38.8070   24.9170   38.3010 H   0  0  0  0  0  0  0  0  0  0  0  0
   37.1110   23.8480   35.9830 H   0  0  0  0  0  0  0  0  0  0  0  0
   38.2660   23.1720   33.4400 C   0  0  0  0  0  0  0  0  0  0  0  0
   39.2230   23.8140   34.2580 C   0  0  0  0  0  0  0  0  0  0  0  0
   40.2410   24.5070   33.6240 C   0  0  0  0  0  0  0  0  0  0  0  0
   40.2720   24.5330   32.2570 N   0  0  0  0  0  0  0  0  0  0  0  0
   39.3380   23.9050   31.5180 C   0  0  0  0  0  0  0  0  0  0  0  0
   38.3310   23.2210   32.0820 N   0  0  0  0  0  0  0  0  0  0  0  0
   37.4590   22.6240   33.8840 H   0  0  0  0  0  0  0  0  0  0  0  0
   41.0010   25.0170   34.2160 H   0  0  0  0  0  0  0  0  0  0  0  0
   39.4420   23.9810   30.4460 H   0  0  0  0  0  0  0  0  0  0  0  0
   37.8580   25.8240   35.9020 C   0  0  0  0  0  0  0  0  0  0  0  0
   38.4940   26.9590   36.3660 C   0  0  0  0  0  0  0  0  0  0  0  0
   39.2330   26.9810   37.1390 H   0  0  0  0  0  0  0  0  0  0  0  0
   38.0340   28.0380   35.6870 N   0  0  0  0  0  0  0  0  0  0  0  0
   38.2860   29.0450   35.7700 H   0  0  0  0  0  0  0  0  0  0  0  0
   37.1190   27.5870   34.8050 C   0  0  0  0  0  0  0  0  0  0  0  0
   36.5040   28.0810   34.0690 H   0  0  0  0  0  0  0  0  0  0  0  0
   37.0140   26.2750   34.9320 N   0  0  0  0  0  0  0  0  0  0  0  0
  1  6  1  0  0  0  0
  1  2  1  0  0  0  0
  2  3  1  0  0  0  0
  3  4  1  0  0  0  0
  3  9  1  0  0  0  0
  3 10  1  0  0  0  0
  4 11  1  0  0  0  0
  5  4  1  0  0  0  0
  5 12  1  0  0  0  0
  5 13  1  0  0  0  0
  6 14  1  6  0  0  0
  6  5  1  0  0  0  0
  7  2  1  0  0  0  0
  8  2  1  0  0  0  0
 15 21  1  0  0  0  0
 15 16  1  0  0  0  0
 16  1  1  0  0  0  0
 17 22  1  0  0  0  0
 17 16  2  0  0  0  0
 18 17  1  0  0  0  0
 19 20  1  0  0  0  0
 19 18  2  0  0  0  0
 20 15  2  0  0  0  0
 23 19  1  0  0  0  0
 24  6  1  0  0  0  0
 24 25  2  0  0  0  0
 25 26  1  0  0  0  0
 27 28  1  0  0  0  0
 27 25  1  0  0  0  0
 29 31  2  0  0  0  0
 29 27  1  0  0  0  0
 30 29  1  0  0  0  0
 31 24  1  0  0  0  0
M  END
>  <minimizedAffinity>
-4.34543419

$$$$

 OpenBabel03272508313D

 31 33  0  0  1  0  0  0  0  0999 V2000
   38.2440   23.1360   34.6680 N   0  0  0  0  0  0  0  0  0  0  0  0
   37.4830   22.0080   34.1390 C   0  0  0  0  0  0  0  0  0  0  0  0
   37.4040   22.0020   32.6560 C   0  0  0  0  0  0  0  0  0  0  0  0
   38.5650   22.6700   32.1170 N   0  0  0  0  0  0  0  0  0  0  0  0
   38.3290   24.0960   32.4240 C   0  0  0  0  0  0  0  0  0  0  0  0
   38.7230   24.2430   33.8600 C   0  0  1  0  0  0  0  0  0  0  0  0
   36.5070   21.8810   34.6330 H   0  0  0  0  0  0  0  0  0  0  0  0
   38.0640   21.0950   34.4620 H   0  0  0  0  0  0  0  0  0  0  0  0
   37.3620   20.9500   32.2720 H   0  0  0  0  0  0  0  0  0  0  0  0
   36.5170   22.5950   32.3500 H   0  0  0  0  0  0  0  0  0  0  0  0
   38.5300   22.5870   31.0970 H   0  0  0  0  0  0  0  0  0  0  0  0
   39.0220   24.7350   31.8230 H   0  0  0  0  0  0  0  0  0  0  0  0
   37.2660   24.3720   32.2330 H   0  0  0  0  0  0  0  0  0  0  0  0
   39.8380   24.1270   33.8800 H   0  0  0  0  0  0  0  0  0  0  0  0
   37.5180   23.4690   36.9870 C   0  0  0  0  0  0  0  0  0  0  0  0
   38.5280   23.1380   36.0560 C   0  0  0  0  0  0  0  0  0  0  0  0
   39.7790   22.8200   36.5600 C   0  0  0  0  0  0  0  0  0  0  0  0
   39.9730   22.8450   37.9130 N   0  0  0  0  0  0  0  0  0  0  0  0
   38.9800   23.1680   38.7630 C   0  0  0  0  0  0  0  0  0  0  0  0
   37.7500   23.4820   38.3280 N   0  0  0  0  0  0  0  0  0  0  0  0
   36.5330   23.7210   36.6470 H   0  0  0  0  0  0  0  0  0  0  0  0
   40.5870   22.5590   35.8770 H   0  0  0  0  0  0  0  0  0  0  0  0
   39.2260   23.1590   39.8140 H   0  0  0  0  0  0  0  0  0  0  0  0
   38.3890   25.5680   34.4200 C   0  0  0  0  0  0  0  0  0  0  0  0
   37.2380   26.3180   34.2830 C   0  0  0  0  0  0  0  0  0  0  0  0
   36.3760   26.0290   33.7200 H   0  0  0  0  0  0  0  0  0  0  0  0
   37.3740   27.4760   34.9740 N   0  0  0  0  0  0  0  0  0  0  0  0
   36.7130   28.2720   35.0930 H   0  0  0  0  0  0  0  0  0  0  0  0
   38.5970   27.4550   35.5400 C   0  0  0  0  0  0  0  0  0  0  0  0
   39.1270   28.1550   36.1690 H   0  0  0  0  0  0  0  0  0  0  0  0
   39.2000   26.3250   35.2130 N   0  0  0  0  0  0  0  0  0  0  0  0
  1 16  1  0  0  0  0
  2  8  1  0  0  0  0
  2  7  1  0  0  0  0
  2  1  1  0  0  0  0
  3  2  1  0  0  0  0
  4  5  1  0  0  0  0
  4  3  1  0  0  0  0
  5  6  1  0  0  0  0
  6 14  1  1  0  0  0
  6 24  1  0  0  0  0
  6  1  1  0  0  0  0
  9  3  1  0  0  0  0
 10  3  1  0  0  0  0
 11  4  1  0  0  0  0
 12  5  1  0  0  0  0
 13  5  1  0  0  0  0
 15 20  1  0  0  0  0
 16 17  1  0  0  0  0
 16 15  2  0  0  0  0
 17 18  2  0  0  0  0
 18 19  1  0  0  0  0
 19 23  1  0  0  0  0
 20 19  2  0  0  0  0
 21 15  1  0  0  0  0
 22 17  1  0  0  0  0
 24 31  1  0  0  0  0
 25 24  2  0  0  0  0
 25 27  1  0  0  0  0
 26 25  1  0  0  0  0
 27 28  1  0  0  0  0
 27 29  1  0  0  0  0
 29 30  1  0  0  0  0
 31 29  2  0  0  0  0
M  END
>  <minimizedAffinity>
-4.28314018

$$$$

 OpenBabel03272508313D

 31 33  0  0  1  0  0  0  0  0999 V2000
   40.1630   25.0190   34.9920 N   0  0  0  0  0  0  0  0  0  0  0  0
   41.4840   25.6370   34.9200 C   0  0  0  0  0  0  0  0  0  0  0  0
   42.5910   24.6490   34.9280 C   0  0  0  0  0  0  0  0  0  0  0  0
   42.1200   23.4040   34.3680 N   0  0  0  0  0  0  0  0  0  0  0  0
   41.2270   22.8610   35.4130 C   0  0  0  0  0  0  0  0  0  0  0  0
   39.9400   23.6050   35.2320 C   0  0  1  0  0  0  0  0  0  0  0  0
   41.6150   26.4520   35.6490 H   0  0  0  0  0  0  0  0  0  0  0  0
   41.4960   26.1690   33.9230 H   0  0  0  0  0  0  0  0  0  0  0  0
   43.4580   25.0280   34.3270 H   0  0  0  0  0  0  0  0  0  0  0  0
   42.8720   24.4450   35.9830 H   0  0  0  0  0  0  0  0  0  0  0  0
   42.9160   22.7630   34.3120 H   0  0  0  0  0  0  0  0  0  0  0  0
   41.0160   21.7810   35.2110 H   0  0  0  0  0  0  0  0  0  0  0  0
   41.6700   22.9980   36.4250 H   0  0  0  0  0  0  0  0  0  0  0  0
   39.5100   23.2330   34.2660 H   0  0  0  0  0  0  0  0  0  0  0  0
   38.8410   26.9730   35.6630 C   0  0  0  0  0  0  0  0  0  0  0  0
   39.0380   25.8620   34.8130 C   0  0  0  0  0  0  0  0  0  0  0  0
   38.0980   25.6450   33.8190 C   0  0  0  0  0  0  0  0  0  0  0  0
   37.0390   26.5040   33.7120 N   0  0  0  0  0  0  0  0  0  0  0  0
   36.8920   27.5510   34.5450 C   0  0  0  0  0  0  0  0  0  0  0  0
   37.7740   27.8060   35.5240 N   0  0  0  0  0  0  0  0  0  0  0  0
   39.5410   27.1840   36.4460 H   0  0  0  0  0  0  0  0  0  0  0  0
   38.2100   24.7990   33.1420 H   0  0  0  0  0  0  0  0  0  0  0  0
   36.0260   28.1750   34.3840 H   0  0  0  0  0  0  0  0  0  0  0  0
   38.9600   23.3370   36.3040 C   0  0  0  0  0  0  0  0  0  0  0  0
   37.7730   22.6330   36.2570 C   0  0  0  0  0  0  0  0  0  0  0  0
   37.3740   22.1550   35.3880 H   0  0  0  0  0  0  0  0  0  0  0  0
   37.1980   22.6440   37.4840 N   0  0  0  0  0  0  0  0  0  0  0  0
   36.3070   22.2190   37.8150 H   0  0  0  0  0  0  0  0  0  0  0  0
   38.0140   23.3480   38.2950 C   0  0  0  0  0  0  0  0  0  0  0  0
   37.9600   23.6120   39.3400 H   0  0  0  0  0  0  0  0  0  0  0  0
   39.0590   23.7590   37.5960 N   0  0  0  0  0  0  0  0  0  0  0  0
  1  6  1  0  0  0  0
  2  3  1  0  0  0  0
  2  1  1  0  0  0  0
  2  7  1  0  0  0  0
  3 10  1  0  0  0  0
  4  3  1  0  0  0  0
  4  5  1  0  0  0  0
  5 13  1  0  0  0  0
  6 14  1  6  0  0  0
  6  5  1  0  0  0  0
  6 24  1  0  0  0  0
  8  2  1  0  0  0  0
  9  3  1  0  0  0  0
 11  4  1  0  0  0  0
 12  5  1  0  0  0  0
 15 21  1  0  0  0  0
 16  1  1  0  0  0  0
 16 15  2  0  0  0  0
 17 16  1  0  0  0  0
 18 17  2  0  0  0  0
 18 19  1  0  0  0  0
 19 20  2  0  0  0  0
 20 15  1  0  0  0  0
 22 17  1  0  0  0  0
 23 19  1  0  0  0  0
 24 31  1  0  0  0  0
 25 24  2  0  0  0  0
 25 27  1  0  0  0  0
 26 25  1  0  0  0  0
 27 28  1  0  0  0  0
 27 29  1  0  0  0  0
 29 30  1  0  0  0  0
 31 29  2  0  0  0  0
M  END
>  <minimizedAffinity>
-4.27532291

$$$$

 OpenBabel03272508313D

 31 33  0  0  1  0  0  0  0  0999 V2000
   38.8330   23.3500   34.0290 N   0  0  0  0  0  0  0  0  0  0  0  0
   39.0620   22.6090   32.7910 C   0  0  0  0  0  0  0  0  0  0  0  0
   38.1330   21.4640   32.6170 C   0  0  0  0  0  0  0  0  0  0  0  0
   36.9000   21.7440   33.3140 N   0  0  0  0  0  0  0  0  0  0  0  0
   37.2630   21.6200   34.7410 C   0  0  0  0  0  0  0  0  0  0  0  0
   37.9250   22.9210   35.0760 C   0  0  1  0  0  0  0  0  0  0  0  0
   40.1200   22.3450   32.6390 H   0  0  0  0  0  0  0  0  0  0  0  0
   38.8550   23.3560   31.9690 H   0  0  0  0  0  0  0  0  0  0  0  0
   37.9210   21.2960   31.5300 H   0  0  0  0  0  0  0  0  0  0  0  0
   38.5830   20.5710   33.0990 H   0  0  0  0  0  0  0  0  0  0  0  0
   36.2470   20.9800   33.1190 H   0  0  0  0  0  0  0  0  0  0  0  0
   36.3380   21.5490   35.3660 H   0  0  0  0  0  0  0  0  0  0  0  0
   37.9260   20.7400   34.9080 H   0  0  0  0  0  0  0  0  0  0  0  0
   37.1080   23.6890   35.0550 H   0  0  0  0  0  0  0  0  0  0  0  0
   40.9600   24.5570   34.2230 C   0  0  0  0  0  0  0  0  0  0  0  0
   39.5470   24.5610   34.2040 C   0  0  0  0  0  0  0  0  0  0  0  0
   38.9120   25.7830   34.3610 C   0  0  0  0  0  0  0  0  0  0  0  0
   39.6720   26.9070   34.5270 N   0  0  0  0  0  0  0  0  0  0  0  0
   41.0170   26.8550   34.5390 C   0  0  0  0  0  0  0  0  0  0  0  0
   41.6820   25.6990   34.3910 N   0  0  0  0  0  0  0  0  0  0  0  0
   41.4980   23.6370   34.1050 H   0  0  0  0  0  0  0  0  0  0  0  0
   37.8230   25.8320   34.3530 H   0  0  0  0  0  0  0  0  0  0  0  0
   41.5330   27.7930   34.6740 H   0  0  0  0  0  0  0  0  0  0  0  0
   38.5310   22.9330   36.4220 C   0  0  0  0  0  0  0  0  0  0  0  0
   39.6720   22.3040   36.8810 C   0  0  0  0  0  0  0  0  0  0  0  0
   40.3140   21.6850   36.2920 H   0  0  0  0  0  0  0  0  0  0  0  0
   39.8480   22.5980   38.1930 N   0  0  0  0  0  0  0  0  0  0  0  0
   40.5930   22.3010   38.8560 H   0  0  0  0  0  0  0  0  0  0  0  0
   38.8290   23.4030   38.5560 C   0  0  0  0  0  0  0  0  0  0  0  0
   38.5640   23.8750   39.4890 H   0  0  0  0  0  0  0  0  0  0  0  0
   38.0480   23.6020   37.5070 N   0  0  0  0  0  0  0  0  0  0  0  0
  1 16  1  0  0  0  0
  1  6  1  0  0  0  0
  2  1  1  0  0  0  0
  3  2  1  0  0  0  0
  3 10  1  0  0  0  0
  3  4  1  0  0  0  0
  4  5  1  0  0  0  0
  5 13  1  0  0  0  0
  5  6  1  0  0  0  0
  5 12  1  0  0  0  0
  6 14  1  1  0  0  0
  6 24  1  0  0  0  0
  7  2  1  0  0  0  0
  8  2  1  0  0  0  0
  9  3  1  0  0  0  0
 11  4  1  0  0  0  0
 15 20  1  0  0  0  0
 16 15  2  0  0  0  0
 16 17  1  0  0  0  0
 17 18  2  0  0  0  0
 18 19  1  0  0  0  0
 19 23  1  0  0  0  0
 20 19  2  0  0  0  0
 21 15  1  0  0  0  0
 22 17  1  0  0  0  0
 24 25  2  0  0  0  0
 24 31  1  0  0  0  0
 25 27  1  0  0  0  0
 26 25  1  0  0  0  0
 27 29  1  0  0  0  0
 27 28  1  0  0  0  0
 29 30  1  0  0  0  0
 31 29  2  0  0  0  0
M  END
>  <minimizedAffinity>
-4.13250351

$$$$

 OpenBabel03272508313D

 31 33  0  0  1  0  0  0  0  0999 V2000
   38.2600   24.8400   34.3330 N   0  0  0  0  0  0  0  0  0  0  0  0
   37.3590   25.6780   33.5480 C   0  0  0  0  0  0  0  0  0  0  0  0
   37.2530   27.0650   34.0650 C   0  0  0  0  0  0  0  0  0  0  0  0
   38.4770   27.4100   34.7480 N   0  0  0  0  0  0  0  0  0  0  0  0
   38.4210   26.6210   35.9960 C   0  0  0  0  0  0  0  0  0  0  0  0
   38.8550   25.2460   35.5930 C   0  0  1  0  0  0  0  0  0  0  0  0
   36.3830   25.2010   33.3630 H   0  0  0  0  0  0  0  0  0  0  0  0
   37.8310   25.7210   32.5220 H   0  0  0  0  0  0  0  0  0  0  0  0
   37.0780   27.7830   33.2220 H   0  0  0  0  0  0  0  0  0  0  0  0
   36.4400   27.0980   34.8180 H   0  0  0  0  0  0  0  0  0  0  0  0
   38.4150   28.3930   35.0290 H   0  0  0  0  0  0  0  0  0  0  0  0
   39.1760   27.0050   36.7260 H   0  0  0  0  0  0  0  0  0  0  0  0
   37.3960   26.6430   36.4340 H   0  0  0  0  0  0  0  0  0  0  0  0
   39.9480   25.3320   35.3580 H   0  0  0  0  0  0  0  0  0  0  0  0
   39.8730   23.2590   33.3760 C   0  0  0  0  0  0  0  0  0  0  0  0
   38.5650   23.5540   33.8220 C   0  0  0  0  0  0  0  0  0  0  0  0
   37.6200   22.5440   33.7380 C   0  0  0  0  0  0  0  0  0  0  0  0
   37.9930   21.3290   33.2320 N   0  0  0  0  0  0  0  0  0  0  0  0
   39.2520   21.0940   32.8180 C   0  0  0  0  0  0  0  0  0  0  0  0
   40.2050   22.0360   32.8780 N   0  0  0  0  0  0  0  0  0  0  0  0
   40.6390   24.0060   33.4210 H   0  0  0  0  0  0  0  0  0  0  0  0
   36.5990   22.7280   34.0710 H   0  0  0  0  0  0  0  0  0  0  0  0
   39.4550   20.1050   32.4340 H   0  0  0  0  0  0  0  0  0  0  0  0
   38.6940   24.2480   36.6690 C   0  0  0  0  0  0  0  0  0  0  0  0
   39.5820   23.2950   37.1280 C   0  0  0  0  0  0  0  0  0  0  0  0
   40.5690   23.1380   36.7480 H   0  0  0  0  0  0  0  0  0  0  0  0
   39.0060   22.5950   38.1350 N   0  0  0  0  0  0  0  0  0  0  0  0
   39.3780   21.8100   38.7100 H   0  0  0  0  0  0  0  0  0  0  0  0
   37.7680   23.1010   38.3090 C   0  0  0  0  0  0  0  0  0  0  0  0
   36.9650   22.8580   38.9870 H   0  0  0  0  0  0  0  0  0  0  0  0
   37.5820   24.0810   37.4410 N   0  0  0  0  0  0  0  0  0  0  0  0
  1  6  1  0  0  0  0
  2  3  1  0  0  0  0
  2  1  1  0  0  0  0
  3  4  1  0  0  0  0
  3 10  1  0  0  0  0
  4 11  1  0  0  0  0
  4  5  1  0  0  0  0
  5 13  1  0  0  0  0
  5 12  1  0  0  0  0
  6 14  1  6  0  0  0
  6  5  1  0  0  0  0
  6 24  1  0  0  0  0
  7  2  1  0  0  0  0
  8  2  1  0  0  0  0
  9  3  1  0  0  0  0
 15 21  1  0  0  0  0
 15 16  1  0  0  0  0
 16  1  1  0  0  0  0
 17 16  2  0  0  0  0
 17 22  1  0  0  0  0
 18 17  1  0  0  0  0
 19 20  1  0  0  0  0
 19 18  2  0  0  0  0
 20 15  2  0  0  0  0
 23 19  1  0  0  0  0
 24 25  2  0  0  0  0
 24 31  1  0  0  0  0
 25 27  1  0  0  0  0
 26 25  1  0  0  0  0
 27 29  1  0  0  0  0
 27 28  1  0  0  0  0
 29 30  1  0  0  0  0
 31 29  2  0  0  0  0
M  END
>  <minimizedAffinity>
-4.12531233

$$$$

 OpenBabel03272508313D

 31 33  0  0  1  0  0  0  0  0999 V2000
   37.0000   24.7360   32.0490 N   0  0  0  0  0  0  0  0  0  0  0  0
   35.7460   24.2430   31.4870 C   0  0  0  0  0  0  0  0  0  0  0  0
   34.9160   25.3150   30.8820 C   0  0  0  0  0  0  0  0  0  0  0  0
   35.7770   26.3820   30.4300 N   0  0  0  0  0  0  0  0  0  0  0  0
   36.2320   27.0250   31.6800 C   0  0  0  0  0  0  0  0  0  0  0  0
   37.3340   26.1420   32.1780 C   0  0  1  0  0  0  0  0  0  0  0  0
   35.1910   23.5950   32.1820 H   0  0  0  0  0  0  0  0  0  0  0  0
   36.0610   23.5370   30.6620 H   0  0  0  0  0  0  0  0  0  0  0  0
   34.3290   24.9130   30.0170 H   0  0  0  0  0  0  0  0  0  0  0  0
   34.2610   25.7390   31.6720 H   0  0  0  0  0  0  0  0  0  0  0  0
   35.1950   27.0740   29.9490 H   0  0  0  0  0  0  0  0  0  0  0  0
   36.6840   28.0230   31.4540 H   0  0  0  0  0  0  0  0  0  0  0  0
   35.3920   27.1230   32.4050 H   0  0  0  0  0  0  0  0  0  0  0  0
   38.1830   26.2840   31.4580 H   0  0  0  0  0  0  0  0  0  0  0  0
   39.1950   23.6580   31.8500 C   0  0  0  0  0  0  0  0  0  0  0  0
   37.9400   23.7720   32.4900 C   0  0  0  0  0  0  0  0  0  0  0  0
   37.6840   22.9140   33.5470 C   0  0  0  0  0  0  0  0  0  0  0  0
   38.6430   22.0100   33.9120 N   0  0  0  0  0  0  0  0  0  0  0  0
   39.8250   21.9370   33.2720 C   0  0  0  0  0  0  0  0  0  0  0  0
   40.1240   22.7450   32.2430 N   0  0  0  0  0  0  0  0  0  0  0  0
   39.4400   24.3000   31.0280 H   0  0  0  0  0  0  0  0  0  0  0  0
   36.7290   22.9670   34.0690 H   0  0  0  0  0  0  0  0  0  0  0  0
   40.5210   21.1940   33.6310 H   0  0  0  0  0  0  0  0  0  0  0  0
   37.8100   26.5130   33.5260 C   0  0  0  0  0  0  0  0  0  0  0  0
   37.1040   26.6370   34.7060 C   0  0  0  0  0  0  0  0  0  0  0  0
   36.0530   26.4710   34.8170 H   0  0  0  0  0  0  0  0  0  0  0  0
   37.9520   26.9990   35.6990 N   0  0  0  0  0  0  0  0  0  0  0  0
   37.7720   27.1800   36.7090 H   0  0  0  0  0  0  0  0  0  0  0  0
   39.1790   27.1020   35.1500 C   0  0  0  0  0  0  0  0  0  0  0  0
   40.1450   27.3610   35.5560 H   0  0  0  0  0  0  0  0  0  0  0  0
   39.0960   26.8140   33.8620 N   0  0  0  0  0  0  0  0  0  0  0  0
  1  6  1  0  0  0  0
  1 16  1  0  0  0  0
  2  1  1  0  0  0  0
  2  7  1  0  0  0  0
  3  2  1  0  0  0  0
  3 10  1  0  0  0  0
  4  3  1  0  0  0  0
  4  5  1  0  0  0  0
  5  6  1  0  0  0  0
  5 13  1  0  0  0  0
  6 14  1  6  0  0  0
  6 24  1  0  0  0  0
  8  2  1  0  0  0  0
  9  3  1  0  0  0  0
 11  4  1  0  0  0  0
 12  5  1  0  0  0  0
 15 20  2  0  0  0  0
 15 16  1  0  0  0  0
 16 17  2  0  0  0  0
 17 18  1  0  0  0  0
 17 22  1  0  0  0  0
 19 23  1  0  0  0  0
 19 18  2  0  0  0  0
 20 19  1  0  0  0  0
 21 15  1  0  0  0  0
 24 31  1  0  0  0  0
 24 25  2  0  0  0  0
 25 26  1  0  0  0  0
 25 27  1  0  0  0  0
 27 28  1  0  0  0  0
 29 30  1  0  0  0  0
 29 27  1  0  0  0  0
 31 29  2  0  0  0  0
M  END
>  <minimizedAffinity>
-3.99470496

$$$$

 OpenBabel03272508313D

 31 33  0  0  1  0  0  0  0  0999 V2000
   40.0740   25.1320   34.8590 N   0  0  0  0  0  0  0  0  0  0  0  0
   41.4720   24.7220   34.9530 C   0  0  0  0  0  0  0  0  0  0  0  0
   42.4120   25.7150   34.3730 C   0  0  0  0  0  0  0  0  0  0  0  0
   41.8250   27.0310   34.4640 N   0  0  0  0  0  0  0  0  0  0  0  0
   40.7490   27.0100   33.4520 C   0  0  0  0  0  0  0  0  0  0  0  0
   39.6170   26.2940   34.1190 C   0  0  1  0  0  0  0  0  0  0  0  0
   41.6420   23.6940   34.5950 H   0  0  0  0  0  0  0  0  0  0  0  0
   41.6760   24.6530   36.0620 H   0  0  0  0  0  0  0  0  0  0  0  0
   43.3870   25.6980   34.9260 H   0  0  0  0  0  0  0  0  0  0  0  0
   42.5390   25.4890   33.2940 H   0  0  0  0  0  0  0  0  0  0  0  0
   42.5180   27.7080   34.1320 H   0  0  0  0  0  0  0  0  0  0  0  0
   40.4030   28.0530   33.2420 H   0  0  0  0  0  0  0  0  0  0  0  0
   41.0920   26.5080   32.5180 H   0  0  0  0  0  0  0  0  0  0  0  0
   39.2460   26.9910   34.9160 H   0  0  0  0  0  0  0  0  0  0  0  0
   38.9380   22.9830   35.1860 C   0  0  0  0  0  0  0  0  0  0  0  0
   39.1160   24.3400   35.5380 C   0  0  0  0  0  0  0  0  0  0  0  0
   38.3230   24.8430   36.5570 C   0  0  0  0  0  0  0  0  0  0  0  0
   37.4190   24.0140   37.1620 N   0  0  0  0  0  0  0  0  0  0  0  0
   37.2850   22.7260   36.7940 C   0  0  0  0  0  0  0  0  0  0  0  0
   38.0280   22.1890   35.8130 N   0  0  0  0  0  0  0  0  0  0  0  0
   39.5280   22.5470   34.4050 H   0  0  0  0  0  0  0  0  0  0  0  0
   38.4260   25.8840   36.8600 H   0  0  0  0  0  0  0  0  0  0  0  0
   36.5480   22.1480   37.3290 H   0  0  0  0  0  0  0  0  0  0  0  0
   38.4940   26.0050   33.2040 C   0  0  0  0  0  0  0  0  0  0  0  0
   37.1880   26.4520   33.2430 C   0  0  0  0  0  0  0  0  0  0  0  0
   36.7830   27.1090   33.9830 H   0  0  0  0  0  0  0  0  0  0  0  0
   36.5050   25.9280   32.1970 N   0  0  0  0  0  0  0  0  0  0  0  0
   35.5100   26.0470   31.9130 H   0  0  0  0  0  0  0  0  0  0  0  0
   37.3710   25.1590   31.5060 C   0  0  0  0  0  0  0  0  0  0  0  0
   37.2700   24.5590   30.6150 H   0  0  0  0  0  0  0  0  0  0  0  0
   38.5510   25.2040   32.1030 N   0  0  0  0  0  0  0  0  0  0  0  0
  1  2  1  0  0  0  0
  1 16  1  0  0  0  0
  2  8  1  0  0  0  0
  3  4  1  0  0  0  0
  3  9  1  0  0  0  0
  3  2  1  0  0  0  0
  5  6  1  0  0  0  0
  5  4  1  0  0  0  0
  6  1  1  0  0  0  0
  6 14  1  1  0  0  0
  7  2  1  0  0  0  0
 10  3  1  0  0  0  0
 11  4  1  0  0  0  0
 12  5  1  0  0  0  0
 13  5  1  0  0  0  0
 15 16  2  0  0  0  0
 15 20  1  0  0  0  0
 16 17  1  0  0  0  0
 17 22  1  0  0  0  0
 17 18  2  0  0  0  0
 19 18  1  0  0  0  0
 19 23  1  0  0  0  0
 20 19  2  0  0  0  0
 21 15  1  0  0  0  0
 24 25  2  0  0  0  0
 24  6  1  0  0  0  0
 25 26  1  0  0  0  0
 27 25  1  0  0  0  0
 28 27  1  0  0  0  0
 29 31  2  0  0  0  0
 29 27  1  0  0  0  0
 30 29  1  0  0  0  0
 31 24  1  0  0  0  0
M  END
>  <minimizedAffinity>
-3.97050738

$$$$

 OpenBabel03272508313D

 31 33  0  0  1  0  0  0  0  0999 V2000
   34.7690   31.2410   35.0340 N   0  0  0  0  0  0  0  0  0  0  0  0
   35.4850   32.5060   35.1720 C   0  0  0  0  0  0  0  0  0  0  0  0
   35.1860   33.2100   36.4450 C   0  0  0  0  0  0  0  0  0  0  0  0
   34.8210   32.2390   37.4490 N   0  0  0  0  0  0  0  0  0  0  0  0
   33.4760   31.7870   37.0330 C   0  0  0  0  0  0  0  0  0  0  0  0
   33.7320   30.7910   35.9450 C   0  0  1  0  0  0  0  0  0  0  0  0
   35.3950   33.1480   34.2820 H   0  0  0  0  0  0  0  0  0  0  0  0
   36.5770   32.2160   35.1800 H   0  0  0  0  0  0  0  0  0  0  0  0
   36.0810   33.7890   36.7890 H   0  0  0  0  0  0  0  0  0  0  0  0
   34.3020   33.8610   36.2860 H   0  0  0  0  0  0  0  0  0  0  0  0
   34.6940   32.7350   38.3350 H   0  0  0  0  0  0  0  0  0  0  0  0
   32.9810   31.2390   37.8730 H   0  0  0  0  0  0  0  0  0  0  0  0
   32.8540   32.6490   36.6970 H   0  0  0  0  0  0  0  0  0  0  0  0
   34.1890   29.9010   36.4520 H   0  0  0  0  0  0  0  0  0  0  0  0
   34.8600   30.8340   32.6170 C   0  0  0  0  0  0  0  0  0  0  0  0
   35.1170   30.4110   33.9400 C   0  0  0  0  0  0  0  0  0  0  0  0
   35.7150   29.1720   34.1080 C   0  0  0  0  0  0  0  0  0  0  0  0
   36.0200   28.4290   33.0010 N   0  0  0  0  0  0  0  0  0  0  0  0
   35.7560   28.8740   31.7580 C   0  0  0  0  0  0  0  0  0  0  0  0
   35.1790   30.0650   31.5400 N   0  0  0  0  0  0  0  0  0  0  0  0
   34.4000   31.7840   32.4350 H   0  0  0  0  0  0  0  0  0  0  0  0
   35.9310   28.8070   35.1120 H   0  0  0  0  0  0  0  0  0  0  0  0
   36.0330   28.2200   30.9460 H   0  0  0  0  0  0  0  0  0  0  0  0
   32.5000   30.3490   35.2620 C   0  0  0  0  0  0  0  0  0  0  0  0
   31.5490   31.0920   34.5910 C   0  0  0  0  0  0  0  0  0  0  0  0
   31.5720   32.1530   34.4630 H   0  0  0  0  0  0  0  0  0  0  0  0
   30.5850   30.2640   34.1210 N   0  0  0  0  0  0  0  0  0  0  0  0
   29.7230   30.4730   33.5750 H   0  0  0  0  0  0  0  0  0  0  0  0
   30.9240   29.0130   34.4930 C   0  0  0  0  0  0  0  0  0  0  0  0
   30.4600   28.0510   34.3410 H   0  0  0  0  0  0  0  0  0  0  0  0
   32.0600   29.0620   35.1690 N   0  0  0  0  0  0  0  0  0  0  0  0
  1  2  1  0  0  0  0
  1  6  1  0  0  0  0
  2  8  1  0  0  0  0
  2  3  1  0  0  0  0
  3  9  1  0  0  0  0
  3  4  1  0  0  0  0
  4 11  1  0  0  0  0
  5  4  1  0  0  0  0
  5 12  1  0  0  0  0
  6 14  1  1  0  0  0
  6  5  1  0  0  0  0
  7  2  1  0  0  0  0
 10  3  1  0  0  0  0
 13  5  1  0  0  0  0
 15 16  1  0  0  0  0
 16 17  2  0  0  0  0
 16  1  1  0  0  0  0
 17 22  1  0  0  0  0
 18 17  1  0  0  0  0
 19 18  2  0  0  0  0
 20 19  1  0  0  0  0
 20 15  2  0  0  0  0
 21 15  1  0  0  0  0
 23 19  1  0  0  0  0
 24  6  1  0  0  0  0
 25 24  2  0  0  0  0
 26 25  1  0  0  0  0
 27 29  1  0  0  0  0
 27 25  1  0  0  0  0
 28 27  1  0  0  0  0
 29 31  2  0  0  0  0
 30 29  1  0  0  0  0
 31 24  1  0  0  0  0
M  END
>  <minimizedAffinity>
-3.94373012

$$$$
