
 OpenBabel03272509303D

 37 39  0  0  1  0  0  0  0  0999 V2000
   36.2590   30.7110   48.9880 C   0  0  2  0  0  0  0  0  0  0  0  0
   37.2520   31.5750   49.7020 C   0  0  0  0  0  0  0  0  0  0  0  0
   38.1600   30.7920   50.6270 C   0  0  0  0  0  0  0  0  0  0  0  0
   37.3220   30.0220   51.6480 C   0  0  0  0  0  0  0  0  0  0  0  0
   36.0570   29.4350   51.0820 C   0  0  0  0  0  0  0  0  0  0  0  0
   36.2050   29.3290   49.5530 C   0  0  1  0  0  0  0  0  0  0  0  0
   35.2020   31.1300   49.0160 H   0  0  0  0  0  0  0  0  0  0  0  0
   36.6190   32.1910   50.4280 H   0  0  0  0  0  0  0  0  0  0  0  0
   37.7790   32.3090   49.1210 H   0  0  0  0  0  0  0  0  0  0  0  0
   38.7970   30.0680   50.0970 H   0  0  0  0  0  0  0  0  0  0  0  0
   38.7380   31.5400   51.2010 H   0  0  0  0  0  0  0  0  0  0  0  0
   37.9660   29.1890   52.0310 H   0  0  0  0  0  0  0  0  0  0  0  0
   37.0450   30.6890   52.4970 H   0  0  0  0  0  0  0  0  0  0  0  0
   35.8320   28.4150   51.4640 H   0  0  0  0  0  0  0  0  0  0  0  0
   35.1710   30.0770   51.2440 H   0  0  0  0  0  0  0  0  0  0  0  0
   37.1550   28.8540   49.4910 H   0  0  0  0  0  0  0  0  0  0  0  0
   36.5760   30.6180   47.5380 C   0  0  0  0  0  0  0  0  0  0  0  0
   37.9230   30.8780   47.1910 C   0  0  0  0  0  0  0  0  0  0  0  0
   38.2360   30.7910   45.8310 C   0  0  0  0  0  0  0  0  0  0  0  0
   37.2490   30.4680   44.9310 N   0  0  0  0  0  0  0  0  0  0  0  0
   35.9550   30.2230   45.3260 C   0  0  0  0  0  0  0  0  0  0  0  0
   35.6420   30.3050   46.6330 N   0  0  0  0  0  0  0  0  0  0  0  0
   38.7670   31.1280   47.7990 H   0  0  0  0  0  0  0  0  0  0  0  0
   39.2190   30.9640   45.4210 H   0  0  0  0  0  0  0  0  0  0  0  0
   35.2630   29.9770   44.5410 H   0  0  0  0  0  0  0  0  0  0  0  0
   33.8830   28.3820   49.1460 C   0  0  0  0  0  0  0  0  0  0  0  0
   33.1130   29.0660   49.8810 O   0  0  0  0  0  0  0  0  0  0  0  0
   35.2870   28.4520   48.9240 N   0  0  0  0  0  0  0  0  0  0  0  0
   35.6250   27.7470   48.1940 H   0  0  0  0  0  0  0  0  0  0  0  0
   33.0820   27.3620   48.4430 C   0  0  0  0  0  0  0  0  0  0  0  0
   31.7180   27.1940   48.4090 C   0  0  0  0  0  0  0  0  0  0  0  0
   30.9770   27.7900   48.9000 H   0  0  0  0  0  0  0  0  0  0  0  0
   31.3660   26.1270   47.6430 N   0  0  0  0  0  0  0  0  0  0  0  0
   30.3930   25.7900   47.4560 H   0  0  0  0  0  0  0  0  0  0  0  0
   32.5130   25.6130   47.1860 C   0  0  0  0  0  0  0  0  0  0  0  0
   32.5880   24.7540   46.5440 H   0  0  0  0  0  0  0  0  0  0  0  0
   33.5340   26.3470   47.6620 N   0  0  0  0  0  0  0  0  0  0  0  0
  1  7  1  1  0  0  0
  1  6  1  0  0  0  0
  1  2  1  0  0  0  0
  2  8  1  0  0  0  0
  2  3  1  0  0  0  0
  3 11  1  0  0  0  0
  3  4  1  0  0  0  0
  4 12  1  0  0  0  0
  4 13  1  0  0  0  0
  5 15  1  0  0  0  0
  5 14  1  0  0  0  0
  5  4  1  0  0  0  0
  6 16  1  6  0  0  0
  6  5  1  0  0  0  0
  9  2  1  0  0  0  0
 10  3  1  0  0  0  0
 17  1  1  0  0  0  0
 18 17  1  0  0  0  0
 18 23  1  0  0  0  0
 19 18  2  0  0  0  0
 20 21  2  0  0  0  0
 20 19  1  0  0  0  0
 21 22  1  0  0  0  0
 22 17  2  0  0  0  0
 24 19  1  0  0  0  0
 25 21  1  0  0  0  0
 26 27  2  0  0  0  0
 28 26  1  0  0  0  0
 28  6  1  0  0  0  0
 29 28  1  0  0  0  0
 30 26  1  0  0  0  0
 31 30  2  0  0  0  0
 31 32  1  0  0  0  0
 33 31  1  0  0  0  0
 34 33  1  0  0  0  0
 35 33  1  0  0  0  0
 35 37  2  0  0  0  0
 36 35  1  0  0  0  0
 37 30  1  0  0  0  0
M  END
>  <minimizedAffinity>
-5.75380039

>  <minimizedRMSD>
0.319476783

$$$$
