
 OpenBabel03272509303D

 37 39  0  0  1  0  0  0  0  0999 V2000
   36.2610   30.7110   48.9860 C   0  0  2  0  0  0  0  0  0  0  0  0
   37.2430   31.5860   49.7050 C   0  0  0  0  0  0  0  0  0  0  0  0
   38.1550   30.8110   50.6330 C   0  0  0  0  0  0  0  0  0  0  0  0
   37.3210   30.0320   51.6500 C   0  0  0  0  0  0  0  0  0  0  0  0
   36.0640   29.4320   51.0790 C   0  0  0  0  0  0  0  0  0  0  0  0
   36.2200   29.3290   49.5500 C   0  0  1  0  0  0  0  0  0  0  0  0
   35.2010   31.1200   49.0090 H   0  0  0  0  0  0  0  0  0  0  0  0
   36.6000   32.1940   50.4280 H   0  0  0  0  0  0  0  0  0  0  0  0
   37.7650   32.3260   49.1260 H   0  0  0  0  0  0  0  0  0  0  0  0
   38.8020   30.0940   50.1060 H   0  0  0  0  0  0  0  0  0  0  0  0
   38.7220   31.5650   51.2100 H   0  0  0  0  0  0  0  0  0  0  0  0
   37.9720   29.2050   52.0350 H   0  0  0  0  0  0  0  0  0  0  0  0
   37.0330   30.6960   52.4980 H   0  0  0  0  0  0  0  0  0  0  0  0
   35.8480   28.4100   51.4590 H   0  0  0  0  0  0  0  0  0  0  0  0
   35.1710   30.0650   51.2370 H   0  0  0  0  0  0  0  0  0  0  0  0
   37.1750   28.8640   49.4920 H   0  0  0  0  0  0  0  0  0  0  0  0
   36.5860   30.6230   47.5370 C   0  0  0  0  0  0  0  0  0  0  0  0
   37.9340   30.8860   47.1980 C   0  0  0  0  0  0  0  0  0  0  0  0
   38.2540   30.8030   45.8380 C   0  0  0  0  0  0  0  0  0  0  0  0
   37.2720   30.4800   44.9330 N   0  0  0  0  0  0  0  0  0  0  0  0
   35.9760   30.2320   45.3210 C   0  0  0  0  0  0  0  0  0  0  0  0
   35.6570   30.3110   46.6270 N   0  0  0  0  0  0  0  0  0  0  0  0
   38.7750   31.1350   47.8100 H   0  0  0  0  0  0  0  0  0  0  0  0
   39.2380   30.9780   45.4330 H   0  0  0  0  0  0  0  0  0  0  0  0
   35.2880   29.9870   44.5320 H   0  0  0  0  0  0  0  0  0  0  0  0
   33.9090   28.3610   49.1280 C   0  0  0  0  0  0  0  0  0  0  0  0
   33.1280   29.0410   49.8560 O   0  0  0  0  0  0  0  0  0  0  0  0
   35.3130   28.4430   48.9170 N   0  0  0  0  0  0  0  0  0  0  0  0
   35.6630   27.7380   48.1910 H   0  0  0  0  0  0  0  0  0  0  0  0
   33.1210   27.3330   48.4220 C   0  0  0  0  0  0  0  0  0  0  0  0
   33.5400   26.3530   47.5560 C   0  0  0  0  0  0  0  0  0  0  0  0
   34.5420   26.1570   47.2310 H   0  0  0  0  0  0  0  0  0  0  0  0
   32.4990   25.5980   47.1130 N   0  0  0  0  0  0  0  0  0  0  0  0
   32.5530   24.7920   46.4480 H   0  0  0  0  0  0  0  0  0  0  0  0
   31.4100   26.1030   47.7040 C   0  0  0  0  0  0  0  0  0  0  0  0
   30.4090   25.7300   47.5660 H   0  0  0  0  0  0  0  0  0  0  0  0
   31.7790   27.1340   48.4830 N   0  0  0  0  0  0  0  0  0  0  0  0
  1  7  1  1  0  0  0
  1  6  1  0  0  0  0
  1  2  1  0  0  0  0
  2  8  1  0  0  0  0
  2  3  1  0  0  0  0
  3 11  1  0  0  0  0
  3  4  1  0  0  0  0
  4 12  1  0  0  0  0
  4 13  1  0  0  0  0
  5 15  1  0  0  0  0
  5 14  1  0  0  0  0
  5  4  1  0  0  0  0
  6 16  1  6  0  0  0
  6  5  1  0  0  0  0
  9  2  1  0  0  0  0
 10  3  1  0  0  0  0
 17  1  1  0  0  0  0
 18 17  1  0  0  0  0
 18 23  1  0  0  0  0
 19 18  2  0  0  0  0
 20 21  2  0  0  0  0
 20 19  1  0  0  0  0
 21 22  1  0  0  0  0
 22 17  2  0  0  0  0
 24 19  1  0  0  0  0
 25 21  1  0  0  0  0
 26 27  2  0  0  0  0
 28 26  1  0  0  0  0
 28  6  1  0  0  0  0
 29 28  1  0  0  0  0
 30 37  1  0  0  0  0
 30 26  1  0  0  0  0
 31 30  2  0  0  0  0
 32 31  1  0  0  0  0
 33 31  1  0  0  0  0
 33 35  1  0  0  0  0
 34 33  1  0  0  0  0
 35 37  2  0  0  0  0
 36 35  1  0  0  0  0
M  END
>  <minimizedAffinity>
-5.75915337

>  <minimizedRMSD>
0.514057934

$$$$
