
 OpenBabel03272501293D

 19 20  0  0  0  0  0  0  0  0999 V2000
   38.6590   31.7800   47.8100 C   0  0  0  0  0  0  0  0  0  0  0  0
   38.9470   32.9780   47.9990 O   0  0  0  0  0  0  0  0  0  0  0  0
   37.5370   30.3110   51.0550 C   0  0  0  0  0  0  0  0  0  0  0  0
   38.2490   31.1380   50.1810 C   0  0  0  0  0  0  0  0  0  0  0  0
   37.9720   30.9690   48.8110 C   0  0  0  0  0  0  0  0  0  0  0  0
   37.0480   30.0300   48.4340 N   0  0  0  0  0  0  0  0  0  0  0  0
   36.4040   29.2730   49.3270 C   0  0  0  0  0  0  0  0  0  0  0  0
   36.6400   29.4050   50.6360 N   0  0  0  0  0  0  0  0  0  0  0  0
   37.7720   30.4640   52.1200 H   0  0  0  0  0  0  0  0  0  0  0  0
   38.9710   31.8700   50.4760 H   0  0  0  0  0  0  0  0  0  0  0  0
   35.6750   28.5310   49.0560 H   0  0  0  0  0  0  0  0  0  0  0  0
   39.0210   31.1580   46.5380 C   0  0  0  0  0  0  0  0  0  0  0  0
   40.2960   31.1430   45.9810 C   0  0  0  0  0  0  0  0  0  0  0  0
   41.1530   31.6010   46.4520 H   0  0  0  0  0  0  0  0  0  0  0  0
   40.1720   30.4760   44.8270 N   0  0  0  0  0  0  0  0  0  0  0  0
   40.9940   30.3160   44.1990 H   0  0  0  0  0  0  0  0  0  0  0  0
   38.9100   30.0690   44.6150 C   0  0  0  0  0  0  0  0  0  0  0  0
   38.5490   29.5040   43.7430 H   0  0  0  0  0  0  0  0  0  0  0  0
   38.2060   30.5000   45.6880 N   0  0  0  0  0  0  0  0  0  0  0  0
  1  2  2  0  0  0  0
  1  5  1  0  0  0  0
  3  9  1  0  0  0  0
  4 10  1  0  0  0  0
  4  3  2  0  0  0  0
  5  4  1  0  0  0  0
  6  5  2  0  0  0  0
  6  7  1  0  0  0  0
  7  8  2  0  0  0  0
  8  3  1  0  0  0  0
 11  7  1  0  0  0  0
 12  1  1  0  0  0  0
 13 14  1  0  0  0  0
 13 12  2  0  0  0  0
 15 13  1  0  0  0  0
 16 15  1  0  0  0  0
 17 15  1  0  0  0  0
 17 19  2  0  0  0  0
 18 17  1  0  0  0  0
 19 12  1  0  0  0  0
M  END
>  <minimizedAffinity>
-4.66004038

>  <minimizedRMSD>
1.29791319

$$$$
