
 OpenBabel03272510083D

 43 47  0  0  0  0  0  0  0  0999 V2000
   35.7320   29.0800   49.3180 C   0  0  0  0  0  0  0  0  0  0  0  0
   36.3110   28.8210   50.5200 N   0  0  0  0  0  0  0  0  0  0  0  0
   37.5270   29.3200   50.7910 C   0  0  0  0  0  0  0  0  0  0  0  0
   38.2560   30.0890   49.9360 N   0  0  0  0  0  0  0  0  0  0  0  0
   37.7130   30.3670   48.7320 C   0  0  0  0  0  0  0  0  0  0  0  0
   38.3540   31.1670   47.8020 C   0  0  0  0  0  0  0  0  0  0  0  0
   37.7470   31.4620   46.5820 C   0  0  0  0  0  0  0  0  0  0  0  0
   36.4830   30.9380   46.3080 C   0  0  0  0  0  0  0  0  0  0  0  0
   35.8740   30.1420   47.2590 C   0  0  0  0  0  0  0  0  0  0  0  0
   36.4630   29.8540   48.4540 C   0  0  0  0  0  0  0  0  0  0  0  0
   38.0130   29.1280   51.7450 H   0  0  0  0  0  0  0  0  0  0  0  0
   39.3280   31.5300   48.0940 H   0  0  0  0  0  0  0  0  0  0  0  0
   38.3410   32.0880   45.9600 H   0  0  0  0  0  0  0  0  0  0  0  0
   36.1920   31.2750   45.3340 H   0  0  0  0  0  0  0  0  0  0  0  0
   34.0640   27.3880   48.4020 C   0  0  0  0  0  0  0  0  0  0  0  0
   34.4320   28.5360   49.1370 C   0  0  0  0  0  0  0  0  0  0  0  0
   33.4030   29.2840   49.7870 C   0  0  0  0  0  0  0  0  0  0  0  0
   32.1130   28.8780   49.6760 N   0  0  0  0  0  0  0  0  0  0  0  0
   31.8240   27.7600   48.9460 C   0  0  0  0  0  0  0  0  0  0  0  0
   32.7660   27.0350   48.3290 N   0  0  0  0  0  0  0  0  0  0  0  0
   30.4310   27.3870   48.8410 N   0  0  0  0  0  0  0  0  0  0  0  0
   29.6060   27.0300   49.9610 C   0  0  0  0  0  0  0  0  0  0  0  0
   28.2140   26.9890   49.4090 C   0  0  0  0  0  0  0  0  0  0  0  0
   28.2810   27.5580   48.0000 C   0  0  0  0  0  0  0  0  0  0  0  0
   29.6720   27.3230   47.5800 C   0  0  0  0  0  0  0  0  0  0  0  0
   34.8860   26.8740   47.9460 H   0  0  0  0  0  0  0  0  0  0  0  0
   33.5840   30.1580   50.3640 H   0  0  0  0  0  0  0  0  0  0  0  0
   29.6560   27.7520   50.8060 H   0  0  0  0  0  0  0  0  0  0  0  0
   29.9340   26.0330   50.3650 H   0  0  0  0  0  0  0  0  0  0  0  0
   27.5390   27.6090   50.0420 H   0  0  0  0  0  0  0  0  0  0  0  0
   27.8500   25.9550   49.4400 H   0  0  0  0  0  0  0  0  0  0  0  0
   27.4990   27.0080   47.4010 H   0  0  0  0  0  0  0  0  0  0  0  0
   27.9680   28.6100   48.0150 H   0  0  0  0  0  0  0  0  0  0  0  0
   29.8310   26.3520   47.0960 H   0  0  0  0  0  0  0  0  0  0  0  0
   30.0060   28.1430   46.8810 H   0  0  0  0  0  0  0  0  0  0  0  0
   34.5930   29.7890   46.6470 C   0  0  0  0  0  0  0  0  0  0  0  0
   33.2960   30.2500   46.7470 C   0  0  0  0  0  0  0  0  0  0  0  0
   33.0660   31.1210   47.3640 H   0  0  0  0  0  0  0  0  0  0  0  0
   32.3950   29.5420   46.0680 N   0  0  0  0  0  0  0  0  0  0  0  0
   31.3760   29.7500   46.0350 H   0  0  0  0  0  0  0  0  0  0  0  0
   33.1480   28.5860   45.5110 C   0  0  0  0  0  0  0  0  0  0  0  0
   32.7510   27.7960   44.8660 H   0  0  0  0  0  0  0  0  0  0  0  0
   34.4440   28.6950   45.8270 N   0  0  0  0  0  0  0  0  0  0  0  0
  1  2  1  0  0  0  0
  2  3  2  0  0  0  0
  3 11  1  0  0  0  0
  4  3  1  0  0  0  0
  5  4  2  0  0  0  0
  6 12  1  0  0  0  0
  6  5  1  0  0  0  0
  7  6  2  0  0  0  0
  8  7  1  0  0  0  0
  8  9  2  0  0  0  0
  9 10  1  0  0  0  0
 10  5  1  0  0  0  0
 10  1  2  0  0  0  0
 13  7  1  0  0  0  0
 14  8  1  0  0  0  0
 15 16  1  0  0  0  0
 16  1  1  0  0  0  0
 16 17  2  0  0  0  0
 17 27  1  0  0  0  0
 18 17  1  0  0  0  0
 19 18  2  0  0  0  0
 20 15  2  0  0  0  0
 20 19  1  0  0  0  0
 21 19  1  0  0  0  0
 21 22  1  0  0  0  0
 22 29  1  0  0  0  0
 22 28  1  0  0  0  0
 23 31  1  0  0  0  0
 23 22  1  0  0  0  0
 23 30  1  0  0  0  0
 24 33  1  0  0  0  0
 24 23  1  0  0  0  0
 25 24  1  0  0  0  0
 25 21  1  0  0  0  0
 26 15  1  0  0  0  0
 32 24  1  0  0  0  0
 34 25  1  0  0  0  0
 35 25  1  0  0  0  0
 36 37  2  0  0  0  0
 36  9  1  0  0  0  0
 37 38  1  0  0  0  0
 39 37  1  0  0  0  0
 40 39  1  0  0  0  0
 41 43  2  0  0  0  0
 41 39  1  0  0  0  0
 42 41  1  0  0  0  0
 43 36  1  0  0  0  0
M  END
>  <minimizedAffinity>
-5.45548916

>  <minimizedRMSD>
2.87085366

$$$$
