
 OpenBabel03272510083D

 43 47  0  0  0  0  0  0  0  0999 V2000
   35.1420   30.2010   47.6710 C   0  0  0  0  0  0  0  0  0  0  0  0
   35.0440   30.4040   49.0120 N   0  0  0  0  0  0  0  0  0  0  0  0
   36.0890   30.9130   49.6820 C   0  0  0  0  0  0  0  0  0  0  0  0
   37.2790   31.2540   49.1170 N   0  0  0  0  0  0  0  0  0  0  0  0
   37.4140   31.0660   47.7880 C   0  0  0  0  0  0  0  0  0  0  0  0
   38.5690   31.4110   47.1070 C   0  0  0  0  0  0  0  0  0  0  0  0
   38.6590   31.2350   45.7270 C   0  0  0  0  0  0  0  0  0  0  0  0
   37.5690   30.7030   45.0380 C   0  0  0  0  0  0  0  0  0  0  0  0
   36.4320   30.3690   45.7500 C   0  0  0  0  0  0  0  0  0  0  0  0
   36.3390   30.5420   47.0980 C   0  0  0  0  0  0  0  0  0  0  0  0
   36.0380   31.0850   50.7550 H   0  0  0  0  0  0  0  0  0  0  0  0
   39.3650   31.8140   47.7170 H   0  0  0  0  0  0  0  0  0  0  0  0
   39.5950   31.5410   45.3270 H   0  0  0  0  0  0  0  0  0  0  0  0
   37.8310   30.6480   44.0010 H   0  0  0  0  0  0  0  0  0  0  0  0
   33.6450   28.3400   46.7870 C   0  0  0  0  0  0  0  0  0  0  0  0
   33.9740   29.6880   47.0450 C   0  0  0  0  0  0  0  0  0  0  0  0
   33.0550   30.7020   46.6330 C   0  0  0  0  0  0  0  0  0  0  0  0
   31.9070   30.3440   46.0050 N   0  0  0  0  0  0  0  0  0  0  0  0
   31.6500   29.0210   45.7820 C   0  0  0  0  0  0  0  0  0  0  0  0
   32.4890   28.0480   46.1600 N   0  0  0  0  0  0  0  0  0  0  0  0
   30.4230   28.6980   45.0880 N   0  0  0  0  0  0  0  0  0  0  0  0
   29.1120   29.0040   45.5860 C   0  0  0  0  0  0  0  0  0  0  0  0
   28.1960   28.7330   44.4320 C   0  0  0  0  0  0  0  0  0  0  0  0
   29.0770   28.4850   43.2180 C   0  0  0  0  0  0  0  0  0  0  0  0
   30.3520   28.0160   43.7830 C   0  0  0  0  0  0  0  0  0  0  0  0
   34.3760   27.6350   47.1280 H   0  0  0  0  0  0  0  0  0  0  0  0
   33.2150   31.7410   46.7860 H   0  0  0  0  0  0  0  0  0  0  0  0
   28.9920   30.0580   45.9230 H   0  0  0  0  0  0  0  0  0  0  0  0
   28.8860   28.3500   46.4720 H   0  0  0  0  0  0  0  0  0  0  0  0
   27.5390   29.6150   44.2560 H   0  0  0  0  0  0  0  0  0  0  0  0
   27.5550   27.8790   44.6810 H   0  0  0  0  0  0  0  0  0  0  0  0
   28.5290   27.7330   42.5790 H   0  0  0  0  0  0  0  0  0  0  0  0
   29.1410   29.4020   42.6170 H   0  0  0  0  0  0  0  0  0  0  0  0
   30.4010   26.9300   43.9250 H   0  0  0  0  0  0  0  0  0  0  0  0
   31.2080   28.3420   43.1250 H   0  0  0  0  0  0  0  0  0  0  0  0
   35.5180   29.8650   44.7250 C   0  0  0  0  0  0  0  0  0  0  0  0
   35.2650   28.6340   44.1530 C   0  0  0  0  0  0  0  0  0  0  0  0
   35.7760   27.7410   44.5170 H   0  0  0  0  0  0  0  0  0  0  0  0
   34.3940   28.6530   43.1450 N   0  0  0  0  0  0  0  0  0  0  0  0
   34.0910   27.8170   42.6050 H   0  0  0  0  0  0  0  0  0  0  0  0
   34.0790   29.9510   43.0670 C   0  0  0  0  0  0  0  0  0  0  0  0
   33.3740   30.3640   42.3380 H   0  0  0  0  0  0  0  0  0  0  0  0
   34.7180   30.6970   43.9770 N   0  0  0  0  0  0  0  0  0  0  0  0
  1  2  1  0  0  0  0
  2  3  2  0  0  0  0
  3 11  1  0  0  0  0
  4  3  1  0  0  0  0
  5  4  2  0  0  0  0
  6 12  1  0  0  0  0
  6  5  1  0  0  0  0
  7  6  2  0  0  0  0
  8  7  1  0  0  0  0
  8  9  2  0  0  0  0
  9 10  1  0  0  0  0
 10  1  2  0  0  0  0
 10  5  1  0  0  0  0
 13  7  1  0  0  0  0
 14  8  1  0  0  0  0
 15 16  1  0  0  0  0
 15 26  1  0  0  0  0
 16  1  1  0  0  0  0
 17 27  1  0  0  0  0
 17 16  2  0  0  0  0
 18 17  1  0  0  0  0
 19 18  2  0  0  0  0
 19 20  1  0  0  0  0
 20 15  2  0  0  0  0
 21 22  1  0  0  0  0
 21 19  1  0  0  0  0
 22 28  1  0  0  0  0
 22 29  1  0  0  0  0
 23 31  1  0  0  0  0
 23 22  1  0  0  0  0
 24 25  1  0  0  0  0
 24 23  1  0  0  0  0
 25 34  1  0  0  0  0
 25 21  1  0  0  0  0
 30 23  1  0  0  0  0
 32 24  1  0  0  0  0
 33 24  1  0  0  0  0
 35 25  1  0  0  0  0
 36  9  1  0  0  0  0
 37 38  1  0  0  0  0
 37 36  2  0  0  0  0
 39 37  1  0  0  0  0
 40 39  1  0  0  0  0
 41 39  1  0  0  0  0
 41 43  2  0  0  0  0
 42 41  1  0  0  0  0
 43 36  1  0  0  0  0
M  END
>  <minimizedAffinity>
-4.80871153

>  <minimizedRMSD>
3.14173818

$$$$
