
 OpenBabel03272509353D

 46 50  0  0  1  0  0  0  0  0999 V2000
   36.4550   30.5290   44.8840 C   0  0  1  0  0  0  0  0  0  0  0  0
   37.5250   31.4010   45.4320 C   0  0  0  0  0  0  0  0  0  0  0  0
   37.9220   30.0200   45.2430 C   0  0  2  0  0  0  0  0  0  0  0  0
   36.2150   30.4260   43.8350 H   0  0  0  0  0  0  0  0  0  0  0  0
   37.3710   31.7020   46.5140 H   0  0  0  0  0  0  0  0  0  0  0  0
   37.6440   32.2820   44.8170 H   0  0  0  0  0  0  0  0  0  0  0  0
   37.8170   29.1470   45.8730 H   0  0  0  0  0  0  0  0  0  0  0  0
   38.8780   29.8890   44.0910 C   0  0  0  0  0  0  0  0  0  0  0  0
   39.6710   31.0280   43.9810 C   0  0  0  0  0  0  0  0  0  0  0  0
   40.6860   31.0770   43.0610 C   0  0  0  0  0  0  0  0  0  0  0  0
   40.9470   29.9900   42.2180 C   0  0  0  0  0  0  0  0  0  0  0  0
   40.1410   28.8670   42.3510 C   0  0  0  0  0  0  0  0  0  0  0  0
   40.2890   27.7480   41.5810 C   0  0  0  0  0  0  0  0  0  0  0  0
   39.4950   26.6360   41.6940 C   0  0  0  0  0  0  0  0  0  0  0  0
   38.4800   26.6450   42.6430 C   0  0  0  0  0  0  0  0  0  0  0  0
   38.3250   27.7680   43.4230 C   0  0  0  0  0  0  0  0  0  0  0  0
   39.1530   28.8670   43.2710 C   0  0  0  0  0  0  0  0  0  0  0  0
   39.7370   31.9810   44.4660 H   0  0  0  0  0  0  0  0  0  0  0  0
   41.3930   31.8610   42.8320 H   0  0  0  0  0  0  0  0  0  0  0  0
   41.7130   29.8910   41.4490 H   0  0  0  0  0  0  0  0  0  0  0  0
   41.0650   27.6980   40.8300 H   0  0  0  0  0  0  0  0  0  0  0  0
   39.6120   25.7580   41.0880 H   0  0  0  0  0  0  0  0  0  0  0  0
   37.8100   25.8130   42.7980 H   0  0  0  0  0  0  0  0  0  0  0  0
   37.5150   27.7610   44.1730 H   0  0  0  0  0  0  0  0  0  0  0  0
   33.5510   28.6440   46.3840 C   0  0  0  0  0  0  0  0  0  0  0  0
   34.5110   29.1110   45.4400 C   0  0  0  0  0  0  0  0  0  0  0  0
   35.4460   30.0160   45.8470 C   0  0  0  0  0  0  0  0  0  0  0  0
   35.3820   30.4110   47.1690 N   0  0  0  0  0  0  0  0  0  0  0  0
   34.4770   29.9660   48.0410 C   0  0  0  0  0  0  0  0  0  0  0  0
   33.5460   29.0770   47.6690 N   0  0  0  0  0  0  0  0  0  0  0  0
   32.8230   27.9260   46.0250 H   0  0  0  0  0  0  0  0  0  0  0  0
   34.4490   28.7170   44.4290 H   0  0  0  0  0  0  0  0  0  0  0  0
   34.5440   30.5070   49.4530 C   0  0  0  0  0  0  0  0  0  0  0  0
   33.8430   31.3810   49.4530 H   0  0  0  0  0  0  0  0  0  0  0  0
   34.2930   29.7380   50.1850 H   0  0  0  0  0  0  0  0  0  0  0  0
   35.9520   31.0760   49.6440 C   0  0  0  0  0  0  0  0  0  0  0  0
   36.3860   31.2560   48.6390 H   0  0  0  0  0  0  0  0  0  0  0  0
   35.7940   32.0690   50.1360 H   0  0  0  0  0  0  0  0  0  0  0  0
   36.7920   30.2000   50.4680 C   0  0  0  0  0  0  0  0  0  0  0  0
   37.4230   29.0050   50.1060 C   0  0  0  0  0  0  0  0  0  0  0  0
   37.3910   28.5310   49.1420 H   0  0  0  0  0  0  0  0  0  0  0  0
   38.0560   28.6160   51.2240 N   0  0  0  0  0  0  0  0  0  0  0  0
   38.6230   27.7180   51.2180 H   0  0  0  0  0  0  0  0  0  0  0  0
   37.8800   29.4550   52.2530 C   0  0  0  0  0  0  0  0  0  0  0  0
   38.3010   29.3320   53.2450 H   0  0  0  0  0  0  0  0  0  0  0  0
   37.0980   30.4170   51.7530 N   0  0  0  0  0  0  0  0  0  0  0  0
  1  4  1  6  0  0  0
  1  3  1  0  0  0  0
  1  2  1  0  0  0  0
  1 27  1  0  0  0  0
  2  5  1  0  0  0  0
  3  2  1  0  0  0  0
  3  7  1  1  0  0  0
  6  2  1  0  0  0  0
  8  3  1  0  0  0  0
  9  8  1  0  0  0  0
  9 18  1  0  0  0  0
 10  9  2  0  0  0  0
 11 12  2  0  0  0  0
 11 10  1  0  0  0  0
 12 17  1  0  0  0  0
 13 14  2  0  0  0  0
 13 12  1  0  0  0  0
 14 15  1  0  0  0  0
 15 23  1  0  0  0  0
 15 16  2  0  0  0  0
 16 24  1  0  0  0  0
 17 16  1  0  0  0  0
 17  8  2  0  0  0  0
 19 10  1  0  0  0  0
 20 11  1  0  0  0  0
 21 13  1  0  0  0  0
 22 14  1  0  0  0  0
 25 30  1  0  0  0  0
 26 27  1  0  0  0  0
 26 25  2  0  0  0  0
 27 28  2  0  0  0  0
 28 29  1  0  0  0  0
 29 33  1  0  0  0  0
 30 29  2  0  0  0  0
 31 25  1  0  0  0  0
 32 26  1  0  0  0  0
 33 34  1  0  0  0  0
 33 36  1  0  0  0  0
 33 35  1  0  0  0  0
 36 38  1  0  0  0  0
 36 39  1  0  0  0  0
 37 36  1  0  0  0  0
 39 46  1  0  0  0  0
 40 39  2  0  0  0  0
 40 42  1  0  0  0  0
 41 40  1  0  0  0  0
 42 44  1  0  0  0  0
 43 42  1  0  0  0  0
 44 45  1  0  0  0  0
 46 44  2  0  0  0  0
M  END
>  <minimizedAffinity>
-5.01001644

>  <minimizedRMSD>
2.81349015

$$$$
