
 OpenBabel03272509353D

 46 50  0  0  1  0  0  0  0  0999 V2000
   36.5180   30.4000   44.4570 C   0  0  1  0  0  0  0  0  0  0  0  0
   37.5990   31.2390   45.0320 C   0  0  0  0  0  0  0  0  0  0  0  0
   37.9410   29.8380   44.9010 C   0  0  2  0  0  0  0  0  0  0  0  0
   36.3230   30.2760   43.4000 H   0  0  0  0  0  0  0  0  0  0  0  0
   37.4070   31.5790   46.0960 H   0  0  0  0  0  0  0  0  0  0  0  0
   37.7870   32.0960   44.3990 H   0  0  0  0  0  0  0  0  0  0  0  0
   37.7660   28.9890   45.5500 H   0  0  0  0  0  0  0  0  0  0  0  0
   38.9440   29.6300   43.8020 C   0  0  0  0  0  0  0  0  0  0  0  0
   39.8590   30.6790   43.7690 C   0  0  0  0  0  0  0  0  0  0  0  0
   40.9260   30.6390   42.9100 C   0  0  0  0  0  0  0  0  0  0  0  0
   41.1190   29.5490   42.0520 C   0  0  0  0  0  0  0  0  0  0  0  0
   40.1920   28.5160   42.1080 C   0  0  0  0  0  0  0  0  0  0  0  0
   40.2650   27.4050   41.3160 C   0  0  0  0  0  0  0  0  0  0  0  0
   39.3520   26.3830   41.3520 C   0  0  0  0  0  0  0  0  0  0  0  0
   38.2900   26.4800   42.2420 C   0  0  0  0  0  0  0  0  0  0  0  0
   38.2100   27.5960   43.0430 C   0  0  0  0  0  0  0  0  0  0  0  0
   39.1570   28.6020   42.9700 C   0  0  0  0  0  0  0  0  0  0  0  0
   39.9960   31.6080   44.2840 H   0  0  0  0  0  0  0  0  0  0  0  0
   41.7240   31.3460   42.7440 H   0  0  0  0  0  0  0  0  0  0  0  0
   41.9140   29.3840   41.3260 H   0  0  0  0  0  0  0  0  0  0  0  0
   41.0750   27.2880   40.6090 H   0  0  0  0  0  0  0  0  0  0  0  0
   39.4120   25.5110   40.7300 H   0  0  0  0  0  0  0  0  0  0  0  0
   37.5270   25.7220   42.3350 H   0  0  0  0  0  0  0  0  0  0  0  0
   37.3600   27.6590   43.7460 H   0  0  0  0  0  0  0  0  0  0  0  0
   33.3930   28.7920   45.8310 C   0  0  0  0  0  0  0  0  0  0  0  0
   34.4150   29.1900   44.9210 C   0  0  0  0  0  0  0  0  0  0  0  0
   35.4410   29.9610   45.3820 C   0  0  0  0  0  0  0  0  0  0  0  0
   35.4010   30.2970   46.7210 N   0  0  0  0  0  0  0  0  0  0  0  0
   34.4370   29.9180   47.5600 C   0  0  0  0  0  0  0  0  0  0  0  0
   33.4170   29.1610   47.1360 N   0  0  0  0  0  0  0  0  0  0  0  0
   32.5930   28.1810   45.4300 H   0  0  0  0  0  0  0  0  0  0  0  0
   34.3250   28.8550   43.8920 H   0  0  0  0  0  0  0  0  0  0  0  0
   34.5440   30.3800   48.9990 C   0  0  0  0  0  0  0  0  0  0  0  0
   33.8160   31.2290   49.0760 H   0  0  0  0  0  0  0  0  0  0  0  0
   34.3460   29.5620   49.6930 H   0  0  0  0  0  0  0  0  0  0  0  0
   35.9400   30.9830   49.1690 C   0  0  0  0  0  0  0  0  0  0  0  0
   36.4200   31.0170   48.1700 H   0  0  0  0  0  0  0  0  0  0  0  0
   35.7570   32.0360   49.5030 H   0  0  0  0  0  0  0  0  0  0  0  0
   36.7420   30.2440   50.1510 C   0  0  0  0  0  0  0  0  0  0  0  0
   37.4120   29.0270   49.9900 C   0  0  0  0  0  0  0  0  0  0  0  0
   37.4450   28.4270   49.0980 H   0  0  0  0  0  0  0  0  0  0  0  0
   37.9820   28.8040   51.1840 N   0  0  0  0  0  0  0  0  0  0  0  0
   38.5620   27.9270   51.3320 H   0  0  0  0  0  0  0  0  0  0  0  0
   37.7320   29.7700   52.0790 C   0  0  0  0  0  0  0  0  0  0  0  0
   38.0930   29.7900   53.1030 H   0  0  0  0  0  0  0  0  0  0  0  0
   36.9670   30.6380   51.4110 N   0  0  0  0  0  0  0  0  0  0  0  0
  1  4  1  6  0  0  0
  1  3  1  0  0  0  0
  1  2  1  0  0  0  0
  1 27  1  0  0  0  0
  2  5  1  0  0  0  0
  3  2  1  0  0  0  0
  3  7  1  1  0  0  0
  6  2  1  0  0  0  0
  8  3  1  0  0  0  0
  9  8  1  0  0  0  0
  9 18  1  0  0  0  0
 10  9  2  0  0  0  0
 11 12  2  0  0  0  0
 11 10  1  0  0  0  0
 12 17  1  0  0  0  0
 13 14  2  0  0  0  0
 13 12  1  0  0  0  0
 14 15  1  0  0  0  0
 15 23  1  0  0  0  0
 15 16  2  0  0  0  0
 16 24  1  0  0  0  0
 17 16  1  0  0  0  0
 17  8  2  0  0  0  0
 19 10  1  0  0  0  0
 20 11  1  0  0  0  0
 21 13  1  0  0  0  0
 22 14  1  0  0  0  0
 25 30  1  0  0  0  0
 26 27  1  0  0  0  0
 26 25  2  0  0  0  0
 27 28  2  0  0  0  0
 28 29  1  0  0  0  0
 29 33  1  0  0  0  0
 30 29  2  0  0  0  0
 31 25  1  0  0  0  0
 32 26  1  0  0  0  0
 33 34  1  0  0  0  0
 33 36  1  0  0  0  0
 33 35  1  0  0  0  0
 36 38  1  0  0  0  0
 36 39  1  0  0  0  0
 37 36  1  0  0  0  0
 39 46  1  0  0  0  0
 40 39  2  0  0  0  0
 40 42  1  0  0  0  0
 41 40  1  0  0  0  0
 42 43  1  0  0  0  0
 42 44  1  0  0  0  0
 44 45  1  0  0  0  0
 46 44  2  0  0  0  0
M  END
>  <minimizedAffinity>
-4.94212198

>  <minimizedRMSD>
3.16892552

$$$$
