
 OpenBabel03272509303D

 37 39  0  0  1  0  0  0  0  0999 V2000
   36.2950   30.7000   48.9850 C   0  0  2  0  0  0  0  0  0  0  0  0
   37.2650   31.5770   49.7150 C   0  0  0  0  0  0  0  0  0  0  0  0
   38.1610   30.8070   50.6620 C   0  0  0  0  0  0  0  0  0  0  0  0
   37.3100   30.0330   51.6690 C   0  0  0  0  0  0  0  0  0  0  0  0
   36.0620   29.4320   51.0800 C   0  0  0  0  0  0  0  0  0  0  0  0
   36.2430   29.3210   49.5540 C   0  0  1  0  0  0  0  0  0  0  0  0
   35.2340   31.1100   48.9890 H   0  0  0  0  0  0  0  0  0  0  0  0
   36.6110   32.1900   50.4240 H   0  0  0  0  0  0  0  0  0  0  0  0
   37.7970   32.3140   49.1410 H   0  0  0  0  0  0  0  0  0  0  0  0
   38.8160   30.0860   50.1480 H   0  0  0  0  0  0  0  0  0  0  0  0
   38.7200   31.5630   51.2440 H   0  0  0  0  0  0  0  0  0  0  0  0
   37.9540   29.2080   52.0690 H   0  0  0  0  0  0  0  0  0  0  0  0
   37.0090   30.7020   52.5090 H   0  0  0  0  0  0  0  0  0  0  0  0
   35.8390   28.4120   51.4620 H   0  0  0  0  0  0  0  0  0  0  0  0
   35.1670   30.0660   51.2210 H   0  0  0  0  0  0  0  0  0  0  0  0
   37.1980   28.8550   49.5150 H   0  0  0  0  0  0  0  0  0  0  0  0
   36.6430   30.6050   47.5420 C   0  0  0  0  0  0  0  0  0  0  0  0
   38.0100   30.7890   47.2310 C   0  0  0  0  0  0  0  0  0  0  0  0
   38.3520   30.6980   45.8780 C   0  0  0  0  0  0  0  0  0  0  0  0
   37.3710   30.4420   44.9500 N   0  0  0  0  0  0  0  0  0  0  0  0
   36.0550   30.2690   45.3100 C   0  0  0  0  0  0  0  0  0  0  0  0
   35.7150   30.3560   46.6110 N   0  0  0  0  0  0  0  0  0  0  0  0
   38.8520   30.9830   47.8620 H   0  0  0  0  0  0  0  0  0  0  0  0
   39.3530   30.8170   45.4940 H   0  0  0  0  0  0  0  0  0  0  0  0
   35.3700   30.0730   44.5060 H   0  0  0  0  0  0  0  0  0  0  0  0
   33.9400   28.3440   49.1100 C   0  0  0  0  0  0  0  0  0  0  0  0
   33.1490   29.0190   49.8320 O   0  0  0  0  0  0  0  0  0  0  0  0
   35.3450   28.4330   48.9110 N   0  0  0  0  0  0  0  0  0  0  0  0
   35.7050   27.7310   48.1870 H   0  0  0  0  0  0  0  0  0  0  0  0
   33.1620   27.3150   48.3950 C   0  0  0  0  0  0  0  0  0  0  0  0
   33.5920   26.3440   47.5230 C   0  0  0  0  0  0  0  0  0  0  0  0
   34.5950   26.1590   47.1980 H   0  0  0  0  0  0  0  0  0  0  0  0
   32.5580   25.5830   47.0720 N   0  0  0  0  0  0  0  0  0  0  0  0
   32.6200   24.7820   46.4030 H   0  0  0  0  0  0  0  0  0  0  0  0
   31.4630   26.0750   47.6640 C   0  0  0  0  0  0  0  0  0  0  0  0
   30.4670   25.6940   47.5210 H   0  0  0  0  0  0  0  0  0  0  0  0
   31.8210   27.1040   48.4500 N   0  0  0  0  0  0  0  0  0  0  0  0
  1  7  1  1  0  0  0
  1  6  1  0  0  0  0
  1  2  1  0  0  0  0
  2  8  1  0  0  0  0
  2  3  1  0  0  0  0
  3 11  1  0  0  0  0
  3  4  1  0  0  0  0
  4 12  1  0  0  0  0
  4 13  1  0  0  0  0
  5 15  1  0  0  0  0
  5 14  1  0  0  0  0
  5  4  1  0  0  0  0
  6 16  1  6  0  0  0
  6  5  1  0  0  0  0
  9  2  1  0  0  0  0
 10  3  1  0  0  0  0
 17  1  1  0  0  0  0
 18 17  1  0  0  0  0
 18 23  1  0  0  0  0
 19 18  2  0  0  0  0
 20 21  2  0  0  0  0
 20 19  1  0  0  0  0
 21 22  1  0  0  0  0
 22 17  2  0  0  0  0
 24 19  1  0  0  0  0
 25 21  1  0  0  0  0
 26 27  2  0  0  0  0
 28 26  1  0  0  0  0
 28  6  1  0  0  0  0
 29 28  1  0  0  0  0
 30 37  1  0  0  0  0
 30 26  1  0  0  0  0
 31 30  2  0  0  0  0
 32 31  1  0  0  0  0
 33 31  1  0  0  0  0
 33 35  1  0  0  0  0
 34 33  1  0  0  0  0
 35 37  2  0  0  0  0
 36 35  1  0  0  0  0
M  END
>  <minimizedAffinity>
-5.76291847

>  <minimizedRMSD>
0.452001393

$$$$
