
 OpenBabel03272504263D

 41 44  0  0  0  0  0  0  0  0999 V2000
   35.5900   29.6070   48.4890 C   0  0  0  0  0  0  0  0  0  0  0  0
   35.3530   28.7460   49.4980 C   0  0  0  0  0  0  0  0  0  0  0  0
   34.5010   27.7260   49.3590 C   0  0  0  0  0  0  0  0  0  0  0  0
   33.8620   27.5590   48.1690 N   0  0  0  0  0  0  0  0  0  0  0  0
   34.1000   28.4100   47.1790 C   0  0  0  0  0  0  0  0  0  0  0  0
   34.9570   29.4360   47.3170 N   0  0  0  0  0  0  0  0  0  0  0  0
   35.8830   28.9120   50.4340 H   0  0  0  0  0  0  0  0  0  0  0  0
   34.3120   27.0360   50.1750 H   0  0  0  0  0  0  0  0  0  0  0  0
   32.0170   27.8880   45.9900 C   0  0  0  0  0  0  0  0  0  0  0  0
   33.3900   28.1280   45.9530 C   0  0  0  0  0  0  0  0  0  0  0  0
   34.1520   28.0920   44.8010 C   0  0  0  0  0  0  0  0  0  0  0  0
   33.5370   27.8010   43.6020 C   0  0  0  0  0  0  0  0  0  0  0  0
   32.1840   27.5480   43.5440 C   0  0  0  0  0  0  0  0  0  0  0  0
   31.5210   27.6070   44.7250 C   0  0  0  0  0  0  0  0  0  0  0  0
   35.2150   28.2860   44.8200 H   0  0  0  0  0  0  0  0  0  0  0  0
   34.1500   27.7770   42.7090 H   0  0  0  0  0  0  0  0  0  0  0  0
   31.6880   27.3190   42.6230 H   0  0  0  0  0  0  0  0  0  0  0  0
   30.4400   27.4050   44.6700 H   0  0  0  0  0  0  0  0  0  0  0  0
   31.0630   27.9460   47.3570 S   0  0  0  0  0  0  0  0  0  0  0  0
   30.2110   26.6720   47.0420 O   0  0  0  0  0  0  0  0  0  0  0  0
   30.1750   29.1570   47.2290 O   0  0  0  0  0  0  0  0  0  0  0  0
   30.7970   27.6720   48.9080 C   0  0  0  0  0  0  0  0  0  0  0  0
   30.2980   26.4680   49.4450 F   0  0  0  0  0  0  0  0  0  0  0  0
   29.5560   28.3540   49.3220 F   0  0  0  0  0  0  0  0  0  0  0  0
   31.4470   28.4330   49.9230 F   0  0  0  0  0  0  0  0  0  0  0  0
   37.3540   32.5940   49.6830 C   0  0  0  0  0  0  0  0  0  0  0  0
   38.3560   32.7690   48.7080 C   0  0  0  0  0  0  0  0  0  0  0  0
   38.3960   31.8470   47.6580 C   0  0  0  0  0  0  0  0  0  0  0  0
   37.4720   30.8550   47.6520 N   0  0  0  0  0  0  0  0  0  0  0  0
   36.5160   30.7170   48.6140 C   0  0  0  0  0  0  0  0  0  0  0  0
   36.4670   31.5900   49.6240 N   0  0  0  0  0  0  0  0  0  0  0  0
   37.3270   33.3120   50.4990 H   0  0  0  0  0  0  0  0  0  0  0  0
   39.0800   33.5670   48.7340 H   0  0  0  0  0  0  0  0  0  0  0  0
   39.3740   31.9090   46.5880 C   0  0  0  0  0  0  0  0  0  0  0  0
   39.9180   33.0800   46.0730 C   0  0  0  0  0  0  0  0  0  0  0  0
   39.7470   34.1070   46.3320 H   0  0  0  0  0  0  0  0  0  0  0  0
   40.7870   32.7550   45.0950 N   0  0  0  0  0  0  0  0  0  0  0  0
   41.4150   33.2750   44.4420 H   0  0  0  0  0  0  0  0  0  0  0  0
   40.8060   31.3960   44.9790 C   0  0  0  0  0  0  0  0  0  0  0  0
   41.2920   30.6240   44.3910 H   0  0  0  0  0  0  0  0  0  0  0  0
   39.9440   30.9130   45.8920 N   0  0  0  0  0  0  0  0  0  0  0  0
  1 30  1  0  0  0  0
  1  2  1  0  0  0  0
  2  7  1  0  0  0  0
  3  2  2  0  0  0  0
  3  8  1  0  0  0  0
  4  3  1  0  0  0  0
  5  6  1  0  0  0  0
  5  4  2  0  0  0  0
  6  1  2  0  0  0  0
  9 19  1  0  0  0  0
 10  9  1  0  0  0  0
 10  5  1  0  0  0  0
 11 15  1  0  0  0  0
 11 10  2  0  0  0  0
 12 11  1  0  0  0  0
 13 12  2  0  0  0  0
 13 14  1  0  0  0  0
 14  9  2  0  0  0  0
 16 12  1  0  0  0  0
 17 13  1  0  0  0  0
 18 14  1  0  0  0  0
 19 22  1  0  0  0  0
 20 19  2  0  0  0  0
 21 19  2  0  0  0  0
 22 24  1  0  0  0  0
 22 23  1  0  0  0  0
 22 25  1  0  0  0  0
 26 32  1  0  0  0  0
 27 33  1  0  0  0  0
 27 26  2  0  0  0  0
 28 27  1  0  0  0  0
 29 28  2  0  0  0  0
 29 30  1  0  0  0  0
 30 31  2  0  0  0  0
 31 26  1  0  0  0  0
 34 28  1  0  0  0  0
 35 36  1  0  0  0  0
 35 34  2  0  0  0  0
 37 35  1  0  0  0  0
 38 37  1  0  0  0  0
 39 37  1  0  0  0  0
 39 41  2  0  0  0  0
 40 39  1  0  0  0  0
 41 34  1  0  0  0  0
M  END
>  <minimizedAffinity>
-6.40119314

>  <minimizedRMSD>
0.526301622

$$$$
