
 OpenBabel03272510073D

 43 47  0  0  0  0  0  0  0  0999 V2000
   35.2470   30.1910   47.6830 C   0  0  0  0  0  0  0  0  0  0  0  0
   35.1760   30.3690   49.0290 N   0  0  0  0  0  0  0  0  0  0  0  0
   36.2040   30.9360   49.6780 C   0  0  0  0  0  0  0  0  0  0  0  0
   37.3520   31.3630   49.0850 N   0  0  0  0  0  0  0  0  0  0  0  0
   37.4600   31.2030   47.7490 C   0  0  0  0  0  0  0  0  0  0  0  0
   38.5700   31.6330   47.0420 C   0  0  0  0  0  0  0  0  0  0  0  0
   38.6300   31.4830   45.6580 C   0  0  0  0  0  0  0  0  0  0  0  0
   37.5580   30.8900   44.9910 C   0  0  0  0  0  0  0  0  0  0  0  0
   36.4670   30.4720   45.7290 C   0  0  0  0  0  0  0  0  0  0  0  0
   36.4020   30.6190   47.0820 C   0  0  0  0  0  0  0  0  0  0  0  0
   36.1730   31.0900   50.7540 H   0  0  0  0  0  0  0  0  0  0  0  0
   39.3550   32.0790   47.6350 H   0  0  0  0  0  0  0  0  0  0  0  0
   39.5330   31.8550   45.2360 H   0  0  0  0  0  0  0  0  0  0  0  0
   37.7930   30.8660   43.9470 H   0  0  0  0  0  0  0  0  0  0  0  0
   33.8420   28.2470   46.8300 C   0  0  0  0  0  0  0  0  0  0  0  0
   34.0970   29.6120   47.0820 C   0  0  0  0  0  0  0  0  0  0  0  0
   33.1130   30.5700   46.6910 C   0  0  0  0  0  0  0  0  0  0  0  0
   31.9730   30.1460   46.0880 N   0  0  0  0  0  0  0  0  0  0  0  0
   31.7900   28.8110   45.8690 C   0  0  0  0  0  0  0  0  0  0  0  0
   32.6910   27.8870   46.2280 N   0  0  0  0  0  0  0  0  0  0  0  0
   30.5690   28.4160   45.2020 N   0  0  0  0  0  0  0  0  0  0  0  0
   29.2530   28.6450   45.7290 C   0  0  0  0  0  0  0  0  0  0  0  0
   28.3290   28.3210   44.5950 C   0  0  0  0  0  0  0  0  0  0  0  0
   29.1960   28.1250   43.3620 C   0  0  0  0  0  0  0  0  0  0  0  0
   30.5080   27.7310   43.8990 C   0  0  0  0  0  0  0  0  0  0  0  0
   34.6200   27.5850   47.1530 H   0  0  0  0  0  0  0  0  0  0  0  0
   33.2150   31.6170   46.8430 H   0  0  0  0  0  0  0  0  0  0  0  0
   29.0790   29.6900   46.0700 H   0  0  0  0  0  0  0  0  0  0  0  0
   29.0850   27.9790   46.6190 H   0  0  0  0  0  0  0  0  0  0  0  0
   27.6180   29.1630   44.4350 H   0  0  0  0  0  0  0  0  0  0  0  0
   27.7440   27.4310   44.8570 H   0  0  0  0  0  0  0  0  0  0  0  0
   28.6790   27.3420   42.7340 H   0  0  0  0  0  0  0  0  0  0  0  0
   29.1930   29.0450   42.7610 H   0  0  0  0  0  0  0  0  0  0  0  0
   30.6240   26.6500   44.0380 H   0  0  0  0  0  0  0  0  0  0  0  0
   31.3290   28.1070   43.2220 H   0  0  0  0  0  0  0  0  0  0  0  0
   35.5580   29.9220   44.7230 C   0  0  0  0  0  0  0  0  0  0  0  0
   35.3620   28.6820   44.1480 C   0  0  0  0  0  0  0  0  0  0  0  0
   35.9320   27.8190   44.4920 H   0  0  0  0  0  0  0  0  0  0  0  0
   34.4680   28.6580   43.1610 N   0  0  0  0  0  0  0  0  0  0  0  0
   34.2000   27.8090   42.6210 H   0  0  0  0  0  0  0  0  0  0  0  0
   34.0770   29.9360   43.1000 C   0  0  0  0  0  0  0  0  0  0  0  0
   33.3320   30.3120   42.3920 H   0  0  0  0  0  0  0  0  0  0  0  0
   34.6940   30.7110   44.0010 N   0  0  0  0  0  0  0  0  0  0  0  0
  1  2  1  0  0  0  0
  2  3  2  0  0  0  0
  3 11  1  0  0  0  0
  4  3  1  0  0  0  0
  5  4  2  0  0  0  0
  6 12  1  0  0  0  0
  6  5  1  0  0  0  0
  7  6  2  0  0  0  0
  8  7  1  0  0  0  0
  8  9  2  0  0  0  0
  9 10  1  0  0  0  0
 10  1  2  0  0  0  0
 10  5  1  0  0  0  0
 13  7  1  0  0  0  0
 14  8  1  0  0  0  0
 15 16  1  0  0  0  0
 15 26  1  0  0  0  0
 16  1  1  0  0  0  0
 17 27  1  0  0  0  0
 17 16  2  0  0  0  0
 18 17  1  0  0  0  0
 19 18  2  0  0  0  0
 19 20  1  0  0  0  0
 20 15  2  0  0  0  0
 21 22  1  0  0  0  0
 21 19  1  0  0  0  0
 22 28  1  0  0  0  0
 22 29  1  0  0  0  0
 23 31  1  0  0  0  0
 23 22  1  0  0  0  0
 24 25  1  0  0  0  0
 24 23  1  0  0  0  0
 25 34  1  0  0  0  0
 25 21  1  0  0  0  0
 30 23  1  0  0  0  0
 32 24  1  0  0  0  0
 33 24  1  0  0  0  0
 35 25  1  0  0  0  0
 36  9  1  0  0  0  0
 37 38  1  0  0  0  0
 37 36  2  0  0  0  0
 39 37  1  0  0  0  0
 40 39  1  0  0  0  0
 41 39  1  0  0  0  0
 41 43  2  0  0  0  0
 42 41  1  0  0  0  0
 43 36  1  0  0  0  0
M  END
>  <minimizedAffinity>
-4.79260492

>  <minimizedRMSD>
3.00776935

$$$$
