
 OpenBabel03272509353D

 46 50  0  0  1  0  0  0  0  0999 V2000
   35.0070   27.9510   43.1350 C   0  0  1  0  0  0  0  0  0  0  0  0
   34.3190   28.6050   41.9930 C   0  0  0  0  0  0  0  0  0  0  0  0
   34.3960   29.4210   43.1870 C   0  0  2  0  0  0  0  0  0  0  0  0
   36.0770   27.9300   43.2860 H   0  0  0  0  0  0  0  0  0  0  0  0
   33.2880   28.1890   41.7720 H   0  0  0  0  0  0  0  0  0  0  0  0
   34.9350   28.5550   41.1050 H   0  0  0  0  0  0  0  0  0  0  0  0
   33.7630   29.4790   44.0630 H   0  0  0  0  0  0  0  0  0  0  0  0
   35.3700   30.5510   43.0040 C   0  0  0  0  0  0  0  0  0  0  0  0
   35.1580   31.1880   41.7840 C   0  0  0  0  0  0  0  0  0  0  0  0
   35.8670   32.3140   41.4600 C   0  0  0  0  0  0  0  0  0  0  0  0
   36.8150   32.8470   42.3430 C   0  0  0  0  0  0  0  0  0  0  0  0
   37.0040   32.1920   43.5530 C   0  0  0  0  0  0  0  0  0  0  0  0
   37.9040   32.6080   44.4930 C   0  0  0  0  0  0  0  0  0  0  0  0
   38.1100   31.9660   45.6860 C   0  0  0  0  0  0  0  0  0  0  0  0
   37.3620   30.8270   45.9590 C   0  0  0  0  0  0  0  0  0  0  0  0
   36.4530   30.4030   45.0180 C   0  0  0  0  0  0  0  0  0  0  0  0
   36.2810   31.0860   43.8260 C   0  0  0  0  0  0  0  0  0  0  0  0
   34.5230   31.0470   40.9330 H   0  0  0  0  0  0  0  0  0  0  0  0
   35.8420   32.9340   40.5760 H   0  0  0  0  0  0  0  0  0  0  0  0
   37.4440   33.7280   42.2190 H   0  0  0  0  0  0  0  0  0  0  0  0
   38.5070   33.4890   44.3220 H   0  0  0  0  0  0  0  0  0  0  0  0
   38.8180   32.2950   46.4230 H   0  0  0  0  0  0  0  0  0  0  0  0
   37.4610   30.2620   46.8730 H   0  0  0  0  0  0  0  0  0  0  0  0
   35.8660   29.4960   45.2480 H   0  0  0  0  0  0  0  0  0  0  0  0
   32.5970   25.2260   44.1360 C   0  0  0  0  0  0  0  0  0  0  0  0
   33.3570   26.1230   43.3320 C   0  0  0  0  0  0  0  0  0  0  0  0
   34.2070   26.9950   43.9460 C   0  0  0  0  0  0  0  0  0  0  0  0
   34.2600   26.9330   45.3240 N   0  0  0  0  0  0  0  0  0  0  0  0
   33.5420   26.0870   46.0630 C   0  0  0  0  0  0  0  0  0  0  0  0
   32.6980   25.2190   45.4890 N   0  0  0  0  0  0  0  0  0  0  0  0
   31.9320   24.5470   43.6150 H   0  0  0  0  0  0  0  0  0  0  0  0
   33.2200   26.0670   42.2560 H   0  0  0  0  0  0  0  0  0  0  0  0
   33.7160   26.1540   47.5660 C   0  0  0  0  0  0  0  0  0  0  0  0
   33.0220   25.3690   47.9640 H   0  0  0  0  0  0  0  0  0  0  0  0
   34.7590   26.0090   47.8510 H   0  0  0  0  0  0  0  0  0  0  0  0
   33.1550   27.5040   48.0190 C   0  0  0  0  0  0  0  0  0  0  0  0
   33.5260   27.7000   49.0450 H   0  0  0  0  0  0  0  0  0  0  0  0
   33.6240   28.2530   47.3310 H   0  0  0  0  0  0  0  0  0  0  0  0
   31.6910   27.5460   47.9360 C   0  0  0  0  0  0  0  0  0  0  0  0
   30.7580   26.7320   48.5860 C   0  0  0  0  0  0  0  0  0  0  0  0
   30.9730   25.9260   49.2650 H   0  0  0  0  0  0  0  0  0  0  0  0
   29.5690   27.1910   48.1650 N   0  0  0  0  0  0  0  0  0  0  0  0
   28.6780   26.7360   48.5160 H   0  0  0  0  0  0  0  0  0  0  0  0
   29.6710   28.2190   47.3110 C   0  0  0  0  0  0  0  0  0  0  0  0
   28.8380   28.7410   46.8490 H   0  0  0  0  0  0  0  0  0  0  0  0
   30.9880   28.4100   47.1930 N   0  0  0  0  0  0  0  0  0  0  0  0
  1  3  1  0  0  0  0
  1  4  1  6  0  0  0
  1 27  1  0  0  0  0
  2  1  1  0  0  0  0
  2  3  1  0  0  0  0
  3  7  1  1  0  0  0
  5  2  1  0  0  0  0
  6  2  1  0  0  0  0
  8  3  1  0  0  0  0
  8 17  1  0  0  0  0
  9  8  2  0  0  0  0
 10  9  1  0  0  0  0
 10 11  2  0  0  0  0
 11 12  1  0  0  0  0
 12 17  2  0  0  0  0
 12 13  1  0  0  0  0
 13 14  2  0  0  0  0
 14 15  1  0  0  0  0
 14 22  1  0  0  0  0
 15 23  1  0  0  0  0
 16 24  1  0  0  0  0
 16 15  2  0  0  0  0
 17 16  1  0  0  0  0
 18  9  1  0  0  0  0
 19 10  1  0  0  0  0
 20 11  1  0  0  0  0
 21 13  1  0  0  0  0
 25 30  1  0  0  0  0
 26 27  1  0  0  0  0
 26 25  2  0  0  0  0
 27 28  2  0  0  0  0
 28 29  1  0  0  0  0
 29 33  1  0  0  0  0
 30 29  2  0  0  0  0
 31 25  1  0  0  0  0
 32 26  1  0  0  0  0
 33 35  1  0  0  0  0
 33 34  1  0  0  0  0
 33 36  1  0  0  0  0
 36 37  1  0  0  0  0
 38 36  1  0  0  0  0
 39 36  1  0  0  0  0
 39 40  2  0  0  0  0
 40 41  1  0  0  0  0
 42 43  1  0  0  0  0
 42 40  1  0  0  0  0
 44 42  1  0  0  0  0
 45 44  1  0  0  0  0
 46 44  2  0  0  0  0
 46 39  1  0  0  0  0
M  END
>  <minimizedAffinity>
-3.55494928

>  <minimizedRMSD>
6.62967539

$$$$
