
 OpenBabel03272508293D

 31 33  0  0  1  0  0  0  0  0999 V2000
   36.6290   30.4360   46.8710 N   0  0  0  0  0  0  0  0  0  0  0  0
   35.7070   30.2220   45.7590 C   0  0  0  0  0  0  0  0  0  0  0  0
   36.3470   30.3950   44.4310 C   0  0  0  0  0  0  0  0  0  0  0  0
   37.7540   30.0900   44.5380 N   0  0  0  0  0  0  0  0  0  0  0  0
   38.3080   31.2360   45.2890 C   0  0  0  0  0  0  0  0  0  0  0  0
   37.9800   30.9440   46.7200 C   0  0  1  0  0  0  0  0  0  0  0  0
   34.7650   30.7800   45.8700 H   0  0  0  0  0  0  0  0  0  0  0  0
   35.3890   29.1420   45.8570 H   0  0  0  0  0  0  0  0  0  0  0  0
   35.8710   29.7150   43.6770 H   0  0  0  0  0  0  0  0  0  0  0  0
   36.2670   31.4630   44.1390 H   0  0  0  0  0  0  0  0  0  0  0  0
   38.1590   30.1400   43.6000 H   0  0  0  0  0  0  0  0  0  0  0  0
   39.4230   31.2470   45.2010 H   0  0  0  0  0  0  0  0  0  0  0  0
   37.8710   32.1960   44.9290 H   0  0  0  0  0  0  0  0  0  0  0  0
   38.6270   30.0740   47.0070 H   0  0  0  0  0  0  0  0  0  0  0  0
   37.0060   29.4510   49.0860 C   0  0  0  0  0  0  0  0  0  0  0  0
   36.1640   30.1240   48.1730 C   0  0  0  0  0  0  0  0  0  0  0  0
   34.8900   30.4550   48.6060 C   0  0  0  0  0  0  0  0  0  0  0  0
   34.5150   30.1170   49.8770 N   0  0  0  0  0  0  0  0  0  0  0  0
   35.3520   29.4750   50.7130 C   0  0  0  0  0  0  0  0  0  0  0  0
   36.5960   29.1330   50.3440 N   0  0  0  0  0  0  0  0  0  0  0  0
   38.0010   29.1750   48.7990 H   0  0  0  0  0  0  0  0  0  0  0  0
   34.2070   30.9730   47.9340 H   0  0  0  0  0  0  0  0  0  0  0  0
   34.9700   29.2520   51.6970 H   0  0  0  0  0  0  0  0  0  0  0  0
   38.2920   32.0670   47.6270 C   0  0  0  0  0  0  0  0  0  0  0  0
   39.2960   33.0120   47.5470 C   0  0  0  0  0  0  0  0  0  0  0  0
   40.0310   33.0670   46.7730 H   0  0  0  0  0  0  0  0  0  0  0  0
   39.2010   33.8550   48.6040 N   0  0  0  0  0  0  0  0  0  0  0  0
   39.7840   34.6780   48.8650 H   0  0  0  0  0  0  0  0  0  0  0  0
   38.1480   33.4460   49.3410 C   0  0  0  0  0  0  0  0  0  0  0  0
   37.7070   33.8120   50.2550 H   0  0  0  0  0  0  0  0  0  0  0  0
   37.6090   32.3860   48.7630 N   0  0  0  0  0  0  0  0  0  0  0  0
  1 16  1  0  0  0  0
  2  8  1  0  0  0  0
  2  7  1  0  0  0  0
  2  1  1  0  0  0  0
  3  4  1  0  0  0  0
  3  2  1  0  0  0  0
  4  5  1  0  0  0  0
  5  6  1  0  0  0  0
  6  1  1  0  0  0  0
  6 14  1  1  0  0  0
  6 24  1  0  0  0  0
  9  3  1  0  0  0  0
 10  3  1  0  0  0  0
 11  4  1  0  0  0  0
 12  5  1  0  0  0  0
 13  5  1  0  0  0  0
 15 20  1  0  0  0  0
 16 17  1  0  0  0  0
 16 15  2  0  0  0  0
 17 18  2  0  0  0  0
 18 19  1  0  0  0  0
 19 23  1  0  0  0  0
 20 19  2  0  0  0  0
 21 15  1  0  0  0  0
 22 17  1  0  0  0  0
 24 31  1  0  0  0  0
 25 24  2  0  0  0  0
 25 27  1  0  0  0  0
 26 25  1  0  0  0  0
 27 28  1  0  0  0  0
 27 29  1  0  0  0  0
 29 30  1  0  0  0  0
 31 29  2  0  0  0  0
M  END
>  <minimizedAffinity>
-4.74592113

>  <minimizedRMSD>
2.40402937

$$$$
