
 OpenBabel03272508503D

 39 43  0  0  0  0  0  0  0  0999 V2000
   37.1170   27.5770   32.7780 C   0  0  0  0  0  0  0  0  0  0  0  0
   36.2970   27.8610   31.6990 C   0  0  0  0  0  0  0  0  0  0  0  0
   35.3520   28.7340   32.2390 C   0  0  0  0  0  0  0  0  0  0  0  0
   35.6250   28.9350   33.5630 C   0  0  0  0  0  0  0  0  0  0  0  0
   36.6900   28.2280   33.8590 O   0  0  0  0  0  0  0  0  0  0  0  0
   36.3390   27.5160   30.6780 H   0  0  0  0  0  0  0  0  0  0  0  0
   34.5400   29.1650   31.6620 H   0  0  0  0  0  0  0  0  0  0  0  0
   33.5360   29.5660   34.6780 C   0  0  0  0  0  0  0  0  0  0  0  0
   34.8900   29.7750   34.5070 C   0  0  0  0  0  0  0  0  0  0  0  0
   35.5740   30.7580   35.2030 C   0  0  0  0  0  0  0  0  0  0  0  0
   34.8920   31.5650   36.1030 C   0  0  0  0  0  0  0  0  0  0  0  0
   35.2570   32.5870   36.9170 N   0  0  0  0  0  0  0  0  0  0  0  0
   34.1510   32.9760   37.5570 N   0  0  0  0  0  0  0  0  0  0  0  0
   33.1080   32.2300   37.1680 C   0  0  0  0  0  0  0  0  0  0  0  0
   33.5510   31.3190   36.2380 C   0  0  0  0  0  0  0  0  0  0  0  0
   32.8100   30.3560   35.5750 C   0  0  0  0  0  0  0  0  0  0  0  0
   32.9800   28.8020   34.1440 H   0  0  0  0  0  0  0  0  0  0  0  0
   36.6300   30.9050   35.0540 H   0  0  0  0  0  0  0  0  0  0  0  0
   36.2150   32.9700   37.0050 H   0  0  0  0  0  0  0  0  0  0  0  0
   32.1330   32.4140   37.5890 H   0  0  0  0  0  0  0  0  0  0  0  0
   31.7630   30.2390   35.7480 H   0  0  0  0  0  0  0  0  0  0  0  0
   38.2680   26.6960   32.7200 C   0  0  0  0  0  0  0  0  0  0  0  0
   39.3230   27.1260   32.2020 O   0  0  0  0  0  0  0  0  0  0  0  0
   37.6540   23.1050   32.8730 C   0  0  0  0  0  0  0  0  0  0  0  0
   37.9650   22.7770   34.1930 C   0  0  0  0  0  0  0  0  0  0  0  0
   38.3820   23.7820   35.0260 C   0  0  0  0  0  0  0  0  0  0  0  0
   38.4800   25.0360   34.5560 N   0  0  0  0  0  0  0  0  0  0  0  0
   38.1720   25.3440   33.2590 C   0  0  0  0  0  0  0  0  0  0  0  0
   37.7630   24.3570   32.4430 N   0  0  0  0  0  0  0  0  0  0  0  0
   37.3280   22.3450   32.2020 H   0  0  0  0  0  0  0  0  0  0  0  0
   37.8750   21.7610   34.5350 H   0  0  0  0  0  0  0  0  0  0  0  0
   38.7090   23.4490   36.4100 C   0  0  0  0  0  0  0  0  0  0  0  0
   39.7130   22.6490   36.9090 C   0  0  0  0  0  0  0  0  0  0  0  0
   40.4470   22.1220   36.3160 H   0  0  0  0  0  0  0  0  0  0  0  0
   39.6190   22.6410   38.2660 N   0  0  0  0  0  0  0  0  0  0  0  0
   40.2950   22.0880   38.8710 H   0  0  0  0  0  0  0  0  0  0  0  0
   38.5640   23.4310   38.6150 C   0  0  0  0  0  0  0  0  0  0  0  0
   38.3470   23.5340   39.6700 H   0  0  0  0  0  0  0  0  0  0  0  0
   38.0370   23.9010   37.4780 N   0  0  0  0  0  0  0  0  0  0  0  0
  1  5  1  0  0  0  0
  2  3  1  0  0  0  0
  2  1  2  0  0  0  0
  3  4  2  0  0  0  0
  4  5  1  0  0  0  0
  4  9  1  0  0  0  0
  6  2  1  0  0  0  0
  7  3  1  0  0  0  0
  8 16  1  0  0  0  0
  9  8  2  0  0  0  0
  9 10  1  0  0  0  0
 10 11  2  0  0  0  0
 11 15  1  0  0  0  0
 11 12  1  0  0  0  0
 12 19  1  0  0  0  0
 12 13  1  0  0  0  0
 14 13  2  0  0  0  0
 14 20  1  0  0  0  0
 15 14  1  0  0  0  0
 16 21  1  0  0  0  0
 16 15  2  0  0  0  0
 17  8  1  0  0  0  0
 18 10  1  0  0  0  0
 22  1  1  0  0  0  0
 22 28  1  0  0  0  0
 23 22  2  0  0  0  0
 24 25  1  0  0  0  0
 25 31  1  0  0  0  0
 25 26  2  0  0  0  0
 26 32  1  0  0  0  0
 27 26  1  0  0  0  0
 28 27  2  0  0  0  0
 29 24  2  0  0  0  0
 29 28  1  0  0  0  0
 30 24  1  0  0  0  0
 32 33  2  0  0  0  0
 32 39  1  0  0  0  0
 33 35  1  0  0  0  0
 34 33  1  0  0  0  0
 35 37  1  0  0  0  0
 35 36  1  0  0  0  0
 37 38  1  0  0  0  0
 39 37  2  0  0  0  0
M  END
>  <minimizedAffinity>
-6.86413622

$$$$

 OpenBabel03272508503D

 39 43  0  0  0  0  0  0  0  0999 V2000
   36.9340   27.3810   32.5000 C   0  0  0  0  0  0  0  0  0  0  0  0
   36.9670   28.3870   31.5500 C   0  0  0  0  0  0  0  0  0  0  0  0
   36.2520   29.4200   32.1560 C   0  0  0  0  0  0  0  0  0  0  0  0
   35.8320   29.0170   33.3920 C   0  0  0  0  0  0  0  0  0  0  0  0
   36.2560   27.7870   33.5710 O   0  0  0  0  0  0  0  0  0  0  0  0
   37.4210   28.4110   30.5720 H   0  0  0  0  0  0  0  0  0  0  0  0
   36.0770   30.3810   31.6820 H   0  0  0  0  0  0  0  0  0  0  0  0
   33.7070   29.5150   34.5060 C   0  0  0  0  0  0  0  0  0  0  0  0
   35.0540   29.7830   34.3620 C   0  0  0  0  0  0  0  0  0  0  0  0
   35.6900   30.7590   35.1130 C   0  0  0  0  0  0  0  0  0  0  0  0
   34.9670   31.4970   36.0390 C   0  0  0  0  0  0  0  0  0  0  0  0
   35.2810   32.4920   36.9030 N   0  0  0  0  0  0  0  0  0  0  0  0
   34.1530   32.8090   37.5460 N   0  0  0  0  0  0  0  0  0  0  0  0
   33.1450   32.0420   37.1080 C   0  0  0  0  0  0  0  0  0  0  0  0
   33.6350   31.1930   36.1440 C   0  0  0  0  0  0  0  0  0  0  0  0
   32.9400   30.2340   35.4280 C   0  0  0  0  0  0  0  0  0  0  0  0
   33.1870   28.7550   33.9290 H   0  0  0  0  0  0  0  0  0  0  0  0
   36.7420   30.9530   34.9850 H   0  0  0  0  0  0  0  0  0  0  0  0
   36.2230   32.9080   37.0220 H   0  0  0  0  0  0  0  0  0  0  0  0
   32.1590   32.1680   37.5240 H   0  0  0  0  0  0  0  0  0  0  0  0
   31.8960   30.0680   35.5800 H   0  0  0  0  0  0  0  0  0  0  0  0
   37.5520   26.0780   32.3330 C   0  0  0  0  0  0  0  0  0  0  0  0
   37.1800   25.3580   31.3810 O   0  0  0  0  0  0  0  0  0  0  0  0
   40.8570   25.4890   33.7580 C   0  0  0  0  0  0  0  0  0  0  0  0
   40.5820   24.8550   34.9690 C   0  0  0  0  0  0  0  0  0  0  0  0
   39.2700   24.6300   35.2960 C   0  0  0  0  0  0  0  0  0  0  0  0
   38.3000   25.0210   34.4540 N   0  0  0  0  0  0  0  0  0  0  0  0
   38.5840   25.6420   33.2690 C   0  0  0  0  0  0  0  0  0  0  0  0
   39.8710   25.8630   32.9490 N   0  0  0  0  0  0  0  0  0  0  0  0
   41.8660   25.6790   33.4770 H   0  0  0  0  0  0  0  0  0  0  0  0
   41.3850   24.5550   35.6200 H   0  0  0  0  0  0  0  0  0  0  0  0
   38.9710   23.9660   36.5620 C   0  0  0  0  0  0  0  0  0  0  0  0
   39.6500   22.9560   37.2080 C   0  0  0  0  0  0  0  0  0  0  0  0
   40.5530   22.4820   36.8520 H   0  0  0  0  0  0  0  0  0  0  0  0
   38.9890   22.6670   38.3620 N   0  0  0  0  0  0  0  0  0  0  0  0
   39.3310   21.9140   39.0290 H   0  0  0  0  0  0  0  0  0  0  0  0
   37.9040   23.4900   38.4370 C   0  0  0  0  0  0  0  0  0  0  0  0
   37.2630   23.3880   39.3020 H   0  0  0  0  0  0  0  0  0  0  0  0
   37.9200   24.2580   37.3410 N   0  0  0  0  0  0  0  0  0  0  0  0
  1  5  1  0  0  0  0
  2  3  1  0  0  0  0
  2  1  2  0  0  0  0
  3  4  2  0  0  0  0
  4  5  1  0  0  0  0
  4  9  1  0  0  0  0
  6  2  1  0  0  0  0
  7  3  1  0  0  0  0
  8 16  1  0  0  0  0
  9  8  2  0  0  0  0
  9 10  1  0  0  0  0
 10 11  2  0  0  0  0
 11 15  1  0  0  0  0
 11 12  1  0  0  0  0
 12 19  1  0  0  0  0
 12 13  1  0  0  0  0
 14 20  1  0  0  0  0
 14 13  2  0  0  0  0
 15 14  1  0  0  0  0
 16 21  1  0  0  0  0
 16 15  2  0  0  0  0
 17  8  1  0  0  0  0
 18 10  1  0  0  0  0
 22  1  1  0  0  0  0
 22 28  1  0  0  0  0
 23 22  2  0  0  0  0
 24 25  1  0  0  0  0
 25 26  2  0  0  0  0
 25 31  1  0  0  0  0
 26 32  1  0  0  0  0
 27 26  1  0  0  0  0
 28 27  2  0  0  0  0
 29 28  1  0  0  0  0
 29 24  2  0  0  0  0
 30 24  1  0  0  0  0
 32 33  2  0  0  0  0
 32 39  1  0  0  0  0
 33 35  1  0  0  0  0
 34 33  1  0  0  0  0
 35 37  1  0  0  0  0
 35 36  1  0  0  0  0
 37 38  1  0  0  0  0
 39 37  2  0  0  0  0
M  END
>  <minimizedAffinity>
-6.72516632

$$$$

 OpenBabel03272508503D

 39 43  0  0  0  0  0  0  0  0999 V2000
   36.4630   26.2140   31.8760 C   0  0  0  0  0  0  0  0  0  0  0  0
   35.2650   26.1890   31.1830 C   0  0  0  0  0  0  0  0  0  0  0  0
   35.0680   24.8300   30.9380 C   0  0  0  0  0  0  0  0  0  0  0  0
   36.1070   24.1180   31.4680 C   0  0  0  0  0  0  0  0  0  0  0  0
   36.9300   24.9760   32.0250 O   0  0  0  0  0  0  0  0  0  0  0  0
   34.6120   26.9930   30.8840 H   0  0  0  0  0  0  0  0  0  0  0  0
   34.2070   24.4390   30.4040 H   0  0  0  0  0  0  0  0  0  0  0  0
   37.5420   22.1650   31.1010 C   0  0  0  0  0  0  0  0  0  0  0  0
   36.3020   22.6700   31.4400 C   0  0  0  0  0  0  0  0  0  0  0  0
   35.2350   21.8430   31.7550 C   0  0  0  0  0  0  0  0  0  0  0  0
   35.4020   20.4660   31.7340 C   0  0  0  0  0  0  0  0  0  0  0  0
   34.5830   19.4140   31.9830 N   0  0  0  0  0  0  0  0  0  0  0  0
   35.3160   18.3110   31.7980 N   0  0  0  0  0  0  0  0  0  0  0  0
   36.5640   18.6430   31.4420 C   0  0  0  0  0  0  0  0  0  0  0  0
   36.6490   20.0140   31.3920 C   0  0  0  0  0  0  0  0  0  0  0  0
   37.7540   20.7830   31.0680 C   0  0  0  0  0  0  0  0  0  0  0  0
   38.3910   22.7930   30.8510 H   0  0  0  0  0  0  0  0  0  0  0  0
   34.2760   22.2570   32.0170 H   0  0  0  0  0  0  0  0  0  0  0  0
   33.5880   19.4810   32.2610 H   0  0  0  0  0  0  0  0  0  0  0  0
   37.2890   17.8680   31.2520 H   0  0  0  0  0  0  0  0  0  0  0  0
   38.6900   20.3380   30.8130 H   0  0  0  0  0  0  0  0  0  0  0  0
   37.1010   27.4240   32.3600 C   0  0  0  0  0  0  0  0  0  0  0  0
   38.3200   27.3840   32.6420 O   0  0  0  0  0  0  0  0  0  0  0  0
   35.1480   30.3680   31.4600 C   0  0  0  0  0  0  0  0  0  0  0  0
   34.8400   30.9450   32.6920 C   0  0  0  0  0  0  0  0  0  0  0  0
   35.3010   30.3280   33.8260 C   0  0  0  0  0  0  0  0  0  0  0  0
   36.0230   29.2020   33.7220 N   0  0  0  0  0  0  0  0  0  0  0  0
   36.3180   28.6460   32.5070 C   0  0  0  0  0  0  0  0  0  0  0  0
   35.8660   29.2520   31.3950 N   0  0  0  0  0  0  0  0  0  0  0  0
   34.8030   30.8240   30.5620 H   0  0  0  0  0  0  0  0  0  0  0  0
   34.2580   31.8490   32.7380 H   0  0  0  0  0  0  0  0  0  0  0  0
   34.9840   30.9240   35.1210 C   0  0  0  0  0  0  0  0  0  0  0  0
   35.8090   31.5580   36.0240 C   0  0  0  0  0  0  0  0  0  0  0  0
   36.8710   31.7160   35.8980 H   0  0  0  0  0  0  0  0  0  0  0  0
   35.0580   31.9480   37.0900 N   0  0  0  0  0  0  0  0  0  0  0  0
   35.4840   32.4600   37.9170 H   0  0  0  0  0  0  0  0  0  0  0  0
   33.7720   31.5600   36.8560 C   0  0  0  0  0  0  0  0  0  0  0  0
   33.0370   31.7940   37.6140 H   0  0  0  0  0  0  0  0  0  0  0  0
   33.7600   30.9470   35.6660 N   0  0  0  0  0  0  0  0  0  0  0  0
  1  5  1  0  0  0  0
  1 22  1  0  0  0  0
  2  1  2  0  0  0  0
  3  2  1  0  0  0  0
  3  4  2  0  0  0  0
  4  5  1  0  0  0  0
  6  2  1  0  0  0  0
  7  3  1  0  0  0  0
  8  9  1  0  0  0  0
  9  4  1  0  0  0  0
  9 10  2  0  0  0  0
 10 18  1  0  0  0  0
 11 10  1  0  0  0  0
 11 12  1  0  0  0  0
 12 19  1  0  0  0  0
 13 12  1  0  0  0  0
 14 13  2  0  0  0  0
 15 14  1  0  0  0  0
 15 11  2  0  0  0  0
 16  8  2  0  0  0  0
 16 15  1  0  0  0  0
 17  8  1  0  0  0  0
 20 14  1  0  0  0  0
 21 16  1  0  0  0  0
 22 28  1  0  0  0  0
 22 23  2  0  0  0  0
 24 25  1  0  0  0  0
 25 31  1  0  0  0  0
 25 26  2  0  0  0  0
 26 32  1  0  0  0  0
 27 26  1  0  0  0  0
 28 27  2  0  0  0  0
 29 24  2  0  0  0  0
 29 28  1  0  0  0  0
 30 24  1  0  0  0  0
 32 39  1  0  0  0  0
 32 33  2  0  0  0  0
 33 35  1  0  0  0  0
 34 33  1  0  0  0  0
 35 36  1  0  0  0  0
 37 35  1  0  0  0  0
 37 38  1  0  0  0  0
 39 37  2  0  0  0  0
M  END
>  <minimizedAffinity>
-6.52369308

$$$$

 OpenBabel03272508503D

 39 43  0  0  0  0  0  0  0  0999 V2000
   36.6100   26.8510   32.1720 C   0  0  0  0  0  0  0  0  0  0  0  0
   36.3550   27.3860   30.9210 C   0  0  0  0  0  0  0  0  0  0  0  0
   36.0670   28.7220   31.2000 C   0  0  0  0  0  0  0  0  0  0  0  0
   36.1540   28.9340   32.5470 C   0  0  0  0  0  0  0  0  0  0  0  0
   36.4820   27.7920   33.1060 O   0  0  0  0  0  0  0  0  0  0  0  0
   36.3650   26.9240   29.9470 H   0  0  0  0  0  0  0  0  0  0  0  0
   35.8160   29.4500   30.4340 H   0  0  0  0  0  0  0  0  0  0  0  0
   35.9120   31.3720   32.5650 C   0  0  0  0  0  0  0  0  0  0  0  0
   35.9320   30.1850   33.2690 C   0  0  0  0  0  0  0  0  0  0  0  0
   35.7460   30.1440   34.6410 C   0  0  0  0  0  0  0  0  0  0  0  0
   35.5340   31.3220   35.3430 C   0  0  0  0  0  0  0  0  0  0  0  0
   35.3250   31.6150   36.6500 N   0  0  0  0  0  0  0  0  0  0  0  0
   35.1840   32.9420   36.7240 N   0  0  0  0  0  0  0  0  0  0  0  0
   35.2980   33.4850   35.5040 C   0  0  0  0  0  0  0  0  0  0  0  0
   35.5220   32.4730   34.6000 C   0  0  0  0  0  0  0  0  0  0  0  0
   35.7000   32.5830   33.2320 C   0  0  0  0  0  0  0  0  0  0  0  0
   36.0550   31.4280   31.4900 H   0  0  0  0  0  0  0  0  0  0  0  0
   35.7650   29.2070   35.1720 H   0  0  0  0  0  0  0  0  0  0  0  0
   35.2870   30.9250   37.4210 H   0  0  0  0  0  0  0  0  0  0  0  0
   35.2100   34.5520   35.3830 H   0  0  0  0  0  0  0  0  0  0  0  0
   35.6750   33.5300   32.7380 H   0  0  0  0  0  0  0  0  0  0  0  0
   36.9630   25.4640   32.4110 C   0  0  0  0  0  0  0  0  0  0  0  0
   36.2600   24.5700   31.8890 O   0  0  0  0  0  0  0  0  0  0  0  0
   40.4370   25.0810   33.4510 C   0  0  0  0  0  0  0  0  0  0  0  0
   40.3360   24.5710   34.7460 C   0  0  0  0  0  0  0  0  0  0  0  0
   39.0830   24.3590   35.2590 C   0  0  0  0  0  0  0  0  0  0  0  0
   38.0030   24.6440   34.5140 N   0  0  0  0  0  0  0  0  0  0  0  0
   38.1170   25.1440   33.2460 C   0  0  0  0  0  0  0  0  0  0  0  0
   39.3460   25.3520   32.7430 N   0  0  0  0  0  0  0  0  0  0  0  0
   41.3970   25.2570   33.0260 H   0  0  0  0  0  0  0  0  0  0  0  0
   41.2230   24.3540   35.3150 H   0  0  0  0  0  0  0  0  0  0  0  0
   38.9660   23.8250   36.6140 C   0  0  0  0  0  0  0  0  0  0  0  0
   39.7440   22.8910   37.2620 C   0  0  0  0  0  0  0  0  0  0  0  0
   40.6040   22.3900   36.8390 H   0  0  0  0  0  0  0  0  0  0  0  0
   39.2460   22.7150   38.5160 N   0  0  0  0  0  0  0  0  0  0  0  0
   39.6890   22.0370   39.2040 H   0  0  0  0  0  0  0  0  0  0  0  0
   38.1630   23.5330   38.6510 C   0  0  0  0  0  0  0  0  0  0  0  0
   37.6430   23.5150   39.6000 H   0  0  0  0  0  0  0  0  0  0  0  0
   38.0200   24.1850   37.4920 N   0  0  0  0  0  0  0  0  0  0  0  0
  1 22  1  0  0  0  0
  1  5  1  0  0  0  0
  2  3  1  0  0  0  0
  2  1  2  0  0  0  0
  3  4  2  0  0  0  0
  4  5  1  0  0  0  0
  4  9  1  0  0  0  0
  6  2  1  0  0  0  0
  7  3  1  0  0  0  0
  8 16  2  0  0  0  0
  8  9  1  0  0  0  0
  9 10  2  0  0  0  0
 10 18  1  0  0  0  0
 10 11  1  0  0  0  0
 11 12  1  0  0  0  0
 12 13  1  0  0  0  0
 12 19  1  0  0  0  0
 14 13  2  0  0  0  0
 15 11  2  0  0  0  0
 15 14  1  0  0  0  0
 16 15  1  0  0  0  0
 17  8  1  0  0  0  0
 20 14  1  0  0  0  0
 21 16  1  0  0  0  0
 22 28  1  0  0  0  0
 23 22  2  0  0  0  0
 24 25  1  0  0  0  0
 25 26  2  0  0  0  0
 25 31  1  0  0  0  0
 26 32  1  0  0  0  0
 27 26  1  0  0  0  0
 28 27  2  0  0  0  0
 29 28  1  0  0  0  0
 29 24  2  0  0  0  0
 30 24  1  0  0  0  0
 32 33  2  0  0  0  0
 32 39  1  0  0  0  0
 33 35  1  0  0  0  0
 34 33  1  0  0  0  0
 35 37  1  0  0  0  0
 35 36  1  0  0  0  0
 37 38  1  0  0  0  0
 39 37  2  0  0  0  0
M  END
>  <minimizedAffinity>
-6.47923374

$$$$

 OpenBabel03272508503D

 39 43  0  0  0  0  0  0  0  0999 V2000
   38.2920   24.8190   35.4930 C   0  0  0  0  0  0  0  0  0  0  0  0
   38.4040   25.8990   36.3510 C   0  0  0  0  0  0  0  0  0  0  0  0
   38.1220   26.9900   35.5280 C   0  0  0  0  0  0  0  0  0  0  0  0
   37.8630   26.5470   34.2620 C   0  0  0  0  0  0  0  0  0  0  0  0
   37.9720   25.2390   34.2710 O   0  0  0  0  0  0  0  0  0  0  0  0
   38.6460   25.9370   37.4020 H   0  0  0  0  0  0  0  0  0  0  0  0
   38.1210   28.0170   35.8800 H   0  0  0  0  0  0  0  0  0  0  0  0
   36.5950   28.3650   33.2160 C   0  0  0  0  0  0  0  0  0  0  0  0
   37.5230   27.3500   33.0890 C   0  0  0  0  0  0  0  0  0  0  0  0
   38.1430   27.0710   31.8820 C   0  0  0  0  0  0  0  0  0  0  0  0
   37.8330   27.8230   30.7580 C   0  0  0  0  0  0  0  0  0  0  0  0
   38.2480   27.8050   29.4680 N   0  0  0  0  0  0  0  0  0  0  0  0
   37.5870   28.7830   28.8410 N   0  0  0  0  0  0  0  0  0  0  0  0
   36.7720   29.4090   29.7010 C   0  0  0  0  0  0  0  0  0  0  0  0
   36.9070   28.8180   30.9340 C   0  0  0  0  0  0  0  0  0  0  0  0
   36.2530   29.1480   32.1090 C   0  0  0  0  0  0  0  0  0  0  0  0
   36.0970   28.6010   34.1510 H   0  0  0  0  0  0  0  0  0  0  0  0
   38.8650   26.2750   31.8040 H   0  0  0  0  0  0  0  0  0  0  0  0
   38.9450   27.1490   29.0710 H   0  0  0  0  0  0  0  0  0  0  0  0
   36.1600   30.2280   29.3570 H   0  0  0  0  0  0  0  0  0  0  0  0
   35.5430   29.9440   32.1490 H   0  0  0  0  0  0  0  0  0  0  0  0
   38.4970   23.4380   35.8870 C   0  0  0  0  0  0  0  0  0  0  0  0
   39.5330   23.1470   36.5260 O   0  0  0  0  0  0  0  0  0  0  0  0
   35.7340   21.0840   36.2330 C   0  0  0  0  0  0  0  0  0  0  0  0
   35.6080   20.5380   34.9560 C   0  0  0  0  0  0  0  0  0  0  0  0
   36.4670   20.9750   33.9810 C   0  0  0  0  0  0  0  0  0  0  0  0
   37.3910   21.9020   34.2770 N   0  0  0  0  0  0  0  0  0  0  0  0
   37.5030   22.4290   35.5340 C   0  0  0  0  0  0  0  0  0  0  0  0
   36.6600   22.0000   36.4900 N   0  0  0  0  0  0  0  0  0  0  0  0
   35.0800   20.7650   37.0110 H   0  0  0  0  0  0  0  0  0  0  0  0
   34.8550   19.7960   34.7540 H   0  0  0  0  0  0  0  0  0  0  0  0
   36.3440   20.4090   32.6400 C   0  0  0  0  0  0  0  0  0  0  0  0
   35.5850   19.3470   32.1980 C   0  0  0  0  0  0  0  0  0  0  0  0
   34.9330   18.7440   32.8150 H   0  0  0  0  0  0  0  0  0  0  0  0
   35.7980   19.1950   30.8630 N   0  0  0  0  0  0  0  0  0  0  0  0
   35.3150   18.4330   30.3030 H   0  0  0  0  0  0  0  0  0  0  0  0
   36.6840   20.1550   30.4720 C   0  0  0  0  0  0  0  0  0  0  0  0
   36.9670   20.1740   29.4270 H   0  0  0  0  0  0  0  0  0  0  0  0
   36.9940   20.8670   31.5610 N   0  0  0  0  0  0  0  0  0  0  0  0
  1 22  1  0  0  0  0
  1  2  2  0  0  0  0
  2  6  1  0  0  0  0
  3  7  1  0  0  0  0
  3  2  1  0  0  0  0
  4  5  1  0  0  0  0
  4  3  2  0  0  0  0
  5  1  1  0  0  0  0
  8 17  1  0  0  0  0
  9  8  1  0  0  0  0
  9  4  1  0  0  0  0
 10  9  2  0  0  0  0
 11 15  2  0  0  0  0
 11 10  1  0  0  0  0
 12 11  1  0  0  0  0
 13 12  1  0  0  0  0
 13 14  2  0  0  0  0
 14 15  1  0  0  0  0
 15 16  1  0  0  0  0
 16 21  1  0  0  0  0
 16  8  2  0  0  0  0
 18 10  1  0  0  0  0
 19 12  1  0  0  0  0
 20 14  1  0  0  0  0
 22 23  2  0  0  0  0
 24 29  1  0  0  0  0
 24 30  1  0  0  0  0
 25 24  2  0  0  0  0
 26 27  2  0  0  0  0
 26 25  1  0  0  0  0
 27 28  1  0  0  0  0
 28 22  1  0  0  0  0
 28 29  2  0  0  0  0
 31 25  1  0  0  0  0
 32 26  1  0  0  0  0
 33 32  2  0  0  0  0
 33 34  1  0  0  0  0
 35 33  1  0  0  0  0
 36 35  1  0  0  0  0
 37 35  1  0  0  0  0
 37 39  2  0  0  0  0
 38 37  1  0  0  0  0
 39 32  1  0  0  0  0
M  END
>  <minimizedAffinity>
-6.30869293

$$$$

 OpenBabel03272508503D

 39 43  0  0  0  0  0  0  0  0999 V2000
   35.8350   26.9380   31.2280 C   0  0  0  0  0  0  0  0  0  0  0  0
   36.7940   27.4950   30.4000 C   0  0  0  0  0  0  0  0  0  0  0  0
   36.9390   28.7870   30.9070 C   0  0  0  0  0  0  0  0  0  0  0  0
   36.0990   28.9530   31.9720 C   0  0  0  0  0  0  0  0  0  0  0  0
   35.4480   27.8260   32.1420 O   0  0  0  0  0  0  0  0  0  0  0  0
   37.3250   27.0740   29.5620 H   0  0  0  0  0  0  0  0  0  0  0  0
   37.6250   29.5180   30.4890 H   0  0  0  0  0  0  0  0  0  0  0  0
   35.9520   31.3900   32.1890 C   0  0  0  0  0  0  0  0  0  0  0  0
   35.9300   30.1490   32.7950 C   0  0  0  0  0  0  0  0  0  0  0  0
   35.7510   30.0040   34.1610 C   0  0  0  0  0  0  0  0  0  0  0  0
   35.5890   31.1280   34.9580 C   0  0  0  0  0  0  0  0  0  0  0  0
   35.3990   31.3220   36.2860 N   0  0  0  0  0  0  0  0  0  0  0  0
   35.3100   32.6440   36.4680 N   0  0  0  0  0  0  0  0  0  0  0  0
   35.4390   33.2780   35.2950 C   0  0  0  0  0  0  0  0  0  0  0  0
   35.6180   32.3360   34.3110 C   0  0  0  0  0  0  0  0  0  0  0  0
   35.7920   32.5490   32.9540 C   0  0  0  0  0  0  0  0  0  0  0  0
   36.0910   31.5270   31.1210 H   0  0  0  0  0  0  0  0  0  0  0  0
   35.7370   29.0270   34.6140 H   0  0  0  0  0  0  0  0  0  0  0  0
   35.3390   30.5740   36.9990 H   0  0  0  0  0  0  0  0  0  0  0  0
   35.3910   34.3550   35.2630 H   0  0  0  0  0  0  0  0  0  0  0  0
   35.8010   33.5330   32.5390 H   0  0  0  0  0  0  0  0  0  0  0  0
   35.3350   25.5810   31.1010 C   0  0  0  0  0  0  0  0  0  0  0  0
   34.3030   25.3860   30.4210 O   0  0  0  0  0  0  0  0  0  0  0  0
   37.7540   23.8350   33.1970 C   0  0  0  0  0  0  0  0  0  0  0  0
   37.4100   22.4910   33.0420 C   0  0  0  0  0  0  0  0  0  0  0  0
   36.3550   22.1860   32.2220 C   0  0  0  0  0  0  0  0  0  0  0  0
   35.6900   23.1730   31.6020 N   0  0  0  0  0  0  0  0  0  0  0  0
   36.0370   24.4870   31.7630 C   0  0  0  0  0  0  0  0  0  0  0  0
   37.0730   24.7850   32.5670 N   0  0  0  0  0  0  0  0  0  0  0  0
   38.5680   24.1030   33.8280 H   0  0  0  0  0  0  0  0  0  0  0  0
   37.9660   21.7260   33.5560 H   0  0  0  0  0  0  0  0  0  0  0  0
   35.9880   20.7830   32.0530 C   0  0  0  0  0  0  0  0  0  0  0  0
   36.0750   19.9780   30.9380 C   0  0  0  0  0  0  0  0  0  0  0  0
   36.4480   20.2860   29.9710 H   0  0  0  0  0  0  0  0  0  0  0  0
   35.6130   18.7410   31.2660 N   0  0  0  0  0  0  0  0  0  0  0  0
   35.5850   17.9490   30.5590 H   0  0  0  0  0  0  0  0  0  0  0  0
   35.2400   18.7710   32.5770 C   0  0  0  0  0  0  0  0  0  0  0  0
   34.8440   17.8580   33.0020 H   0  0  0  0  0  0  0  0  0  0  0  0
   35.4760   20.0110   33.0220 N   0  0  0  0  0  0  0  0  0  0  0  0
  1  5  1  0  0  0  0
  2  3  1  0  0  0  0
  2  1  2  0  0  0  0
  3  4  2  0  0  0  0
  4  5  1  0  0  0  0
  4  9  1  0  0  0  0
  6  2  1  0  0  0  0
  7  3  1  0  0  0  0
  8  9  2  0  0  0  0
  8 16  1  0  0  0  0
  9 10  1  0  0  0  0
 10 18  1  0  0  0  0
 10 11  2  0  0  0  0
 11 12  1  0  0  0  0
 12 13  1  0  0  0  0
 12 19  1  0  0  0  0
 14 13  2  0  0  0  0
 15 11  1  0  0  0  0
 15 14  1  0  0  0  0
 16 15  2  0  0  0  0
 17  8  1  0  0  0  0
 20 14  1  0  0  0  0
 21 16  1  0  0  0  0
 22  1  1  0  0  0  0
 22 28  1  0  0  0  0
 23 22  2  0  0  0  0
 24 30  1  0  0  0  0
 25 24  1  0  0  0  0
 25 31  1  0  0  0  0
 26 25  2  0  0  0  0
 27 28  2  0  0  0  0
 27 26  1  0  0  0  0
 28 29  1  0  0  0  0
 29 24  2  0  0  0  0
 32 26  1  0  0  0  0
 32 39  1  0  0  0  0
 33 35  1  0  0  0  0
 33 32  2  0  0  0  0
 34 33  1  0  0  0  0
 35 37  1  0  0  0  0
 36 35  1  0  0  0  0
 37 38  1  0  0  0  0
 37 39  2  0  0  0  0
M  END
>  <minimizedAffinity>
-6.26490784

$$$$

 OpenBabel03272508503D

 39 43  0  0  0  0  0  0  0  0999 V2000
   37.4820   27.1190   34.1770 C   0  0  0  0  0  0  0  0  0  0  0  0
   37.7130   27.7820   35.3700 C   0  0  0  0  0  0  0  0  0  0  0  0
   38.6440   26.9650   36.0120 C   0  0  0  0  0  0  0  0  0  0  0  0
   38.9260   25.8880   35.2190 C   0  0  0  0  0  0  0  0  0  0  0  0
   38.2130   26.0070   34.1230 O   0  0  0  0  0  0  0  0  0  0  0  0
   37.3010   28.7030   35.7510 H   0  0  0  0  0  0  0  0  0  0  0  0
   39.0560   27.1860   36.9920 H   0  0  0  0  0  0  0  0  0  0  0  0
   40.9870   24.6520   34.7380 C   0  0  0  0  0  0  0  0  0  0  0  0
   39.8450   24.7880   35.5030 C   0  0  0  0  0  0  0  0  0  0  0  0
   39.5450   23.9120   36.5330 C   0  0  0  0  0  0  0  0  0  0  0  0
   40.4060   22.8620   36.8170 C   0  0  0  0  0  0  0  0  0  0  0  0
   40.4010   21.8600   37.7310 N   0  0  0  0  0  0  0  0  0  0  0  0
   41.5110   21.1460   37.5170 N   0  0  0  0  0  0  0  0  0  0  0  0
   42.2060   21.6700   36.4990 C   0  0  0  0  0  0  0  0  0  0  0  0
   41.5250   22.7690   36.0310 C   0  0  0  0  0  0  0  0  0  0  0  0
   41.8830   23.6080   34.9900 C   0  0  0  0  0  0  0  0  0  0  0  0
   41.2420   25.3260   33.9260 H   0  0  0  0  0  0  0  0  0  0  0  0
   38.6490   24.0360   37.1180 H   0  0  0  0  0  0  0  0  0  0  0  0
   39.6670   21.7020   38.4450 H   0  0  0  0  0  0  0  0  0  0  0  0
   43.1320   21.2130   36.1930 H   0  0  0  0  0  0  0  0  0  0  0  0
   42.7790   23.4550   34.4310 H   0  0  0  0  0  0  0  0  0  0  0  0
   36.5700   27.5830   33.1480 C   0  0  0  0  0  0  0  0  0  0  0  0
   36.4350   26.8920   32.1140 O   0  0  0  0  0  0  0  0  0  0  0  0
   35.4690   31.0210   32.6350 C   0  0  0  0  0  0  0  0  0  0  0  0
   34.5100   31.2090   33.6300 C   0  0  0  0  0  0  0  0  0  0  0  0
   34.2420   30.1620   34.4730 C   0  0  0  0  0  0  0  0  0  0  0  0
   34.9000   29.0020   34.3200 N   0  0  0  0  0  0  0  0  0  0  0  0
   35.8380   28.8310   33.3400 C   0  0  0  0  0  0  0  0  0  0  0  0
   36.1000   29.8580   32.5130 N   0  0  0  0  0  0  0  0  0  0  0  0
   35.6970   31.8160   31.9630 H   0  0  0  0  0  0  0  0  0  0  0  0
   34.0010   32.1530   33.7230 H   0  0  0  0  0  0  0  0  0  0  0  0
   33.2400   30.3490   35.5190 C   0  0  0  0  0  0  0  0  0  0  0  0
   33.2070   31.2560   36.5560 C   0  0  0  0  0  0  0  0  0  0  0  0
   33.9620   32.0030   36.7570 H   0  0  0  0  0  0  0  0  0  0  0  0
   32.0700   31.0460   37.2720 N   0  0  0  0  0  0  0  0  0  0  0  0
   31.8290   31.6320   38.1240 H   0  0  0  0  0  0  0  0  0  0  0  0
   31.3950   30.0150   36.6880 C   0  0  0  0  0  0  0  0  0  0  0  0
   30.4580   29.7160   37.1390 H   0  0  0  0  0  0  0  0  0  0  0  0
   32.1230   29.6170   35.6380 N   0  0  0  0  0  0  0  0  0  0  0  0
  1  2  2  0  0  0  0
  2  6  1  0  0  0  0
  2  3  1  0  0  0  0
  3  7  1  0  0  0  0
  4  9  1  0  0  0  0
  4  3  2  0  0  0  0
  5  1  1  0  0  0  0
  5  4  1  0  0  0  0
  8 16  2  0  0  0  0
  8  9  1  0  0  0  0
  9 10  2  0  0  0  0
 10 11  1  0  0  0  0
 10 18  1  0  0  0  0
 11 12  1  0  0  0  0
 12 19  1  0  0  0  0
 13 12  1  0  0  0  0
 14 13  2  0  0  0  0
 15 14  1  0  0  0  0
 15 11  2  0  0  0  0
 16 15  1  0  0  0  0
 17  8  1  0  0  0  0
 20 14  1  0  0  0  0
 21 16  1  0  0  0  0
 22 28  1  0  0  0  0
 22  1  1  0  0  0  0
 23 22  2  0  0  0  0
 24 25  1  0  0  0  0
 25 31  1  0  0  0  0
 25 26  2  0  0  0  0
 26 32  1  0  0  0  0
 27 26  1  0  0  0  0
 28 27  2  0  0  0  0
 29 24  2  0  0  0  0
 29 28  1  0  0  0  0
 30 24  1  0  0  0  0
 32 39  1  0  0  0  0
 32 33  2  0  0  0  0
 33 34  1  0  0  0  0
 33 35  1  0  0  0  0
 35 36  1  0  0  0  0
 37 38  1  0  0  0  0
 37 35  1  0  0  0  0
 39 37  2  0  0  0  0
M  END
>  <minimizedAffinity>
-6.22486591

$$$$

 OpenBabel03272508503D

 39 43  0  0  0  0  0  0  0  0999 V2000
   35.3260   29.6070   32.6220 C   0  0  0  0  0  0  0  0  0  0  0  0
   36.0400   29.2810   31.4820 C   0  0  0  0  0  0  0  0  0  0  0  0
   36.8790   28.2540   31.9150 C   0  0  0  0  0  0  0  0  0  0  0  0
   36.6510   28.0100   33.2400 C   0  0  0  0  0  0  0  0  0  0  0  0
   35.7140   28.8390   33.6390 O   0  0  0  0  0  0  0  0  0  0  0  0
   35.9920   29.6900   30.4850 H   0  0  0  0  0  0  0  0  0  0  0  0
   37.5900   27.7520   31.2660 H   0  0  0  0  0  0  0  0  0  0  0  0
   37.7530   27.3990   35.3420 C   0  0  0  0  0  0  0  0  0  0  0  0
   37.3090   27.0210   34.0910 C   0  0  0  0  0  0  0  0  0  0  0  0
   37.4690   25.7290   33.6160 C   0  0  0  0  0  0  0  0  0  0  0  0
   38.0920   24.7760   34.4100 C   0  0  0  0  0  0  0  0  0  0  0  0
   38.3950   23.4650   34.2450 N   0  0  0  0  0  0  0  0  0  0  0  0
   39.0030   23.0710   35.3690 N   0  0  0  0  0  0  0  0  0  0  0  0
   39.0880   24.0960   36.2280 C   0  0  0  0  0  0  0  0  0  0  0  0
   38.5140   25.2000   35.6430 C   0  0  0  0  0  0  0  0  0  0  0  0
   38.3850   26.4710   36.1760 C   0  0  0  0  0  0  0  0  0  0  0  0
   37.6390   28.4050   35.7340 H   0  0  0  0  0  0  0  0  0  0  0  0
   37.1160   25.4540   32.6370 H   0  0  0  0  0  0  0  0  0  0  0  0
   38.1840   22.9020   33.4020 H   0  0  0  0  0  0  0  0  0  0  0  0
   39.5540   23.9500   37.1890 H   0  0  0  0  0  0  0  0  0  0  0  0
   38.7480   26.7080   37.1510 H   0  0  0  0  0  0  0  0  0  0  0  0
   34.3090   30.6400   32.6820 C   0  0  0  0  0  0  0  0  0  0  0  0
   34.5980   31.7870   32.2730 O   0  0  0  0  0  0  0  0  0  0  0  0
   30.6770   30.4430   32.9310 C   0  0  0  0  0  0  0  0  0  0  0  0
   30.4680   29.7690   34.1350 C   0  0  0  0  0  0  0  0  0  0  0  0
   31.5680   29.3850   34.8580 C   0  0  0  0  0  0  0  0  0  0  0  0
   32.7960   29.6630   34.3940 N   0  0  0  0  0  0  0  0  0  0  0  0
   32.9870   30.3240   33.2120 C   0  0  0  0  0  0  0  0  0  0  0  0
   31.9080   30.7000   32.5030 N   0  0  0  0  0  0  0  0  0  0  0  0
   29.8420   30.7530   32.3470 H   0  0  0  0  0  0  0  0  0  0  0  0
   29.4680   29.5630   34.4760 H   0  0  0  0  0  0  0  0  0  0  0  0
   31.3600   28.6800   36.1190 C   0  0  0  0  0  0  0  0  0  0  0  0
   31.6660   29.0660   37.4060 C   0  0  0  0  0  0  0  0  0  0  0  0
   32.1310   30.0020   37.6840 H   0  0  0  0  0  0  0  0  0  0  0  0
   31.2830   28.0740   38.2540 N   0  0  0  0  0  0  0  0  0  0  0  0
   31.4200   28.1520   39.3040 H   0  0  0  0  0  0  0  0  0  0  0  0
   30.7400   27.0730   37.5040 C   0  0  0  0  0  0  0  0  0  0  0  0
   30.3820   26.1970   38.0280 H   0  0  0  0  0  0  0  0  0  0  0  0
   30.8010   27.4660   36.2260 N   0  0  0  0  0  0  0  0  0  0  0  0
  1 22  1  0  0  0  0
  1  5  1  0  0  0  0
  2  3  1  0  0  0  0
  2  1  2  0  0  0  0
  3  4  2  0  0  0  0
  4  5  1  0  0  0  0
  4  9  1  0  0  0  0
  6  2  1  0  0  0  0
  7  3  1  0  0  0  0
  8 17  1  0  0  0  0
  8 16  1  0  0  0  0
  9  8  2  0  0  0  0
 10  9  1  0  0  0  0
 10 11  2  0  0  0  0
 11 15  1  0  0  0  0
 12 11  1  0  0  0  0
 12 13  1  0  0  0  0
 13 14  2  0  0  0  0
 14 20  1  0  0  0  0
 15 16  2  0  0  0  0
 15 14  1  0  0  0  0
 16 21  1  0  0  0  0
 18 10  1  0  0  0  0
 19 12  1  0  0  0  0
 22 28  1  0  0  0  0
 23 22  2  0  0  0  0
 24 25  1  0  0  0  0
 25 31  1  0  0  0  0
 25 26  2  0  0  0  0
 26 32  1  0  0  0  0
 27 26  1  0  0  0  0
 28 27  2  0  0  0  0
 29 24  2  0  0  0  0
 29 28  1  0  0  0  0
 30 24  1  0  0  0  0
 32 39  1  0  0  0  0
 32 33  2  0  0  0  0
 33 34  1  0  0  0  0
 33 35  1  0  0  0  0
 35 36  1  0  0  0  0
 37 38  1  0  0  0  0
 37 35  1  0  0  0  0
 39 37  2  0  0  0  0
M  END
>  <minimizedAffinity>
-6.17222357

$$$$

 OpenBabel03272508503D

 39 43  0  0  0  0  0  0  0  0999 V2000
   38.1880   24.8320   35.6150 C   0  0  0  0  0  0  0  0  0  0  0  0
   38.3780   25.8140   36.5720 C   0  0  0  0  0  0  0  0  0  0  0  0
   38.0250   26.9840   35.9000 C   0  0  0  0  0  0  0  0  0  0  0  0
   37.6540   26.6800   34.6210 C   0  0  0  0  0  0  0  0  0  0  0  0
   37.7610   25.3790   34.4780 O   0  0  0  0  0  0  0  0  0  0  0  0
   38.7120   25.7390   37.5950 H   0  0  0  0  0  0  0  0  0  0  0  0
   38.0570   27.9680   36.3600 H   0  0  0  0  0  0  0  0  0  0  0  0
   36.2030   28.5020   33.8590 C   0  0  0  0  0  0  0  0  0  0  0  0
   37.2120   27.6020   33.5780 C   0  0  0  0  0  0  0  0  0  0  0  0
   37.8190   27.5490   32.3340 C   0  0  0  0  0  0  0  0  0  0  0  0
   37.4120   28.4170   31.3310 C   0  0  0  0  0  0  0  0  0  0  0  0
   37.7920   28.6140   30.0440 N   0  0  0  0  0  0  0  0  0  0  0  0
   37.0290   29.6050   29.5710 N   0  0  0  0  0  0  0  0  0  0  0  0
   36.1870   30.0300   30.5220 C   0  0  0  0  0  0  0  0  0  0  0  0
   36.4090   29.2900   31.6590 C   0  0  0  0  0  0  0  0  0  0  0  0
   35.7620   29.3950   32.8780 C   0  0  0  0  0  0  0  0  0  0  0  0
   35.7130   28.5610   34.8260 H   0  0  0  0  0  0  0  0  0  0  0  0
   38.6050   26.8390   32.1340 H   0  0  0  0  0  0  0  0  0  0  0  0
   38.5320   28.0850   29.5490 H   0  0  0  0  0  0  0  0  0  0  0  0
   35.4980   30.8300   30.3050 H   0  0  0  0  0  0  0  0  0  0  0  0
   34.9870   30.1110   33.0400 H   0  0  0  0  0  0  0  0  0  0  0  0
   38.4250   23.4180   35.8370 C   0  0  0  0  0  0  0  0  0  0  0  0
   38.5560   23.0120   37.0130 O   0  0  0  0  0  0  0  0  0  0  0  0
   39.8460   21.4850   33.0910 C   0  0  0  0  0  0  0  0  0  0  0  0
   38.7430   20.8210   32.5540 C   0  0  0  0  0  0  0  0  0  0  0  0
   37.5180   21.0360   33.1300 C   0  0  0  0  0  0  0  0  0  0  0  0
   37.4150   21.8660   34.1800 N   0  0  0  0  0  0  0  0  0  0  0  0
   38.5050   22.5100   34.6970 C   0  0  0  0  0  0  0  0  0  0  0  0
   39.7070   22.2990   34.1310 N   0  0  0  0  0  0  0  0  0  0  0  0
   40.8110   21.3370   32.6650 H   0  0  0  0  0  0  0  0  0  0  0  0
   38.8630   20.1630   31.7110 H   0  0  0  0  0  0  0  0  0  0  0  0
   36.3570   20.3460   32.5740 C   0  0  0  0  0  0  0  0  0  0  0  0
   36.2660   19.0980   31.9990 C   0  0  0  0  0  0  0  0  0  0  0  0
   37.0880   18.4080   31.8680 H   0  0  0  0  0  0  0  0  0  0  0  0
   34.9730   18.8900   31.6310 N   0  0  0  0  0  0  0  0  0  0  0  0
   34.6630   17.9870   31.1640 H   0  0  0  0  0  0  0  0  0  0  0  0
   34.2590   20.0000   31.9730 C   0  0  0  0  0  0  0  0  0  0  0  0
   33.2010   20.0000   31.7460 H   0  0  0  0  0  0  0  0  0  0  0  0
   35.1180   20.8570   32.5370 N   0  0  0  0  0  0  0  0  0  0  0  0
  1 22  1  0  0  0  0
  1  2  2  0  0  0  0
  2  6  1  0  0  0  0
  3  7  1  0  0  0  0
  3  2  1  0  0  0  0
  4  3  2  0  0  0  0
  5  4  1  0  0  0  0
  5  1  1  0  0  0  0
  8 17  1  0  0  0  0
  9  8  1  0  0  0  0
  9  4  1  0  0  0  0
 10  9  2  0  0  0  0
 11 15  2  0  0  0  0
 11 10  1  0  0  0  0
 12 11  1  0  0  0  0
 13 12  1  0  0  0  0
 13 14  2  0  0  0  0
 14 15  1  0  0  0  0
 15 16  1  0  0  0  0
 16 21  1  0  0  0  0
 16  8  2  0  0  0  0
 18 10  1  0  0  0  0
 19 12  1  0  0  0  0
 20 14  1  0  0  0  0
 22 23  2  0  0  0  0
 24 29  1  0  0  0  0
 25 24  2  0  0  0  0
 25 26  1  0  0  0  0
 26 27  2  0  0  0  0
 27 28  1  0  0  0  0
 28 22  1  0  0  0  0
 29 28  2  0  0  0  0
 30 24  1  0  0  0  0
 31 25  1  0  0  0  0
 32 26  1  0  0  0  0
 33 32  2  0  0  0  0
 34 33  1  0  0  0  0
 35 37  1  0  0  0  0
 35 33  1  0  0  0  0
 36 35  1  0  0  0  0
 37 39  2  0  0  0  0
 38 37  1  0  0  0  0
 39 32  1  0  0  0  0
M  END
>  <minimizedAffinity>
-6.1642518

$$$$
