
 OpenBabel03272509573D

 45 48  0  0  0  0  0  0  0  0999 V2000
   33.3210   28.0640   47.6770 C   0  0  0  0  0  0  0  0  0  0  0  0
   34.3580   27.6500   47.7610 H   0  0  0  0  0  0  0  0  0  0  0  0
   32.8580   27.5400   46.8420 H   0  0  0  0  0  0  0  0  0  0  0  0
   32.5930   27.8850   48.9740 C   0  0  0  0  0  0  0  0  0  0  0  0
   32.7130   28.7670   49.6270 H   0  0  0  0  0  0  0  0  0  0  0  0
   33.0110   26.9880   49.4900 H   0  0  0  0  0  0  0  0  0  0  0  0
   31.1410   27.6080   48.7810 C   0  0  0  0  0  0  0  0  0  0  0  0
   30.7560   26.9660   47.6180 C   0  0  0  0  0  0  0  0  0  0  0  0
   29.4400   26.6660   47.3460 C   0  0  0  0  0  0  0  0  0  0  0  0
   28.5030   27.0080   48.2390 N   0  0  0  0  0  0  0  0  0  0  0  0
   28.9040   27.6410   49.3830 C   0  0  0  0  0  0  0  0  0  0  0  0
   30.1760   27.9430   49.6670 N   0  0  0  0  0  0  0  0  0  0  0  0
   31.4710   26.6590   46.8470 H   0  0  0  0  0  0  0  0  0  0  0  0
   29.1400   26.1700   46.4480 H   0  0  0  0  0  0  0  0  0  0  0  0
   27.8060   27.9910   50.3310 C   0  0  0  0  0  0  0  0  0  0  0  0
   27.3410   27.0180   50.6250 H   0  0  0  0  0  0  0  0  0  0  0  0
   28.2440   28.3790   51.2760 H   0  0  0  0  0  0  0  0  0  0  0  0
   26.8190   28.9240   49.7500 C   0  0  0  0  0  0  0  0  0  0  0  0
   25.4650   28.6670   49.6760 C   0  0  0  0  0  0  0  0  0  0  0  0
   24.8720   27.8150   49.9910 H   0  0  0  0  0  0  0  0  0  0  0  0
   24.8320   29.7000   49.0990 N   0  0  0  0  0  0  0  0  0  0  0  0
   23.8320   29.8880   48.8660 H   0  0  0  0  0  0  0  0  0  0  0  0
   25.7800   30.6330   48.7950 C   0  0  0  0  0  0  0  0  0  0  0  0
   25.6430   31.6110   48.3160 H   0  0  0  0  0  0  0  0  0  0  0  0
   26.9810   30.1270   49.2070 N   0  0  0  0  0  0  0  0  0  0  0  0
   33.4990   29.4540   47.3960 O   0  0  0  0  0  0  0  0  0  0  0  0
   34.0090   30.3120   43.9230 C   0  0  0  0  0  0  0  0  0  0  0  0
   35.3930   30.5820   43.9320 C   0  0  0  0  0  0  0  0  0  0  0  0
   36.0740   30.4510   45.1430 C   0  0  0  0  0  0  0  0  0  0  0  0
   35.3180   30.0690   46.2150 N   0  0  0  0  0  0  0  0  0  0  0  0
   34.0030   29.8170   46.1840 C   0  0  0  0  0  0  0  0  0  0  0  0
   33.3530   29.9440   45.0140 N   0  0  0  0  0  0  0  0  0  0  0  0
   33.5330   30.4290   42.9560 H   0  0  0  0  0  0  0  0  0  0  0  0
   35.9860   30.8790   43.1030 H   0  0  0  0  0  0  0  0  0  0  0  0
   38.2950   29.4730   43.5710 F   0  0  0  0  0  0  0  0  0  0  0  0
   38.5310   30.2450   44.6280 C   0  0  0  0  0  0  0  0  0  0  0  0
   37.4800   30.6840   45.3410 C   0  0  0  0  0  0  0  0  0  0  0  0
   37.8400   31.4840   46.4260 C   0  0  0  0  0  0  0  0  0  0  0  0
   39.1390   31.7940   46.7410 C   0  0  0  0  0  0  0  0  0  0  0  0
   40.1790   31.3130   45.9730 C   0  0  0  0  0  0  0  0  0  0  0  0
   39.8460   30.5260   44.9020 C   0  0  0  0  0  0  0  0  0  0  0  0
   37.0720   31.9070   47.0890 H   0  0  0  0  0  0  0  0  0  0  0  0
   39.3710   32.4190   47.5940 H   0  0  0  0  0  0  0  0  0  0  0  0
   41.2030   31.5480   46.2090 H   0  0  0  0  0  0  0  0  0  0  0  0
   40.6570   30.1430   44.2910 H   0  0  0  0  0  0  0  0  0  0  0  0
  1  2  1  0  0  0  0
  1  4  1  0  0  0  0
  3  1  1  0  0  0  0
  4  6  1  0  0  0  0
  4  5  1  0  0  0  0
  7  4  1  0  0  0  0
  7 12  1  0  0  0  0
  8  7  2  0  0  0  0
  9  8  1  0  0  0  0
  9 10  2  0  0  0  0
 10 11  1  0  0  0  0
 11 12  2  0  0  0  0
 11 15  1  0  0  0  0
 13  8  1  0  0  0  0
 14  9  1  0  0  0  0
 15 16  1  0  0  0  0
 15 17  1  0  0  0  0
 18 15  1  0  0  0  0
 19 18  2  0  0  0  0
 19 20  1  0  0  0  0
 21 19  1  0  0  0  0
 22 21  1  0  0  0  0
 23 21  1  0  0  0  0
 23 25  2  0  0  0  0
 24 23  1  0  0  0  0
 25 18  1  0  0  0  0
 26  1  1  0  0  0  0
 27 28  2  0  0  0  0
 27 32  1  0  0  0  0
 28 29  1  0  0  0  0
 29 37  1  0  0  0  0
 29 30  2  0  0  0  0
 31 30  1  0  0  0  0
 31 26  1  0  0  0  0
 32 31  2  0  0  0  0
 33 27  1  0  0  0  0
 34 28  1  0  0  0  0
 35 36  1  0  0  0  0
 36 41  2  0  0  0  0
 36 37  1  0  0  0  0
 37 38  2  0  0  0  0
 38 39  1  0  0  0  0
 38 42  1  0  0  0  0
 39 43  1  0  0  0  0
 40 44  1  0  0  0  0
 40 39  2  0  0  0  0
 41 40  1  0  0  0  0
 45 41  1  0  0  0  0
M  END
>  <minimizedAffinity>
-5.68098831

>  <minimizedRMSD>
4.33562374

$$$$
