
 OpenBabel03272510133D

 40 43  0  0  0  0  0  0  0  0999 V2000
   38.2490   31.6120   48.9150 C   0  0  0  0  0  0  0  0  0  0  0  0
   38.4540   32.9070   49.3970 C   0  0  0  0  0  0  0  0  0  0  0  0
   39.1410   33.6000   48.4060 C   0  0  0  0  0  0  0  0  0  0  0  0
   39.3270   32.7550   47.3960 N   0  0  0  0  0  0  0  0  0  0  0  0
   38.8020   31.5820   47.6950 N   0  0  0  0  0  0  0  0  0  0  0  0
   38.2030   33.4400   50.3220 H   0  0  0  0  0  0  0  0  0  0  0  0
   39.4800   34.6370   48.4110 H   0  0  0  0  0  0  0  0  0  0  0  0
   40.0020   33.0740   46.1610 C   0  0  0  0  0  0  0  0  0  0  0  0
   40.1830   34.1660   46.1490 H   0  0  0  0  0  0  0  0  0  0  0  0
   40.9440   32.4930   46.1240 H   0  0  0  0  0  0  0  0  0  0  0  0
   39.0770   32.7130   45.0160 C   0  0  0  0  0  0  0  0  0  0  0  0
   38.0570   32.6380   45.4060 H   0  0  0  0  0  0  0  0  0  0  0  0
   39.0920   33.5750   44.3060 H   0  0  0  0  0  0  0  0  0  0  0  0
   39.4920   31.4450   44.3640 C   0  0  0  0  0  0  0  0  0  0  0  0
   40.5830   30.9320   43.7130 C   0  0  0  0  0  0  0  0  0  0  0  0
   41.4340   31.5890   43.6020 H   0  0  0  0  0  0  0  0  0  0  0  0
   40.3340   29.6660   43.3400 N   0  0  0  0  0  0  0  0  0  0  0  0
   41.0220   29.1000   42.8380 H   0  0  0  0  0  0  0  0  0  0  0  0
   39.0880   29.3880   43.7590 C   0  0  0  0  0  0  0  0  0  0  0  0
   38.5980   28.4230   43.6020 H   0  0  0  0  0  0  0  0  0  0  0  0
   38.5620   30.4560   44.3820 N   0  0  0  0  0  0  0  0  0  0  0  0
   37.5740   30.7850   49.7850 O   0  0  0  0  0  0  0  0  0  0  0  0
   34.0560   28.8910   48.4220 C   0  0  0  0  0  0  0  0  0  0  0  0
   34.8190   28.3390   49.4130 C   0  0  0  0  0  0  0  0  0  0  0  0
   35.9770   28.9010   49.9070 C   0  0  0  0  0  0  0  0  0  0  0  0
   36.4350   30.0810   49.4090 C   0  0  0  0  0  0  0  0  0  0  0  0
   35.6590   30.6530   48.3920 C   0  0  0  0  0  0  0  0  0  0  0  0
   34.5270   30.0770   47.9290 N   0  0  0  0  0  0  0  0  0  0  0  0
   34.5390   27.4010   49.8760 H   0  0  0  0  0  0  0  0  0  0  0  0
   36.5790   28.4600   50.6940 H   0  0  0  0  0  0  0  0  0  0  0  0
   35.9470   31.5950   47.9340 H   0  0  0  0  0  0  0  0  0  0  0  0
   31.9450   27.5950   48.6970 C   0  0  0  0  0  0  0  0  0  0  0  0
   32.8630   28.2960   47.9180 C   0  0  0  0  0  0  0  0  0  0  0  0
   32.5800   28.4030   46.5760 C   0  0  0  0  0  0  0  0  0  0  0  0
   31.4410   27.8360   46.0600 N   0  0  0  0  0  0  0  0  0  0  0  0
   30.5860   27.1650   46.8700 C   0  0  0  0  0  0  0  0  0  0  0  0
   30.8230   27.0320   48.2030 N   0  0  0  0  0  0  0  0  0  0  0  0
   32.1300   27.4890   49.7540 H   0  0  0  0  0  0  0  0  0  0  0  0
   33.2600   28.9390   45.9150 H   0  0  0  0  0  0  0  0  0  0  0  0
   29.6920   26.7220   46.4490 H   0  0  0  0  0  0  0  0  0  0  0  0
  1  2  1  0  0  0  0
  1 22  1  0  0  0  0
  2  6  1  0  0  0  0
  3  7  1  0  0  0  0
  3  2  2  0  0  0  0
  4  5  1  0  0  0  0
  4  3  1  0  0  0  0
  5  1  2  0  0  0  0
  8  4  1  0  0  0  0
  9  8  1  0  0  0  0
 10  8  1  0  0  0  0
 11 12  1  0  0  0  0
 11  8  1  0  0  0  0
 13 11  1  0  0  0  0
 14 21  1  0  0  0  0
 14 11  1  0  0  0  0
 15 14  2  0  0  0  0
 16 15  1  0  0  0  0
 17 15  1  0  0  0  0
 17 19  1  0  0  0  0
 18 17  1  0  0  0  0
 19 21  2  0  0  0  0
 20 19  1  0  0  0  0
 23 24  1  0  0  0  0
 24 29  1  0  0  0  0
 24 25  2  0  0  0  0
 25 30  1  0  0  0  0
 26 22  1  0  0  0  0
 26 25  1  0  0  0  0
 27 26  2  0  0  0  0
 28 27  1  0  0  0  0
 28 23  2  0  0  0  0
 31 27  1  0  0  0  0
 32 38  1  0  0  0  0
 33 23  1  0  0  0  0
 33 32  2  0  0  0  0
 34 33  1  0  0  0  0
 35 34  2  0  0  0  0
 35 36  1  0  0  0  0
 36 37  2  0  0  0  0
 37 32  1  0  0  0  0
 39 34  1  0  0  0  0
 40 36  1  0  0  0  0
M  END
>  <minimizedAffinity>
-6.06870413

>  <minimizedRMSD>
1.9728092

$$$$
