
 OpenBabel03272505093D

 28 30  0  0  0  0  0  0  0  0999 V2000
   38.1500   26.8420   33.2440 Cl  0  0  0  0  0  0  0  0  0  0  0  0
   37.1300   25.6820   32.4260 C   0  0  0  0  0  0  0  0  0  0  0  0
   36.1290   26.1750   31.6160 C   0  0  0  0  0  0  0  0  0  0  0  0
   35.3140   25.2660   30.9620 C   0  0  0  0  0  0  0  0  0  0  0  0
   35.5240   23.9190   31.1400 C   0  0  0  0  0  0  0  0  0  0  0  0
   36.5430   23.4850   31.9660 C   0  0  0  0  0  0  0  0  0  0  0  0
   37.3880   24.3350   32.6430 C   0  0  0  0  0  0  0  0  0  0  0  0
   34.5350   25.6550   30.3300 H   0  0  0  0  0  0  0  0  0  0  0  0
   34.8680   23.2320   30.6140 H   0  0  0  0  0  0  0  0  0  0  0  0
   36.6840   22.4150   32.0870 H   0  0  0  0  0  0  0  0  0  0  0  0
   36.5050   29.5490   30.2690 C   0  0  0  0  0  0  0  0  0  0  0  0
   35.6950   30.3440   31.0920 C   0  0  0  0  0  0  0  0  0  0  0  0
   35.0190   29.6930   32.1180 C   0  0  0  0  0  0  0  0  0  0  0  0
   35.1770   28.3450   32.2650 N   0  0  0  0  0  0  0  0  0  0  0  0
   35.9530   27.6290   31.4640 C   0  0  0  0  0  0  0  0  0  0  0  0
   36.6210   28.2330   30.4610 N   0  0  0  0  0  0  0  0  0  0  0  0
   37.0300   30.0600   29.4720 H   0  0  0  0  0  0  0  0  0  0  0  0
   35.5660   31.4020   30.9840 H   0  0  0  0  0  0  0  0  0  0  0  0
   34.3670   30.2040   32.8140 H   0  0  0  0  0  0  0  0  0  0  0  0
   38.7040   23.8100   33.7020 S   0  0  0  0  0  0  0  0  0  0  0  0
   38.1730   23.5150   35.3830 C   0  0  0  0  0  0  0  0  0  0  0  0
   37.7170   22.3770   36.0440 C   0  0  0  0  0  0  0  0  0  0  0  0
   37.6330   21.4390   35.5200 H   0  0  0  0  0  0  0  0  0  0  0  0
   37.4520   22.7220   37.3220 N   0  0  0  0  0  0  0  0  0  0  0  0
   37.0950   22.0050   37.9930 H   0  0  0  0  0  0  0  0  0  0  0  0
   37.7380   24.0340   37.4340 C   0  0  0  0  0  0  0  0  0  0  0  0
   37.5750   24.4730   38.4190 H   0  0  0  0  0  0  0  0  0  0  0  0
   38.1780   24.5140   36.2540 N   0  0  0  0  0  0  0  0  0  0  0  0
  2  7  1  0  0  0  0
  2  1  1  0  0  0  0
  3  2  2  0  0  0  0
  4  5  2  0  0  0  0
  4  3  1  0  0  0  0
  5  6  1  0  0  0  0
  6 10  1  0  0  0  0
  6  7  2  0  0  0  0
  7 20  1  0  0  0  0
  8  4  1  0  0  0  0
  9  5  1  0  0  0  0
 11 16  2  0  0  0  0
 11 12  1  0  0  0  0
 12 13  2  0  0  0  0
 13 14  1  0  0  0  0
 13 19  1  0  0  0  0
 15  3  1  0  0  0  0
 15 14  2  0  0  0  0
 16 15  1  0  0  0  0
 17 11  1  0  0  0  0
 18 12  1  0  0  0  0
 20 21  1  0  0  0  0
 21 22  2  0  0  0  0
 21 28  1  0  0  0  0
 22 24  1  0  0  0  0
 23 22  1  0  0  0  0
 24 26  1  0  0  0  0
 24 25  1  0  0  0  0
 26 27  1  0  0  0  0
 28 26  2  0  0  0  0
M  END
>  <minimizedAffinity>
-5.16447163

$$$$

 OpenBabel03272505093D

 28 30  0  0  0  0  0  0  0  0999 V2000
   37.6890   24.7260   32.8500 Cl  0  0  0  0  0  0  0  0  0  0  0  0
   39.1670   25.4770   33.4040 C   0  0  0  0  0  0  0  0  0  0  0  0
   39.4640   26.7330   32.9200 C   0  0  0  0  0  0  0  0  0  0  0  0
   40.6320   27.3380   33.3510 C   0  0  0  0  0  0  0  0  0  0  0  0
   41.4500   26.6770   34.2360 C   0  0  0  0  0  0  0  0  0  0  0  0
   41.1000   25.4180   34.6870 C   0  0  0  0  0  0  0  0  0  0  0  0
   39.9540   24.7620   34.2980 C   0  0  0  0  0  0  0  0  0  0  0  0
   40.8600   28.3190   32.9710 H   0  0  0  0  0  0  0  0  0  0  0  0
   42.3590   27.1770   34.5560 H   0  0  0  0  0  0  0  0  0  0  0  0
   41.7660   24.9200   35.3860 H   0  0  0  0  0  0  0  0  0  0  0  0
   36.5810   28.6000   31.6790 C   0  0  0  0  0  0  0  0  0  0  0  0
   36.7710   28.6520   30.2900 C   0  0  0  0  0  0  0  0  0  0  0  0
   37.9130   28.0310   29.7940 C   0  0  0  0  0  0  0  0  0  0  0  0
   38.7650   27.4190   30.6660 N   0  0  0  0  0  0  0  0  0  0  0  0
   38.5490   27.3920   31.9730 C   0  0  0  0  0  0  0  0  0  0  0  0
   37.4520   27.9850   32.4830 N   0  0  0  0  0  0  0  0  0  0  0  0
   35.6910   29.0840   32.0610 H   0  0  0  0  0  0  0  0  0  0  0  0
   36.1070   29.1310   29.6010 H   0  0  0  0  0  0  0  0  0  0  0  0
   38.1620   28.0090   28.7420 H   0  0  0  0  0  0  0  0  0  0  0  0
   39.4770   23.1550   34.8620 S   0  0  0  0  0  0  0  0  0  0  0  0
   39.0960   23.1100   36.6080 C   0  0  0  0  0  0  0  0  0  0  0  0
   39.8320   22.7230   37.7260 C   0  0  0  0  0  0  0  0  0  0  0  0
   40.8420   22.3630   37.6160 H   0  0  0  0  0  0  0  0  0  0  0  0
   39.0500   22.8960   38.8120 N   0  0  0  0  0  0  0  0  0  0  0  0
   39.4170   22.6620   39.7620 H   0  0  0  0  0  0  0  0  0  0  0  0
   37.8720   23.3760   38.3670 C   0  0  0  0  0  0  0  0  0  0  0  0
   37.1200   23.5720   39.1320 H   0  0  0  0  0  0  0  0  0  0  0  0
   37.9030   23.5060   37.0270 N   0  0  0  0  0  0  0  0  0  0  0  0
  1  2  1  0  0  0  0
  2  7  1  0  0  0  0
  3  4  1  0  0  0  0
  3  2  2  0  0  0  0
  4  5  2  0  0  0  0
  5  9  1  0  0  0  0
  5  6  1  0  0  0  0
  6 10  1  0  0  0  0
  7  6  2  0  0  0  0
  7 20  1  0  0  0  0
  8  4  1  0  0  0  0
 11 17  1  0  0  0  0
 11 16  1  0  0  0  0
 12 11  2  0  0  0  0
 13 12  1  0  0  0  0
 13 14  2  0  0  0  0
 14 15  1  0  0  0  0
 15 16  2  0  0  0  0
 15  3  1  0  0  0  0
 18 12  1  0  0  0  0
 19 13  1  0  0  0  0
 20 21  1  0  0  0  0
 21 28  1  0  0  0  0
 21 22  2  0  0  0  0
 22 24  1  0  0  0  0
 23 22  1  0  0  0  0
 24 25  1  0  0  0  0
 26 24  1  0  0  0  0
 26 27  1  0  0  0  0
 28 26  2  0  0  0  0
M  END
>  <minimizedAffinity>
-4.95025539

$$$$

 OpenBabel03272505093D

 28 30  0  0  0  0  0  0  0  0999 V2000
   38.1720   23.8770   33.4390 Cl  0  0  0  0  0  0  0  0  0  0  0  0
   38.0120   25.4160   34.2500 C   0  0  0  0  0  0  0  0  0  0  0  0
   38.6300   25.5580   35.4750 C   0  0  0  0  0  0  0  0  0  0  0  0
   38.5100   26.7740   36.1270 C   0  0  0  0  0  0  0  0  0  0  0  0
   37.7880   27.7870   35.5430 C   0  0  0  0  0  0  0  0  0  0  0  0
   37.1910   27.5850   34.3130 C   0  0  0  0  0  0  0  0  0  0  0  0
   37.2720   26.4040   33.6130 C   0  0  0  0  0  0  0  0  0  0  0  0
   38.9930   26.8800   37.0830 H   0  0  0  0  0  0  0  0  0  0  0  0
   37.7120   28.7280   36.0790 H   0  0  0  0  0  0  0  0  0  0  0  0
   36.6270   28.4050   33.8770 H   0  0  0  0  0  0  0  0  0  0  0  0
   41.3600   23.1980   36.0300 C   0  0  0  0  0  0  0  0  0  0  0  0
   40.8950   22.3630   37.0560 C   0  0  0  0  0  0  0  0  0  0  0  0
   39.6230   22.6310   37.5490 C   0  0  0  0  0  0  0  0  0  0  0  0
   38.9120   23.6690   37.0210 N   0  0  0  0  0  0  0  0  0  0  0  0
   39.3890   24.4360   36.0500 C   0  0  0  0  0  0  0  0  0  0  0  0
   40.6190   24.2010   35.5520 N   0  0  0  0  0  0  0  0  0  0  0  0
   42.3510   22.9850   35.6490 H   0  0  0  0  0  0  0  0  0  0  0  0
   41.4460   21.5460   37.4760 H   0  0  0  0  0  0  0  0  0  0  0  0
   39.1620   22.0530   38.3390 H   0  0  0  0  0  0  0  0  0  0  0  0
   36.5240   26.1180   32.0350 S   0  0  0  0  0  0  0  0  0  0  0  0
   37.2780   27.0670   30.7210 C   0  0  0  0  0  0  0  0  0  0  0  0
   38.4880   26.9430   30.0410 C   0  0  0  0  0  0  0  0  0  0  0  0
   39.1720   26.1470   30.2860 H   0  0  0  0  0  0  0  0  0  0  0  0
   38.5520   27.9410   29.1340 N   0  0  0  0  0  0  0  0  0  0  0  0
   39.3880   28.0280   28.5130 H   0  0  0  0  0  0  0  0  0  0  0  0
   37.4140   28.6500   29.2590 C   0  0  0  0  0  0  0  0  0  0  0  0
   37.3100   29.5030   28.5870 H   0  0  0  0  0  0  0  0  0  0  0  0
   36.6400   28.1170   30.2250 N   0  0  0  0  0  0  0  0  0  0  0  0
  1  2  1  0  0  0  0
  2  3  1  0  0  0  0
  3 15  1  0  0  0  0
  3  4  2  0  0  0  0
  4  8  1  0  0  0  0
  5  9  1  0  0  0  0
  5  4  1  0  0  0  0
  6  5  2  0  0  0  0
  7  2  2  0  0  0  0
  7  6  1  0  0  0  0
 10  6  1  0  0  0  0
 11 12  1  0  0  0  0
 12 18  1  0  0  0  0
 12 13  2  0  0  0  0
 13 19  1  0  0  0  0
 14 13  1  0  0  0  0
 15 14  2  0  0  0  0
 16 11  2  0  0  0  0
 16 15  1  0  0  0  0
 17 11  1  0  0  0  0
 20  7  1  0  0  0  0
 21 20  1  0  0  0  0
 22 23  1  0  0  0  0
 22 21  2  0  0  0  0
 24 26  1  0  0  0  0
 24 22  1  0  0  0  0
 25 24  1  0  0  0  0
 26 28  2  0  0  0  0
 27 26  1  0  0  0  0
 28 21  1  0  0  0  0
M  END
>  <minimizedAffinity>
-4.75649595

$$$$

 OpenBabel03272505093D

 28 30  0  0  0  0  0  0  0  0999 V2000
   38.6700   21.7150   33.5810 Cl  0  0  0  0  0  0  0  0  0  0  0  0
   37.7310   23.0430   32.9440 C   0  0  0  0  0  0  0  0  0  0  0  0
   36.6600   22.7330   32.1320 C   0  0  0  0  0  0  0  0  0  0  0  0
   35.9070   23.7760   31.6210 C   0  0  0  0  0  0  0  0  0  0  0  0
   36.2470   25.0720   31.9320 C   0  0  0  0  0  0  0  0  0  0  0  0
   37.3320   25.3200   32.7500 C   0  0  0  0  0  0  0  0  0  0  0  0
   38.1200   24.3300   33.2910 C   0  0  0  0  0  0  0  0  0  0  0  0
   35.0720   23.5310   30.9880 H   0  0  0  0  0  0  0  0  0  0  0  0
   35.6370   25.8680   31.5150 H   0  0  0  0  0  0  0  0  0  0  0  0
   37.5760   26.3540   32.9780 H   0  0  0  0  0  0  0  0  0  0  0  0
   36.7360   19.4850   30.4650 C   0  0  0  0  0  0  0  0  0  0  0  0
   35.8290   18.6990   31.1900 C   0  0  0  0  0  0  0  0  0  0  0  0
   35.1930   19.3130   32.2640 C   0  0  0  0  0  0  0  0  0  0  0  0
   35.4800   20.6170   32.5460 N   0  0  0  0  0  0  0  0  0  0  0  0
   36.3450   21.3260   31.8340 C   0  0  0  0  0  0  0  0  0  0  0  0
   36.9770   20.7580   30.7880 N   0  0  0  0  0  0  0  0  0  0  0  0
   37.2280   19.0030   29.6290 H   0  0  0  0  0  0  0  0  0  0  0  0
   35.5990   17.6760   30.9750 H   0  0  0  0  0  0  0  0  0  0  0  0
   34.4760   18.8050   32.8940 H   0  0  0  0  0  0  0  0  0  0  0  0
   39.5110   24.6160   34.3460 S   0  0  0  0  0  0  0  0  0  0  0  0
   39.3700   23.7930   35.9270 C   0  0  0  0  0  0  0  0  0  0  0  0
   38.3010   23.5970   36.7980 C   0  0  0  0  0  0  0  0  0  0  0  0
   37.3240   23.9830   36.5580 H   0  0  0  0  0  0  0  0  0  0  0  0
   38.7590   22.9000   37.8600 N   0  0  0  0  0  0  0  0  0  0  0  0
   38.1090   22.6460   38.6370 H   0  0  0  0  0  0  0  0  0  0  0  0
   40.0690   22.6780   37.6390 C   0  0  0  0  0  0  0  0  0  0  0  0
   40.5930   22.1190   38.4150 H   0  0  0  0  0  0  0  0  0  0  0  0
   40.4390   23.2210   36.4630 N   0  0  0  0  0  0  0  0  0  0  0  0
  2  7  1  0  0  0  0
  2  1  1  0  0  0  0
  3  2  2  0  0  0  0
  4  5  2  0  0  0  0
  4  3  1  0  0  0  0
  5  6  1  0  0  0  0
  6 10  1  0  0  0  0
  6  7  2  0  0  0  0
  7 20  1  0  0  0  0
  8  4  1  0  0  0  0
  9  5  1  0  0  0  0
 11 16  2  0  0  0  0
 11 12  1  0  0  0  0
 12 13  2  0  0  0  0
 13 14  1  0  0  0  0
 13 19  1  0  0  0  0
 15  3  1  0  0  0  0
 15 14  2  0  0  0  0
 16 15  1  0  0  0  0
 17 11  1  0  0  0  0
 18 12  1  0  0  0  0
 20 21  1  0  0  0  0
 21 28  1  0  0  0  0
 21 22  2  0  0  0  0
 22 24  1  0  0  0  0
 23 22  1  0  0  0  0
 24 25  1  0  0  0  0
 26 24  1  0  0  0  0
 26 27  1  0  0  0  0
 28 26  2  0  0  0  0
M  END
>  <minimizedAffinity>
-4.68378305

$$$$

 OpenBabel03272505093D

 28 30  0  0  0  0  0  0  0  0999 V2000
   39.7400   26.2960   31.8440 Cl  0  0  0  0  0  0  0  0  0  0  0  0
   38.9470   26.8330   33.3060 C   0  0  0  0  0  0  0  0  0  0  0  0
   39.6780   26.8060   34.4740 C   0  0  0  0  0  0  0  0  0  0  0  0
   39.0610   27.2290   35.6390 C   0  0  0  0  0  0  0  0  0  0  0  0
   37.7550   27.6560   35.5960 C   0  0  0  0  0  0  0  0  0  0  0  0
   37.0720   27.6600   34.3940 C   0  0  0  0  0  0  0  0  0  0  0  0
   37.6270   27.2540   33.2030 C   0  0  0  0  0  0  0  0  0  0  0  0
   39.6350   27.2060   36.5490 H   0  0  0  0  0  0  0  0  0  0  0  0
   37.2980   27.9820   36.5260 H   0  0  0  0  0  0  0  0  0  0  0  0
   36.0410   28.0040   34.3920 H   0  0  0  0  0  0  0  0  0  0  0  0
   43.2860   26.8110   33.9110 C   0  0  0  0  0  0  0  0  0  0  0  0
   43.7140   25.5610   34.3810 C   0  0  0  0  0  0  0  0  0  0  0  0
   42.7330   24.7190   34.8940 C   0  0  0  0  0  0  0  0  0  0  0  0
   41.4370   25.1460   34.9120 N   0  0  0  0  0  0  0  0  0  0  0  0
   41.0740   26.3370   34.4580 C   0  0  0  0  0  0  0  0  0  0  0  0
   42.0020   27.1750   33.9550 N   0  0  0  0  0  0  0  0  0  0  0  0
   44.0530   27.4630   33.5120 H   0  0  0  0  0  0  0  0  0  0  0  0
   44.7280   25.2180   34.3700 H   0  0  0  0  0  0  0  0  0  0  0  0
   42.9460   23.7330   35.2840 H   0  0  0  0  0  0  0  0  0  0  0  0
   36.7810   27.2540   31.6490 S   0  0  0  0  0  0  0  0  0  0  0  0
   36.1880   28.8730   31.1760 C   0  0  0  0  0  0  0  0  0  0  0  0
   36.5780   29.7680   30.1830 C   0  0  0  0  0  0  0  0  0  0  0  0
   37.3920   29.5250   29.5180 H   0  0  0  0  0  0  0  0  0  0  0  0
   35.7800   30.8540   30.2720 N   0  0  0  0  0  0  0  0  0  0  0  0
   35.9090   31.6520   29.6100 H   0  0  0  0  0  0  0  0  0  0  0  0
   34.9290   30.6230   31.2900 C   0  0  0  0  0  0  0  0  0  0  0  0
   34.2090   31.4160   31.4950 H   0  0  0  0  0  0  0  0  0  0  0  0
   35.1780   29.4180   31.8380 N   0  0  0  0  0  0  0  0  0  0  0  0
  1  2  1  0  0  0  0
  2  3  1  0  0  0  0
  3  4  2  0  0  0  0
  4  8  1  0  0  0  0
  5  4  1  0  0  0  0
  5  9  1  0  0  0  0
  6  5  2  0  0  0  0
  7  2  2  0  0  0  0
  7  6  1  0  0  0  0
 10  6  1  0  0  0  0
 11 16  2  0  0  0  0
 11 12  1  0  0  0  0
 12 13  2  0  0  0  0
 13 14  1  0  0  0  0
 13 19  1  0  0  0  0
 15  3  1  0  0  0  0
 15 14  2  0  0  0  0
 16 15  1  0  0  0  0
 17 11  1  0  0  0  0
 18 12  1  0  0  0  0
 20  7  1  0  0  0  0
 21 20  1  0  0  0  0
 21 28  1  0  0  0  0
 22 24  1  0  0  0  0
 22 21  2  0  0  0  0
 23 22  1  0  0  0  0
 24 26  1  0  0  0  0
 25 24  1  0  0  0  0
 26 27  1  0  0  0  0
 26 28  2  0  0  0  0
M  END
>  <minimizedAffinity>
-4.67422247

$$$$

 OpenBabel03272505093D

 28 30  0  0  0  0  0  0  0  0999 V2000
   36.6210   28.8240   34.8280 Cl  0  0  0  0  0  0  0  0  0  0  0  0
   36.7480   27.4720   33.7280 C   0  0  0  0  0  0  0  0  0  0  0  0
   36.1400   27.5940   32.4970 C   0  0  0  0  0  0  0  0  0  0  0  0
   36.2340   26.5290   31.6160 C   0  0  0  0  0  0  0  0  0  0  0  0
   36.9200   25.3990   31.9920 C   0  0  0  0  0  0  0  0  0  0  0  0
   37.5080   25.3340   33.2410 C   0  0  0  0  0  0  0  0  0  0  0  0
   37.4530   26.3550   34.1610 C   0  0  0  0  0  0  0  0  0  0  0  0
   35.7580   26.6290   30.6560 H   0  0  0  0  0  0  0  0  0  0  0  0
   36.9750   24.5810   31.2790 H   0  0  0  0  0  0  0  0  0  0  0  0
   38.0430   24.4270   33.5080 H   0  0  0  0  0  0  0  0  0  0  0  0
   35.4590   30.8610   31.0130 C   0  0  0  0  0  0  0  0  0  0  0  0
   34.1620   31.1750   31.4440 C   0  0  0  0  0  0  0  0  0  0  0  0
   33.5300   30.2380   32.2540 C   0  0  0  0  0  0  0  0  0  0  0  0
   34.1920   29.0900   32.5790 N   0  0  0  0  0  0  0  0  0  0  0  0
   35.4200   28.8300   32.1510 C   0  0  0  0  0  0  0  0  0  0  0  0
   36.0570   29.7190   31.3640 N   0  0  0  0  0  0  0  0  0  0  0  0
   35.9480   31.5930   30.3830 H   0  0  0  0  0  0  0  0  0  0  0  0
   33.6370   32.0730   31.1930 H   0  0  0  0  0  0  0  0  0  0  0  0
   32.5310   30.3730   32.6450 H   0  0  0  0  0  0  0  0  0  0  0  0
   38.2010   26.3050   35.7630 S   0  0  0  0  0  0  0  0  0  0  0  0
   38.3910   24.6430   36.3930 C   0  0  0  0  0  0  0  0  0  0  0  0
   37.6130   23.8590   37.2420 C   0  0  0  0  0  0  0  0  0  0  0  0
   36.6940   24.2470   37.6510 H   0  0  0  0  0  0  0  0  0  0  0  0
   38.2330   22.6690   37.3860 N   0  0  0  0  0  0  0  0  0  0  0  0
   37.8090   21.9290   37.9900 H   0  0  0  0  0  0  0  0  0  0  0  0
   39.3570   22.7280   36.6450 C   0  0  0  0  0  0  0  0  0  0  0  0
   39.9790   21.8320   36.6550 H   0  0  0  0  0  0  0  0  0  0  0  0
   39.4510   23.9290   36.0420 N   0  0  0  0  0  0  0  0  0  0  0  0
  2  7  1  0  0  0  0
  2  1  1  0  0  0  0
  3  2  2  0  0  0  0
  4  5  2  0  0  0  0
  4  3  1  0  0  0  0
  5  6  1  0  0  0  0
  6 10  1  0  0  0  0
  6  7  2  0  0  0  0
  7 20  1  0  0  0  0
  8  4  1  0  0  0  0
  9  5  1  0  0  0  0
 11 16  2  0  0  0  0
 11 12  1  0  0  0  0
 12 13  2  0  0  0  0
 13 14  1  0  0  0  0
 13 19  1  0  0  0  0
 15  3  1  0  0  0  0
 15 14  2  0  0  0  0
 16 15  1  0  0  0  0
 17 11  1  0  0  0  0
 18 12  1  0  0  0  0
 20 21  1  0  0  0  0
 21 22  2  0  0  0  0
 22 24  1  0  0  0  0
 22 23  1  0  0  0  0
 24 25  1  0  0  0  0
 26 27  1  0  0  0  0
 26 24  1  0  0  0  0
 28 21  1  0  0  0  0
 28 26  2  0  0  0  0
M  END
>  <minimizedAffinity>
-4.61132002

$$$$

 OpenBabel03272505093D

 28 30  0  0  0  0  0  0  0  0999 V2000
   36.5300   28.0830   34.8050 Cl  0  0  0  0  0  0  0  0  0  0  0  0
   36.3180   28.8460   33.2470 C   0  0  0  0  0  0  0  0  0  0  0  0
   35.5910   30.0170   33.2060 C   0  0  0  0  0  0  0  0  0  0  0  0
   35.4150   30.6310   31.9780 C   0  0  0  0  0  0  0  0  0  0  0  0
   35.9620   30.0620   30.8520 C   0  0  0  0  0  0  0  0  0  0  0  0
   36.6810   28.8860   30.9560 C   0  0  0  0  0  0  0  0  0  0  0  0
   36.8920   28.2270   32.1450 C   0  0  0  0  0  0  0  0  0  0  0  0
   34.8480   31.5450   31.9490 H   0  0  0  0  0  0  0  0  0  0  0  0
   35.8070   30.5680   29.9030 H   0  0  0  0  0  0  0  0  0  0  0  0
   37.1010   28.4610   30.0490 H   0  0  0  0  0  0  0  0  0  0  0  0
   35.3850   31.9040   36.3260 C   0  0  0  0  0  0  0  0  0  0  0  0
   34.0780   31.6810   36.7820 C   0  0  0  0  0  0  0  0  0  0  0  0
   33.2730   30.8680   35.9920 C   0  0  0  0  0  0  0  0  0  0  0  0
   33.7860   30.3430   34.8420 N   0  0  0  0  0  0  0  0  0  0  0  0
   35.0290   30.5790   34.4450 C   0  0  0  0  0  0  0  0  0  0  0  0
   35.8330   31.3630   35.1900 N   0  0  0  0  0  0  0  0  0  0  0  0
   36.0100   32.5360   36.9450 H   0  0  0  0  0  0  0  0  0  0  0  0
   33.6680   32.0880   37.6830 H   0  0  0  0  0  0  0  0  0  0  0  0
   32.2490   30.6270   36.2440 H   0  0  0  0  0  0  0  0  0  0  0  0
   37.8120   26.7240   32.3100 S   0  0  0  0  0  0  0  0  0  0  0  0
   36.8470   25.2690   31.9270 C   0  0  0  0  0  0  0  0  0  0  0  0
   35.6440   25.0840   31.2490 C   0  0  0  0  0  0  0  0  0  0  0  0
   35.1150   25.9290   30.8380 H   0  0  0  0  0  0  0  0  0  0  0  0
   35.3700   23.7630   31.2500 N   0  0  0  0  0  0  0  0  0  0  0  0
   34.5020   23.4090   30.7880 H   0  0  0  0  0  0  0  0  0  0  0  0
   36.3790   23.1610   31.9110 C   0  0  0  0  0  0  0  0  0  0  0  0
   36.3060   22.0760   32.0010 H   0  0  0  0  0  0  0  0  0  0  0  0
   37.2760   24.0790   32.3200 N   0  0  0  0  0  0  0  0  0  0  0  0
  2  1  1  0  0  0  0
  3  2  1  0  0  0  0
  3 15  1  0  0  0  0
  4  3  2  0  0  0  0
  5  6  2  0  0  0  0
  5  4  1  0  0  0  0
  6  7  1  0  0  0  0
  7 20  1  0  0  0  0
  7  2  2  0  0  0  0
  8  4  1  0  0  0  0
  9  5  1  0  0  0  0
 10  6  1  0  0  0  0
 11 12  1  0  0  0  0
 11 17  1  0  0  0  0
 12 18  1  0  0  0  0
 13 19  1  0  0  0  0
 13 12  2  0  0  0  0
 14 13  1  0  0  0  0
 15 14  2  0  0  0  0
 15 16  1  0  0  0  0
 16 11  2  0  0  0  0
 21 20  1  0  0  0  0
 21 28  1  0  0  0  0
 22 24  1  0  0  0  0
 22 21  2  0  0  0  0
 23 22  1  0  0  0  0
 24 26  1  0  0  0  0
 25 24  1  0  0  0  0
 26 27  1  0  0  0  0
 26 28  2  0  0  0  0
M  END
>  <minimizedAffinity>
-4.60899925

$$$$

 OpenBabel03272505093D

 28 30  0  0  0  0  0  0  0  0999 V2000
   36.3750   28.3370   34.5600 Cl  0  0  0  0  0  0  0  0  0  0  0  0
   36.2060   29.3010   33.1130 C   0  0  0  0  0  0  0  0  0  0  0  0
   35.5170   30.4910   33.2180 C   0  0  0  0  0  0  0  0  0  0  0  0
   35.3770   31.2650   32.0780 C   0  0  0  0  0  0  0  0  0  0  0  0
   35.9190   30.8280   30.8930 C   0  0  0  0  0  0  0  0  0  0  0  0
   36.5990   29.6250   30.8490 C   0  0  0  0  0  0  0  0  0  0  0  0
   36.7740   28.8110   31.9440 C   0  0  0  0  0  0  0  0  0  0  0  0
   34.8390   32.1930   32.1640 H   0  0  0  0  0  0  0  0  0  0  0  0
   35.7920   31.4570   30.0170 H   0  0  0  0  0  0  0  0  0  0  0  0
   37.0160   29.3070   29.8980 H   0  0  0  0  0  0  0  0  0  0  0  0
   33.1150   30.9060   35.9370 C   0  0  0  0  0  0  0  0  0  0  0  0
   33.8150   31.6320   36.9120 C   0  0  0  0  0  0  0  0  0  0  0  0
   35.1290   31.9740   36.6110 C   0  0  0  0  0  0  0  0  0  0  0  0
   35.6540   31.5930   35.4100 N   0  0  0  0  0  0  0  0  0  0  0  0
   34.9580   30.9060   34.5150 C   0  0  0  0  0  0  0  0  0  0  0  0
   33.6830   30.5610   34.7790 N   0  0  0  0  0  0  0  0  0  0  0  0
   32.0920   30.6430   36.1750 H   0  0  0  0  0  0  0  0  0  0  0  0
   33.4100   31.9350   37.8560 H   0  0  0  0  0  0  0  0  0  0  0  0
   35.7630   32.5320   37.2860 H   0  0  0  0  0  0  0  0  0  0  0  0
   37.6430   27.2700   31.9210 S   0  0  0  0  0  0  0  0  0  0  0  0
   36.5840   25.8760   31.5620 C   0  0  0  0  0  0  0  0  0  0  0  0
   36.7730   24.4980   31.6490 C   0  0  0  0  0  0  0  0  0  0  0  0
   37.7140   24.0980   31.9900 H   0  0  0  0  0  0  0  0  0  0  0  0
   35.6310   23.9010   31.2500 N   0  0  0  0  0  0  0  0  0  0  0  0
   35.5630   22.8580   31.2400 H   0  0  0  0  0  0  0  0  0  0  0  0
   34.7710   24.8870   30.9290 C   0  0  0  0  0  0  0  0  0  0  0  0
   33.7880   24.5660   30.5830 H   0  0  0  0  0  0  0  0  0  0  0  0
   35.3520   26.0880   31.1210 N   0  0  0  0  0  0  0  0  0  0  0  0
  2  3  1  0  0  0  0
  2  1  1  0  0  0  0
  3 15  1  0  0  0  0
  4  8  1  0  0  0  0
  4  3  2  0  0  0  0
  5  4  1  0  0  0  0
  6  5  2  0  0  0  0
  6  7  1  0  0  0  0
  7  2  2  0  0  0  0
  9  5  1  0  0  0  0
 10  6  1  0  0  0  0
 11 17  1  0  0  0  0
 11 12  1  0  0  0  0
 12 18  1  0  0  0  0
 13 12  2  0  0  0  0
 13 19  1  0  0  0  0
 14 13  1  0  0  0  0
 15 16  1  0  0  0  0
 15 14  2  0  0  0  0
 16 11  2  0  0  0  0
 20  7  1  0  0  0  0
 21 22  2  0  0  0  0
 21 20  1  0  0  0  0
 22 23  1  0  0  0  0
 24 22  1  0  0  0  0
 25 24  1  0  0  0  0
 26 28  2  0  0  0  0
 26 24  1  0  0  0  0
 27 26  1  0  0  0  0
 28 21  1  0  0  0  0
M  END
>  <minimizedAffinity>
-4.57834816

$$$$

 OpenBabel03272505093D

 28 30  0  0  0  0  0  0  0  0999 V2000
   36.5660   27.9060   34.8920 Cl  0  0  0  0  0  0  0  0  0  0  0  0
   36.4500   28.6280   33.3060 C   0  0  0  0  0  0  0  0  0  0  0  0
   35.7280   29.7970   33.1900 C   0  0  0  0  0  0  0  0  0  0  0  0
   35.6280   30.3790   31.9380 C   0  0  0  0  0  0  0  0  0  0  0  0
   36.2420   29.7820   30.8620 C   0  0  0  0  0  0  0  0  0  0  0  0
   36.9510   28.6090   31.0400 C   0  0  0  0  0  0  0  0  0  0  0  0
   37.0900   27.9800   32.2560 C   0  0  0  0  0  0  0  0  0  0  0  0
   35.0640   31.2920   31.8510 H   0  0  0  0  0  0  0  0  0  0  0  0
   36.1450   30.2620   29.8930 H   0  0  0  0  0  0  0  0  0  0  0  0
   37.4250   28.1600   30.1720 H   0  0  0  0  0  0  0  0  0  0  0  0
   35.3390   31.7550   36.2480 C   0  0  0  0  0  0  0  0  0  0  0  0
   34.0030   31.5520   36.6240 C   0  0  0  0  0  0  0  0  0  0  0  0
   33.2430   30.7270   35.8010 C   0  0  0  0  0  0  0  0  0  0  0  0
   33.8250   30.1730   34.6980 N   0  0  0  0  0  0  0  0  0  0  0  0
   35.0930   30.3910   34.3780 C   0  0  0  0  0  0  0  0  0  0  0  0
   35.8540   31.1850   35.1560 N   0  0  0  0  0  0  0  0  0  0  0  0
   35.9280   32.3970   36.8920 H   0  0  0  0  0  0  0  0  0  0  0  0
   33.5400   31.9820   37.4870 H   0  0  0  0  0  0  0  0  0  0  0  0
   32.2030   30.5000   35.9920 H   0  0  0  0  0  0  0  0  0  0  0  0
   37.9950   26.4830   32.5160 S   0  0  0  0  0  0  0  0  0  0  0  0
   39.5840   26.7530   33.2910 C   0  0  0  0  0  0  0  0  0  0  0  0
   40.0520   26.5380   34.5850 C   0  0  0  0  0  0  0  0  0  0  0  0
   39.4000   26.1310   35.3410 H   0  0  0  0  0  0  0  0  0  0  0  0
   41.3460   26.9220   34.6230 N   0  0  0  0  0  0  0  0  0  0  0  0
   41.8890   26.8410   35.5120 H   0  0  0  0  0  0  0  0  0  0  0  0
   41.6550   27.3570   33.3860 C   0  0  0  0  0  0  0  0  0  0  0  0
   42.6790   27.7070   33.2480 H   0  0  0  0  0  0  0  0  0  0  0  0
   40.5820   27.2530   32.5770 N   0  0  0  0  0  0  0  0  0  0  0  0
  2  1  1  0  0  0  0
  3  2  1  0  0  0  0
  3 15  1  0  0  0  0
  4  3  2  0  0  0  0
  5  6  2  0  0  0  0
  5  4  1  0  0  0  0
  6  7  1  0  0  0  0
  7 20  1  0  0  0  0
  7  2  2  0  0  0  0
  8  4  1  0  0  0  0
  9  5  1  0  0  0  0
 10  6  1  0  0  0  0
 11 12  1  0  0  0  0
 11 17  1  0  0  0  0
 12 18  1  0  0  0  0
 13 19  1  0  0  0  0
 13 12  2  0  0  0  0
 14 13  1  0  0  0  0
 15 14  2  0  0  0  0
 15 16  1  0  0  0  0
 16 11  2  0  0  0  0
 20 21  1  0  0  0  0
 21 22  2  0  0  0  0
 22 24  1  0  0  0  0
 22 23  1  0  0  0  0
 24 25  1  0  0  0  0
 26 24  1  0  0  0  0
 27 26  1  0  0  0  0
 28 21  1  0  0  0  0
 28 26  2  0  0  0  0
M  END
>  <minimizedAffinity>
-4.5432992

$$$$
