
 OpenBabel03272502333D

 35 37  0  0  1  0  0  0  0  0999 V2000
   35.6610   29.7840   48.1470 C   0  0  0  0  0  0  0  0  0  0  0  0
   36.6700   30.4840   47.7430 C   0  0  0  0  0  0  0  0  0  0  0  0
   33.4900   29.6730   45.1190 C   0  0  0  0  0  0  0  0  0  0  0  0
   34.5500   29.8930   45.9830 C   0  0  0  0  0  0  0  0  0  0  0  0
   34.5200   29.5110   47.2980 C   0  0  0  0  0  0  0  0  0  0  0  0
   33.4000   28.9030   47.7160 N   0  0  0  0  0  0  0  0  0  0  0  0
   32.3740   28.6820   46.9040 C   0  0  0  0  0  0  0  0  0  0  0  0
   32.4040   29.0590   45.6120 N   0  0  0  0  0  0  0  0  0  0  0  0
   33.4650   29.9530   44.0810 H   0  0  0  0  0  0  0  0  0  0  0  0
   35.3580   30.3880   45.4780 H   0  0  0  0  0  0  0  0  0  0  0  0
   31.1410   28.0180   47.3520 C   0  0  0  0  0  0  0  0  0  0  0  0
   29.9570   27.6700   46.7290 C   0  0  0  0  0  0  0  0  0  0  0  0
   29.8150   27.8960   45.6860 H   0  0  0  0  0  0  0  0  0  0  0  0
   29.2190   27.0820   47.6830 N   0  0  0  0  0  0  0  0  0  0  0  0
   28.2540   26.7170   47.4680 H   0  0  0  0  0  0  0  0  0  0  0  0
   29.9110   27.0600   48.8560 C   0  0  0  0  0  0  0  0  0  0  0  0
   29.5370   26.6380   49.7850 H   0  0  0  0  0  0  0  0  0  0  0  0
   31.1070   27.6410   48.6550 N   0  0  0  0  0  0  0  0  0  0  0  0
   37.7930   30.7090   48.7130 C   0  0  1  0  0  0  0  0  0  0  0  0
   38.4090   29.7930   48.7820 H   0  0  0  0  0  0  0  0  0  0  0  0
   38.5730   31.8870   48.3010 C   0  0  0  0  0  0  0  0  0  0  0  0
   38.6680   32.8750   49.3160 C   0  0  0  0  0  0  0  0  0  0  0  0
   39.3460   34.0610   49.1590 C   0  0  0  0  0  0  0  0  0  0  0  0
   39.9980   34.3590   47.9500 C   0  0  0  0  0  0  0  0  0  0  0  0
   39.8560   33.3410   47.0140 C   0  0  0  0  0  0  0  0  0  0  0  0
   39.2020   32.1800   47.1410 N   0  0  0  0  0  0  0  0  0  0  0  0
   38.2530   32.8800   50.3330 H   0  0  0  0  0  0  0  0  0  0  0  0
   39.4560   34.8520   49.8870 H   0  0  0  0  0  0  0  0  0  0  0  0
   40.5580   35.2100   47.6610 H   0  0  0  0  0  0  0  0  0  0  0  0
   40.3060   33.4220   46.0220 H   0  0  0  0  0  0  0  0  0  0  0  0
   37.0410   31.1390   50.3200 S   0  0  0  0  0  0  0  0  0  0  0  0
   36.9930   29.7250   51.4050 C   0  0  0  0  0  0  0  0  0  0  0  0
   37.6520   29.9340   52.6050 F   0  0  0  0  0  0  0  0  0  0  0  0
   35.7090   29.2670   51.6030 F   0  0  0  0  0  0  0  0  0  0  0  0
   37.6580   28.6820   50.7270 F   0  0  0  0  0  0  0  0  0  0  0  0
  2  1  2  0  0  0  0
  2 19  1  0  0  0  0
  3  8  2  0  0  0  0
  3  4  1  0  0  0  0
  4  5  2  0  0  0  0
  5  6  1  0  0  0  0
  5  1  1  0  0  0  0
  7 11  1  0  0  0  0
  7  6  2  0  0  0  0
  8  7  1  0  0  0  0
  9  3  1  0  0  0  0
 10  4  1  0  0  0  0
 11 18  1  0  0  0  0
 12 11  2  0  0  0  0
 12 14  1  0  0  0  0
 13 12  1  0  0  0  0
 14 16  1  0  0  0  0
 15 14  1  0  0  0  0
 16 17  1  0  0  0  0
 18 16  2  0  0  0  0
 19 20  1  1  0  0  0
 19 31  1  0  0  0  0
 21 19  1  0  0  0  0
 21 22  1  0  0  0  0
 22 27  1  0  0  0  0
 23 22  2  0  0  0  0
 23 28  1  0  0  0  0
 24 23  1  0  0  0  0
 25 26  1  0  0  0  0
 25 24  2  0  0  0  0
 26 21  2  0  0  0  0
 29 24  1  0  0  0  0
 30 25  1  0  0  0  0
 31 32  1  0  0  0  0
 32 34  1  0  0  0  0
 32 33  1  0  0  0  0
 35 32  1  0  0  0  0
M  END
>  <minimizedAffinity>
-6.41361046

>  <minimizedRMSD>
0.563464105

$$$$
