
 OpenBabel03272506033D

 45 48  0  0  1  0  0  0  0  0999 V2000
   37.8900   26.1510   33.1340 C   0  0  2  0  0  0  0  0  0  0  0  0
   38.9790   25.3700   33.7030 C   0  0  0  0  0  0  0  0  0  0  0  0
   38.8470   25.1930   35.2450 C   0  0  2  0  0  0  0  0  0  0  0  0
   38.8070   26.4450   35.9650 C   0  0  0  0  0  0  0  0  0  0  0  0
   37.9970   27.5340   35.2610 C   0  0  0  0  0  0  0  0  0  0  0  0
   37.1220   26.9500   34.1940 C   0  0  0  0  0  0  0  0  0  0  0  0
   38.2830   26.9690   32.4580 H   0  0  0  0  0  0  0  0  0  0  0  0
   39.9330   26.0020   33.6530 H   0  0  0  0  0  0  0  0  0  0  0  0
   39.2710   24.4080   33.3500 H   0  0  0  0  0  0  0  0  0  0  0  0
   37.9740   24.5360   35.3910 H   0  0  0  0  0  0  0  0  0  0  0  0
   39.8160   26.8830   36.0850 H   0  0  0  0  0  0  0  0  0  0  0  0
   38.4380   26.2670   36.9950 H   0  0  0  0  0  0  0  0  0  0  0  0
   38.6100   28.3520   34.8720 H   0  0  0  0  0  0  0  0  0  0  0  0
   37.3100   27.9550   36.0230 H   0  0  0  0  0  0  0  0  0  0  0  0
   36.5850   27.7740   33.6940 H   0  0  0  0  0  0  0  0  0  0  0  0
   36.3890   26.2530   34.6390 H   0  0  0  0  0  0  0  0  0  0  0  0
   38.4030   22.9400   37.0970 Cl  0  0  0  0  0  0  0  0  0  0  0  0
   39.9830   23.3530   36.4890 C   0  0  0  0  0  0  0  0  0  0  0  0
   40.0580   24.3980   35.6020 C   0  0  0  0  0  0  0  0  0  0  0  0
   41.3440   24.6390   35.1440 C   0  0  0  0  0  0  0  0  0  0  0  0
   42.4450   23.9050   35.5400 C   0  0  0  0  0  0  0  0  0  0  0  0
   42.2830   22.8590   36.4480 C   0  0  0  0  0  0  0  0  0  0  0  0
   41.0080   22.5770   36.9360 C   0  0  0  0  0  0  0  0  0  0  0  0
   41.4920   25.4440   34.4360 H   0  0  0  0  0  0  0  0  0  0  0  0
   43.4040   24.1690   35.1280 H   0  0  0  0  0  0  0  0  0  0  0  0
   43.1340   22.2740   36.7690 H   0  0  0  0  0  0  0  0  0  0  0  0
   40.8410   21.5140   37.8590 N   0  0  0  0  0  0  0  0  0  0  0  0
   40.5480   20.5220   37.7000 H   0  0  0  0  0  0  0  0  0  0  0  0
   41.0090   21.6210   38.8830 H   0  0  0  0  0  0  0  0  0  0  0  0
   36.8930   25.4180   32.3590 C   0  0  0  0  0  0  0  0  0  0  0  0
   36.0460   26.2290   31.6190 C   0  0  0  0  0  0  0  0  0  0  0  0
   35.0730   25.6320   30.8230 C   0  0  0  0  0  0  0  0  0  0  0  0
   34.9990   24.2350   30.8100 N   0  0  0  0  0  0  0  0  0  0  0  0
   35.8370   23.4910   31.5410 C   0  0  0  0  0  0  0  0  0  0  0  0
   36.7580   24.1060   32.2930 N   0  0  0  0  0  0  0  0  0  0  0  0
   35.8780   27.2820   31.4440 H   0  0  0  0  0  0  0  0  0  0  0  0
   34.3190   26.0190   30.1750 H   0  0  0  0  0  0  0  0  0  0  0  0
   35.7620   22.0340   31.5310 C   0  0  0  0  0  0  0  0  0  0  0  0
   36.4350   21.0630   30.8260 C   0  0  0  0  0  0  0  0  0  0  0  0
   37.1970   21.3060   30.1050 H   0  0  0  0  0  0  0  0  0  0  0  0
   35.9300   19.8870   31.2480 N   0  0  0  0  0  0  0  0  0  0  0  0
   36.2720   18.9640   30.8650 H   0  0  0  0  0  0  0  0  0  0  0  0
   34.9770   20.0660   32.1760 C   0  0  0  0  0  0  0  0  0  0  0  0
   34.4210   19.2640   32.6660 H   0  0  0  0  0  0  0  0  0  0  0  0
   34.8750   21.4080   32.3510 N   0  0  0  0  0  0  0  0  0  0  0  0
  1  7  1  6  0  0  0
  1  2  1  0  0  0  0
  1  6  1  0  0  0  0
  2  3  1  0  0  0  0
  3 10  1  1  0  0  0
  3 19  1  0  0  0  0
  3  4  1  0  0  0  0
  4 11  1  0  0  0  0
  4 12  1  0  0  0  0
  5  4  1  0  0  0  0
  5 14  1  0  0  0  0
  6 16  1  0  0  0  0
  6  5  1  0  0  0  0
  8  2  1  0  0  0  0
  9  2  1  0  0  0  0
 13  5  1  0  0  0  0
 15  6  1  0  0  0  0
 18 23  1  0  0  0  0
 18 17  1  0  0  0  0
 19 18  2  0  0  0  0
 20 21  2  0  0  0  0
 20 19  1  0  0  0  0
 21 22  1  0  0  0  0
 22 26  1  0  0  0  0
 22 23  2  0  0  0  0
 23 27  1  0  0  0  0
 24 20  1  0  0  0  0
 25 21  1  0  0  0  0
 27 29  1  0  0  0  0
 28 27  1  0  0  0  0
 30  1  1  0  0  0  0
 31 30  2  0  0  0  0
 32 31  1  0  0  0  0
 33 32  2  0  0  0  0
 33 34  1  0  0  0  0
 34 35  2  0  0  0  0
 35 30  1  0  0  0  0
 36 31  1  0  0  0  0
 37 32  1  0  0  0  0
 38 34  1  0  0  0  0
 38 45  1  0  0  0  0
 39 41  1  0  0  0  0
 39 38  2  0  0  0  0
 40 39  1  0  0  0  0
 41 43  1  0  0  0  0
 42 41  1  0  0  0  0
 43 45  2  0  0  0  0
 43 44  1  0  0  0  0
M  END
>  <minimizedAffinity>
-6.77974749

$$$$

 OpenBabel03272506033D

 45 48  0  0  1  0  0  0  0  0999 V2000
   37.9820   27.2220   33.2140 C   0  0  2  0  0  0  0  0  0  0  0  0
   37.1660   28.1530   33.9800 C   0  0  0  0  0  0  0  0  0  0  0  0
   35.9160   28.6450   33.1900 C   0  0  2  0  0  0  0  0  0  0  0  0
   36.2440   29.3000   31.9440 C   0  0  0  0  0  0  0  0  0  0  0  0
   37.4000   28.6420   31.1900 C   0  0  0  0  0  0  0  0  0  0  0  0
   37.6700   27.2640   31.7120 C   0  0  0  0  0  0  0  0  0  0  0  0
   39.0730   27.5190   33.2380 H   0  0  0  0  0  0  0  0  0  0  0  0
   37.7450   29.1370   34.0740 H   0  0  0  0  0  0  0  0  0  0  0  0
   36.8000   27.9580   34.9610 H   0  0  0  0  0  0  0  0  0  0  0  0
   35.2600   27.7630   33.1010 H   0  0  0  0  0  0  0  0  0  0  0  0
   36.5740   30.3440   32.1040 H   0  0  0  0  0  0  0  0  0  0  0  0
   35.3350   29.3690   31.3140 H   0  0  0  0  0  0  0  0  0  0  0  0
   38.3110   29.2490   31.1710 H   0  0  0  0  0  0  0  0  0  0  0  0
   37.0560   28.5110   30.1450 H   0  0  0  0  0  0  0  0  0  0  0  0
   38.5300   26.8460   31.1630 H   0  0  0  0  0  0  0  0  0  0  0  0
   36.7880   26.6170   31.5590 H   0  0  0  0  0  0  0  0  0  0  0  0
   32.9840   28.8700   32.9530 Cl  0  0  0  0  0  0  0  0  0  0  0  0
   33.9030   29.8060   34.0990 C   0  0  0  0  0  0  0  0  0  0  0  0
   35.2580   29.5850   34.1430 C   0  0  0  0  0  0  0  0  0  0  0  0
   35.9080   30.3460   35.1020 C   0  0  0  0  0  0  0  0  0  0  0  0
   35.2620   31.2410   35.9320 C   0  0  0  0  0  0  0  0  0  0  0  0
   33.8810   31.4080   35.8220 C   0  0  0  0  0  0  0  0  0  0  0  0
   33.1830   30.6640   34.8720 C   0  0  0  0  0  0  0  0  0  0  0  0
   36.9790   30.2290   35.2080 H   0  0  0  0  0  0  0  0  0  0  0  0
   35.8540   31.7870   36.6470 H   0  0  0  0  0  0  0  0  0  0  0  0
   33.3600   32.1040   36.4640 H   0  0  0  0  0  0  0  0  0  0  0  0
   31.7810   30.8320   34.7590 N   0  0  0  0  0  0  0  0  0  0  0  0
   30.9980   30.2700   35.1680 H   0  0  0  0  0  0  0  0  0  0  0  0
   31.3450   31.6010   34.2060 H   0  0  0  0  0  0  0  0  0  0  0  0
   37.9250   25.8190   33.6130 C   0  0  0  0  0  0  0  0  0  0  0  0
   37.4750   24.9660   32.6180 C   0  0  0  0  0  0  0  0  0  0  0  0
   37.4070   23.6020   32.8840 C   0  0  0  0  0  0  0  0  0  0  0  0
   37.8000   23.1580   34.1510 N   0  0  0  0  0  0  0  0  0  0  0  0
   38.2280   24.0170   35.0830 C   0  0  0  0  0  0  0  0  0  0  0  0
   38.2770   25.3210   34.7850 N   0  0  0  0  0  0  0  0  0  0  0  0
   37.1210   25.0250   31.5980 H   0  0  0  0  0  0  0  0  0  0  0  0
   37.1050   22.7580   32.3050 H   0  0  0  0  0  0  0  0  0  0  0  0
   38.6360   23.5580   36.4060 C   0  0  0  0  0  0  0  0  0  0  0  0
   39.6120   22.6900   36.8400 C   0  0  0  0  0  0  0  0  0  0  0  0
   40.2720   22.1850   36.1550 H   0  0  0  0  0  0  0  0  0  0  0  0
   39.5090   22.6650   38.1830 N   0  0  0  0  0  0  0  0  0  0  0  0
   40.1470   22.0710   38.7800 H   0  0  0  0  0  0  0  0  0  0  0  0
   38.5240   23.4670   38.6160 C   0  0  0  0  0  0  0  0  0  0  0  0
   38.2490   23.6130   39.6620 H   0  0  0  0  0  0  0  0  0  0  0  0
   37.9810   24.0240   37.5040 N   0  0  0  0  0  0  0  0  0  0  0  0
  1  7  1  1  0  0  0
  1 30  1  0  0  0  0
  1  2  1  0  0  0  0
  2  8  1  0  0  0  0
  2  9  1  0  0  0  0
  3 10  1  6  0  0  0
  3  2  1  0  0  0  0
  3 19  1  0  0  0  0
  4 11  1  0  0  0  0
  4  3  1  0  0  0  0
  5  6  1  0  0  0  0
  5  4  1  0  0  0  0
  6  1  1  0  0  0  0
 12  4  1  0  0  0  0
 13  5  1  0  0  0  0
 14  5  1  0  0  0  0
 15  6  1  0  0  0  0
 16  6  1  0  0  0  0
 17 18  1  0  0  0  0
 18 19  2  0  0  0  0
 18 23  1  0  0  0  0
 19 20  1  0  0  0  0
 20 24  1  0  0  0  0
 20 21  2  0  0  0  0
 21 25  1  0  0  0  0
 22 21  1  0  0  0  0
 22 26  1  0  0  0  0
 23 22  2  0  0  0  0
 27 23  1  0  0  0  0
 27 28  1  0  0  0  0
 29 27  1  0  0  0  0
 30 35  1  0  0  0  0
 31 32  1  0  0  0  0
 31 30  2  0  0  0  0
 32 33  2  0  0  0  0
 33 34  1  0  0  0  0
 34 38  1  0  0  0  0
 35 34  2  0  0  0  0
 36 31  1  0  0  0  0
 37 32  1  0  0  0  0
 38 39  2  0  0  0  0
 38 45  1  0  0  0  0
 39 41  1  0  0  0  0
 40 39  1  0  0  0  0
 41 43  1  0  0  0  0
 41 42  1  0  0  0  0
 43 44  1  0  0  0  0
 45 43  2  0  0  0  0
M  END
>  <minimizedAffinity>
-6.51877928

$$$$

 OpenBabel03272506033D

 45 48  0  0  1  0  0  0  0  0999 V2000
   37.0030   28.3320   33.5530 C   0  0  2  0  0  0  0  0  0  0  0  0
   36.0470   28.8960   34.4950 C   0  0  0  0  0  0  0  0  0  0  0  0
   34.7160   29.3290   33.8110 C   0  0  2  0  0  0  0  0  0  0  0  0
   34.9000   30.3060   32.7630 C   0  0  0  0  0  0  0  0  0  0  0  0
   36.1420   30.0610   31.9040 C   0  0  0  0  0  0  0  0  0  0  0  0
   36.6630   28.6700   32.0950 C   0  0  0  0  0  0  0  0  0  0  0  0
   38.0240   28.8040   33.6730 H   0  0  0  0  0  0  0  0  0  0  0  0
   36.4430   29.9170   34.8320 H   0  0  0  0  0  0  0  0  0  0  0  0
   35.7390   28.4130   35.3930 H   0  0  0  0  0  0  0  0  0  0  0  0
   34.2270   28.3910   33.5010 H   0  0  0  0  0  0  0  0  0  0  0  0
   35.0410   31.3250   33.1710 H   0  0  0  0  0  0  0  0  0  0  0  0
   33.9820   30.3600   32.1430 H   0  0  0  0  0  0  0  0  0  0  0  0
   36.9290   30.8070   32.0520 H   0  0  0  0  0  0  0  0  0  0  0  0
   35.8080   30.1210   30.8490 H   0  0  0  0  0  0  0  0  0  0  0  0
   37.5740   28.5520   31.4850 H   0  0  0  0  0  0  0  0  0  0  0  0
   35.9080   27.9300   31.7720 H   0  0  0  0  0  0  0  0  0  0  0  0
   35.8960   31.6520   35.1960 Cl  0  0  0  0  0  0  0  0  0  0  0  0
   34.3840   30.9390   35.6880 C   0  0  0  0  0  0  0  0  0  0  0  0
   33.9170   29.8860   34.9410 C   0  0  0  0  0  0  0  0  0  0  0  0
   32.6960   29.4000   35.3800 C   0  0  0  0  0  0  0  0  0  0  0  0
   32.0130   29.9180   36.4640 C   0  0  0  0  0  0  0  0  0  0  0  0
   32.5590   30.9890   37.1710 C   0  0  0  0  0  0  0  0  0  0  0  0
   33.7850   31.5140   36.7670 C   0  0  0  0  0  0  0  0  0  0  0  0
   32.2520   28.5710   34.8430 H   0  0  0  0  0  0  0  0  0  0  0  0
   31.0700   29.4720   36.7290 H   0  0  0  0  0  0  0  0  0  0  0  0
   32.0380   31.4070   38.0220 H   0  0  0  0  0  0  0  0  0  0  0  0
   34.3410   32.6020   37.4840 N   0  0  0  0  0  0  0  0  0  0  0  0
   34.3060   33.6300   37.2870 H   0  0  0  0  0  0  0  0  0  0  0  0
   34.8920   32.4800   38.3610 H   0  0  0  0  0  0  0  0  0  0  0  0
   37.2060   26.8870   33.6100 C   0  0  0  0  0  0  0  0  0  0  0  0
   37.1040   26.2530   32.3810 C   0  0  0  0  0  0  0  0  0  0  0  0
   37.3050   24.8780   32.3180 C   0  0  0  0  0  0  0  0  0  0  0  0
   37.6030   24.2000   33.5050 N   0  0  0  0  0  0  0  0  0  0  0  0
   37.6910   24.8520   34.6700 C   0  0  0  0  0  0  0  0  0  0  0  0
   37.4890   26.1750   34.6870 N   0  0  0  0  0  0  0  0  0  0  0  0
   36.8950   26.5080   31.3520 H   0  0  0  0  0  0  0  0  0  0  0  0
   37.2850   24.1720   31.5190 H   0  0  0  0  0  0  0  0  0  0  0  0
   37.9990   24.1490   35.9110 C   0  0  0  0  0  0  0  0  0  0  0  0
   38.3290   22.8440   36.1940 C   0  0  0  0  0  0  0  0  0  0  0  0
   38.4080   22.0950   35.4240 H   0  0  0  0  0  0  0  0  0  0  0  0
   38.5020   22.7910   37.5290 N   0  0  0  0  0  0  0  0  0  0  0  0
   38.7640   21.8940   38.0220 H   0  0  0  0  0  0  0  0  0  0  0  0
   38.2970   23.9890   38.1000 C   0  0  0  0  0  0  0  0  0  0  0  0
   38.3780   24.1960   39.1680 H   0  0  0  0  0  0  0  0  0  0  0  0
   37.9840   24.8350   37.0860 N   0  0  0  0  0  0  0  0  0  0  0  0
  1 30  1  0  0  0  0
  1  7  1  1  0  0  0
  1  2  1  0  0  0  0
  2  8  1  0  0  0  0
  2  9  1  0  0  0  0
  3 10  1  6  0  0  0
  3  2  1  0  0  0  0
  3 19  1  0  0  0  0
  4 11  1  0  0  0  0
  4  3  1  0  0  0  0
  5 13  1  0  0  0  0
  5  6  1  0  0  0  0
  5  4  1  0  0  0  0
  6  1  1  0  0  0  0
 12  4  1  0  0  0  0
 14  5  1  0  0  0  0
 15  6  1  0  0  0  0
 16  6  1  0  0  0  0
 17 18  1  0  0  0  0
 18 23  1  0  0  0  0
 19 20  1  0  0  0  0
 19 18  2  0  0  0  0
 20 21  2  0  0  0  0
 21 25  1  0  0  0  0
 21 22  1  0  0  0  0
 22 26  1  0  0  0  0
 23 22  2  0  0  0  0
 23 27  1  0  0  0  0
 24 20  1  0  0  0  0
 27 29  1  0  0  0  0
 28 27  1  0  0  0  0
 30 35  1  0  0  0  0
 31 30  2  0  0  0  0
 32 31  1  0  0  0  0
 32 33  2  0  0  0  0
 33 34  1  0  0  0  0
 34 35  2  0  0  0  0
 34 38  1  0  0  0  0
 36 31  1  0  0  0  0
 37 32  1  0  0  0  0
 38 39  2  0  0  0  0
 38 45  1  0  0  0  0
 39 41  1  0  0  0  0
 40 39  1  0  0  0  0
 41 42  1  0  0  0  0
 41 43  1  0  0  0  0
 43 44  1  0  0  0  0
 45 43  2  0  0  0  0
M  END
>  <minimizedAffinity>
-6.48023987

$$$$

 OpenBabel03272506033D

 45 48  0  0  1  0  0  0  0  0999 V2000
   39.4440   25.7420   32.3790 C   0  0  2  0  0  0  0  0  0  0  0  0
   39.7010   24.7590   33.4210 C   0  0  0  0  0  0  0  0  0  0  0  0
   40.1200   25.4130   34.7720 C   0  0  2  0  0  0  0  0  0  0  0  0
   41.3020   26.2360   34.6700 C   0  0  0  0  0  0  0  0  0  0  0  0
   41.3700   27.0600   33.3820 C   0  0  0  0  0  0  0  0  0  0  0  0
   40.0320   27.1200   32.7110 C   0  0  0  0  0  0  0  0  0  0  0  0
   39.9880   25.4760   31.4230 H   0  0  0  0  0  0  0  0  0  0  0  0
   40.6690   24.2060   33.1560 H   0  0  0  0  0  0  0  0  0  0  0  0
   39.0170   23.9910   33.6990 H   0  0  0  0  0  0  0  0  0  0  0  0
   39.2170   25.9270   35.1400 H   0  0  0  0  0  0  0  0  0  0  0  0
   42.2270   25.6280   34.6590 H   0  0  0  0  0  0  0  0  0  0  0  0
   41.3820   26.8810   35.5680 H   0  0  0  0  0  0  0  0  0  0  0  0
   42.1500   26.7260   32.6910 H   0  0  0  0  0  0  0  0  0  0  0  0
   41.6050   28.0980   33.6880 H   0  0  0  0  0  0  0  0  0  0  0  0
   40.1380   27.6920   31.7740 H   0  0  0  0  0  0  0  0  0  0  0  0
   39.2970   27.6220   33.3650 H   0  0  0  0  0  0  0  0  0  0  0  0
   38.0030   24.8760   36.7570 Cl  0  0  0  0  0  0  0  0  0  0  0  0
   39.4540   23.9170   36.6550 C   0  0  0  0  0  0  0  0  0  0  0  0
   40.3480   24.2390   35.6640 C   0  0  0  0  0  0  0  0  0  0  0  0
   41.4570   23.4080   35.6320 C   0  0  0  0  0  0  0  0  0  0  0  0
   41.6500   22.3600   36.5110 C   0  0  0  0  0  0  0  0  0  0  0  0
   40.6920   22.1000   37.4920 C   0  0  0  0  0  0  0  0  0  0  0  0
   39.5590   22.9090   37.5620 C   0  0  0  0  0  0  0  0  0  0  0  0
   42.2110   23.5890   34.8770 H   0  0  0  0  0  0  0  0  0  0  0  0
   42.5440   21.7700   36.4070 H   0  0  0  0  0  0  0  0  0  0  0  0
   40.8270   21.2840   38.1880 H   0  0  0  0  0  0  0  0  0  0  0  0
   38.5850   22.6460   38.5580 N   0  0  0  0  0  0  0  0  0  0  0  0
   37.6890   22.1070   38.5010 H   0  0  0  0  0  0  0  0  0  0  0  0
   38.6680   22.9950   39.5370 H   0  0  0  0  0  0  0  0  0  0  0  0
   38.0480   25.9610   32.0130 C   0  0  0  0  0  0  0  0  0  0  0  0
   37.3800   24.8110   31.6200 C   0  0  0  0  0  0  0  0  0  0  0  0
   36.0350   24.9020   31.2750 C   0  0  0  0  0  0  0  0  0  0  0  0
   35.4210   26.1570   31.3430 N   0  0  0  0  0  0  0  0  0  0  0  0
   36.1040   27.2410   31.7270 C   0  0  0  0  0  0  0  0  0  0  0  0
   37.3960   27.1100   32.0500 N   0  0  0  0  0  0  0  0  0  0  0  0
   37.5890   23.7600   31.4790 H   0  0  0  0  0  0  0  0  0  0  0  0
   35.3140   24.1870   30.9490 H   0  0  0  0  0  0  0  0  0  0  0  0
   35.4680   28.5520   31.7970 C   0  0  0  0  0  0  0  0  0  0  0  0
   34.4450   29.0600   32.5640 C   0  0  0  0  0  0  0  0  0  0  0  0
   33.9310   28.4630   33.2980 H   0  0  0  0  0  0  0  0  0  0  0  0
   34.3000   30.3430   32.1780 N   0  0  0  0  0  0  0  0  0  0  0  0
   33.5740   30.9770   32.6100 H   0  0  0  0  0  0  0  0  0  0  0  0
   35.1740   30.6680   31.2120 C   0  0  0  0  0  0  0  0  0  0  0  0
   35.2490   31.6490   30.7390 H   0  0  0  0  0  0  0  0  0  0  0  0
   35.9020   29.5480   30.9770 N   0  0  0  0  0  0  0  0  0  0  0  0
  1  7  1  6  0  0  0
  1  6  1  0  0  0  0
  1  2  1  0  0  0  0
  2  9  1  0  0  0  0
  2  3  1  0  0  0  0
  3 10  1  1  0  0  0
  3 19  1  0  0  0  0
  4  3  1  0  0  0  0
  4 12  1  0  0  0  0
  5 14  1  0  0  0  0
  5  4  1  0  0  0  0
  6 16  1  0  0  0  0
  6  5  1  0  0  0  0
  8  2  1  0  0  0  0
 11  4  1  0  0  0  0
 13  5  1  0  0  0  0
 15  6  1  0  0  0  0
 18 17  1  0  0  0  0
 18 23  1  0  0  0  0
 19 18  2  0  0  0  0
 20 19  1  0  0  0  0
 20 21  2  0  0  0  0
 21 22  1  0  0  0  0
 22 23  2  0  0  0  0
 22 26  1  0  0  0  0
 23 27  1  0  0  0  0
 24 20  1  0  0  0  0
 25 21  1  0  0  0  0
 27 29  1  0  0  0  0
 28 27  1  0  0  0  0
 30 35  1  0  0  0  0
 30  1  1  0  0  0  0
 31 30  2  0  0  0  0
 32 33  2  0  0  0  0
 32 31  1  0  0  0  0
 33 34  1  0  0  0  0
 34 38  1  0  0  0  0
 34 35  2  0  0  0  0
 36 31  1  0  0  0  0
 37 32  1  0  0  0  0
 38 39  2  0  0  0  0
 39 40  1  0  0  0  0
 41 39  1  0  0  0  0
 41 42  1  0  0  0  0
 43 41  1  0  0  0  0
 44 43  1  0  0  0  0
 45 43  2  0  0  0  0
 45 38  1  0  0  0  0
M  END
>  <minimizedAffinity>
-6.25384426

$$$$

 OpenBabel03272506033D

 45 48  0  0  1  0  0  0  0  0999 V2000
   38.6980   25.4910   32.1050 C   0  0  2  0  0  0  0  0  0  0  0  0
   38.1220   26.8270   32.1730 C   0  0  0  0  0  0  0  0  0  0  0  0
   36.5960   26.8060   32.4850 C   0  0  2  0  0  0  0  0  0  0  0  0
   35.8210   26.0630   31.5180 C   0  0  0  0  0  0  0  0  0  0  0  0
   36.5070   24.7860   31.0310 C   0  0  0  0  0  0  0  0  0  0  0  0
   37.6330   24.3990   31.9400 C   0  0  0  0  0  0  0  0  0  0  0  0
   39.3190   25.3600   31.1680 H   0  0  0  0  0  0  0  0  0  0  0  0
   38.1050   27.2600   31.1120 H   0  0  0  0  0  0  0  0  0  0  0  0
   38.5070   27.6120   32.7810 H   0  0  0  0  0  0  0  0  0  0  0  0
   36.5150   26.4540   33.5260 H   0  0  0  0  0  0  0  0  0  0  0  0
   35.6420   26.6500   30.5970 H   0  0  0  0  0  0  0  0  0  0  0  0
   34.8160   25.8510   31.9350 H   0  0  0  0  0  0  0  0  0  0  0  0
   36.8330   24.8360   29.9880 H   0  0  0  0  0  0  0  0  0  0  0  0
   35.7540   23.9770   31.1160 H   0  0  0  0  0  0  0  0  0  0  0  0
   38.1160   23.4960   31.5320 H   0  0  0  0  0  0  0  0  0  0  0  0
   37.2500   24.1820   32.9540 H   0  0  0  0  0  0  0  0  0  0  0  0
   36.8190   28.1860   29.8860 Cl  0  0  0  0  0  0  0  0  0  0  0  0
   36.3330   29.0090   31.3430 C   0  0  0  0  0  0  0  0  0  0  0  0
   36.2270   28.2520   32.4830 C   0  0  0  0  0  0  0  0  0  0  0  0
   35.8050   28.9770   33.5870 C   0  0  0  0  0  0  0  0  0  0  0  0
   35.5200   30.3280   33.5490 C   0  0  0  0  0  0  0  0  0  0  0  0
   35.6560   31.0250   32.3480 C   0  0  0  0  0  0  0  0  0  0  0  0
   36.0760   30.3390   31.2100 C   0  0  0  0  0  0  0  0  0  0  0  0
   35.6900   28.4550   34.5280 H   0  0  0  0  0  0  0  0  0  0  0  0
   35.1990   30.8040   34.4600 H   0  0  0  0  0  0  0  0  0  0  0  0
   35.4370   32.0830   32.3000 H   0  0  0  0  0  0  0  0  0  0  0  0
   36.2140   31.0460   29.9890 N   0  0  0  0  0  0  0  0  0  0  0  0
   35.5520   31.1370   29.1840 H   0  0  0  0  0  0  0  0  0  0  0  0
   37.0650   31.5960   29.7470 H   0  0  0  0  0  0  0  0  0  0  0  0
   39.5440   25.0850   33.2230 C   0  0  0  0  0  0  0  0  0  0  0  0
   40.8990   25.2800   33.0050 C   0  0  0  0  0  0  0  0  0  0  0  0
   41.7950   24.9500   34.0180 C   0  0  0  0  0  0  0  0  0  0  0  0
   41.2790   24.4350   35.2110 N   0  0  0  0  0  0  0  0  0  0  0  0
   39.9630   24.2610   35.3790 C   0  0  0  0  0  0  0  0  0  0  0  0
   39.1360   24.5920   34.3790 N   0  0  0  0  0  0  0  0  0  0  0  0
   41.5510   25.6410   32.2230 H   0  0  0  0  0  0  0  0  0  0  0  0
   42.8570   25.0040   34.1010 H   0  0  0  0  0  0  0  0  0  0  0  0
   39.4210   23.7230   36.6210 C   0  0  0  0  0  0  0  0  0  0  0  0
   39.8820   22.7900   37.5220 C   0  0  0  0  0  0  0  0  0  0  0  0
   40.8250   22.2860   37.3890 H   0  0  0  0  0  0  0  0  0  0  0  0
   38.9390   22.7090   38.4800 N   0  0  0  0  0  0  0  0  0  0  0  0
   39.0390   22.0580   39.3060 H   0  0  0  0  0  0  0  0  0  0  0  0
   37.9120   23.5370   38.2320 C   0  0  0  0  0  0  0  0  0  0  0  0
   37.0290   23.6470   38.8640 H   0  0  0  0  0  0  0  0  0  0  0  0
   38.2160   24.1690   37.0700 N   0  0  0  0  0  0  0  0  0  0  0  0
  1  7  1  6  0  0  0
  1  2  1  0  0  0  0
  1 30  1  0  0  0  0
  2  3  1  0  0  0  0
  2  9  1  0  0  0  0
  3 10  1  1  0  0  0
  4 12  1  0  0  0  0
  4  3  1  0  0  0  0
  5 14  1  0  0  0  0
  5  4  1  0  0  0  0
  5  6  1  0  0  0  0
  6  1  1  0  0  0  0
  6 16  1  0  0  0  0
  8  2  1  0  0  0  0
 11  4  1  0  0  0  0
 13  5  1  0  0  0  0
 15  6  1  0  0  0  0
 17 18  1  0  0  0  0
 18 19  1  0  0  0  0
 19  3  1  0  0  0  0
 19 20  2  0  0  0  0
 20 24  1  0  0  0  0
 21 20  1  0  0  0  0
 21 25  1  0  0  0  0
 22 21  2  0  0  0  0
 23 18  2  0  0  0  0
 23 22  1  0  0  0  0
 26 22  1  0  0  0  0
 27 23  1  0  0  0  0
 28 27  1  0  0  0  0
 29 27  1  0  0  0  0
 30 35  1  0  0  0  0
 31 30  2  0  0  0  0
 31 32  1  0  0  0  0
 32 37  1  0  0  0  0
 32 33  2  0  0  0  0
 33 34  1  0  0  0  0
 34 38  1  0  0  0  0
 35 34  2  0  0  0  0
 36 31  1  0  0  0  0
 38 45  1  0  0  0  0
 38 39  2  0  0  0  0
 39 41  1  0  0  0  0
 40 39  1  0  0  0  0
 41 42  1  0  0  0  0
 43 41  1  0  0  0  0
 43 44  1  0  0  0  0
 45 43  2  0  0  0  0
M  END
>  <minimizedAffinity>
-6.17677498

$$$$

 OpenBabel03272506033D

 45 48  0  0  1  0  0  0  0  0999 V2000
   36.5020   28.7550   32.5780 C   0  0  2  0  0  0  0  0  0  0  0  0
   35.9090   29.3430   33.7710 C   0  0  0  0  0  0  0  0  0  0  0  0
   34.4630   29.8670   33.5250 C   0  0  2  0  0  0  0  0  0  0  0  0
   34.3820   30.8630   32.4810 C   0  0  0  0  0  0  0  0  0  0  0  0
   35.2920   30.5770   31.2860 C   0  0  0  0  0  0  0  0  0  0  0  0
   35.7610   29.1540   31.2950 C   0  0  0  0  0  0  0  0  0  0  0  0
   37.5380   29.1670   32.3910 H   0  0  0  0  0  0  0  0  0  0  0  0
   36.4480   30.3300   33.9840 H   0  0  0  0  0  0  0  0  0  0  0  0
   35.8560   28.8510   34.7140 H   0  0  0  0  0  0  0  0  0  0  0  0
   33.8470   28.9670   33.3660 H   0  0  0  0  0  0  0  0  0  0  0  0
   34.7010   31.8610   32.8400 H   0  0  0  0  0  0  0  0  0  0  0  0
   33.3260   30.9850   32.1680 H   0  0  0  0  0  0  0  0  0  0  0  0
   36.1300   31.2740   31.1980 H   0  0  0  0  0  0  0  0  0  0  0  0
   34.6610   30.6850   30.3810 H   0  0  0  0  0  0  0  0  0  0  0  0
   36.4380   29.0050   30.4370 H   0  0  0  0  0  0  0  0  0  0  0  0
   34.9010   28.4660   31.2050 H   0  0  0  0  0  0  0  0  0  0  0  0
   31.8260   29.0350   34.5560 Cl  0  0  0  0  0  0  0  0  0  0  0  0
   32.8540   30.1530   35.4110 C   0  0  0  0  0  0  0  0  0  0  0  0
   34.0750   30.4340   34.8500 C   0  0  0  0  0  0  0  0  0  0  0  0
   34.8410   31.3050   35.6080 C   0  0  0  0  0  0  0  0  0  0  0  0
   34.4210   31.8430   36.8090 C   0  0  0  0  0  0  0  0  0  0  0  0
   33.1630   31.5080   37.3090 C   0  0  0  0  0  0  0  0  0  0  0  0
   32.3560   30.6340   36.5820 C   0  0  0  0  0  0  0  0  0  0  0  0
   35.8230   31.5750   35.2410 H   0  0  0  0  0  0  0  0  0  0  0  0
   35.0880   32.5120   37.3250 H   0  0  0  0  0  0  0  0  0  0  0  0
   32.8170   31.9200   38.2480 H   0  0  0  0  0  0  0  0  0  0  0  0
   31.0770   30.2920   37.0890 N   0  0  0  0  0  0  0  0  0  0  0  0
   30.7710   29.4570   37.6410 H   0  0  0  0  0  0  0  0  0  0  0  0
   30.2340   30.8910   36.9510 H   0  0  0  0  0  0  0  0  0  0  0  0
   36.6240   27.3000   32.5550 C   0  0  0  0  0  0  0  0  0  0  0  0
   35.9800   26.6960   31.4860 C   0  0  0  0  0  0  0  0  0  0  0  0
   36.0550   25.3130   31.3530 C   0  0  0  0  0  0  0  0  0  0  0  0
   36.7810   24.5980   32.3110 N   0  0  0  0  0  0  0  0  0  0  0  0
   37.3870   25.2220   33.3280 C   0  0  0  0  0  0  0  0  0  0  0  0
   37.2900   26.5540   33.4180 N   0  0  0  0  0  0  0  0  0  0  0  0
   35.3750   26.9820   30.6380 H   0  0  0  0  0  0  0  0  0  0  0  0
   35.6600   24.6240   30.6410 H   0  0  0  0  0  0  0  0  0  0  0  0
   38.1440   24.4790   34.3290 C   0  0  0  0  0  0  0  0  0  0  0  0
   38.9200   24.8650   35.3980 C   0  0  0  0  0  0  0  0  0  0  0  0
   39.0750   25.9020   35.6460 H   0  0  0  0  0  0  0  0  0  0  0  0
   39.3650   23.7240   35.9600 N   0  0  0  0  0  0  0  0  0  0  0  0
   39.9910   23.7290   36.8100 H   0  0  0  0  0  0  0  0  0  0  0  0
   38.9120   22.6440   35.3030 C   0  0  0  0  0  0  0  0  0  0  0  0
   39.1360   21.6100   35.5690 H   0  0  0  0  0  0  0  0  0  0  0  0
   38.1500   23.1190   34.2860 N   0  0  0  0  0  0  0  0  0  0  0  0
  1  7  1  6  0  0  0
  1  2  1  0  0  0  0
  2  8  1  0  0  0  0
  2  9  1  0  0  0  0
  3 10  1  6  0  0  0
  3  2  1  0  0  0  0
  3 19  1  0  0  0  0
  4 11  1  0  0  0  0
  4  3  1  0  0  0  0
  5  6  1  0  0  0  0
  5  4  1  0  0  0  0
  6  1  1  0  0  0  0
 12  4  1  0  0  0  0
 13  5  1  0  0  0  0
 14  5  1  0  0  0  0
 15  6  1  0  0  0  0
 16  6  1  0  0  0  0
 17 18  1  0  0  0  0
 18 23  1  0  0  0  0
 19 18  2  0  0  0  0
 19 20  1  0  0  0  0
 20 21  2  0  0  0  0
 21 22  1  0  0  0  0
 21 25  1  0  0  0  0
 22 26  1  0  0  0  0
 23 27  1  0  0  0  0
 23 22  2  0  0  0  0
 24 20  1  0  0  0  0
 27 28  1  0  0  0  0
 29 27  1  0  0  0  0
 30  1  1  0  0  0  0
 30 35  1  0  0  0  0
 31 30  2  0  0  0  0
 32 31  1  0  0  0  0
 32 33  2  0  0  0  0
 33 34  1  0  0  0  0
 34 35  2  0  0  0  0
 34 38  1  0  0  0  0
 36 31  1  0  0  0  0
 37 32  1  0  0  0  0
 38 39  2  0  0  0  0
 39 40  1  0  0  0  0
 39 41  1  0  0  0  0
 41 42  1  0  0  0  0
 43 44  1  0  0  0  0
 43 41  1  0  0  0  0
 45 38  1  0  0  0  0
 45 43  2  0  0  0  0
M  END
>  <minimizedAffinity>
-6.15127802

$$$$

 OpenBabel03272506033D

 45 48  0  0  1  0  0  0  0  0999 V2000
   38.3440   24.5970   31.9330 C   0  0  2  0  0  0  0  0  0  0  0  0
   38.1500   25.9740   31.5000 C   0  0  0  0  0  0  0  0  0  0  0  0
   36.7520   26.5350   31.8980 C   0  0  2  0  0  0  0  0  0  0  0  0
   35.6510   25.7670   31.3640 C   0  0  0  0  0  0  0  0  0  0  0  0
   35.8880   24.2560   31.3830 C   0  0  0  0  0  0  0  0  0  0  0  0
   37.0250   23.9010   32.2920 C   0  0  0  0  0  0  0  0  0  0  0  0
   38.7300   23.9530   31.0870 H   0  0  0  0  0  0  0  0  0  0  0  0
   38.0500   25.9750   30.3580 H   0  0  0  0  0  0  0  0  0  0  0  0
   38.8260   26.7680   31.7150 H   0  0  0  0  0  0  0  0  0  0  0  0
   36.7750   26.6270   32.9960 H   0  0  0  0  0  0  0  0  0  0  0  0
   35.4620   26.0050   30.3000 H   0  0  0  0  0  0  0  0  0  0  0  0
   34.7180   26.0390   31.8980 H   0  0  0  0  0  0  0  0  0  0  0  0
   36.0210   23.8220   30.3880 H   0  0  0  0  0  0  0  0  0  0  0  0
   34.9830   23.8040   31.8350 H   0  0  0  0  0  0  0  0  0  0  0  0
   37.1800   22.8100   32.2470 H   0  0  0  0  0  0  0  0  0  0  0  0
   36.7910   24.1950   33.3310 H   0  0  0  0  0  0  0  0  0  0  0  0
   35.9610   28.6780   33.7660 Cl  0  0  0  0  0  0  0  0  0  0  0  0
   36.3800   28.9940   32.1040 C   0  0  0  0  0  0  0  0  0  0  0  0
   36.7700   27.9200   31.3430 C   0  0  0  0  0  0  0  0  0  0  0  0
   37.1160   28.2630   30.0450 C   0  0  0  0  0  0  0  0  0  0  0  0
   37.0720   29.5560   29.5600 C   0  0  0  0  0  0  0  0  0  0  0  0
   36.6610   30.5910   30.4010 C   0  0  0  0  0  0  0  0  0  0  0  0
   36.3040   30.2950   31.7150 C   0  0  0  0  0  0  0  0  0  0  0  0
   37.4410   27.4760   29.3780 H   0  0  0  0  0  0  0  0  0  0  0  0
   37.3600   29.7230   28.5370 H   0  0  0  0  0  0  0  0  0  0  0  0
   36.6210   31.6090   30.0380 H   0  0  0  0  0  0  0  0  0  0  0  0
   35.8870   31.3460   32.5700 N   0  0  0  0  0  0  0  0  0  0  0  0
   36.4280   31.8960   33.2780 H   0  0  0  0  0  0  0  0  0  0  0  0
   34.9110   31.7130   32.5830 H   0  0  0  0  0  0  0  0  0  0  0  0
   39.2480   24.3860   33.0590 C   0  0  0  0  0  0  0  0  0  0  0  0
   40.5860   24.5860   32.7550 C   0  0  0  0  0  0  0  0  0  0  0  0
   41.5320   24.4360   33.7640 C   0  0  0  0  0  0  0  0  0  0  0  0
   41.0830   24.0880   35.0420 N   0  0  0  0  0  0  0  0  0  0  0  0
   39.7820   23.9040   35.2910 C   0  0  0  0  0  0  0  0  0  0  0  0
   38.9050   24.0580   34.2920 N   0  0  0  0  0  0  0  0  0  0  0  0
   41.1930   24.8450   31.9000 H   0  0  0  0  0  0  0  0  0  0  0  0
   42.5940   24.5320   33.7910 H   0  0  0  0  0  0  0  0  0  0  0  0
   39.3090   23.5400   36.6230 C   0  0  0  0  0  0  0  0  0  0  0  0
   39.8370   22.7610   37.6270 C   0  0  0  0  0  0  0  0  0  0  0  0
   40.7880   22.2670   37.5260 H   0  0  0  0  0  0  0  0  0  0  0  0
   38.9370   22.7970   38.6300 N   0  0  0  0  0  0  0  0  0  0  0  0
   39.0920   22.2780   39.5360 H   0  0  0  0  0  0  0  0  0  0  0  0
   37.8750   23.5540   38.3110 C   0  0  0  0  0  0  0  0  0  0  0  0
   37.0160   23.7340   38.9600 H   0  0  0  0  0  0  0  0  0  0  0  0
   38.1110   24.0160   37.0570 N   0  0  0  0  0  0  0  0  0  0  0  0
  1  7  1  6  0  0  0
  1  6  1  0  0  0  0
  1 30  1  0  0  0  0
  2  9  1  0  0  0  0
  2  3  1  0  0  0  0
  2  1  1  0  0  0  0
  3 10  1  1  0  0  0
  4  5  1  0  0  0  0
  4 12  1  0  0  0  0
  4  3  1  0  0  0  0
  5 14  1  0  0  0  0
  5  6  1  0  0  0  0
  6 16  1  0  0  0  0
  8  2  1  0  0  0  0
 11  4  1  0  0  0  0
 13  5  1  0  0  0  0
 15  6  1  0  0  0  0
 18 17  1  0  0  0  0
 19  3  1  0  0  0  0
 19 18  2  0  0  0  0
 20 19  1  0  0  0  0
 21 20  2  0  0  0  0
 21 22  1  0  0  0  0
 22 23  2  0  0  0  0
 23 18  1  0  0  0  0
 23 27  1  0  0  0  0
 24 20  1  0  0  0  0
 25 21  1  0  0  0  0
 26 22  1  0  0  0  0
 27 29  1  0  0  0  0
 27 28  1  0  0  0  0
 30 35  1  0  0  0  0
 31 30  2  0  0  0  0
 31 32  1  0  0  0  0
 32 37  1  0  0  0  0
 32 33  2  0  0  0  0
 33 34  1  0  0  0  0
 34 38  1  0  0  0  0
 35 34  2  0  0  0  0
 36 31  1  0  0  0  0
 38 45  1  0  0  0  0
 38 39  2  0  0  0  0
 39 41  1  0  0  0  0
 40 39  1  0  0  0  0
 41 42  1  0  0  0  0
 43 41  1  0  0  0  0
 43 44  1  0  0  0  0
 45 43  2  0  0  0  0
M  END
>  <minimizedAffinity>
-6.15007162

$$$$

 OpenBabel03272506033D

 45 48  0  0  1  0  0  0  0  0999 V2000
   37.9750   25.6380   33.1800 C   0  0  2  0  0  0  0  0  0  0  0  0
   38.9290   24.7910   33.8830 C   0  0  0  0  0  0  0  0  0  0  0  0
   38.6810   24.7580   35.4210 C   0  0  2  0  0  0  0  0  0  0  0  0
   38.7390   26.0620   36.0410 C   0  0  0  0  0  0  0  0  0  0  0  0
   38.1060   27.1720   35.2000 C   0  0  0  0  0  0  0  0  0  0  0  0
   37.2390   26.6010   34.1200 C   0  0  0  0  0  0  0  0  0  0  0  0
   38.5020   26.3500   32.4760 H   0  0  0  0  0  0  0  0  0  0  0  0
   39.9500   25.3090   33.8540 H   0  0  0  0  0  0  0  0  0  0  0  0
   39.1300   23.7780   33.6250 H   0  0  0  0  0  0  0  0  0  0  0  0
   37.7310   24.2150   35.5520 H   0  0  0  0  0  0  0  0  0  0  0  0
   39.7820   26.3950   36.2000 H   0  0  0  0  0  0  0  0  0  0  0  0
   38.2880   26.0100   37.0520 H   0  0  0  0  0  0  0  0  0  0  0  0
   38.8330   27.8820   34.7960 H   0  0  0  0  0  0  0  0  0  0  0  0
   37.4260   27.7260   35.8770 H   0  0  0  0  0  0  0  0  0  0  0  0
   36.8340   27.4340   33.5220 H   0  0  0  0  0  0  0  0  0  0  0  0
   36.4040   26.0280   34.5610 H   0  0  0  0  0  0  0  0  0  0  0  0
   41.4350   25.6160   34.8020 Cl  0  0  0  0  0  0  0  0  0  0  0  0
   41.0860   24.1390   35.6580 C   0  0  0  0  0  0  0  0  0  0  0  0
   39.7670   23.8670   35.9230 C   0  0  0  0  0  0  0  0  0  0  0  0
   39.5800   22.6920   36.6340 C   0  0  0  0  0  0  0  0  0  0  0  0
   40.6150   21.8720   37.0380 C   0  0  0  0  0  0  0  0  0  0  0  0
   41.9300   22.2210   36.7270 C   0  0  0  0  0  0  0  0  0  0  0  0
   42.1680   23.3940   36.0130 C   0  0  0  0  0  0  0  0  0  0  0  0
   38.5680   22.4040   36.8900 H   0  0  0  0  0  0  0  0  0  0  0  0
   40.3700   20.9790   37.5860 H   0  0  0  0  0  0  0  0  0  0  0  0
   42.7530   21.5900   37.0350 H   0  0  0  0  0  0  0  0  0  0  0  0
   43.5030   23.7500   35.6970 N   0  0  0  0  0  0  0  0  0  0  0  0
   44.1610   24.4030   36.1830 H   0  0  0  0  0  0  0  0  0  0  0  0
   44.0120   23.3640   34.8720 H   0  0  0  0  0  0  0  0  0  0  0  0
   36.9510   24.9580   32.3920 C   0  0  0  0  0  0  0  0  0  0  0  0
   36.1060   25.8150   31.7050 C   0  0  0  0  0  0  0  0  0  0  0  0
   35.1090   25.2710   30.9010 C   0  0  0  0  0  0  0  0  0  0  0  0
   35.0090   23.8780   30.8280 N   0  0  0  0  0  0  0  0  0  0  0  0
   35.8460   23.0870   31.5090 C   0  0  0  0  0  0  0  0  0  0  0  0
   36.7910   23.6520   32.2700 N   0  0  0  0  0  0  0  0  0  0  0  0
   35.9550   26.8780   31.5810 H   0  0  0  0  0  0  0  0  0  0  0  0
   34.3510   25.7000   30.2850 H   0  0  0  0  0  0  0  0  0  0  0  0
   35.7450   21.6340   31.4360 C   0  0  0  0  0  0  0  0  0  0  0  0
   34.8570   20.7260   31.9650 C   0  0  0  0  0  0  0  0  0  0  0  0
   34.0240   21.0310   32.5760 H   0  0  0  0  0  0  0  0  0  0  0  0
   35.2800   19.5160   31.5500 N   0  0  0  0  0  0  0  0  0  0  0  0
   34.7730   18.6270   31.8160 H   0  0  0  0  0  0  0  0  0  0  0  0
   36.3830   19.6130   30.7910 C   0  0  0  0  0  0  0  0  0  0  0  0
   36.9100   18.7700   30.3410 H   0  0  0  0  0  0  0  0  0  0  0  0
   36.6700   20.9370   30.7210 N   0  0  0  0  0  0  0  0  0  0  0  0
  1  7  1  6  0  0  0
  1  2  1  0  0  0  0
  1  6  1  0  0  0  0
  2  3  1  0  0  0  0
  3 10  1  1  0  0  0
  3 19  1  0  0  0  0
  3  4  1  0  0  0  0
  4 11  1  0  0  0  0
  4 12  1  0  0  0  0
  5 14  1  0  0  0  0
  5  4  1  0  0  0  0
  6 16  1  0  0  0  0
  6  5  1  0  0  0  0
  8  2  1  0  0  0  0
  9  2  1  0  0  0  0
 13  5  1  0  0  0  0
 15  6  1  0  0  0  0
 17 18  1  0  0  0  0
 18 19  2  0  0  0  0
 18 23  1  0  0  0  0
 19 20  1  0  0  0  0
 20 24  1  0  0  0  0
 20 21  2  0  0  0  0
 21 25  1  0  0  0  0
 22 26  1  0  0  0  0
 22 21  1  0  0  0  0
 23 22  2  0  0  0  0
 27 23  1  0  0  0  0
 27 28  1  0  0  0  0
 29 27  1  0  0  0  0
 30  1  1  0  0  0  0
 31 30  2  0  0  0  0
 32 31  1  0  0  0  0
 33 32  2  0  0  0  0
 33 34  1  0  0  0  0
 34 35  2  0  0  0  0
 35 30  1  0  0  0  0
 36 31  1  0  0  0  0
 37 32  1  0  0  0  0
 38 34  1  0  0  0  0
 38 39  2  0  0  0  0
 39 40  1  0  0  0  0
 41 42  1  0  0  0  0
 41 39  1  0  0  0  0
 43 41  1  0  0  0  0
 44 43  1  0  0  0  0
 45 43  2  0  0  0  0
 45 38  1  0  0  0  0
M  END
>  <minimizedAffinity>
-6.10805941

$$$$

 OpenBabel03272506033D

 45 48  0  0  1  0  0  0  0  0999 V2000
   37.6200   26.8460   33.0980 C   0  0  2  0  0  0  0  0  0  0  0  0
   39.0580   26.6330   33.1660 C   0  0  0  0  0  0  0  0  0  0  0  0
   39.5310   26.1830   34.5800 C   0  0  2  0  0  0  0  0  0  0  0  0
   39.1960   27.1230   35.6250 C   0  0  0  0  0  0  0  0  0  0  0  0
   37.8150   27.7590   35.4600 C   0  0  0  0  0  0  0  0  0  0  0  0
   36.9800   26.9870   34.4850 C   0  0  0  0  0  0  0  0  0  0  0  0
   37.3760   27.8440   32.6220 H   0  0  0  0  0  0  0  0  0  0  0  0
   39.5720   27.6550   33.0970 H   0  0  0  0  0  0  0  0  0  0  0  0
   39.6010   26.0100   32.4930 H   0  0  0  0  0  0  0  0  0  0  0  0
   39.1280   25.1650   34.7130 H   0  0  0  0  0  0  0  0  0  0  0  0
   39.8960   27.9800   35.6460 H   0  0  0  0  0  0  0  0  0  0  0  0
   39.3020   26.6300   36.6120 H   0  0  0  0  0  0  0  0  0  0  0  0
   37.8510   28.8220   35.2030 H   0  0  0  0  0  0  0  0  0  0  0  0
   37.3080   27.6610   36.4410 H   0  0  0  0  0  0  0  0  0  0  0  0
   36.0100   27.5010   34.3740 H   0  0  0  0  0  0  0  0  0  0  0  0
   36.8090   25.9600   34.8550 H   0  0  0  0  0  0  0  0  0  0  0  0
   40.6850   23.5940   35.4020 Cl  0  0  0  0  0  0  0  0  0  0  0  0
   41.6640   24.9080   34.8090 C   0  0  0  0  0  0  0  0  0  0  0  0
   41.0090   26.0500   34.4200 C   0  0  0  0  0  0  0  0  0  0  0  0
   41.8570   27.0310   33.9310 C   0  0  0  0  0  0  0  0  0  0  0  0
   43.2280   26.8810   33.8450 C   0  0  0  0  0  0  0  0  0  0  0  0
   43.8160   25.6870   34.2650 C   0  0  0  0  0  0  0  0  0  0  0  0
   43.0030   24.6700   34.7630 C   0  0  0  0  0  0  0  0  0  0  0  0
   41.4210   27.9640   33.5970 H   0  0  0  0  0  0  0  0  0  0  0  0
   43.8030   27.7010   33.4520 H   0  0  0  0  0  0  0  0  0  0  0  0
   44.8870   25.5530   34.2050 H   0  0  0  0  0  0  0  0  0  0  0  0
   43.5990   23.4570   35.1890 N   0  0  0  0  0  0  0  0  0  0  0  0
   43.7180   22.5480   34.6820 H   0  0  0  0  0  0  0  0  0  0  0  0
   44.0170   23.3330   36.1360 H   0  0  0  0  0  0  0  0  0  0  0  0
   36.8410   25.8430   32.3780 C   0  0  0  0  0  0  0  0  0  0  0  0
   35.8590   26.3730   31.5560 C   0  0  0  0  0  0  0  0  0  0  0  0
   35.0740   25.5050   30.8030 C   0  0  0  0  0  0  0  0  0  0  0  0
   35.3180   24.1320   30.9150 N   0  0  0  0  0  0  0  0  0  0  0  0
   36.2770   23.6640   31.7210 C   0  0  0  0  0  0  0  0  0  0  0  0
   37.0090   24.5330   32.4280 N   0  0  0  0  0  0  0  0  0  0  0  0
   35.4640   27.3420   31.2860 H   0  0  0  0  0  0  0  0  0  0  0  0
   34.2750   25.6540   30.1120 H   0  0  0  0  0  0  0  0  0  0  0  0
   36.5340   22.2330   31.8410 C   0  0  0  0  0  0  0  0  0  0  0  0
   37.3980   21.4940   32.6160 C   0  0  0  0  0  0  0  0  0  0  0  0
   38.0740   21.9570   33.3160 H   0  0  0  0  0  0  0  0  0  0  0  0
   37.1790   20.2070   32.2860 N   0  0  0  0  0  0  0  0  0  0  0  0
   37.7150   19.4160   32.7360 H   0  0  0  0  0  0  0  0  0  0  0  0
   36.2260   20.0950   31.3470 C   0  0  0  0  0  0  0  0  0  0  0  0
   35.8740   19.1550   30.9180 H   0  0  0  0  0  0  0  0  0  0  0  0
   35.8250   21.3620   31.0720 N   0  0  0  0  0  0  0  0  0  0  0  0
  1  7  1  6  0  0  0
  1  2  1  0  0  0  0
  1  6  1  0  0  0  0
  2  3  1  0  0  0  0
  3 10  1  1  0  0  0
  3  4  1  0  0  0  0
  4 11  1  0  0  0  0
  4 12  1  0  0  0  0
  5  4  1  0  0  0  0
  5 14  1  0  0  0  0
  6 16  1  0  0  0  0
  6  5  1  0  0  0  0
  8  2  1  0  0  0  0
  9  2  1  0  0  0  0
 13  5  1  0  0  0  0
 15  6  1  0  0  0  0
 18 17  1  0  0  0  0
 19  3  1  0  0  0  0
 19 18  2  0  0  0  0
 20 19  1  0  0  0  0
 21 20  2  0  0  0  0
 21 22  1  0  0  0  0
 22 23  2  0  0  0  0
 23 18  1  0  0  0  0
 23 27  1  0  0  0  0
 24 20  1  0  0  0  0
 25 21  1  0  0  0  0
 26 22  1  0  0  0  0
 27 29  1  0  0  0  0
 28 27  1  0  0  0  0
 30 35  1  0  0  0  0
 30  1  1  0  0  0  0
 31 30  2  0  0  0  0
 32 33  2  0  0  0  0
 32 31  1  0  0  0  0
 33 34  1  0  0  0  0
 34 38  1  0  0  0  0
 34 35  2  0  0  0  0
 36 31  1  0  0  0  0
 37 32  1  0  0  0  0
 38 39  2  0  0  0  0
 39 40  1  0  0  0  0
 41 39  1  0  0  0  0
 41 42  1  0  0  0  0
 43 41  1  0  0  0  0
 44 43  1  0  0  0  0
 45 43  2  0  0  0  0
 45 38  1  0  0  0  0
M  END
>  <minimizedAffinity>
-6.03610277

$$$$
