
 OpenBabel03272505463D

 24 26  0  0  0  0  0  0  0  0999 V2000
   38.5250   25.8480   35.2180 C   0  0  0  0  0  0  0  0  0  0  0  0
   38.4820   27.1250   35.9070 C   0  0  0  0  0  0  0  0  0  0  0  0
   39.7060   26.7460   35.1390 C   0  0  0  0  0  0  0  0  0  0  0  0
   38.5190   27.2020   37.0070 H   0  0  0  0  0  0  0  0  0  0  0  0
   37.8620   27.9360   35.4530 H   0  0  0  0  0  0  0  0  0  0  0  0
   40.6090   26.6100   35.7590 H   0  0  0  0  0  0  0  0  0  0  0  0
   39.9030   27.2220   34.1420 H   0  0  0  0  0  0  0  0  0  0  0  0
   37.0770   24.1400   32.2620 C   0  0  0  0  0  0  0  0  0  0  0  0
   36.3750   25.1690   31.6180 C   0  0  0  0  0  0  0  0  0  0  0  0
   36.4030   26.4430   32.2040 C   0  0  0  0  0  0  0  0  0  0  0  0
   37.1090   26.5980   33.3580 N   0  0  0  0  0  0  0  0  0  0  0  0
   37.7770   25.5800   33.9530 C   0  0  0  0  0  0  0  0  0  0  0  0
   37.7640   24.3520   33.4110 N   0  0  0  0  0  0  0  0  0  0  0  0
   37.0350   23.1510   31.7780 H   0  0  0  0  0  0  0  0  0  0  0  0
   35.8150   25.0850   30.7180 H   0  0  0  0  0  0  0  0  0  0  0  0
   35.9200   27.3420   31.8410 H   0  0  0  0  0  0  0  0  0  0  0  0
   38.5580   24.6360   36.0840 C   0  0  0  0  0  0  0  0  0  0  0  0
   37.6560   24.0420   36.9560 C   0  0  0  0  0  0  0  0  0  0  0  0
   36.6760   24.4900   37.1040 H   0  0  0  0  0  0  0  0  0  0  0  0
   38.2610   22.9440   37.4660 N   0  0  0  0  0  0  0  0  0  0  0  0
   37.7840   22.3200   38.1540 H   0  0  0  0  0  0  0  0  0  0  0  0
   39.5120   22.8360   36.9370 C   0  0  0  0  0  0  0  0  0  0  0  0
   40.2330   22.0520   37.1610 H   0  0  0  0  0  0  0  0  0  0  0  0
   39.6860   23.8750   36.0920 N   0  0  0  0  0  0  0  0  0  0  0  0
  1  2  1  0  0  0  0
  1 17  1  0  0  0  0
  2  4  1  0  0  0  0
  3  1  1  0  0  0  0
  3  6  1  0  0  0  0
  3  2  1  0  0  0  0
  5  2  1  0  0  0  0
  7  3  1  0  0  0  0
  8 13  1  0  0  0  0
  9 10  1  0  0  0  0
  9  8  2  0  0  0  0
 10 11  2  0  0  0  0
 11 12  1  0  0  0  0
 12  1  1  0  0  0  0
 13 12  2  0  0  0  0
 14  8  1  0  0  0  0
 15  9  1  0  0  0  0
 16 10  1  0  0  0  0
 17 24  1  0  0  0  0
 17 18  2  0  0  0  0
 18 19  1  0  0  0  0
 18 20  1  0  0  0  0
 20 21  1  0  0  0  0
 22 23  1  0  0  0  0
 22 20  1  0  0  0  0
 24 22  2  0  0  0  0
M  END
>  <minimizedAffinity>
-4.31023502

$$$$

 OpenBabel03272505463D

 24 26  0  0  0  0  0  0  0  0999 V2000
   38.7300   25.9600   35.0280 C   0  0  0  0  0  0  0  0  0  0  0  0
   39.7850   26.9100   34.7260 C   0  0  0  0  0  0  0  0  0  0  0  0
   38.5920   27.3610   35.5060 C   0  0  0  0  0  0  0  0  0  0  0  0
   39.9580   27.2940   33.7070 H   0  0  0  0  0  0  0  0  0  0  0  0
   40.7350   26.8270   35.3080 H   0  0  0  0  0  0  0  0  0  0  0  0
   37.9710   28.1140   34.9930 H   0  0  0  0  0  0  0  0  0  0  0  0
   38.6830   27.5190   36.6130 H   0  0  0  0  0  0  0  0  0  0  0  0
   39.9300   22.9990   36.9100 C   0  0  0  0  0  0  0  0  0  0  0  0
   39.0560   22.9490   38.0060 C   0  0  0  0  0  0  0  0  0  0  0  0
   38.0600   23.9330   38.0910 C   0  0  0  0  0  0  0  0  0  0  0  0
   38.0070   24.8720   37.1060 N   0  0  0  0  0  0  0  0  0  0  0  0
   38.8680   24.8890   36.0610 C   0  0  0  0  0  0  0  0  0  0  0  0
   39.8290   23.9580   35.9580 N   0  0  0  0  0  0  0  0  0  0  0  0
   40.7010   22.2130   36.8720 H   0  0  0  0  0  0  0  0  0  0  0  0
   39.0680   22.2320   38.7910 H   0  0  0  0  0  0  0  0  0  0  0  0
   37.3100   24.0400   38.8640 H   0  0  0  0  0  0  0  0  0  0  0  0
   37.9280   25.4790   33.8670 C   0  0  0  0  0  0  0  0  0  0  0  0
   37.7890   24.2570   33.2240 C   0  0  0  0  0  0  0  0  0  0  0  0
   38.3510   23.3960   33.5790 H   0  0  0  0  0  0  0  0  0  0  0  0
   36.9070   24.4380   32.2140 N   0  0  0  0  0  0  0  0  0  0  0  0
   36.6310   23.6590   31.5750 H   0  0  0  0  0  0  0  0  0  0  0  0
   36.4920   25.7360   32.2090 C   0  0  0  0  0  0  0  0  0  0  0  0
   35.7820   26.1760   31.5100 H   0  0  0  0  0  0  0  0  0  0  0  0
   37.1210   26.3670   33.2240 N   0  0  0  0  0  0  0  0  0  0  0  0
  1  3  1  0  0  0  0
  1 12  1  0  0  0  0
  2  1  1  0  0  0  0
  2  5  1  0  0  0  0
  2  3  1  0  0  0  0
  3  7  1  0  0  0  0
  4  2  1  0  0  0  0
  6  3  1  0  0  0  0
  8  9  1  0  0  0  0
  9 10  2  0  0  0  0
  9 15  1  0  0  0  0
 10 16  1  0  0  0  0
 11 10  1  0  0  0  0
 12 11  2  0  0  0  0
 13 12  1  0  0  0  0
 13  8  2  0  0  0  0
 14  8  1  0  0  0  0
 17  1  1  0  0  0  0
 18 19  1  0  0  0  0
 18 17  2  0  0  0  0
 20 18  1  0  0  0  0
 21 20  1  0  0  0  0
 22 20  1  0  0  0  0
 22 24  2  0  0  0  0
 23 22  1  0  0  0  0
 24 17  1  0  0  0  0
M  END
>  <minimizedAffinity>
-4.21743488

$$$$

 OpenBabel03272505463D

 24 26  0  0  0  0  0  0  0  0999 V2000
   39.0930   24.3870   35.2580 C   0  0  0  0  0  0  0  0  0  0  0  0
   39.3190   25.8200   35.2220 C   0  0  0  0  0  0  0  0  0  0  0  0
   40.4180   24.8930   34.8140 C   0  0  0  0  0  0  0  0  0  0  0  0
   39.4150   26.4250   36.1390 H   0  0  0  0  0  0  0  0  0  0  0  0
   38.8450   26.3970   34.3900 H   0  0  0  0  0  0  0  0  0  0  0  0
   41.3040   24.9200   35.4720 H   0  0  0  0  0  0  0  0  0  0  0  0
   40.6590   24.7670   33.7260 H   0  0  0  0  0  0  0  0  0  0  0  0
   36.9800   23.6460   32.3010 C   0  0  0  0  0  0  0  0  0  0  0  0
   36.7240   22.2740   32.4350 C   0  0  0  0  0  0  0  0  0  0  0  0
   37.2790   21.6120   33.5410 C   0  0  0  0  0  0  0  0  0  0  0  0
   38.0290   22.3440   34.4100 N   0  0  0  0  0  0  0  0  0  0  0  0
   38.2560   23.6690   34.2490 C   0  0  0  0  0  0  0  0  0  0  0  0
   37.7360   24.3240   33.1990 N   0  0  0  0  0  0  0  0  0  0  0  0
   36.5320   24.1370   31.4230 H   0  0  0  0  0  0  0  0  0  0  0  0
   36.1440   21.6720   31.7780 H   0  0  0  0  0  0  0  0  0  0  0  0
   37.1810   20.5640   33.7940 H   0  0  0  0  0  0  0  0  0  0  0  0
   38.9330   23.7820   36.6100 C   0  0  0  0  0  0  0  0  0  0  0  0
   39.6910   22.9100   37.3780 C   0  0  0  0  0  0  0  0  0  0  0  0
   40.6340   22.5310   36.9890 H   0  0  0  0  0  0  0  0  0  0  0  0
   39.0210   22.7160   38.5370 N   0  0  0  0  0  0  0  0  0  0  0  0
   39.3880   22.0930   39.2910 H   0  0  0  0  0  0  0  0  0  0  0  0
   37.8670   23.4410   38.5140 C   0  0  0  0  0  0  0  0  0  0  0  0
   37.1250   23.4830   39.3090 H   0  0  0  0  0  0  0  0  0  0  0  0
   37.8210   24.0910   37.3310 N   0  0  0  0  0  0  0  0  0  0  0  0
  1 17  1  0  0  0  0
  2  1  1  0  0  0  0
  2  4  1  0  0  0  0
  3  2  1  0  0  0  0
  3  1  1  0  0  0  0
  3  6  1  0  0  0  0
  5  2  1  0  0  0  0
  7  3  1  0  0  0  0
  8  9  2  0  0  0  0
  8 13  1  0  0  0  0
  9 10  1  0  0  0  0
 10 16  1  0  0  0  0
 10 11  2  0  0  0  0
 12 11  1  0  0  0  0
 12  1  1  0  0  0  0
 13 12  2  0  0  0  0
 14  8  1  0  0  0  0
 15  9  1  0  0  0  0
 17 24  1  0  0  0  0
 17 18  2  0  0  0  0
 18 20  1  0  0  0  0
 19 18  1  0  0  0  0
 20 21  1  0  0  0  0
 22 20  1  0  0  0  0
 22 23  1  0  0  0  0
 24 22  2  0  0  0  0
M  END
>  <minimizedAffinity>
-4.19655609

$$$$

 OpenBabel03272505463D

 24 26  0  0  0  0  0  0  0  0999 V2000
   38.4500   24.0410   36.9660 C   0  0  0  0  0  0  0  0  0  0  0  0
   37.3790   23.1770   37.4270 C   0  0  0  0  0  0  0  0  0  0  0  0
   37.9480   24.2010   38.3550 C   0  0  0  0  0  0  0  0  0  0  0  0
   37.5330   22.1030   37.6250 H   0  0  0  0  0  0  0  0  0  0  0  0
   36.3480   23.3890   37.0530 H   0  0  0  0  0  0  0  0  0  0  0  0
   38.4650   23.7810   39.2350 H   0  0  0  0  0  0  0  0  0  0  0  0
   37.3670   25.1370   38.5690 H   0  0  0  0  0  0  0  0  0  0  0  0
   38.2080   27.4530   35.5330 C   0  0  0  0  0  0  0  0  0  0  0  0
   37.8030   27.2100   34.2130 C   0  0  0  0  0  0  0  0  0  0  0  0
   37.6160   25.8750   33.8230 C   0  0  0  0  0  0  0  0  0  0  0  0
   37.8400   24.9040   34.7500 N   0  0  0  0  0  0  0  0  0  0  0  0
   38.2310   25.1750   36.0190 C   0  0  0  0  0  0  0  0  0  0  0  0
   38.4170   26.4440   36.4140 N   0  0  0  0  0  0  0  0  0  0  0  0
   38.3470   28.5110   35.8090 H   0  0  0  0  0  0  0  0  0  0  0  0
   37.6200   27.9420   33.4630 H   0  0  0  0  0  0  0  0  0  0  0  0
   37.3080   25.5150   32.8500 H   0  0  0  0  0  0  0  0  0  0  0  0
   39.7620   23.3810   36.7110 C   0  0  0  0  0  0  0  0  0  0  0  0
   40.7500   23.5270   35.7480 C   0  0  0  0  0  0  0  0  0  0  0  0
   40.6290   24.2690   34.9610 H   0  0  0  0  0  0  0  0  0  0  0  0
   41.7230   22.6320   36.0370 N   0  0  0  0  0  0  0  0  0  0  0  0
   42.5840   22.5440   35.4540 H   0  0  0  0  0  0  0  0  0  0  0  0
   41.3700   21.9320   37.1520 C   0  0  0  0  0  0  0  0  0  0  0  0
   41.9560   21.1450   37.6220 H   0  0  0  0  0  0  0  0  0  0  0  0
   40.1680   22.3980   37.5590 N   0  0  0  0  0  0  0  0  0  0  0  0
  1  2  1  0  0  0  0
  1  3  1  0  0  0  0
  2  4  1  0  0  0  0
  2  3  1  0  0  0  0
  3  7  1  0  0  0  0
  3  6  1  0  0  0  0
  5  2  1  0  0  0  0
  8 14  1  0  0  0  0
  8 13  1  0  0  0  0
  9  8  2  0  0  0  0
 10  9  1  0  0  0  0
 10 11  2  0  0  0  0
 11 12  1  0  0  0  0
 12 13  2  0  0  0  0
 12  1  1  0  0  0  0
 15  9  1  0  0  0  0
 16 10  1  0  0  0  0
 17  1  1  0  0  0  0
 17 24  1  0  0  0  0
 18 20  1  0  0  0  0
 18 17  2  0  0  0  0
 19 18  1  0  0  0  0
 20 22  1  0  0  0  0
 21 20  1  0  0  0  0
 22 24  2  0  0  0  0
 22 23  1  0  0  0  0
M  END
>  <minimizedAffinity>
-4.16201735

$$$$

 OpenBabel03272505463D

 24 26  0  0  0  0  0  0  0  0999 V2000
   38.6930   23.1600   34.9830 C   0  0  0  0  0  0  0  0  0  0  0  0
   39.4220   22.1210   34.2790 C   0  0  0  0  0  0  0  0  0  0  0  0
   37.9290   22.1310   34.2300 C   0  0  0  0  0  0  0  0  0  0  0  0
   39.9540   21.3120   34.8090 H   0  0  0  0  0  0  0  0  0  0  0  0
   39.9360   22.4040   33.3280 H   0  0  0  0  0  0  0  0  0  0  0  0
   37.4510   21.2620   34.7130 H   0  0  0  0  0  0  0  0  0  0  0  0
   37.4090   22.4810   33.2990 H   0  0  0  0  0  0  0  0  0  0  0  0
   39.3670   26.7750   34.4980 C   0  0  0  0  0  0  0  0  0  0  0  0
   38.4010   27.1490   33.5530 C   0  0  0  0  0  0  0  0  0  0  0  0
   37.5250   26.1570   33.0880 C   0  0  0  0  0  0  0  0  0  0  0  0
   37.6690   24.8970   33.5830 N   0  0  0  0  0  0  0  0  0  0  0  0
   38.6140   24.5700   34.4970 C   0  0  0  0  0  0  0  0  0  0  0  0
   39.4640   25.5020   34.9570 N   0  0  0  0  0  0  0  0  0  0  0  0
   40.0400   27.5750   34.8440 H   0  0  0  0  0  0  0  0  0  0  0  0
   38.2600   28.1200   33.1450 H   0  0  0  0  0  0  0  0  0  0  0  0
   36.7280   26.2740   32.3650 H   0  0  0  0  0  0  0  0  0  0  0  0
   38.7540   23.1120   36.4710 C   0  0  0  0  0  0  0  0  0  0  0  0
   39.7290   22.7520   37.3910 C   0  0  0  0  0  0  0  0  0  0  0  0
   40.7040   22.4200   37.0390 H   0  0  0  0  0  0  0  0  0  0  0  0
   39.1930   22.9140   38.6220 N   0  0  0  0  0  0  0  0  0  0  0  0
   39.7330   22.7070   39.4920 H   0  0  0  0  0  0  0  0  0  0  0  0
   37.9130   23.3630   38.4980 C   0  0  0  0  0  0  0  0  0  0  0  0
   37.2320   23.5840   39.3180 H   0  0  0  0  0  0  0  0  0  0  0  0
   37.6520   23.4830   37.1770 N   0  0  0  0  0  0  0  0  0  0  0  0
  1 17  1  0  0  0  0
  2  4  1  0  0  0  0
  2  1  1  0  0  0  0
  3  2  1  0  0  0  0
  3  6  1  0  0  0  0
  3  1  1  0  0  0  0
  5  2  1  0  0  0  0
  7  3  1  0  0  0  0
  8 14  1  0  0  0  0
  8 13  1  0  0  0  0
  9  8  2  0  0  0  0
 10  9  1  0  0  0  0
 10 11  2  0  0  0  0
 11 12  1  0  0  0  0
 12 13  2  0  0  0  0
 12  1  1  0  0  0  0
 15  9  1  0  0  0  0
 16 10  1  0  0  0  0
 17 24  1  0  0  0  0
 17 18  2  0  0  0  0
 18 20  1  0  0  0  0
 19 18  1  0  0  0  0
 20 21  1  0  0  0  0
 22 20  1  0  0  0  0
 22 23  1  0  0  0  0
 24 22  2  0  0  0  0
M  END
>  <minimizedAffinity>
-4.06489563

$$$$

 OpenBabel03272505463D

 24 26  0  0  0  0  0  0  0  0999 V2000
   38.7990   23.3660   36.8170 C   0  0  0  0  0  0  0  0  0  0  0  0
   38.7310   23.2530   38.2620 C   0  0  0  0  0  0  0  0  0  0  0  0
   39.9460   22.7610   37.5440 C   0  0  0  0  0  0  0  0  0  0  0  0
   38.0580   22.5390   38.7660 H   0  0  0  0  0  0  0  0  0  0  0  0
   38.8720   24.1860   38.8600 H   0  0  0  0  0  0  0  0  0  0  0  0
   40.1070   21.6720   37.6140 H   0  0  0  0  0  0  0  0  0  0  0  0
   40.8900   23.3670   37.5750 H   0  0  0  0  0  0  0  0  0  0  0  0
   40.2350   25.9800   34.6120 C   0  0  0  0  0  0  0  0  0  0  0  0
   39.4060   27.0850   34.8560 C   0  0  0  0  0  0  0  0  0  0  0  0
   38.3590   26.9240   35.7750 C   0  0  0  0  0  0  0  0  0  0  0  0
   38.2150   25.7090   36.3710 N   0  0  0  0  0  0  0  0  0  0  0  0
   39.0360   24.6620   36.1120 C   0  0  0  0  0  0  0  0  0  0  0  0
   40.0440   24.7910   35.2360 N   0  0  0  0  0  0  0  0  0  0  0  0
   41.0480   26.1370   33.8850 H   0  0  0  0  0  0  0  0  0  0  0  0
   39.4890   28.0460   34.4100 H   0  0  0  0  0  0  0  0  0  0  0  0
   37.6330   27.6680   36.0770 H   0  0  0  0  0  0  0  0  0  0  0  0
   37.8580   22.5050   36.0460 C   0  0  0  0  0  0  0  0  0  0  0  0
   37.8060   22.0590   34.7330 C   0  0  0  0  0  0  0  0  0  0  0  0
   38.5880   22.3490   34.0350 H   0  0  0  0  0  0  0  0  0  0  0  0
   36.6940   21.2970   34.6160 N   0  0  0  0  0  0  0  0  0  0  0  0
   36.4290   20.8410   33.7150 H   0  0  0  0  0  0  0  0  0  0  0  0
   36.0520   21.2550   35.8170 C   0  0  0  0  0  0  0  0  0  0  0  0
   35.1290   20.7180   36.0280 H   0  0  0  0  0  0  0  0  0  0  0  0
   36.7710   21.9970   36.6880 N   0  0  0  0  0  0  0  0  0  0  0  0
  1  3  1  0  0  0  0
  1  2  1  0  0  0  0
  2  4  1  0  0  0  0
  2  5  1  0  0  0  0
  3  7  1  0  0  0  0
  3  6  1  0  0  0  0
  3  2  1  0  0  0  0
  8  9  2  0  0  0  0
  8 13  1  0  0  0  0
  9 10  1  0  0  0  0
 10 16  1  0  0  0  0
 10 11  2  0  0  0  0
 12 11  1  0  0  0  0
 12  1  1  0  0  0  0
 13 12  2  0  0  0  0
 14  8  1  0  0  0  0
 15  9  1  0  0  0  0
 17 24  1  0  0  0  0
 17  1  1  0  0  0  0
 18 17  2  0  0  0  0
 19 18  1  0  0  0  0
 20 18  1  0  0  0  0
 20 22  1  0  0  0  0
 21 20  1  0  0  0  0
 22 23  1  0  0  0  0
 22 24  2  0  0  0  0
M  END
>  <minimizedAffinity>
-4.01243925

$$$$

 OpenBabel03272505463D

 24 26  0  0  0  0  0  0  0  0999 V2000
   37.7650   27.1880   31.6550 C   0  0  0  0  0  0  0  0  0  0  0  0
   38.6870   27.5400   30.5910 C   0  0  0  0  0  0  0  0  0  0  0  0
   37.6060   28.5000   30.9740 C   0  0  0  0  0  0  0  0  0  0  0  0
   38.6650   27.0460   29.6050 H   0  0  0  0  0  0  0  0  0  0  0  0
   39.7220   27.8420   30.8830 H   0  0  0  0  0  0  0  0  0  0  0  0
   36.8580   28.6820   30.1840 H   0  0  0  0  0  0  0  0  0  0  0  0
   37.8630   29.4080   31.5800 H   0  0  0  0  0  0  0  0  0  0  0  0
   37.6160   27.5170   35.3460 C   0  0  0  0  0  0  0  0  0  0  0  0
   38.9270   27.2110   35.7410 C   0  0  0  0  0  0  0  0  0  0  0  0
   39.8530   26.8930   34.7360 C   0  0  0  0  0  0  0  0  0  0  0  0
   39.4200   26.9030   33.4450 N   0  0  0  0  0  0  0  0  0  0  0  0
   38.1450   27.2030   33.1000 C   0  0  0  0  0  0  0  0  0  0  0  0
   37.2410   27.5100   34.0430 N   0  0  0  0  0  0  0  0  0  0  0  0
   36.9120   27.7610   36.1580 H   0  0  0  0  0  0  0  0  0  0  0  0
   39.2990   27.1940   36.7360 H   0  0  0  0  0  0  0  0  0  0  0  0
   40.8960   26.6350   34.8650 H   0  0  0  0  0  0  0  0  0  0  0  0
   36.8230   26.0710   31.3640 C   0  0  0  0  0  0  0  0  0  0  0  0
   36.9480   24.6900   31.2960 C   0  0  0  0  0  0  0  0  0  0  0  0
   37.9140   24.2270   31.4840 H   0  0  0  0  0  0  0  0  0  0  0  0
   35.7280   24.1960   30.9810 N   0  0  0  0  0  0  0  0  0  0  0  0
   35.5580   23.1720   30.8700 H   0  0  0  0  0  0  0  0  0  0  0  0
   34.8470   25.2280   30.8520 C   0  0  0  0  0  0  0  0  0  0  0  0
   33.7910   25.1370   30.6040 H   0  0  0  0  0  0  0  0  0  0  0  0
   35.5250   26.3720   31.0890 N   0  0  0  0  0  0  0  0  0  0  0  0
  1 12  1  0  0  0  0
  2  5  1  0  0  0  0
  2  3  1  0  0  0  0
  2  1  1  0  0  0  0
  3  7  1  0  0  0  0
  3  1  1  0  0  0  0
  4  2  1  0  0  0  0
  6  3  1  0  0  0  0
  8  9  1  0  0  0  0
  8 14  1  0  0  0  0
  9 15  1  0  0  0  0
 10 16  1  0  0  0  0
 10  9  2  0  0  0  0
 11 10  1  0  0  0  0
 12 11  2  0  0  0  0
 12 13  1  0  0  0  0
 13  8  2  0  0  0  0
 17  1  1  0  0  0  0
 18 17  2  0  0  0  0
 18 19  1  0  0  0  0
 20 18  1  0  0  0  0
 21 20  1  0  0  0  0
 22 20  1  0  0  0  0
 22 24  2  0  0  0  0
 23 22  1  0  0  0  0
 24 17  1  0  0  0  0
M  END
>  <minimizedAffinity>
-4.00059319

$$$$

 OpenBabel03272505463D

 24 26  0  0  0  0  0  0  0  0999 V2000
   38.5540   23.3240   36.6650 C   0  0  0  0  0  0  0  0  0  0  0  0
   39.7600   22.8450   37.3130 C   0  0  0  0  0  0  0  0  0  0  0  0
   38.6100   23.3030   38.1500 C   0  0  0  0  0  0  0  0  0  0  0  0
   40.7020   23.4180   37.3040 H   0  0  0  0  0  0  0  0  0  0  0  0
   39.9430   21.7420   37.3120 H   0  0  0  0  0  0  0  0  0  0  0  0
   38.8180   24.2000   38.7580 H   0  0  0  0  0  0  0  0  0  0  0  0
   37.9600   22.5440   38.6600 H   0  0  0  0  0  0  0  0  0  0  0  0
   35.7020   21.0310   36.0680 C   0  0  0  0  0  0  0  0  0  0  0  0
   35.8030   20.7550   34.6970 C   0  0  0  0  0  0  0  0  0  0  0  0
   36.8510   21.3600   33.9860 C   0  0  0  0  0  0  0  0  0  0  0  0
   37.6990   22.1730   34.6720 N   0  0  0  0  0  0  0  0  0  0  0  0
   37.5720   22.4170   35.9980 C   0  0  0  0  0  0  0  0  0  0  0  0
   36.5770   21.8510   36.6990 N   0  0  0  0  0  0  0  0  0  0  0  0
   34.8690   20.5420   36.5980 H   0  0  0  0  0  0  0  0  0  0  0  0
   35.1600   20.1270   34.1290 H   0  0  0  0  0  0  0  0  0  0  0  0
   37.0720   21.2550   32.9310 H   0  0  0  0  0  0  0  0  0  0  0  0
   38.6750   24.6130   35.9260 C   0  0  0  0  0  0  0  0  0  0  0  0
   37.8160   25.6770   35.6850 C   0  0  0  0  0  0  0  0  0  0  0  0
   36.8060   25.6550   36.0890 H   0  0  0  0  0  0  0  0  0  0  0  0
   38.4970   26.5740   34.9340 N   0  0  0  0  0  0  0  0  0  0  0  0
   38.0650   27.4700   34.6180 H   0  0  0  0  0  0  0  0  0  0  0  0
   39.7530   26.1010   34.7010 C   0  0  0  0  0  0  0  0  0  0  0  0
   40.5280   26.6060   34.1270 H   0  0  0  0  0  0  0  0  0  0  0  0
   39.8540   24.9010   35.3120 N   0  0  0  0  0  0  0  0  0  0  0  0
  1  2  1  0  0  0  0
  1  3  1  0  0  0  0
  2  3  1  0  0  0  0
  3  7  1  0  0  0  0
  3  6  1  0  0  0  0
  4  2  1  0  0  0  0
  5  2  1  0  0  0  0
  8 14  1  0  0  0  0
  8 13  1  0  0  0  0
  9  8  2  0  0  0  0
 10 11  2  0  0  0  0
 10  9  1  0  0  0  0
 11 12  1  0  0  0  0
 12  1  1  0  0  0  0
 12 13  2  0  0  0  0
 15  9  1  0  0  0  0
 16 10  1  0  0  0  0
 17  1  1  0  0  0  0
 18 17  2  0  0  0  0
 18 19  1  0  0  0  0
 20 18  1  0  0  0  0
 21 20  1  0  0  0  0
 22 20  1  0  0  0  0
 22 24  2  0  0  0  0
 23 22  1  0  0  0  0
 24 17  1  0  0  0  0
M  END
>  <minimizedAffinity>
-3.99395013

$$$$

 OpenBabel03272505463D

 24 26  0  0  0  0  0  0  0  0999 V2000
   36.6970   21.5840   31.7080 C   0  0  0  0  0  0  0  0  0  0  0  0
   36.1030   20.6040   30.8180 C   0  0  0  0  0  0  0  0  0  0  0  0
   37.5870   20.6340   30.9910 C   0  0  0  0  0  0  0  0  0  0  0  0
   35.6520   20.8840   29.8510 H   0  0  0  0  0  0  0  0  0  0  0  0
   35.5830   19.7320   31.2830 H   0  0  0  0  0  0  0  0  0  0  0  0
   38.1470   20.9040   30.0790 H   0  0  0  0  0  0  0  0  0  0  0  0
   38.0860   19.8500   31.6190 H   0  0  0  0  0  0  0  0  0  0  0  0
   35.6010   20.7260   35.1460 C   0  0  0  0  0  0  0  0  0  0  0  0
   36.5820   21.3270   35.9460 C   0  0  0  0  0  0  0  0  0  0  0  0
   37.6150   22.0220   35.3000 C   0  0  0  0  0  0  0  0  0  0  0  0
   37.5980   22.0690   33.9400 N   0  0  0  0  0  0  0  0  0  0  0  0
   36.6320   21.4770   33.1970 C   0  0  0  0  0  0  0  0  0  0  0  0
   35.6340   20.8050   33.7920 N   0  0  0  0  0  0  0  0  0  0  0  0
   34.8030   20.1870   35.6820 H   0  0  0  0  0  0  0  0  0  0  0  0
   36.6280   21.3110   37.0090 H   0  0  0  0  0  0  0  0  0  0  0  0
   38.4460   22.5400   35.7630 H   0  0  0  0  0  0  0  0  0  0  0  0
   36.6080   23.0060   31.2720 C   0  0  0  0  0  0  0  0  0  0  0  0
   37.4870   23.8920   30.6660 C   0  0  0  0  0  0  0  0  0  0  0  0
   38.4930   23.5620   30.4110 H   0  0  0  0  0  0  0  0  0  0  0  0
   36.8310   25.0660   30.5210 N   0  0  0  0  0  0  0  0  0  0  0  0
   37.2830   25.9020   30.0860 H   0  0  0  0  0  0  0  0  0  0  0  0
   35.5690   24.9390   31.0180 C   0  0  0  0  0  0  0  0  0  0  0  0
   34.8100   25.7180   31.0380 H   0  0  0  0  0  0  0  0  0  0  0  0
   35.4400   23.6740   31.4760 N   0  0  0  0  0  0  0  0  0  0  0  0
  1 12  1  0  0  0  0
  2  3  1  0  0  0  0
  2  5  1  0  0  0  0
  2  1  1  0  0  0  0
  3  7  1  0  0  0  0
  3  1  1  0  0  0  0
  4  2  1  0  0  0  0
  6  3  1  0  0  0  0
  8 14  1  0  0  0  0
  8  9  1  0  0  0  0
  9 15  1  0  0  0  0
 10 16  1  0  0  0  0
 10  9  2  0  0  0  0
 11 10  1  0  0  0  0
 12 13  1  0  0  0  0
 12 11  2  0  0  0  0
 13  8  2  0  0  0  0
 17 24  1  0  0  0  0
 17  1  1  0  0  0  0
 18 17  2  0  0  0  0
 19 18  1  0  0  0  0
 20 18  1  0  0  0  0
 20 22  1  0  0  0  0
 21 20  1  0  0  0  0
 22 23  1  0  0  0  0
 22 24  2  0  0  0  0
M  END
>  <minimizedAffinity>
-3.98237753

$$$$
