
 OpenBabel03272509373D

 29 31  0  0  1  0  0  0  0  0999 V2000
   37.0930   31.2740   48.4440 C   0  0  0  0  0  0  0  0  0  0  0  0
   36.8310   31.8810   49.6970 C   0  0  0  0  0  0  0  0  0  0  0  0
   37.5460   32.9800   50.1520 C   0  0  0  0  0  0  0  0  0  0  0  0
   38.5520   33.5060   49.3580 C   0  0  0  0  0  0  0  0  0  0  0  0
   38.7790   32.8920   48.1510 C   0  0  0  0  0  0  0  0  0  0  0  0
   38.0810   31.7930   47.6730 C   0  0  0  0  0  0  0  0  0  0  0  0
   36.0440   31.4660   50.3080 H   0  0  0  0  0  0  0  0  0  0  0  0
   37.2670   33.3620   51.1150 H   0  0  0  0  0  0  0  0  0  0  0  0
   39.0570   34.3510   49.7760 H   0  0  0  0  0  0  0  0  0  0  0  0
   39.6010   33.4190   47.6410 H   0  0  0  0  0  0  0  0  0  0  0  0
   38.5200   31.3120   46.3830 C   0  0  0  0  0  0  0  0  0  0  0  0
   38.3640   32.0160   45.2080 C   0  0  0  0  0  0  0  0  0  0  0  0
   37.9240   33.0210   45.0300 H   0  0  0  0  0  0  0  0  0  0  0  0
   38.7960   31.4240   44.1050 N   0  0  0  0  0  0  0  0  0  0  0  0
   38.8200   31.6850   43.1020 H   0  0  0  0  0  0  0  0  0  0  0  0
   39.2720   30.2580   44.5410 C   0  0  0  0  0  0  0  0  0  0  0  0
   39.7370   29.3970   44.0770 H   0  0  0  0  0  0  0  0  0  0  0  0
   39.0850   30.2560   45.8400 N   0  0  0  0  0  0  0  0  0  0  0  0
   36.2530   30.1540   48.0680 C   0  0  1  0  0  0  0  0  0  0  0  0
   36.4410   29.0890   48.7770 O   0  0  0  0  0  0  0  0  0  0  0  0
   32.9930   30.4840   46.5160 C   0  0  0  0  0  0  0  0  0  0  0  0
   33.2260   30.2700   45.1710 C   0  0  0  0  0  0  0  0  0  0  0  0
   34.5200   29.9940   44.7970 C   0  0  0  0  0  0  0  0  0  0  0  0
   35.5500   29.9310   45.7150 N   0  0  0  0  0  0  0  0  0  0  0  0
   35.2670   30.1480   47.0080 C   0  0  0  0  0  0  0  0  0  0  0  0
   34.0130   30.4140   47.3690 N   0  0  0  0  0  0  0  0  0  0  0  0
   31.9820   30.6970   46.8000 H   0  0  0  0  0  0  0  0  0  0  0  0
   32.5070   30.2930   44.3680 H   0  0  0  0  0  0  0  0  0  0  0  0
   34.9040   29.7980   43.7900 H   0  0  0  0  0  0  0  0  0  0  0  0
  1  2  1  0  0  0  0
  2  3  2  0  0  0  0
  2  7  1  0  0  0  0
  3  8  1  0  0  0  0
  4  9  1  0  0  0  0
  4  3  1  0  0  0  0
  5  4  2  0  0  0  0
  6  5  1  0  0  0  0
  6  1  2  0  0  0  0
 10  5  1  0  0  0  0
 11  6  1  0  0  0  0
 12 11  2  0  0  0  0
 13 12  1  0  0  0  0
 14 16  1  0  0  0  0
 14 12  1  0  0  0  0
 15 14  1  0  0  0  0
 16 18  2  0  0  0  0
 17 16  1  0  0  0  0
 18 11  1  0  0  0  0
 19  1  1  0  0  0  0
 19 20  1  1  0  0  0
 21 27  1  0  0  0  0
 21 26  1  0  0  0  0
 22 21  2  0  0  0  0
 23 22  1  0  0  0  0
 23 24  2  0  0  0  0
 24 25  1  0  0  0  0
 25 26  2  0  0  0  0
 25 19  1  0  0  0  0
 28 22  1  0  0  0  0
 29 23  1  0  0  0  0
M  END
>  <minimizedAffinity>
-5.15470409

>  <minimizedRMSD>
2.16162825

$$$$
