
 OpenBabel03272510223D

 35 38  0  0  0  0  0  0  0  0999 V2000
   35.6380   31.2890   31.7830 Br  0  0  0  0  0  0  0  0  0  0  0  0
   36.2500   29.5630   32.3080 C   0  0  0  0  0  0  0  0  0  0  0  0
   36.0480   29.1070   33.5990 C   0  0  0  0  0  0  0  0  0  0  0  0
   36.5130   27.8530   33.9160 C   0  0  0  0  0  0  0  0  0  0  0  0
   37.1690   27.0400   32.9980 C   0  0  0  0  0  0  0  0  0  0  0  0
   37.3520   27.5140   31.7390 C   0  0  0  0  0  0  0  0  0  0  0  0
   36.8900   28.7730   31.4080 C   0  0  0  0  0  0  0  0  0  0  0  0
   36.3860   27.4420   34.9030 H   0  0  0  0  0  0  0  0  0  0  0  0
   37.8580   26.9290   30.9730 H   0  0  0  0  0  0  0  0  0  0  0  0
   37.0430   29.1320   30.4120 H   0  0  0  0  0  0  0  0  0  0  0  0
   33.3190   30.4880   35.5990 C   0  0  0  0  0  0  0  0  0  0  0  0
   33.9840   31.4330   36.4430 C   0  0  0  0  0  0  0  0  0  0  0  0
   35.3530   31.5730   36.3040 C   0  0  0  0  0  0  0  0  0  0  0  0
   36.0020   30.8080   35.3730 N   0  0  0  0  0  0  0  0  0  0  0  0
   35.3650   29.9270   34.5910 C   0  0  0  0  0  0  0  0  0  0  0  0
   34.0100   29.7670   34.7070 N   0  0  0  0  0  0  0  0  0  0  0  0
   32.2700   30.3180   35.6400 H   0  0  0  0  0  0  0  0  0  0  0  0
   33.3890   31.9900   37.1450 H   0  0  0  0  0  0  0  0  0  0  0  0
   35.8830   32.2790   36.9270 H   0  0  0  0  0  0  0  0  0  0  0  0
   37.6630   25.7090   33.3310 C   0  0  0  0  0  0  0  0  0  0  0  0
   38.0080   24.7430   32.4190 C   0  0  0  0  0  0  0  0  0  0  0  0
   38.4720   23.4940   32.7810 C   0  0  0  0  0  0  0  0  0  0  0  0
   38.6010   23.1890   34.0670 N   0  0  0  0  0  0  0  0  0  0  0  0
   38.2680   24.1220   34.9940 C   0  0  0  0  0  0  0  0  0  0  0  0
   37.8210   25.3210   34.6200 N   0  0  0  0  0  0  0  0  0  0  0  0
   37.9060   24.9880   31.3610 H   0  0  0  0  0  0  0  0  0  0  0  0
   38.7400   22.7470   32.0480 H   0  0  0  0  0  0  0  0  0  0  0  0
   38.3410   23.9690   36.4610 C   0  0  0  0  0  0  0  0  0  0  0  0
   39.0300   22.9360   37.1040 C   0  0  0  0  0  0  0  0  0  0  0  0
   39.5840   22.1360   36.6670 H   0  0  0  0  0  0  0  0  0  0  0  0
   38.8710   23.1290   38.4410 N   0  0  0  0  0  0  0  0  0  0  0  0
   39.2670   22.5250   39.1860 H   0  0  0  0  0  0  0  0  0  0  0  0
   38.1160   24.2340   38.6410 C   0  0  0  0  0  0  0  0  0  0  0  0
   37.7880   24.6870   39.5680 H   0  0  0  0  0  0  0  0  0  0  0  0
   37.8010   24.7350   37.4310 N   0  0  0  0  0  0  0  0  0  0  0  0
  1  2  1  0  0  0  0
  2  3  1  0  0  0  0
  3  4  2  0  0  0  0
  3 15  1  0  0  0  0
  4  8  1  0  0  0  0
  5 20  1  0  0  0  0
  5  4  1  0  0  0  0
  6  5  2  0  0  0  0
  7  6  1  0  0  0  0
  7  2  2  0  0  0  0
  9  6  1  0  0  0  0
 10  7  1  0  0  0  0
 11 17  1  0  0  0  0
 11 12  1  0  0  0  0
 12 18  1  0  0  0  0
 13 12  2  0  0  0  0
 13 19  1  0  0  0  0
 14 13  1  0  0  0  0
 15 16  1  0  0  0  0
 15 14  2  0  0  0  0
 16 11  2  0  0  0  0
 20 25  1  0  0  0  0
 21 22  1  0  0  0  0
 21 20  2  0  0  0  0
 22 23  2  0  0  0  0
 23 24  1  0  0  0  0
 24 28  1  0  0  0  0
 25 24  2  0  0  0  0
 26 21  1  0  0  0  0
 27 22  1  0  0  0  0
 28 29  2  0  0  0  0
 28 35  1  0  0  0  0
 29 31  1  0  0  0  0
 30 29  1  0  0  0  0
 31 33  1  0  0  0  0
 31 32  1  0  0  0  0
 33 34  1  0  0  0  0
 35 33  2  0  0  0  0
M  END
>  <minimizedAffinity>
-6.12799311

$$$$

 OpenBabel03272510223D

 35 38  0  0  0  0  0  0  0  0999 V2000
   40.2850   24.3390   33.9960 Br  0  0  0  0  0  0  0  0  0  0  0  0
   38.9580   25.6950   33.8270 C   0  0  0  0  0  0  0  0  0  0  0  0
   37.9850   25.8520   34.7980 C   0  0  0  0  0  0  0  0  0  0  0  0
   37.0560   26.8490   34.6190 C   0  0  0  0  0  0  0  0  0  0  0  0
   37.0590   27.6920   33.5110 C   0  0  0  0  0  0  0  0  0  0  0  0
   38.0270   27.5130   32.5750 C   0  0  0  0  0  0  0  0  0  0  0  0
   38.9660   26.5150   32.7440 C   0  0  0  0  0  0  0  0  0  0  0  0
   36.2740   27.0220   35.3390 H   0  0  0  0  0  0  0  0  0  0  0  0
   38.0870   28.1380   31.6860 H   0  0  0  0  0  0  0  0  0  0  0  0
   39.7220   26.3880   31.9970 H   0  0  0  0  0  0  0  0  0  0  0  0
   37.6720   22.8080   36.7950 C   0  0  0  0  0  0  0  0  0  0  0  0
   37.8510   23.2810   38.1340 C   0  0  0  0  0  0  0  0  0  0  0  0
   38.0750   24.6340   38.3170 C   0  0  0  0  0  0  0  0  0  0  0  0
   38.1140   25.4500   37.2200 N   0  0  0  0  0  0  0  0  0  0  0  0
   37.9440   24.9920   35.9730 C   0  0  0  0  0  0  0  0  0  0  0  0
   37.7210   23.6570   35.7610 N   0  0  0  0  0  0  0  0  0  0  0  0
   37.4960   21.7850   36.5650 H   0  0  0  0  0  0  0  0  0  0  0  0
   37.8040   22.5650   38.9340 H   0  0  0  0  0  0  0  0  0  0  0  0
   38.2140   25.0210   39.3170 H   0  0  0  0  0  0  0  0  0  0  0  0
   36.0760   28.7500   33.3190 C   0  0  0  0  0  0  0  0  0  0  0  0
   35.5110   29.0960   32.1160 C   0  0  0  0  0  0  0  0  0  0  0  0
   34.5810   30.1060   31.9810 C   0  0  0  0  0  0  0  0  0  0  0  0
   34.1970   30.7920   33.0520 N   0  0  0  0  0  0  0  0  0  0  0  0
   34.7360   30.4760   34.2560 C   0  0  0  0  0  0  0  0  0  0  0  0
   35.6330   29.4950   34.3610 N   0  0  0  0  0  0  0  0  0  0  0  0
   35.8210   28.5350   31.2330 H   0  0  0  0  0  0  0  0  0  0  0  0
   34.1480   30.3630   31.0260 H   0  0  0  0  0  0  0  0  0  0  0  0
   34.4370   31.1220   35.5500 C   0  0  0  0  0  0  0  0  0  0  0  0
   35.4010   31.7340   36.3570 C   0  0  0  0  0  0  0  0  0  0  0  0
   36.4490   31.8310   36.1810 H   0  0  0  0  0  0  0  0  0  0  0  0
   34.7520   32.2100   37.4530 N   0  0  0  0  0  0  0  0  0  0  0  0
   35.1970   32.7190   38.2400 H   0  0  0  0  0  0  0  0  0  0  0  0
   33.4360   31.9150   37.3500 C   0  0  0  0  0  0  0  0  0  0  0  0
   32.6230   32.1360   38.0320 H   0  0  0  0  0  0  0  0  0  0  0  0
   33.2580   31.2540   36.1910 N   0  0  0  0  0  0  0  0  0  0  0  0
  2  1  1  0  0  0  0
  2  3  1  0  0  0  0
  3 15  1  0  0  0  0
  4  3  2  0  0  0  0
  4  8  1  0  0  0  0
  5  4  1  0  0  0  0
  6  7  1  0  0  0  0
  6  5  2  0  0  0  0
  7  2  2  0  0  0  0
  9  6  1  0  0  0  0
 10  7  1  0  0  0  0
 11 12  1  0  0  0  0
 12 13  2  0  0  0  0
 12 18  1  0  0  0  0
 13 19  1  0  0  0  0
 14 13  1  0  0  0  0
 15 14  2  0  0  0  0
 16 15  1  0  0  0  0
 16 11  2  0  0  0  0
 17 11  1  0  0  0  0
 20  5  1  0  0  0  0
 20 25  1  0  0  0  0
 21 20  2  0  0  0  0
 22 21  1  0  0  0  0
 22 23  2  0  0  0  0
 23 24  1  0  0  0  0
 24 25  2  0  0  0  0
 24 28  1  0  0  0  0
 26 21  1  0  0  0  0
 27 22  1  0  0  0  0
 28 35  1  0  0  0  0
 28 29  2  0  0  0  0
 29 31  1  0  0  0  0
 30 29  1  0  0  0  0
 31 32  1  0  0  0  0
 33 31  1  0  0  0  0
 33 34  1  0  0  0  0
 35 33  2  0  0  0  0
M  END
>  <minimizedAffinity>
-6.09784222

$$$$

 OpenBabel03272510223D

 35 38  0  0  0  0  0  0  0  0999 V2000
   37.0520   22.8890   32.1520 Br  0  0  0  0  0  0  0  0  0  0  0  0
   36.8140   24.7730   32.3010 C   0  0  0  0  0  0  0  0  0  0  0  0
   37.4700   25.4900   33.2880 C   0  0  0  0  0  0  0  0  0  0  0  0
   37.2560   26.8460   33.3420 C   0  0  0  0  0  0  0  0  0  0  0  0
   36.4170   27.5130   32.4560 C   0  0  0  0  0  0  0  0  0  0  0  0
   35.7880   26.7840   31.4980 C   0  0  0  0  0  0  0  0  0  0  0  0
   35.9940   25.4200   31.4330 C   0  0  0  0  0  0  0  0  0  0  0  0
   37.7370   27.4590   34.0870 H   0  0  0  0  0  0  0  0  0  0  0  0
   35.1190   27.2430   30.7730 H   0  0  0  0  0  0  0  0  0  0  0  0
   35.4910   24.8590   30.6730 H   0  0  0  0  0  0  0  0  0  0  0  0
   40.5430   24.1080   34.7010 C   0  0  0  0  0  0  0  0  0  0  0  0
   40.1140   23.5980   35.9680 C   0  0  0  0  0  0  0  0  0  0  0  0
   38.7800   23.7410   36.3040 C   0  0  0  0  0  0  0  0  0  0  0  0
   37.9390   24.3580   35.4180 N   0  0  0  0  0  0  0  0  0  0  0  0
   38.3560   24.8300   34.2370 C   0  0  0  0  0  0  0  0  0  0  0  0
   39.6720   24.7030   33.8770 N   0  0  0  0  0  0  0  0  0  0  0  0
   41.5490   24.0400   34.3640 H   0  0  0  0  0  0  0  0  0  0  0  0
   40.8470   23.1280   36.5980 H   0  0  0  0  0  0  0  0  0  0  0  0
   38.4260   23.3650   37.2550 H   0  0  0  0  0  0  0  0  0  0  0  0
   36.1900   28.9520   32.5110 C   0  0  0  0  0  0  0  0  0  0  0  0
   36.4080   29.8270   31.4760 C   0  0  0  0  0  0  0  0  0  0  0  0
   36.1770   31.1850   31.5740 C   0  0  0  0  0  0  0  0  0  0  0  0
   35.7230   31.6930   32.7140 N   0  0  0  0  0  0  0  0  0  0  0  0
   35.4970   30.8550   33.7570 C   0  0  0  0  0  0  0  0  0  0  0  0
   35.7280   29.5470   33.6380 N   0  0  0  0  0  0  0  0  0  0  0  0
   36.7800   29.4160   30.5370 H   0  0  0  0  0  0  0  0  0  0  0  0
   36.3540   31.8580   30.7480 H   0  0  0  0  0  0  0  0  0  0  0  0
   34.9980   31.2310   35.0950 C   0  0  0  0  0  0  0  0  0  0  0  0
   35.8050   31.7500   36.1110 C   0  0  0  0  0  0  0  0  0  0  0  0
   36.8530   31.9500   36.0890 H   0  0  0  0  0  0  0  0  0  0  0  0
   34.9960   31.9710   37.1820 N   0  0  0  0  0  0  0  0  0  0  0  0
   35.3020   32.3560   38.0960 H   0  0  0  0  0  0  0  0  0  0  0  0
   33.7320   31.6090   36.8630 C   0  0  0  0  0  0  0  0  0  0  0  0
   32.8310   31.6440   37.4640 H   0  0  0  0  0  0  0  0  0  0  0  0
   33.7460   31.1610   35.5930 N   0  0  0  0  0  0  0  0  0  0  0  0
  1  2  1  0  0  0  0
  2  3  1  0  0  0  0
  3  4  2  0  0  0  0
  3 15  1  0  0  0  0
  4  8  1  0  0  0  0
  5 20  1  0  0  0  0
  5  4  1  0  0  0  0
  6  5  2  0  0  0  0
  7  6  1  0  0  0  0
  7  2  2  0  0  0  0
  9  6  1  0  0  0  0
 10  7  1  0  0  0  0
 11 12  1  0  0  0  0
 12 13  2  0  0  0  0
 12 18  1  0  0  0  0
 13 19  1  0  0  0  0
 14 13  1  0  0  0  0
 15 14  2  0  0  0  0
 16 15  1  0  0  0  0
 16 11  2  0  0  0  0
 17 11  1  0  0  0  0
 20 25  1  0  0  0  0
 21 22  1  0  0  0  0
 21 20  2  0  0  0  0
 22 23  2  0  0  0  0
 23 24  1  0  0  0  0
 24 28  1  0  0  0  0
 25 24  2  0  0  0  0
 26 21  1  0  0  0  0
 27 22  1  0  0  0  0
 28 35  1  0  0  0  0
 28 29  2  0  0  0  0
 29 31  1  0  0  0  0
 30 29  1  0  0  0  0
 31 32  1  0  0  0  0
 33 31  1  0  0  0  0
 33 34  1  0  0  0  0
 35 33  2  0  0  0  0
M  END
>  <minimizedAffinity>
-5.73496914

$$$$

 OpenBabel03272510223D

 35 38  0  0  0  0  0  0  0  0999 V2000
   34.6440   31.8960   32.2550 Br  0  0  0  0  0  0  0  0  0  0  0  0
   35.5200   30.2610   32.6900 C   0  0  0  0  0  0  0  0  0  0  0  0
   35.5030   29.7770   33.9870 C   0  0  0  0  0  0  0  0  0  0  0  0
   36.1530   28.5920   34.2370 C   0  0  0  0  0  0  0  0  0  0  0  0
   36.8160   27.8730   33.2470 C   0  0  0  0  0  0  0  0  0  0  0  0
   36.8140   28.3720   31.9840 C   0  0  0  0  0  0  0  0  0  0  0  0
   36.1650   29.5630   31.7200 C   0  0  0  0  0  0  0  0  0  0  0  0
   36.1760   28.1630   35.2250 H   0  0  0  0  0  0  0  0  0  0  0  0
   37.3140   27.8600   31.1640 H   0  0  0  0  0  0  0  0  0  0  0  0
   36.1730   29.9420   30.7200 H   0  0  0  0  0  0  0  0  0  0  0  0
   35.0170   32.0400   36.8140 C   0  0  0  0  0  0  0  0  0  0  0  0
   33.6200   31.9090   37.0960 C   0  0  0  0  0  0  0  0  0  0  0  0
   32.8800   31.0460   36.3080 C   0  0  0  0  0  0  0  0  0  0  0  0
   33.5120   30.3630   35.3040 N   0  0  0  0  0  0  0  0  0  0  0  0
   34.8210   30.4980   35.0530 C   0  0  0  0  0  0  0  0  0  0  0  0
   35.5780   31.3450   35.8170 N   0  0  0  0  0  0  0  0  0  0  0  0
   35.6580   32.6810   37.3700 H   0  0  0  0  0  0  0  0  0  0  0  0
   33.2100   32.4860   37.9050 H   0  0  0  0  0  0  0  0  0  0  0  0
   31.8220   30.9250   36.4960 H   0  0  0  0  0  0  0  0  0  0  0  0
   37.5040   26.6150   33.5090 C   0  0  0  0  0  0  0  0  0  0  0  0
   38.5610   26.4580   34.3710 C   0  0  0  0  0  0  0  0  0  0  0  0
   39.1830   25.2450   34.5890 C   0  0  0  0  0  0  0  0  0  0  0  0
   38.7570   24.1640   33.9460 N   0  0  0  0  0  0  0  0  0  0  0  0
   37.7140   24.2850   33.0880 C   0  0  0  0  0  0  0  0  0  0  0  0
   37.1290   25.4680   32.8930 N   0  0  0  0  0  0  0  0  0  0  0  0
   38.9160   27.3420   34.9030 H   0  0  0  0  0  0  0  0  0  0  0  0
   40.0140   25.1400   35.2710 H   0  0  0  0  0  0  0  0  0  0  0  0
   37.1030   23.2050   32.2870 C   0  0  0  0  0  0  0  0  0  0  0  0
   35.8280   23.2810   31.7180 C   0  0  0  0  0  0  0  0  0  0  0  0
   35.1280   24.0840   31.7650 H   0  0  0  0  0  0  0  0  0  0  0  0
   35.6200   22.1080   31.0620 N   0  0  0  0  0  0  0  0  0  0  0  0
   34.7610   21.8590   30.5360 H   0  0  0  0  0  0  0  0  0  0  0  0
   36.7100   21.3200   31.2070 C   0  0  0  0  0  0  0  0  0  0  0  0
   36.8980   20.3240   30.8250 H   0  0  0  0  0  0  0  0  0  0  0  0
   37.6040   21.9970   31.9520 N   0  0  0  0  0  0  0  0  0  0  0  0
  1  2  1  0  0  0  0
  2  3  1  0  0  0  0
  3  4  2  0  0  0  0
  3 15  1  0  0  0  0
  4  8  1  0  0  0  0
  5 20  1  0  0  0  0
  5  4  1  0  0  0  0
  6  5  2  0  0  0  0
  7  6  1  0  0  0  0
  7  2  2  0  0  0  0
  9  6  1  0  0  0  0
 10  7  1  0  0  0  0
 11 12  1  0  0  0  0
 11 17  1  0  0  0  0
 12 18  1  0  0  0  0
 13 19  1  0  0  0  0
 13 12  2  0  0  0  0
 14 13  1  0  0  0  0
 15 14  2  0  0  0  0
 15 16  1  0  0  0  0
 16 11  2  0  0  0  0
 20 21  1  0  0  0  0
 21 22  2  0  0  0  0
 21 26  1  0  0  0  0
 22 27  1  0  0  0  0
 23 22  1  0  0  0  0
 24 23  2  0  0  0  0
 25 24  1  0  0  0  0
 25 20  2  0  0  0  0
 28 24  1  0  0  0  0
 29 30  1  0  0  0  0
 29 28  2  0  0  0  0
 31 33  1  0  0  0  0
 31 29  1  0  0  0  0
 32 31  1  0  0  0  0
 33 35  2  0  0  0  0
 34 33  1  0  0  0  0
 35 28  1  0  0  0  0
M  END
>  <minimizedAffinity>
-5.70147991

$$$$

 OpenBabel03272510223D

 35 38  0  0  0  0  0  0  0  0999 V2000
   39.6780   23.7530   35.0660 Br  0  0  0  0  0  0  0  0  0  0  0  0
   38.5670   25.2190   34.5700 C   0  0  0  0  0  0  0  0  0  0  0  0
   37.8240   25.1750   33.4020 C   0  0  0  0  0  0  0  0  0  0  0  0
   37.0420   26.2640   33.0990 C   0  0  0  0  0  0  0  0  0  0  0  0
   36.9730   27.3910   33.9120 C   0  0  0  0  0  0  0  0  0  0  0  0
   37.7120   27.4040   35.0520 C   0  0  0  0  0  0  0  0  0  0  0  0
   38.5020   26.3160   35.3670 C   0  0  0  0  0  0  0  0  0  0  0  0
   36.4420   26.2900   32.2060 H   0  0  0  0  0  0  0  0  0  0  0  0
   37.7030   28.2540   35.7310 H   0  0  0  0  0  0  0  0  0  0  0  0
   39.0790   26.3430   36.2680 H   0  0  0  0  0  0  0  0  0  0  0  0
   38.8790   23.0060   30.6570 C   0  0  0  0  0  0  0  0  0  0  0  0
   38.0290   21.8640   30.8040 C   0  0  0  0  0  0  0  0  0  0  0  0
   37.1160   21.8670   31.8420 C   0  0  0  0  0  0  0  0  0  0  0  0
   37.0660   22.9530   32.6740 N   0  0  0  0  0  0  0  0  0  0  0  0
   37.8690   24.0150   32.5220 C   0  0  0  0  0  0  0  0  0  0  0  0
   38.7830   24.0390   31.5030 N   0  0  0  0  0  0  0  0  0  0  0  0
   39.6070   23.0860   29.8870 H   0  0  0  0  0  0  0  0  0  0  0  0
   38.1400   21.0570   30.1020 H   0  0  0  0  0  0  0  0  0  0  0  0
   36.4600   21.0180   31.9790 H   0  0  0  0  0  0  0  0  0  0  0  0
   36.1440   28.5460   33.5940 C   0  0  0  0  0  0  0  0  0  0  0  0
   35.7610   28.9200   32.3300 C   0  0  0  0  0  0  0  0  0  0  0  0
   34.9720   30.0240   32.0750 C   0  0  0  0  0  0  0  0  0  0  0  0
   34.5500   30.7760   33.0850 N   0  0  0  0  0  0  0  0  0  0  0  0
   34.9110   30.4340   34.3470 C   0  0  0  0  0  0  0  0  0  0  0  0
   35.6730   29.3630   34.5680 N   0  0  0  0  0  0  0  0  0  0  0  0
   36.1030   28.3060   31.4960 H   0  0  0  0  0  0  0  0  0  0  0  0
   34.6810   30.3020   31.0730 H   0  0  0  0  0  0  0  0  0  0  0  0
   34.5430   31.1430   35.5900 C   0  0  0  0  0  0  0  0  0  0  0  0
   35.4570   31.8260   36.3970 C   0  0  0  0  0  0  0  0  0  0  0  0
   36.5090   31.9420   36.2580 H   0  0  0  0  0  0  0  0  0  0  0  0
   34.7520   32.3450   37.4380 N   0  0  0  0  0  0  0  0  0  0  0  0
   35.1510   32.9090   38.2120 H   0  0  0  0  0  0  0  0  0  0  0  0
   33.4490   32.0070   37.3010 C   0  0  0  0  0  0  0  0  0  0  0  0
   32.6040   32.2430   37.9370 H   0  0  0  0  0  0  0  0  0  0  0  0
   33.3350   31.2780   36.1750 N   0  0  0  0  0  0  0  0  0  0  0  0
  2  1  1  0  0  0  0
  2  7  1  0  0  0  0
  3  2  2  0  0  0  0
  4  3  1  0  0  0  0
  4  5  2  0  0  0  0
  5  6  1  0  0  0  0
  6  7  2  0  0  0  0
  6  9  1  0  0  0  0
  7 10  1  0  0  0  0
  8  4  1  0  0  0  0
 11 12  2  0  0  0  0
 11 16  1  0  0  0  0
 12 13  1  0  0  0  0
 13 19  1  0  0  0  0
 13 14  2  0  0  0  0
 15 14  1  0  0  0  0
 15  3  1  0  0  0  0
 16 15  2  0  0  0  0
 17 11  1  0  0  0  0
 18 12  1  0  0  0  0
 20  5  1  0  0  0  0
 20 25  1  0  0  0  0
 21 20  2  0  0  0  0
 22 21  1  0  0  0  0
 22 23  2  0  0  0  0
 23 24  1  0  0  0  0
 24 25  2  0  0  0  0
 24 28  1  0  0  0  0
 26 21  1  0  0  0  0
 27 22  1  0  0  0  0
 28 35  1  0  0  0  0
 28 29  2  0  0  0  0
 29 31  1  0  0  0  0
 30 29  1  0  0  0  0
 31 32  1  0  0  0  0
 33 31  1  0  0  0  0
 33 34  1  0  0  0  0
 35 33  2  0  0  0  0
M  END
>  <minimizedAffinity>
-5.69998503

$$$$

 OpenBabel03272510223D

 35 38  0  0  0  0  0  0  0  0999 V2000
   34.1370   32.3630   32.3820 Br  0  0  0  0  0  0  0  0  0  0  0  0
   35.1120   30.7320   32.5180 C   0  0  0  0  0  0  0  0  0  0  0  0
   35.2610   30.1010   33.7410 C   0  0  0  0  0  0  0  0  0  0  0  0
   35.9760   28.9270   33.7730 C   0  0  0  0  0  0  0  0  0  0  0  0
   36.5450   28.3600   32.6360 C   0  0  0  0  0  0  0  0  0  0  0  0
   36.3810   29.0020   31.4510 C   0  0  0  0  0  0  0  0  0  0  0  0
   35.6650   30.1830   31.4060 C   0  0  0  0  0  0  0  0  0  0  0  0
   36.1270   28.3890   34.6930 H   0  0  0  0  0  0  0  0  0  0  0  0
   36.8000   28.6130   30.5250 H   0  0  0  0  0  0  0  0  0  0  0  0
   35.5460   30.6760   30.4640 H   0  0  0  0  0  0  0  0  0  0  0  0
   32.8040   30.7670   36.3620 C   0  0  0  0  0  0  0  0  0  0  0  0
   33.4980   31.6640   37.2340 C   0  0  0  0  0  0  0  0  0  0  0  0
   34.7930   32.0180   36.9000 C   0  0  0  0  0  0  0  0  0  0  0  0
   35.3450   31.4990   35.7600 N   0  0  0  0  0  0  0  0  0  0  0  0
   34.6820   30.6600   34.9550 C   0  0  0  0  0  0  0  0  0  0  0  0
   33.3990   30.2910   35.2600 N   0  0  0  0  0  0  0  0  0  0  0  0
   31.8080   30.4430   36.5430 H   0  0  0  0  0  0  0  0  0  0  0  0
   32.9820   32.0210   38.1070 H   0  0  0  0  0  0  0  0  0  0  0  0
   35.3430   32.6950   37.5390 H   0  0  0  0  0  0  0  0  0  0  0  0
   37.3020   27.1160   32.6680 C   0  0  0  0  0  0  0  0  0  0  0  0
   37.9530   26.5590   31.5950 C   0  0  0  0  0  0  0  0  0  0  0  0
   38.6600   25.3760   31.6710 C   0  0  0  0  0  0  0  0  0  0  0  0
   38.7300   24.7260   32.8270 N   0  0  0  0  0  0  0  0  0  0  0  0
   38.0980   25.2490   33.9070 C   0  0  0  0  0  0  0  0  0  0  0  0
   37.4200   26.3940   33.8090 N   0  0  0  0  0  0  0  0  0  0  0  0
   37.9010   27.0880   30.6420 H   0  0  0  0  0  0  0  0  0  0  0  0
   39.1660   24.9540   30.8150 H   0  0  0  0  0  0  0  0  0  0  0  0
   38.0600   24.6750   35.2670 C   0  0  0  0  0  0  0  0  0  0  0  0
   38.0980   25.4400   36.4380 C   0  0  0  0  0  0  0  0  0  0  0  0
   38.1560   26.5010   36.5360 H   0  0  0  0  0  0  0  0  0  0  0  0
   38.0440   24.5670   37.4790 N   0  0  0  0  0  0  0  0  0  0  0  0
   38.0540   24.8300   38.4830 H   0  0  0  0  0  0  0  0  0  0  0  0
   37.9750   23.3050   36.9960 C   0  0  0  0  0  0  0  0  0  0  0  0
   37.9200   22.3640   37.5290 H   0  0  0  0  0  0  0  0  0  0  0  0
   37.9860   23.3840   35.6520 N   0  0  0  0  0  0  0  0  0  0  0  0
  1  2  1  0  0  0  0
  2  3  1  0  0  0  0
  3  4  2  0  0  0  0
  3 15  1  0  0  0  0
  4  8  1  0  0  0  0
  5 20  1  0  0  0  0
  5  4  1  0  0  0  0
  6  5  2  0  0  0  0
  7  6  1  0  0  0  0
  7  2  2  0  0  0  0
  9  6  1  0  0  0  0
 10  7  1  0  0  0  0
 11 17  1  0  0  0  0
 11 12  1  0  0  0  0
 12 18  1  0  0  0  0
 13 12  2  0  0  0  0
 13 19  1  0  0  0  0
 14 13  1  0  0  0  0
 15 16  1  0  0  0  0
 15 14  2  0  0  0  0
 16 11  2  0  0  0  0
 20 25  1  0  0  0  0
 21 22  1  0  0  0  0
 21 20  2  0  0  0  0
 22 23  2  0  0  0  0
 23 24  1  0  0  0  0
 24 28  1  0  0  0  0
 25 24  2  0  0  0  0
 26 21  1  0  0  0  0
 27 22  1  0  0  0  0
 28 35  1  0  0  0  0
 28 29  2  0  0  0  0
 29 30  1  0  0  0  0
 29 31  1  0  0  0  0
 31 32  1  0  0  0  0
 33 31  1  0  0  0  0
 33 34  1  0  0  0  0
 35 33  2  0  0  0  0
M  END
>  <minimizedAffinity>
-5.66047955

$$$$

 OpenBabel03272510223D

 35 38  0  0  0  0  0  0  0  0999 V2000
   34.6920   30.8450   31.6940 Br  0  0  0  0  0  0  0  0  0  0  0  0
   35.8390   29.5500   32.4910 C   0  0  0  0  0  0  0  0  0  0  0  0
   35.7920   29.3110   33.8540 C   0  0  0  0  0  0  0  0  0  0  0  0
   36.6450   28.3640   34.3680 C   0  0  0  0  0  0  0  0  0  0  0  0
   37.5400   27.6490   33.5790 C   0  0  0  0  0  0  0  0  0  0  0  0
   37.5630   27.9040   32.2450 C   0  0  0  0  0  0  0  0  0  0  0  0
   36.7110   28.8540   31.7160 C   0  0  0  0  0  0  0  0  0  0  0  0
   36.6570   28.1340   35.4200 H   0  0  0  0  0  0  0  0  0  0  0  0
   38.2390   27.3800   31.5720 H   0  0  0  0  0  0  0  0  0  0  0  0
   36.7410   29.0430   30.6640 H   0  0  0  0  0  0  0  0  0  0  0  0
   32.6660   30.2400   35.5030 C   0  0  0  0  0  0  0  0  0  0  0  0
   33.0500   31.3510   36.3190 C   0  0  0  0  0  0  0  0  0  0  0  0
   34.3730   31.7530   36.2830 C   0  0  0  0  0  0  0  0  0  0  0  0
   35.2460   31.0770   35.4750 N   0  0  0  0  0  0  0  0  0  0  0  0
   34.8710   30.0380   34.7160 C   0  0  0  0  0  0  0  0  0  0  0  0
   33.5670   29.6180   34.7320 N   0  0  0  0  0  0  0  0  0  0  0  0
   31.6710   29.8660   35.4700 H   0  0  0  0  0  0  0  0  0  0  0  0
   32.2930   31.8200   36.9220 H   0  0  0  0  0  0  0  0  0  0  0  0
   34.6930   32.5900   36.8890 H   0  0  0  0  0  0  0  0  0  0  0  0
   38.4450   26.6440   34.1220 C   0  0  0  0  0  0  0  0  0  0  0  0
   39.8050   26.7870   34.2420 C   0  0  0  0  0  0  0  0  0  0  0  0
   40.6240   25.8060   34.7640 C   0  0  0  0  0  0  0  0  0  0  0  0
   40.0950   24.6600   35.1770 N   0  0  0  0  0  0  0  0  0  0  0  0
   38.7540   24.4860   35.0730 C   0  0  0  0  0  0  0  0  0  0  0  0
   37.9830   25.4490   34.5640 N   0  0  0  0  0  0  0  0  0  0  0  0
   40.2460   27.7260   33.9060 H   0  0  0  0  0  0  0  0  0  0  0  0
   41.6930   25.9380   34.8520 H   0  0  0  0  0  0  0  0  0  0  0  0
   37.9880   23.2890   35.4740 C   0  0  0  0  0  0  0  0  0  0  0  0
   37.6050   23.0140   36.7900 C   0  0  0  0  0  0  0  0  0  0  0  0
   37.7910   23.5890   37.6690 H   0  0  0  0  0  0  0  0  0  0  0  0
   36.9220   21.8380   36.7630 N   0  0  0  0  0  0  0  0  0  0  0  0
   36.5070   21.3660   37.5890 H   0  0  0  0  0  0  0  0  0  0  0  0
   36.8730   21.3840   35.4900 C   0  0  0  0  0  0  0  0  0  0  0  0
   36.4160   20.4860   35.0940 H   0  0  0  0  0  0  0  0  0  0  0  0
   37.5240   22.2750   34.7160 N   0  0  0  0  0  0  0  0  0  0  0  0
  1  2  1  0  0  0  0
  2  3  1  0  0  0  0
  3  4  2  0  0  0  0
  3 15  1  0  0  0  0
  4  8  1  0  0  0  0
  5 20  1  0  0  0  0
  5  4  1  0  0  0  0
  6  5  2  0  0  0  0
  7  6  1  0  0  0  0
  7  2  2  0  0  0  0
  9  6  1  0  0  0  0
 10  7  1  0  0  0  0
 11 12  1  0  0  0  0
 12 18  1  0  0  0  0
 13 12  2  0  0  0  0
 13 19  1  0  0  0  0
 14 13  1  0  0  0  0
 15 16  1  0  0  0  0
 15 14  2  0  0  0  0
 16 11  2  0  0  0  0
 17 11  1  0  0  0  0
 20 21  2  0  0  0  0
 20 25  1  0  0  0  0
 21 22  1  0  0  0  0
 22 27  1  0  0  0  0
 22 23  2  0  0  0  0
 24 23  1  0  0  0  0
 24 28  1  0  0  0  0
 25 24  2  0  0  0  0
 26 21  1  0  0  0  0
 28 29  2  0  0  0  0
 29 30  1  0  0  0  0
 31 29  1  0  0  0  0
 31 32  1  0  0  0  0
 33 31  1  0  0  0  0
 34 33  1  0  0  0  0
 35 28  1  0  0  0  0
 35 33  2  0  0  0  0
M  END
>  <minimizedAffinity>
-5.61519003

$$$$

 OpenBabel03272510223D

 35 38  0  0  0  0  0  0  0  0999 V2000
   34.3610   32.3620   32.4140 Br  0  0  0  0  0  0  0  0  0  0  0  0
   35.2360   30.6810   32.6080 C   0  0  0  0  0  0  0  0  0  0  0  0
   35.3170   30.0680   33.8470 C   0  0  0  0  0  0  0  0  0  0  0  0
   35.9610   28.8560   33.9210 C   0  0  0  0  0  0  0  0  0  0  0  0
   36.5250   28.2340   32.8120 C   0  0  0  0  0  0  0  0  0  0  0  0
   36.4280   28.8590   31.6100 C   0  0  0  0  0  0  0  0  0  0  0  0
   35.7840   30.0770   31.5220 C   0  0  0  0  0  0  0  0  0  0  0  0
   36.0570   28.3300   34.8550 H   0  0  0  0  0  0  0  0  0  0  0  0
   36.8480   28.4270   30.7030 H   0  0  0  0  0  0  0  0  0  0  0  0
   35.7170   30.5560   30.5680 H   0  0  0  0  0  0  0  0  0  0  0  0
   32.8400   30.9230   36.3930 C   0  0  0  0  0  0  0  0  0  0  0  0
   33.5600   31.8040   37.2610 C   0  0  0  0  0  0  0  0  0  0  0  0
   34.8790   32.0830   36.9490 C   0  0  0  0  0  0  0  0  0  0  0  0
   35.4290   31.5080   35.8350 N   0  0  0  0  0  0  0  0  0  0  0  0
   34.7410   30.6850   35.0340 C   0  0  0  0  0  0  0  0  0  0  0  0
   33.4340   30.3910   35.3180 N   0  0  0  0  0  0  0  0  0  0  0  0
   31.8240   30.6560   36.5590 H   0  0  0  0  0  0  0  0  0  0  0  0
   33.0440   32.2080   38.1130 H   0  0  0  0  0  0  0  0  0  0  0  0
   35.4490   32.7460   37.5860 H   0  0  0  0  0  0  0  0  0  0  0  0
   37.2070   26.9480   32.8870 C   0  0  0  0  0  0  0  0  0  0  0  0
   36.6650   25.7420   32.5180 C   0  0  0  0  0  0  0  0  0  0  0  0
   37.3500   24.5470   32.6070 C   0  0  0  0  0  0  0  0  0  0  0  0
   38.5950   24.5370   33.0670 N   0  0  0  0  0  0  0  0  0  0  0  0
   39.1620   25.7120   33.4400 C   0  0  0  0  0  0  0  0  0  0  0  0
   38.4790   26.8540   33.3460 N   0  0  0  0  0  0  0  0  0  0  0  0
   35.6420   25.7430   32.1380 H   0  0  0  0  0  0  0  0  0  0  0  0
   36.9060   23.6080   32.3110 H   0  0  0  0  0  0  0  0  0  0  0  0
   40.5250   25.9010   33.9740 C   0  0  0  0  0  0  0  0  0  0  0  0
   41.2360   27.1030   33.8920 C   0  0  0  0  0  0  0  0  0  0  0  0
   40.9280   28.0270   33.4560 H   0  0  0  0  0  0  0  0  0  0  0  0
   42.4390   26.8900   34.4880 N   0  0  0  0  0  0  0  0  0  0  0  0
   43.1930   27.5960   34.5870 H   0  0  0  0  0  0  0  0  0  0  0  0
   42.4950   25.6120   34.9290 C   0  0  0  0  0  0  0  0  0  0  0  0
   43.2930   25.0940   35.4470 H   0  0  0  0  0  0  0  0  0  0  0  0
   41.3260   25.0220   34.6120 N   0  0  0  0  0  0  0  0  0  0  0  0
  1  2  1  0  0  0  0
  2  3  1  0  0  0  0
  3  4  2  0  0  0  0
  3 15  1  0  0  0  0
  4  8  1  0  0  0  0
  5 20  1  0  0  0  0
  5  4  1  0  0  0  0
  6  5  2  0  0  0  0
  7  6  1  0  0  0  0
  7  2  2  0  0  0  0
  9  6  1  0  0  0  0
 10  7  1  0  0  0  0
 11 17  1  0  0  0  0
 11 12  1  0  0  0  0
 12 18  1  0  0  0  0
 13 12  2  0  0  0  0
 13 19  1  0  0  0  0
 14 13  1  0  0  0  0
 15 16  1  0  0  0  0
 15 14  2  0  0  0  0
 16 11  2  0  0  0  0
 20 25  1  0  0  0  0
 21 22  1  0  0  0  0
 21 20  2  0  0  0  0
 22 23  2  0  0  0  0
 23 24  1  0  0  0  0
 24 28  1  0  0  0  0
 25 24  2  0  0  0  0
 26 21  1  0  0  0  0
 27 22  1  0  0  0  0
 28 35  1  0  0  0  0
 29 28  2  0  0  0  0
 29 31  1  0  0  0  0
 30 29  1  0  0  0  0
 31 32  1  0  0  0  0
 31 33  1  0  0  0  0
 33 34  1  0  0  0  0
 35 33  2  0  0  0  0
M  END
>  <minimizedAffinity>
-5.5220027

$$$$

 OpenBabel03272510223D

 35 38  0  0  0  0  0  0  0  0999 V2000
   39.4300   27.2720   30.6030 Br  0  0  0  0  0  0  0  0  0  0  0  0
   37.8580   27.9390   31.4470 C   0  0  0  0  0  0  0  0  0  0  0  0
   37.5740   27.6130   32.7620 C   0  0  0  0  0  0  0  0  0  0  0  0
   36.4250   28.1270   33.3150 C   0  0  0  0  0  0  0  0  0  0  0  0
   35.5520   28.9480   32.6090 C   0  0  0  0  0  0  0  0  0  0  0  0
   35.8580   29.2500   31.3210 C   0  0  0  0  0  0  0  0  0  0  0  0
   37.0100   28.7410   30.7540 C   0  0  0  0  0  0  0  0  0  0  0  0
   36.1480   27.9100   34.3330 H   0  0  0  0  0  0  0  0  0  0  0  0
   35.2180   29.8870   30.7130 H   0  0  0  0  0  0  0  0  0  0  0  0
   37.2360   28.9880   29.7380 H   0  0  0  0  0  0  0  0  0  0  0  0
   38.9380   24.5730   34.2620 C   0  0  0  0  0  0  0  0  0  0  0  0
   40.0820   25.0520   34.9760 C   0  0  0  0  0  0  0  0  0  0  0  0
   40.3570   26.4060   34.9240 C   0  0  0  0  0  0  0  0  0  0  0  0
   39.5280   27.2200   34.2000 N   0  0  0  0  0  0  0  0  0  0  0  0
   38.4610   26.7560   33.5370 C   0  0  0  0  0  0  0  0  0  0  0  0
   38.1650   25.4190   33.5700 N   0  0  0  0  0  0  0  0  0  0  0  0
   38.6550   23.5490   34.2490 H   0  0  0  0  0  0  0  0  0  0  0  0
   40.6760   24.3370   35.5180 H   0  0  0  0  0  0  0  0  0  0  0  0
   41.2150   26.7970   35.4540 H   0  0  0  0  0  0  0  0  0  0  0  0
   34.3330   29.4940   33.1930 C   0  0  0  0  0  0  0  0  0  0  0  0
   33.0580   29.2200   32.7630 C   0  0  0  0  0  0  0  0  0  0  0  0
   31.9310   29.7600   33.3480 C   0  0  0  0  0  0  0  0  0  0  0  0
   32.0590   30.5880   34.3780 N   0  0  0  0  0  0  0  0  0  0  0  0
   33.3050   30.8800   34.8290 C   0  0  0  0  0  0  0  0  0  0  0  0
   34.3790   30.3460   34.2460 N   0  0  0  0  0  0  0  0  0  0  0  0
   32.9460   28.5390   31.9180 H   0  0  0  0  0  0  0  0  0  0  0  0
   30.9360   29.5320   32.9960 H   0  0  0  0  0  0  0  0  0  0  0  0
   33.6470   31.7740   35.9530 C   0  0  0  0  0  0  0  0  0  0  0  0
   34.8610   31.7270   36.6460 C   0  0  0  0  0  0  0  0  0  0  0  0
   35.6910   31.0770   36.4850 H   0  0  0  0  0  0  0  0  0  0  0  0
   34.8060   32.6930   37.6010 N   0  0  0  0  0  0  0  0  0  0  0  0
   35.5600   32.9090   38.2810 H   0  0  0  0  0  0  0  0  0  0  0  0
   33.6130   33.3270   37.5220 C   0  0  0  0  0  0  0  0  0  0  0  0
   33.2230   34.1420   38.1200 H   0  0  0  0  0  0  0  0  0  0  0  0
   32.9180   32.7590   36.5180 N   0  0  0  0  0  0  0  0  0  0  0  0
  1  2  1  0  0  0  0
  2  3  1  0  0  0  0
  3  4  2  0  0  0  0
  3 15  1  0  0  0  0
  4  8  1  0  0  0  0
  5 20  1  0  0  0  0
  5  4  1  0  0  0  0
  6  5  2  0  0  0  0
  7  6  1  0  0  0  0
  7  2  2  0  0  0  0
  9  6  1  0  0  0  0
 10  7  1  0  0  0  0
 11 12  1  0  0  0  0
 12 18  1  0  0  0  0
 13 12  2  0  0  0  0
 13 19  1  0  0  0  0
 14 13  1  0  0  0  0
 15 16  1  0  0  0  0
 15 14  2  0  0  0  0
 16 11  2  0  0  0  0
 17 11  1  0  0  0  0
 20 25  1  0  0  0  0
 21 20  2  0  0  0  0
 21 22  1  0  0  0  0
 22 23  2  0  0  0  0
 23 24  1  0  0  0  0
 24 28  1  0  0  0  0
 25 24  2  0  0  0  0
 26 21  1  0  0  0  0
 27 22  1  0  0  0  0
 28 35  1  0  0  0  0
 28 29  2  0  0  0  0
 29 31  1  0  0  0  0
 30 29  1  0  0  0  0
 31 32  1  0  0  0  0
 33 31  1  0  0  0  0
 33 34  1  0  0  0  0
 35 33  2  0  0  0  0
M  END
>  <minimizedAffinity>
-5.49360228

$$$$
