
 OpenBabel03272510193D

 35 38  0  0  0  0  0  0  0  0999 V2000
   37.3680   29.1600   50.7820 Br  0  0  0  0  0  0  0  0  0  0  0  0
   35.9700   29.2790   49.4930 C   0  0  0  0  0  0  0  0  0  0  0  0
   35.9770   30.2800   48.5370 C   0  0  0  0  0  0  0  0  0  0  0  0
   34.9410   30.3120   47.6360 C   0  0  0  0  0  0  0  0  0  0  0  0
   33.9010   29.3880   47.6500 C   0  0  0  0  0  0  0  0  0  0  0  0
   33.9210   28.4170   48.6000 C   0  0  0  0  0  0  0  0  0  0  0  0
   34.9570   28.3740   49.5120 C   0  0  0  0  0  0  0  0  0  0  0  0
   34.8900   31.0660   46.8680 H   0  0  0  0  0  0  0  0  0  0  0  0
   33.1380   27.6640   48.6670 H   0  0  0  0  0  0  0  0  0  0  0  0
   34.9580   27.6030   50.2530 H   0  0  0  0  0  0  0  0  0  0  0  0
   38.0030   33.1750   49.4700 C   0  0  0  0  0  0  0  0  0  0  0  0
   39.0320   33.1820   48.4760 C   0  0  0  0  0  0  0  0  0  0  0  0
   39.0050   32.1920   47.5100 C   0  0  0  0  0  0  0  0  0  0  0  0
   38.0030   31.2600   47.5490 N   0  0  0  0  0  0  0  0  0  0  0  0
   37.0470   31.2680   48.4870 C   0  0  0  0  0  0  0  0  0  0  0  0
   37.0490   32.2360   49.4550 N   0  0  0  0  0  0  0  0  0  0  0  0
   37.9490   33.8980   50.2470 H   0  0  0  0  0  0  0  0  0  0  0  0
   39.7790   33.9540   48.5260 H   0  0  0  0  0  0  0  0  0  0  0  0
   39.7700   32.1710   46.7460 H   0  0  0  0  0  0  0  0  0  0  0  0
   32.8010   29.4200   46.6950 C   0  0  0  0  0  0  0  0  0  0  0  0
   32.0650   28.3300   46.3000 C   0  0  0  0  0  0  0  0  0  0  0  0
   31.0290   28.4070   45.3910 C   0  0  0  0  0  0  0  0  0  0  0  0
   30.7090   29.5810   44.8580 N   0  0  0  0  0  0  0  0  0  0  0  0
   31.4170   30.6780   45.2270 C   0  0  0  0  0  0  0  0  0  0  0  0
   32.4130   30.5780   46.1070 N   0  0  0  0  0  0  0  0  0  0  0  0
   32.3210   27.3630   46.7350 H   0  0  0  0  0  0  0  0  0  0  0  0
   30.4610   27.5380   45.0930 H   0  0  0  0  0  0  0  0  0  0  0  0
   31.2120   32.0590   44.7460 C   0  0  0  0  0  0  0  0  0  0  0  0
   30.0240   32.5150   44.1680 C   0  0  0  0  0  0  0  0  0  0  0  0
   29.1210   31.9730   43.9890 H   0  0  0  0  0  0  0  0  0  0  0  0
   30.2140   33.8250   43.8560 N   0  0  0  0  0  0  0  0  0  0  0  0
   29.5100   34.4460   43.4120 H   0  0  0  0  0  0  0  0  0  0  0  0
   31.4660   34.1870   44.2200 C   0  0  0  0  0  0  0  0  0  0  0  0
   31.9620   35.1460   44.1250 H   0  0  0  0  0  0  0  0  0  0  0  0
   32.0620   33.1060   44.7570 N   0  0  0  0  0  0  0  0  0  0  0  0
  2  7  1  0  0  0  0
  2  1  1  0  0  0  0
  3  2  2  0  0  0  0
  4  5  2  0  0  0  0
  4  3  1  0  0  0  0
  5  6  1  0  0  0  0
  6  9  1  0  0  0  0
  6  7  2  0  0  0  0
  7 10  1  0  0  0  0
  8  4  1  0  0  0  0
 11 17  1  0  0  0  0
 12 18  1  0  0  0  0
 12 11  2  0  0  0  0
 13 14  2  0  0  0  0
 13 12  1  0  0  0  0
 14 15  1  0  0  0  0
 15  3  1  0  0  0  0
 15 16  2  0  0  0  0
 16 11  1  0  0  0  0
 19 13  1  0  0  0  0
 20  5  1  0  0  0  0
 21 20  1  0  0  0  0
 21 26  1  0  0  0  0
 22 21  2  0  0  0  0
 23 24  2  0  0  0  0
 23 22  1  0  0  0  0
 24 25  1  0  0  0  0
 25 20  2  0  0  0  0
 27 22  1  0  0  0  0
 28 35  1  0  0  0  0
 28 24  1  0  0  0  0
 29 28  2  0  0  0  0
 30 29  1  0  0  0  0
 31 29  1  0  0  0  0
 31 33  1  0  0  0  0
 32 31  1  0  0  0  0
 33 35  2  0  0  0  0
 34 33  1  0  0  0  0
M  END
>  <minimizedAffinity>
-6.63648033

>  <minimizedRMSD>
0.448452175

$$$$
