
 OpenBabel03272510193D

 35 38  0  0  0  0  0  0  0  0999 V2000
   37.4430   29.1620   50.8210 Br  0  0  0  0  0  0  0  0  0  0  0  0
   36.0420   29.3110   49.5390 C   0  0  0  0  0  0  0  0  0  0  0  0
   36.0410   30.3400   48.6130 C   0  0  0  0  0  0  0  0  0  0  0  0
   35.0020   30.3920   47.7150 C   0  0  0  0  0  0  0  0  0  0  0  0
   33.9680   29.4620   47.7040 C   0  0  0  0  0  0  0  0  0  0  0  0
   33.9960   28.4640   48.6250 C   0  0  0  0  0  0  0  0  0  0  0  0
   35.0340   28.4000   49.5330 C   0  0  0  0  0  0  0  0  0  0  0  0
   34.9450   31.1680   46.9700 H   0  0  0  0  0  0  0  0  0  0  0  0
   33.2180   27.7040   48.6720 H   0  0  0  0  0  0  0  0  0  0  0  0
   35.0410   27.6080   50.2520 H   0  0  0  0  0  0  0  0  0  0  0  0
   38.0200   33.2510   49.5930 C   0  0  0  0  0  0  0  0  0  0  0  0
   39.0770   33.2620   48.6280 C   0  0  0  0  0  0  0  0  0  0  0  0
   39.0830   32.2700   47.6640 C   0  0  0  0  0  0  0  0  0  0  0  0
   38.0870   31.3310   47.6780 N   0  0  0  0  0  0  0  0  0  0  0  0
   37.1050   31.3350   48.5890 C   0  0  0  0  0  0  0  0  0  0  0  0
   37.0740   32.3050   49.5550 N   0  0  0  0  0  0  0  0  0  0  0  0
   37.9400   33.9760   50.3670 H   0  0  0  0  0  0  0  0  0  0  0  0
   39.8160   34.0400   48.6960 H   0  0  0  0  0  0  0  0  0  0  0  0
   39.8680   32.2520   46.9210 H   0  0  0  0  0  0  0  0  0  0  0  0
   32.8650   29.5150   46.7530 C   0  0  0  0  0  0  0  0  0  0  0  0
   31.9690   28.5010   46.5230 C   0  0  0  0  0  0  0  0  0  0  0  0
   30.9380   28.5960   45.6110 C   0  0  0  0  0  0  0  0  0  0  0  0
   30.7840   29.7130   44.9080 N   0  0  0  0  0  0  0  0  0  0  0  0
   31.6530   30.7350   45.1110 C   0  0  0  0  0  0  0  0  0  0  0  0
   32.6410   30.6190   45.9980 N   0  0  0  0  0  0  0  0  0  0  0  0
   32.0890   27.5810   47.0980 H   0  0  0  0  0  0  0  0  0  0  0  0
   30.2430   27.7870   45.4440 H   0  0  0  0  0  0  0  0  0  0  0  0
   31.6440   32.0450   44.4290 C   0  0  0  0  0  0  0  0  0  0  0  0
   32.4390   32.3530   43.3210 C   0  0  0  0  0  0  0  0  0  0  0  0
   33.1410   31.7300   42.8140 H   0  0  0  0  0  0  0  0  0  0  0  0
   32.1570   33.6380   42.9780 N   0  0  0  0  0  0  0  0  0  0  0  0
   32.5880   34.1590   42.1910 H   0  0  0  0  0  0  0  0  0  0  0  0
   31.2250   34.1270   43.8290 C   0  0  0  0  0  0  0  0  0  0  0  0
   30.7650   35.1070   43.8600 H   0  0  0  0  0  0  0  0  0  0  0  0
   30.9220   33.1500   44.7050 N   0  0  0  0  0  0  0  0  0  0  0  0
  2  1  1  0  0  0  0
  3  2  2  0  0  0  0
  4  3  1  0  0  0  0
  5  4  2  0  0  0  0
  5  6  1  0  0  0  0
  6  9  1  0  0  0  0
  6  7  2  0  0  0  0
  7  2  1  0  0  0  0
  7 10  1  0  0  0  0
  8  4  1  0  0  0  0
 11 17  1  0  0  0  0
 12 18  1  0  0  0  0
 12 11  2  0  0  0  0
 13 14  2  0  0  0  0
 13 12  1  0  0  0  0
 14 15  1  0  0  0  0
 15  3  1  0  0  0  0
 15 16  2  0  0  0  0
 16 11  1  0  0  0  0
 19 13  1  0  0  0  0
 20  5  1  0  0  0  0
 21 20  1  0  0  0  0
 21 26  1  0  0  0  0
 22 21  2  0  0  0  0
 23 24  2  0  0  0  0
 23 22  1  0  0  0  0
 24 25  1  0  0  0  0
 25 20  2  0  0  0  0
 27 22  1  0  0  0  0
 28 35  1  0  0  0  0
 28 24  1  0  0  0  0
 29 28  2  0  0  0  0
 30 29  1  0  0  0  0
 31 29  1  0  0  0  0
 31 33  1  0  0  0  0
 32 31  1  0  0  0  0
 33 34  1  0  0  0  0
 33 35  2  0  0  0  0
M  END
>  <minimizedAffinity>
-6.39709997

>  <minimizedRMSD>
0.602458775

$$$$
