
 OpenBabel03272510193D

 35 38  0  0  0  0  0  0  0  0999 V2000
   37.3670   29.1550   50.8020 Br  0  0  0  0  0  0  0  0  0  0  0  0
   35.9900   29.3010   49.4940 C   0  0  0  0  0  0  0  0  0  0  0  0
   36.0080   30.3270   48.5650 C   0  0  0  0  0  0  0  0  0  0  0  0
   34.9860   30.3770   47.6470 C   0  0  0  0  0  0  0  0  0  0  0  0
   33.9510   29.4490   47.6200 C   0  0  0  0  0  0  0  0  0  0  0  0
   33.9600   28.4540   48.5450 C   0  0  0  0  0  0  0  0  0  0  0  0
   34.9810   28.3920   49.4720 C   0  0  0  0  0  0  0  0  0  0  0  0
   34.9440   31.1510   46.8980 H   0  0  0  0  0  0  0  0  0  0  0  0
   33.1800   27.6950   48.5790 H   0  0  0  0  0  0  0  0  0  0  0  0
   34.9740   27.6020   50.1940 H   0  0  0  0  0  0  0  0  0  0  0  0
   37.9830   33.2270   49.5830 C   0  0  0  0  0  0  0  0  0  0  0  0
   39.0480   33.2440   48.6270 C   0  0  0  0  0  0  0  0  0  0  0  0
   39.0610   32.2590   47.6570 C   0  0  0  0  0  0  0  0  0  0  0  0
   38.0630   31.3220   47.6550 N   0  0  0  0  0  0  0  0  0  0  0  0
   37.0730   31.3200   48.5570 C   0  0  0  0  0  0  0  0  0  0  0  0
   37.0350   32.2830   49.5300 N   0  0  0  0  0  0  0  0  0  0  0  0
   37.8970   33.9470   50.3620 H   0  0  0  0  0  0  0  0  0  0  0  0
   39.7880   34.0210   48.7080 H   0  0  0  0  0  0  0  0  0  0  0  0
   39.8520   32.2460   46.9200 H   0  0  0  0  0  0  0  0  0  0  0  0
   32.8670   29.5000   46.6480 C   0  0  0  0  0  0  0  0  0  0  0  0
   32.0420   28.4500   46.3260 C   0  0  0  0  0  0  0  0  0  0  0  0
   31.0260   28.5450   45.3970 C   0  0  0  0  0  0  0  0  0  0  0  0
   30.8140   29.6970   44.7710 N   0  0  0  0  0  0  0  0  0  0  0  0
   31.6110   30.7550   45.0660 C   0  0  0  0  0  0  0  0  0  0  0  0
   32.5870   30.6380   45.9670 N   0  0  0  0  0  0  0  0  0  0  0  0
   32.2100   27.5010   46.8380 H   0  0  0  0  0  0  0  0  0  0  0  0
   30.3870   27.7080   45.1580 H   0  0  0  0  0  0  0  0  0  0  0  0
   31.5310   32.1060   44.4770 C   0  0  0  0  0  0  0  0  0  0  0  0
   30.4120   32.9380   44.5820 C   0  0  0  0  0  0  0  0  0  0  0  0
   29.4850   32.7440   45.0750 H   0  0  0  0  0  0  0  0  0  0  0  0
   30.7110   34.0880   43.9210 N   0  0  0  0  0  0  0  0  0  0  0  0
   30.0800   34.9050   43.8200 H   0  0  0  0  0  0  0  0  0  0  0  0
   31.9650   33.9940   43.4180 C   0  0  0  0  0  0  0  0  0  0  0  0
   32.5310   34.7130   42.8390 H   0  0  0  0  0  0  0  0  0  0  0  0
   32.4510   32.7870   43.7630 N   0  0  0  0  0  0  0  0  0  0  0  0
  2  1  1  0  0  0  0
  3  2  2  0  0  0  0
  4  3  1  0  0  0  0
  5  4  2  0  0  0  0
  5  6  1  0  0  0  0
  6  9  1  0  0  0  0
  6  7  2  0  0  0  0
  7  2  1  0  0  0  0
  7 10  1  0  0  0  0
  8  4  1  0  0  0  0
 11 17  1  0  0  0  0
 12 18  1  0  0  0  0
 12 11  2  0  0  0  0
 13 12  1  0  0  0  0
 14 13  2  0  0  0  0
 14 15  1  0  0  0  0
 15  3  1  0  0  0  0
 15 16  2  0  0  0  0
 16 11  1  0  0  0  0
 19 13  1  0  0  0  0
 20  5  1  0  0  0  0
 21 20  1  0  0  0  0
 21 26  1  0  0  0  0
 22 21  2  0  0  0  0
 23 24  2  0  0  0  0
 23 22  1  0  0  0  0
 24 25  1  0  0  0  0
 25 20  2  0  0  0  0
 27 22  1  0  0  0  0
 28 29  2  0  0  0  0
 28 24  1  0  0  0  0
 29 30  1  0  0  0  0
 31 29  1  0  0  0  0
 32 31  1  0  0  0  0
 33 35  2  0  0  0  0
 33 31  1  0  0  0  0
 34 33  1  0  0  0  0
 35 28  1  0  0  0  0
M  END
>  <minimizedAffinity>
-6.55523539

>  <minimizedRMSD>
0.465665847

$$$$
