
 OpenBabel03272510193D

 35 38  0  0  0  0  0  0  0  0999 V2000
   37.2340   29.3050   50.9700 Br  0  0  0  0  0  0  0  0  0  0  0  0
   35.9110   29.3160   49.6000 C   0  0  0  0  0  0  0  0  0  0  0  0
   35.9660   30.2460   48.5760 C   0  0  0  0  0  0  0  0  0  0  0  0
   34.9820   30.2020   47.6180 C   0  0  0  0  0  0  0  0  0  0  0  0
   33.9480   29.2710   47.6410 C   0  0  0  0  0  0  0  0  0  0  0  0
   33.9220   28.3710   48.6580 C   0  0  0  0  0  0  0  0  0  0  0  0
   34.9050   28.4040   49.6270 C   0  0  0  0  0  0  0  0  0  0  0  0
   34.9690   30.8980   46.7960 H   0  0  0  0  0  0  0  0  0  0  0  0
   33.1410   27.6160   48.7350 H   0  0  0  0  0  0  0  0  0  0  0  0
   34.8690   27.6880   50.4210 H   0  0  0  0  0  0  0  0  0  0  0  0
   37.9710   33.1660   49.4710 C   0  0  0  0  0  0  0  0  0  0  0  0
   39.0040   33.1640   48.4810 C   0  0  0  0  0  0  0  0  0  0  0  0
   38.9870   32.1590   47.5310 C   0  0  0  0  0  0  0  0  0  0  0  0
   37.9900   31.2220   47.5800 N   0  0  0  0  0  0  0  0  0  0  0  0
   37.0300   31.2390   48.5140 C   0  0  0  0  0  0  0  0  0  0  0  0
   37.0230   32.2220   49.4670 N   0  0  0  0  0  0  0  0  0  0  0  0
   37.9100   33.9020   50.2370 H   0  0  0  0  0  0  0  0  0  0  0  0
   39.7460   33.9410   48.5210 H   0  0  0  0  0  0  0  0  0  0  0  0
   39.7540   32.1300   46.7690 H   0  0  0  0  0  0  0  0  0  0  0  0
   32.9040   29.2220   46.6250 C   0  0  0  0  0  0  0  0  0  0  0  0
   32.3010   28.0770   46.1660 C   0  0  0  0  0  0  0  0  0  0  0  0
   31.3140   28.0780   45.2020 C   0  0  0  0  0  0  0  0  0  0  0  0
   30.9100   29.2300   44.6770 N   0  0  0  0  0  0  0  0  0  0  0  0
   31.4860   30.3800   45.1090 C   0  0  0  0  0  0  0  0  0  0  0  0
   32.4380   30.3530   46.0420 N   0  0  0  0  0  0  0  0  0  0  0  0
   32.6270   27.1280   46.5940 H   0  0  0  0  0  0  0  0  0  0  0  0
   30.8500   27.1670   44.8540 H   0  0  0  0  0  0  0  0  0  0  0  0
   31.1730   31.7470   44.6470 C   0  0  0  0  0  0  0  0  0  0  0  0
   31.6380   32.9080   45.2750 C   0  0  0  0  0  0  0  0  0  0  0  0
   32.2570   32.9910   46.1400 H   0  0  0  0  0  0  0  0  0  0  0  0
   31.1460   33.9610   44.5700 N   0  0  0  0  0  0  0  0  0  0  0  0
   31.3150   34.9610   44.7880 H   0  0  0  0  0  0  0  0  0  0  0  0
   30.4020   33.4940   43.5400 C   0  0  0  0  0  0  0  0  0  0  0  0
   29.8620   34.0390   42.7760 H   0  0  0  0  0  0  0  0  0  0  0  0
   30.4280   32.1490   43.5980 N   0  0  0  0  0  0  0  0  0  0  0  0
  2  7  1  0  0  0  0
  2  1  1  0  0  0  0
  3  2  2  0  0  0  0
  4  5  2  0  0  0  0
  4  3  1  0  0  0  0
  5  6  1  0  0  0  0
  6  9  1  0  0  0  0
  6  7  2  0  0  0  0
  7 10  1  0  0  0  0
  8  4  1  0  0  0  0
 11 17  1  0  0  0  0
 12 18  1  0  0  0  0
 12 11  2  0  0  0  0
 13 14  2  0  0  0  0
 13 12  1  0  0  0  0
 14 15  1  0  0  0  0
 15  3  1  0  0  0  0
 15 16  2  0  0  0  0
 16 11  1  0  0  0  0
 19 13  1  0  0  0  0
 20  5  1  0  0  0  0
 21 26  1  0  0  0  0
 21 20  1  0  0  0  0
 22 21  2  0  0  0  0
 23 24  2  0  0  0  0
 23 22  1  0  0  0  0
 24 25  1  0  0  0  0
 25 20  2  0  0  0  0
 27 22  1  0  0  0  0
 28 24  1  0  0  0  0
 28 29  2  0  0  0  0
 29 30  1  0  0  0  0
 31 32  1  0  0  0  0
 31 29  1  0  0  0  0
 33 35  2  0  0  0  0
 33 31  1  0  0  0  0
 34 33  1  0  0  0  0
 35 28  1  0  0  0  0
M  END
>  <minimizedAffinity>
-6.53734446

>  <minimizedRMSD>
0.137094647

$$$$
