
 OpenBabel03272508013D

 20 21  0  0  0  0  0  0  0  0999 V2000
   37.9570   24.9420   34.8660 C   0  0  0  0  0  0  0  0  0  0  0  0
   37.8740   24.9250   36.2750 C   0  0  0  0  0  0  0  0  0  0  0  0
   38.3830   23.8020   36.9550 C   0  0  0  0  0  0  0  0  0  0  0  0
   38.9270   22.7960   36.2050 N   0  0  0  0  0  0  0  0  0  0  0  0
   38.9890   22.8510   34.8560 C   0  0  0  0  0  0  0  0  0  0  0  0
   38.5010   23.9270   34.2070 N   0  0  0  0  0  0  0  0  0  0  0  0
   37.4460   25.7180   36.8380 H   0  0  0  0  0  0  0  0  0  0  0  0
   39.4400   22.0020   34.3540 H   0  0  0  0  0  0  0  0  0  0  0  0
   37.4170   26.1260   34.2050 C   0  0  0  0  0  0  0  0  0  0  0  0
   37.3320   26.3610   32.8500 C   0  0  0  0  0  0  0  0  0  0  0  0
   37.6490   25.7130   32.0380 H   0  0  0  0  0  0  0  0  0  0  0  0
   36.7620   27.5900   32.7020 N   0  0  0  0  0  0  0  0  0  0  0  0
   36.5350   28.1130   31.8290 H   0  0  0  0  0  0  0  0  0  0  0  0
   36.4950   28.1160   33.9330 C   0  0  0  0  0  0  0  0  0  0  0  0
   36.0420   29.0820   34.1190 H   0  0  0  0  0  0  0  0  0  0  0  0
   36.9080   27.1930   34.8480 N   0  0  0  0  0  0  0  0  0  0  0  0
   38.3030   23.7680   38.4380 C   0  0  0  0  0  0  0  0  0  0  0  0
   39.5130   23.3460   38.8810 F   0  0  0  0  0  0  0  0  0  0  0  0
   38.0130   24.9870   38.9840 F   0  0  0  0  0  0  0  0  0  0  0  0
   37.3350   22.8440   38.8570 F   0  0  0  0  0  0  0  0  0  0  0  0
  1  2  1  0  0  0  0
  2  7  1  0  0  0  0
  2  3  2  0  0  0  0
  3 17  1  0  0  0  0
  4  3  1  0  0  0  0
  5  4  2  0  0  0  0
  6  5  1  0  0  0  0
  6  1  2  0  0  0  0
  8  5  1  0  0  0  0
  9 16  1  0  0  0  0
  9  1  1  0  0  0  0
 10  9  2  0  0  0  0
 11 10  1  0  0  0  0
 12 10  1  0  0  0  0
 12 14  1  0  0  0  0
 13 12  1  0  0  0  0
 14 15  1  0  0  0  0
 14 16  2  0  0  0  0
 17 20  1  0  0  0  0
 17 18  1  0  0  0  0
 17 19  1  0  0  0  0
M  END
>  <minimizedAffinity>
-4.72374249

$$$$

 OpenBabel03272508013D

 20 21  0  0  0  0  0  0  0  0999 V2000
   38.1300   22.8260   35.0500 C   0  0  0  0  0  0  0  0  0  0  0  0
   37.2680   21.7520   34.7410 C   0  0  0  0  0  0  0  0  0  0  0  0
   36.7740   21.6560   33.4270 C   0  0  0  0  0  0  0  0  0  0  0  0
   37.1620   22.6120   32.5290 N   0  0  0  0  0  0  0  0  0  0  0  0
   37.9920   23.6250   32.8640 C   0  0  0  0  0  0  0  0  0  0  0  0
   38.4630   23.7150   34.1240 N   0  0  0  0  0  0  0  0  0  0  0  0
   36.9790   21.0190   35.4550 H   0  0  0  0  0  0  0  0  0  0  0  0
   38.2380   24.3320   32.0790 H   0  0  0  0  0  0  0  0  0  0  0  0
   38.6170   22.8840   36.4250 C   0  0  0  0  0  0  0  0  0  0  0  0
   39.7940   22.3640   36.9180 C   0  0  0  0  0  0  0  0  0  0  0  0
   40.5640   21.8230   36.3760 H   0  0  0  0  0  0  0  0  0  0  0  0
   39.8230   22.6580   38.2480 N   0  0  0  0  0  0  0  0  0  0  0  0
   40.5510   22.4300   38.9590 H   0  0  0  0  0  0  0  0  0  0  0  0
   38.6930   23.3450   38.5860 C   0  0  0  0  0  0  0  0  0  0  0  0
   38.4490   23.7060   39.5770 H   0  0  0  0  0  0  0  0  0  0  0  0
   37.9600   23.4730   37.4420 N   0  0  0  0  0  0  0  0  0  0  0  0
   35.8650   20.5310   33.0850 C   0  0  0  0  0  0  0  0  0  0  0  0
   34.7570   21.0840   32.5310 F   0  0  0  0  0  0  0  0  0  0  0  0
   36.4220   19.6440   32.2080 F   0  0  0  0  0  0  0  0  0  0  0  0
   35.4800   19.8410   34.2430 F   0  0  0  0  0  0  0  0  0  0  0  0
  1  9  1  0  0  0  0
  2  1  1  0  0  0  0
  2  7  1  0  0  0  0
  3  2  2  0  0  0  0
  4  5  2  0  0  0  0
  4  3  1  0  0  0  0
  5  6  1  0  0  0  0
  6  1  2  0  0  0  0
  8  5  1  0  0  0  0
  9 10  2  0  0  0  0
  9 16  1  0  0  0  0
 10 12  1  0  0  0  0
 11 10  1  0  0  0  0
 12 14  1  0  0  0  0
 12 13  1  0  0  0  0
 14 15  1  0  0  0  0
 16 14  2  0  0  0  0
 17  3  1  0  0  0  0
 17 20  1  0  0  0  0
 18 17  1  0  0  0  0
 19 17  1  0  0  0  0
M  END
>  <minimizedAffinity>
-4.63262844

$$$$

 OpenBabel03272508013D

 20 21  0  0  0  0  0  0  0  0999 V2000
   38.1890   23.9830   35.1580 C   0  0  0  0  0  0  0  0  0  0  0  0
   37.9970   25.3670   34.9600 C   0  0  0  0  0  0  0  0  0  0  0  0
   37.6100   25.8050   33.6790 C   0  0  0  0  0  0  0  0  0  0  0  0
   37.4430   24.8590   32.7060 N   0  0  0  0  0  0  0  0  0  0  0  0
   37.6360   23.5410   32.9370 C   0  0  0  0  0  0  0  0  0  0  0  0
   38.0070   23.1240   34.1640 N   0  0  0  0  0  0  0  0  0  0  0  0
   38.1330   26.0860   35.7310 H   0  0  0  0  0  0  0  0  0  0  0  0
   37.4780   22.8720   32.0990 H   0  0  0  0  0  0  0  0  0  0  0  0
   38.5910   23.5770   36.5020 C   0  0  0  0  0  0  0  0  0  0  0  0
   39.5870   22.6880   36.8430 C   0  0  0  0  0  0  0  0  0  0  0  0
   40.2450   22.1340   36.1790 H   0  0  0  0  0  0  0  0  0  0  0  0
   39.6010   22.6210   38.2040 N   0  0  0  0  0  0  0  0  0  0  0  0
   40.2130   22.0560   38.8310 H   0  0  0  0  0  0  0  0  0  0  0  0
   38.6380   23.4480   38.7080 C   0  0  0  0  0  0  0  0  0  0  0  0
   38.4240   23.5940   39.7580 H   0  0  0  0  0  0  0  0  0  0  0  0
   38.0260   24.0290   37.6360 N   0  0  0  0  0  0  0  0  0  0  0  0
   37.4030   27.2590   33.4530 C   0  0  0  0  0  0  0  0  0  0  0  0
   37.5160   27.8590   34.6640 F   0  0  0  0  0  0  0  0  0  0  0  0
   38.3140   27.7970   32.5880 F   0  0  0  0  0  0  0  0  0  0  0  0
   36.1140   27.5020   32.9600 F   0  0  0  0  0  0  0  0  0  0  0  0
  1  9  1  0  0  0  0
  2  1  1  0  0  0  0
  2  7  1  0  0  0  0
  3  2  2  0  0  0  0
  4  5  2  0  0  0  0
  4  3  1  0  0  0  0
  5  6  1  0  0  0  0
  6  1  2  0  0  0  0
  8  5  1  0  0  0  0
  9 10  2  0  0  0  0
  9 16  1  0  0  0  0
 10 12  1  0  0  0  0
 11 10  1  0  0  0  0
 12 14  1  0  0  0  0
 12 13  1  0  0  0  0
 14 15  1  0  0  0  0
 16 14  2  0  0  0  0
 17  3  1  0  0  0  0
 17 18  1  0  0  0  0
 19 17  1  0  0  0  0
 20 17  1  0  0  0  0
M  END
>  <minimizedAffinity>
-4.48038054

$$$$

 OpenBabel03272508013D

 20 21  0  0  0  0  0  0  0  0999 V2000
   38.3710   22.2540   34.9450 C   0  0  0  0  0  0  0  0  0  0  0  0
   37.9000   22.7830   36.1660 C   0  0  0  0  0  0  0  0  0  0  0  0
   38.8470   23.1200   37.1510 C   0  0  0  0  0  0  0  0  0  0  0  0
   40.1680   22.9130   36.8620 N   0  0  0  0  0  0  0  0  0  0  0  0
   40.5790   22.4040   35.6790 C   0  0  0  0  0  0  0  0  0  0  0  0
   39.6700   22.0830   34.7370 N   0  0  0  0  0  0  0  0  0  0  0  0
   36.8680   22.9360   36.3700 H   0  0  0  0  0  0  0  0  0  0  0  0
   41.6480   22.2790   35.5490 H   0  0  0  0  0  0  0  0  0  0  0  0
   37.3520   21.9200   33.9540 C   0  0  0  0  0  0  0  0  0  0  0  0
   37.2730   22.3670   32.6530 C   0  0  0  0  0  0  0  0  0  0  0  0
   37.9490   23.0430   32.1360 H   0  0  0  0  0  0  0  0  0  0  0  0
   36.1620   21.7950   32.1110 N   0  0  0  0  0  0  0  0  0  0  0  0
   35.7710   21.8930   31.1490 H   0  0  0  0  0  0  0  0  0  0  0  0
   35.5550   21.0070   33.0470 C   0  0  0  0  0  0  0  0  0  0  0  0
   34.6520   20.4320   32.8930 H   0  0  0  0  0  0  0  0  0  0  0  0
   36.3100   21.1000   34.1800 N   0  0  0  0  0  0  0  0  0  0  0  0
   38.3680   23.6780   38.4420 C   0  0  0  0  0  0  0  0  0  0  0  0
   37.3310   22.8990   38.8390 F   0  0  0  0  0  0  0  0  0  0  0  0
   39.3330   23.6840   39.4100 F   0  0  0  0  0  0  0  0  0  0  0  0
   37.8950   24.9850   38.2680 F   0  0  0  0  0  0  0  0  0  0  0  0
  1  2  1  0  0  0  0
  2  7  1  0  0  0  0
  2  3  2  0  0  0  0
  3 17  1  0  0  0  0
  4  3  1  0  0  0  0
  5  4  2  0  0  0  0
  6  1  2  0  0  0  0
  6  5  1  0  0  0  0
  8  5  1  0  0  0  0
  9 16  1  0  0  0  0
  9  1  1  0  0  0  0
 10  9  2  0  0  0  0
 11 10  1  0  0  0  0
 12 10  1  0  0  0  0
 12 14  1  0  0  0  0
 13 12  1  0  0  0  0
 14 16  2  0  0  0  0
 15 14  1  0  0  0  0
 17 18  1  0  0  0  0
 17 19  1  0  0  0  0
 20 17  1  0  0  0  0
M  END
>  <minimizedAffinity>
-4.48030663

$$$$

 OpenBabel03272508013D

 20 21  0  0  0  0  0  0  0  0999 V2000
   38.3420   24.4270   36.1950 C   0  0  0  0  0  0  0  0  0  0  0  0
   39.5320   23.6840   36.0350 C   0  0  0  0  0  0  0  0  0  0  0  0
   40.0160   22.9630   37.1420 C   0  0  0  0  0  0  0  0  0  0  0  0
   39.3020   23.0270   38.3060 N   0  0  0  0  0  0  0  0  0  0  0  0
   38.1650   23.7500   38.4190 C   0  0  0  0  0  0  0  0  0  0  0  0
   37.7030   24.4400   37.3570 N   0  0  0  0  0  0  0  0  0  0  0  0
   40.0720   23.6490   35.1200 H   0  0  0  0  0  0  0  0  0  0  0  0
   37.6730   23.7360   39.3850 H   0  0  0  0  0  0  0  0  0  0  0  0
   37.8790   25.1590   35.0200 C   0  0  0  0  0  0  0  0  0  0  0  0
   37.3500   26.4310   34.9840 C   0  0  0  0  0  0  0  0  0  0  0  0
   37.1840   27.1100   35.8150 H   0  0  0  0  0  0  0  0  0  0  0  0
   37.0600   26.6950   33.6780 N   0  0  0  0  0  0  0  0  0  0  0  0
   36.6470   27.5540   33.2540 H   0  0  0  0  0  0  0  0  0  0  0  0
   37.3990   25.6170   32.9120 C   0  0  0  0  0  0  0  0  0  0  0  0
   37.2800   25.5470   31.8380 H   0  0  0  0  0  0  0  0  0  0  0  0
   37.9040   24.6790   33.7640 N   0  0  0  0  0  0  0  0  0  0  0  0
   41.2670   22.1750   36.9910 C   0  0  0  0  0  0  0  0  0  0  0  0
   42.2880   23.0690   36.9800 F   0  0  0  0  0  0  0  0  0  0  0  0
   41.4560   21.2760   38.0020 F   0  0  0  0  0  0  0  0  0  0  0  0
   41.2720   21.4890   35.7690 F   0  0  0  0  0  0  0  0  0  0  0  0
  1  6  1  0  0  0  0
  2  1  2  0  0  0  0
  2  3  1  0  0  0  0
  3  4  2  0  0  0  0
  4  5  1  0  0  0  0
  5  8  1  0  0  0  0
  6  5  2  0  0  0  0
  7  2  1  0  0  0  0
  9  1  1  0  0  0  0
 10  9  2  0  0  0  0
 10 11  1  0  0  0  0
 12 10  1  0  0  0  0
 13 12  1  0  0  0  0
 14 12  1  0  0  0  0
 14 16  2  0  0  0  0
 15 14  1  0  0  0  0
 16  9  1  0  0  0  0
 17  3  1  0  0  0  0
 17 19  1  0  0  0  0
 18 17  1  0  0  0  0
 20 17  1  0  0  0  0
M  END
>  <minimizedAffinity>
-4.34162521

$$$$

 OpenBabel03272508013D

 20 21  0  0  0  0  0  0  0  0999 V2000
   37.9720   23.4720   34.6120 C   0  0  0  0  0  0  0  0  0  0  0  0
   38.0520   23.1270   35.9780 C   0  0  0  0  0  0  0  0  0  0  0  0
   38.1490   24.1680   36.9200 C   0  0  0  0  0  0  0  0  0  0  0  0
   38.1600   25.4520   36.4500 N   0  0  0  0  0  0  0  0  0  0  0  0
   38.0800   25.7420   35.1320 C   0  0  0  0  0  0  0  0  0  0  0  0
   37.9870   24.7430   34.2320 N   0  0  0  0  0  0  0  0  0  0  0  0
   38.0420   22.1200   36.3210 H   0  0  0  0  0  0  0  0  0  0  0  0
   38.0970   26.7930   34.8640 H   0  0  0  0  0  0  0  0  0  0  0  0
   37.8730   22.3590   33.6720 C   0  0  0  0  0  0  0  0  0  0  0  0
   38.7980   21.9820   32.7240 C   0  0  0  0  0  0  0  0  0  0  0  0
   39.7590   22.4410   32.5070 H   0  0  0  0  0  0  0  0  0  0  0  0
   38.2800   20.8970   32.0830 N   0  0  0  0  0  0  0  0  0  0  0  0
   38.6860   20.3320   31.3060 H   0  0  0  0  0  0  0  0  0  0  0  0
   37.0590   20.5970   32.6150 C   0  0  0  0  0  0  0  0  0  0  0  0
   36.4190   19.7830   32.3000 H   0  0  0  0  0  0  0  0  0  0  0  0
   36.8270   21.5160   33.5970 N   0  0  0  0  0  0  0  0  0  0  0  0
   38.2340   23.8220   38.3620 C   0  0  0  0  0  0  0  0  0  0  0  0
   39.4710   23.3030   38.5630 F   0  0  0  0  0  0  0  0  0  0  0  0
   38.0500   24.9010   39.1810 F   0  0  0  0  0  0  0  0  0  0  0  0
   37.2880   22.8400   38.6890 F   0  0  0  0  0  0  0  0  0  0  0  0
  1  2  1  0  0  0  0
  2  7  1  0  0  0  0
  2  3  2  0  0  0  0
  3 17  1  0  0  0  0
  4  3  1  0  0  0  0
  5  4  2  0  0  0  0
  6  1  2  0  0  0  0
  6  5  1  0  0  0  0
  8  5  1  0  0  0  0
  9  1  1  0  0  0  0
 10  9  2  0  0  0  0
 11 10  1  0  0  0  0
 12 14  1  0  0  0  0
 12 10  1  0  0  0  0
 13 12  1  0  0  0  0
 14 16  2  0  0  0  0
 15 14  1  0  0  0  0
 16  9  1  0  0  0  0
 17 18  1  0  0  0  0
 17 20  1  0  0  0  0
 17 19  1  0  0  0  0
M  END
>  <minimizedAffinity>
-4.30341721

$$$$

 OpenBabel03272508013D

 20 21  0  0  0  0  0  0  0  0999 V2000
   38.3580   24.6570   35.6480 C   0  0  0  0  0  0  0  0  0  0  0  0
   38.1620   24.1390   34.3500 C   0  0  0  0  0  0  0  0  0  0  0  0
   37.5370   24.9620   33.3950 C   0  0  0  0  0  0  0  0  0  0  0  0
   37.1570   26.2160   33.7870 N   0  0  0  0  0  0  0  0  0  0  0  0
   37.3630   26.6770   35.0410 C   0  0  0  0  0  0  0  0  0  0  0  0
   37.9630   25.8860   35.9530 N   0  0  0  0  0  0  0  0  0  0  0  0
   38.4650   23.1590   34.0670 H   0  0  0  0  0  0  0  0  0  0  0  0
   37.0250   27.6850   35.2510 H   0  0  0  0  0  0  0  0  0  0  0  0
   39.0100   23.7670   36.6040 C   0  0  0  0  0  0  0  0  0  0  0  0
   38.5760   23.4380   37.8700 C   0  0  0  0  0  0  0  0  0  0  0  0
   37.6780   23.7790   38.3790 H   0  0  0  0  0  0  0  0  0  0  0  0
   39.5000   22.5820   38.3890 N   0  0  0  0  0  0  0  0  0  0  0  0
   39.5200   22.1170   39.3230 H   0  0  0  0  0  0  0  0  0  0  0  0
   40.4920   22.3760   37.4730 C   0  0  0  0  0  0  0  0  0  0  0  0
   41.3570   21.7420   37.6160 H   0  0  0  0  0  0  0  0  0  0  0  0
   40.1680   23.1200   36.3760 N   0  0  0  0  0  0  0  0  0  0  0  0
   37.3230   24.4320   32.0240 C   0  0  0  0  0  0  0  0  0  0  0  0
   36.0120   24.0960   31.9390 F   0  0  0  0  0  0  0  0  0  0  0  0
   37.6290   25.3390   31.0480 F   0  0  0  0  0  0  0  0  0  0  0  0
   38.0870   23.2740   31.8190 F   0  0  0  0  0  0  0  0  0  0  0  0
  1  6  1  0  0  0  0
  1  9  1  0  0  0  0
  2  1  2  0  0  0  0
  3  4  2  0  0  0  0
  3  2  1  0  0  0  0
  4  5  1  0  0  0  0
  5  8  1  0  0  0  0
  5  6  2  0  0  0  0
  7  2  1  0  0  0  0
  9 10  2  0  0  0  0
 10 11  1  0  0  0  0
 10 12  1  0  0  0  0
 12 13  1  0  0  0  0
 14 15  1  0  0  0  0
 14 12  1  0  0  0  0
 16  9  1  0  0  0  0
 16 14  2  0  0  0  0
 17  3  1  0  0  0  0
 18 17  1  0  0  0  0
 19 17  1  0  0  0  0
 20 17  1  0  0  0  0
M  END
>  <minimizedAffinity>
-4.30081081

$$$$

 OpenBabel03272508013D

 20 21  0  0  0  0  0  0  0  0999 V2000
   38.4650   24.6290   35.1170 C   0  0  0  0  0  0  0  0  0  0  0  0
   39.3670   24.2470   36.1330 C   0  0  0  0  0  0  0  0  0  0  0  0
   39.8360   22.9200   36.1380 C   0  0  0  0  0  0  0  0  0  0  0  0
   39.3870   22.0830   35.1550 N   0  0  0  0  0  0  0  0  0  0  0  0
   38.5230   22.4870   34.1980 C   0  0  0  0  0  0  0  0  0  0  0  0
   38.0750   23.7590   34.1950 N   0  0  0  0  0  0  0  0  0  0  0  0
   39.7040   24.9150   36.8890 H   0  0  0  0  0  0  0  0  0  0  0  0
   38.2280   21.7460   33.4640 H   0  0  0  0  0  0  0  0  0  0  0  0
   38.0060   26.0150   35.1540 C   0  0  0  0  0  0  0  0  0  0  0  0
   38.4500   27.0200   35.9850 C   0  0  0  0  0  0  0  0  0  0  0  0
   39.2140   26.9630   36.7550 H   0  0  0  0  0  0  0  0  0  0  0  0
   37.7370   28.1360   35.6610 N   0  0  0  0  0  0  0  0  0  0  0  0
   37.7890   29.0940   36.0700 H   0  0  0  0  0  0  0  0  0  0  0  0
   36.8670   27.8410   34.6510 C   0  0  0  0  0  0  0  0  0  0  0  0
   36.1760   28.5370   34.1940 H   0  0  0  0  0  0  0  0  0  0  0  0
   37.0510   26.5220   34.3540 N   0  0  0  0  0  0  0  0  0  0  0  0
   40.7870   22.5020   37.2010 C   0  0  0  0  0  0  0  0  0  0  0  0
   40.2580   22.9180   38.3780 F   0  0  0  0  0  0  0  0  0  0  0  0
   40.9810   21.1490   37.2380 F   0  0  0  0  0  0  0  0  0  0  0  0
   42.0270   23.1320   37.0280 F   0  0  0  0  0  0  0  0  0  0  0  0
  1  9  1  0  0  0  0
  1  2  1  0  0  0  0
  2  3  2  0  0  0  0
  2  7  1  0  0  0  0
  3 17  1  0  0  0  0
  4  3  1  0  0  0  0
  5  4  2  0  0  0  0
  6  5  1  0  0  0  0
  6  1  2  0  0  0  0
  8  5  1  0  0  0  0
  9 10  2  0  0  0  0
 10 11  1  0  0  0  0
 12 10  1  0  0  0  0
 12 13  1  0  0  0  0
 14 12  1  0  0  0  0
 15 14  1  0  0  0  0
 16 14  2  0  0  0  0
 16  9  1  0  0  0  0
 17 19  1  0  0  0  0
 17 18  1  0  0  0  0
 20 17  1  0  0  0  0
M  END
>  <minimizedAffinity>
-4.28493023

$$$$

 OpenBabel03272508013D

 20 21  0  0  0  0  0  0  0  0999 V2000
   37.8350   25.7490   33.9890 C   0  0  0  0  0  0  0  0  0  0  0  0
   37.8610   24.7860   35.0210 C   0  0  0  0  0  0  0  0  0  0  0  0
   38.1190   25.2270   36.3320 C   0  0  0  0  0  0  0  0  0  0  0  0
   38.3300   26.5640   36.5240 N   0  0  0  0  0  0  0  0  0  0  0  0
   38.2960   27.4560   35.5090 C   0  0  0  0  0  0  0  0  0  0  0  0
   38.0480   27.0310   34.2540 N   0  0  0  0  0  0  0  0  0  0  0  0
   37.6950   23.7500   34.8490 H   0  0  0  0  0  0  0  0  0  0  0  0
   38.4760   28.4940   35.7660 H   0  0  0  0  0  0  0  0  0  0  0  0
   37.5640   25.2440   32.6460 C   0  0  0  0  0  0  0  0  0  0  0  0
   37.6500   25.9390   31.4600 C   0  0  0  0  0  0  0  0  0  0  0  0
   37.9330   26.9780   31.3120 H   0  0  0  0  0  0  0  0  0  0  0  0
   37.3060   25.0670   30.4710 N   0  0  0  0  0  0  0  0  0  0  0  0
   37.2520   25.2230   29.4410 H   0  0  0  0  0  0  0  0  0  0  0  0
   37.0100   23.8530   31.0210 C   0  0  0  0  0  0  0  0  0  0  0  0
   36.7050   22.9720   30.4710 H   0  0  0  0  0  0  0  0  0  0  0  0
   37.1760   23.9860   32.3680 N   0  0  0  0  0  0  0  0  0  0  0  0
   38.1500   24.2260   37.4300 C   0  0  0  0  0  0  0  0  0  0  0  0
   38.0440   24.9210   38.5900 F   0  0  0  0  0  0  0  0  0  0  0  0
   37.1360   23.3140   37.3480 F   0  0  0  0  0  0  0  0  0  0  0  0
   39.3730   23.5420   37.4380 F   0  0  0  0  0  0  0  0  0  0  0  0
  1  6  2  0  0  0  0
  1  2  1  0  0  0  0
  2  3  2  0  0  0  0
  3  4  1  0  0  0  0
  3 17  1  0  0  0  0
  5  8  1  0  0  0  0
  5  4  2  0  0  0  0
  6  5  1  0  0  0  0
  7  2  1  0  0  0  0
  9  1  1  0  0  0  0
 10  9  2  0  0  0  0
 11 10  1  0  0  0  0
 12 14  1  0  0  0  0
 12 10  1  0  0  0  0
 13 12  1  0  0  0  0
 14 16  2  0  0  0  0
 15 14  1  0  0  0  0
 16  9  1  0  0  0  0
 17 20  1  0  0  0  0
 17 18  1  0  0  0  0
 19 17  1  0  0  0  0
M  END
>  <minimizedAffinity>
-4.28036165

$$$$
