
 OpenBabel03272508013D

 20 21  0  0  0  0  0  0  0  0999 V2000
   37.5390   30.8070   48.5520 C   0  0  0  0  0  0  0  0  0  0  0  0
   37.9780   32.0250   49.1150 C   0  0  0  0  0  0  0  0  0  0  0  0
   38.8910   32.8030   48.3790 C   0  0  0  0  0  0  0  0  0  0  0  0
   39.2960   32.3290   47.1620 N   0  0  0  0  0  0  0  0  0  0  0  0
   38.8510   31.1570   46.6570 C   0  0  0  0  0  0  0  0  0  0  0  0
   37.9760   30.4130   47.3630 N   0  0  0  0  0  0  0  0  0  0  0  0
   37.6500   32.3740   50.0640 H   0  0  0  0  0  0  0  0  0  0  0  0
   39.2340   30.8700   45.6840 H   0  0  0  0  0  0  0  0  0  0  0  0
   36.5930   30.0340   49.3510 C   0  0  0  0  0  0  0  0  0  0  0  0
   35.6210   29.1720   48.8930 C   0  0  0  0  0  0  0  0  0  0  0  0
   35.3860   28.9140   47.8640 H   0  0  0  0  0  0  0  0  0  0  0  0
   34.9830   28.6830   49.9940 N   0  0  0  0  0  0  0  0  0  0  0  0
   34.1920   28.0050   50.0520 H   0  0  0  0  0  0  0  0  0  0  0  0
   35.5390   29.2230   51.1170 C   0  0  0  0  0  0  0  0  0  0  0  0
   35.2310   29.0140   52.1330 H   0  0  0  0  0  0  0  0  0  0  0  0
   36.5330   30.0570   50.6960 N   0  0  0  0  0  0  0  0  0  0  0  0
   39.3640   34.0880   48.9570 C   0  0  0  0  0  0  0  0  0  0  0  0
   39.8310   33.8050   50.1980 F   0  0  0  0  0  0  0  0  0  0  0  0
   40.3520   34.6730   48.2170 F   0  0  0  0  0  0  0  0  0  0  0  0
   38.2990   34.9910   49.0840 F   0  0  0  0  0  0  0  0  0  0  0  0
  1  2  1  0  0  0  0
  1  9  1  0  0  0  0
  2  7  1  0  0  0  0
  3 17  1  0  0  0  0
  3  2  2  0  0  0  0
  4  3  1  0  0  0  0
  5  4  2  0  0  0  0
  5  6  1  0  0  0  0
  6  1  2  0  0  0  0
  8  5  1  0  0  0  0
  9 16  1  0  0  0  0
 10  9  2  0  0  0  0
 10 12  1  0  0  0  0
 11 10  1  0  0  0  0
 12 13  1  0  0  0  0
 12 14  1  0  0  0  0
 14 15  1  0  0  0  0
 16 14  2  0  0  0  0
 17 20  1  0  0  0  0
 17 18  1  0  0  0  0
 19 17  1  0  0  0  0
M  END
>  <minimizedAffinity>
-4.94183207

>  <minimizedRMSD>
3.6881578

$$$$
