
 OpenBabel03272504343D

 39 42  0  0  0  0  0  0  0  0999 V2000
   39.0430   25.1170   35.3300 C   0  0  0  0  0  0  0  0  0  0  0  0
   40.3210   25.4110   34.8740 C   0  0  0  0  0  0  0  0  0  0  0  0
   40.5270   26.4520   33.9740 C   0  0  0  0  0  0  0  0  0  0  0  0
   39.4250   27.1570   33.5720 N   0  0  0  0  0  0  0  0  0  0  0  0
   38.2000   26.8460   34.0330 C   0  0  0  0  0  0  0  0  0  0  0  0
   37.9760   25.8360   34.9100 N   0  0  0  0  0  0  0  0  0  0  0  0
   41.1600   24.8230   35.2220 H   0  0  0  0  0  0  0  0  0  0  0  0
   41.4950   26.7170   33.5940 H   0  0  0  0  0  0  0  0  0  0  0  0
   38.7740   24.0620   36.2510 N   0  0  0  0  0  0  0  0  0  0  0  0
   37.8040   24.2050   37.3200 C   0  0  0  0  0  0  0  0  0  0  0  0
   38.2570   23.6740   38.6420 C   0  0  0  0  0  0  0  0  0  0  0  0
   39.1710   22.6020   38.6370 N   0  0  0  0  0  0  0  0  0  0  0  0
   40.1590   22.6910   37.5560 C   0  0  0  0  0  0  0  0  0  0  0  0
   39.3740   22.7710   36.2740 C   0  0  0  0  0  0  0  0  0  0  0  0
   36.8950   23.6400   36.9970 H   0  0  0  0  0  0  0  0  0  0  0  0
   37.5090   25.2560   37.3620 H   0  0  0  0  0  0  0  0  0  0  0  0
   37.3510   23.3430   39.2050 H   0  0  0  0  0  0  0  0  0  0  0  0
   38.6860   24.5220   39.2370 H   0  0  0  0  0  0  0  0  0  0  0  0
   38.6600   21.7090   38.4450 H   0  0  0  0  0  0  0  0  0  0  0  0
   40.6730   23.6820   37.7160 H   0  0  0  0  0  0  0  0  0  0  0  0
   40.8590   21.8530   37.6170 H   0  0  0  0  0  0  0  0  0  0  0  0
   38.6160   21.9610   36.2920 H   0  0  0  0  0  0  0  0  0  0  0  0
   40.0610   22.6420   35.3940 H   0  0  0  0  0  0  0  0  0  0  0  0
   37.0630   27.6330   33.5690 C   0  0  0  0  0  0  0  0  0  0  0  0
   36.5480   27.4560   32.3130 C   0  0  0  0  0  0  0  0  0  0  0  0
   35.4710   28.1690   31.8130 C   0  0  0  0  0  0  0  0  0  0  0  0
   34.9400   29.0800   32.6580 N   0  0  0  0  0  0  0  0  0  0  0  0
   35.4360   29.2620   33.8880 C   0  0  0  0  0  0  0  0  0  0  0  0
   36.4940   28.5510   34.3610 N   0  0  0  0  0  0  0  0  0  0  0  0
   36.9740   26.7210   31.6260 H   0  0  0  0  0  0  0  0  0  0  0  0
   35.0930   28.0070   30.8300 H   0  0  0  0  0  0  0  0  0  0  0  0
   34.9230   30.2260   34.8690 C   0  0  0  0  0  0  0  0  0  0  0  0
   33.7200   30.6640   35.3680 C   0  0  0  0  0  0  0  0  0  0  0  0
   32.8480   30.1880   34.9460 H   0  0  0  0  0  0  0  0  0  0  0  0
   34.0020   31.6130   36.2890 N   0  0  0  0  0  0  0  0  0  0  0  0
   33.2180   32.0680   36.7830 H   0  0  0  0  0  0  0  0  0  0  0  0
   35.3400   31.7710   36.3730 C   0  0  0  0  0  0  0  0  0  0  0  0
   35.8240   32.4750   37.0410 H   0  0  0  0  0  0  0  0  0  0  0  0
   35.9250   30.9110   35.4900 N   0  0  0  0  0  0  0  0  0  0  0  0
  1  9  1  0  0  0  0
  2  7  1  0  0  0  0
  2  1  2  0  0  0  0
  3  2  1  0  0  0  0
  4  3  2  0  0  0  0
  4  5  1  0  0  0  0
  5  6  2  0  0  0  0
  6  1  1  0  0  0  0
  8  3  1  0  0  0  0
  9 14  1  0  0  0  0
  9 10  1  0  0  0  0
 10 16  1  0  0  0  0
 10 11  1  0  0  0  0
 11 17  1  0  0  0  0
 11 18  1  0  0  0  0
 12 11  1  0  0  0  0
 13 21  1  0  0  0  0
 13 20  1  0  0  0  0
 13 12  1  0  0  0  0
 14 22  1  0  0  0  0
 14 13  1  0  0  0  0
 15 10  1  0  0  0  0
 19 12  1  0  0  0  0
 23 14  1  0  0  0  0
 24  5  1  0  0  0  0
 24 29  1  0  0  0  0
 25 24  2  0  0  0  0
 26 25  1  0  0  0  0
 26 27  2  0  0  0  0
 27 28  1  0  0  0  0
 28 29  2  0  0  0  0
 28 32  1  0  0  0  0
 30 25  1  0  0  0  0
 31 26  1  0  0  0  0
 32 33  2  0  0  0  0
 32 39  1  0  0  0  0
 33 35  1  0  0  0  0
 34 33  1  0  0  0  0
 35 37  1  0  0  0  0
 35 36  1  0  0  0  0
 37 38  1  0  0  0  0
 39 37  2  0  0  0  0
M  END
>  <minimizedAffinity>
-6.06994104

$$$$

 OpenBabel03272504343D

 39 42  0  0  0  0  0  0  0  0999 V2000
   39.4460   25.2030   35.1110 C   0  0  0  0  0  0  0  0  0  0  0  0
   40.7860   25.5370   34.9640 C   0  0  0  0  0  0  0  0  0  0  0  0
   41.1720   26.5350   34.0750 C   0  0  0  0  0  0  0  0  0  0  0  0
   40.1790   27.1570   33.3660 N   0  0  0  0  0  0  0  0  0  0  0  0
   38.8900   26.8100   33.5320 C   0  0  0  0  0  0  0  0  0  0  0  0
   38.4920   25.8400   34.3930 N   0  0  0  0  0  0  0  0  0  0  0  0
   41.5330   25.0140   35.5480 H   0  0  0  0  0  0  0  0  0  0  0  0
   42.1930   26.8280   33.9270 H   0  0  0  0  0  0  0  0  0  0  0  0
   38.9950   24.1890   36.0060 N   0  0  0  0  0  0  0  0  0  0  0  0
   37.9260   24.4260   36.9570 C   0  0  0  0  0  0  0  0  0  0  0  0
   38.1850   23.8880   38.3280 C   0  0  0  0  0  0  0  0  0  0  0  0
   39.0090   22.7490   38.4370 N   0  0  0  0  0  0  0  0  0  0  0  0
   40.1150   22.7420   37.4730 C   0  0  0  0  0  0  0  0  0  0  0  0
   39.4860   22.8580   36.1100 C   0  0  0  0  0  0  0  0  0  0  0  0
   37.0180   23.9260   36.5400 H   0  0  0  0  0  0  0  0  0  0  0  0
   37.7100   25.4970   36.9550 H   0  0  0  0  0  0  0  0  0  0  0  0
   37.1990   23.6380   38.7890 H   0  0  0  0  0  0  0  0  0  0  0  0
   38.6100   24.7120   38.9580 H   0  0  0  0  0  0  0  0  0  0  0  0
   38.4550   21.8950   38.1980 H   0  0  0  0  0  0  0  0  0  0  0  0
   40.6830   23.6940   37.6800 H   0  0  0  0  0  0  0  0  0  0  0  0
   40.7370   21.8550   37.6210 H   0  0  0  0  0  0  0  0  0  0  0  0
   38.6710   22.1080   36.0510 H   0  0  0  0  0  0  0  0  0  0  0  0
   40.2550   22.6600   35.3140 H   0  0  0  0  0  0  0  0  0  0  0  0
   37.8770   27.5090   32.7500 C   0  0  0  0  0  0  0  0  0  0  0  0
   36.6190   27.7150   33.2480 C   0  0  0  0  0  0  0  0  0  0  0  0
   35.6130   28.3700   32.5590 C   0  0  0  0  0  0  0  0  0  0  0  0
   35.9500   28.8090   31.3250 N   0  0  0  0  0  0  0  0  0  0  0  0
   37.1780   28.6130   30.8280 C   0  0  0  0  0  0  0  0  0  0  0  0
   38.1520   27.9670   31.5210 N   0  0  0  0  0  0  0  0  0  0  0  0
   36.3410   27.3620   34.2440 H   0  0  0  0  0  0  0  0  0  0  0  0
   34.6430   28.5140   32.9740 H   0  0  0  0  0  0  0  0  0  0  0  0
   37.6290   29.0550   29.5030 C   0  0  0  0  0  0  0  0  0  0  0  0
   38.3460   28.5750   28.4320 C   0  0  0  0  0  0  0  0  0  0  0  0
   38.7150   27.5670   28.5430 H   0  0  0  0  0  0  0  0  0  0  0  0
   38.3750   29.5620   27.5080 N   0  0  0  0  0  0  0  0  0  0  0  0
   38.8730   29.3900   26.6210 H   0  0  0  0  0  0  0  0  0  0  0  0
   37.6990   30.6320   27.9760 C   0  0  0  0  0  0  0  0  0  0  0  0
   37.5760   31.5570   27.4230 H   0  0  0  0  0  0  0  0  0  0  0  0
   37.2290   30.3270   29.2210 N   0  0  0  0  0  0  0  0  0  0  0  0
  1  9  1  0  0  0  0
  2  1  1  0  0  0  0
  2  7  1  0  0  0  0
  3  2  2  0  0  0  0
  4  5  2  0  0  0  0
  4  3  1  0  0  0  0
  5  6  1  0  0  0  0
  6  1  2  0  0  0  0
  8  3  1  0  0  0  0
  9 14  1  0  0  0  0
  9 10  1  0  0  0  0
 10 11  1  0  0  0  0
 11 12  1  0  0  0  0
 11 17  1  0  0  0  0
 11 18  1  0  0  0  0
 13 21  1  0  0  0  0
 13 20  1  0  0  0  0
 13 12  1  0  0  0  0
 14 13  1  0  0  0  0
 15 10  1  0  0  0  0
 16 10  1  0  0  0  0
 19 12  1  0  0  0  0
 22 14  1  0  0  0  0
 23 14  1  0  0  0  0
 24 25  1  0  0  0  0
 24  5  1  0  0  0  0
 25 30  1  0  0  0  0
 26 31  1  0  0  0  0
 26 25  2  0  0  0  0
 27 26  1  0  0  0  0
 28 27  2  0  0  0  0
 28 29  1  0  0  0  0
 29 24  2  0  0  0  0
 32 28  1  0  0  0  0
 33 34  1  0  0  0  0
 33 32  2  0  0  0  0
 35 37  1  0  0  0  0
 35 33  1  0  0  0  0
 36 35  1  0  0  0  0
 37 39  2  0  0  0  0
 38 37  1  0  0  0  0
 39 32  1  0  0  0  0
M  END
>  <minimizedAffinity>
-5.86562014

$$$$

 OpenBabel03272504343D

 39 42  0  0  0  0  0  0  0  0999 V2000
   38.0830   24.5050   34.7410 C   0  0  0  0  0  0  0  0  0  0  0  0
   37.8730   23.4840   33.8230 C   0  0  0  0  0  0  0  0  0  0  0  0
   37.2950   23.7550   32.5870 C   0  0  0  0  0  0  0  0  0  0  0  0
   36.9510   25.0550   32.3290 N   0  0  0  0  0  0  0  0  0  0  0  0
   37.1670   26.0200   33.2400 C   0  0  0  0  0  0  0  0  0  0  0  0
   37.7290   25.7790   34.4510 N   0  0  0  0  0  0  0  0  0  0  0  0
   38.1630   22.4730   34.0750 H   0  0  0  0  0  0  0  0  0  0  0  0
   37.1130   23.0010   31.8450 H   0  0  0  0  0  0  0  0  0  0  0  0
   38.6700   24.2850   36.0210 N   0  0  0  0  0  0  0  0  0  0  0  0
   39.9460   23.6120   36.1750 C   0  0  0  0  0  0  0  0  0  0  0  0
   39.9850   22.6020   37.2760 C   0  0  0  0  0  0  0  0  0  0  0  0
   39.1430   22.8130   38.3860 N   0  0  0  0  0  0  0  0  0  0  0  0
   37.8420   23.3870   38.0240 C   0  0  0  0  0  0  0  0  0  0  0  0
   38.1370   24.6650   37.2850 C   0  0  0  0  0  0  0  0  0  0  0  0
   40.6980   24.4110   36.3910 H   0  0  0  0  0  0  0  0  0  0  0  0
   40.2200   23.1930   35.2040 H   0  0  0  0  0  0  0  0  0  0  0  0
   41.0350   22.5490   37.6530 H   0  0  0  0  0  0  0  0  0  0  0  0
   39.7730   21.5920   36.8390 H   0  0  0  0  0  0  0  0  0  0  0  0
   39.5720   23.5290   39.0170 H   0  0  0  0  0  0  0  0  0  0  0  0
   37.3980   22.6520   37.2920 H   0  0  0  0  0  0  0  0  0  0  0  0
   37.2200   23.5020   38.9150 H   0  0  0  0  0  0  0  0  0  0  0  0
   38.8680   25.2420   37.8880 H   0  0  0  0  0  0  0  0  0  0  0  0
   37.1910   25.2580   37.1500 H   0  0  0  0  0  0  0  0  0  0  0  0
   36.7800   27.3860   32.9100 C   0  0  0  0  0  0  0  0  0  0  0  0
   36.8780   27.8570   31.6280 C   0  0  0  0  0  0  0  0  0  0  0  0
   36.5270   29.1410   31.2480 C   0  0  0  0  0  0  0  0  0  0  0  0
   36.0690   29.9330   32.2430 N   0  0  0  0  0  0  0  0  0  0  0  0
   35.9700   29.4830   33.5000 C   0  0  0  0  0  0  0  0  0  0  0  0
   36.3190   28.2180   33.8540 N   0  0  0  0  0  0  0  0  0  0  0  0
   37.2480   27.2210   30.8190 H   0  0  0  0  0  0  0  0  0  0  0  0
   36.6150   29.4780   30.2400 H   0  0  0  0  0  0  0  0  0  0  0  0
   35.4850   30.2710   34.6400 C   0  0  0  0  0  0  0  0  0  0  0  0
   35.9850   31.0320   35.6690 C   0  0  0  0  0  0  0  0  0  0  0  0
   37.0610   31.1110   35.7000 H   0  0  0  0  0  0  0  0  0  0  0  0
   34.9230   31.4810   36.3750 N   0  0  0  0  0  0  0  0  0  0  0  0
   35.0960   32.0780   37.1990 H   0  0  0  0  0  0  0  0  0  0  0  0
   33.7850   31.0200   35.8130 C   0  0  0  0  0  0  0  0  0  0  0  0
   32.7930   31.2390   36.1920 H   0  0  0  0  0  0  0  0  0  0  0  0
   34.1240   30.2630   34.7280 N   0  0  0  0  0  0  0  0  0  0  0  0
  1  9  1  0  0  0  0
  2  7  1  0  0  0  0
  2  1  2  0  0  0  0
  3  2  1  0  0  0  0
  4  3  2  0  0  0  0
  4  5  1  0  0  0  0
  5  6  2  0  0  0  0
  6  1  1  0  0  0  0
  8  3  1  0  0  0  0
  9 10  1  0  0  0  0
  9 14  1  0  0  0  0
 10 15  1  0  0  0  0
 10 11  1  0  0  0  0
 11 17  1  0  0  0  0
 11 12  1  0  0  0  0
 12 19  1  0  0  0  0
 13 12  1  0  0  0  0
 13 21  1  0  0  0  0
 14 22  1  0  0  0  0
 14 13  1  0  0  0  0
 16 10  1  0  0  0  0
 18 11  1  0  0  0  0
 20 13  1  0  0  0  0
 23 14  1  0  0  0  0
 24  5  1  0  0  0  0
 24 29  1  0  0  0  0
 25 24  2  0  0  0  0
 26 25  1  0  0  0  0
 26 27  2  0  0  0  0
 27 28  1  0  0  0  0
 28 29  2  0  0  0  0
 28 32  1  0  0  0  0
 30 25  1  0  0  0  0
 31 26  1  0  0  0  0
 32 39  1  0  0  0  0
 32 33  2  0  0  0  0
 33 34  1  0  0  0  0
 33 35  1  0  0  0  0
 35 36  1  0  0  0  0
 37 38  1  0  0  0  0
 37 35  1  0  0  0  0
 39 37  2  0  0  0  0
M  END
>  <minimizedAffinity>
-5.8391223

$$$$

 OpenBabel03272504343D

 39 42  0  0  0  0  0  0  0  0999 V2000
   39.3880   25.1820   35.1720 C   0  0  0  0  0  0  0  0  0  0  0  0
   40.7210   25.5420   35.0290 C   0  0  0  0  0  0  0  0  0  0  0  0
   41.0900   26.5450   34.1390 C   0  0  0  0  0  0  0  0  0  0  0  0
   40.0870   27.1460   33.4250 N   0  0  0  0  0  0  0  0  0  0  0  0
   38.8050   26.7730   33.5870 C   0  0  0  0  0  0  0  0  0  0  0  0
   38.4240   25.7980   34.4490 N   0  0  0  0  0  0  0  0  0  0  0  0
   41.4760   25.0360   35.6170 H   0  0  0  0  0  0  0  0  0  0  0  0
   42.1060   26.8580   33.9940 H   0  0  0  0  0  0  0  0  0  0  0  0
   38.9540   24.1610   36.0680 N   0  0  0  0  0  0  0  0  0  0  0  0
   37.8610   24.3710   36.9980 C   0  0  0  0  0  0  0  0  0  0  0  0
   38.1120   23.8530   38.3770 C   0  0  0  0  0  0  0  0  0  0  0  0
   38.9710   22.7440   38.5120 N   0  0  0  0  0  0  0  0  0  0  0  0
   40.0940   22.7640   37.5690 C   0  0  0  0  0  0  0  0  0  0  0  0
   39.4870   22.8480   36.1930 C   0  0  0  0  0  0  0  0  0  0  0  0
   36.9770   23.8370   36.5690 H   0  0  0  0  0  0  0  0  0  0  0  0
   37.6090   25.4340   36.9820 H   0  0  0  0  0  0  0  0  0  0  0  0
   37.1270   23.5740   38.8230 H   0  0  0  0  0  0  0  0  0  0  0  0
   38.4970   24.6960   39.0080 H   0  0  0  0  0  0  0  0  0  0  0  0
   38.4500   21.8690   38.2710 H   0  0  0  0  0  0  0  0  0  0  0  0
   40.6270   23.7370   37.7770 H   0  0  0  0  0  0  0  0  0  0  0  0
   40.7420   21.9000   37.7360 H   0  0  0  0  0  0  0  0  0  0  0  0
   38.6980   22.0700   36.1260 H   0  0  0  0  0  0  0  0  0  0  0  0
   40.2770   22.6680   35.4140 H   0  0  0  0  0  0  0  0  0  0  0  0
   37.7810   27.4490   32.8000 C   0  0  0  0  0  0  0  0  0  0  0  0
   37.8490   27.4840   31.4330 C   0  0  0  0  0  0  0  0  0  0  0  0
   36.9110   28.1080   30.6280 C   0  0  0  0  0  0  0  0  0  0  0  0
   35.8900   28.7020   31.2860 N   0  0  0  0  0  0  0  0  0  0  0  0
   35.8140   28.6740   32.6230 C   0  0  0  0  0  0  0  0  0  0  0  0
   36.7450   28.0560   33.3950 N   0  0  0  0  0  0  0  0  0  0  0  0
   38.6730   27.0060   30.8960 H   0  0  0  0  0  0  0  0  0  0  0  0
   36.9930   28.1180   29.5660 H   0  0  0  0  0  0  0  0  0  0  0  0
   34.7430   29.2900   33.4170 C   0  0  0  0  0  0  0  0  0  0  0  0
   34.5880   29.9940   34.5870 C   0  0  0  0  0  0  0  0  0  0  0  0
   35.4990   30.1820   35.1330 H   0  0  0  0  0  0  0  0  0  0  0  0
   33.2670   30.2560   34.7120 N   0  0  0  0  0  0  0  0  0  0  0  0
   32.9460   30.7840   35.5390 H   0  0  0  0  0  0  0  0  0  0  0  0
   32.6060   29.7370   33.6560 C   0  0  0  0  0  0  0  0  0  0  0  0
   31.5330   29.8110   33.5190 H   0  0  0  0  0  0  0  0  0  0  0  0
   33.5180   29.1310   32.8410 N   0  0  0  0  0  0  0  0  0  0  0  0
  1  9  1  0  0  0  0
  2  1  1  0  0  0  0
  2  7  1  0  0  0  0
  3  2  2  0  0  0  0
  4  5  2  0  0  0  0
  4  3  1  0  0  0  0
  5  6  1  0  0  0  0
  6  1  2  0  0  0  0
  8  3  1  0  0  0  0
  9 14  1  0  0  0  0
  9 10  1  0  0  0  0
 10 11  1  0  0  0  0
 11 12  1  0  0  0  0
 11 17  1  0  0  0  0
 11 18  1  0  0  0  0
 13 21  1  0  0  0  0
 13 20  1  0  0  0  0
 13 12  1  0  0  0  0
 14 13  1  0  0  0  0
 15 10  1  0  0  0  0
 16 10  1  0  0  0  0
 19 12  1  0  0  0  0
 22 14  1  0  0  0  0
 23 14  1  0  0  0  0
 24 29  1  0  0  0  0
 24  5  1  0  0  0  0
 25 24  2  0  0  0  0
 26 27  2  0  0  0  0
 26 25  1  0  0  0  0
 27 28  1  0  0  0  0
 28 29  2  0  0  0  0
 28 32  1  0  0  0  0
 30 25  1  0  0  0  0
 31 26  1  0  0  0  0
 32 33  2  0  0  0  0
 33 35  1  0  0  0  0
 33 34  1  0  0  0  0
 35 36  1  0  0  0  0
 37 35  1  0  0  0  0
 38 37  1  0  0  0  0
 39 32  1  0  0  0  0
 39 37  2  0  0  0  0
M  END
>  <minimizedAffinity>
-5.75576162

$$$$

 OpenBabel03272504343D

 39 42  0  0  0  0  0  0  0  0999 V2000
   38.2030   24.1910   34.7160 C   0  0  0  0  0  0  0  0  0  0  0  0
   37.9510   23.0790   33.9230 C   0  0  0  0  0  0  0  0  0  0  0  0
   37.4250   23.2290   32.6440 C   0  0  0  0  0  0  0  0  0  0  0  0
   37.1760   24.5060   32.2170 N   0  0  0  0  0  0  0  0  0  0  0  0
   37.4310   25.5620   33.0100 C   0  0  0  0  0  0  0  0  0  0  0  0
   37.9440   25.4380   34.2600 N   0  0  0  0  0  0  0  0  0  0  0  0
   38.1650   22.0900   34.3070 H   0  0  0  0  0  0  0  0  0  0  0  0
   37.2140   22.4020   31.9940 H   0  0  0  0  0  0  0  0  0  0  0  0
   38.7400   24.0950   36.0340 N   0  0  0  0  0  0  0  0  0  0  0  0
   40.0240   23.4760   36.2960 C   0  0  0  0  0  0  0  0  0  0  0  0
   40.0420   22.5620   37.4790 C   0  0  0  0  0  0  0  0  0  0  0  0
   39.1470   22.8400   38.5320 N   0  0  0  0  0  0  0  0  0  0  0  0
   37.8490   23.3430   38.0690 C   0  0  0  0  0  0  0  0  0  0  0  0
   38.1420   24.5630   37.2370 C   0  0  0  0  0  0  0  0  0  0  0  0
   40.7450   24.3110   36.4750 H   0  0  0  0  0  0  0  0  0  0  0  0
   40.3520   22.9850   35.3760 H   0  0  0  0  0  0  0  0  0  0  0  0
   41.0750   22.5710   37.9020 H   0  0  0  0  0  0  0  0  0  0  0  0
   39.8750   21.5130   37.1200 H   0  0  0  0  0  0  0  0  0  0  0  0
   39.5300   23.6180   39.1170 H   0  0  0  0  0  0  0  0  0  0  0  0
   37.4560   22.5370   37.3840 H   0  0  0  0  0  0  0  0  0  0  0  0
   37.1860   23.5130   38.9210 H   0  0  0  0  0  0  0  0  0  0  0  0
   38.8310   25.2090   37.8200 H   0  0  0  0  0  0  0  0  0  0  0  0
   37.1880   25.1140   37.0140 H   0  0  0  0  0  0  0  0  0  0  0  0
   37.1460   26.8980   32.5010 C   0  0  0  0  0  0  0  0  0  0  0  0
   36.4270   27.7970   33.2420 C   0  0  0  0  0  0  0  0  0  0  0  0
   36.1220   29.0790   32.8180 C   0  0  0  0  0  0  0  0  0  0  0  0
   36.5870   29.4070   31.5910 N   0  0  0  0  0  0  0  0  0  0  0  0
   37.2900   28.5350   30.8580 C   0  0  0  0  0  0  0  0  0  0  0  0
   37.5800   27.2810   31.2920 N   0  0  0  0  0  0  0  0  0  0  0  0
   36.0490   27.5370   34.2340 H   0  0  0  0  0  0  0  0  0  0  0  0
   35.5600   29.7560   33.4190 H   0  0  0  0  0  0  0  0  0  0  0  0
   37.8320   28.8060   29.5200 C   0  0  0  0  0  0  0  0  0  0  0  0
   37.7080   29.7330   28.5140 C   0  0  0  0  0  0  0  0  0  0  0  0
   37.0120   30.5340   28.7120 H   0  0  0  0  0  0  0  0  0  0  0  0
   38.5410   29.3460   27.5220 N   0  0  0  0  0  0  0  0  0  0  0  0
   38.5910   29.9230   26.6680 H   0  0  0  0  0  0  0  0  0  0  0  0
   39.1740   28.2100   27.8860 C   0  0  0  0  0  0  0  0  0  0  0  0
   39.8960   27.6950   27.2630 H   0  0  0  0  0  0  0  0  0  0  0  0
   38.7380   27.8630   29.1330 N   0  0  0  0  0  0  0  0  0  0  0  0
  1  9  1  0  0  0  0
  2  7  1  0  0  0  0
  2  1  2  0  0  0  0
  3  2  1  0  0  0  0
  4  3  2  0  0  0  0
  4  5  1  0  0  0  0
  5  6  2  0  0  0  0
  6  1  1  0  0  0  0
  8  3  1  0  0  0  0
  9 10  1  0  0  0  0
  9 14  1  0  0  0  0
 10 15  1  0  0  0  0
 10 11  1  0  0  0  0
 11 17  1  0  0  0  0
 11 12  1  0  0  0  0
 12 19  1  0  0  0  0
 13 12  1  0  0  0  0
 13 21  1  0  0  0  0
 14 22  1  0  0  0  0
 14 13  1  0  0  0  0
 16 10  1  0  0  0  0
 18 11  1  0  0  0  0
 20 13  1  0  0  0  0
 23 14  1  0  0  0  0
 24  5  1  0  0  0  0
 24 25  1  0  0  0  0
 25 30  1  0  0  0  0
 26 25  2  0  0  0  0
 26 31  1  0  0  0  0
 27 26  1  0  0  0  0
 28 29  1  0  0  0  0
 28 27  2  0  0  0  0
 29 24  2  0  0  0  0
 32 28  1  0  0  0  0
 33 34  1  0  0  0  0
 33 32  2  0  0  0  0
 35 37  1  0  0  0  0
 35 33  1  0  0  0  0
 36 35  1  0  0  0  0
 37 39  2  0  0  0  0
 38 37  1  0  0  0  0
 39 32  1  0  0  0  0
M  END
>  <minimizedAffinity>
-5.71772194

$$$$

 OpenBabel03272504343D

 39 42  0  0  0  0  0  0  0  0999 V2000
   36.6010   26.3520   31.4270 C   0  0  0  0  0  0  0  0  0  0  0  0
   35.4380   25.7390   30.9810 C   0  0  0  0  0  0  0  0  0  0  0  0
   35.2110   24.3890   31.2310 C   0  0  0  0  0  0  0  0  0  0  0  0
   36.1760   23.7120   31.9270 N   0  0  0  0  0  0  0  0  0  0  0  0
   37.2930   24.3360   32.3450 C   0  0  0  0  0  0  0  0  0  0  0  0
   37.5340   25.6510   32.1120 N   0  0  0  0  0  0  0  0  0  0  0  0
   34.7060   26.3180   30.4340 H   0  0  0  0  0  0  0  0  0  0  0  0
   34.3290   23.8720   30.9070 H   0  0  0  0  0  0  0  0  0  0  0  0
   36.8860   27.7300   31.1980 N   0  0  0  0  0  0  0  0  0  0  0  0
   36.1030   28.7870   31.8090 C   0  0  0  0  0  0  0  0  0  0  0  0
   35.7480   29.9080   30.8870 C   0  0  0  0  0  0  0  0  0  0  0  0
   36.6340   30.1880   29.8270 N   0  0  0  0  0  0  0  0  0  0  0  0
   37.2390   28.9840   29.2470 C   0  0  0  0  0  0  0  0  0  0  0  0
   37.9210   28.2670   30.3820 C   0  0  0  0  0  0  0  0  0  0  0  0
   36.7230   29.1920   32.6470 H   0  0  0  0  0  0  0  0  0  0  0  0
   35.2290   28.3270   32.2750 H   0  0  0  0  0  0  0  0  0  0  0  0
   35.6490   30.8370   31.5000 H   0  0  0  0  0  0  0  0  0  0  0  0
   34.7250   29.7150   30.4710 H   0  0  0  0  0  0  0  0  0  0  0  0
   37.4490   30.7350   30.1910 H   0  0  0  0  0  0  0  0  0  0  0  0
   36.3640   28.3570   28.9100 H   0  0  0  0  0  0  0  0  0  0  0  0
   37.8920   29.2560   28.4140 H   0  0  0  0  0  0  0  0  0  0  0  0
   38.5370   29.0110   30.9280 H   0  0  0  0  0  0  0  0  0  0  0  0
   38.5720   27.4430   29.9800 H   0  0  0  0  0  0  0  0  0  0  0  0
   38.2850   23.5640   33.0820 C   0  0  0  0  0  0  0  0  0  0  0  0
   39.2350   22.8270   32.4270 C   0  0  0  0  0  0  0  0  0  0  0  0
   40.2050   22.0740   33.0670 C   0  0  0  0  0  0  0  0  0  0  0  0
   40.1610   22.1030   34.4180 N   0  0  0  0  0  0  0  0  0  0  0  0
   39.2360   22.8190   35.0680 C   0  0  0  0  0  0  0  0  0  0  0  0
   38.2920   23.5540   34.4220 N   0  0  0  0  0  0  0  0  0  0  0  0
   39.2750   22.8000   31.3360 H   0  0  0  0  0  0  0  0  0  0  0  0
   40.9310   21.5100   32.5280 H   0  0  0  0  0  0  0  0  0  0  0  0
   39.1140   22.9090   36.5290 C   0  0  0  0  0  0  0  0  0  0  0  0
   39.8790   22.7050   37.6520 C   0  0  0  0  0  0  0  0  0  0  0  0
   40.8900   22.3770   37.4650 H   0  0  0  0  0  0  0  0  0  0  0  0
   39.0950   22.9910   38.7160 N   0  0  0  0  0  0  0  0  0  0  0  0
   39.4950   22.8980   39.6620 H   0  0  0  0  0  0  0  0  0  0  0  0
   37.8720   23.3660   38.2820 C   0  0  0  0  0  0  0  0  0  0  0  0
   37.0580   23.6480   38.9400 H   0  0  0  0  0  0  0  0  0  0  0  0
   37.8730   23.3180   36.9180 N   0  0  0  0  0  0  0  0  0  0  0  0
  1  6  1  0  0  0  0
  2  3  1  0  0  0  0
  2  1  2  0  0  0  0
  3  4  2  0  0  0  0
  4  5  1  0  0  0  0
  5 24  1  0  0  0  0
  6  5  2  0  0  0  0
  7  2  1  0  0  0  0
  8  3  1  0  0  0  0
  9  1  1  0  0  0  0
  9 10  1  0  0  0  0
 10 16  1  0  0  0  0
 10 15  1  0  0  0  0
 11 17  1  0  0  0  0
 11 10  1  0  0  0  0
 12 19  1  0  0  0  0
 12 11  1  0  0  0  0
 13 12  1  0  0  0  0
 13 14  1  0  0  0  0
 14 22  1  0  0  0  0
 14  9  1  0  0  0  0
 18 11  1  0  0  0  0
 20 13  1  0  0  0  0
 21 13  1  0  0  0  0
 23 14  1  0  0  0  0
 24 29  1  0  0  0  0
 25 26  1  0  0  0  0
 25 24  2  0  0  0  0
 26 27  2  0  0  0  0
 27 28  1  0  0  0  0
 28 32  1  0  0  0  0
 29 28  2  0  0  0  0
 30 25  1  0  0  0  0
 31 26  1  0  0  0  0
 32 39  1  0  0  0  0
 32 33  2  0  0  0  0
 33 35  1  0  0  0  0
 34 33  1  0  0  0  0
 35 36  1  0  0  0  0
 37 35  1  0  0  0  0
 37 38  1  0  0  0  0
 39 37  2  0  0  0  0
M  END
>  <minimizedAffinity>
-5.66662598

$$$$

 OpenBabel03272504343D

 39 42  0  0  0  0  0  0  0  0999 V2000
   36.7490   27.8970   32.4920 C   0  0  0  0  0  0  0  0  0  0  0  0
   37.6940   28.2430   31.5360 C   0  0  0  0  0  0  0  0  0  0  0  0
   38.6600   27.3260   31.1340 C   0  0  0  0  0  0  0  0  0  0  0  0
   38.6300   26.0900   31.7210 N   0  0  0  0  0  0  0  0  0  0  0  0
   37.7010   25.7860   32.6450 C   0  0  0  0  0  0  0  0  0  0  0  0
   36.7500   26.6650   33.0510 N   0  0  0  0  0  0  0  0  0  0  0  0
   37.6750   29.2340   31.1020 H   0  0  0  0  0  0  0  0  0  0  0  0
   39.4100   27.5470   30.3990 H   0  0  0  0  0  0  0  0  0  0  0  0
   35.7380   28.7960   32.9420 N   0  0  0  0  0  0  0  0  0  0  0  0
   35.0090   29.6510   32.0240 C   0  0  0  0  0  0  0  0  0  0  0  0
   34.8330   31.0590   32.4960 C   0  0  0  0  0  0  0  0  0  0  0  0
   34.7760   31.2790   33.8860 N   0  0  0  0  0  0  0  0  0  0  0  0
   35.6760   30.4050   34.6470 C   0  0  0  0  0  0  0  0  0  0  0  0
   35.3010   28.9930   34.2810 C   0  0  0  0  0  0  0  0  0  0  0  0
   34.0010   29.1860   31.8950 H   0  0  0  0  0  0  0  0  0  0  0  0
   35.4990   29.5880   31.0500 H   0  0  0  0  0  0  0  0  0  0  0  0
   33.8860   31.4520   32.0520 H   0  0  0  0  0  0  0  0  0  0  0  0
   35.6520   31.6850   32.0560 H   0  0  0  0  0  0  0  0  0  0  0  0
   33.8210   31.0340   34.2390 H   0  0  0  0  0  0  0  0  0  0  0  0
   36.7020   30.6160   34.2290 H   0  0  0  0  0  0  0  0  0  0  0  0
   35.6130   30.6380   35.7140 H   0  0  0  0  0  0  0  0  0  0  0  0
   34.1990   28.9030   34.3770 H   0  0  0  0  0  0  0  0  0  0  0  0
   35.8120   28.2690   34.9720 H   0  0  0  0  0  0  0  0  0  0  0  0
   37.7180   24.4530   33.2350 C   0  0  0  0  0  0  0  0  0  0  0  0
   37.2750   23.3650   32.5330 C   0  0  0  0  0  0  0  0  0  0  0  0
   37.2650   22.0740   33.0330 C   0  0  0  0  0  0  0  0  0  0  0  0
   37.7300   21.9410   34.2960 N   0  0  0  0  0  0  0  0  0  0  0  0
   38.1650   22.9990   34.9920 C   0  0  0  0  0  0  0  0  0  0  0  0
   38.1680   24.2590   34.4830 N   0  0  0  0  0  0  0  0  0  0  0  0
   36.8980   23.4670   31.5120 H   0  0  0  0  0  0  0  0  0  0  0  0
   36.9140   21.2470   32.4610 H   0  0  0  0  0  0  0  0  0  0  0  0
   38.6850   22.9470   36.3640 C   0  0  0  0  0  0  0  0  0  0  0  0
   39.7940   22.4990   37.0420 C   0  0  0  0  0  0  0  0  0  0  0  0
   40.5490   22.0330   36.4290 H   0  0  0  0  0  0  0  0  0  0  0  0
   39.5980   22.7920   38.3470 N   0  0  0  0  0  0  0  0  0  0  0  0
   40.3300   22.5310   39.0260 H   0  0  0  0  0  0  0  0  0  0  0  0
   38.4050   23.4070   38.4940 C   0  0  0  0  0  0  0  0  0  0  0  0
   38.0120   23.7450   39.4470 H   0  0  0  0  0  0  0  0  0  0  0  0
   37.8260   23.5090   37.2610 N   0  0  0  0  0  0  0  0  0  0  0  0
  1  9  1  0  0  0  0
  1  6  1  0  0  0  0
  2  1  2  0  0  0  0
  3  2  1  0  0  0  0
  3  4  2  0  0  0  0
  4  5  1  0  0  0  0
  5  6  2  0  0  0  0
  5 24  1  0  0  0  0
  7  2  1  0  0  0  0
  8  3  1  0  0  0  0
  9 14  1  0  0  0  0
 10 11  1  0  0  0  0
 10  9  1  0  0  0  0
 11 12  1  0  0  0  0
 12 19  1  0  0  0  0
 12 13  1  0  0  0  0
 13 21  1  0  0  0  0
 14 22  1  0  0  0  0
 14 13  1  0  0  0  0
 14 23  1  0  0  0  0
 15 10  1  0  0  0  0
 16 10  1  0  0  0  0
 17 11  1  0  0  0  0
 18 11  1  0  0  0  0
 20 13  1  0  0  0  0
 24 29  1  0  0  0  0
 25 26  1  0  0  0  0
 25 24  2  0  0  0  0
 26 27  2  0  0  0  0
 27 28  1  0  0  0  0
 28 32  1  0  0  0  0
 29 28  2  0  0  0  0
 30 25  1  0  0  0  0
 31 26  1  0  0  0  0
 32 33  2  0  0  0  0
 32 39  1  0  0  0  0
 33 35  1  0  0  0  0
 34 33  1  0  0  0  0
 35 37  1  0  0  0  0
 35 36  1  0  0  0  0
 37 38  1  0  0  0  0
 39 37  2  0  0  0  0
M  END
>  <minimizedAffinity>
-5.51408291

$$$$

 OpenBabel03272504343D

 39 42  0  0  0  0  0  0  0  0999 V2000
   38.2630   22.0650   30.7330 C   0  0  0  0  0  0  0  0  0  0  0  0
   38.8030   22.7910   29.6800 C   0  0  0  0  0  0  0  0  0  0  0  0
   39.1080   24.1390   29.8360 C   0  0  0  0  0  0  0  0  0  0  0  0
   38.8530   24.7000   31.0590 N   0  0  0  0  0  0  0  0  0  0  0  0
   38.3290   23.9690   32.0580 C   0  0  0  0  0  0  0  0  0  0  0  0
   38.0240   22.6530   31.9280 N   0  0  0  0  0  0  0  0  0  0  0  0
   38.9860   22.3010   28.7330 H   0  0  0  0  0  0  0  0  0  0  0  0
   39.5270   24.7420   29.0530 H   0  0  0  0  0  0  0  0  0  0  0  0
   37.9300   20.6820   30.6300 N   0  0  0  0  0  0  0  0  0  0  0  0
   38.1740   19.9240   29.4180 C   0  0  0  0  0  0  0  0  0  0  0  0
   37.0490   19.0270   29.0110 C   0  0  0  0  0  0  0  0  0  0  0  0
   36.2230   18.5130   30.0300 N   0  0  0  0  0  0  0  0  0  0  0  0
   35.9830   19.4680   31.1170 C   0  0  0  0  0  0  0  0  0  0  0  0
   37.3410   19.8650   31.6350 C   0  0  0  0  0  0  0  0  0  0  0  0
   39.0790   19.2980   29.6160 H   0  0  0  0  0  0  0  0  0  0  0  0
   38.4600   20.6300   28.6350 H   0  0  0  0  0  0  0  0  0  0  0  0
   37.4860   18.1600   28.4590 H   0  0  0  0  0  0  0  0  0  0  0  0
   36.4160   19.5700   28.2620 H   0  0  0  0  0  0  0  0  0  0  0  0
   36.7040   17.7090   30.4960 H   0  0  0  0  0  0  0  0  0  0  0  0
   35.5220   20.3670   30.6140 H   0  0  0  0  0  0  0  0  0  0  0  0
   35.3150   19.0300   31.8630 H   0  0  0  0  0  0  0  0  0  0  0  0
   37.9200   18.9350   31.8070 H   0  0  0  0  0  0  0  0  0  0  0  0
   37.2320   20.4400   32.5950 H   0  0  0  0  0  0  0  0  0  0  0  0
   38.0800   24.6200   33.3380 C   0  0  0  0  0  0  0  0  0  0  0  0
   37.4740   25.8460   33.4000 C   0  0  0  0  0  0  0  0  0  0  0  0
   37.2080   26.5180   34.5810 C   0  0  0  0  0  0  0  0  0  0  0  0
   37.5930   25.8780   35.7080 N   0  0  0  0  0  0  0  0  0  0  0  0
   38.1860   24.6790   35.6600 C   0  0  0  0  0  0  0  0  0  0  0  0
   38.4380   24.0350   34.4900 N   0  0  0  0  0  0  0  0  0  0  0  0
   37.1610   26.3680   32.4920 H   0  0  0  0  0  0  0  0  0  0  0  0
   36.7350   27.4730   34.5960 H   0  0  0  0  0  0  0  0  0  0  0  0
   38.6350   23.9140   36.8300 C   0  0  0  0  0  0  0  0  0  0  0  0
   38.2210   23.6260   38.1080 C   0  0  0  0  0  0  0  0  0  0  0  0
   37.2810   24.0720   38.3960 H   0  0  0  0  0  0  0  0  0  0  0  0
   39.1640   22.8250   38.6530 N   0  0  0  0  0  0  0  0  0  0  0  0
   39.0310   22.4970   39.6220 H   0  0  0  0  0  0  0  0  0  0  0  0
   40.1450   22.6120   37.7500 C   0  0  0  0  0  0  0  0  0  0  0  0
   41.0210   22.0010   37.9430 H   0  0  0  0  0  0  0  0  0  0  0  0
   39.8260   23.2870   36.6080 N   0  0  0  0  0  0  0  0  0  0  0  0
  1  6  1  0  0  0  0
  2  3  1  0  0  0  0
  2  1  2  0  0  0  0
  3  4  2  0  0  0  0
  4  5  1  0  0  0  0
  5 24  1  0  0  0  0
  6  5  2  0  0  0  0
  7  2  1  0  0  0  0
  8  3  1  0  0  0  0
  9  1  1  0  0  0  0
  9 14  1  0  0  0  0
 10 15  1  0  0  0  0
 10  9  1  0  0  0  0
 11 10  1  0  0  0  0
 11 12  1  0  0  0  0
 12 19  1  0  0  0  0
 12 13  1  0  0  0  0
 13 14  1  0  0  0  0
 13 21  1  0  0  0  0
 14 22  1  0  0  0  0
 14 23  1  0  0  0  0
 16 10  1  0  0  0  0
 17 11  1  0  0  0  0
 18 11  1  0  0  0  0
 20 13  1  0  0  0  0
 24 25  2  0  0  0  0
 24 29  1  0  0  0  0
 25 26  1  0  0  0  0
 26 31  1  0  0  0  0
 26 27  2  0  0  0  0
 28 27  1  0  0  0  0
 28 32  1  0  0  0  0
 29 28  2  0  0  0  0
 30 25  1  0  0  0  0
 32 33  2  0  0  0  0
 33 34  1  0  0  0  0
 33 35  1  0  0  0  0
 35 36  1  0  0  0  0
 37 38  1  0  0  0  0
 37 35  1  0  0  0  0
 39 32  1  0  0  0  0
 39 37  2  0  0  0  0
M  END
>  <minimizedAffinity>
-5.44616413

$$$$

 OpenBabel03272504343D

 39 42  0  0  0  0  0  0  0  0999 V2000
   35.3860   29.4910   33.6500 C   0  0  0  0  0  0  0  0  0  0  0  0
   34.9390   29.1860   32.3710 C   0  0  0  0  0  0  0  0  0  0  0  0
   35.4850   28.1160   31.6690 C   0  0  0  0  0  0  0  0  0  0  0  0
   36.4670   27.3950   32.2940 N   0  0  0  0  0  0  0  0  0  0  0  0
   36.8780   27.7180   33.5340 C   0  0  0  0  0  0  0  0  0  0  0  0
   36.3590   28.7560   34.2360 N   0  0  0  0  0  0  0  0  0  0  0  0
   34.1600   29.7870   31.9210 H   0  0  0  0  0  0  0  0  0  0  0  0
   35.1730   27.8410   30.6800 H   0  0  0  0  0  0  0  0  0  0  0  0
   34.8630   30.5760   34.4140 N   0  0  0  0  0  0  0  0  0  0  0  0
   35.7230   31.4690   35.1670 C   0  0  0  0  0  0  0  0  0  0  0  0
   35.2310   31.7900   36.5420 C   0  0  0  0  0  0  0  0  0  0  0  0
   33.8390   31.7790   36.7560 N   0  0  0  0  0  0  0  0  0  0  0  0
   33.1470   30.7250   36.0060 C   0  0  0  0  0  0  0  0  0  0  0  0
   33.4950   30.9410   34.5570 C   0  0  0  0  0  0  0  0  0  0  0  0
   35.7860   32.4160   34.5760 H   0  0  0  0  0  0  0  0  0  0  0  0
   36.7290   31.0430   35.1640 H   0  0  0  0  0  0  0  0  0  0  0  0
   35.6070   32.8070   36.8100 H   0  0  0  0  0  0  0  0  0  0  0  0
   35.7220   31.0890   37.2660 H   0  0  0  0  0  0  0  0  0  0  0  0
   33.4240   32.6680   36.3920 H   0  0  0  0  0  0  0  0  0  0  0  0
   33.6330   29.7650   36.3450 H   0  0  0  0  0  0  0  0  0  0  0  0
   32.0770   30.7430   36.2320 H   0  0  0  0  0  0  0  0  0  0  0  0
   33.3250   32.0130   34.3270 H   0  0  0  0  0  0  0  0  0  0  0  0
   32.8460   30.2960   33.9050 H   0  0  0  0  0  0  0  0  0  0  0  0
   37.9260   26.9130   34.1490 C   0  0  0  0  0  0  0  0  0  0  0  0
   39.2470   27.1470   33.8760 C   0  0  0  0  0  0  0  0  0  0  0  0
   40.2900   26.4210   34.4260 C   0  0  0  0  0  0  0  0  0  0  0  0
   39.9220   25.4350   35.2740 N   0  0  0  0  0  0  0  0  0  0  0  0
   38.6330   25.1970   35.5490 C   0  0  0  0  0  0  0  0  0  0  0  0
   37.6240   25.9220   34.9990 N   0  0  0  0  0  0  0  0  0  0  0  0
   39.5500   27.9420   33.1900 H   0  0  0  0  0  0  0  0  0  0  0  0
   41.3090   26.6270   34.1920 H   0  0  0  0  0  0  0  0  0  0  0  0
   38.1450   24.1510   36.4560 C   0  0  0  0  0  0  0  0  0  0  0  0
   37.6940   22.8540   36.4030 C   0  0  0  0  0  0  0  0  0  0  0  0
   37.6700   22.4170   35.4170 H   0  0  0  0  0  0  0  0  0  0  0  0
   37.3990   22.4920   37.6720 N   0  0  0  0  0  0  0  0  0  0  0  0
   37.0410   21.5390   37.8420 H   0  0  0  0  0  0  0  0  0  0  0  0
   37.6560   23.5250   38.5030 C   0  0  0  0  0  0  0  0  0  0  0  0
   37.5020   23.4890   39.5760 H   0  0  0  0  0  0  0  0  0  0  0  0
   38.1220   24.5660   37.7540 N   0  0  0  0  0  0  0  0  0  0  0  0
  1  6  1  0  0  0  0
  1  9  1  0  0  0  0
  2  1  2  0  0  0  0
  3  4  2  0  0  0  0
  3  2  1  0  0  0  0
  4  5  1  0  0  0  0
  5 24  1  0  0  0  0
  5  6  2  0  0  0  0
  7  2  1  0  0  0  0
  8  3  1  0  0  0  0
  9 14  1  0  0  0  0
  9 10  1  0  0  0  0
 10 11  1  0  0  0  0
 11 12  1  0  0  0  0
 11 17  1  0  0  0  0
 11 18  1  0  0  0  0
 13 21  1  0  0  0  0
 13 20  1  0  0  0  0
 13 12  1  0  0  0  0
 14 13  1  0  0  0  0
 15 10  1  0  0  0  0
 16 10  1  0  0  0  0
 19 12  1  0  0  0  0
 22 14  1  0  0  0  0
 23 14  1  0  0  0  0
 24 29  1  0  0  0  0
 25 24  2  0  0  0  0
 25 26  1  0  0  0  0
 26 27  2  0  0  0  0
 27 28  1  0  0  0  0
 28 32  1  0  0  0  0
 29 28  2  0  0  0  0
 30 25  1  0  0  0  0
 31 26  1  0  0  0  0
 32 39  1  0  0  0  0
 33 32  2  0  0  0  0
 33 35  1  0  0  0  0
 34 33  1  0  0  0  0
 35 36  1  0  0  0  0
 35 37  1  0  0  0  0
 37 38  1  0  0  0  0
 39 37  2  0  0  0  0
M  END
>  <minimizedAffinity>
-5.43884611

$$$$
