
 OpenBabel03272500313D

 27 29  0  0  0  0  0  0  0  0999 V2000
   39.6520   25.4920   32.0570 Cl  0  0  0  0  0  0  0  0  0  0  0  0
   38.8850   26.2780   33.4260 C   0  0  0  0  0  0  0  0  0  0  0  0
   39.7250   26.6590   34.4650 C   0  0  0  0  0  0  0  0  0  0  0  0
   39.1370   27.2820   35.5610 C   0  0  0  0  0  0  0  0  0  0  0  0
   37.7800   27.4920   35.5710 C   0  0  0  0  0  0  0  0  0  0  0  0
   37.0160   27.0930   34.5200 C   0  0  0  0  0  0  0  0  0  0  0  0
   37.5250   26.4760   33.4150 C   0  0  0  0  0  0  0  0  0  0  0  0
   39.7710   27.5930   36.3920 H   0  0  0  0  0  0  0  0  0  0  0  0
   37.3090   27.9760   36.4170 H   0  0  0  0  0  0  0  0  0  0  0  0
   35.9410   27.2770   34.5640 H   0  0  0  0  0  0  0  0  0  0  0  0
   42.9320   24.9990   34.9460 C   0  0  0  0  0  0  0  0  0  0  0  0
   43.8580   25.8500   34.3300 C   0  0  0  0  0  0  0  0  0  0  0  0
   43.3600   27.0150   33.7420 C   0  0  0  0  0  0  0  0  0  0  0  0
   42.0230   27.2460   33.8030 N   0  0  0  0  0  0  0  0  0  0  0  0
   41.1710   26.4090   34.3990 C   0  0  0  0  0  0  0  0  0  0  0  0
   41.6280   25.2810   34.9730 N   0  0  0  0  0  0  0  0  0  0  0  0
   43.2280   24.0760   35.4270 H   0  0  0  0  0  0  0  0  0  0  0  0
   44.9060   25.5650   34.3420 H   0  0  0  0  0  0  0  0  0  0  0  0
   44.0490   27.6690   33.2720 H   0  0  0  0  0  0  0  0  0  0  0  0
   36.6920   26.0540   32.2930 C   0  0  0  0  0  0  0  0  0  0  0  0
   36.3040   26.8890   31.2640 C   0  0  0  0  0  0  0  0  0  0  0  0
   36.5130   27.9440   31.0780 H   0  0  0  0  0  0  0  0  0  0  0  0
   35.5450   26.1960   30.3930 N   0  0  0  0  0  0  0  0  0  0  0  0
   35.0480   26.4010   29.4980 H   0  0  0  0  0  0  0  0  0  0  0  0
   35.4510   24.9360   30.8610 C   0  0  0  0  0  0  0  0  0  0  0  0
   34.9600   24.0180   30.5300 H   0  0  0  0  0  0  0  0  0  0  0  0
   36.1430   24.8400   32.0140 N   0  0  0  0  0  0  0  0  0  0  0  0
  1  2  1  0  0  0  0
  2  3  1  0  0  0  0
  3  4  2  0  0  0  0
  4  5  1  0  0  0  0
  4  8  1  0  0  0  0
  5  9  1  0  0  0  0
  6 10  1  0  0  0  0
  6  5  2  0  0  0  0
  7  2  2  0  0  0  0
  7  6  1  0  0  0  0
 11 16  1  0  0  0  0
 11 17  1  0  0  0  0
 12 18  1  0  0  0  0
 12 11  2  0  0  0  0
 13 14  2  0  0  0  0
 13 12  1  0  0  0  0
 14 15  1  0  0  0  0
 15  3  1  0  0  0  0
 15 16  2  0  0  0  0
 19 13  1  0  0  0  0
 20  7  1  0  0  0  0
 21 20  2  0  0  0  0
 22 21  1  0  0  0  0
 23 25  1  0  0  0  0
 23 21  1  0  0  0  0
 24 23  1  0  0  0  0
 25 27  2  0  0  0  0
 26 25  1  0  0  0  0
 27 20  1  0  0  0  0
M  END
>  <minimizedAffinity>
-4.97280073

$$$$

 OpenBabel03272500313D

 27 29  0  0  0  0  0  0  0  0999 V2000
   37.8530   23.3850   33.7590 Cl  0  0  0  0  0  0  0  0  0  0  0  0
   36.9590   24.4850   32.7240 C   0  0  0  0  0  0  0  0  0  0  0  0
   36.1700   23.8990   31.7410 C   0  0  0  0  0  0  0  0  0  0  0  0
   35.4540   24.7520   30.9090 C   0  0  0  0  0  0  0  0  0  0  0  0
   35.5510   26.1100   31.0890 C   0  0  0  0  0  0  0  0  0  0  0  0
   36.3430   26.6180   32.0710 C   0  0  0  0  0  0  0  0  0  0  0  0
   37.0730   25.8400   32.9220 C   0  0  0  0  0  0  0  0  0  0  0  0
   34.8260   24.3230   30.1280 H   0  0  0  0  0  0  0  0  0  0  0  0
   34.9990   26.7870   30.4490 H   0  0  0  0  0  0  0  0  0  0  0  0
   36.3950   27.7020   32.1840 H   0  0  0  0  0  0  0  0  0  0  0  0
   34.9950   20.4740   32.1390 C   0  0  0  0  0  0  0  0  0  0  0  0
   35.8950   19.7100   31.3840 C   0  0  0  0  0  0  0  0  0  0  0  0
   36.9210   20.3950   30.7320 C   0  0  0  0  0  0  0  0  0  0  0  0
   36.9820   21.7450   30.8680 N   0  0  0  0  0  0  0  0  0  0  0  0
   36.1040   22.4390   31.5950 C   0  0  0  0  0  0  0  0  0  0  0  0
   35.1070   21.8000   32.2340 N   0  0  0  0  0  0  0  0  0  0  0  0
   34.1700   20.0270   32.6780 H   0  0  0  0  0  0  0  0  0  0  0  0
   35.7500   18.6340   31.3480 H   0  0  0  0  0  0  0  0  0  0  0  0
   37.6110   19.8300   30.1570 H   0  0  0  0  0  0  0  0  0  0  0  0
   37.9180   26.3990   33.9730 C   0  0  0  0  0  0  0  0  0  0  0  0
   37.4300   26.9940   35.1190 C   0  0  0  0  0  0  0  0  0  0  0  0
   36.4060   27.1630   35.4600 H   0  0  0  0  0  0  0  0  0  0  0  0
   38.4620   27.4030   35.8810 N   0  0  0  0  0  0  0  0  0  0  0  0
   38.5770   27.8860   36.8000 H   0  0  0  0  0  0  0  0  0  0  0  0
   39.5940   27.0730   35.2280 C   0  0  0  0  0  0  0  0  0  0  0  0
   40.6640   27.1840   35.4200 H   0  0  0  0  0  0  0  0  0  0  0  0
   39.2740   26.4630   34.0690 N   0  0  0  0  0  0  0  0  0  0  0  0
  2  7  1  0  0  0  0
  2  1  1  0  0  0  0
  3  2  2  0  0  0  0
  4  5  2  0  0  0  0
  4  3  1  0  0  0  0
  5  6  1  0  0  0  0
  6 10  1  0  0  0  0
  6  7  2  0  0  0  0
  7 20  1  0  0  0  0
  8  4  1  0  0  0  0
  9  5  1  0  0  0  0
 11 16  1  0  0  0  0
 11 17  1  0  0  0  0
 12 11  2  0  0  0  0
 13 14  2  0  0  0  0
 13 12  1  0  0  0  0
 14 15  1  0  0  0  0
 15  3  1  0  0  0  0
 15 16  2  0  0  0  0
 18 12  1  0  0  0  0
 19 13  1  0  0  0  0
 20 27  1  0  0  0  0
 20 21  2  0  0  0  0
 21 22  1  0  0  0  0
 21 23  1  0  0  0  0
 23 24  1  0  0  0  0
 25 26  1  0  0  0  0
 25 23  1  0  0  0  0
 27 25  2  0  0  0  0
M  END
>  <minimizedAffinity>
-4.88740396

$$$$

 OpenBabel03272500313D

 27 29  0  0  0  0  0  0  0  0999 V2000
   38.5680   25.9080   35.2010 Cl  0  0  0  0  0  0  0  0  0  0  0  0
   38.1140   24.4240   34.3810 C   0  0  0  0  0  0  0  0  0  0  0  0
   37.7390   24.5480   33.0490 C   0  0  0  0  0  0  0  0  0  0  0  0
   37.3740   23.3850   32.3800 C   0  0  0  0  0  0  0  0  0  0  0  0
   37.4000   22.1850   33.0480 C   0  0  0  0  0  0  0  0  0  0  0  0
   37.7770   22.1340   34.3540 C   0  0  0  0  0  0  0  0  0  0  0  0
   38.1460   23.2350   35.0700 C   0  0  0  0  0  0  0  0  0  0  0  0
   37.0750   23.4510   31.3330 H   0  0  0  0  0  0  0  0  0  0  0  0
   37.1190   21.2720   32.5410 H   0  0  0  0  0  0  0  0  0  0  0  0
   37.7850   21.1630   34.8510 H   0  0  0  0  0  0  0  0  0  0  0  0
   36.5120   27.7540   31.8270 C   0  0  0  0  0  0  0  0  0  0  0  0
   37.6140   28.3190   31.1730 C   0  0  0  0  0  0  0  0  0  0  0  0
   38.7950   27.5760   31.1560 C   0  0  0  0  0  0  0  0  0  0  0  0
   38.8020   26.3640   31.7700 N   0  0  0  0  0  0  0  0  0  0  0  0
   37.7310   25.8590   32.3850 C   0  0  0  0  0  0  0  0  0  0  0  0
   36.5810   26.5570   32.4130 N   0  0  0  0  0  0  0  0  0  0  0  0
   35.5560   28.2580   31.8890 H   0  0  0  0  0  0  0  0  0  0  0  0
   37.4930   29.2960   30.7150 H   0  0  0  0  0  0  0  0  0  0  0  0
   39.6380   27.9910   30.6650 H   0  0  0  0  0  0  0  0  0  0  0  0
   38.5490   23.1650   36.4720 C   0  0  0  0  0  0  0  0  0  0  0  0
   39.7250   22.5870   36.9070 C   0  0  0  0  0  0  0  0  0  0  0  0
   40.5330   22.1020   36.3560 H   0  0  0  0  0  0  0  0  0  0  0  0
   39.7980   22.6860   38.2480 N   0  0  0  0  0  0  0  0  0  0  0  0
   40.4770   22.4020   38.9890 H   0  0  0  0  0  0  0  0  0  0  0  0
   38.6830   23.3190   38.6620 C   0  0  0  0  0  0  0  0  0  0  0  0
   38.2790   23.6330   39.6280 H   0  0  0  0  0  0  0  0  0  0  0  0
   37.9190   23.6140   37.5910 N   0  0  0  0  0  0  0  0  0  0  0  0
  2  7  1  0  0  0  0
  2  1  1  0  0  0  0
  3  2  2  0  0  0  0
  4  5  2  0  0  0  0
  4  3  1  0  0  0  0
  5  6  1  0  0  0  0
  6 10  1  0  0  0  0
  6  7  2  0  0  0  0
  7 20  1  0  0  0  0
  8  4  1  0  0  0  0
  9  5  1  0  0  0  0
 11 17  1  0  0  0  0
 11 16  1  0  0  0  0
 12 11  2  0  0  0  0
 13 12  1  0  0  0  0
 13 14  2  0  0  0  0
 14 15  1  0  0  0  0
 15 16  2  0  0  0  0
 15  3  1  0  0  0  0
 18 12  1  0  0  0  0
 19 13  1  0  0  0  0
 20 21  2  0  0  0  0
 20 27  1  0  0  0  0
 21 23  1  0  0  0  0
 22 21  1  0  0  0  0
 23 25  1  0  0  0  0
 23 24  1  0  0  0  0
 25 26  1  0  0  0  0
 27 25  2  0  0  0  0
M  END
>  <minimizedAffinity>
-4.84945774

$$$$

 OpenBabel03272500313D

 27 29  0  0  0  0  0  0  0  0999 V2000
   38.4890   25.9250   35.2320 Cl  0  0  0  0  0  0  0  0  0  0  0  0
   38.0830   24.4360   34.3960 C   0  0  0  0  0  0  0  0  0  0  0  0
   37.7080   24.5620   33.0640 C   0  0  0  0  0  0  0  0  0  0  0  0
   37.3810   23.3950   32.3830 C   0  0  0  0  0  0  0  0  0  0  0  0
   37.4420   22.1900   33.0390 C   0  0  0  0  0  0  0  0  0  0  0  0
   37.8170   22.1380   34.3450 C   0  0  0  0  0  0  0  0  0  0  0  0
   38.1510   23.2420   35.0740 C   0  0  0  0  0  0  0  0  0  0  0  0
   37.0830   23.4620   31.3360 H   0  0  0  0  0  0  0  0  0  0  0  0
   37.1910   21.2730   32.5220 H   0  0  0  0  0  0  0  0  0  0  0  0
   37.8540   21.1620   34.8330 H   0  0  0  0  0  0  0  0  0  0  0  0
   38.8000   27.4900   31.1910 C   0  0  0  0  0  0  0  0  0  0  0  0
   37.6750   28.3240   31.1670 C   0  0  0  0  0  0  0  0  0  0  0  0
   36.5250   27.8630   31.8110 C   0  0  0  0  0  0  0  0  0  0  0  0
   36.5690   26.6450   32.4130 N   0  0  0  0  0  0  0  0  0  0  0  0
   37.6610   25.8780   32.4130 C   0  0  0  0  0  0  0  0  0  0  0  0
   38.7810   26.3030   31.8000 N   0  0  0  0  0  0  0  0  0  0  0  0
   39.7340   27.7670   30.7190 H   0  0  0  0  0  0  0  0  0  0  0  0
   37.7540   29.2790   30.6560 H   0  0  0  0  0  0  0  0  0  0  0  0
   35.6650   28.4830   31.8010 H   0  0  0  0  0  0  0  0  0  0  0  0
   38.5530   23.1710   36.4760 C   0  0  0  0  0  0  0  0  0  0  0  0
   39.7300   22.5970   36.9110 C   0  0  0  0  0  0  0  0  0  0  0  0
   40.5420   22.1160   36.3590 H   0  0  0  0  0  0  0  0  0  0  0  0
   39.8010   22.6930   38.2520 N   0  0  0  0  0  0  0  0  0  0  0  0
   40.4810   22.4100   38.9940 H   0  0  0  0  0  0  0  0  0  0  0  0
   38.6830   23.3200   38.6660 C   0  0  0  0  0  0  0  0  0  0  0  0
   38.2760   23.6300   39.6320 H   0  0  0  0  0  0  0  0  0  0  0  0
   37.9190   23.6140   37.5940 N   0  0  0  0  0  0  0  0  0  0  0  0
  2  7  1  0  0  0  0
  2  1  1  0  0  0  0
  3  2  2  0  0  0  0
  4  5  2  0  0  0  0
  4  3  1  0  0  0  0
  5  6  1  0  0  0  0
  6 10  1  0  0  0  0
  6  7  2  0  0  0  0
  7 20  1  0  0  0  0
  8  4  1  0  0  0  0
  9  5  1  0  0  0  0
 11 16  1  0  0  0  0
 12 11  2  0  0  0  0
 12 13  1  0  0  0  0
 13 14  2  0  0  0  0
 14 15  1  0  0  0  0
 15  3  1  0  0  0  0
 16 15  2  0  0  0  0
 17 11  1  0  0  0  0
 18 12  1  0  0  0  0
 19 13  1  0  0  0  0
 20 21  2  0  0  0  0
 20 27  1  0  0  0  0
 21 23  1  0  0  0  0
 22 21  1  0  0  0  0
 23 25  1  0  0  0  0
 23 24  1  0  0  0  0
 25 26  1  0  0  0  0
 27 25  2  0  0  0  0
M  END
>  <minimizedAffinity>
-4.845994

$$$$

 OpenBabel03272500313D

 27 29  0  0  0  0  0  0  0  0999 V2000
   36.7670   21.4250   35.7140 Cl  0  0  0  0  0  0  0  0  0  0  0  0
   37.7740   22.4640   34.7200 C   0  0  0  0  0  0  0  0  0  0  0  0
   37.6900   22.2690   33.3470 C   0  0  0  0  0  0  0  0  0  0  0  0
   38.4800   23.0810   32.5400 C   0  0  0  0  0  0  0  0  0  0  0  0
   39.2930   24.0230   33.1210 C   0  0  0  0  0  0  0  0  0  0  0  0
   39.3280   24.1610   34.4730 C   0  0  0  0  0  0  0  0  0  0  0  0
   38.5800   23.3990   35.3230 C   0  0  0  0  0  0  0  0  0  0  0  0
   38.4370   22.9520   31.4580 H   0  0  0  0  0  0  0  0  0  0  0  0
   39.9130   24.6630   32.5060 H   0  0  0  0  0  0  0  0  0  0  0  0
   39.9850   24.9210   34.8980 H   0  0  0  0  0  0  0  0  0  0  0  0
   36.6110   19.1180   31.8700 C   0  0  0  0  0  0  0  0  0  0  0  0
   35.2270   19.2660   31.7120 C   0  0  0  0  0  0  0  0  0  0  0  0
   34.6650   20.4760   32.1220 C   0  0  0  0  0  0  0  0  0  0  0  0
   35.4870   21.4240   32.6450 N   0  0  0  0  0  0  0  0  0  0  0  0
   36.8020   21.2450   32.7810 C   0  0  0  0  0  0  0  0  0  0  0  0
   37.3660   20.0870   32.3910 N   0  0  0  0  0  0  0  0  0  0  0  0
   37.1310   18.2140   31.5790 H   0  0  0  0  0  0  0  0  0  0  0  0
   34.6680   18.4420   31.2800 H   0  0  0  0  0  0  0  0  0  0  0  0
   33.6190   20.6040   32.0080 H   0  0  0  0  0  0  0  0  0  0  0  0
   38.6270   23.5590   36.7740 C   0  0  0  0  0  0  0  0  0  0  0  0
   39.5250   22.9050   37.5920 C   0  0  0  0  0  0  0  0  0  0  0  0
   40.3220   22.1940   37.3610 H   0  0  0  0  0  0  0  0  0  0  0  0
   39.3060   23.2670   38.8710 N   0  0  0  0  0  0  0  0  0  0  0  0
   39.7230   23.0400   39.8010 H   0  0  0  0  0  0  0  0  0  0  0  0
   38.2800   24.1410   38.8660 C   0  0  0  0  0  0  0  0  0  0  0  0
   37.7380   24.7090   39.6270 H   0  0  0  0  0  0  0  0  0  0  0  0
   37.8610   24.3250   37.5980 N   0  0  0  0  0  0  0  0  0  0  0  0
  2  7  1  0  0  0  0
  2  1  1  0  0  0  0
  3  2  2  0  0  0  0
  4  5  2  0  0  0  0
  4  3  1  0  0  0  0
  5  6  1  0  0  0  0
  6 10  1  0  0  0  0
  6  7  2  0  0  0  0
  7 20  1  0  0  0  0
  8  4  1  0  0  0  0
  9  5  1  0  0  0  0
 11 16  1  0  0  0  0
 12 11  2  0  0  0  0
 12 13  1  0  0  0  0
 13 14  2  0  0  0  0
 14 15  1  0  0  0  0
 15  3  1  0  0  0  0
 16 15  2  0  0  0  0
 17 11  1  0  0  0  0
 18 12  1  0  0  0  0
 19 13  1  0  0  0  0
 20 21  2  0  0  0  0
 20 27  1  0  0  0  0
 21 23  1  0  0  0  0
 22 21  1  0  0  0  0
 23 24  1  0  0  0  0
 25 23  1  0  0  0  0
 25 26  1  0  0  0  0
 27 25  2  0  0  0  0
M  END
>  <minimizedAffinity>
-4.75763035

$$$$

 OpenBabel03272500313D

 27 29  0  0  0  0  0  0  0  0999 V2000
   39.8570   25.9410   32.0480 Cl  0  0  0  0  0  0  0  0  0  0  0  0
   38.9610   26.6420   33.3850 C   0  0  0  0  0  0  0  0  0  0  0  0
   39.4420   26.3660   34.6580 C   0  0  0  0  0  0  0  0  0  0  0  0
   38.7480   26.9100   35.7320 C   0  0  0  0  0  0  0  0  0  0  0  0
   37.6380   27.6840   35.4960 C   0  0  0  0  0  0  0  0  0  0  0  0
   37.2200   27.9150   34.2230 C   0  0  0  0  0  0  0  0  0  0  0  0
   37.8530   27.4130   33.1240 C   0  0  0  0  0  0  0  0  0  0  0  0
   39.1010   26.7100   36.7450 H   0  0  0  0  0  0  0  0  0  0  0  0
   37.0870   28.1150   36.3220 H   0  0  0  0  0  0  0  0  0  0  0  0
   36.3350   28.5360   34.0750 H   0  0  0  0  0  0  0  0  0  0  0  0
   42.9520   25.4400   34.9800 C   0  0  0  0  0  0  0  0  0  0  0  0
   42.9250   24.0560   35.2000 C   0  0  0  0  0  0  0  0  0  0  0  0
   41.6730   23.4410   35.2360 C   0  0  0  0  0  0  0  0  0  0  0  0
   40.5700   24.2130   35.0570 N   0  0  0  0  0  0  0  0  0  0  0  0
   40.6360   25.5300   34.8510 C   0  0  0  0  0  0  0  0  0  0  0  0
   41.8320   26.1450   34.8110 N   0  0  0  0  0  0  0  0  0  0  0  0
   43.8770   25.9990   34.9360 H   0  0  0  0  0  0  0  0  0  0  0  0
   43.8710   23.5390   35.3290 H   0  0  0  0  0  0  0  0  0  0  0  0
   41.6370   22.3940   35.4020 H   0  0  0  0  0  0  0  0  0  0  0  0
   37.3940   27.6700   31.7620 C   0  0  0  0  0  0  0  0  0  0  0  0
   36.4500   26.9030   31.1100 C   0  0  0  0  0  0  0  0  0  0  0  0
   35.8920   26.0220   31.4350 H   0  0  0  0  0  0  0  0  0  0  0  0
   36.2490   27.4020   29.8750 N   0  0  0  0  0  0  0  0  0  0  0  0
   35.6510   27.1620   29.0530 H   0  0  0  0  0  0  0  0  0  0  0  0
   37.0560   28.4730   29.7420 C   0  0  0  0  0  0  0  0  0  0  0  0
   37.2610   29.2000   28.9530 H   0  0  0  0  0  0  0  0  0  0  0  0
   37.7550   28.6440   30.8830 N   0  0  0  0  0  0  0  0  0  0  0  0
  1  2  1  0  0  0  0
  2  3  1  0  0  0  0
  3 15  1  0  0  0  0
  3  4  2  0  0  0  0
  4  8  1  0  0  0  0
  5  4  1  0  0  0  0
  5  9  1  0  0  0  0
  6  5  2  0  0  0  0
  7  2  2  0  0  0  0
  7  6  1  0  0  0  0
 10  6  1  0  0  0  0
 11 12  1  0  0  0  0
 12 13  2  0  0  0  0
 12 18  1  0  0  0  0
 13 19  1  0  0  0  0
 14 13  1  0  0  0  0
 15 14  2  0  0  0  0
 16 15  1  0  0  0  0
 16 11  2  0  0  0  0
 17 11  1  0  0  0  0
 20  7  1  0  0  0  0
 21 22  1  0  0  0  0
 21 20  2  0  0  0  0
 23 21  1  0  0  0  0
 24 23  1  0  0  0  0
 25 23  1  0  0  0  0
 25 27  2  0  0  0  0
 26 25  1  0  0  0  0
 27 20  1  0  0  0  0
M  END
>  <minimizedAffinity>
-4.66522646

$$$$

 OpenBabel03272500313D

 27 29  0  0  0  0  0  0  0  0999 V2000
   40.5630   24.7760   34.3330 Cl  0  0  0  0  0  0  0  0  0  0  0  0
   39.7310   24.1930   35.7650 C   0  0  0  0  0  0  0  0  0  0  0  0
   38.4620   24.7100   35.9910 C   0  0  0  0  0  0  0  0  0  0  0  0
   37.7850   24.2620   37.1200 C   0  0  0  0  0  0  0  0  0  0  0  0
   38.3850   23.3450   37.9480 C   0  0  0  0  0  0  0  0  0  0  0  0
   39.6320   22.8800   37.6680 C   0  0  0  0  0  0  0  0  0  0  0  0
   40.3520   23.2750   36.5790 C   0  0  0  0  0  0  0  0  0  0  0  0
   36.7870   24.6500   37.3250 H   0  0  0  0  0  0  0  0  0  0  0  0
   37.8720   22.9880   38.8310 H   0  0  0  0  0  0  0  0  0  0  0  0
   40.0770   22.1520   38.3490 H   0  0  0  0  0  0  0  0  0  0  0  0
   37.1640   27.8760   34.7400 C   0  0  0  0  0  0  0  0  0  0  0  0
   36.7690   27.5930   33.4260 C   0  0  0  0  0  0  0  0  0  0  0  0
   36.9560   26.2860   32.9720 C   0  0  0  0  0  0  0  0  0  0  0  0
   37.5050   25.3810   33.8240 N   0  0  0  0  0  0  0  0  0  0  0  0
   37.8690   25.6890   35.0700 C   0  0  0  0  0  0  0  0  0  0  0  0
   37.6970   26.9420   35.5300 N   0  0  0  0  0  0  0  0  0  0  0  0
   37.0550   28.8610   35.1760 H   0  0  0  0  0  0  0  0  0  0  0  0
   36.3400   28.3960   32.8340 H   0  0  0  0  0  0  0  0  0  0  0  0
   36.6630   26.0560   31.9800 H   0  0  0  0  0  0  0  0  0  0  0  0
   41.6900   22.7660   36.2900 C   0  0  0  0  0  0  0  0  0  0  0  0
   41.9360   21.5720   35.6430 C   0  0  0  0  0  0  0  0  0  0  0  0
   41.2540   20.8180   35.2430 H   0  0  0  0  0  0  0  0  0  0  0  0
   43.2660   21.3930   35.5320 N   0  0  0  0  0  0  0  0  0  0  0  0
   43.8980   20.6640   35.1320 H   0  0  0  0  0  0  0  0  0  0  0  0
   43.8600   22.4600   36.1010 C   0  0  0  0  0  0  0  0  0  0  0  0
   44.8910   22.7830   36.2640 H   0  0  0  0  0  0  0  0  0  0  0  0
   42.9110   23.2990   36.5640 N   0  0  0  0  0  0  0  0  0  0  0  0
  1  2  1  0  0  0  0
  2  3  2  0  0  0  0
  2  7  1  0  0  0  0
  3  4  1  0  0  0  0
  4  8  1  0  0  0  0
  4  5  2  0  0  0  0
  5  9  1  0  0  0  0
  6  5  1  0  0  0  0
  6 10  1  0  0  0  0
  7  6  2  0  0  0  0
 11 17  1  0  0  0  0
 11 16  1  0  0  0  0
 12 11  2  0  0  0  0
 13 12  1  0  0  0  0
 13 14  2  0  0  0  0
 14 15  1  0  0  0  0
 15 16  2  0  0  0  0
 15  3  1  0  0  0  0
 18 12  1  0  0  0  0
 19 13  1  0  0  0  0
 20 27  1  0  0  0  0
 20  7  1  0  0  0  0
 21 20  2  0  0  0  0
 22 21  1  0  0  0  0
 23 21  1  0  0  0  0
 23 25  1  0  0  0  0
 24 23  1  0  0  0  0
 25 26  1  0  0  0  0
 25 27  2  0  0  0  0
M  END
>  <minimizedAffinity>
-4.65401173

$$$$

 OpenBabel03272500313D

 27 29  0  0  0  0  0  0  0  0999 V2000
   35.8390   28.5320   34.5490 Cl  0  0  0  0  0  0  0  0  0  0  0  0
   35.8410   29.8100   33.3460 C   0  0  0  0  0  0  0  0  0  0  0  0
   36.2730   29.4560   32.0740 C   0  0  0  0  0  0  0  0  0  0  0  0
   36.2840   30.4530   31.1060 C   0  0  0  0  0  0  0  0  0  0  0  0
   35.8750   31.7220   31.4380 C   0  0  0  0  0  0  0  0  0  0  0  0
   35.4650   32.0010   32.7040 C   0  0  0  0  0  0  0  0  0  0  0  0
   35.4290   31.0720   33.7020 C   0  0  0  0  0  0  0  0  0  0  0  0
   36.6180   30.2060   30.0980 H   0  0  0  0  0  0  0  0  0  0  0  0
   35.8780   32.5090   30.6950 H   0  0  0  0  0  0  0  0  0  0  0  0
   35.1470   33.0200   32.9300 H   0  0  0  0  0  0  0  0  0  0  0  0
   36.0740   25.9500   31.1040 C   0  0  0  0  0  0  0  0  0  0  0  0
   37.3940   25.4900   31.1960 C   0  0  0  0  0  0  0  0  0  0  0  0
   38.3620   26.4100   31.6010 C   0  0  0  0  0  0  0  0  0  0  0  0
   37.9680   27.6810   31.8770 N   0  0  0  0  0  0  0  0  0  0  0  0
   36.6990   28.0820   31.7760 C   0  0  0  0  0  0  0  0  0  0  0  0
   35.7480   27.2120   31.3890 N   0  0  0  0  0  0  0  0  0  0  0  0
   35.2590   25.3060   30.7990 H   0  0  0  0  0  0  0  0  0  0  0  0
   37.5940   24.4510   30.9510 H   0  0  0  0  0  0  0  0  0  0  0  0
   39.3660   26.0770   31.6750 H   0  0  0  0  0  0  0  0  0  0  0  0
   34.9840   31.3870   35.0570 C   0  0  0  0  0  0  0  0  0  0  0  0
   35.8170   31.8640   36.0500 C   0  0  0  0  0  0  0  0  0  0  0  0
   36.8850   32.0900   36.0430 H   0  0  0  0  0  0  0  0  0  0  0  0
   35.1030   32.0510   37.1760 N   0  0  0  0  0  0  0  0  0  0  0  0
   35.2980   32.3860   38.1460 H   0  0  0  0  0  0  0  0  0  0  0  0
   33.8310   31.6980   36.9040 C   0  0  0  0  0  0  0  0  0  0  0  0
   32.8940   31.6680   37.4660 H   0  0  0  0  0  0  0  0  0  0  0  0
   33.7490   31.2930   35.6200 N   0  0  0  0  0  0  0  0  0  0  0  0
  2  7  1  0  0  0  0
  2  1  1  0  0  0  0
  3  2  2  0  0  0  0
  4  5  2  0  0  0  0
  4  3  1  0  0  0  0
  5  6  1  0  0  0  0
  6 10  1  0  0  0  0
  6  7  2  0  0  0  0
  7 20  1  0  0  0  0
  8  4  1  0  0  0  0
  9  5  1  0  0  0  0
 11 12  2  0  0  0  0
 11 16  1  0  0  0  0
 12 13  1  0  0  0  0
 13 19  1  0  0  0  0
 13 14  2  0  0  0  0
 15 14  1  0  0  0  0
 15  3  1  0  0  0  0
 16 15  2  0  0  0  0
 17 11  1  0  0  0  0
 18 12  1  0  0  0  0
 20 27  1  0  0  0  0
 20 21  2  0  0  0  0
 21 23  1  0  0  0  0
 22 21  1  0  0  0  0
 23 24  1  0  0  0  0
 25 23  1  0  0  0  0
 25 26  1  0  0  0  0
 27 25  2  0  0  0  0
M  END
>  <minimizedAffinity>
-4.60073853

$$$$

 OpenBabel03272500313D

 27 29  0  0  0  0  0  0  0  0999 V2000
   39.9660   24.9080   32.1780 Cl  0  0  0  0  0  0  0  0  0  0  0  0
   39.2480   25.7540   33.5390 C   0  0  0  0  0  0  0  0  0  0  0  0
   37.8870   25.5610   33.7330 C   0  0  0  0  0  0  0  0  0  0  0  0
   37.2970   26.2230   34.8040 C   0  0  0  0  0  0  0  0  0  0  0  0
   38.0680   27.0220   35.6110 C   0  0  0  0  0  0  0  0  0  0  0  0
   39.3980   27.1690   35.3640 C   0  0  0  0  0  0  0  0  0  0  0  0
   40.0400   26.5500   34.3320 C   0  0  0  0  0  0  0  0  0  0  0  0
   36.2290   26.0910   34.9820 H   0  0  0  0  0  0  0  0  0  0  0  0
   37.6240   27.5440   36.4490 H   0  0  0  0  0  0  0  0  0  0  0  0
   39.9780   27.8120   36.0270 H   0  0  0  0  0  0  0  0  0  0  0  0
   36.5870   22.5240   32.1960 C   0  0  0  0  0  0  0  0  0  0  0  0
   35.7050   22.9860   31.2100 C   0  0  0  0  0  0  0  0  0  0  0  0
   35.5620   24.3680   31.0790 C   0  0  0  0  0  0  0  0  0  0  0  0
   36.2800   25.1710   31.9080 N   0  0  0  0  0  0  0  0  0  0  0  0
   37.1110   24.6930   32.8370 C   0  0  0  0  0  0  0  0  0  0  0  0
   37.2650   23.3640   32.9800 N   0  0  0  0  0  0  0  0  0  0  0  0
   36.7590   21.4690   32.3670 H   0  0  0  0  0  0  0  0  0  0  0  0
   35.1830   22.2520   30.6030 H   0  0  0  0  0  0  0  0  0  0  0  0
   34.8980   24.7330   30.3380 H   0  0  0  0  0  0  0  0  0  0  0  0
   41.4690   26.7150   34.0790 C   0  0  0  0  0  0  0  0  0  0  0  0
   41.9950   27.6600   33.2210 C   0  0  0  0  0  0  0  0  0  0  0  0
   41.5090   28.4170   32.6020 H   0  0  0  0  0  0  0  0  0  0  0  0
   43.3370   27.5510   33.2110 N   0  0  0  0  0  0  0  0  0  0  0  0
   44.1290   28.0350   32.7320 H   0  0  0  0  0  0  0  0  0  0  0  0
   43.6620   26.5500   34.0530 C   0  0  0  0  0  0  0  0  0  0  0  0
   44.5930   26.0840   34.3860 H   0  0  0  0  0  0  0  0  0  0  0  0
   42.5340   26.0370   34.5850 N   0  0  0  0  0  0  0  0  0  0  0  0
  1  2  1  0  0  0  0
  2  3  2  0  0  0  0
  2  7  1  0  0  0  0
  3  4  1  0  0  0  0
  4  8  1  0  0  0  0
  4  5  2  0  0  0  0
  5  9  1  0  0  0  0
  6  5  1  0  0  0  0
  6 10  1  0  0  0  0
  7  6  2  0  0  0  0
 11 17  1  0  0  0  0
 11 16  1  0  0  0  0
 12 11  2  0  0  0  0
 13 12  1  0  0  0  0
 13 14  2  0  0  0  0
 14 15  1  0  0  0  0
 15 16  2  0  0  0  0
 15  3  1  0  0  0  0
 18 12  1  0  0  0  0
 19 13  1  0  0  0  0
 20  7  1  0  0  0  0
 20 27  1  0  0  0  0
 21 20  2  0  0  0  0
 22 21  1  0  0  0  0
 23 21  1  0  0  0  0
 23 25  1  0  0  0  0
 24 23  1  0  0  0  0
 25 26  1  0  0  0  0
 25 27  2  0  0  0  0
M  END
>  <minimizedAffinity>
-4.58888006

$$$$
