
 OpenBabel03272507443D

 32 34  0  0  0  0  0  0  0  0999 V2000
   35.5460   29.7090   49.3790 N   0  0  0  0  0  0  0  0  0  0  0  0
   35.3450   30.9400   50.0750 C   0  0  0  0  0  0  0  0  0  0  0  0
   36.4120   31.9620   49.9780 C   0  0  0  0  0  0  0  0  0  0  0  0
   37.8130   31.4760   49.8340 C   0  0  0  0  0  0  0  0  0  0  0  0
   37.9240   30.1180   49.2220 C   0  0  0  0  0  0  0  0  0  0  0  0
   36.8420   29.1960   49.7610 C   0  0  0  0  0  0  0  0  0  0  0  0
   35.2250   30.6840   51.1490 H   0  0  0  0  0  0  0  0  0  0  0  0
   34.3750   31.4210   49.7930 H   0  0  0  0  0  0  0  0  0  0  0  0
   36.1690   32.6170   49.0910 H   0  0  0  0  0  0  0  0  0  0  0  0
   36.3300   32.6460   50.8540 H   0  0  0  0  0  0  0  0  0  0  0  0
   38.3280   31.5320   50.8290 H   0  0  0  0  0  0  0  0  0  0  0  0
   38.9020   29.6790   49.5590 H   0  0  0  0  0  0  0  0  0  0  0  0
   37.9330   30.1410   48.1150 H   0  0  0  0  0  0  0  0  0  0  0  0
   36.9820   29.1110   50.8520 H   0  0  0  0  0  0  0  0  0  0  0  0
   37.0530   28.2010   49.3180 H   0  0  0  0  0  0  0  0  0  0  0  0
   34.6380   29.0840   48.4680 C   0  0  0  0  0  0  0  0  0  0  0  0
   34.0380   29.7220   47.3710 C   0  0  0  0  0  0  0  0  0  0  0  0
   33.1740   28.9610   46.5850 C   0  0  0  0  0  0  0  0  0  0  0  0
   32.9580   27.6490   46.9190 N   0  0  0  0  0  0  0  0  0  0  0  0
   33.5640   27.0880   47.9880 C   0  0  0  0  0  0  0  0  0  0  0  0
   34.3880   27.8040   48.7440 N   0  0  0  0  0  0  0  0  0  0  0  0
   34.2950   30.7410   47.2300 H   0  0  0  0  0  0  0  0  0  0  0  0
   32.7240   29.4590   45.7510 H   0  0  0  0  0  0  0  0  0  0  0  0
   33.3430   26.0400   48.1920 H   0  0  0  0  0  0  0  0  0  0  0  0
   38.5640   32.4070   48.9300 C   0  0  0  0  0  0  0  0  0  0  0  0
   39.0010   33.7100   49.1280 C   0  0  0  0  0  0  0  0  0  0  0  0
   38.8180   34.2430   50.0720 H   0  0  0  0  0  0  0  0  0  0  0  0
   39.6320   34.1210   48.0180 N   0  0  0  0  0  0  0  0  0  0  0  0
   40.0700   35.0800   47.8870 H   0  0  0  0  0  0  0  0  0  0  0  0
   39.6110   33.1110   47.1060 C   0  0  0  0  0  0  0  0  0  0  0  0
   40.0380   33.1190   46.0990 H   0  0  0  0  0  0  0  0  0  0  0  0
   38.9570   32.0650   47.6700 N   0  0  0  0  0  0  0  0  0  0  0  0
  1  6  1  0  0  0  0
  1  2  1  0  0  0  0
  2  7  1  0  0  0  0
  3  2  1  0  0  0  0
  3 10  1  0  0  0  0
  4  3  1  0  0  0  0
  4 11  1  0  0  0  0
  5 12  1  0  0  0  0
  5  6  1  0  0  0  0
  5  4  1  0  0  0  0
  6 14  1  0  0  0  0
  8  2  1  0  0  0  0
  9  3  1  0  0  0  0
 13  5  1  0  0  0  0
 15  6  1  0  0  0  0
 16 21  1  0  0  0  0
 16  1  1  0  0  0  0
 17 16  2  0  0  0  0
 18 19  2  0  0  0  0
 18 17  1  0  0  0  0
 19 20  1  0  0  0  0
 20 24  1  0  0  0  0
 20 21  2  0  0  0  0
 22 17  1  0  0  0  0
 23 18  1  0  0  0  0
 25 26  2  0  0  0  0
 25  4  1  0  0  0  0
 26 27  1  0  0  0  0
 28 26  1  0  0  0  0
 29 28  1  0  0  0  0
 30 32  2  0  0  0  0
 30 28  1  0  0  0  0
 31 30  1  0  0  0  0
 32 25  1  0  0  0  0
M  END
>  <minimizedAffinity>
-5.2464633

>  <minimizedRMSD>
2.40637803

$$$$
