
 OpenBabel03272509513D

 32 34  0  0  0  0  0  0  0  0999 V2000
   37.8710   23.4670   32.0480 O   0  0  0  0  0  0  0  0  0  0  0  0
   37.3840   26.3500   34.1790 C   0  0  0  0  0  0  0  0  0  0  0  0
   37.7670   25.8050   35.4290 C   0  0  0  0  0  0  0  0  0  0  0  0
   38.1690   24.4680   35.4530 C   0  0  0  0  0  0  0  0  0  0  0  0
   38.1680   23.7820   34.2770 N   0  0  0  0  0  0  0  0  0  0  0  0
   37.7970   24.3380   33.1090 C   0  0  0  0  0  0  0  0  0  0  0  0
   37.4010   25.6390   33.0630 N   0  0  0  0  0  0  0  0  0  0  0  0
   37.0700   27.3850   34.1490 H   0  0  0  0  0  0  0  0  0  0  0  0
   37.7360   26.4260   36.3150 H   0  0  0  0  0  0  0  0  0  0  0  0
   38.5680   23.8630   36.6940 C   0  0  0  0  0  0  0  0  0  0  0  0
   39.5320   22.9070   36.8870 C   0  0  0  0  0  0  0  0  0  0  0  0
   40.1120   22.4990   36.0710 H   0  0  0  0  0  0  0  0  0  0  0  0
   39.5300   22.6670   38.2210 N   0  0  0  0  0  0  0  0  0  0  0  0
   40.2050   21.9510   38.6110 H   0  0  0  0  0  0  0  0  0  0  0  0
   38.5930   23.4520   38.8210 C   0  0  0  0  0  0  0  0  0  0  0  0
   38.4600   23.3850   39.8970 H   0  0  0  0  0  0  0  0  0  0  0  0
   38.0020   24.1900   37.8640 N   0  0  0  0  0  0  0  0  0  0  0  0
   36.9110   23.6210   31.0060 C   0  0  0  0  0  0  0  0  0  0  0  0
   36.7850   24.7140   30.8750 H   0  0  0  0  0  0  0  0  0  0  0  0
   37.2450   23.1670   30.0580 H   0  0  0  0  0  0  0  0  0  0  0  0
   35.5760   23.0780   31.4490 C   0  0  0  0  0  0  0  0  0  0  0  0
   34.7950   23.2160   30.6740 H   0  0  0  0  0  0  0  0  0  0  0  0
   35.2450   23.6960   32.3240 H   0  0  0  0  0  0  0  0  0  0  0  0
   35.6520   21.6450   31.8340 C   0  0  0  0  0  0  0  0  0  0  0  0
   35.9920   20.7470   30.8440 C   0  0  0  0  0  0  0  0  0  0  0  0
   36.0950   19.3970   31.0750 C   0  0  0  0  0  0  0  0  0  0  0  0
   35.8580   18.9360   32.3060 N   0  0  0  0  0  0  0  0  0  0  0  0
   35.5240   19.8130   33.2810 C   0  0  0  0  0  0  0  0  0  0  0  0
   35.4190   21.1430   33.0700 N   0  0  0  0  0  0  0  0  0  0  0  0
   36.1910   21.0930   29.8330 H   0  0  0  0  0  0  0  0  0  0  0  0
   36.3630   18.7180   30.2790 H   0  0  0  0  0  0  0  0  0  0  0  0
   35.3250   19.4620   34.2930 H   0  0  0  0  0  0  0  0  0  0  0  0
  1  6  1  0  0  0  0
  2  3  1  0  0  0  0
  3  4  2  0  0  0  0
  3  9  1  0  0  0  0
  4 10  1  0  0  0  0
  5  4  1  0  0  0  0
  6  5  2  0  0  0  0
  7  6  1  0  0  0  0
  7  2  2  0  0  0  0
  8  2  1  0  0  0  0
 10 11  2  0  0  0  0
 10 17  1  0  0  0  0
 11 13  1  0  0  0  0
 12 11  1  0  0  0  0
 13 14  1  0  0  0  0
 13 15  1  0  0  0  0
 15 16  1  0  0  0  0
 17 15  2  0  0  0  0
 18 21  1  0  0  0  0
 18  1  1  0  0  0  0
 19 18  1  0  0  0  0
 20 18  1  0  0  0  0
 21 24  1  0  0  0  0
 21 23  1  0  0  0  0
 22 21  1  0  0  0  0
 24 29  1  0  0  0  0
 25 26  1  0  0  0  0
 25 24  2  0  0  0  0
 26 27  2  0  0  0  0
 27 28  1  0  0  0  0
 28 32  1  0  0  0  0
 29 28  2  0  0  0  0
 30 25  1  0  0  0  0
 31 26  1  0  0  0  0
M  END
>  <minimizedAffinity>
-5.17179823

$$$$

 OpenBabel03272509513D

 32 34  0  0  0  0  0  0  0  0999 V2000
   36.7450   27.4940   34.8480 O   0  0  0  0  0  0  0  0  0  0  0  0
   37.7460   24.5010   33.0790 C   0  0  0  0  0  0  0  0  0  0  0  0
   38.3350   23.7690   34.1390 C   0  0  0  0  0  0  0  0  0  0  0  0
   38.3470   24.3620   35.4030 C   0  0  0  0  0  0  0  0  0  0  0  0
   37.7930   25.5990   35.5310 N   0  0  0  0  0  0  0  0  0  0  0  0
   37.2430   26.2630   34.4960 C   0  0  0  0  0  0  0  0  0  0  0  0
   37.2210   25.7030   33.2560 N   0  0  0  0  0  0  0  0  0  0  0  0
   37.7310   24.0510   32.0950 H   0  0  0  0  0  0  0  0  0  0  0  0
   38.7510   22.7890   33.9450 H   0  0  0  0  0  0  0  0  0  0  0  0
   38.9310   23.6650   36.5160 C   0  0  0  0  0  0  0  0  0  0  0  0
   38.4020   23.5000   37.7700 C   0  0  0  0  0  0  0  0  0  0  0  0
   37.4410   23.9070   38.0500 H   0  0  0  0  0  0  0  0  0  0  0  0
   39.3250   22.7770   38.4510 N   0  0  0  0  0  0  0  0  0  0  0  0
   39.1330   22.5240   39.4600 H   0  0  0  0  0  0  0  0  0  0  0  0
   40.3830   22.5100   37.6350 C   0  0  0  0  0  0  0  0  0  0  0  0
   41.2180   21.9350   38.0250 H   0  0  0  0  0  0  0  0  0  0  0  0
   40.1270   23.0660   36.4370 N   0  0  0  0  0  0  0  0  0  0  0  0
   36.3130   28.3510   33.7940 C   0  0  0  0  0  0  0  0  0  0  0  0
   37.1660   29.0310   33.5940 H   0  0  0  0  0  0  0  0  0  0  0  0
   36.0580   27.7930   32.8780 H   0  0  0  0  0  0  0  0  0  0  0  0
   35.1690   29.2130   34.2640 C   0  0  0  0  0  0  0  0  0  0  0  0
   34.7000   28.8120   35.1840 H   0  0  0  0  0  0  0  0  0  0  0  0
   34.3750   29.1630   33.4740 H   0  0  0  0  0  0  0  0  0  0  0  0
   35.5820   30.6230   34.4840 C   0  0  0  0  0  0  0  0  0  0  0  0
   35.6120   31.4480   33.3790 C   0  0  0  0  0  0  0  0  0  0  0  0
   35.9770   32.7700   33.4530 C   0  0  0  0  0  0  0  0  0  0  0  0
   36.3140   33.2770   34.6420 N   0  0  0  0  0  0  0  0  0  0  0  0
   36.2850   32.4730   35.7300 C   0  0  0  0  0  0  0  0  0  0  0  0
   35.9290   31.1700   35.6730 N   0  0  0  0  0  0  0  0  0  0  0  0
   35.3430   31.0620   32.3990 H   0  0  0  0  0  0  0  0  0  0  0  0
   35.9920   33.3900   32.5700 H   0  0  0  0  0  0  0  0  0  0  0  0
   36.5550   32.8620   36.7100 H   0  0  0  0  0  0  0  0  0  0  0  0
  2  7  2  0  0  0  0
  2  3  1  0  0  0  0
  3  4  2  0  0  0  0
  4  5  1  0  0  0  0
  4 10  1  0  0  0  0
  6  1  1  0  0  0  0
  6  5  2  0  0  0  0
  7  6  1  0  0  0  0
  8  2  1  0  0  0  0
  9  3  1  0  0  0  0
 10 11  2  0  0  0  0
 11 12  1  0  0  0  0
 11 13  1  0  0  0  0
 13 14  1  0  0  0  0
 15 16  1  0  0  0  0
 15 13  1  0  0  0  0
 17 10  1  0  0  0  0
 17 15  2  0  0  0  0
 18 21  1  0  0  0  0
 18  1  1  0  0  0  0
 19 18  1  0  0  0  0
 20 18  1  0  0  0  0
 21 24  1  0  0  0  0
 21 22  1  0  0  0  0
 23 21  1  0  0  0  0
 24 29  1  0  0  0  0
 25 26  1  0  0  0  0
 25 24  2  0  0  0  0
 26 27  2  0  0  0  0
 27 28  1  0  0  0  0
 28 32  1  0  0  0  0
 29 28  2  0  0  0  0
 30 25  1  0  0  0  0
 31 26  1  0  0  0  0
M  END
>  <minimizedAffinity>
-4.98180151

$$$$

 OpenBabel03272509513D

 32 34  0  0  0  0  0  0  0  0999 V2000
   37.1670   25.4460   32.5310 O   0  0  0  0  0  0  0  0  0  0  0  0
   37.9870   27.6540   35.2770 C   0  0  0  0  0  0  0  0  0  0  0  0
   38.3100   26.7030   36.2760 C   0  0  0  0  0  0  0  0  0  0  0  0
   38.2220   25.3530   35.9310 C   0  0  0  0  0  0  0  0  0  0  0  0
   37.8340   25.0430   34.6640 N   0  0  0  0  0  0  0  0  0  0  0  0
   37.5350   25.9790   33.7430 C   0  0  0  0  0  0  0  0  0  0  0  0
   37.6140   27.3010   34.0570 N   0  0  0  0  0  0  0  0  0  0  0  0
   38.0510   28.7040   35.5330 H   0  0  0  0  0  0  0  0  0  0  0  0
   38.6100   27.0410   37.2590 H   0  0  0  0  0  0  0  0  0  0  0  0
   38.5390   24.3440   36.9050 C   0  0  0  0  0  0  0  0  0  0  0  0
   39.3980   23.2850   36.7620 C   0  0  0  0  0  0  0  0  0  0  0  0
   39.9450   23.1040   35.8490 H   0  0  0  0  0  0  0  0  0  0  0  0
   39.3520   22.6300   37.9490 N   0  0  0  0  0  0  0  0  0  0  0  0
   39.9440   21.7630   38.0760 H   0  0  0  0  0  0  0  0  0  0  0  0
   38.4910   23.2720   38.7870 C   0  0  0  0  0  0  0  0  0  0  0  0
   38.3350   22.8770   39.7870 H   0  0  0  0  0  0  0  0  0  0  0  0
   37.9920   24.3340   38.1290 N   0  0  0  0  0  0  0  0  0  0  0  0
   37.4550   26.2120   31.3640 C   0  0  0  0  0  0  0  0  0  0  0  0
   38.2000   26.9700   31.6810 H   0  0  0  0  0  0  0  0  0  0  0  0
   37.8720   25.5960   30.5510 H   0  0  0  0  0  0  0  0  0  0  0  0
   36.2270   26.9660   30.9240 C   0  0  0  0  0  0  0  0  0  0  0  0
   35.4890   27.0710   31.7450 H   0  0  0  0  0  0  0  0  0  0  0  0
   35.7210   26.3420   30.1420 H   0  0  0  0  0  0  0  0  0  0  0  0
   36.5580   28.3060   30.3730 C   0  0  0  0  0  0  0  0  0  0  0  0
   36.0670   29.4020   31.0520 C   0  0  0  0  0  0  0  0  0  0  0  0
   36.3040   30.6910   30.6420 C   0  0  0  0  0  0  0  0  0  0  0  0
   37.0380   30.8920   29.5460 N   0  0  0  0  0  0  0  0  0  0  0  0
   37.5220   29.8210   28.8750 C   0  0  0  0  0  0  0  0  0  0  0  0
   37.2980   28.5460   29.2650 N   0  0  0  0  0  0  0  0  0  0  0  0
   35.4660   29.2690   31.9480 H   0  0  0  0  0  0  0  0  0  0  0  0
   35.9060   31.5290   31.1950 H   0  0  0  0  0  0  0  0  0  0  0  0
   38.1240   29.9570   27.9780 H   0  0  0  0  0  0  0  0  0  0  0  0
  1  6  1  0  0  0  0
  2  8  1  0  0  0  0
  2  3  1  0  0  0  0
  3  9  1  0  0  0  0
  4  3  2  0  0  0  0
  4 10  1  0  0  0  0
  5  4  1  0  0  0  0
  6  7  1  0  0  0  0
  6  5  2  0  0  0  0
  7  2  2  0  0  0  0
 10 17  1  0  0  0  0
 11 10  2  0  0  0  0
 11 13  1  0  0  0  0
 12 11  1  0  0  0  0
 13 14  1  0  0  0  0
 13 15  1  0  0  0  0
 15 16  1  0  0  0  0
 17 15  2  0  0  0  0
 18 19  1  0  0  0  0
 18  1  1  0  0  0  0
 20 18  1  0  0  0  0
 21 18  1  0  0  0  0
 21 22  1  0  0  0  0
 23 21  1  0  0  0  0
 24 21  1  0  0  0  0
 24 25  1  0  0  0  0
 25 30  1  0  0  0  0
 26 25  2  0  0  0  0
 26 31  1  0  0  0  0
 27 26  1  0  0  0  0
 28 29  1  0  0  0  0
 28 27  2  0  0  0  0
 29 24  2  0  0  0  0
 32 28  1  0  0  0  0
M  END
>  <minimizedAffinity>
-4.86245632

$$$$

 OpenBabel03272509513D

 32 34  0  0  0  0  0  0  0  0999 V2000
   37.0740   27.0420   33.5590 O   0  0  0  0  0  0  0  0  0  0  0  0
   35.2750   29.6780   31.8550 C   0  0  0  0  0  0  0  0  0  0  0  0
   34.9160   30.4910   32.9590 C   0  0  0  0  0  0  0  0  0  0  0  0
   35.3230   30.0700   34.2270 C   0  0  0  0  0  0  0  0  0  0  0  0
   36.0340   28.9130   34.3160 N   0  0  0  0  0  0  0  0  0  0  0  0
   36.3540   28.1690   33.2410 C   0  0  0  0  0  0  0  0  0  0  0  0
   35.9680   28.5600   31.9960 N   0  0  0  0  0  0  0  0  0  0  0  0
   34.9650   29.9940   30.8680 H   0  0  0  0  0  0  0  0  0  0  0  0
   34.3480   31.3960   32.7930 H   0  0  0  0  0  0  0  0  0  0  0  0
   34.9870   30.8560   35.3830 C   0  0  0  0  0  0  0  0  0  0  0  0
   35.8260   31.6380   36.1340 C   0  0  0  0  0  0  0  0  0  0  0  0
   36.8780   31.7380   35.9100 H   0  0  0  0  0  0  0  0  0  0  0  0
   35.0410   32.1670   37.1040 N   0  0  0  0  0  0  0  0  0  0  0  0
   35.4780   32.8160   37.8170 H   0  0  0  0  0  0  0  0  0  0  0  0
   33.7640   31.7200   36.9480 C   0  0  0  0  0  0  0  0  0  0  0  0
   33.0000   32.0500   37.6460 H   0  0  0  0  0  0  0  0  0  0  0  0
   33.7420   30.9070   35.8770 N   0  0  0  0  0  0  0  0  0  0  0  0
   38.4950   27.1520   33.5640 C   0  0  0  0  0  0  0  0  0  0  0  0
   38.8650   26.2600   33.0190 H   0  0  0  0  0  0  0  0  0  0  0  0
   38.8460   28.0690   33.0610 H   0  0  0  0  0  0  0  0  0  0  0  0
   39.0170   27.0500   34.9740 C   0  0  0  0  0  0  0  0  0  0  0  0
   38.4450   27.6920   35.6740 H   0  0  0  0  0  0  0  0  0  0  0  0
   40.0590   27.4630   34.9690 H   0  0  0  0  0  0  0  0  0  0  0  0
   39.0240   25.6490   35.4700 C   0  0  0  0  0  0  0  0  0  0  0  0
   38.1140   25.3280   36.4550 C   0  0  0  0  0  0  0  0  0  0  0  0
   38.0230   24.0680   36.9950 C   0  0  0  0  0  0  0  0  0  0  0  0
   38.8470   23.1180   36.5480 N   0  0  0  0  0  0  0  0  0  0  0  0
   39.7420   23.4270   35.5810 C   0  0  0  0  0  0  0  0  0  0  0  0
   39.8440   24.6610   35.0400 N   0  0  0  0  0  0  0  0  0  0  0  0
   37.4310   26.0820   36.8380 H   0  0  0  0  0  0  0  0  0  0  0  0
   37.3000   23.8470   37.7650 H   0  0  0  0  0  0  0  0  0  0  0  0
   40.4250   22.6700   35.2000 H   0  0  0  0  0  0  0  0  0  0  0  0
  1 18  1  0  0  0  0
  2  7  2  0  0  0  0
  2  3  1  0  0  0  0
  3  4  2  0  0  0  0
  4  5  1  0  0  0  0
  4 10  1  0  0  0  0
  6  1  1  0  0  0  0
  6  5  2  0  0  0  0
  7  6  1  0  0  0  0
  8  2  1  0  0  0  0
  9  3  1  0  0  0  0
 10 17  1  0  0  0  0
 10 11  2  0  0  0  0
 11 13  1  0  0  0  0
 12 11  1  0  0  0  0
 13 14  1  0  0  0  0
 15 13  1  0  0  0  0
 15 16  1  0  0  0  0
 17 15  2  0  0  0  0
 18 21  1  0  0  0  0
 19 18  1  0  0  0  0
 20 18  1  0  0  0  0
 21 24  1  0  0  0  0
 21 22  1  0  0  0  0
 23 21  1  0  0  0  0
 24 25  1  0  0  0  0
 25 30  1  0  0  0  0
 25 26  2  0  0  0  0
 26 31  1  0  0  0  0
 27 26  1  0  0  0  0
 28 27  2  0  0  0  0
 29 24  2  0  0  0  0
 29 28  1  0  0  0  0
 32 28  1  0  0  0  0
M  END
>  <minimizedAffinity>
-4.76066208

$$$$

 OpenBabel03272509513D

 32 34  0  0  0  0  0  0  0  0999 V2000
   40.0950   26.5930   34.7180 O   0  0  0  0  0  0  0  0  0  0  0  0
   36.7250   27.8830   34.4650 C   0  0  0  0  0  0  0  0  0  0  0  0
   36.6450   28.1040   33.0680 C   0  0  0  0  0  0  0  0  0  0  0  0
   37.7690   27.7900   32.3020 C   0  0  0  0  0  0  0  0  0  0  0  0
   38.8610   27.2950   32.9460 N   0  0  0  0  0  0  0  0  0  0  0  0
   38.8960   27.1000   34.2780 C   0  0  0  0  0  0  0  0  0  0  0  0
   37.8110   27.3990   35.0440 N   0  0  0  0  0  0  0  0  0  0  0  0
   35.8590   28.1230   35.0690 H   0  0  0  0  0  0  0  0  0  0  0  0
   35.7340   28.5020   32.6410 H   0  0  0  0  0  0  0  0  0  0  0  0
   37.7450   27.9940   30.8790 C   0  0  0  0  0  0  0  0  0  0  0  0
   36.6450   28.1610   30.0770 C   0  0  0  0  0  0  0  0  0  0  0  0
   35.6380   28.1530   30.4680 H   0  0  0  0  0  0  0  0  0  0  0  0
   37.1410   28.3140   28.8250 N   0  0  0  0  0  0  0  0  0  0  0  0
   36.4660   28.4600   28.0230 H   0  0  0  0  0  0  0  0  0  0  0  0
   38.5000   28.2420   28.8640 C   0  0  0  0  0  0  0  0  0  0  0  0
   39.0620   28.3460   27.9390 H   0  0  0  0  0  0  0  0  0  0  0  0
   38.8640   28.0430   30.1440 N   0  0  0  0  0  0  0  0  0  0  0  0
   40.4320   25.2670   34.3190 C   0  0  0  0  0  0  0  0  0  0  0  0
   40.6070   25.3210   33.2250 H   0  0  0  0  0  0  0  0  0  0  0  0
   41.3390   24.8950   34.8240 H   0  0  0  0  0  0  0  0  0  0  0  0
   39.2550   24.3490   34.5280 C   0  0  0  0  0  0  0  0  0  0  0  0
   39.3320   23.4310   33.9130 H   0  0  0  0  0  0  0  0  0  0  0  0
   38.3470   24.8890   34.1530 H   0  0  0  0  0  0  0  0  0  0  0  0
   39.0770   23.9820   35.9580 C   0  0  0  0  0  0  0  0  0  0  0  0
   40.0450   23.1780   36.5230 C   0  0  0  0  0  0  0  0  0  0  0  0
   39.9930   22.7700   37.8340 C   0  0  0  0  0  0  0  0  0  0  0  0
   38.9670   23.1680   38.5890 N   0  0  0  0  0  0  0  0  0  0  0  0
   38.0150   23.9580   38.0400 C   0  0  0  0  0  0  0  0  0  0  0  0
   38.0520   24.3670   36.7530 N   0  0  0  0  0  0  0  0  0  0  0  0
   40.8910   22.8380   35.9320 H   0  0  0  0  0  0  0  0  0  0  0  0
   40.7650   22.1400   38.2480 H   0  0  0  0  0  0  0  0  0  0  0  0
   37.1680   24.2960   38.6350 H   0  0  0  0  0  0  0  0  0  0  0  0
  2  7  1  0  0  0  0
  2  8  1  0  0  0  0
  3  2  2  0  0  0  0
  4  5  2  0  0  0  0
  4  3  1  0  0  0  0
  5  6  1  0  0  0  0
  6  1  1  0  0  0  0
  6  7  2  0  0  0  0
  9  3  1  0  0  0  0
 10  4  1  0  0  0  0
 11 12  1  0  0  0  0
 11 10  2  0  0  0  0
 13 15  1  0  0  0  0
 13 11  1  0  0  0  0
 14 13  1  0  0  0  0
 15 17  2  0  0  0  0
 16 15  1  0  0  0  0
 17 10  1  0  0  0  0
 18 21  1  0  0  0  0
 18  1  1  0  0  0  0
 18 20  1  0  0  0  0
 19 18  1  0  0  0  0
 21 24  1  0  0  0  0
 22 21  1  0  0  0  0
 23 21  1  0  0  0  0
 24 25  2  0  0  0  0
 24 29  1  0  0  0  0
 25 26  1  0  0  0  0
 26 31  1  0  0  0  0
 26 27  2  0  0  0  0
 28 27  1  0  0  0  0
 28 32  1  0  0  0  0
 29 28  2  0  0  0  0
 30 25  1  0  0  0  0
M  END
>  <minimizedAffinity>
-4.68745279

$$$$

 OpenBabel03272509513D

 32 34  0  0  0  0  0  0  0  0999 V2000
   36.4170   27.6370   34.6560 O   0  0  0  0  0  0  0  0  0  0  0  0
   39.0820   25.5870   33.3200 C   0  0  0  0  0  0  0  0  0  0  0  0
   39.3210   24.7340   34.4250 C   0  0  0  0  0  0  0  0  0  0  0  0
   38.5400   24.9260   35.5670 C   0  0  0  0  0  0  0  0  0  0  0  0
   37.6050   25.9150   35.5400 N   0  0  0  0  0  0  0  0  0  0  0  0
   37.4100   26.7050   34.4670 C   0  0  0  0  0  0  0  0  0  0  0  0
   38.1600   26.5360   33.3440 N   0  0  0  0  0  0  0  0  0  0  0  0
   39.6820   25.4480   32.4300 H   0  0  0  0  0  0  0  0  0  0  0  0
   40.0870   23.9730   34.3570 H   0  0  0  0  0  0  0  0  0  0  0  0
   38.7380   24.0890   36.7180 C   0  0  0  0  0  0  0  0  0  0  0  0
   39.5640   23.0000   36.8280 C   0  0  0  0  0  0  0  0  0  0  0  0
   40.1760   22.6530   36.0080 H   0  0  0  0  0  0  0  0  0  0  0  0
   39.3980   22.5580   38.0990 N   0  0  0  0  0  0  0  0  0  0  0  0
   39.9440   21.7100   38.4190 H   0  0  0  0  0  0  0  0  0  0  0  0
   38.4990   23.3530   38.7420 C   0  0  0  0  0  0  0  0  0  0  0  0
   38.2490   23.1370   39.7770 H   0  0  0  0  0  0  0  0  0  0  0  0
   38.0960   24.3000   37.8760 N   0  0  0  0  0  0  0  0  0  0  0  0
   36.2110   28.5930   33.6200 C   0  0  0  0  0  0  0  0  0  0  0  0
   37.2240   28.8970   33.2880 H   0  0  0  0  0  0  0  0  0  0  0  0
   35.6500   28.1730   32.7680 H   0  0  0  0  0  0  0  0  0  0  0  0
   35.5450   29.8250   34.1770 C   0  0  0  0  0  0  0  0  0  0  0  0
   35.8160   30.7360   33.6070 H   0  0  0  0  0  0  0  0  0  0  0  0
   35.9560   29.9810   35.2080 H   0  0  0  0  0  0  0  0  0  0  0  0
   34.0660   29.6890   34.2310 C   0  0  0  0  0  0  0  0  0  0  0  0
   33.4280   29.3160   33.0660 C   0  0  0  0  0  0  0  0  0  0  0  0
   32.0660   29.1580   32.9890 C   0  0  0  0  0  0  0  0  0  0  0  0
   31.3320   29.3700   34.0830 N   0  0  0  0  0  0  0  0  0  0  0  0
   31.9520   29.7350   35.2290 C   0  0  0  0  0  0  0  0  0  0  0  0
   33.2910   29.8950   35.3220 N   0  0  0  0  0  0  0  0  0  0  0  0
   34.0000   29.1370   32.1600 H   0  0  0  0  0  0  0  0  0  0  0  0
   31.5950   28.8660   32.0620 H   0  0  0  0  0  0  0  0  0  0  0  0
   31.3760   29.9140   36.1350 H   0  0  0  0  0  0  0  0  0  0  0  0
  2  7  2  0  0  0  0
  2  3  1  0  0  0  0
  3  4  2  0  0  0  0
  4 10  1  0  0  0  0
  5  4  1  0  0  0  0
  6  1  1  0  0  0  0
  6  5  2  0  0  0  0
  7  6  1  0  0  0  0
  8  2  1  0  0  0  0
  9  3  1  0  0  0  0
 10 11  2  0  0  0  0
 10 17  1  0  0  0  0
 11 13  1  0  0  0  0
 12 11  1  0  0  0  0
 13 14  1  0  0  0  0
 13 15  1  0  0  0  0
 15 16  1  0  0  0  0
 17 15  2  0  0  0  0
 18 21  1  0  0  0  0
 18  1  1  0  0  0  0
 19 18  1  0  0  0  0
 20 18  1  0  0  0  0
 21 24  1  0  0  0  0
 21 23  1  0  0  0  0
 22 21  1  0  0  0  0
 24 29  1  0  0  0  0
 25 24  2  0  0  0  0
 26 25  1  0  0  0  0
 26 27  2  0  0  0  0
 27 28  1  0  0  0  0
 28 29  2  0  0  0  0
 28 32  1  0  0  0  0
 30 25  1  0  0  0  0
 31 26  1  0  0  0  0
M  END
>  <minimizedAffinity>
-4.68554068

$$$$

 OpenBabel03272509513D

 32 34  0  0  0  0  0  0  0  0999 V2000
   37.9370   26.9940   33.5060 O   0  0  0  0  0  0  0  0  0  0  0  0
   35.4240   26.1750   31.0350 C   0  0  0  0  0  0  0  0  0  0  0  0
   35.4950   24.7600   31.0660 C   0  0  0  0  0  0  0  0  0  0  0  0
   36.4130   24.1800   31.9430 C   0  0  0  0  0  0  0  0  0  0  0  0
   37.1740   25.0090   32.7090 N   0  0  0  0  0  0  0  0  0  0  0  0
   37.0760   26.3510   32.6490 C   0  0  0  0  0  0  0  0  0  0  0  0
   36.1880   26.9380   31.8010 N   0  0  0  0  0  0  0  0  0  0  0  0
   34.7170   26.6350   30.3580 H   0  0  0  0  0  0  0  0  0  0  0  0
   34.8490   24.1790   30.4210 H   0  0  0  0  0  0  0  0  0  0  0  0
   36.5270   22.7490   32.0160 C   0  0  0  0  0  0  0  0  0  0  0  0
   37.3170   22.0150   32.8630 C   0  0  0  0  0  0  0  0  0  0  0  0
   37.9640   22.4770   33.5950 H   0  0  0  0  0  0  0  0  0  0  0  0
   37.0720   20.7210   32.5430 N   0  0  0  0  0  0  0  0  0  0  0  0
   37.5780   19.9590   33.0740 H   0  0  0  0  0  0  0  0  0  0  0  0
   36.1600   20.6690   31.5320 C   0  0  0  0  0  0  0  0  0  0  0  0
   35.8480   19.7010   31.1510 H   0  0  0  0  0  0  0  0  0  0  0  0
   35.8290   21.9330   31.2130 N   0  0  0  0  0  0  0  0  0  0  0  0
   37.4510   27.3100   34.8080 C   0  0  0  0  0  0  0  0  0  0  0  0
   37.3640   28.4150   34.8340 H   0  0  0  0  0  0  0  0  0  0  0  0
   36.4680   26.8530   35.0110 H   0  0  0  0  0  0  0  0  0  0  0  0
   38.4730   26.9270   35.8480 C   0  0  0  0  0  0  0  0  0  0  0  0
   38.1980   27.3010   36.8550 H   0  0  0  0  0  0  0  0  0  0  0  0
   39.4260   27.4530   35.5810 H   0  0  0  0  0  0  0  0  0  0  0  0
   38.6960   25.4590   35.9030 C   0  0  0  0  0  0  0  0  0  0  0  0
   37.7680   24.7080   36.5940 C   0  0  0  0  0  0  0  0  0  0  0  0
   37.8640   23.3440   36.7150 C   0  0  0  0  0  0  0  0  0  0  0  0
   38.8950   22.7200   36.1420 N   0  0  0  0  0  0  0  0  0  0  0  0
   39.8090   23.4510   35.4620 C   0  0  0  0  0  0  0  0  0  0  0  0
   39.7290   24.7930   35.3330 N   0  0  0  0  0  0  0  0  0  0  0  0
   36.9180   25.1900   37.0710 H   0  0  0  0  0  0  0  0  0  0  0  0
   37.1210   22.7840   37.2630 H   0  0  0  0  0  0  0  0  0  0  0  0
   40.6590   22.9650   34.9860 H   0  0  0  0  0  0  0  0  0  0  0  0
  1 18  1  0  0  0  0
  2  3  2  0  0  0  0
  2  7  1  0  0  0  0
  3  4  1  0  0  0  0
  4 10  1  0  0  0  0
  4  5  2  0  0  0  0
  6  5  1  0  0  0  0
  6  1  1  0  0  0  0
  7  6  2  0  0  0  0
  8  2  1  0  0  0  0
  9  3  1  0  0  0  0
 10 11  2  0  0  0  0
 11 12  1  0  0  0  0
 13 11  1  0  0  0  0
 13 14  1  0  0  0  0
 15 13  1  0  0  0  0
 16 15  1  0  0  0  0
 17 15  2  0  0  0  0
 17 10  1  0  0  0  0
 18 19  1  0  0  0  0
 18 20  1  0  0  0  0
 18 21  1  0  0  0  0
 21 24  1  0  0  0  0
 21 22  1  0  0  0  0
 23 21  1  0  0  0  0
 24 25  1  0  0  0  0
 25 26  2  0  0  0  0
 25 30  1  0  0  0  0
 26 31  1  0  0  0  0
 27 26  1  0  0  0  0
 28 27  2  0  0  0  0
 29 28  1  0  0  0  0
 29 24  2  0  0  0  0
 32 28  1  0  0  0  0
M  END
>  <minimizedAffinity>
-4.64844227

$$$$

 OpenBabel03272509513D

 32 34  0  0  0  0  0  0  0  0999 V2000
   36.5670   26.2020   32.4320 O   0  0  0  0  0  0  0  0  0  0  0  0
   37.8510   27.6640   35.4810 C   0  0  0  0  0  0  0  0  0  0  0  0
   38.3640   26.5070   36.1170 C   0  0  0  0  0  0  0  0  0  0  0  0
   38.2310   25.2900   35.4450 C   0  0  0  0  0  0  0  0  0  0  0  0
   37.6200   25.2980   34.2290 N   0  0  0  0  0  0  0  0  0  0  0  0
   37.1450   26.4220   33.6590 C   0  0  0  0  0  0  0  0  0  0  0  0
   37.2650   27.6190   34.2960 N   0  0  0  0  0  0  0  0  0  0  0  0
   37.9490   28.6130   35.9930 H   0  0  0  0  0  0  0  0  0  0  0  0
   38.8360   26.5950   37.0870 H   0  0  0  0  0  0  0  0  0  0  0  0
   38.7330   24.0830   36.0440 C   0  0  0  0  0  0  0  0  0  0  0  0
   38.5890   23.6720   37.3430 C   0  0  0  0  0  0  0  0  0  0  0  0
   38.0520   24.2540   38.0780 H   0  0  0  0  0  0  0  0  0  0  0  0
   39.2350   22.4820   37.4110 N   0  0  0  0  0  0  0  0  0  0  0  0
   39.2590   21.9650   38.3340 H   0  0  0  0  0  0  0  0  0  0  0  0
   39.7570   22.1800   36.1900 C   0  0  0  0  0  0  0  0  0  0  0  0
   40.3110   21.2530   36.0660 H   0  0  0  0  0  0  0  0  0  0  0  0
   39.4390   23.1810   35.3490 N   0  0  0  0  0  0  0  0  0  0  0  0
   37.0650   25.1130   31.6590 C   0  0  0  0  0  0  0  0  0  0  0  0
   37.4540   25.5640   30.7240 H   0  0  0  0  0  0  0  0  0  0  0  0
   37.8730   24.5680   32.1750 H   0  0  0  0  0  0  0  0  0  0  0  0
   35.9340   24.1990   31.2640 C   0  0  0  0  0  0  0  0  0  0  0  0
   35.8110   24.1430   30.1640 H   0  0  0  0  0  0  0  0  0  0  0  0
   34.9880   24.6610   31.6500 H   0  0  0  0  0  0  0  0  0  0  0  0
   36.0970   22.8300   31.8200 C   0  0  0  0  0  0  0  0  0  0  0  0
   37.3860   22.4030   32.0640 C   0  0  0  0  0  0  0  0  0  0  0  0
   37.6680   21.1600   32.5770 C   0  0  0  0  0  0  0  0  0  0  0  0
   36.6550   20.3340   32.8510 N   0  0  0  0  0  0  0  0  0  0  0  0
   35.3880   20.7480   32.6140 C   0  0  0  0  0  0  0  0  0  0  0  0
   35.0950   21.9670   32.1100 N   0  0  0  0  0  0  0  0  0  0  0  0
   38.2300   23.0530   31.8510 H   0  0  0  0  0  0  0  0  0  0  0  0
   38.6870   20.8540   32.7570 H   0  0  0  0  0  0  0  0  0  0  0  0
   34.5450   20.0940   32.8290 H   0  0  0  0  0  0  0  0  0  0  0  0
  1  6  1  0  0  0  0
  2  8  1  0  0  0  0
  2  3  1  0  0  0  0
  3  9  1  0  0  0  0
  4 10  1  0  0  0  0
  4  3  2  0  0  0  0
  5  4  1  0  0  0  0
  6  5  2  0  0  0  0
  6  7  1  0  0  0  0
  7  2  2  0  0  0  0
 10 11  2  0  0  0  0
 11 13  1  0  0  0  0
 11 12  1  0  0  0  0
 13 14  1  0  0  0  0
 15 13  1  0  0  0  0
 16 15  1  0  0  0  0
 17 10  1  0  0  0  0
 17 15  2  0  0  0  0
 18 20  1  0  0  0  0
 18  1  1  0  0  0  0
 19 18  1  0  0  0  0
 21 23  1  0  0  0  0
 21 18  1  0  0  0  0
 21 24  1  0  0  0  0
 22 21  1  0  0  0  0
 24 25  2  0  0  0  0
 24 29  1  0  0  0  0
 25 26  1  0  0  0  0
 26 31  1  0  0  0  0
 26 27  2  0  0  0  0
 28 32  1  0  0  0  0
 28 27  1  0  0  0  0
 29 28  2  0  0  0  0
 30 25  1  0  0  0  0
M  END
>  <minimizedAffinity>
-4.64032793

$$$$

 OpenBabel03272509513D

 32 34  0  0  0  0  0  0  0  0999 V2000
   36.8010   22.1450   32.3480 O   0  0  0  0  0  0  0  0  0  0  0  0
   40.3310   22.0020   33.1280 C   0  0  0  0  0  0  0  0  0  0  0  0
   40.2910   22.2680   34.5190 C   0  0  0  0  0  0  0  0  0  0  0  0
   39.0390   22.4810   35.0980 C   0  0  0  0  0  0  0  0  0  0  0  0
   37.9440   22.4170   34.2910 N   0  0  0  0  0  0  0  0  0  0  0  0
   38.0260   22.1620   32.9720 C   0  0  0  0  0  0  0  0  0  0  0  0
   39.2360   21.9520   32.3860 N   0  0  0  0  0  0  0  0  0  0  0  0
   41.2960   21.8360   32.6690 H   0  0  0  0  0  0  0  0  0  0  0  0
   41.2140   22.2990   35.0840 H   0  0  0  0  0  0  0  0  0  0  0  0
   38.9390   22.7550   36.5060 C   0  0  0  0  0  0  0  0  0  0  0  0
   39.8970   22.5580   37.4660 C   0  0  0  0  0  0  0  0  0  0  0  0
   40.8720   22.1540   37.2350 H   0  0  0  0  0  0  0  0  0  0  0  0
   39.3250   22.9660   38.6260 N   0  0  0  0  0  0  0  0  0  0  0  0
   39.8860   22.9060   39.5210 H   0  0  0  0  0  0  0  0  0  0  0  0
   38.0570   23.3970   38.3780 C   0  0  0  0  0  0  0  0  0  0  0  0
   37.4520   23.7620   39.2040 H   0  0  0  0  0  0  0  0  0  0  0  0
   37.8280   23.2620   37.0590 N   0  0  0  0  0  0  0  0  0  0  0  0
   36.6200   23.0190   31.2370 C   0  0  0  0  0  0  0  0  0  0  0  0
   37.5690   23.5850   31.1450 H   0  0  0  0  0  0  0  0  0  0  0  0
   36.4190   22.4710   30.3010 H   0  0  0  0  0  0  0  0  0  0  0  0
   35.5390   24.0250   31.5410 C   0  0  0  0  0  0  0  0  0  0  0  0
   34.9800   23.7660   32.4630 H   0  0  0  0  0  0  0  0  0  0  0  0
   34.7920   23.9660   30.7080 H   0  0  0  0  0  0  0  0  0  0  0  0
   36.0740   25.4070   31.6510 C   0  0  0  0  0  0  0  0  0  0  0  0
   36.9390   25.6640   32.6940 C   0  0  0  0  0  0  0  0  0  0  0  0
   37.4990   26.9010   32.9020 C   0  0  0  0  0  0  0  0  0  0  0  0
   37.1970   27.8920   32.0610 N   0  0  0  0  0  0  0  0  0  0  0  0
   36.3490   27.6460   31.0340 C   0  0  0  0  0  0  0  0  0  0  0  0
   35.7900   26.4350   30.8170 N   0  0  0  0  0  0  0  0  0  0  0  0
   37.2030   24.8760   33.3950 H   0  0  0  0  0  0  0  0  0  0  0  0
   38.1730   27.0710   33.7290 H   0  0  0  0  0  0  0  0  0  0  0  0
   36.0870   28.4370   30.3340 H   0  0  0  0  0  0  0  0  0  0  0  0
  1  6  1  0  0  0  0
  2  3  1  0  0  0  0
  3  9  1  0  0  0  0
  3  4  2  0  0  0  0
  4 10  1  0  0  0  0
  5  4  1  0  0  0  0
  6  5  2  0  0  0  0
  7  6  1  0  0  0  0
  7  2  2  0  0  0  0
  8  2  1  0  0  0  0
 10 17  1  0  0  0  0
 10 11  2  0  0  0  0
 11 13  1  0  0  0  0
 12 11  1  0  0  0  0
 13 14  1  0  0  0  0
 15 13  1  0  0  0  0
 15 16  1  0  0  0  0
 17 15  2  0  0  0  0
 18 21  1  0  0  0  0
 18  1  1  0  0  0  0
 19 18  1  0  0  0  0
 20 18  1  0  0  0  0
 21 24  1  0  0  0  0
 21 22  1  0  0  0  0
 23 21  1  0  0  0  0
 24 25  1  0  0  0  0
 25 26  2  0  0  0  0
 25 30  1  0  0  0  0
 26 31  1  0  0  0  0
 27 26  1  0  0  0  0
 28 27  2  0  0  0  0
 29 28  1  0  0  0  0
 29 24  2  0  0  0  0
 32 28  1  0  0  0  0
M  END
>  <minimizedAffinity>
-4.6335516

$$$$
