
 OpenBabel03272510323D

 27 29  0  0  0  0  0  0  0  0999 V2000
   35.9320   30.0400   47.8990 C   0  0  0  0  0  0  0  0  0  0  0  0
   35.1660   30.0240   46.7670 C   0  0  0  0  0  0  0  0  0  0  0  0
   34.1190   29.1340   46.6080 C   0  0  0  0  0  0  0  0  0  0  0  0
   33.8660   28.2500   47.6450 C   0  0  0  0  0  0  0  0  0  0  0  0
   34.6190   28.2400   48.7990 C   0  0  0  0  0  0  0  0  0  0  0  0
   35.6570   29.1440   48.9190 C   0  0  0  0  0  0  0  0  0  0  0  0
   35.3380   30.7050   45.9330 H   0  0  0  0  0  0  0  0  0  0  0  0
   33.4920   29.0960   45.7200 H   0  0  0  0  0  0  0  0  0  0  0  0
   33.0570   27.5140   47.5990 H   0  0  0  0  0  0  0  0  0  0  0  0
   34.4050   27.5450   49.5900 H   0  0  0  0  0  0  0  0  0  0  0  0
   37.9340   32.8390   49.0720 C   0  0  0  0  0  0  0  0  0  0  0  0
   39.0110   32.8920   48.1910 C   0  0  0  0  0  0  0  0  0  0  0  0
   39.0460   31.9340   47.1640 C   0  0  0  0  0  0  0  0  0  0  0  0
   38.0390   31.0370   47.1060 N   0  0  0  0  0  0  0  0  0  0  0  0
   37.0100   31.0120   47.9730 C   0  0  0  0  0  0  0  0  0  0  0  0
   36.9600   31.9240   48.9640 N   0  0  0  0  0  0  0  0  0  0  0  0
   37.9740   33.6090   49.8400 H   0  0  0  0  0  0  0  0  0  0  0  0
   39.8270   33.5820   48.2010 H   0  0  0  0  0  0  0  0  0  0  0  0
   39.8360   31.8760   46.4180 H   0  0  0  0  0  0  0  0  0  0  0  0
   36.4800   29.1750   50.1230 C   0  0  0  0  0  0  0  0  0  0  0  0
   35.9250   29.6370   51.3020 C   0  0  0  0  0  0  0  0  0  0  0  0
   34.9130   30.0100   51.5120 H   0  0  0  0  0  0  0  0  0  0  0  0
   36.8690   29.5720   52.2620 N   0  0  0  0  0  0  0  0  0  0  0  0
   36.7890   29.8400   53.2660 H   0  0  0  0  0  0  0  0  0  0  0  0
   38.0120   29.0740   51.7120 C   0  0  0  0  0  0  0  0  0  0  0  0
   38.9770   28.8850   52.1880 H   0  0  0  0  0  0  0  0  0  0  0  0
   37.7720   28.8350   50.4090 N   0  0  0  0  0  0  0  0  0  0  0  0
  1 15  1  0  0  0  0
  1  6  1  0  0  0  0
  2  1  2  0  0  0  0
  3  2  1  0  0  0  0
  3  4  2  0  0  0  0
  4  5  1  0  0  0  0
  5  6  2  0  0  0  0
  5 10  1  0  0  0  0
  6 20  1  0  0  0  0
  7  2  1  0  0  0  0
  8  3  1  0  0  0  0
  9  4  1  0  0  0  0
 11 17  1  0  0  0  0
 12 18  1  0  0  0  0
 12 11  2  0  0  0  0
 13 12  1  0  0  0  0
 14 13  2  0  0  0  0
 14 15  1  0  0  0  0
 15 16  2  0  0  0  0
 16 11  1  0  0  0  0
 19 13  1  0  0  0  0
 20 27  1  0  0  0  0
 20 21  2  0  0  0  0
 21 22  1  0  0  0  0
 21 23  1  0  0  0  0
 23 24  1  0  0  0  0
 25 26  1  0  0  0  0
 25 23  1  0  0  0  0
 27 25  2  0  0  0  0
M  END
>  <minimizedAffinity>
-4.76544333

>  <minimizedRMSD>
0.851270795

$$$$
