
 OpenBabel03272507063D

 38 42  0  0  0  0  0  0  0  0999 V2000
   38.1870   32.6180   49.3900 C   0  0  0  0  0  0  0  0  0  0  0  0
   38.8830   32.7850   48.1820 C   0  0  0  0  0  0  0  0  0  0  0  0
   38.4620   32.0170   47.0970 C   0  0  0  0  0  0  0  0  0  0  0  0
   37.4240   31.1630   47.2560 N   0  0  0  0  0  0  0  0  0  0  0  0
   36.7780   31.0270   48.4340 C   0  0  0  0  0  0  0  0  0  0  0  0
   37.1630   31.7560   49.4970 N   0  0  0  0  0  0  0  0  0  0  0  0
   38.5200   33.2210   50.2330 H   0  0  0  0  0  0  0  0  0  0  0  0
   39.7120   33.4600   48.0310 H   0  0  0  0  0  0  0  0  0  0  0  0
   35.6940   29.1090   49.5150 C   0  0  0  0  0  0  0  0  0  0  0  0
   35.6680   30.0840   48.5230 C   0  0  0  0  0  0  0  0  0  0  0  0
   34.6130   30.1520   47.6460 C   0  0  0  0  0  0  0  0  0  0  0  0
   33.5690   29.2660   47.7300 C   0  0  0  0  0  0  0  0  0  0  0  0
   32.4360   29.1070   47.0190 N   0  0  0  0  0  0  0  0  0  0  0  0
   31.8070   28.0510   47.5900 C   0  0  0  0  0  0  0  0  0  0  0  0
   32.5310   27.5670   48.6270 N   0  0  0  0  0  0  0  0  0  0  0  0
   33.6360   28.3190   48.7250 C   0  0  0  0  0  0  0  0  0  0  0  0
   34.6620   28.2010   49.6290 C   0  0  0  0  0  0  0  0  0  0  0  0
   36.5090   29.0210   50.2280 H   0  0  0  0  0  0  0  0  0  0  0  0
   34.5760   30.8970   46.8760 H   0  0  0  0  0  0  0  0  0  0  0  0
   32.0970   29.6660   46.2020 H   0  0  0  0  0  0  0  0  0  0  0  0
   30.8480   27.6930   47.2110 H   0  0  0  0  0  0  0  0  0  0  0  0
   34.6500   27.4270   50.3910 H   0  0  0  0  0  0  0  0  0  0  0  0
   39.0670   32.0640   45.7770 C   0  0  0  0  0  0  0  0  0  0  0  0
   39.4330   33.2350   45.1420 C   0  0  0  0  0  0  0  0  0  0  0  0
   40.0080   33.3140   43.8930 C   0  0  0  0  0  0  0  0  0  0  0  0
   40.2200   32.1510   43.2570 N   0  0  0  0  0  0  0  0  0  0  0  0
   39.8810   30.9940   43.8360 C   0  0  0  0  0  0  0  0  0  0  0  0
   39.3280   30.9580   45.0460 N   0  0  0  0  0  0  0  0  0  0  0  0
   39.2620   34.1830   45.6530 H   0  0  0  0  0  0  0  0  0  0  0  0
   40.2640   34.2730   43.4680 H   0  0  0  0  0  0  0  0  0  0  0  0
   40.1280   29.7420   43.1130 C   0  0  0  0  0  0  0  0  0  0  0  0
   41.1840   29.4660   42.2670 C   0  0  0  0  0  0  0  0  0  0  0  0
   42.0010   30.1120   41.9920 H   0  0  0  0  0  0  0  0  0  0  0  0
   41.0470   28.1920   41.7970 N   0  0  0  0  0  0  0  0  0  0  0  0
   41.6590   27.6460   41.1370 H   0  0  0  0  0  0  0  0  0  0  0  0
   39.9180   27.6800   42.3460 C   0  0  0  0  0  0  0  0  0  0  0  0
   39.5410   26.6700   42.1590 H   0  0  0  0  0  0  0  0  0  0  0  0
   39.3710   28.6260   43.1380 N   0  0  0  0  0  0  0  0  0  0  0  0
  1  6  1  0  0  0  0
  1  7  1  0  0  0  0
  2  1  2  0  0  0  0
  3  4  2  0  0  0  0
  3  2  1  0  0  0  0
  4  5  1  0  0  0  0
  5 10  1  0  0  0  0
  5  6  2  0  0  0  0
  8  2  1  0  0  0  0
  9 17  1  0  0  0  0
  9 18  1  0  0  0  0
 10  9  2  0  0  0  0
 11 12  2  0  0  0  0
 11 10  1  0  0  0  0
 12 16  1  0  0  0  0
 13 14  1  0  0  0  0
 13 12  1  0  0  0  0
 14 15  2  0  0  0  0
 15 16  1  0  0  0  0
 16 17  2  0  0  0  0
 17 22  1  0  0  0  0
 19 11  1  0  0  0  0
 20 13  1  0  0  0  0
 21 14  1  0  0  0  0
 23  3  1  0  0  0  0
 24 29  1  0  0  0  0
 24 23  1  0  0  0  0
 25 24  2  0  0  0  0
 26 27  2  0  0  0  0
 26 25  1  0  0  0  0
 27 28  1  0  0  0  0
 28 23  2  0  0  0  0
 30 25  1  0  0  0  0
 31 38  1  0  0  0  0
 31 27  1  0  0  0  0
 32 31  2  0  0  0  0
 33 32  1  0  0  0  0
 34 32  1  0  0  0  0
 34 36  1  0  0  0  0
 35 34  1  0  0  0  0
 36 38  2  0  0  0  0
 37 36  1  0  0  0  0
M  END
>  <minimizedAffinity>
-7.41100979

>  <minimizedRMSD>
1.41572094

$$$$
