
 OpenBabel03272502203D

 27 29  0  0  0  0  0  0  0  0999 V2000
   37.8730   31.9700   47.0750 C   0  0  0  0  0  0  0  0  0  0  0  0
   38.1390   31.8630   45.6940 C   0  0  0  0  0  0  0  0  0  0  0  0
   37.3760   30.9430   44.9630 C   0  0  0  0  0  0  0  0  0  0  0  0
   36.4290   30.2110   45.6200 N   0  0  0  0  0  0  0  0  0  0  0  0
   36.2120   30.3530   46.9560 C   0  0  0  0  0  0  0  0  0  0  0  0
   36.9320   31.2280   47.6740 N   0  0  0  0  0  0  0  0  0  0  0  0
   38.8850   32.4400   45.1780 H   0  0  0  0  0  0  0  0  0  0  0  0
   37.5070   30.7890   43.8930 H   0  0  0  0  0  0  0  0  0  0  0  0
   37.0670   29.5080   49.8530 Br  0  0  0  0  0  0  0  0  0  0  0  0
   35.4320   29.1230   48.9510 C   0  0  0  0  0  0  0  0  0  0  0  0
   35.1980   29.5700   47.6600 C   0  0  0  0  0  0  0  0  0  0  0  0
   33.9870   29.2540   47.0680 C   0  0  0  0  0  0  0  0  0  0  0  0
   33.0070   28.5140   47.7050 C   0  0  0  0  0  0  0  0  0  0  0  0
   33.2670   28.0830   48.9870 C   0  0  0  0  0  0  0  0  0  0  0  0
   34.4660   28.3890   49.5930 C   0  0  0  0  0  0  0  0  0  0  0  0
   33.8380   29.6240   46.0500 H   0  0  0  0  0  0  0  0  0  0  0  0
   32.0810   28.2770   47.2440 H   0  0  0  0  0  0  0  0  0  0  0  0
   32.5630   27.4970   49.5740 H   0  0  0  0  0  0  0  0  0  0  0  0
   34.6750   28.0470   50.6100 H   0  0  0  0  0  0  0  0  0  0  0  0
   38.6670   32.9280   47.8410 C   0  0  0  0  0  0  0  0  0  0  0  0
   39.6790   33.7090   47.3380 C   0  0  0  0  0  0  0  0  0  0  0  0
   40.0380   33.7390   46.3300 H   0  0  0  0  0  0  0  0  0  0  0  0
   40.1070   34.4230   48.4140 N   0  0  0  0  0  0  0  0  0  0  0  0
   40.9030   35.1150   48.2820 H   0  0  0  0  0  0  0  0  0  0  0  0
   39.4190   34.1210   49.5310 C   0  0  0  0  0  0  0  0  0  0  0  0
   39.6570   34.6190   50.4660 H   0  0  0  0  0  0  0  0  0  0  0  0
   38.5190   33.1830   49.1550 N   0  0  0  0  0  0  0  0  0  0  0  0
  1  6  1  0  0  0  0
  1 20  1  0  0  0  0
  2  1  2  0  0  0  0
  3  4  2  0  0  0  0
  3  2  1  0  0  0  0
  4  5  1  0  0  0  0
  5 11  1  0  0  0  0
  5  6  2  0  0  0  0
  7  2  1  0  0  0  0
  8  3  1  0  0  0  0
 10 15  1  0  0  0  0
 10  9  1  0  0  0  0
 11 10  2  0  0  0  0
 12 11  1  0  0  0  0
 12 13  2  0  0  0  0
 13 14  1  0  0  0  0
 14 18  1  0  0  0  0
 14 15  2  0  0  0  0
 15 19  1  0  0  0  0
 16 12  1  0  0  0  0
 17 13  1  0  0  0  0
 20 27  1  0  0  0  0
 21 20  2  0  0  0  0
 21 23  1  0  0  0  0
 22 21  1  0  0  0  0
 23 25  1  0  0  0  0
 24 23  1  0  0  0  0
 25 26  1  0  0  0  0
 27 25  2  0  0  0  0
M  END
>  <minimizedAffinity>
-5.10633373

>  <minimizedRMSD>
2.47514462

$$$$
