
 OpenBabel03272502123D

 25 27  0  0  0  0  0  0  0  0999 V2000
   38.1970   25.5030   33.4310 C   0  0  0  0  0  0  0  0  0  0  0  0
   39.0070   26.6150   33.4370 C   0  0  0  0  0  0  0  0  0  0  0  0
   40.0980   26.7840   34.2960 C   0  0  0  0  0  0  0  0  0  0  0  0
   40.3580   25.7780   35.1670 N   0  0  0  0  0  0  0  0  0  0  0  0
   39.5650   24.6810   35.1650 C   0  0  0  0  0  0  0  0  0  0  0  0
   38.5340   24.5670   34.3250 N   0  0  0  0  0  0  0  0  0  0  0  0
   38.8400   27.4410   32.7630 H   0  0  0  0  0  0  0  0  0  0  0  0
   40.7050   27.6650   34.2720 H   0  0  0  0  0  0  0  0  0  0  0  0
   36.5770   24.1470   32.0790 C   0  0  0  0  0  0  0  0  0  0  0  0
   37.0880   25.3600   32.5380 C   0  0  0  0  0  0  0  0  0  0  0  0
   36.4540   26.5160   32.0830 C   0  0  0  0  0  0  0  0  0  0  0  0
   35.3990   26.4070   31.2350 N   0  0  0  0  0  0  0  0  0  0  0  0
   34.9360   25.1910   30.8140 C   0  0  0  0  0  0  0  0  0  0  0  0
   35.5350   24.0630   31.2440 N   0  0  0  0  0  0  0  0  0  0  0  0
   37.0640   23.2330   32.4280 H   0  0  0  0  0  0  0  0  0  0  0  0
   36.8150   27.4830   32.4120 H   0  0  0  0  0  0  0  0  0  0  0  0
   34.0990   25.3200   30.1530 H   0  0  0  0  0  0  0  0  0  0  0  0
   39.9120   23.6430   36.1340 C   0  0  0  0  0  0  0  0  0  0  0  0
   39.1020   23.4050   37.2280 C   0  0  0  0  0  0  0  0  0  0  0  0
   38.1800   23.8840   37.5280 H   0  0  0  0  0  0  0  0  0  0  0  0
   39.6430   22.4050   37.9600 N   0  0  0  0  0  0  0  0  0  0  0  0
   39.2550   21.9930   38.8590 H   0  0  0  0  0  0  0  0  0  0  0  0
   40.7870   22.0110   37.3350 C   0  0  0  0  0  0  0  0  0  0  0  0
   41.4290   21.2330   37.6860 H   0  0  0  0  0  0  0  0  0  0  0  0
   40.9430   22.7750   36.2180 N   0  0  0  0  0  0  0  0  0  0  0  0
  1  2  2  0  0  0  0
  1  6  1  0  0  0  0
  2  3  1  0  0  0  0
  3  4  2  0  0  0  0
  5  4  1  0  0  0  0
  5 18  1  0  0  0  0
  6  5  2  0  0  0  0
  7  2  1  0  0  0  0
  8  3  1  0  0  0  0
  9 15  1  0  0  0  0
  9 10  1  0  0  0  0
 10  1  1  0  0  0  0
 11 16  1  0  0  0  0
 11 10  2  0  0  0  0
 12 11  1  0  0  0  0
 13 12  2  0  0  0  0
 13 14  1  0  0  0  0
 14  9  2  0  0  0  0
 17 13  1  0  0  0  0
 18 25  1  0  0  0  0
 18 19  2  0  0  0  0
 19 20  1  0  0  0  0
 19 21  1  0  0  0  0
 21 22  1  0  0  0  0
 23 24  1  0  0  0  0
 23 21  1  0  0  0  0
 25 23  2  0  0  0  0
M  END
>  <minimizedAffinity>
-4.79857922

$$$$

 OpenBabel03272502123D

 25 27  0  0  0  0  0  0  0  0999 V2000
   37.4440   26.0240   33.7690 C   0  0  0  0  0  0  0  0  0  0  0  0
   37.7570   25.1400   32.7620 C   0  0  0  0  0  0  0  0  0  0  0  0
   38.3070   23.8720   32.9760 C   0  0  0  0  0  0  0  0  0  0  0  0
   38.5380   23.5100   34.2620 N   0  0  0  0  0  0  0  0  0  0  0  0
   38.2330   24.3750   35.2570 C   0  0  0  0  0  0  0  0  0  0  0  0
   37.7090   25.5760   35.0020 N   0  0  0  0  0  0  0  0  0  0  0  0
   37.5910   25.3830   31.7240 H   0  0  0  0  0  0  0  0  0  0  0  0
   38.5370   23.2120   32.1660 H   0  0  0  0  0  0  0  0  0  0  0  0
   36.3790   28.1770   34.4910 C   0  0  0  0  0  0  0  0  0  0  0  0
   36.8820   27.3150   33.5170 C   0  0  0  0  0  0  0  0  0  0  0  0
   36.8260   27.7640   32.1980 C   0  0  0  0  0  0  0  0  0  0  0  0
   36.2960   28.9860   31.9330 N   0  0  0  0  0  0  0  0  0  0  0  0
   35.8150   29.7940   32.9260 C   0  0  0  0  0  0  0  0  0  0  0  0
   35.8620   29.3770   34.2060 N   0  0  0  0  0  0  0  0  0  0  0  0
   36.4170   27.8370   35.5290 H   0  0  0  0  0  0  0  0  0  0  0  0
   37.2040   27.1300   31.4060 H   0  0  0  0  0  0  0  0  0  0  0  0
   35.4430   30.7120   32.5120 H   0  0  0  0  0  0  0  0  0  0  0  0
   38.5130   23.9100   36.6140 C   0  0  0  0  0  0  0  0  0  0  0  0
   39.4910   22.9620   36.8440 C   0  0  0  0  0  0  0  0  0  0  0  0
   40.1470   22.4560   36.1470 H   0  0  0  0  0  0  0  0  0  0  0  0
   39.5480   22.7080   38.1710 N   0  0  0  0  0  0  0  0  0  0  0  0
   40.2000   22.0260   38.6610 H   0  0  0  0  0  0  0  0  0  0  0  0
   38.6130   23.4880   38.7790 C   0  0  0  0  0  0  0  0  0  0  0  0
   38.4300   23.5010   39.8310 H   0  0  0  0  0  0  0  0  0  0  0  0
   37.9840   24.2210   37.8180 N   0  0  0  0  0  0  0  0  0  0  0  0
  1  6  1  0  0  0  0
  2  3  1  0  0  0  0
  2  1  2  0  0  0  0
  3  4  2  0  0  0  0
  4  5  1  0  0  0  0
  5 18  1  0  0  0  0
  6  5  2  0  0  0  0
  7  2  1  0  0  0  0
  8  3  1  0  0  0  0
  9 15  1  0  0  0  0
 10  1  1  0  0  0  0
 10  9  2  0  0  0  0
 11 10  1  0  0  0  0
 12 11  2  0  0  0  0
 12 13  1  0  0  0  0
 13 14  2  0  0  0  0
 14  9  1  0  0  0  0
 16 11  1  0  0  0  0
 17 13  1  0  0  0  0
 18 19  2  0  0  0  0
 18 25  1  0  0  0  0
 19 21  1  0  0  0  0
 20 19  1  0  0  0  0
 21 22  1  0  0  0  0
 21 23  1  0  0  0  0
 23 24  1  0  0  0  0
 25 23  2  0  0  0  0
M  END
>  <minimizedAffinity>
-4.77610683

$$$$

 OpenBabel03272502123D

 25 27  0  0  0  0  0  0  0  0999 V2000
   38.5690   25.3110   35.4200 C   0  0  0  0  0  0  0  0  0  0  0  0
   38.5070   26.5960   35.9060 C   0  0  0  0  0  0  0  0  0  0  0  0
   37.8120   27.6370   35.2800 C   0  0  0  0  0  0  0  0  0  0  0  0
   37.1670   27.3390   34.1260 N   0  0  0  0  0  0  0  0  0  0  0  0
   37.2240   26.0760   33.6430 C   0  0  0  0  0  0  0  0  0  0  0  0
   37.9020   25.1160   34.2770 N   0  0  0  0  0  0  0  0  0  0  0  0
   39.0040   26.8810   36.8210 H   0  0  0  0  0  0  0  0  0  0  0  0
   37.7860   28.6250   35.6890 H   0  0  0  0  0  0  0  0  0  0  0  0
   38.8790   23.6270   37.2530 C   0  0  0  0  0  0  0  0  0  0  0  0
   39.2900   24.2680   36.0850 C   0  0  0  0  0  0  0  0  0  0  0  0
   40.4990   23.8470   35.5350 C   0  0  0  0  0  0  0  0  0  0  0  0
   41.2020   22.8590   36.1490 N   0  0  0  0  0  0  0  0  0  0  0  0
   40.7540   22.2620   37.2940 C   0  0  0  0  0  0  0  0  0  0  0  0
   39.5870   22.6550   37.8400 N   0  0  0  0  0  0  0  0  0  0  0  0
   37.9320   23.9470   37.6950 H   0  0  0  0  0  0  0  0  0  0  0  0
   40.8610   24.3160   34.6280 H   0  0  0  0  0  0  0  0  0  0  0  0
   41.4490   21.5090   37.6180 H   0  0  0  0  0  0  0  0  0  0  0  0
   36.5030   25.8370   32.3940 C   0  0  0  0  0  0  0  0  0  0  0  0
   36.3460   26.8510   31.4690 C   0  0  0  0  0  0  0  0  0  0  0  0
   36.6880   27.8770   31.4970 H   0  0  0  0  0  0  0  0  0  0  0  0
   35.6490   26.3730   30.4140 N   0  0  0  0  0  0  0  0  0  0  0  0
   35.3680   26.9100   29.5410 H   0  0  0  0  0  0  0  0  0  0  0  0
   35.3640   25.0660   30.6680 C   0  0  0  0  0  0  0  0  0  0  0  0
   34.8190   24.4280   30.0070 H   0  0  0  0  0  0  0  0  0  0  0  0
   35.8910   24.7470   31.8830 N   0  0  0  0  0  0  0  0  0  0  0  0
  1  2  1  0  0  0  0
  1 10  1  0  0  0  0
  2  7  1  0  0  0  0
  3  8  1  0  0  0  0
  3  2  2  0  0  0  0
  4  3  1  0  0  0  0
  5  4  2  0  0  0  0
  5  6  1  0  0  0  0
  6  1  2  0  0  0  0
  9 15  1  0  0  0  0
  9 14  1  0  0  0  0
 10  9  2  0  0  0  0
 11 10  1  0  0  0  0
 11 12  2  0  0  0  0
 12 13  1  0  0  0  0
 13 17  1  0  0  0  0
 13 14  2  0  0  0  0
 16 11  1  0  0  0  0
 18  5  1  0  0  0  0
 19 20  1  0  0  0  0
 19 18  2  0  0  0  0
 21 23  1  0  0  0  0
 21 19  1  0  0  0  0
 22 21  1  0  0  0  0
 23 25  2  0  0  0  0
 24 23  1  0  0  0  0
 25 18  1  0  0  0  0
M  END
>  <minimizedAffinity>
-4.71316147

$$$$

 OpenBabel03272502123D

 25 27  0  0  0  0  0  0  0  0999 V2000
   37.5960   24.3640   33.0790 C   0  0  0  0  0  0  0  0  0  0  0  0
   37.5920   23.1390   32.4530 C   0  0  0  0  0  0  0  0  0  0  0  0
   37.8930   21.9320   33.0920 C   0  0  0  0  0  0  0  0  0  0  0  0
   38.2030   21.9940   34.4110 N   0  0  0  0  0  0  0  0  0  0  0  0
   38.2080   23.1960   35.0330 C   0  0  0  0  0  0  0  0  0  0  0  0
   37.9150   24.3220   34.3780 N   0  0  0  0  0  0  0  0  0  0  0  0
   37.3520   23.0390   31.4060 H   0  0  0  0  0  0  0  0  0  0  0  0
   37.8790   20.9970   32.5710 H   0  0  0  0  0  0  0  0  0  0  0  0
   38.0040   26.7710   32.5040 C   0  0  0  0  0  0  0  0  0  0  0  0
   37.2840   25.5820   32.3960 C   0  0  0  0  0  0  0  0  0  0  0  0
   36.1770   25.5990   31.5490 C   0  0  0  0  0  0  0  0  0  0  0  0
   35.8600   26.7430   30.8900 N   0  0  0  0  0  0  0  0  0  0  0  0
   36.6000   27.8840   31.0310 C   0  0  0  0  0  0  0  0  0  0  0  0
   37.6750   27.8860   31.8440 N   0  0  0  0  0  0  0  0  0  0  0  0
   38.8750   26.7710   33.1650 H   0  0  0  0  0  0  0  0  0  0  0  0
   35.5850   24.6990   31.4330 H   0  0  0  0  0  0  0  0  0  0  0  0
   36.1880   28.6720   30.4280 H   0  0  0  0  0  0  0  0  0  0  0  0
   38.5530   23.1770   36.4530 C   0  0  0  0  0  0  0  0  0  0  0  0
   39.6830   22.5140   36.8930 C   0  0  0  0  0  0  0  0  0  0  0  0
   40.4250   21.9600   36.3340 H   0  0  0  0  0  0  0  0  0  0  0  0
   39.7710   22.6490   38.2350 N   0  0  0  0  0  0  0  0  0  0  0  0
   40.5300   22.2520   38.8660 H   0  0  0  0  0  0  0  0  0  0  0  0
   38.7060   23.3910   38.6450 C   0  0  0  0  0  0  0  0  0  0  0  0
   38.5130   23.6590   39.6600 H   0  0  0  0  0  0  0  0  0  0  0  0
   37.9660   23.7100   37.5460 N   0  0  0  0  0  0  0  0  0  0  0  0
  1  6  1  0  0  0  0
  2  1  2  0  0  0  0
  2  3  1  0  0  0  0
  3  4  2  0  0  0  0
  4  5  1  0  0  0  0
  5 18  1  0  0  0  0
  6  5  2  0  0  0  0
  7  2  1  0  0  0  0
  8  3  1  0  0  0  0
  9 15  1  0  0  0  0
 10  9  1  0  0  0  0
 10  1  1  0  0  0  0
 11 10  2  0  0  0  0
 12 13  2  0  0  0  0
 12 11  1  0  0  0  0
 13 14  1  0  0  0  0
 14  9  2  0  0  0  0
 16 11  1  0  0  0  0
 17 13  1  0  0  0  0
 18 19  2  0  0  0  0
 18 25  1  0  0  0  0
 19 21  1  0  0  0  0
 20 19  1  0  0  0  0
 21 23  1  0  0  0  0
 21 22  1  0  0  0  0
 23 24  1  0  0  0  0
 25 23  2  0  0  0  0
M  END
>  <minimizedAffinity>
-4.7101469

$$$$

 OpenBabel03272502123D

 25 27  0  0  0  0  0  0  0  0999 V2000
   39.0820   24.5100   34.6720 C   0  0  0  0  0  0  0  0  0  0  0  0
   40.2780   24.7310   34.0280 C   0  0  0  0  0  0  0  0  0  0  0  0
   40.3860   25.1290   32.6910 C   0  0  0  0  0  0  0  0  0  0  0  0
   39.2290   25.3030   32.0060 N   0  0  0  0  0  0  0  0  0  0  0  0
   38.0490   25.0880   32.6330 C   0  0  0  0  0  0  0  0  0  0  0  0
   37.9990   24.7080   33.9120 N   0  0  0  0  0  0  0  0  0  0  0  0
   41.2240   24.6060   34.5320 H   0  0  0  0  0  0  0  0  0  0  0  0
   41.3350   25.2920   32.2240 H   0  0  0  0  0  0  0  0  0  0  0  0
   39.8470   23.1720   36.6500 C   0  0  0  0  0  0  0  0  0  0  0  0
   39.0060   24.1030   36.0410 C   0  0  0  0  0  0  0  0  0  0  0  0
   38.0220   24.6730   36.8460 C   0  0  0  0  0  0  0  0  0  0  0  0
   37.9290   24.3030   38.1490 N   0  0  0  0  0  0  0  0  0  0  0  0
   38.7790   23.3830   38.6990 C   0  0  0  0  0  0  0  0  0  0  0  0
   39.7380   22.8220   37.9360 N   0  0  0  0  0  0  0  0  0  0  0  0
   40.6230   22.7170   36.0300 H   0  0  0  0  0  0  0  0  0  0  0  0
   37.3440   25.4020   36.4180 H   0  0  0  0  0  0  0  0  0  0  0  0
   38.5430   23.2300   39.7350 H   0  0  0  0  0  0  0  0  0  0  0  0
   36.8500   25.2970   31.8250 C   0  0  0  0  0  0  0  0  0  0  0  0
   36.7290   26.4160   31.0230 C   0  0  0  0  0  0  0  0  0  0  0  0
   37.4170   27.2370   30.8680 H   0  0  0  0  0  0  0  0  0  0  0  0
   35.5370   26.3690   30.3880 N   0  0  0  0  0  0  0  0  0  0  0  0
   35.1530   27.0850   29.7020 H   0  0  0  0  0  0  0  0  0  0  0  0
   34.9050   25.2300   30.7830 C   0  0  0  0  0  0  0  0  0  0  0  0
   33.9400   24.9270   30.4420 H   0  0  0  0  0  0  0  0  0  0  0  0
   35.7170   24.5800   31.6630 N   0  0  0  0  0  0  0  0  0  0  0  0
  1 10  1  0  0  0  0
  2  7  1  0  0  0  0
  2  1  1  0  0  0  0
  3  2  2  0  0  0  0
  4  5  2  0  0  0  0
  4  3  1  0  0  0  0
  5  6  1  0  0  0  0
  6  1  2  0  0  0  0
  8  3  1  0  0  0  0
  9 14  1  0  0  0  0
 10  9  2  0  0  0  0
 10 11  1  0  0  0  0
 11 12  2  0  0  0  0
 12 13  1  0  0  0  0
 13 17  1  0  0  0  0
 14 13  2  0  0  0  0
 15  9  1  0  0  0  0
 16 11  1  0  0  0  0
 18  5  1  0  0  0  0
 19 18  2  0  0  0  0
 20 19  1  0  0  0  0
 21 23  1  0  0  0  0
 21 19  1  0  0  0  0
 22 21  1  0  0  0  0
 23 25  2  0  0  0  0
 24 23  1  0  0  0  0
 25 18  1  0  0  0  0
M  END
>  <minimizedAffinity>
-4.68587208

$$$$

 OpenBabel03272502123D

 25 27  0  0  0  0  0  0  0  0999 V2000
   36.2730   23.8430   31.7850 C   0  0  0  0  0  0  0  0  0  0  0  0
   35.5890   24.7130   30.9670 C   0  0  0  0  0  0  0  0  0  0  0  0
   35.6080   26.1040   31.1140 C   0  0  0  0  0  0  0  0  0  0  0  0
   36.3520   26.6060   32.1300 N   0  0  0  0  0  0  0  0  0  0  0  0
   37.0280   25.7550   32.9380 C   0  0  0  0  0  0  0  0  0  0  0  0
   36.9780   24.4330   32.7570 N   0  0  0  0  0  0  0  0  0  0  0  0
   34.9840   24.3610   30.1460 H   0  0  0  0  0  0  0  0  0  0  0  0
   35.0620   26.7490   30.4580 H   0  0  0  0  0  0  0  0  0  0  0  0
   37.1860   21.6730   30.9220 C   0  0  0  0  0  0  0  0  0  0  0  0
   36.2330   22.4240   31.6080 C   0  0  0  0  0  0  0  0  0  0  0  0
   35.1630   21.7200   32.1590 C   0  0  0  0  0  0  0  0  0  0  0  0
   35.1030   20.3720   32.0040 N   0  0  0  0  0  0  0  0  0  0  0  0
   36.0650   19.6810   31.3210 C   0  0  0  0  0  0  0  0  0  0  0  0
   37.1070   20.3450   30.7820 N   0  0  0  0  0  0  0  0  0  0  0  0
   38.0300   22.2120   30.4840 H   0  0  0  0  0  0  0  0  0  0  0  0
   34.3960   22.2590   32.7010 H   0  0  0  0  0  0  0  0  0  0  0  0
   35.8350   18.6320   31.3120 H   0  0  0  0  0  0  0  0  0  0  0  0
   37.8060   26.3750   34.0080 C   0  0  0  0  0  0  0  0  0  0  0  0
   37.2030   27.2310   34.9100 C   0  0  0  0  0  0  0  0  0  0  0  0
   36.1730   27.5560   34.9780 H   0  0  0  0  0  0  0  0  0  0  0  0
   38.1350   27.6630   35.7890 N   0  0  0  0  0  0  0  0  0  0  0  0
   37.9810   28.3310   36.6020 H   0  0  0  0  0  0  0  0  0  0  0  0
   39.3200   27.0870   35.4490 C   0  0  0  0  0  0  0  0  0  0  0  0
   40.2390   27.2450   35.9690 H   0  0  0  0  0  0  0  0  0  0  0  0
   39.1090   26.2990   34.3570 N   0  0  0  0  0  0  0  0  0  0  0  0
  1  6  1  0  0  0  0
  2  3  1  0  0  0  0
  2  1  2  0  0  0  0
  3  4  2  0  0  0  0
  4  5  1  0  0  0  0
  5 18  1  0  0  0  0
  6  5  2  0  0  0  0
  7  2  1  0  0  0  0
  8  3  1  0  0  0  0
  9 10  1  0  0  0  0
 10  1  1  0  0  0  0
 10 11  2  0  0  0  0
 11 16  1  0  0  0  0
 12 11  1  0  0  0  0
 13 12  2  0  0  0  0
 14  9  2  0  0  0  0
 14 13  1  0  0  0  0
 15  9  1  0  0  0  0
 17 13  1  0  0  0  0
 18 25  1  0  0  0  0
 18 19  2  0  0  0  0
 19 20  1  0  0  0  0
 19 21  1  0  0  0  0
 21 22  1  0  0  0  0
 23 21  1  0  0  0  0
 23 24  1  0  0  0  0
 25 23  2  0  0  0  0
M  END
>  <minimizedAffinity>
-4.64238691

$$$$

 OpenBabel03272502123D

 25 27  0  0  0  0  0  0  0  0999 V2000
   37.4340   22.7100   32.9670 C   0  0  0  0  0  0  0  0  0  0  0  0
   37.5230   24.0010   32.5010 C   0  0  0  0  0  0  0  0  0  0  0  0
   37.9240   25.0900   33.2830 C   0  0  0  0  0  0  0  0  0  0  0  0
   38.2410   24.8350   34.5760 N   0  0  0  0  0  0  0  0  0  0  0  0
   38.1550   23.5660   35.0400 C   0  0  0  0  0  0  0  0  0  0  0  0
   37.7660   22.5600   34.2540 N   0  0  0  0  0  0  0  0  0  0  0  0
   37.2810   24.2530   31.4800 H   0  0  0  0  0  0  0  0  0  0  0  0
   37.9810   26.0810   32.8850 H   0  0  0  0  0  0  0  0  0  0  0  0
   35.8770   20.8440   32.3440 C   0  0  0  0  0  0  0  0  0  0  0  0
   37.0190   21.6180   32.1400 C   0  0  0  0  0  0  0  0  0  0  0  0
   37.8070   21.2880   31.0380 C   0  0  0  0  0  0  0  0  0  0  0  0
   37.4350   20.2550   30.2390 N   0  0  0  0  0  0  0  0  0  0  0  0
   36.3040   19.5270   30.4820 C   0  0  0  0  0  0  0  0  0  0  0  0
   35.5290   19.8320   31.5420 N   0  0  0  0  0  0  0  0  0  0  0  0
   35.2510   21.0920   33.2040 H   0  0  0  0  0  0  0  0  0  0  0  0
   38.7050   21.8600   30.8380 H   0  0  0  0  0  0  0  0  0  0  0  0
   36.1870   18.7600   29.7390 H   0  0  0  0  0  0  0  0  0  0  0  0
   38.5130   23.3760   36.4440 C   0  0  0  0  0  0  0  0  0  0  0  0
   39.6050   22.6030   36.7930 C   0  0  0  0  0  0  0  0  0  0  0  0
   40.3060   22.0680   36.1660 H   0  0  0  0  0  0  0  0  0  0  0  0
   39.7160   22.5890   38.1400 N   0  0  0  0  0  0  0  0  0  0  0  0
   40.4550   22.0830   38.7120 H   0  0  0  0  0  0  0  0  0  0  0  0
   38.7020   23.3450   38.6440 C   0  0  0  0  0  0  0  0  0  0  0  0
   38.5370   23.5160   39.6850 H   0  0  0  0  0  0  0  0  0  0  0  0
   37.9710   23.8230   37.5980 N   0  0  0  0  0  0  0  0  0  0  0  0
  1  6  1  0  0  0  0
  2  1  2  0  0  0  0
  2  3  1  0  0  0  0
  3  4  2  0  0  0  0
  4  5  1  0  0  0  0
  5 18  1  0  0  0  0
  6  5  2  0  0  0  0
  7  2  1  0  0  0  0
  8  3  1  0  0  0  0
  9 15  1  0  0  0  0
 10  9  1  0  0  0  0
 10  1  1  0  0  0  0
 11 10  2  0  0  0  0
 12 13  2  0  0  0  0
 12 11  1  0  0  0  0
 13 14  1  0  0  0  0
 14  9  2  0  0  0  0
 16 11  1  0  0  0  0
 17 13  1  0  0  0  0
 18 19  2  0  0  0  0
 18 25  1  0  0  0  0
 19 21  1  0  0  0  0
 20 19  1  0  0  0  0
 21 23  1  0  0  0  0
 21 22  1  0  0  0  0
 23 24  1  0  0  0  0
 25 23  2  0  0  0  0
M  END
>  <minimizedAffinity>
-4.59586382

$$$$

 OpenBabel03272502123D

 25 27  0  0  0  0  0  0  0  0999 V2000
   36.0850   28.8160   32.6420 C   0  0  0  0  0  0  0  0  0  0  0  0
   36.3690   29.7750   31.6960 C   0  0  0  0  0  0  0  0  0  0  0  0
   36.1770   31.1470   31.8900 C   0  0  0  0  0  0  0  0  0  0  0  0
   35.6800   31.5350   33.0910 N   0  0  0  0  0  0  0  0  0  0  0  0
   35.4000   30.5970   34.0250 C   0  0  0  0  0  0  0  0  0  0  0  0
   35.6000   29.2980   33.7920 N   0  0  0  0  0  0  0  0  0  0  0  0
   36.7650   29.5150   30.7270 H   0  0  0  0  0  0  0  0  0  0  0  0
   36.4090   31.8630   31.1300 H   0  0  0  0  0  0  0  0  0  0  0  0
   35.8150   26.7070   31.3130 C   0  0  0  0  0  0  0  0  0  0  0  0
   36.2930   27.4200   32.4110 C   0  0  0  0  0  0  0  0  0  0  0  0
   37.0320   26.6990   33.3480 C   0  0  0  0  0  0  0  0  0  0  0  0
   37.2420   25.3720   33.1520 N   0  0  0  0  0  0  0  0  0  0  0  0
   36.7510   24.7190   32.0560 C   0  0  0  0  0  0  0  0  0  0  0  0
   36.0350   25.3990   31.1390 N   0  0  0  0  0  0  0  0  0  0  0  0
   35.2340   27.2600   30.5700 H   0  0  0  0  0  0  0  0  0  0  0  0
   37.4250   27.2090   34.2190 H   0  0  0  0  0  0  0  0  0  0  0  0
   37.0260   23.6810   32.0860 H   0  0  0  0  0  0  0  0  0  0  0  0
   34.8690   31.0970   35.2910 C   0  0  0  0  0  0  0  0  0  0  0  0
   35.7070   31.6730   36.2270 C   0  0  0  0  0  0  0  0  0  0  0  0
   36.7760   31.8370   36.1940 H   0  0  0  0  0  0  0  0  0  0  0  0
   34.9720   32.0480   37.2970 N   0  0  0  0  0  0  0  0  0  0  0  0
   35.3290   32.5190   38.1810 H   0  0  0  0  0  0  0  0  0  0  0  0
   33.6770   31.7140   37.0440 C   0  0  0  0  0  0  0  0  0  0  0  0
   32.8660   31.8910   37.7160 H   0  0  0  0  0  0  0  0  0  0  0  0
   33.6230   31.1320   35.8130 N   0  0  0  0  0  0  0  0  0  0  0  0
  1  6  1  0  0  0  0
  2  3  1  0  0  0  0
  2  1  2  0  0  0  0
  3  4  2  0  0  0  0
  4  5  1  0  0  0  0
  5 18  1  0  0  0  0
  6  5  2  0  0  0  0
  7  2  1  0  0  0  0
  8  3  1  0  0  0  0
  9 10  1  0  0  0  0
 10  1  1  0  0  0  0
 10 11  2  0  0  0  0
 11 16  1  0  0  0  0
 12 11  1  0  0  0  0
 13 17  1  0  0  0  0
 13 12  2  0  0  0  0
 14  9  2  0  0  0  0
 14 13  1  0  0  0  0
 15  9  1  0  0  0  0
 18 25  1  0  0  0  0
 18 19  2  0  0  0  0
 19 21  1  0  0  0  0
 20 19  1  0  0  0  0
 21 22  1  0  0  0  0
 23 21  1  0  0  0  0
 23 24  1  0  0  0  0
 25 23  2  0  0  0  0
M  END
>  <minimizedAffinity>
-4.5921855

$$$$

 OpenBabel03272502123D

 25 27  0  0  0  0  0  0  0  0999 V2000
   36.3470   28.3480   33.4280 C   0  0  0  0  0  0  0  0  0  0  0  0
   36.2740   29.0130   32.2250 C   0  0  0  0  0  0  0  0  0  0  0  0
   35.7320   30.2940   32.0710 C   0  0  0  0  0  0  0  0  0  0  0  0
   35.2560   30.8990   33.1880 N   0  0  0  0  0  0  0  0  0  0  0  0
   35.3260   30.2500   34.3730 C   0  0  0  0  0  0  0  0  0  0  0  0
   35.8530   29.0260   34.4690 N   0  0  0  0  0  0  0  0  0  0  0  0
   36.6390   28.5730   31.3110 H   0  0  0  0  0  0  0  0  0  0  0  0
   35.6920   30.7800   31.1190 H   0  0  0  0  0  0  0  0  0  0  0  0
   37.3890   26.4780   34.7340 C   0  0  0  0  0  0  0  0  0  0  0  0
   36.9080   27.0370   33.5510 C   0  0  0  0  0  0  0  0  0  0  0  0
   36.9870   26.2420   32.4090 C   0  0  0  0  0  0  0  0  0  0  0  0
   37.5160   24.9950   32.5010 N   0  0  0  0  0  0  0  0  0  0  0  0
   37.9740   24.4920   33.6870 C   0  0  0  0  0  0  0  0  0  0  0  0
   37.9050   25.2460   34.8020 N   0  0  0  0  0  0  0  0  0  0  0  0
   37.3330   27.0900   35.6380 H   0  0  0  0  0  0  0  0  0  0  0  0
   36.6270   26.6330   31.4650 H   0  0  0  0  0  0  0  0  0  0  0  0
   38.3500   23.4950   33.5490 H   0  0  0  0  0  0  0  0  0  0  0  0
   34.7920   30.9700   35.5270 C   0  0  0  0  0  0  0  0  0  0  0  0
   35.6180   31.7510   36.3120 C   0  0  0  0  0  0  0  0  0  0  0  0
   36.6790   31.9460   36.2240 H   0  0  0  0  0  0  0  0  0  0  0  0
   34.8830   32.3020   37.3030 N   0  0  0  0  0  0  0  0  0  0  0  0
   35.2330   32.9520   38.0680 H   0  0  0  0  0  0  0  0  0  0  0  0
   33.6000   31.8750   37.1500 C   0  0  0  0  0  0  0  0  0  0  0  0
   32.7920   32.1510   37.7910 H   0  0  0  0  0  0  0  0  0  0  0  0
   33.5530   31.0600   36.0590 N   0  0  0  0  0  0  0  0  0  0  0  0
  1 10  1  0  0  0  0
  1  6  1  0  0  0  0
  2  1  2  0  0  0  0
  3  2  1  0  0  0  0
  3  4  2  0  0  0  0
  4  5  1  0  0  0  0
  5  6  2  0  0  0  0
  5 18  1  0  0  0  0
  7  2  1  0  0  0  0
  8  3  1  0  0  0  0
  9 14  1  0  0  0  0
  9 15  1  0  0  0  0
 10  9  2  0  0  0  0
 11 12  2  0  0  0  0
 11 10  1  0  0  0  0
 12 13  1  0  0  0  0
 13 14  2  0  0  0  0
 16 11  1  0  0  0  0
 17 13  1  0  0  0  0
 18 25  1  0  0  0  0
 18 19  2  0  0  0  0
 19 21  1  0  0  0  0
 20 19  1  0  0  0  0
 21 22  1  0  0  0  0
 23 21  1  0  0  0  0
 23 24  1  0  0  0  0
 25 23  2  0  0  0  0
M  END
>  <minimizedAffinity>
-4.53853273

$$$$
