
 OpenBabel03262521383D

 27 29  0  0  0  0  0  0  0  0999 V2000
   37.7840   23.4600   34.3890 F   0  0  0  0  0  0  0  0  0  0  0  0
   38.5270   24.6000   34.3040 C   0  0  0  0  0  0  0  0  0  0  0  0
   38.2630   25.5860   33.3620 C   0  0  0  0  0  0  0  0  0  0  0  0
   39.0440   26.7230   33.3160 C   0  0  0  0  0  0  0  0  0  0  0  0
   40.1020   26.8990   34.2070 C   0  0  0  0  0  0  0  0  0  0  0  0
   40.3210   25.8820   35.1270 C   0  0  0  0  0  0  0  0  0  0  0  0
   39.5700   24.7500   35.1990 C   0  0  0  0  0  0  0  0  0  0  0  0
   38.8200   27.4800   32.5710 H   0  0  0  0  0  0  0  0  0  0  0  0
   40.7170   27.7830   34.1770 H   0  0  0  0  0  0  0  0  0  0  0  0
   41.1490   26.0470   35.8050 H   0  0  0  0  0  0  0  0  0  0  0  0
   36.3980   26.4540   32.1520 C   0  0  0  0  0  0  0  0  0  0  0  0
   37.1580   25.3340   32.4790 C   0  0  0  0  0  0  0  0  0  0  0  0
   36.7710   24.1120   31.9220 C   0  0  0  0  0  0  0  0  0  0  0  0
   35.6900   24.0630   31.1010 N   0  0  0  0  0  0  0  0  0  0  0  0
   34.9800   25.1720   30.8110 C   0  0  0  0  0  0  0  0  0  0  0  0
   35.3330   26.3450   31.3300 N   0  0  0  0  0  0  0  0  0  0  0  0
   36.5570   27.4700   32.4930 H   0  0  0  0  0  0  0  0  0  0  0  0
   37.3910   23.2740   32.2040 H   0  0  0  0  0  0  0  0  0  0  0  0
   34.1590   24.9410   30.1450 H   0  0  0  0  0  0  0  0  0  0  0  0
   39.8260   23.7000   36.1790 C   0  0  0  0  0  0  0  0  0  0  0  0
   39.1190   23.4690   37.3400 C   0  0  0  0  0  0  0  0  0  0  0  0
   38.2670   24.0030   37.7350 H   0  0  0  0  0  0  0  0  0  0  0  0
   39.6830   22.3970   37.9680 N   0  0  0  0  0  0  0  0  0  0  0  0
   39.3960   21.9450   38.8810 H   0  0  0  0  0  0  0  0  0  0  0  0
   40.7160   21.9670   37.2200 C   0  0  0  0  0  0  0  0  0  0  0  0
   41.3820   21.1340   37.4250 H   0  0  0  0  0  0  0  0  0  0  0  0
   40.8010   22.7590   36.1350 N   0  0  0  0  0  0  0  0  0  0  0  0
  2  1  1  0  0  0  0
  2  7  1  0  0  0  0
  3  2  2  0  0  0  0
  4  3  1  0  0  0  0
  4  5  2  0  0  0  0
  5  6  1  0  0  0  0
  6  7  2  0  0  0  0
  6 10  1  0  0  0  0
  7 20  1  0  0  0  0
  8  4  1  0  0  0  0
  9  5  1  0  0  0  0
 11 12  1  0  0  0  0
 11 17  1  0  0  0  0
 12  3  1  0  0  0  0
 13 18  1  0  0  0  0
 13 12  2  0  0  0  0
 14 13  1  0  0  0  0
 15 14  2  0  0  0  0
 15 16  1  0  0  0  0
 16 11  2  0  0  0  0
 19 15  1  0  0  0  0
 20 21  2  0  0  0  0
 21 22  1  0  0  0  0
 21 23  1  0  0  0  0
 23 24  1  0  0  0  0
 25 26  1  0  0  0  0
 25 23  1  0  0  0  0
 27 20  1  0  0  0  0
 27 25  2  0  0  0  0
M  END
>  <minimizedAffinity>
-5.14453888

$$$$

 OpenBabel03262521383D

 27 29  0  0  0  0  0  0  0  0999 V2000
   35.5110   28.5230   34.7290 F   0  0  0  0  0  0  0  0  0  0  0  0
   35.7600   29.3610   33.6830 C   0  0  0  0  0  0  0  0  0  0  0  0
   36.2270   28.8960   32.4600 C   0  0  0  0  0  0  0  0  0  0  0  0
   36.4650   29.7840   31.4300 C   0  0  0  0  0  0  0  0  0  0  0  0
   36.2410   31.1500   31.5990 C   0  0  0  0  0  0  0  0  0  0  0  0
   35.7750   31.5590   32.8410 C   0  0  0  0  0  0  0  0  0  0  0  0
   35.5300   30.7100   33.8760 C   0  0  0  0  0  0  0  0  0  0  0  0
   36.8300   29.3990   30.4830 H   0  0  0  0  0  0  0  0  0  0  0  0
   36.4250   31.8500   30.8010 H   0  0  0  0  0  0  0  0  0  0  0  0
   35.6110   32.6240   32.9420 H   0  0  0  0  0  0  0  0  0  0  0  0
   35.6030   26.8230   31.4560 C   0  0  0  0  0  0  0  0  0  0  0  0
   36.4340   27.4780   32.3610 C   0  0  0  0  0  0  0  0  0  0  0  0
   37.3580   26.6990   33.0610 C   0  0  0  0  0  0  0  0  0  0  0  0
   37.4110   25.3600   32.8370 N   0  0  0  0  0  0  0  0  0  0  0  0
   36.5880   24.7650   31.9510 C   0  0  0  0  0  0  0  0  0  0  0  0
   35.7010   25.4890   31.2740 N   0  0  0  0  0  0  0  0  0  0  0  0
   34.8360   27.2720   30.8350 H   0  0  0  0  0  0  0  0  0  0  0  0
   37.9800   27.2510   33.7510 H   0  0  0  0  0  0  0  0  0  0  0  0
   36.7730   23.7000   31.9060 H   0  0  0  0  0  0  0  0  0  0  0  0
   35.0400   31.1720   35.1700 C   0  0  0  0  0  0  0  0  0  0  0  0
   35.7870   31.7550   36.1710 C   0  0  0  0  0  0  0  0  0  0  0  0
   36.8450   31.9750   36.1910 H   0  0  0  0  0  0  0  0  0  0  0  0
   34.9480   32.0360   37.2110 N   0  0  0  0  0  0  0  0  0  0  0  0
   35.1820   32.4860   38.1400 H   0  0  0  0  0  0  0  0  0  0  0  0
   33.7080   31.6410   36.8690 C   0  0  0  0  0  0  0  0  0  0  0  0
   32.8010   31.7170   37.4610 H   0  0  0  0  0  0  0  0  0  0  0  0
   33.7660   31.1170   35.6300 N   0  0  0  0  0  0  0  0  0  0  0  0
  2  7  1  0  0  0  0
  2  1  1  0  0  0  0
  3  2  2  0  0  0  0
  4  5  2  0  0  0  0
  4  3  1  0  0  0  0
  5  6  1  0  0  0  0
  6 10  1  0  0  0  0
  6  7  2  0  0  0  0
  7 20  1  0  0  0  0
  8  4  1  0  0  0  0
  9  5  1  0  0  0  0
 11 12  1  0  0  0  0
 12  3  1  0  0  0  0
 12 13  2  0  0  0  0
 13 18  1  0  0  0  0
 14 13  1  0  0  0  0
 15 14  2  0  0  0  0
 16 11  2  0  0  0  0
 16 15  1  0  0  0  0
 17 11  1  0  0  0  0
 19 15  1  0  0  0  0
 20 27  1  0  0  0  0
 20 21  2  0  0  0  0
 21 22  1  0  0  0  0
 21 23  1  0  0  0  0
 23 24  1  0  0  0  0
 25 23  1  0  0  0  0
 25 26  1  0  0  0  0
 27 25  2  0  0  0  0
M  END
>  <minimizedAffinity>
-5.08347702

$$$$

 OpenBabel03262521383D

 27 29  0  0  0  0  0  0  0  0999 V2000
   39.3750   25.5990   32.3210 F   0  0  0  0  0  0  0  0  0  0  0  0
   38.8690   26.2500   33.4060 C   0  0  0  0  0  0  0  0  0  0  0  0
   39.6670   26.6340   34.4770 C   0  0  0  0  0  0  0  0  0  0  0  0
   39.1080   27.2920   35.5540 C   0  0  0  0  0  0  0  0  0  0  0  0
   37.7440   27.5790   35.5840 C   0  0  0  0  0  0  0  0  0  0  0  0
   36.9940   27.1730   34.4890 C   0  0  0  0  0  0  0  0  0  0  0  0
   37.5140   26.5240   33.4120 C   0  0  0  0  0  0  0  0  0  0  0  0
   39.7510   27.5820   36.3790 H   0  0  0  0  0  0  0  0  0  0  0  0
   37.2990   28.0910   36.4220 H   0  0  0  0  0  0  0  0  0  0  0  0
   35.9390   27.4100   34.5420 H   0  0  0  0  0  0  0  0  0  0  0  0
   41.8470   27.2570   33.7310 C   0  0  0  0  0  0  0  0  0  0  0  0
   41.0610   26.3030   34.3730 C   0  0  0  0  0  0  0  0  0  0  0  0
   41.7030   25.1520   34.8370 C   0  0  0  0  0  0  0  0  0  0  0  0
   43.0410   25.0090   34.6480 N   0  0  0  0  0  0  0  0  0  0  0  0
   43.7650   25.9570   34.0200 C   0  0  0  0  0  0  0  0  0  0  0  0
   43.1730   27.0610   33.5720 N   0  0  0  0  0  0  0  0  0  0  0  0
   41.5140   28.2000   33.3130 H   0  0  0  0  0  0  0  0  0  0  0  0
   41.0530   24.4430   35.3280 H   0  0  0  0  0  0  0  0  0  0  0  0
   44.8070   25.6720   33.9620 H   0  0  0  0  0  0  0  0  0  0  0  0
   36.6970   26.1110   32.2760 C   0  0  0  0  0  0  0  0  0  0  0  0
   36.2830   26.9070   31.2300 C   0  0  0  0  0  0  0  0  0  0  0  0
   36.4770   27.9550   31.0540 H   0  0  0  0  0  0  0  0  0  0  0  0
   35.5410   26.1340   30.3840 N   0  0  0  0  0  0  0  0  0  0  0  0
   35.0680   26.4180   29.4810 H   0  0  0  0  0  0  0  0  0  0  0  0
   35.4920   24.8870   30.8870 C   0  0  0  0  0  0  0  0  0  0  0  0
   34.9860   24.0220   30.4680 H   0  0  0  0  0  0  0  0  0  0  0  0
   36.1940   24.8760   32.0350 N   0  0  0  0  0  0  0  0  0  0  0  0
  1  2  1  0  0  0  0
  2  7  2  0  0  0  0
  2  3  1  0  0  0  0
  3  4  2  0  0  0  0
  4  5  1  0  0  0  0
  4  8  1  0  0  0  0
  5  9  1  0  0  0  0
  6 10  1  0  0  0  0
  6  5  2  0  0  0  0
  7  6  1  0  0  0  0
 11 12  1  0  0  0  0
 12  3  1  0  0  0  0
 12 13  2  0  0  0  0
 13 18  1  0  0  0  0
 14 13  1  0  0  0  0
 15 14  2  0  0  0  0
 16 11  2  0  0  0  0
 16 15  1  0  0  0  0
 17 11  1  0  0  0  0
 19 15  1  0  0  0  0
 20  7  1  0  0  0  0
 21 20  2  0  0  0  0
 22 21  1  0  0  0  0
 23 25  1  0  0  0  0
 23 21  1  0  0  0  0
 24 23  1  0  0  0  0
 25 27  2  0  0  0  0
 26 25  1  0  0  0  0
 27 20  1  0  0  0  0
M  END
>  <minimizedAffinity>
-4.9580121

$$$$

 OpenBabel03262521383D

 27 29  0  0  0  0  0  0  0  0999 V2000
   37.1510   21.3840   35.3390 F   0  0  0  0  0  0  0  0  0  0  0  0
   37.6830   22.3330   34.5170 C   0  0  0  0  0  0  0  0  0  0  0  0
   37.4410   22.3460   33.1490 C   0  0  0  0  0  0  0  0  0  0  0  0
   38.0020   23.3280   32.3580 C   0  0  0  0  0  0  0  0  0  0  0  0
   38.8150   24.3150   32.9150 C   0  0  0  0  0  0  0  0  0  0  0  0
   39.0230   24.2540   34.2860 C   0  0  0  0  0  0  0  0  0  0  0  0
   38.4850   23.3000   35.0930 C   0  0  0  0  0  0  0  0  0  0  0  0
   37.7990   23.3180   31.2920 H   0  0  0  0  0  0  0  0  0  0  0  0
   39.2570   25.0850   32.3050 H   0  0  0  0  0  0  0  0  0  0  0  0
   39.6580   25.0330   34.6890 H   0  0  0  0  0  0  0  0  0  0  0  0
   37.2650   20.1550   32.2200 C   0  0  0  0  0  0  0  0  0  0  0  0
   36.5950   21.2970   32.6490 C   0  0  0  0  0  0  0  0  0  0  0  0
   35.2010   21.2990   32.5490 C   0  0  0  0  0  0  0  0  0  0  0  0
   34.5650   20.2090   32.0470 N   0  0  0  0  0  0  0  0  0  0  0  0
   35.2520   19.1220   31.6420 C   0  0  0  0  0  0  0  0  0  0  0  0
   36.5790   19.1000   31.7290 N   0  0  0  0  0  0  0  0  0  0  0  0
   38.3350   19.9870   32.2270 H   0  0  0  0  0  0  0  0  0  0  0  0
   34.7280   22.2050   32.8950 H   0  0  0  0  0  0  0  0  0  0  0  0
   34.5820   18.3570   31.2730 H   0  0  0  0  0  0  0  0  0  0  0  0
   38.7240   23.2650   36.5320 C   0  0  0  0  0  0  0  0  0  0  0  0
   39.7620   22.6270   37.1770 C   0  0  0  0  0  0  0  0  0  0  0  0
   40.5730   22.0500   36.7550 H   0  0  0  0  0  0  0  0  0  0  0  0
   39.6170   22.8390   38.5180 N   0  0  0  0  0  0  0  0  0  0  0  0
   40.2330   22.4960   39.3070 H   0  0  0  0  0  0  0  0  0  0  0  0
   38.5160   23.5900   38.7070 C   0  0  0  0  0  0  0  0  0  0  0  0
   38.1090   23.9430   39.6500 H   0  0  0  0  0  0  0  0  0  0  0  0
   37.9760   23.8470   37.5010 N   0  0  0  0  0  0  0  0  0  0  0  0
  2  7  1  0  0  0  0
  2  1  1  0  0  0  0
  3  2  2  0  0  0  0
  4  5  2  0  0  0  0
  4  3  1  0  0  0  0
  5  6  1  0  0  0  0
  6 10  1  0  0  0  0
  6  7  2  0  0  0  0
  7 20  1  0  0  0  0
  8  4  1  0  0  0  0
  9  5  1  0  0  0  0
 11 17  1  0  0  0  0
 11 12  1  0  0  0  0
 12  3  1  0  0  0  0
 13 12  2  0  0  0  0
 13 18  1  0  0  0  0
 14 13  1  0  0  0  0
 15 16  1  0  0  0  0
 15 14  2  0  0  0  0
 16 11  2  0  0  0  0
 19 15  1  0  0  0  0
 20 21  2  0  0  0  0
 20 27  1  0  0  0  0
 21 23  1  0  0  0  0
 22 21  1  0  0  0  0
 23 25  1  0  0  0  0
 23 24  1  0  0  0  0
 25 26  1  0  0  0  0
 27 25  2  0  0  0  0
M  END
>  <minimizedAffinity>
-4.9011569

$$$$

 OpenBabel03262521383D

 27 29  0  0  0  0  0  0  0  0999 V2000
   38.6490   25.4000   35.0290 F   0  0  0  0  0  0  0  0  0  0  0  0
   38.1960   24.3040   34.3560 C   0  0  0  0  0  0  0  0  0  0  0  0
   37.7880   24.3680   33.0290 C   0  0  0  0  0  0  0  0  0  0  0  0
   37.3370   23.2300   32.3910 C   0  0  0  0  0  0  0  0  0  0  0  0
   37.2850   22.0090   33.0620 C   0  0  0  0  0  0  0  0  0  0  0  0
   37.7040   22.0030   34.3850 C   0  0  0  0  0  0  0  0  0  0  0  0
   38.1540   23.1050   35.0430 C   0  0  0  0  0  0  0  0  0  0  0  0
   37.0240   23.3030   31.3540 H   0  0  0  0  0  0  0  0  0  0  0  0
   36.9330   21.1160   32.5710 H   0  0  0  0  0  0  0  0  0  0  0  0
   37.6510   21.0410   34.8790 H   0  0  0  0  0  0  0  0  0  0  0  0
   36.6960   26.4060   32.4390 C   0  0  0  0  0  0  0  0  0  0  0  0
   37.8710   25.6590   32.4060 C   0  0  0  0  0  0  0  0  0  0  0  0
   38.9810   26.2370   31.7820 C   0  0  0  0  0  0  0  0  0  0  0  0
   38.8730   27.4800   31.2430 N   0  0  0  0  0  0  0  0  0  0  0  0
   37.7160   28.1690   31.2970 C   0  0  0  0  0  0  0  0  0  0  0  0
   36.6490   27.6370   31.8870 N   0  0  0  0  0  0  0  0  0  0  0  0
   35.7510   26.1120   32.8790 H   0  0  0  0  0  0  0  0  0  0  0  0
   39.8670   25.6210   31.7820 H   0  0  0  0  0  0  0  0  0  0  0  0
   37.8190   29.1340   30.8180 H   0  0  0  0  0  0  0  0  0  0  0  0
   38.5880   23.0650   36.4350 C   0  0  0  0  0  0  0  0  0  0  0  0
   39.7520   22.5050   36.9170 C   0  0  0  0  0  0  0  0  0  0  0  0
   40.5420   22.0050   36.3750 H   0  0  0  0  0  0  0  0  0  0  0  0
   39.7730   22.6810   38.2700 N   0  0  0  0  0  0  0  0  0  0  0  0
   40.5150   22.3770   38.9600 H   0  0  0  0  0  0  0  0  0  0  0  0
   38.6510   23.3340   38.6270 C   0  0  0  0  0  0  0  0  0  0  0  0
   38.3480   23.6360   39.6250 H   0  0  0  0  0  0  0  0  0  0  0  0
   37.9340   23.5660   37.5110 N   0  0  0  0  0  0  0  0  0  0  0  0
  2  1  1  0  0  0  0
  2  7  1  0  0  0  0
  3  2  2  0  0  0  0
  4  3  1  0  0  0  0
  4  5  2  0  0  0  0
  5  6  1  0  0  0  0
  6 10  1  0  0  0  0
  6  7  2  0  0  0  0
  7 20  1  0  0  0  0
  8  4  1  0  0  0  0
  9  5  1  0  0  0  0
 11 17  1  0  0  0  0
 12 11  1  0  0  0  0
 12  3  1  0  0  0  0
 13 12  2  0  0  0  0
 14 15  2  0  0  0  0
 14 13  1  0  0  0  0
 15 16  1  0  0  0  0
 16 11  2  0  0  0  0
 18 13  1  0  0  0  0
 19 15  1  0  0  0  0
 20 21  2  0  0  0  0
 20 27  1  0  0  0  0
 21 23  1  0  0  0  0
 22 21  1  0  0  0  0
 23 25  1  0  0  0  0
 23 24  1  0  0  0  0
 25 26  1  0  0  0  0
 27 25  2  0  0  0  0
M  END
>  <minimizedAffinity>
-4.76928616

$$$$

 OpenBabel03262521383D

 27 29  0  0  0  0  0  0  0  0999 V2000
   37.1650   25.5060   33.7090 F   0  0  0  0  0  0  0  0  0  0  0  0
   38.4590   25.8940   33.8950 C   0  0  0  0  0  0  0  0  0  0  0  0
   39.0420   26.9070   33.1440 C   0  0  0  0  0  0  0  0  0  0  0  0
   40.3570   27.2640   33.3690 C   0  0  0  0  0  0  0  0  0  0  0  0
   41.1140   26.6170   34.3460 C   0  0  0  0  0  0  0  0  0  0  0  0
   40.4820   25.6130   35.0650 C   0  0  0  0  0  0  0  0  0  0  0  0
   39.1890   25.2380   34.8680 C   0  0  0  0  0  0  0  0  0  0  0  0
   40.7910   28.0590   32.7710 H   0  0  0  0  0  0  0  0  0  0  0  0
   42.1410   26.8890   34.5270 H   0  0  0  0  0  0  0  0  0  0  0  0
   41.0950   25.1300   35.8150 H   0  0  0  0  0  0  0  0  0  0  0  0
   38.6370   27.3930   30.8430 C   0  0  0  0  0  0  0  0  0  0  0  0
   38.2000   27.5250   32.1590 C   0  0  0  0  0  0  0  0  0  0  0  0
   37.0120   28.2310   32.3710 C   0  0  0  0  0  0  0  0  0  0  0  0
   36.3430   28.7510   31.3090 N   0  0  0  0  0  0  0  0  0  0  0  0
   36.8020   28.5990   30.0500 C   0  0  0  0  0  0  0  0  0  0  0  0
   37.9300   27.9300   29.8270 N   0  0  0  0  0  0  0  0  0  0  0  0
   39.5290   26.8810   30.5030 H   0  0  0  0  0  0  0  0  0  0  0  0
   36.7150   28.3070   33.4060 H   0  0  0  0  0  0  0  0  0  0  0  0
   36.1420   29.0770   29.3390 H   0  0  0  0  0  0  0  0  0  0  0  0
   38.5540   24.1770   35.6430 C   0  0  0  0  0  0  0  0  0  0  0  0
   38.6470   22.8210   35.4090 C   0  0  0  0  0  0  0  0  0  0  0  0
   39.1900   22.3000   34.6340 H   0  0  0  0  0  0  0  0  0  0  0  0
   37.9050   22.1800   36.3590 N   0  0  0  0  0  0  0  0  0  0  0  0
   37.7540   21.1400   36.4820 H   0  0  0  0  0  0  0  0  0  0  0  0
   37.3630   23.1100   37.1670 C   0  0  0  0  0  0  0  0  0  0  0  0
   36.7190   22.9480   38.0260 H   0  0  0  0  0  0  0  0  0  0  0  0
   37.7580   24.3200   36.7300 N   0  0  0  0  0  0  0  0  0  0  0  0
  1  2  1  0  0  0  0
  2  7  1  0  0  0  0
  3  4  1  0  0  0  0
  3  2  2  0  0  0  0
  4  5  2  0  0  0  0
  5  9  1  0  0  0  0
  5  6  1  0  0  0  0
  6 10  1  0  0  0  0
  7  6  2  0  0  0  0
  7 20  1  0  0  0  0
  8  4  1  0  0  0  0
 11 12  1  0  0  0  0
 12 13  2  0  0  0  0
 12  3  1  0  0  0  0
 13 18  1  0  0  0  0
 14 13  1  0  0  0  0
 15 14  2  0  0  0  0
 16 15  1  0  0  0  0
 16 11  2  0  0  0  0
 17 11  1  0  0  0  0
 19 15  1  0  0  0  0
 20 27  1  0  0  0  0
 21 20  2  0  0  0  0
 21 23  1  0  0  0  0
 22 21  1  0  0  0  0
 23 24  1  0  0  0  0
 23 25  1  0  0  0  0
 25 26  1  0  0  0  0
 27 25  2  0  0  0  0
M  END
>  <minimizedAffinity>
-4.71934938

$$$$

 OpenBabel03262521383D

 27 29  0  0  0  0  0  0  0  0999 V2000
   36.9750   25.7430   33.5430 F   0  0  0  0  0  0  0  0  0  0  0  0
   38.2920   26.0900   33.6080 C   0  0  0  0  0  0  0  0  0  0  0  0
   39.1540   25.5420   34.5500 C   0  0  0  0  0  0  0  0  0  0  0  0
   40.4800   25.9250   34.5760 C   0  0  0  0  0  0  0  0  0  0  0  0
   40.9710   26.8600   33.6650 C   0  0  0  0  0  0  0  0  0  0  0  0
   40.0660   27.3750   32.7480 C   0  0  0  0  0  0  0  0  0  0  0  0
   38.7540   27.0180   32.6940 C   0  0  0  0  0  0  0  0  0  0  0  0
   41.1360   25.4840   35.3210 H   0  0  0  0  0  0  0  0  0  0  0  0
   42.0050   27.1650   33.6800 H   0  0  0  0  0  0  0  0  0  0  0  0
   40.4760   28.0980   32.0540 H   0  0  0  0  0  0  0  0  0  0  0  0
   38.2050   25.0990   36.6940 C   0  0  0  0  0  0  0  0  0  0  0  0
   38.5760   24.5870   35.4530 C   0  0  0  0  0  0  0  0  0  0  0  0
   38.3480   23.2270   35.2280 C   0  0  0  0  0  0  0  0  0  0  0  0
   37.7870   22.4700   36.2070 N   0  0  0  0  0  0  0  0  0  0  0  0
   37.4430   23.0060   37.3950 C   0  0  0  0  0  0  0  0  0  0  0  0
   37.6500   24.2990   37.6290 N   0  0  0  0  0  0  0  0  0  0  0  0
   38.3100   26.1230   37.0330 H   0  0  0  0  0  0  0  0  0  0  0  0
   38.6510   22.8770   34.2520 H   0  0  0  0  0  0  0  0  0  0  0  0
   37.0120   22.2570   38.0460 H   0  0  0  0  0  0  0  0  0  0  0  0
   37.8280   27.5780   31.7160 C   0  0  0  0  0  0  0  0  0  0  0  0
   37.5910   27.1030   30.4440 C   0  0  0  0  0  0  0  0  0  0  0  0
   38.0280   26.2520   29.9430 H   0  0  0  0  0  0  0  0  0  0  0  0
   36.6580   27.9120   29.8610 N   0  0  0  0  0  0  0  0  0  0  0  0
   36.2420   27.8410   28.8910 H   0  0  0  0  0  0  0  0  0  0  0  0
   36.3210   28.8690   30.7450 C   0  0  0  0  0  0  0  0  0  0  0  0
   35.6070   29.6760   30.6090 H   0  0  0  0  0  0  0  0  0  0  0  0
   37.0320   28.6640   31.8690 N   0  0  0  0  0  0  0  0  0  0  0  0
  1  2  1  0  0  0  0
  2  3  1  0  0  0  0
  3  4  2  0  0  0  0
  3 12  1  0  0  0  0
  4  8  1  0  0  0  0
  5  9  1  0  0  0  0
  5  4  1  0  0  0  0
  6  5  2  0  0  0  0
  7  6  1  0  0  0  0
  7  2  2  0  0  0  0
 10  6  1  0  0  0  0
 11 17  1  0  0  0  0
 11 16  1  0  0  0  0
 12 11  2  0  0  0  0
 13 12  1  0  0  0  0
 13 14  2  0  0  0  0
 14 15  1  0  0  0  0
 15 16  2  0  0  0  0
 15 19  1  0  0  0  0
 18 13  1  0  0  0  0
 20 27  1  0  0  0  0
 20  7  1  0  0  0  0
 21 20  2  0  0  0  0
 22 21  1  0  0  0  0
 23 21  1  0  0  0  0
 23 25  1  0  0  0  0
 24 23  1  0  0  0  0
 25 27  2  0  0  0  0
 26 25  1  0  0  0  0
M  END
>  <minimizedAffinity>
-4.69532967

$$$$

 OpenBabel03262521383D

 27 29  0  0  0  0  0  0  0  0999 V2000
   36.0830   28.0360   34.8100 F   0  0  0  0  0  0  0  0  0  0  0  0
   36.1250   28.7000   33.6200 C   0  0  0  0  0  0  0  0  0  0  0  0
   35.6740   30.0080   33.4860 C   0  0  0  0  0  0  0  0  0  0  0  0
   35.7380   30.6380   32.2600 C   0  0  0  0  0  0  0  0  0  0  0  0
   36.2520   29.9780   31.1450 C   0  0  0  0  0  0  0  0  0  0  0  0
   36.6880   28.6740   31.3350 C   0  0  0  0  0  0  0  0  0  0  0  0
   36.6400   28.0250   32.5290 C   0  0  0  0  0  0  0  0  0  0  0  0
   35.3790   31.6590   32.1790 H   0  0  0  0  0  0  0  0  0  0  0  0
   36.3050   30.4620   30.1830 H   0  0  0  0  0  0  0  0  0  0  0  0
   37.0830   28.1880   30.4510 H   0  0  0  0  0  0  0  0  0  0  0  0
   33.7840   30.4900   34.8600 C   0  0  0  0  0  0  0  0  0  0  0  0
   35.1580   30.6210   34.6790 C   0  0  0  0  0  0  0  0  0  0  0  0
   35.8710   31.3190   35.6570 C   0  0  0  0  0  0  0  0  0  0  0  0
   35.2100   31.8350   36.7260 N   0  0  0  0  0  0  0  0  0  0  0  0
   33.8770   31.6860   36.8640 C   0  0  0  0  0  0  0  0  0  0  0  0
   33.1800   31.0240   35.9440 N   0  0  0  0  0  0  0  0  0  0  0  0
   33.0860   29.9840   34.2040 H   0  0  0  0  0  0  0  0  0  0  0  0
   36.9320   31.3930   35.4720 H   0  0  0  0  0  0  0  0  0  0  0  0
   33.5270   32.1600   37.7710 H   0  0  0  0  0  0  0  0  0  0  0  0
   37.1080   26.6520   32.6960 C   0  0  0  0  0  0  0  0  0  0  0  0
   36.5160   25.5160   32.1870 C   0  0  0  0  0  0  0  0  0  0  0  0
   35.6220   25.4240   31.5870 H   0  0  0  0  0  0  0  0  0  0  0  0
   37.2670   24.4430   32.5730 N   0  0  0  0  0  0  0  0  0  0  0  0
   37.1070   23.4190   32.3610 H   0  0  0  0  0  0  0  0  0  0  0  0
   38.3030   24.8970   33.3040 C   0  0  0  0  0  0  0  0  0  0  0  0
   39.0940   24.3140   33.7660 H   0  0  0  0  0  0  0  0  0  0  0  0
   38.2030   26.2370   33.3760 N   0  0  0  0  0  0  0  0  0  0  0  0
  2  1  1  0  0  0  0
  3  2  1  0  0  0  0
  3 12  1  0  0  0  0
  4  3  2  0  0  0  0
  5  6  2  0  0  0  0
  5  4  1  0  0  0  0
  6  7  1  0  0  0  0
  7 20  1  0  0  0  0
  7  2  2  0  0  0  0
  8  4  1  0  0  0  0
  9  5  1  0  0  0  0
 10  6  1  0  0  0  0
 11 16  1  0  0  0  0
 12 11  2  0  0  0  0
 12 13  1  0  0  0  0
 13 14  2  0  0  0  0
 14 15  1  0  0  0  0
 15 19  1  0  0  0  0
 16 15  2  0  0  0  0
 17 11  1  0  0  0  0
 18 13  1  0  0  0  0
 20 27  1  0  0  0  0
 21 23  1  0  0  0  0
 21 20  2  0  0  0  0
 22 21  1  0  0  0  0
 23 25  1  0  0  0  0
 24 23  1  0  0  0  0
 25 27  2  0  0  0  0
 25 26  1  0  0  0  0
M  END
>  <minimizedAffinity>
-4.69241858

$$$$

 OpenBabel03262521383D

 27 29  0  0  0  0  0  0  0  0999 V2000
   37.7100   23.5440   33.5440 F   0  0  0  0  0  0  0  0  0  0  0  0
   36.9710   24.3290   32.7100 C   0  0  0  0  0  0  0  0  0  0  0  0
   36.1100   23.7930   31.7600 C   0  0  0  0  0  0  0  0  0  0  0  0
   35.3820   24.6290   30.9380 C   0  0  0  0  0  0  0  0  0  0  0  0
   35.4980   26.0140   31.0470 C   0  0  0  0  0  0  0  0  0  0  0  0
   36.3720   26.4960   32.0120 C   0  0  0  0  0  0  0  0  0  0  0  0
   37.1030   25.6990   32.8380 C   0  0  0  0  0  0  0  0  0  0  0  0
   34.7160   24.1880   30.2030 H   0  0  0  0  0  0  0  0  0  0  0  0
   34.9340   26.6740   30.4090 H   0  0  0  0  0  0  0  0  0  0  0  0
   36.4400   27.5740   32.0740 H   0  0  0  0  0  0  0  0  0  0  0  0
   37.0220   21.7530   30.9210 C   0  0  0  0  0  0  0  0  0  0  0  0
   36.0450   22.3580   31.7070 C   0  0  0  0  0  0  0  0  0  0  0  0
   35.1270   21.5210   32.3470 C   0  0  0  0  0  0  0  0  0  0  0  0
   35.2200   20.1760   32.1800 N   0  0  0  0  0  0  0  0  0  0  0  0
   36.1820   19.6300   31.4100 C   0  0  0  0  0  0  0  0  0  0  0  0
   37.0660   20.4100   30.7930 N   0  0  0  0  0  0  0  0  0  0  0  0
   37.8050   22.2490   30.3610 H   0  0  0  0  0  0  0  0  0  0  0  0
   34.3910   22.0360   32.9440 H   0  0  0  0  0  0  0  0  0  0  0  0
   36.0990   18.5510   31.3950 H   0  0  0  0  0  0  0  0  0  0  0  0
   38.0130   26.2370   33.8440 C   0  0  0  0  0  0  0  0  0  0  0  0
   37.6640   26.7680   35.0670 C   0  0  0  0  0  0  0  0  0  0  0  0
   36.6820   26.8830   35.5040 H   0  0  0  0  0  0  0  0  0  0  0  0
   38.8110   27.1560   35.6990 N   0  0  0  0  0  0  0  0  0  0  0  0
   38.9170   27.6010   36.6520 H   0  0  0  0  0  0  0  0  0  0  0  0
   39.8500   26.8740   34.8910 C   0  0  0  0  0  0  0  0  0  0  0  0
   40.9050   27.0510   35.0820 H   0  0  0  0  0  0  0  0  0  0  0  0
   39.3630   26.3170   33.7670 N   0  0  0  0  0  0  0  0  0  0  0  0
  2  7  1  0  0  0  0
  2  1  1  0  0  0  0
  3  2  2  0  0  0  0
  4  5  2  0  0  0  0
  4  3  1  0  0  0  0
  5  6  1  0  0  0  0
  6 10  1  0  0  0  0
  6  7  2  0  0  0  0
  7 20  1  0  0  0  0
  8  4  1  0  0  0  0
  9  5  1  0  0  0  0
 11 12  1  0  0  0  0
 12  3  1  0  0  0  0
 12 13  2  0  0  0  0
 13 18  1  0  0  0  0
 14 13  1  0  0  0  0
 15 14  2  0  0  0  0
 16 11  2  0  0  0  0
 16 15  1  0  0  0  0
 17 11  1  0  0  0  0
 19 15  1  0  0  0  0
 20 21  2  0  0  0  0
 21 22  1  0  0  0  0
 21 23  1  0  0  0  0
 23 24  1  0  0  0  0
 25 26  1  0  0  0  0
 25 23  1  0  0  0  0
 27 20  1  0  0  0  0
 27 25  2  0  0  0  0
M  END
>  <minimizedAffinity>
-4.66105747

$$$$
