
 OpenBabel03272508183D

 24 26  0  0  0  0  0  0  0  0999 V2000
   39.0160   24.7620   34.2700 C   0  0  0  0  0  0  0  0  0  0  0  0
   38.5720   23.6780   35.0150 C   0  0  0  0  0  0  0  0  0  0  0  0
   37.8860   22.7110   34.2520 C   0  0  0  0  0  0  0  0  0  0  0  0
   37.7010   22.8650   32.9230 N   0  0  0  0  0  0  0  0  0  0  0  0
   38.1530   23.9420   32.2450 C   0  0  0  0  0  0  0  0  0  0  0  0
   38.8120   24.8870   32.9340 N   0  0  0  0  0  0  0  0  0  0  0  0
   37.4700   21.8020   34.6640 H   0  0  0  0  0  0  0  0  0  0  0  0
   38.0420   24.1290   31.1890 H   0  0  0  0  0  0  0  0  0  0  0  0
   39.8610   25.7830   35.0020 C   0  0  0  0  0  0  0  0  0  0  0  0
   40.2350   27.0380   34.4050 C   0  0  0  0  0  0  0  0  0  0  0  0
   39.0240   27.0450   35.3000 C   0  0  0  0  0  0  0  0  0  0  0  0
   40.3290   25.4150   35.9580 H   0  0  0  0  0  0  0  0  0  0  0  0
   40.0090   27.2120   33.3270 H   0  0  0  0  0  0  0  0  0  0  0  0
   41.1240   27.6030   34.7380 H   0  0  0  0  0  0  0  0  0  0  0  0
   39.0770   27.3890   36.3210 H   0  0  0  0  0  0  0  0  0  0  0  0
   38.0280   27.1070   34.8350 H   0  0  0  0  0  0  0  0  0  0  0  0
   38.7300   23.4680   36.4260 C   0  0  0  0  0  0  0  0  0  0  0  0
   39.6870   22.6330   36.9480 C   0  0  0  0  0  0  0  0  0  0  0  0
   40.4410   22.0240   36.4320 H   0  0  0  0  0  0  0  0  0  0  0  0
   39.6520   22.5920   38.2850 N   0  0  0  0  0  0  0  0  0  0  0  0
   40.2450   22.0560   38.9530 H   0  0  0  0  0  0  0  0  0  0  0  0
   38.6530   23.4170   38.6260 C   0  0  0  0  0  0  0  0  0  0  0  0
   38.2620   23.6950   39.5900 H   0  0  0  0  0  0  0  0  0  0  0  0
   38.1210   23.9250   37.5130 N   0  0  0  0  0  0  0  0  0  0  0  0
  1  9  1  0  0  0  0
  1  2  1  0  0  0  0
  2 17  1  0  0  0  0
  3  7  1  0  0  0  0
  3  2  2  0  0  0  0
  4  3  1  0  0  0  0
  5  4  2  0  0  0  0
  5  6  1  0  0  0  0
  6  1  2  0  0  0  0
  8  5  1  0  0  0  0
  9 11  1  0  0  0  0
  9 12  1  0  0  0  0
 10 14  1  0  0  0  0
 10  9  1  0  0  0  0
 10 11  1  0  0  0  0
 11 15  1  0  0  0  0
 13 10  1  0  0  0  0
 16 11  1  0  0  0  0
 17 18  2  0  0  0  0
 17 24  1  0  0  0  0
 18 20  1  0  0  0  0
 19 18  1  0  0  0  0
 20 22  1  0  0  0  0
 20 21  1  0  0  0  0
 22 23  1  0  0  0  0
 24 22  2  0  0  0  0
M  END
>  <minimizedAffinity>
-4.37963772

$$$$

 OpenBabel03272508183D

 24 26  0  0  0  0  0  0  0  0999 V2000
   39.1340   23.7470   36.4770 C   0  0  0  0  0  0  0  0  0  0  0  0
   39.3120   24.7690   35.5530 C   0  0  0  0  0  0  0  0  0  0  0  0
   40.4770   24.6280   34.7710 C   0  0  0  0  0  0  0  0  0  0  0  0
   41.3130   23.5810   34.9370 N   0  0  0  0  0  0  0  0  0  0  0  0
   41.0940   22.6120   35.8530 C   0  0  0  0  0  0  0  0  0  0  0  0
   39.9970   22.7080   36.6200 N   0  0  0  0  0  0  0  0  0  0  0  0
   40.7760   25.3270   34.0040 H   0  0  0  0  0  0  0  0  0  0  0  0
   41.7180   21.7510   36.0390 H   0  0  0  0  0  0  0  0  0  0  0  0
   37.8460   23.7710   37.2700 C   0  0  0  0  0  0  0  0  0  0  0  0
   37.6980   23.0610   38.5140 C   0  0  0  0  0  0  0  0  0  0  0  0
   38.0620   24.5190   38.6040 C   0  0  0  0  0  0  0  0  0  0  0  0
   36.9640   24.2200   36.7320 H   0  0  0  0  0  0  0  0  0  0  0  0
   38.5070   22.3650   38.8380 H   0  0  0  0  0  0  0  0  0  0  0  0
   36.7090   22.7520   38.8970 H   0  0  0  0  0  0  0  0  0  0  0  0
   37.3220   25.2740   38.8200 H   0  0  0  0  0  0  0  0  0  0  0  0
   39.0960   24.7870   38.8670 H   0  0  0  0  0  0  0  0  0  0  0  0
   38.4640   25.9070   35.3420 C   0  0  0  0  0  0  0  0  0  0  0  0
   38.6490   27.1010   35.9930 C   0  0  0  0  0  0  0  0  0  0  0  0
   39.4110   27.3840   36.7320 H   0  0  0  0  0  0  0  0  0  0  0  0
   37.7430   28.0190   35.6400 N   0  0  0  0  0  0  0  0  0  0  0  0
   37.6300   29.0040   35.9610 H   0  0  0  0  0  0  0  0  0  0  0  0
   36.9620   27.4020   34.7440 C   0  0  0  0  0  0  0  0  0  0  0  0
   36.1040   27.7500   34.1940 H   0  0  0  0  0  0  0  0  0  0  0  0
   37.4040   26.1540   34.5820 N   0  0  0  0  0  0  0  0  0  0  0  0
  1  6  1  0  0  0  0
  1  9  1  0  0  0  0
  2  1  2  0  0  0  0
  3  4  2  0  0  0  0
  3  2  1  0  0  0  0
  4  5  1  0  0  0  0
  5  8  1  0  0  0  0
  5  6  2  0  0  0  0
  7  3  1  0  0  0  0
  9 10  1  0  0  0  0
  9 11  1  0  0  0  0
 10 11  1  0  0  0  0
 10 13  1  0  0  0  0
 10 14  1  0  0  0  0
 11 15  1  0  0  0  0
 11 16  1  0  0  0  0
 12  9  1  0  0  0  0
 17  2  1  0  0  0  0
 17 18  2  0  0  0  0
 18 19  1  0  0  0  0
 20 21  1  0  0  0  0
 20 18  1  0  0  0  0
 22 20  1  0  0  0  0
 23 22  1  0  0  0  0
 24 22  2  0  0  0  0
 24 17  1  0  0  0  0
M  END
>  <minimizedAffinity>
-4.136765

$$$$

 OpenBabel03272508183D

 24 26  0  0  0  0  0  0  0  0999 V2000
   37.9880   24.7110   34.3830 C   0  0  0  0  0  0  0  0  0  0  0  0
   38.4820   24.9080   35.6660 C   0  0  0  0  0  0  0  0  0  0  0  0
   38.3180   26.2260   36.1380 C   0  0  0  0  0  0  0  0  0  0  0  0
   37.7310   27.1770   35.3800 N   0  0  0  0  0  0  0  0  0  0  0  0
   37.2680   26.9330   34.1350 C   0  0  0  0  0  0  0  0  0  0  0  0
   37.4040   25.6910   33.6460 N   0  0  0  0  0  0  0  0  0  0  0  0
   38.6420   26.5610   37.1130 H   0  0  0  0  0  0  0  0  0  0  0  0
   36.7900   27.6420   33.4770 H   0  0  0  0  0  0  0  0  0  0  0  0
   38.0240   23.2920   33.8560 C   0  0  0  0  0  0  0  0  0  0  0  0
   37.7060   22.9740   32.4890 C   0  0  0  0  0  0  0  0  0  0  0  0
   39.1640   23.1410   32.8260 C   0  0  0  0  0  0  0  0  0  0  0  0
   38.1290   22.4940   34.6440 H   0  0  0  0  0  0  0  0  0  0  0  0
   37.2930   23.7740   31.8300 H   0  0  0  0  0  0  0  0  0  0  0  0
   37.3590   21.9690   32.1880 H   0  0  0  0  0  0  0  0  0  0  0  0
   39.8080   22.2900   32.9890 H   0  0  0  0  0  0  0  0  0  0  0  0
   39.6750   24.0610   32.5050 H   0  0  0  0  0  0  0  0  0  0  0  0
   39.1220   23.9400   36.5090 C   0  0  0  0  0  0  0  0  0  0  0  0
   38.5660   23.4950   37.6830 C   0  0  0  0  0  0  0  0  0  0  0  0
   37.6130   23.7730   38.1540 H   0  0  0  0  0  0  0  0  0  0  0  0
   39.3370   22.5950   38.3030 N   0  0  0  0  0  0  0  0  0  0  0  0
   39.1820   22.0870   39.2000 H   0  0  0  0  0  0  0  0  0  0  0  0
   40.4080   22.4590   37.5110 C   0  0  0  0  0  0  0  0  0  0  0  0
   41.2870   21.8450   37.6080 H   0  0  0  0  0  0  0  0  0  0  0  0
   40.2630   23.2630   36.4560 N   0  0  0  0  0  0  0  0  0  0  0  0
  1  2  1  0  0  0  0
  2  3  2  0  0  0  0
  2 17  1  0  0  0  0
  3  7  1  0  0  0  0
  4  3  1  0  0  0  0
  5  4  2  0  0  0  0
  6  5  1  0  0  0  0
  6  1  2  0  0  0  0
  8  5  1  0  0  0  0
  9  1  1  0  0  0  0
  9 12  1  0  0  0  0
 10 11  1  0  0  0  0
 10  9  1  0  0  0  0
 11 15  1  0  0  0  0
 11  9  1  0  0  0  0
 13 10  1  0  0  0  0
 14 10  1  0  0  0  0
 16 11  1  0  0  0  0
 17 18  2  0  0  0  0
 18 19  1  0  0  0  0
 18 20  1  0  0  0  0
 20 21  1  0  0  0  0
 22 23  1  0  0  0  0
 22 20  1  0  0  0  0
 24 17  1  0  0  0  0
 24 22  2  0  0  0  0
M  END
>  <minimizedAffinity>
-3.99910593

$$$$

 OpenBabel03272508183D

 24 26  0  0  0  0  0  0  0  0999 V2000
   38.2040   24.8190   35.1190 C   0  0  0  0  0  0  0  0  0  0  0  0
   38.0700   24.0180   33.9920 C   0  0  0  0  0  0  0  0  0  0  0  0
   37.9400   22.6450   34.2870 C   0  0  0  0  0  0  0  0  0  0  0  0
   37.9500   22.1950   35.5600 N   0  0  0  0  0  0  0  0  0  0  0  0
   38.0840   23.0180   36.6220 C   0  0  0  0  0  0  0  0  0  0  0  0
   38.2120   24.3330   36.3870 N   0  0  0  0  0  0  0  0  0  0  0  0
   37.8260   21.8760   33.5360 H   0  0  0  0  0  0  0  0  0  0  0  0
   38.1010   22.7280   37.6620 H   0  0  0  0  0  0  0  0  0  0  0  0
   38.2310   26.3140   34.8850 C   0  0  0  0  0  0  0  0  0  0  0  0
   38.5530   27.2480   35.9310 C   0  0  0  0  0  0  0  0  0  0  0  0
   39.6760   26.8420   35.0150 C   0  0  0  0  0  0  0  0  0  0  0  0
   37.8020   26.6490   33.8990 H   0  0  0  0  0  0  0  0  0  0  0  0
   38.6560   26.8730   36.9770 H   0  0  0  0  0  0  0  0  0  0  0  0
   38.2180   28.3000   35.9000 H   0  0  0  0  0  0  0  0  0  0  0  0
   39.9990   27.4730   34.2010 H   0  0  0  0  0  0  0  0  0  0  0  0
   40.4340   26.1390   35.3920 H   0  0  0  0  0  0  0  0  0  0  0  0
   38.0630   24.4400   32.6210 C   0  0  0  0  0  0  0  0  0  0  0  0
   36.9110   24.5410   31.8820 C   0  0  0  0  0  0  0  0  0  0  0  0
   35.8720   24.3360   32.1740 H   0  0  0  0  0  0  0  0  0  0  0  0
   37.1430   24.9540   30.6310 N   0  0  0  0  0  0  0  0  0  0  0  0
   36.4760   25.1220   29.8480 H   0  0  0  0  0  0  0  0  0  0  0  0
   38.4700   25.1200   30.5670 C   0  0  0  0  0  0  0  0  0  0  0  0
   39.1050   25.4400   29.7580 H   0  0  0  0  0  0  0  0  0  0  0  0
   38.9960   24.8110   31.7530 N   0  0  0  0  0  0  0  0  0  0  0  0
  1  6  1  0  0  0  0
  2  3  1  0  0  0  0
  2  1  2  0  0  0  0
  3  4  2  0  0  0  0
  4  5  1  0  0  0  0
  5  8  1  0  0  0  0
  6  5  2  0  0  0  0
  7  3  1  0  0  0  0
  9 11  1  0  0  0  0
  9  1  1  0  0  0  0
  9 10  1  0  0  0  0
 10 13  1  0  0  0  0
 11 16  1  0  0  0  0
 11 10  1  0  0  0  0
 12  9  1  0  0  0  0
 14 10  1  0  0  0  0
 15 11  1  0  0  0  0
 17  2  1  0  0  0  0
 18 19  1  0  0  0  0
 18 17  2  0  0  0  0
 20 18  1  0  0  0  0
 21 20  1  0  0  0  0
 22 20  1  0  0  0  0
 22 24  2  0  0  0  0
 23 22  1  0  0  0  0
 24 17  1  0  0  0  0
M  END
>  <minimizedAffinity>
-3.9500916

$$$$

 OpenBabel03272508183D

 24 26  0  0  0  0  0  0  0  0999 V2000
   36.9250   27.7380   33.7970 C   0  0  0  0  0  0  0  0  0  0  0  0
   36.6380   27.4240   32.4750 C   0  0  0  0  0  0  0  0  0  0  0  0
   35.5430   28.1390   31.9490 C   0  0  0  0  0  0  0  0  0  0  0  0
   34.8640   29.0360   32.6960 N   0  0  0  0  0  0  0  0  0  0  0  0
   35.1840   29.3040   33.9800 C   0  0  0  0  0  0  0  0  0  0  0  0
   36.2200   28.6450   34.5210 N   0  0  0  0  0  0  0  0  0  0  0  0
   35.1780   28.0240   30.9380 H   0  0  0  0  0  0  0  0  0  0  0  0
   34.6870   30.0060   34.6330 H   0  0  0  0  0  0  0  0  0  0  0  0
   38.1600   27.0950   34.3910 C   0  0  0  0  0  0  0  0  0  0  0  0
   38.5180   27.2570   35.7760 C   0  0  0  0  0  0  0  0  0  0  0  0
   37.7510   26.0140   35.4150 C   0  0  0  0  0  0  0  0  0  0  0  0
   38.8700   26.6460   33.6410 H   0  0  0  0  0  0  0  0  0  0  0  0
   37.9460   27.9840   36.4000 H   0  0  0  0  0  0  0  0  0  0  0  0
   39.5570   27.1370   36.1290 H   0  0  0  0  0  0  0  0  0  0  0  0
   38.2440   25.0620   35.2850 H   0  0  0  0  0  0  0  0  0  0  0  0
   36.6860   25.9560   35.6850 H   0  0  0  0  0  0  0  0  0  0  0  0
   37.3170   26.4750   31.6400 C   0  0  0  0  0  0  0  0  0  0  0  0
   36.7200   25.3240   31.1880 C   0  0  0  0  0  0  0  0  0  0  0  0
   35.7030   24.9480   31.3660 H   0  0  0  0  0  0  0  0  0  0  0  0
   37.5380   24.5920   30.4250 N   0  0  0  0  0  0  0  0  0  0  0  0
   37.3700   23.6810   29.9480 H   0  0  0  0  0  0  0  0  0  0  0  0
   38.6830   25.2860   30.3870 C   0  0  0  0  0  0  0  0  0  0  0  0
   39.6190   25.0810   29.8960 H   0  0  0  0  0  0  0  0  0  0  0  0
   38.5320   26.3960   31.1120 N   0  0  0  0  0  0  0  0  0  0  0  0
  1  9  1  0  0  0  0
  1  6  1  0  0  0  0
  2  1  2  0  0  0  0
  3  2  1  0  0  0  0
  3  4  2  0  0  0  0
  4  5  1  0  0  0  0
  5  6  2  0  0  0  0
  5  8  1  0  0  0  0
  7  3  1  0  0  0  0
  9 11  1  0  0  0  0
  9 10  1  0  0  0  0
 10 14  1  0  0  0  0
 10 13  1  0  0  0  0
 11 16  1  0  0  0  0
 11 10  1  0  0  0  0
 12  9  1  0  0  0  0
 15 11  1  0  0  0  0
 17  2  1  0  0  0  0
 18 19  1  0  0  0  0
 18 17  2  0  0  0  0
 20 18  1  0  0  0  0
 21 20  1  0  0  0  0
 22 20  1  0  0  0  0
 22 24  2  0  0  0  0
 23 22  1  0  0  0  0
 24 17  1  0  0  0  0
M  END
>  <minimizedAffinity>
-3.86656141

$$$$

 OpenBabel03272508183D

 24 26  0  0  0  0  0  0  0  0999 V2000
   37.9950   25.2780   34.1100 C   0  0  0  0  0  0  0  0  0  0  0  0
   37.6220   25.0950   32.7850 C   0  0  0  0  0  0  0  0  0  0  0  0
   37.4470   23.7410   32.4290 C   0  0  0  0  0  0  0  0  0  0  0  0
   37.6360   22.7480   33.3230 N   0  0  0  0  0  0  0  0  0  0  0  0
   38.0010   22.9810   34.6030 C   0  0  0  0  0  0  0  0  0  0  0  0
   38.1790   24.2550   34.9840 N   0  0  0  0  0  0  0  0  0  0  0  0
   37.1570   23.4110   31.4410 H   0  0  0  0  0  0  0  0  0  0  0  0
   38.1690   22.2390   35.3680 H   0  0  0  0  0  0  0  0  0  0  0  0
   38.0870   26.7090   34.5930 C   0  0  0  0  0  0  0  0  0  0  0  0
   38.5440   27.0430   35.9170 C   0  0  0  0  0  0  0  0  0  0  0  0
   39.5660   27.0980   34.8120 C   0  0  0  0  0  0  0  0  0  0  0  0
   37.6000   27.4710   33.9220 H   0  0  0  0  0  0  0  0  0  0  0  0
   38.7090   26.2220   36.6540 H   0  0  0  0  0  0  0  0  0  0  0  0
   38.2670   27.9920   36.4090 H   0  0  0  0  0  0  0  0  0  0  0  0
   39.8570   28.0320   34.3570 H   0  0  0  0  0  0  0  0  0  0  0  0
   40.3110   26.2910   34.7460 H   0  0  0  0  0  0  0  0  0  0  0  0
   37.4180   26.1090   31.7910 C   0  0  0  0  0  0  0  0  0  0  0  0
   36.2010   26.3280   31.1940 C   0  0  0  0  0  0  0  0  0  0  0  0
   35.2420   25.8150   31.3500 H   0  0  0  0  0  0  0  0  0  0  0  0
   36.2440   27.3220   30.3000 N   0  0  0  0  0  0  0  0  0  0  0  0
   35.4890   27.7120   29.6970 H   0  0  0  0  0  0  0  0  0  0  0  0
   37.5130   27.7500   30.3240 C   0  0  0  0  0  0  0  0  0  0  0  0
   38.0080   28.5300   29.7720 H   0  0  0  0  0  0  0  0  0  0  0  0
   38.1910   27.0190   31.2120 N   0  0  0  0  0  0  0  0  0  0  0  0
  1  9  1  0  0  0  0
  1  6  1  0  0  0  0
  2  1  2  0  0  0  0
  3  2  1  0  0  0  0
  3  4  2  0  0  0  0
  4  5  1  0  0  0  0
  5  6  2  0  0  0  0
  5  8  1  0  0  0  0
  7  3  1  0  0  0  0
  9 11  1  0  0  0  0
  9 10  1  0  0  0  0
 10 14  1  0  0  0  0
 10 13  1  0  0  0  0
 11 10  1  0  0  0  0
 12  9  1  0  0  0  0
 15 11  1  0  0  0  0
 16 11  1  0  0  0  0
 17  2  1  0  0  0  0
 18 19  1  0  0  0  0
 18 17  2  0  0  0  0
 20 22  1  0  0  0  0
 20 18  1  0  0  0  0
 21 20  1  0  0  0  0
 22 24  2  0  0  0  0
 23 22  1  0  0  0  0
 24 17  1  0  0  0  0
M  END
>  <minimizedAffinity>
-3.86258721

$$$$

 OpenBabel03272508183D

 24 26  0  0  0  0  0  0  0  0999 V2000
   39.4740   25.9540   35.3000 C   0  0  0  0  0  0  0  0  0  0  0  0
   39.6580   24.6130   35.6070 C   0  0  0  0  0  0  0  0  0  0  0  0
   40.9490   24.1350   35.3000 C   0  0  0  0  0  0  0  0  0  0  0  0
   41.8870   24.9410   34.7580 N   0  0  0  0  0  0  0  0  0  0  0  0
   41.6550   26.2410   34.4760 C   0  0  0  0  0  0  0  0  0  0  0  0
   40.4390   26.7370   34.7520 N   0  0  0  0  0  0  0  0  0  0  0  0
   41.2710   23.1180   35.4710 H   0  0  0  0  0  0  0  0  0  0  0  0
   42.3550   26.9400   34.0450 H   0  0  0  0  0  0  0  0  0  0  0  0
   38.1510   26.5650   35.7090 C   0  0  0  0  0  0  0  0  0  0  0  0
   37.7550   27.8850   35.2950 C   0  0  0  0  0  0  0  0  0  0  0  0
   37.2420   26.7340   34.4730 C   0  0  0  0  0  0  0  0  0  0  0  0
   37.5910   25.9980   36.5060 H   0  0  0  0  0  0  0  0  0  0  0  0
   38.4960   28.5310   34.7680 H   0  0  0  0  0  0  0  0  0  0  0  0
   37.0180   28.4800   35.8640 H   0  0  0  0  0  0  0  0  0  0  0  0
   36.2390   26.3520   34.5960 H   0  0  0  0  0  0  0  0  0  0  0  0
   37.6960   26.5480   33.4880 H   0  0  0  0  0  0  0  0  0  0  0  0
   38.6970   23.7100   36.1720 C   0  0  0  0  0  0  0  0  0  0  0  0
   38.5650   23.5190   37.5250 C   0  0  0  0  0  0  0  0  0  0  0  0
   39.1200   23.9790   38.3540 H   0  0  0  0  0  0  0  0  0  0  0  0
   37.6070   22.6350   37.8230 N   0  0  0  0  0  0  0  0  0  0  0  0
   37.2810   22.2900   38.7510 H   0  0  0  0  0  0  0  0  0  0  0  0
   37.1150   22.2510   36.6380 C   0  0  0  0  0  0  0  0  0  0  0  0
   36.3330   21.5540   36.3890 H   0  0  0  0  0  0  0  0  0  0  0  0
   37.7720   22.8980   35.6740 N   0  0  0  0  0  0  0  0  0  0  0  0
  1  2  1  0  0  0  0
  1  9  1  0  0  0  0
  2 17  1  0  0  0  0
  3  7  1  0  0  0  0
  3  2  2  0  0  0  0
  4  3  1  0  0  0  0
  5  6  1  0  0  0  0
  5  4  2  0  0  0  0
  6  1  2  0  0  0  0
  8  5  1  0  0  0  0
  9 12  1  0  0  0  0
 10  9  1  0  0  0  0
 10 14  1  0  0  0  0
 11 15  1  0  0  0  0
 11 10  1  0  0  0  0
 11  9  1  0  0  0  0
 13 10  1  0  0  0  0
 16 11  1  0  0  0  0
 17 18  2  0  0  0  0
 18 20  1  0  0  0  0
 18 19  1  0  0  0  0
 20 21  1  0  0  0  0
 22 20  1  0  0  0  0
 23 22  1  0  0  0  0
 24 17  1  0  0  0  0
 24 22  2  0  0  0  0
M  END
>  <minimizedAffinity>
-3.84955406

$$$$

 OpenBabel03272508183D

 24 26  0  0  0  0  0  0  0  0999 V2000
   36.4080   27.0660   31.9850 C   0  0  0  0  0  0  0  0  0  0  0  0
   37.0610   26.2260   32.8770 C   0  0  0  0  0  0  0  0  0  0  0  0
   36.7830   24.8580   32.6730 C   0  0  0  0  0  0  0  0  0  0  0  0
   35.9540   24.4480   31.6900 N   0  0  0  0  0  0  0  0  0  0  0  0
   35.3420   25.3090   30.8480 C   0  0  0  0  0  0  0  0  0  0  0  0
   35.5780   26.6200   31.0070 N   0  0  0  0  0  0  0  0  0  0  0  0
   37.2030   24.0620   33.2720 H   0  0  0  0  0  0  0  0  0  0  0  0
   34.6700   25.0520   30.0430 H   0  0  0  0  0  0  0  0  0  0  0  0
   36.7500   28.5380   32.0700 C   0  0  0  0  0  0  0  0  0  0  0  0
   36.0120   29.5390   31.3460 C   0  0  0  0  0  0  0  0  0  0  0  0
   35.6110   29.3040   32.7770 C   0  0  0  0  0  0  0  0  0  0  0  0
   37.7260   28.7710   32.5820 H   0  0  0  0  0  0  0  0  0  0  0  0
   35.2520   29.2140   30.5970 H   0  0  0  0  0  0  0  0  0  0  0  0
   36.4530   30.5190   31.0890 H   0  0  0  0  0  0  0  0  0  0  0  0
   35.9350   29.9590   33.5710 H   0  0  0  0  0  0  0  0  0  0  0  0
   34.6830   28.7480   32.9780 H   0  0  0  0  0  0  0  0  0  0  0  0
   37.9420   26.6060   33.9440 C   0  0  0  0  0  0  0  0  0  0  0  0
   37.4850   27.0410   35.1640 C   0  0  0  0  0  0  0  0  0  0  0  0
   36.4530   27.1680   35.5190 H   0  0  0  0  0  0  0  0  0  0  0  0
   38.4820   27.3390   36.0040 N   0  0  0  0  0  0  0  0  0  0  0  0
   38.4470   27.6890   36.9850 H   0  0  0  0  0  0  0  0  0  0  0  0
   39.6000   27.0910   35.3100 C   0  0  0  0  0  0  0  0  0  0  0  0
   40.6380   27.1880   35.5810 H   0  0  0  0  0  0  0  0  0  0  0  0
   39.2600   26.6590   34.0940 N   0  0  0  0  0  0  0  0  0  0  0  0
  1  9  1  0  0  0  0
  1  2  1  0  0  0  0
  2 17  1  0  0  0  0
  3  2  2  0  0  0  0
  3  7  1  0  0  0  0
  4  3  1  0  0  0  0
  5  6  1  0  0  0  0
  5  4  2  0  0  0  0
  6  1  2  0  0  0  0
  8  5  1  0  0  0  0
  9 12  1  0  0  0  0
  9 11  1  0  0  0  0
 10  9  1  0  0  0  0
 10 11  1  0  0  0  0
 11 16  1  0  0  0  0
 11 15  1  0  0  0  0
 13 10  1  0  0  0  0
 14 10  1  0  0  0  0
 17 24  1  0  0  0  0
 17 18  2  0  0  0  0
 18 19  1  0  0  0  0
 18 20  1  0  0  0  0
 20 21  1  0  0  0  0
 22 23  1  0  0  0  0
 22 20  1  0  0  0  0
 24 22  2  0  0  0  0
M  END
>  <minimizedAffinity>
-3.79761314

$$$$

 OpenBabel03272508183D

 24 26  0  0  0  0  0  0  0  0999 V2000
   36.8680   27.6450   33.4180 C   0  0  0  0  0  0  0  0  0  0  0  0
   36.0900   28.7560   33.1250 C   0  0  0  0  0  0  0  0  0  0  0  0
   36.0010   29.0360   31.7460 C   0  0  0  0  0  0  0  0  0  0  0  0
   36.6300   28.2700   30.8300 N   0  0  0  0  0  0  0  0  0  0  0  0
   37.3790   27.1970   31.1690 C   0  0  0  0  0  0  0  0  0  0  0  0
   37.4910   26.8950   32.4720 N   0  0  0  0  0  0  0  0  0  0  0  0
   35.4380   29.8620   31.3340 H   0  0  0  0  0  0  0  0  0  0  0  0
   37.9070   26.5430   30.4930 H   0  0  0  0  0  0  0  0  0  0  0  0
   36.9140   27.2160   34.8690 C   0  0  0  0  0  0  0  0  0  0  0  0
   37.7490   26.1350   35.3230 C   0  0  0  0  0  0  0  0  0  0  0  0
   38.3020   27.5280   35.4690 C   0  0  0  0  0  0  0  0  0  0  0  0
   36.1170   27.6690   35.5240 H   0  0  0  0  0  0  0  0  0  0  0  0
   38.2790   25.5080   34.5680 H   0  0  0  0  0  0  0  0  0  0  0  0
   37.5250   25.5710   36.2470 H   0  0  0  0  0  0  0  0  0  0  0  0
   38.2760   28.0510   36.4120 H   0  0  0  0  0  0  0  0  0  0  0  0
   39.0860   27.8570   34.7710 H   0  0  0  0  0  0  0  0  0  0  0  0
   35.4090   29.6110   34.0550 C   0  0  0  0  0  0  0  0  0  0  0  0
   34.0530   29.5500   34.2620 C   0  0  0  0  0  0  0  0  0  0  0  0
   33.3030   28.8960   33.7970 H   0  0  0  0  0  0  0  0  0  0  0  0
   33.6370   30.4370   35.1730 N   0  0  0  0  0  0  0  0  0  0  0  0
   32.6770   30.6240   35.5340 H   0  0  0  0  0  0  0  0  0  0  0  0
   34.7480   31.0790   35.5570 C   0  0  0  0  0  0  0  0  0  0  0  0
   34.8960   31.8730   36.2690 H   0  0  0  0  0  0  0  0  0  0  0  0
   35.7840   30.5770   34.8840 N   0  0  0  0  0  0  0  0  0  0  0  0
  1  9  1  0  0  0  0
  2  1  1  0  0  0  0
  2 17  1  0  0  0  0
  3  2  2  0  0  0  0
  4  5  2  0  0  0  0
  4  3  1  0  0  0  0
  5  6  1  0  0  0  0
  6  1  2  0  0  0  0
  7  3  1  0  0  0  0
  8  5  1  0  0  0  0
  9 10  1  0  0  0  0
  9 11  1  0  0  0  0
  9 12  1  0  0  0  0
 10 11  1  0  0  0  0
 10 14  1  0  0  0  0
 11 15  1  0  0  0  0
 13 10  1  0  0  0  0
 16 11  1  0  0  0  0
 17 18  2  0  0  0  0
 17 24  1  0  0  0  0
 18 20  1  0  0  0  0
 19 18  1  0  0  0  0
 20 21  1  0  0  0  0
 20 22  1  0  0  0  0
 22 23  1  0  0  0  0
 24 22  2  0  0  0  0
M  END
>  <minimizedAffinity>
-3.71475959

$$$$
