
 OpenBabel03272509423D

 37 39  0  0  1  0  0  0  0  0999 V2000
   37.1250   30.9470   49.0190 C   0  0  0  0  0  0  0  0  0  0  0  0
   36.8600   31.8760   50.0290 C   0  0  0  0  0  0  0  0  0  0  0  0
   37.4550   33.1270   50.0420 C   0  0  0  0  0  0  0  0  0  0  0  0
   38.3430   33.4800   49.0240 C   0  0  0  0  0  0  0  0  0  0  0  0
   38.5910   32.5580   48.0420 C   0  0  0  0  0  0  0  0  0  0  0  0
   37.9810   31.3150   48.0590 C   0  0  0  0  0  0  0  0  0  0  0  0
   36.1660   31.5870   50.8140 H   0  0  0  0  0  0  0  0  0  0  0  0
   37.1820   33.7610   50.8610 H   0  0  0  0  0  0  0  0  0  0  0  0
   38.7640   34.4710   49.1040 H   0  0  0  0  0  0  0  0  0  0  0  0
   39.3030   32.9730   47.3230 H   0  0  0  0  0  0  0  0  0  0  0  0
   36.5300   29.6290   49.0210 C   0  0  2  0  0  0  0  0  0  0  0  0
   37.0210   29.0720   48.1340 H   0  0  0  0  0  0  0  0  0  0  0  0
   33.6350   29.9950   46.8570 C   0  0  0  0  0  0  0  0  0  0  0  0
   32.9060   28.8400   47.0750 C   0  0  0  0  0  0  0  0  0  0  0  0
   33.3710   27.9450   48.0200 C   0  0  0  0  0  0  0  0  0  0  0  0
   34.5320   28.2280   48.7040 N   0  0  0  0  0  0  0  0  0  0  0  0
   35.1840   29.3430   48.4520 C   0  0  0  0  0  0  0  0  0  0  0  0
   34.7430   30.2340   47.5320 N   0  0  0  0  0  0  0  0  0  0  0  0
   33.2910   30.7180   46.1200 H   0  0  0  0  0  0  0  0  0  0  0  0
   32.0170   28.7090   46.4930 H   0  0  0  0  0  0  0  0  0  0  0  0
   32.8080   27.0430   48.1980 H   0  0  0  0  0  0  0  0  0  0  0  0
   37.0010   28.8750   49.9520 O   0  0  0  0  0  0  0  0  0  0  0  0
   37.6670   29.3100   50.5050 H   0  0  0  0  0  0  0  0  0  0  0  0
   38.3550   30.4330   46.9780 C   0  0  0  0  0  0  0  0  0  0  0  0
   38.8720   30.8550   45.8180 C   0  0  0  0  0  0  0  0  0  0  0  0
   39.3260   30.0470   44.6610 C   0  0  0  0  0  0  0  0  0  0  0  0
   38.5450   29.2630   44.4770 H   0  0  0  0  0  0  0  0  0  0  0  0
   40.2610   29.4850   44.8550 H   0  0  0  0  0  0  0  0  0  0  0  0
   39.4010   31.0800   43.1950 S   0  0  0  0  0  0  0  0  0  0  0  0
   40.5370   30.4140   41.9740 C   0  0  0  0  0  0  0  0  0  0  0  0
   41.3790   29.3390   42.2400 C   0  0  0  0  0  0  0  0  0  0  0  0
   41.4440   28.8010   43.1790 H   0  0  0  0  0  0  0  0  0  0  0  0
   42.0720   29.1260   41.1090 N   0  0  0  0  0  0  0  0  0  0  0  0
   42.7860   28.3660   41.0250 H   0  0  0  0  0  0  0  0  0  0  0  0
   41.7140   30.0010   40.1520 C   0  0  0  0  0  0  0  0  0  0  0  0
   42.0960   30.0750   39.1410 H   0  0  0  0  0  0  0  0  0  0  0  0
   40.7640   30.7940   40.6960 N   0  0  0  0  0  0  0  0  0  0  0  0
  1 11  1  0  0  0  0
  1  2  1  0  0  0  0
  2  3  2  0  0  0  0
  2  7  1  0  0  0  0
  3  8  1  0  0  0  0
  4  9  1  0  0  0  0
  4  3  1  0  0  0  0
  5  6  1  0  0  0  0
  5  4  2  0  0  0  0
  6  1  2  0  0  0  0
 10  5  1  0  0  0  0
 11 12  1  6  0  0  0
 11 22  1  0  0  0  0
 13 14  2  0  0  0  0
 13 18  1  0  0  0  0
 14 15  1  0  0  0  0
 15 21  1  0  0  0  0
 15 16  2  0  0  0  0
 17 16  1  0  0  0  0
 17 11  1  0  0  0  0
 18 17  2  0  0  0  0
 19 13  1  0  0  0  0
 20 14  1  0  0  0  0
 22 23  1  0  0  0  0
 24  6  1  0  0  0  0
 25 24  2  0  0  0  0
 26 28  1  0  0  0  0
 26 25  1  0  0  0  0
 27 26  1  0  0  0  0
 29 26  1  0  0  0  0
 30 31  2  0  0  0  0
 30 29  1  0  0  0  0
 31 32  1  0  0  0  0
 33 31  1  0  0  0  0
 34 33  1  0  0  0  0
 35 37  2  0  0  0  0
 35 33  1  0  0  0  0
 36 35  1  0  0  0  0
 37 30  1  0  0  0  0
M  END
>  <minimizedAffinity>
-6.05016756

>  <minimizedRMSD>
0.758954227

$$$$
