
 OpenBabel03262522473D

 24 26  0  0  0  0  0  0  0  0999 V2000
   36.0800   30.0920   48.8220 C   0  0  0  0  0  0  0  0  0  0  0  0
   35.9590   29.1910   49.8030 C   0  0  0  0  0  0  0  0  0  0  0  0
   34.9320   28.2910   49.7910 C   0  0  0  0  0  0  0  0  0  0  0  0
   34.0620   28.3860   48.7220 C   0  0  0  0  0  0  0  0  0  0  0  0
   34.7550   29.7770   47.7630 S   0  0  0  0  0  0  0  0  0  0  0  0
   36.6990   29.1800   50.6240 H   0  0  0  0  0  0  0  0  0  0  0  0
   34.7380   27.5240   50.5270 H   0  0  0  0  0  0  0  0  0  0  0  0
   38.0130   33.1320   49.4130 C   0  0  0  0  0  0  0  0  0  0  0  0
   38.9610   33.1050   48.3600 C   0  0  0  0  0  0  0  0  0  0  0  0
   38.9170   32.0300   47.4550 C   0  0  0  0  0  0  0  0  0  0  0  0
   37.9690   31.0680   47.6330 N   0  0  0  0  0  0  0  0  0  0  0  0
   37.0920   31.1370   48.6450 C   0  0  0  0  0  0  0  0  0  0  0  0
   37.0900   32.1440   49.5400 N   0  0  0  0  0  0  0  0  0  0  0  0
   38.0150   33.9380   50.1250 H   0  0  0  0  0  0  0  0  0  0  0  0
   39.6860   33.9060   48.2830 H   0  0  0  0  0  0  0  0  0  0  0  0
   39.6340   31.9950   46.6460 H   0  0  0  0  0  0  0  0  0  0  0  0
   32.8810   27.5910   48.4130 C   0  0  0  0  0  0  0  0  0  0  0  0
   32.7600   26.5200   47.5430 C   0  0  0  0  0  0  0  0  0  0  0  0
   33.6230   26.1790   46.9880 H   0  0  0  0  0  0  0  0  0  0  0  0
   31.4700   26.1450   47.6230 N   0  0  0  0  0  0  0  0  0  0  0  0
   31.1020   25.3510   47.0640 H   0  0  0  0  0  0  0  0  0  0  0  0
   30.8020   26.9240   48.4900 C   0  0  0  0  0  0  0  0  0  0  0  0
   29.7620   26.8770   48.7720 H   0  0  0  0  0  0  0  0  0  0  0  0
   31.6820   27.8370   48.9920 N   0  0  0  0  0  0  0  0  0  0  0  0
  1  2  2  0  0  0  0
  2  6  1  0  0  0  0
  3  2  1  0  0  0  0
  3  7  1  0  0  0  0
  4  3  2  0  0  0  0
  5  4  1  0  0  0  0
  5  1  1  0  0  0  0
  8 13  1  0  0  0  0
  8 14  1  0  0  0  0
  9  8  2  0  0  0  0
 10 11  2  0  0  0  0
 10  9  1  0  0  0  0
 11 12  1  0  0  0  0
 12  1  1  0  0  0  0
 12 13  2  0  0  0  0
 15  9  1  0  0  0  0
 16 10  1  0  0  0  0
 17  4  1  0  0  0  0
 17 24  1  0  0  0  0
 18 20  1  0  0  0  0
 18 17  2  0  0  0  0
 19 18  1  0  0  0  0
 20 22  1  0  0  0  0
 21 20  1  0  0  0  0
 22 23  1  0  0  0  0
 22 24  2  0  0  0  0
M  END
>  <minimizedAffinity>
-5.05169821

>  <minimizedRMSD>
0.380077332

$$$$
