
 OpenBabel03272510333D

 27 29  0  0  0  0  0  0  0  0999 V2000
   35.9920   30.1320   48.0500 C   0  0  0  0  0  0  0  0  0  0  0  0
   35.2960   30.0780   46.8740 C   0  0  0  0  0  0  0  0  0  0  0  0
   34.2940   29.1490   46.6630 C   0  0  0  0  0  0  0  0  0  0  0  0
   34.0110   28.2640   47.6920 C   0  0  0  0  0  0  0  0  0  0  0  0
   34.6930   28.2930   48.8900 C   0  0  0  0  0  0  0  0  0  0  0  0
   35.6880   29.2350   49.0610 C   0  0  0  0  0  0  0  0  0  0  0  0
   35.4920   30.7570   46.0450 H   0  0  0  0  0  0  0  0  0  0  0  0
   33.7230   29.0800   45.7400 H   0  0  0  0  0  0  0  0  0  0  0  0
   33.2340   27.4990   47.6060 H   0  0  0  0  0  0  0  0  0  0  0  0
   34.4580   27.5960   49.6740 H   0  0  0  0  0  0  0  0  0  0  0  0
   37.8430   32.9810   49.3420 C   0  0  0  0  0  0  0  0  0  0  0  0
   38.9440   33.0960   48.4970 C   0  0  0  0  0  0  0  0  0  0  0  0
   39.0490   32.1630   47.4520 C   0  0  0  0  0  0  0  0  0  0  0  0
   38.0800   31.2280   47.3430 N   0  0  0  0  0  0  0  0  0  0  0  0
   37.0270   31.1440   48.1780 C   0  0  0  0  0  0  0  0  0  0  0  0
   36.9110   32.0310   49.1850 N   0  0  0  0  0  0  0  0  0  0  0  0
   37.8290   33.7360   50.1260 H   0  0  0  0  0  0  0  0  0  0  0  0
   39.7300   33.8170   48.5460 H   0  0  0  0  0  0  0  0  0  0  0  0
   39.8620   32.1510   46.7300 H   0  0  0  0  0  0  0  0  0  0  0  0
   36.4370   29.3070   50.3120 C   0  0  0  0  0  0  0  0  0  0  0  0
   37.6950   28.7370   50.3710 C   0  0  0  0  0  0  0  0  0  0  0  0
   38.2720   28.2070   49.6010 H   0  0  0  0  0  0  0  0  0  0  0  0
   38.1830   28.9280   51.6140 N   0  0  0  0  0  0  0  0  0  0  0  0
   39.1010   28.6280   52.0010 H   0  0  0  0  0  0  0  0  0  0  0  0
   37.2540   29.6090   52.3420 C   0  0  0  0  0  0  0  0  0  0  0  0
   37.3040   29.9360   53.3830 H   0  0  0  0  0  0  0  0  0  0  0  0
   36.1920   29.8390   51.5460 N   0  0  0  0  0  0  0  0  0  0  0  0
  1 15  1  0  0  0  0
  1  6  1  0  0  0  0
  2  1  2  0  0  0  0
  3  2  1  0  0  0  0
  3  4  2  0  0  0  0
  4  5  1  0  0  0  0
  5  6  2  0  0  0  0
  5 10  1  0  0  0  0
  6 20  1  0  0  0  0
  7  2  1  0  0  0  0
  8  3  1  0  0  0  0
  9  4  1  0  0  0  0
 11 17  1  0  0  0  0
 12 18  1  0  0  0  0
 12 11  2  0  0  0  0
 13 12  1  0  0  0  0
 14 13  2  0  0  0  0
 14 15  1  0  0  0  0
 15 16  2  0  0  0  0
 16 11  1  0  0  0  0
 19 13  1  0  0  0  0
 20 21  2  0  0  0  0
 20 27  1  0  0  0  0
 21 23  1  0  0  0  0
 22 21  1  0  0  0  0
 23 24  1  0  0  0  0
 23 25  1  0  0  0  0
 25 26  1  0  0  0  0
 27 25  2  0  0  0  0
M  END
>  <minimizedAffinity>
-5.16669941

>  <minimizedRMSD>
0.695229709

$$$$
