
 OpenBabel03272510333D

 27 29  0  0  0  0  0  0  0  0999 V2000
   35.7730   29.9150   47.8740 C   0  0  0  0  0  0  0  0  0  0  0  0
   34.9190   29.8830   46.8060 C   0  0  0  0  0  0  0  0  0  0  0  0
   33.7910   29.0830   46.7990 C   0  0  0  0  0  0  0  0  0  0  0  0
   33.5480   28.3060   47.9220 C   0  0  0  0  0  0  0  0  0  0  0  0
   34.3880   28.3160   49.0140 C   0  0  0  0  0  0  0  0  0  0  0  0
   35.5050   29.1270   48.9820 C   0  0  0  0  0  0  0  0  0  0  0  0
   35.0810   30.4800   45.9090 H   0  0  0  0  0  0  0  0  0  0  0  0
   33.0940   29.0350   45.9660 H   0  0  0  0  0  0  0  0  0  0  0  0
   32.6780   27.6460   47.9960 H   0  0  0  0  0  0  0  0  0  0  0  0
   34.1800   27.7050   49.8730 H   0  0  0  0  0  0  0  0  0  0  0  0
   38.0690   32.6300   48.6290 C   0  0  0  0  0  0  0  0  0  0  0  0
   39.0950   32.4900   47.6990 C   0  0  0  0  0  0  0  0  0  0  0  0
   38.9910   31.4270   46.7860 C   0  0  0  0  0  0  0  0  0  0  0  0
   37.9090   30.6240   46.8760 N   0  0  0  0  0  0  0  0  0  0  0  0
   36.9320   30.7870   47.7880 C   0  0  0  0  0  0  0  0  0  0  0  0
   37.0160   31.8010   48.6710 N   0  0  0  0  0  0  0  0  0  0  0  0
   38.2170   33.4720   49.3030 H   0  0  0  0  0  0  0  0  0  0  0  0
   39.9660   33.0990   47.5940 H   0  0  0  0  0  0  0  0  0  0  0  0
   39.7290   31.2170   46.0160 H   0  0  0  0  0  0  0  0  0  0  0  0
   36.4230   29.1740   50.1160 C   0  0  0  0  0  0  0  0  0  0  0  0
   35.9800   29.7020   51.3140 C   0  0  0  0  0  0  0  0  0  0  0  0
   35.0010   30.1190   51.5890 H   0  0  0  0  0  0  0  0  0  0  0  0
   36.9950   29.6390   52.1990 N   0  0  0  0  0  0  0  0  0  0  0  0
   37.0050   29.9490   53.1930 H   0  0  0  0  0  0  0  0  0  0  0  0
   38.0730   29.0800   51.5810 C   0  0  0  0  0  0  0  0  0  0  0  0
   39.0660   28.8750   51.9880 H   0  0  0  0  0  0  0  0  0  0  0  0
   37.7210   28.7990   50.3120 N   0  0  0  0  0  0  0  0  0  0  0  0
  1  6  1  0  0  0  0
  2  1  2  0  0  0  0
  3  2  1  0  0  0  0
  3  4  2  0  0  0  0
  4  9  1  0  0  0  0
  4  5  1  0  0  0  0
  5 10  1  0  0  0  0
  6  5  2  0  0  0  0
  6 20  1  0  0  0  0
  7  2  1  0  0  0  0
  8  3  1  0  0  0  0
 11 16  1  0  0  0  0
 11 17  1  0  0  0  0
 12 11  2  0  0  0  0
 13 14  2  0  0  0  0
 13 12  1  0  0  0  0
 14 15  1  0  0  0  0
 15  1  1  0  0  0  0
 15 16  2  0  0  0  0
 18 12  1  0  0  0  0
 19 13  1  0  0  0  0
 20 27  1  0  0  0  0
 20 21  2  0  0  0  0
 21 22  1  0  0  0  0
 21 23  1  0  0  0  0
 23 24  1  0  0  0  0
 25 26  1  0  0  0  0
 25 23  1  0  0  0  0
 27 25  2  0  0  0  0
M  END
>  <minimizedAffinity>
-4.68113279

>  <minimizedRMSD>
1.00147176

$$$$
