
 OpenBabel03272503413D

 44 48  0  0  1  0  0  0  0  0999 V2000
   39.7950   30.6950   41.8670 C   0  0  2  0  0  0  0  0  0  0  0  0
   39.9730   31.8910   42.7900 C   0  0  1  0  0  0  0  0  0  0  0  0
   38.9880   32.8340   42.1330 C   0  0  0  0  0  0  0  0  0  0  0  0
   39.0340   32.6040   40.7780 O   0  0  0  0  0  0  0  0  0  0  0  0
   39.7270   31.4570   40.5300 C   0  0  0  0  0  0  0  0  0  0  0  0
   40.6370   29.9950   41.8790 H   0  0  0  0  0  0  0  0  0  0  0  0
   40.9710   32.3440   42.7410 H   0  0  0  0  0  0  0  0  0  0  0  0
   39.1830   33.8880   42.4070 H   0  0  0  0  0  0  0  0  0  0  0  0
   37.9840   32.5530   42.4820 H   0  0  0  0  0  0  0  0  0  0  0  0
   40.7990   31.7390   40.3200 H   0  0  0  0  0  0  0  0  0  0  0  0
   39.3030   30.7940   39.7580 H   0  0  0  0  0  0  0  0  0  0  0  0
   38.5280   31.0900   45.9730 C   0  0  0  0  0  0  0  0  0  0  0  0
   39.8460   31.0920   46.3080 C   0  0  0  0  0  0  0  0  0  0  0  0
   40.5060   31.4000   45.1160 C   0  0  0  0  0  0  0  0  0  0  0  0
   39.6170   31.5660   44.1410 N   0  0  0  0  0  0  0  0  0  0  0  0
   38.3900   31.3760   44.6620 N   0  0  0  0  0  0  0  0  0  0  0  0
   40.2520   30.8930   47.3060 H   0  0  0  0  0  0  0  0  0  0  0  0
   41.6040   31.4700   45.0970 H   0  0  0  0  0  0  0  0  0  0  0  0
   36.4600   30.6430   49.0760 C   0  0  0  0  0  0  0  0  0  0  0  0
   37.5360   30.9090   48.2510 C   0  0  0  0  0  0  0  0  0  0  0  0
   37.4170   30.8190   46.8830 C   0  0  0  0  0  0  0  0  0  0  0  0
   36.2120   30.4640   46.3820 N   0  0  0  0  0  0  0  0  0  0  0  0
   35.1590   30.2060   47.2120 C   0  0  0  0  0  0  0  0  0  0  0  0
   35.2670   30.2900   48.5220 N   0  0  0  0  0  0  0  0  0  0  0  0
   38.5210   31.1960   48.6020 H   0  0  0  0  0  0  0  0  0  0  0  0
   34.1910   29.9210   46.8090 H   0  0  0  0  0  0  0  0  0  0  0  0
   36.7470   30.7790   50.4300 O   0  0  0  0  0  0  0  0  0  0  0  0
   36.8140   29.6900   51.3260 C   0  0  0  0  0  0  0  0  0  0  0  0
   35.5430   29.2100   51.6240 F   0  0  0  0  0  0  0  0  0  0  0  0
   37.4660   30.1000   52.4600 F   0  0  0  0  0  0  0  0  0  0  0  0
   37.5620   28.6920   50.7410 F   0  0  0  0  0  0  0  0  0  0  0  0
   38.5390   30.1570   42.1380 O   0  0  0  0  0  0  0  0  0  0  0  0
   36.9130   28.5140   42.3300 C   0  0  0  0  0  0  0  0  0  0  0  0
   38.2740   28.8270   42.3950 C   0  0  0  0  0  0  0  0  0  0  0  0
   39.1670   27.8180   42.6950 C   0  0  0  0  0  0  0  0  0  0  0  0
   40.1970   28.1290   42.7270 H   0  0  0  0  0  0  0  0  0  0  0  0
   38.7320   26.5310   42.9250 C   0  0  0  0  0  0  0  0  0  0  0  0
   39.4470   25.4190   43.2300 N   0  0  0  0  0  0  0  0  0  0  0  0
   40.4820   25.3680   43.3390 H   0  0  0  0  0  0  0  0  0  0  0  0
   38.5590   24.4070   43.3590 C   0  0  0  0  0  0  0  0  0  0  0  0
   38.8530   23.3850   43.6030 H   0  0  0  0  0  0  0  0  0  0  0  0
   37.2700   24.8480   43.1410 C   0  0  0  0  0  0  0  0  0  0  0  0
   37.4040   26.1990   42.8680 C   0  0  0  0  0  0  0  0  0  0  0  0
   36.5070   27.1970   42.5710 C   0  0  0  0  0  0  0  0  0  0  0  0
  1  6  1  1  0  0  0
  1 32  1  0  0  0  0
  1  2  1  0  0  0  0
  2  7  1  6  0  0  0
  2 15  1  0  0  0  0
  3  8  1  0  0  0  0
  3  9  1  0  0  0  0
  3  2  1  0  0  0  0
  4  3  1  0  0  0  0
  5  4  1  0  0  0  0
  5  1  1  0  0  0  0
 10  5  1  0  0  0  0
 11  5  1  0  0  0  0
 12 13  1  0  0  0  0
 12 21  1  0  0  0  0
 13 17  1  0  0  0  0
 14 13  2  0  0  0  0
 15 16  1  0  0  0  0
 15 14  1  0  0  0  0
 16 12  2  0  0  0  0
 18 14  1  0  0  0  0
 19 27  1  0  0  0  0
 20 25  1  0  0  0  0
 20 19  2  0  0  0  0
 21 20  1  0  0  0  0
 22 21  2  0  0  0  0
 22 23  1  0  0  0  0
 23 24  2  0  0  0  0
 24 19  1  0  0  0  0
 26 23  1  0  0  0  0
 27 28  1  0  0  0  0
 28 29  1  0  0  0  0
 28 30  1  0  0  0  0
 31 28  1  0  0  0  0
 32 34  1  0  0  0  0
 33 34  2  0  0  0  0
 33 44  1  0  0  0  0
 34 35  1  0  0  0  0
 35 36  1  0  0  0  0
 35 37  2  0  0  0  0
 37 38  1  0  0  0  0
 38 39  1  0  0  0  0
 38 40  1  0  0  0  0
 40 41  1  0  0  0  0
 42 40  2  0  0  0  0
 43 37  1  0  0  0  0
 43 42  1  0  0  0  0
 44 43  2  0  0  0  0
M  END
>  <minimizedAffinity>
-6.73187065

>  <minimizedRMSD>
0.374009341

$$$$
