
 OpenBabel03262521083D

 48 51  0  0  1  0  0  0  0  0999 V2000
   37.3390   31.4480   45.5460 C   0  0  2  0  0  0  0  0  0  0  0  0
   38.3770   30.9620   44.6470 C   0  0  0  0  0  0  0  0  0  0  0  0
   39.6620   30.5690   45.3740 C   0  0  0  0  0  0  0  0  0  0  0  0
   40.2260   31.6810   46.1990 C   0  0  0  0  0  0  0  0  0  0  0  0
   39.1770   32.5530   46.8520 C   0  0  0  0  0  0  0  0  0  0  0  0
   37.8300   31.8360   46.9150 C   0  0  2  0  0  0  0  0  0  0  0  0
   36.8980   32.3870   45.0930 H   0  0  0  0  0  0  0  0  0  0  0  0
   38.7260   31.7760   43.9320 H   0  0  0  0  0  0  0  0  0  0  0  0
   38.1730   30.1100   43.9850 H   0  0  0  0  0  0  0  0  0  0  0  0
   40.4010   30.3900   44.5570 H   0  0  0  0  0  0  0  0  0  0  0  0
   39.5880   29.6050   45.8950 H   0  0  0  0  0  0  0  0  0  0  0  0
   40.8190   31.2130   47.0380 H   0  0  0  0  0  0  0  0  0  0  0  0
   40.9460   32.3330   45.6600 H   0  0  0  0  0  0  0  0  0  0  0  0
   39.4310   32.8620   47.8800 H   0  0  0  0  0  0  0  0  0  0  0  0
   39.0170   33.4550   46.2240 H   0  0  0  0  0  0  0  0  0  0  0  0
   37.1200   32.6050   47.3060 H   0  0  0  0  0  0  0  0  0  0  0  0
   36.1920   30.5540   45.7330 C   0  0  0  0  0  0  0  0  0  0  0  0
   35.8770   29.7750   44.6150 C   0  0  0  0  0  0  0  0  0  0  0  0
   34.8090   28.9030   44.7440 C   0  0  0  0  0  0  0  0  0  0  0  0
   34.1260   28.8420   45.9260 N   0  0  0  0  0  0  0  0  0  0  0  0
   34.4620   29.6090   46.9770 C   0  0  0  0  0  0  0  0  0  0  0  0
   35.4680   30.4230   46.8390 N   0  0  0  0  0  0  0  0  0  0  0  0
   36.2540   29.6700   43.6210 H   0  0  0  0  0  0  0  0  0  0  0  0
   34.3940   28.2240   44.0420 H   0  0  0  0  0  0  0  0  0  0  0  0
   33.9120   29.5530   47.9140 H   0  0  0  0  0  0  0  0  0  0  0  0
   37.9500   30.8560   47.8960 N   0  0  0  0  0  0  0  0  0  0  0  0
   38.7980   30.2800   47.9180 H   0  0  0  0  0  0  0  0  0  0  0  0
   37.5310   31.2670   49.4880 S   0  0  1  0  0  0  0  0  0  0  0  0
   38.7300   30.8260   50.3340 O   0  0  0  0  0  0  0  0  0  0  0  0
   38.6880   30.1770   51.0820 H   0  0  0  0  0  0  0  0  0  0  0  0
   37.3040   32.6990   49.6790 O   0  0  0  0  0  0  0  0  0  0  0  0
   36.8340   33.9150   51.5170 C   0  0  0  0  0  3  0  0  0  0  0  0
   36.5430   33.7100   50.1600 C   0  0  0  0  0  0  0  0  0  0  0  0
   35.5870   34.5530   49.6430 C   0  0  0  0  0  0  0  0  0  0  0  0
   35.4320   34.3150   48.5860 H   0  0  0  0  0  0  0  0  0  0  0  0
   34.9540   35.5220   50.3710 C   0  0  0  0  0  0  0  0  0  0  0  0
   34.0170   36.3930   49.9790 N   0  0  0  0  0  0  0  0  0  0  0  0
   33.5890   36.4950   49.0360 H   0  0  0  0  0  0  0  0  0  0  0  0
   33.7010   37.1500   51.0540 C   0  0  0  0  0  0  0  0  0  0  0  0
   32.9810   37.9650   51.1340 H   0  0  0  0  0  0  0  0  0  0  0  0
   34.4480   36.7480   52.1260 C   0  0  0  0  0  3  0  0  0  0  0  0
   35.2560   35.7100   51.7140 C   0  0  0  0  0  0  0  0  0  0  0  0
   36.2100   34.8910   52.2860 C   0  0  0  0  0  3  0  0  0  0  0  0
   36.2320   30.3690   50.0570 O   0  0  0  0  0  0  0  0  0  0  0  0
   36.5620   29.5960   51.1590 C   0  0  0  0  0  0  0  0  0  0  0  0
   37.4800   28.6440   50.7910 F   0  0  0  0  0  0  0  0  0  0  0  0
   37.1910   30.4120   52.0570 F   0  0  0  0  0  0  0  0  0  0  0  0
   35.4610   29.0580   51.8130 F   0  0  0  0  0  0  0  0  0  0  0  0
  1  7  1  6  0  0  0
  1 17  1  0  0  0  0
  1  6  1  0  0  0  0
  2  3  1  0  0  0  0
  2  1  1  0  0  0  0
  3 11  1  0  0  0  0
  3  4  1  0  0  0  0
  4  5  1  0  0  0  0
  4 12  1  0  0  0  0
  5  6  1  0  0  0  0
  5 14  1  0  0  0  0
  6 16  1  1  0  0  0
  6 26  1  0  0  0  0
  8  2  1  0  0  0  0
  9  2  1  0  0  0  0
 10  3  1  0  0  0  0
 13  4  1  0  0  0  0
 15  5  1  0  0  0  0
 17 22  1  0  0  0  0
 18 19  1  0  0  0  0
 18 17  2  0  0  0  0
 19 20  2  0  0  0  0
 20 21  1  0  0  0  0
 21 25  1  0  0  0  0
 22 21  2  0  0  0  0
 23 18  1  0  0  0  0
 24 19  1  0  0  0  0
 26 27  1  0  0  0  0
 26 28  1  0  0  0  0
 28 31  1  1  0  0  0
 28 44  1  0  0  0  0
 28 29  1  0  0  0  0
 29 30  1  0  0  0  0
 31 33  1  0  0  0  0
 32 43  1  0  0  0  0
 33 32  2  0  0  0  0
 34 33  1  0  0  0  0
 34 36  2  0  0  0  0
 35 34  1  0  0  0  0
 36 42  1  0  0  0  0
 37 36  1  0  0  0  0
 37 39  1  0  0  0  0
 38 37  1  0  0  0  0
 39 40  1  0  0  0  0
 39 41  2  0  0  0  0
 42 41  1  0  0  0  0
 42 43  2  0  0  0  0
 44 45  1  0  0  0  0
 45 48  1  0  0  0  0
 45 47  1  0  0  0  0
 46 45  1  0  0  0  0
M  END
>  <minimizedAffinity>
3.51546121

>  <minimizedRMSD>
0.788573682

$$$$
