
 OpenBabel03262522053D

 43 47  0  0  1  0  0  0  0  0999 V2000
   37.7210   31.8080   49.6920 C   0  0  0  0  0  0  0  0  0  0  0  0
   36.7280   32.3240   50.2920 O   0  0  0  0  0  0  0  0  0  0  0  0
   34.4980   29.0760   48.7550 C   0  0  2  0  0  0  0  0  0  0  0  0
   35.1290   28.3580   49.8990 C   0  0  0  0  0  0  0  0  0  0  0  0
   36.2650   29.1380   50.3900 N   0  0  0  0  0  0  0  0  0  0  0  0
   37.2110   29.8760   51.1770 C   0  0  0  0  0  0  0  0  0  0  0  0
   37.4160   30.0740   52.3880 O   0  0  0  0  0  0  0  0  0  0  0  0
   37.9410   30.3860   50.0470 C   0  0  1  0  0  0  0  0  0  0  0  0
   37.1140   29.3720   49.2640 C   0  0  2  0  0  0  0  0  0  0  0  0
   35.9090   30.0700   48.1100 S   0  0  0  0  0  0  0  0  0  0  0  0
   34.4410   28.2470   50.7720 H   0  0  0  0  0  0  0  0  0  0  0  0
   35.4770   27.3430   49.5930 H   0  0  0  0  0  0  0  0  0  0  0  0
   38.9980   30.1350   49.8670 H   0  0  0  0  0  0  0  0  0  0  0  0
   37.6690   28.4970   48.8820 H   0  0  0  0  0  0  0  0  0  0  0  0
   33.2920   29.8970   49.0610 C   0  0  0  0  0  0  0  0  0  0  0  0
   32.9950   29.7190   50.1170 H   0  0  0  0  0  0  0  0  0  0  0  0
   33.4540   31.0000   48.9800 H   0  0  0  0  0  0  0  0  0  0  0  0
   32.4250   29.6380   48.3900 H   0  0  0  0  0  0  0  0  0  0  0  0
   34.2160   28.0520   47.6440 C   0  0  0  0  0  0  0  0  0  0  0  0
   34.8770   27.1860   47.6980 H   0  0  0  0  0  0  0  0  0  0  0  0
   33.1310   27.7810   47.7940 H   0  0  0  0  0  0  0  0  0  0  0  0
   34.2430   28.7130   46.4130 O   0  0  0  0  0  0  0  0  0  0  0  0
   34.8430   28.1540   45.8290 H   0  0  0  0  0  0  0  0  0  0  0  0
   38.5420   32.5340   48.7720 C   0  0  0  0  0  0  0  0  0  0  0  0
   39.1220   33.7070   49.2000 C   0  0  0  0  0  0  0  0  0  0  0  0
   39.9310   34.4180   48.2870 C   0  0  0  0  0  0  0  0  0  0  0  0
   40.0930   33.9020   47.0300 N   0  0  0  0  0  0  0  0  0  0  0  0
   39.5180   32.7690   46.6580 C   0  0  0  0  0  0  0  0  0  0  0  0
   38.7410   32.0730   47.5120 N   0  0  0  0  0  0  0  0  0  0  0  0
   38.9750   34.0920   50.2040 H   0  0  0  0  0  0  0  0  0  0  0  0
   40.4140   35.3470   48.5630 H   0  0  0  0  0  0  0  0  0  0  0  0
   40.5650   31.1850   45.0550 C   0  0  0  0  0  3  0  0  0  0  0  0
   39.7390   32.2830   45.2970 C   0  0  0  0  0  0  0  0  0  0  0  0
   39.0910   32.9670   44.2650 C   0  0  0  0  0  0  0  0  0  0  0  0
   38.4520   33.8180   44.4580 H   0  0  0  0  0  0  0  0  0  0  0  0
   39.2840   32.5250   42.9550 C   0  0  0  0  0  0  0  0  0  0  0  0
   38.7610   33.0330   41.8290 N   0  0  0  0  0  0  0  0  0  0  0  0
   38.1140   33.8450   41.6910 H   0  0  0  0  0  0  0  0  0  0  0  0
   39.2090   32.2990   40.7700 C   0  0  0  0  0  0  0  0  0  0  0  0
   39.0460   32.3540   39.7030 H   0  0  0  0  0  0  0  0  0  0  0  0
   40.0280   31.3270   41.3140 C   0  0  0  0  0  3  0  0  0  0  0  0
   40.0980   31.4390   42.6880 C   0  0  0  0  0  0  0  0  0  0  0  0
   40.7270   30.7800   43.7240 C   0  0  0  0  0  3  0  0  0  0  0  0
  1  8  1  0  0  0  0
  1  2  2  0  0  0  0
  3 19  1  6  0  0  0
  3 15  1  0  0  0  0
  3  4  1  0  0  0  0
  4  5  1  0  0  0  0
  4 11  1  0  0  0  0
  5  6  1  0  0  0  0
  6  7  2  0  0  0  0
  8 13  1  1  0  0  0
  8  6  1  0  0  0  0
  9 14  1  6  0  0  0
  9  8  1  0  0  0  0
  9  5  1  0  0  0  0
 10  3  1  0  0  0  0
 10  9  1  0  0  0  0
 12  4  1  0  0  0  0
 15 16  1  0  0  0  0
 17 15  1  0  0  0  0
 18 15  1  0  0  0  0
 19 20  1  0  0  0  0
 19 21  1  0  0  0  0
 22 19  1  0  0  0  0
 23 22  1  0  0  0  0
 24 25  1  0  0  0  0
 24  1  1  0  0  0  0
 25 30  1  0  0  0  0
 26 31  1  0  0  0  0
 26 25  2  0  0  0  0
 27 26  1  0  0  0  0
 28 27  2  0  0  0  0
 28 29  1  0  0  0  0
 29 24  2  0  0  0  0
 32 33  1  0  0  0  0
 33 28  1  0  0  0  0
 34 35  1  0  0  0  0
 34 33  2  0  0  0  0
 36 34  1  0  0  0  0
 37 36  1  0  0  0  0
 38 37  1  0  0  0  0
 39 41  2  0  0  0  0
 39 37  1  0  0  0  0
 40 39  1  0  0  0  0
 41 42  1  0  0  0  0
 42 36  2  0  0  0  0
 42 43  1  0  0  0  0
 43 32  2  0  0  0  0
M  END
>  <minimizedAffinity>
-6.5226388

>  <minimizedRMSD>
0.678057373

$$$$
