
 OpenBabel03272503433D

 44 48  0  0  1  0  0  0  0  0999 V2000
   35.2420   28.6130   32.2530 C   0  0  2  0  0  0  0  0  0  0  0  0
   36.3640   28.0750   31.3790 C   0  0  1  0  0  0  0  0  0  0  0  0
   37.0160   29.3920   31.0110 C   0  0  0  0  0  0  0  0  0  0  0  0
   36.0180   30.3290   30.8880 O   0  0  0  0  0  0  0  0  0  0  0  0
   34.8540   29.8300   31.3910 C   0  0  0  0  0  0  0  0  0  0  0  0
   34.3970   27.9260   32.3660 H   0  0  0  0  0  0  0  0  0  0  0  0
   36.0160   27.5930   30.4570 H   0  0  0  0  0  0  0  0  0  0  0  0
   37.6460   29.2980   30.1060 H   0  0  0  0  0  0  0  0  0  0  0  0
   37.6490   29.6900   31.8580 H   0  0  0  0  0  0  0  0  0  0  0  0
   34.2710   29.3840   30.5350 H   0  0  0  0  0  0  0  0  0  0  0  0
   34.2520   30.5250   31.9990 H   0  0  0  0  0  0  0  0  0  0  0  0
   38.0580   25.5950   33.3380 C   0  0  0  0  0  0  0  0  0  0  0  0
   39.1070   26.4010   33.0230 C   0  0  0  0  0  0  0  0  0  0  0  0
   38.5430   27.4170   32.2470 C   0  0  0  0  0  0  0  0  0  0  0  0
   37.2350   27.2100   32.1190 N   0  0  0  0  0  0  0  0  0  0  0  0
   36.9260   26.0840   32.7910 N   0  0  0  0  0  0  0  0  0  0  0  0
   40.1460   26.2470   33.3330 H   0  0  0  0  0  0  0  0  0  0  0  0
   39.1770   28.2230   31.8490 H   0  0  0  0  0  0  0  0  0  0  0  0
   38.6730   23.1930   36.1580 C   0  0  0  0  0  0  0  0  0  0  0  0
   38.6230   24.3660   35.4290 C   0  0  0  0  0  0  0  0  0  0  0  0
   38.1290   24.3790   34.1460 C   0  0  0  0  0  0  0  0  0  0  0  0
   37.6950   23.2060   33.6300 N   0  0  0  0  0  0  0  0  0  0  0  0
   37.7500   22.0570   34.3650 C   0  0  0  0  0  0  0  0  0  0  0  0
   38.2230   22.0380   35.5940 N   0  0  0  0  0  0  0  0  0  0  0  0
   38.9580   25.3290   35.7960 H   0  0  0  0  0  0  0  0  0  0  0  0
   37.4010   21.1160   33.9510 H   0  0  0  0  0  0  0  0  0  0  0  0
   39.2000   23.3510   37.4360 O   0  0  0  0  0  0  0  0  0  0  0  0
   38.4420   23.7870   38.5440 C   0  0  0  0  0  0  0  0  0  0  0  0
   37.9130   25.0530   38.3200 F   0  0  0  0  0  0  0  0  0  0  0  0
   39.2490   23.7780   39.6520 F   0  0  0  0  0  0  0  0  0  0  0  0
   37.4200   22.8860   38.7530 F   0  0  0  0  0  0  0  0  0  0  0  0
   35.8290   29.0710   33.4310 O   0  0  0  0  0  0  0  0  0  0  0  0
   33.8760   29.5200   34.5980 C   0  0  0  0  0  3  0  0  0  0  0  0
   35.2130   29.8640   34.3790 C   0  0  0  0  0  0  0  0  0  0  0  0
   35.7500   30.9110   35.1000 C   0  0  0  0  0  0  0  0  0  0  0  0
   36.7830   31.1200   34.8810 H   0  0  0  0  0  0  0  0  0  0  0  0
   34.9900   31.6040   36.0160 C   0  0  0  0  0  0  0  0  0  0  0  0
   35.3340   32.6480   36.8110 N   0  0  0  0  0  0  0  0  0  0  0  0
   36.2690   33.1040   36.8510 H   0  0  0  0  0  0  0  0  0  0  0  0
   34.2350   32.9710   37.5310 C   0  0  0  0  0  0  0  0  0  0  0  0
   34.2180   33.7820   38.2600 H   0  0  0  0  0  0  0  0  0  0  0  0
   33.1750   32.1460   37.2130 C   0  0  0  0  0  3  0  0  0  0  0  0
   33.6770   31.2870   36.2500 C   0  0  0  0  0  0  0  0  0  0  0  0
   33.1340   30.2460   35.5360 C   0  0  0  0  0  3  0  0  0  0  0  0
  1  6  1  1  0  0  0
  1 32  1  0  0  0  0
  2  7  1  6  0  0  0
  2 15  1  0  0  0  0
  2  1  1  0  0  0  0
  3  2  1  0  0  0  0
  3  9  1  0  0  0  0
  4  3  1  0  0  0  0
  4  5  1  0  0  0  0
  5 11  1  0  0  0  0
  5  1  1  0  0  0  0
  8  3  1  0  0  0  0
 10  5  1  0  0  0  0
 12 21  1  0  0  0  0
 13 17  1  0  0  0  0
 13 12  1  0  0  0  0
 14 13  2  0  0  0  0
 15 14  1  0  0  0  0
 15 16  1  0  0  0  0
 16 12  2  0  0  0  0
 18 14  1  0  0  0  0
 19 27  1  0  0  0  0
 20 25  1  0  0  0  0
 20 19  2  0  0  0  0
 21 20  1  0  0  0  0
 22 21  2  0  0  0  0
 22 23  1  0  0  0  0
 23 24  2  0  0  0  0
 24 19  1  0  0  0  0
 26 23  1  0  0  0  0
 27 28  1  0  0  0  0
 28 31  1  0  0  0  0
 28 30  1  0  0  0  0
 29 28  1  0  0  0  0
 32 34  1  0  0  0  0
 33 44  1  0  0  0  0
 34 33  2  0  0  0  0
 34 35  1  0  0  0  0
 35 37  2  0  0  0  0
 36 35  1  0  0  0  0
 37 43  1  0  0  0  0
 37 38  1  0  0  0  0
 38 39  1  0  0  0  0
 38 40  1  0  0  0  0
 40 41  1  0  0  0  0
 42 40  2  0  0  0  0
 43 42  1  0  0  0  0
 44 43  2  0  0  0  0
M  END
>  <minimizedAffinity>
-6.93247461

$$$$

 OpenBabel03272503433D

 44 48  0  0  1  0  0  0  0  0999 V2000
   35.2170   28.6320   32.2570 C   0  0  2  0  0  0  0  0  0  0  0  0
   36.3530   28.1470   31.3690 C   0  0  1  0  0  0  0  0  0  0  0  0
   36.9930   29.4860   31.0660 C   0  0  0  0  0  0  0  0  0  0  0  0
   35.9840   30.4160   30.9770 O   0  0  0  0  0  0  0  0  0  0  0  0
   34.8220   29.8820   31.4470 C   0  0  0  0  0  0  0  0  0  0  0  0
   34.3800   27.9310   32.3320 H   0  0  0  0  0  0  0  0  0  0  0  0
   36.0180   27.7030   30.4240 H   0  0  0  0  0  0  0  0  0  0  0  0
   37.6310   29.4400   30.1640 H   0  0  0  0  0  0  0  0  0  0  0  0
   37.6140   29.7540   31.9320 H   0  0  0  0  0  0  0  0  0  0  0  0
   34.2510   29.4680   30.5660 H   0  0  0  0  0  0  0  0  0  0  0  0
   34.2070   30.5430   32.0800 H   0  0  0  0  0  0  0  0  0  0  0  0
   38.0520   25.6290   33.2740 C   0  0  0  0  0  0  0  0  0  0  0  0
   39.1110   26.3960   32.9040 C   0  0  0  0  0  0  0  0  0  0  0  0
   38.5460   27.4250   32.1450 C   0  0  0  0  0  0  0  0  0  0  0  0
   37.2280   27.2590   32.0780 N   0  0  0  0  0  0  0  0  0  0  0  0
   36.9130   26.1500   32.7740 N   0  0  0  0  0  0  0  0  0  0  0  0
   40.1570   26.2110   33.1690 H   0  0  0  0  0  0  0  0  0  0  0  0
   39.1880   28.2050   31.7110 H   0  0  0  0  0  0  0  0  0  0  0  0
   38.6610   23.2430   36.1090 C   0  0  0  0  0  0  0  0  0  0  0  0
   38.6150   24.4110   35.3730 C   0  0  0  0  0  0  0  0  0  0  0  0
   38.1200   24.4170   34.0890 C   0  0  0  0  0  0  0  0  0  0  0  0
   37.6820   23.2430   33.5820 N   0  0  0  0  0  0  0  0  0  0  0  0
   37.7340   22.0980   34.3240 C   0  0  0  0  0  0  0  0  0  0  0  0
   38.2070   22.0850   35.5530 N   0  0  0  0  0  0  0  0  0  0  0  0
   38.9530   25.3760   35.7330 H   0  0  0  0  0  0  0  0  0  0  0  0
   37.3830   21.1550   33.9160 H   0  0  0  0  0  0  0  0  0  0  0  0
   39.1890   23.4070   37.3850 O   0  0  0  0  0  0  0  0  0  0  0  0
   38.4160   23.7690   38.5100 C   0  0  0  0  0  0  0  0  0  0  0  0
   37.3660   22.8780   38.7020 F   0  0  0  0  0  0  0  0  0  0  0  0
   37.9530   25.0460   38.3260 F   0  0  0  0  0  0  0  0  0  0  0  0
   39.2360   23.7680   39.6180 F   0  0  0  0  0  0  0  0  0  0  0  0
   35.7890   29.0440   33.4590 O   0  0  0  0  0  0  0  0  0  0  0  0
   36.0830   30.6870   35.0690 C   0  0  0  0  0  3  0  0  0  0  0  0
   35.1840   29.8530   34.4000 C   0  0  0  0  0  0  0  0  0  0  0  0
   33.8460   29.9240   34.7360 C   0  0  0  0  0  0  0  0  0  0  0  0
   33.2120   29.2550   34.1810 H   0  0  0  0  0  0  0  0  0  0  0  0
   33.4050   30.7950   35.7070 C   0  0  0  0  0  0  0  0  0  0  0  0
   32.1470   31.0060   36.1710 N   0  0  0  0  0  0  0  0  0  0  0  0
   31.2860   30.5200   35.8450 H   0  0  0  0  0  0  0  0  0  0  0  0
   32.2380   31.9620   37.1230 C   0  0  0  0  0  0  0  0  0  0  0  0
   31.3740   32.3370   37.6740 H   0  0  0  0  0  0  0  0  0  0  0  0
   33.5430   32.3780   37.2870 C   0  0  0  0  0  3  0  0  0  0  0  0
   34.2670   31.6230   36.3780 C   0  0  0  0  0  0  0  0  0  0  0  0
   35.6000   31.5590   36.0510 C   0  0  0  0  0  3  0  0  0  0  0  0
  1  6  1  1  0  0  0
  1 32  1  0  0  0  0
  2  7  1  6  0  0  0
  2 15  1  0  0  0  0
  2  1  1  0  0  0  0
  3  2  1  0  0  0  0
  3  9  1  0  0  0  0
  4  3  1  0  0  0  0
  4  5  1  0  0  0  0
  5 11  1  0  0  0  0
  5  1  1  0  0  0  0
  8  3  1  0  0  0  0
 10  5  1  0  0  0  0
 12 21  1  0  0  0  0
 13 17  1  0  0  0  0
 13 12  1  0  0  0  0
 14 13  2  0  0  0  0
 15 14  1  0  0  0  0
 15 16  1  0  0  0  0
 16 12  2  0  0  0  0
 18 14  1  0  0  0  0
 19 27  1  0  0  0  0
 20 25  1  0  0  0  0
 20 19  2  0  0  0  0
 21 20  1  0  0  0  0
 22 21  2  0  0  0  0
 22 23  1  0  0  0  0
 23 24  2  0  0  0  0
 24 19  1  0  0  0  0
 26 23  1  0  0  0  0
 27 28  1  0  0  0  0
 28 29  1  0  0  0  0
 28 31  1  0  0  0  0
 30 28  1  0  0  0  0
 32 34  1  0  0  0  0
 33 44  1  0  0  0  0
 34 35  1  0  0  0  0
 34 33  2  0  0  0  0
 35 37  2  0  0  0  0
 36 35  1  0  0  0  0
 37 38  1  0  0  0  0
 37 43  1  0  0  0  0
 38 40  1  0  0  0  0
 39 38  1  0  0  0  0
 40 42  2  0  0  0  0
 40 41  1  0  0  0  0
 43 42  1  0  0  0  0
 44 43  2  0  0  0  0
M  END
>  <minimizedAffinity>
-6.87848043

$$$$

 OpenBabel03272503433D

 44 48  0  0  1  0  0  0  0  0999 V2000
   35.1830   28.6600   32.2300 C   0  0  2  0  0  0  0  0  0  0  0  0
   36.3260   28.1780   31.3490 C   0  0  1  0  0  0  0  0  0  0  0  0
   36.9940   29.5140   31.0930 C   0  0  0  0  0  0  0  0  0  0  0  0
   36.0030   30.4630   31.0110 O   0  0  0  0  0  0  0  0  0  0  0  0
   34.8240   29.9360   31.4460 C   0  0  0  0  0  0  0  0  0  0  0  0
   34.3330   27.9710   32.2710 H   0  0  0  0  0  0  0  0  0  0  0  0
   36.0000   27.7650   30.3870 H   0  0  0  0  0  0  0  0  0  0  0  0
   37.6470   29.4810   30.2010 H   0  0  0  0  0  0  0  0  0  0  0  0
   37.6050   29.7480   31.9760 H   0  0  0  0  0  0  0  0  0  0  0  0
   34.2620   29.5560   30.5460 H   0  0  0  0  0  0  0  0  0  0  0  0
   34.2090   30.5910   32.0860 H   0  0  0  0  0  0  0  0  0  0  0  0
   37.9580   25.5520   33.1650 C   0  0  0  0  0  0  0  0  0  0  0  0
   39.0150   26.3790   32.9490 C   0  0  0  0  0  0  0  0  0  0  0  0
   38.4760   27.4530   32.2360 C   0  0  0  0  0  0  0  0  0  0  0  0
   37.1740   27.2570   32.0490 N   0  0  0  0  0  0  0  0  0  0  0  0
   36.8440   26.0820   32.6200 N   0  0  0  0  0  0  0  0  0  0  0  0
   40.0440   26.2010   33.2810 H   0  0  0  0  0  0  0  0  0  0  0  0
   39.1220   28.2870   31.9240 H   0  0  0  0  0  0  0  0  0  0  0  0
   37.5280   21.9340   34.0730 C   0  0  0  0  0  0  0  0  0  0  0  0
   37.4630   23.1190   33.3670 C   0  0  0  0  0  0  0  0  0  0  0  0
   38.0040   24.2770   33.8780 C   0  0  0  0  0  0  0  0  0  0  0  0
   38.5990   24.2070   35.0900 N   0  0  0  0  0  0  0  0  0  0  0  0
   38.6550   23.0270   35.7750 C   0  0  0  0  0  0  0  0  0  0  0  0
   38.1390   21.9160   35.2910 N   0  0  0  0  0  0  0  0  0  0  0  0
   36.9990   23.2280   32.3940 H   0  0  0  0  0  0  0  0  0  0  0  0
   39.1320   22.9720   36.7480 H   0  0  0  0  0  0  0  0  0  0  0  0
   36.9350   20.8600   33.4190 O   0  0  0  0  0  0  0  0  0  0  0  0
   35.5990   20.4570   33.6320 C   0  0  0  0  0  0  0  0  0  0  0  0
   34.7390   21.0840   32.7370 F   0  0  0  0  0  0  0  0  0  0  0  0
   35.2590   20.7460   34.9280 F   0  0  0  0  0  0  0  0  0  0  0  0
   35.5270   19.0900   33.4660 F   0  0  0  0  0  0  0  0  0  0  0  0
   35.7410   29.0290   33.4520 O   0  0  0  0  0  0  0  0  0  0  0  0
   33.8010   29.5180   34.6240 C   0  0  0  0  0  3  0  0  0  0  0  0
   35.1410   29.8410   34.3950 C   0  0  0  0  0  0  0  0  0  0  0  0
   35.6960   30.8880   35.1020 C   0  0  0  0  0  0  0  0  0  0  0  0
   36.7310   31.0800   34.8760 H   0  0  0  0  0  0  0  0  0  0  0  0
   34.9510   31.6010   36.0150 C   0  0  0  0  0  0  0  0  0  0  0  0
   35.3140   32.6480   36.7970 N   0  0  0  0  0  0  0  0  0  0  0  0
   36.2560   33.0910   36.8270 H   0  0  0  0  0  0  0  0  0  0  0  0
   34.2230   32.9940   37.5180 C   0  0  0  0  0  0  0  0  0  0  0  0
   34.2210   33.8120   38.2390 H   0  0  0  0  0  0  0  0  0  0  0  0
   33.1500   32.1810   37.2150 C   0  0  0  0  0  3  0  0  0  0  0  0
   33.6350   31.3050   36.2580 C   0  0  0  0  0  0  0  0  0  0  0  0
   33.0740   30.2640   35.5580 C   0  0  0  0  0  3  0  0  0  0  0  0
  1  6  1  1  0  0  0
  1 32  1  0  0  0  0
  2  7  1  6  0  0  0
  2 15  1  0  0  0  0
  2  1  1  0  0  0  0
  3  2  1  0  0  0  0
  3  9  1  0  0  0  0
  4  3  1  0  0  0  0
  4  5  1  0  0  0  0
  5 11  1  0  0  0  0
  5  1  1  0  0  0  0
  8  3  1  0  0  0  0
 10  5  1  0  0  0  0
 12 21  1  0  0  0  0
 13 12  1  0  0  0  0
 13 17  1  0  0  0  0
 14 13  2  0  0  0  0
 15 14  1  0  0  0  0
 15 16  1  0  0  0  0
 16 12  2  0  0  0  0
 18 14  1  0  0  0  0
 19 24  1  0  0  0  0
 20 21  1  0  0  0  0
 20 19  2  0  0  0  0
 21 22  2  0  0  0  0
 22 23  1  0  0  0  0
 23 26  1  0  0  0  0
 24 23  2  0  0  0  0
 25 20  1  0  0  0  0
 27 28  1  0  0  0  0
 27 19  1  0  0  0  0
 28 30  1  0  0  0  0
 29 28  1  0  0  0  0
 31 28  1  0  0  0  0
 32 34  1  0  0  0  0
 33 44  1  0  0  0  0
 34 33  2  0  0  0  0
 34 35  1  0  0  0  0
 35 37  2  0  0  0  0
 36 35  1  0  0  0  0
 37 43  1  0  0  0  0
 37 38  1  0  0  0  0
 38 39  1  0  0  0  0
 38 40  1  0  0  0  0
 40 41  1  0  0  0  0
 42 40  2  0  0  0  0
 43 42  1  0  0  0  0
 44 43  2  0  0  0  0
M  END
>  <minimizedAffinity>
-6.57781124

$$$$

 OpenBabel03272503433D

 44 48  0  0  1  0  0  0  0  0999 V2000
   35.5230   28.3980   32.5870 C   0  0  2  0  0  0  0  0  0  0  0  0
   36.6910   27.7450   31.8620 C   0  0  1  0  0  0  0  0  0  0  0  0
   37.2950   28.9860   31.2400 C   0  0  0  0  0  0  0  0  0  0  0  0
   36.2610   29.8290   30.9080 O   0  0  0  0  0  0  0  0  0  0  0  0
   35.1060   29.3890   31.4840 C   0  0  0  0  0  0  0  0  0  0  0  0
   34.7070   27.7090   32.8260 H   0  0  0  0  0  0  0  0  0  0  0  0
   36.3880   27.0660   31.0560 H   0  0  0  0  0  0  0  0  0  0  0  0
   37.9520   28.7370   30.3850 H   0  0  0  0  0  0  0  0  0  0  0  0
   37.8910   29.4840   32.0170 H   0  0  0  0  0  0  0  0  0  0  0  0
   34.5660   28.7480   30.7290 H   0  0  0  0  0  0  0  0  0  0  0  0
   34.4590   30.1660   31.9230 H   0  0  0  0  0  0  0  0  0  0  0  0
   38.4240   25.8700   34.3810 C   0  0  0  0  0  0  0  0  0  0  0  0
   39.4760   26.4980   33.7910 C   0  0  0  0  0  0  0  0  0  0  0  0
   38.8970   27.2680   32.7790 C   0  0  0  0  0  0  0  0  0  0  0  0
   37.5780   27.0940   32.7820 N   0  0  0  0  0  0  0  0  0  0  0  0
   37.2760   26.2290   33.7700 N   0  0  0  0  0  0  0  0  0  0  0  0
   40.5260   26.3940   34.0820 H   0  0  0  0  0  0  0  0  0  0  0  0
   39.5310   27.8910   32.1300 H   0  0  0  0  0  0  0  0  0  0  0  0
   39.3580   22.9720   36.5780 C   0  0  0  0  0  0  0  0  0  0  0  0
   39.3100   23.8240   35.4920 C   0  0  0  0  0  0  0  0  0  0  0  0
   38.5070   24.9420   35.5060 C   0  0  0  0  0  0  0  0  0  0  0  0
   37.7730   25.1700   36.6190 N   0  0  0  0  0  0  0  0  0  0  0  0
   37.8330   24.3180   37.6840 C   0  0  0  0  0  0  0  0  0  0  0  0
   38.6000   23.2470   37.6760 N   0  0  0  0  0  0  0  0  0  0  0  0
   39.8760   23.6860   34.5790 H   0  0  0  0  0  0  0  0  0  0  0  0
   37.2440   24.5020   38.5770 H   0  0  0  0  0  0  0  0  0  0  0  0
   40.2160   21.8920   36.4030 O   0  0  0  0  0  0  0  0  0  0  0  0
   41.5270   21.8430   36.9250 C   0  0  0  0  0  0  0  0  0  0  0  0
   41.5770   21.0660   38.0770 F   0  0  0  0  0  0  0  0  0  0  0  0
   41.9430   23.1250   37.1750 F   0  0  0  0  0  0  0  0  0  0  0  0
   42.3570   21.3050   35.9650 F   0  0  0  0  0  0  0  0  0  0  0  0
   36.0590   29.1170   33.6530 O   0  0  0  0  0  0  0  0  0  0  0  0
   36.1410   30.7900   35.2570 C   0  0  0  0  0  3  0  0  0  0  0  0
   35.3400   29.9040   34.5310 C   0  0  0  0  0  0  0  0  0  0  0  0
   33.9780   29.9100   34.7580 C   0  0  0  0  0  0  0  0  0  0  0  0
   33.4250   29.2040   34.1650 H   0  0  0  0  0  0  0  0  0  0  0  0
   33.4180   30.7680   35.6790 C   0  0  0  0  0  0  0  0  0  0  0  0
   32.1180   30.9200   36.0370 N   0  0  0  0  0  0  0  0  0  0  0  0
   31.3100   30.3870   35.6520 H   0  0  0  0  0  0  0  0  0  0  0  0
   32.0840   31.8890   36.9800 C   0  0  0  0  0  0  0  0  0  0  0  0
   31.1610   32.2260   37.4550 H   0  0  0  0  0  0  0  0  0  0  0  0
   33.3500   32.3730   37.2410 C   0  0  0  0  0  3  0  0  0  0  0  0
   34.1800   31.6460   36.4040 C   0  0  0  0  0  0  0  0  0  0  0  0
   35.5370   31.6460   36.1840 C   0  0  0  0  0  3  0  0  0  0  0  0
  1  6  1  1  0  0  0
  1 32  1  0  0  0  0
  2  7  1  6  0  0  0
  2  1  1  0  0  0  0
  2 15  1  0  0  0  0
  3  2  1  0  0  0  0
  3  9  1  0  0  0  0
  4  3  1  0  0  0  0
  4  5  1  0  0  0  0
  5 11  1  0  0  0  0
  5  1  1  0  0  0  0
  8  3  1  0  0  0  0
 10  5  1  0  0  0  0
 12 21  1  0  0  0  0
 13 17  1  0  0  0  0
 13 12  1  0  0  0  0
 14 15  1  0  0  0  0
 14 13  2  0  0  0  0
 15 16  1  0  0  0  0
 16 12  2  0  0  0  0
 18 14  1  0  0  0  0
 19 24  1  0  0  0  0
 20 21  1  0  0  0  0
 20 19  2  0  0  0  0
 21 22  2  0  0  0  0
 22 23  1  0  0  0  0
 23 26  1  0  0  0  0
 24 23  2  0  0  0  0
 25 20  1  0  0  0  0
 27 19  1  0  0  0  0
 27 28  1  0  0  0  0
 28 30  1  0  0  0  0
 28 29  1  0  0  0  0
 31 28  1  0  0  0  0
 32 34  1  0  0  0  0
 33 44  1  0  0  0  0
 34 35  1  0  0  0  0
 34 33  2  0  0  0  0
 35 37  2  0  0  0  0
 36 35  1  0  0  0  0
 37 38  1  0  0  0  0
 37 43  1  0  0  0  0
 38 40  1  0  0  0  0
 39 38  1  0  0  0  0
 40 42  2  0  0  0  0
 40 41  1  0  0  0  0
 43 42  1  0  0  0  0
 44 43  2  0  0  0  0
M  END
>  <minimizedAffinity>
-6.45910549

$$$$

 OpenBabel03272503433D

 44 48  0  0  1  0  0  0  0  0999 V2000
   37.7940   23.6410   31.6280 C   0  0  2  0  0  0  0  0  0  0  0  0
   36.7810   24.4770   30.8620 C   0  0  1  0  0  0  0  0  0  0  0  0
   35.5130   23.8620   31.4160 C   0  0  0  0  0  0  0  0  0  0  0  0
   35.7540   22.5230   31.6160 O   0  0  0  0  0  0  0  0  0  0  0  0
   37.0900   22.2760   31.5070 C   0  0  0  0  0  0  0  0  0  0  0  0
   38.7870   23.6130   31.1680 H   0  0  0  0  0  0  0  0  0  0  0  0
   36.8000   24.3120   29.7780 H   0  0  0  0  0  0  0  0  0  0  0  0
   34.6420   24.0600   30.7630 H   0  0  0  0  0  0  0  0  0  0  0  0
   35.3330   24.3170   32.4000 H   0  0  0  0  0  0  0  0  0  0  0  0
   37.2970   21.9540   30.4460 H   0  0  0  0  0  0  0  0  0  0  0  0
   37.5150   21.5830   32.2530 H   0  0  0  0  0  0  0  0  0  0  0  0
   36.5190   27.9440   31.7390 C   0  0  0  0  0  0  0  0  0  0  0  0
   37.8550   27.8630   31.5040 C   0  0  0  0  0  0  0  0  0  0  0  0
   38.0640   26.5280   31.1480 C   0  0  0  0  0  0  0  0  0  0  0  0
   36.9080   25.8700   31.1760 N   0  0  0  0  0  0  0  0  0  0  0  0
   35.9460   26.7390   31.5420 N   0  0  0  0  0  0  0  0  0  0  0  0
   38.5700   28.6890   31.5860 H   0  0  0  0  0  0  0  0  0  0  0  0
   39.0760   26.1760   30.8990 H   0  0  0  0  0  0  0  0  0  0  0  0
   34.8650   30.6080   33.8050 C   0  0  0  0  0  0  0  0  0  0  0  0
   35.5530   29.4600   33.4630 C   0  0  0  0  0  0  0  0  0  0  0  0
   35.7960   29.1480   32.1460 C   0  0  0  0  0  0  0  0  0  0  0  0
   35.3380   30.0050   31.2050 N   0  0  0  0  0  0  0  0  0  0  0  0
   34.6610   31.1360   31.5610 C   0  0  0  0  0  0  0  0  0  0  0  0
   34.4250   31.4400   32.8200 N   0  0  0  0  0  0  0  0  0  0  0  0
   35.9390   28.7410   34.1770 H   0  0  0  0  0  0  0  0  0  0  0  0
   34.2940   31.8240   30.8050 H   0  0  0  0  0  0  0  0  0  0  0  0
   34.7030   30.7750   35.1760 O   0  0  0  0  0  0  0  0  0  0  0  0
   35.4780   31.6640   35.9510 C   0  0  0  0  0  0  0  0  0  0  0  0
   35.5020   32.9330   35.3820 F   0  0  0  0  0  0  0  0  0  0  0  0
   36.7440   31.1510   36.0660 F   0  0  0  0  0  0  0  0  0  0  0  0
   34.9290   31.7320   37.2140 F   0  0  0  0  0  0  0  0  0  0  0  0
   37.7380   24.0540   32.9580 O   0  0  0  0  0  0  0  0  0  0  0  0
   39.8680   24.4430   33.7900 C   0  0  0  0  0  3  0  0  0  0  0  0
   38.6660   23.7450   33.9330 C   0  0  0  0  0  0  0  0  0  0  0  0
   38.5390   22.8610   34.9860 C   0  0  0  0  0  0  0  0  0  0  0  0
   37.5880   22.3600   35.0360 H   0  0  0  0  0  0  0  0  0  0  0  0
   39.5710   22.6690   35.8780 C   0  0  0  0  0  0  0  0  0  0  0  0
   39.6370   21.8550   36.9620 N   0  0  0  0  0  0  0  0  0  0  0  0
   38.8800   21.2240   37.2990 H   0  0  0  0  0  0  0  0  0  0  0  0
   40.8620   22.0280   37.5070 C   0  0  0  0  0  0  0  0  0  0  0  0
   41.1970   21.4960   38.3980 H   0  0  0  0  0  0  0  0  0  0  0  0
   41.5990   22.9470   36.7890 C   0  0  0  0  0  3  0  0  0  0  0  0
   40.7600   23.3410   35.7600 C   0  0  0  0  0  0  0  0  0  0  0  0
   40.8950   24.2220   34.7140 C   0  0  0  0  0  3  0  0  0  0  0  0
  1  6  1  6  0  0  0
  1 32  1  0  0  0  0
  2  7  1  6  0  0  0
  2 15  1  0  0  0  0
  2  3  1  0  0  0  0
  2  1  1  0  0  0  0
  3  4  1  0  0  0  0
  3  9  1  0  0  0  0
  5  4  1  0  0  0  0
  5  1  1  0  0  0  0
  5 11  1  0  0  0  0
  8  3  1  0  0  0  0
 10  5  1  0  0  0  0
 12 21  1  0  0  0  0
 13 17  1  0  0  0  0
 13 12  1  0  0  0  0
 14 15  1  0  0  0  0
 14 13  2  0  0  0  0
 15 16  1  0  0  0  0
 16 12  2  0  0  0  0
 18 14  1  0  0  0  0
 19 27  1  0  0  0  0
 20 19  1  0  0  0  0
 20 25  1  0  0  0  0
 21 20  2  0  0  0  0
 22 23  2  0  0  0  0
 22 21  1  0  0  0  0
 23 24  1  0  0  0  0
 24 19  2  0  0  0  0
 26 23  1  0  0  0  0
 27 28  1  0  0  0  0
 28 30  1  0  0  0  0
 28 31  1  0  0  0  0
 29 28  1  0  0  0  0
 32 34  1  0  0  0  0
 33 34  2  0  0  0  0
 33 44  1  0  0  0  0
 34 35  1  0  0  0  0
 35 36  1  0  0  0  0
 35 37  2  0  0  0  0
 37 38  1  0  0  0  0
 38 39  1  0  0  0  0
 38 40  1  0  0  0  0
 40 41  1  0  0  0  0
 42 40  2  0  0  0  0
 43 37  1  0  0  0  0
 43 42  1  0  0  0  0
 44 43  2  0  0  0  0
M  END
>  <minimizedAffinity>
-6.45753431

$$$$

 OpenBabel03272503433D

 44 48  0  0  1  0  0  0  0  0999 V2000
   38.7090   26.2830   30.8150 C   0  0  2  0  0  0  0  0  0  0  0  0
   38.8070   27.3520   31.8930 C   0  0  1  0  0  0  0  0  0  0  0  0
   37.8640   28.3710   31.2890 C   0  0  0  0  0  0  0  0  0  0  0  0
   38.0130   28.3150   29.9230 O   0  0  0  0  0  0  0  0  0  0  0  0
   38.7330   27.2090   29.5840 C   0  0  0  0  0  0  0  0  0  0  0  0
   39.5540   25.5870   30.8010 H   0  0  0  0  0  0  0  0  0  0  0  0
   39.8010   27.8070   31.9760 H   0  0  0  0  0  0  0  0  0  0  0  0
   38.0290   29.3810   31.7090 H   0  0  0  0  0  0  0  0  0  0  0  0
   36.8410   28.0480   31.5240 H   0  0  0  0  0  0  0  0  0  0  0  0
   39.8140   27.5140   29.4920 H   0  0  0  0  0  0  0  0  0  0  0  0
   38.3730   26.6490   28.7050 H   0  0  0  0  0  0  0  0  0  0  0  0
   38.1470   25.7640   35.0400 C   0  0  0  0  0  0  0  0  0  0  0  0
   37.0980   26.6270   34.9890 C   0  0  0  0  0  0  0  0  0  0  0  0
   37.2650   27.3050   33.7780 C   0  0  0  0  0  0  0  0  0  0  0  0
   38.3550   26.8580   33.1620 N   0  0  0  0  0  0  0  0  0  0  0  0
   38.9090   25.9040   33.9360 N   0  0  0  0  0  0  0  0  0  0  0  0
   36.3180   26.7300   35.7510 H   0  0  0  0  0  0  0  0  0  0  0  0
   36.5420   28.0770   33.4750 H   0  0  0  0  0  0  0  0  0  0  0  0
   39.4530   22.8420   37.0050 C   0  0  0  0  0  0  0  0  0  0  0  0
   39.2160   23.7090   35.9550 C   0  0  0  0  0  0  0  0  0  0  0  0
   38.4250   24.8220   36.1220 C   0  0  0  0  0  0  0  0  0  0  0  0
   37.8930   25.0330   37.3480 N   0  0  0  0  0  0  0  0  0  0  0  0
   38.1380   24.1670   38.3750 C   0  0  0  0  0  0  0  0  0  0  0  0
   38.8940   23.1000   38.2210 N   0  0  0  0  0  0  0  0  0  0  0  0
   39.6170   23.5850   34.9560 H   0  0  0  0  0  0  0  0  0  0  0  0
   37.7110   24.3370   39.3580 H   0  0  0  0  0  0  0  0  0  0  0  0
   40.2710   21.7690   36.6700 O   0  0  0  0  0  0  0  0  0  0  0  0
   41.6520   21.7210   36.9570 C   0  0  0  0  0  0  0  0  0  0  0  0
   42.3650   21.1860   35.8890 F   0  0  0  0  0  0  0  0  0  0  0  0
   41.8350   20.9790   38.0940 F   0  0  0  0  0  0  0  0  0  0  0  0
   42.0880   23.0040   37.2100 F   0  0  0  0  0  0  0  0  0  0  0  0
   37.4410   25.7150   30.9210 O   0  0  0  0  0  0  0  0  0  0  0  0
   38.1730   23.5490   30.5350 C   0  0  0  0  0  3  0  0  0  0  0  0
   37.1750   24.3690   31.0690 C   0  0  0  0  0  0  0  0  0  0  0  0
   36.0800   23.7710   31.6610 C   0  0  0  0  0  0  0  0  0  0  0  0
   35.3530   24.4620   32.0520 H   0  0  0  0  0  0  0  0  0  0  0  0
   35.9690   22.4000   31.7260 C   0  0  0  0  0  0  0  0  0  0  0  0
   34.9830   21.6370   32.2610 N   0  0  0  0  0  0  0  0  0  0  0  0
   34.1200   21.9910   32.7250 H   0  0  0  0  0  0  0  0  0  0  0  0
   35.3410   20.3470   32.0720 C   0  0  0  0  0  0  0  0  0  0  0  0
   34.7310   19.5050   32.4040 H   0  0  0  0  0  0  0  0  0  0  0  0
   36.5540   20.2590   31.4200 C   0  0  0  0  0  3  0  0  0  0  0  0
   36.9340   21.5740   31.2100 C   0  0  0  0  0  0  0  0  0  0  0  0
   38.0270   22.1600   30.6180 C   0  0  0  0  0  3  0  0  0  0  0  0
  1  6  1  1  0  0  0
  1 32  1  0  0  0  0
  1  2  1  0  0  0  0
  2  7  1  1  0  0  0
  2 15  1  0  0  0  0
  3  9  1  0  0  0  0
  3  8  1  0  0  0  0
  3  2  1  0  0  0  0
  4  3  1  0  0  0  0
  5  4  1  0  0  0  0
  5  1  1  0  0  0  0
 10  5  1  0  0  0  0
 11  5  1  0  0  0  0
 12 21  1  0  0  0  0
 13 12  1  0  0  0  0
 13 17  1  0  0  0  0
 14 13  2  0  0  0  0
 15 14  1  0  0  0  0
 15 16  1  0  0  0  0
 16 12  2  0  0  0  0
 18 14  1  0  0  0  0
 19 24  1  0  0  0  0
 20 21  1  0  0  0  0
 20 19  2  0  0  0  0
 21 22  2  0  0  0  0
 22 23  1  0  0  0  0
 23 26  1  0  0  0  0
 24 23  2  0  0  0  0
 25 20  1  0  0  0  0
 27 28  1  0  0  0  0
 27 19  1  0  0  0  0
 28 31  1  0  0  0  0
 28 30  1  0  0  0  0
 29 28  1  0  0  0  0
 32 34  1  0  0  0  0
 33 44  2  0  0  0  0
 33 34  1  0  0  0  0
 34 35  2  0  0  0  0
 35 37  1  0  0  0  0
 35 36  1  0  0  0  0
 37 38  1  0  0  0  0
 38 39  1  0  0  0  0
 40 38  1  0  0  0  0
 40 41  1  0  0  0  0
 42 40  2  0  0  0  0
 43 42  1  0  0  0  0
 43 37  2  0  0  0  0
 44 43  1  0  0  0  0
M  END
>  <minimizedAffinity>
-6.39570951

$$$$

 OpenBabel03272503433D

 44 48  0  0  1  0  0  0  0  0999 V2000
   39.3740   24.3940   31.9920 C   0  0  2  0  0  0  0  0  0  0  0  0
   38.7270   24.8990   30.7110 C   0  0  1  0  0  0  0  0  0  0  0  0
   38.3200   23.5660   30.1200 C   0  0  0  0  0  0  0  0  0  0  0  0
   39.2910   22.6510   30.4540 O   0  0  0  0  0  0  0  0  0  0  0  0
   40.1170   23.1800   31.4000 C   0  0  0  0  0  0  0  0  0  0  0  0
   40.0760   25.1010   32.4460 H   0  0  0  0  0  0  0  0  0  0  0  0
   39.4290   25.3830   30.0210 H   0  0  0  0  0  0  0  0  0  0  0  0
   38.1390   23.6380   29.0310 H   0  0  0  0  0  0  0  0  0  0  0  0
   37.3900   23.2580   30.6180 H   0  0  0  0  0  0  0  0  0  0  0  0
   41.0030   23.6340   30.8700 H   0  0  0  0  0  0  0  0  0  0  0  0
   40.4110   22.5030   32.2180 H   0  0  0  0  0  0  0  0  0  0  0  0
   36.3260   27.4540   31.4640 C   0  0  0  0  0  0  0  0  0  0  0  0
   35.4950   26.3880   31.3200 C   0  0  0  0  0  0  0  0  0  0  0  0
   36.3490   25.3220   31.0200 C   0  0  0  0  0  0  0  0  0  0  0  0
   37.6070   25.7500   30.9920 N   0  0  0  0  0  0  0  0  0  0  0  0
   37.6030   27.0690   31.2650 N   0  0  0  0  0  0  0  0  0  0  0  0
   34.4060   26.4080   31.4260 H   0  0  0  0  0  0  0  0  0  0  0  0
   35.9350   24.3170   30.8500 H   0  0  0  0  0  0  0  0  0  0  0  0
   35.1810   30.5130   33.3170 C   0  0  0  0  0  0  0  0  0  0  0  0
   35.5660   29.2120   33.0570 C   0  0  0  0  0  0  0  0  0  0  0  0
   35.9140   28.8190   31.7850 C   0  0  0  0  0  0  0  0  0  0  0  0
   35.8670   29.7520   30.8070 N   0  0  0  0  0  0  0  0  0  0  0  0
   35.4850   31.0340   31.0830 C   0  0  0  0  0  0  0  0  0  0  0  0
   35.1510   31.4160   32.2980 N   0  0  0  0  0  0  0  0  0  0  0  0
   35.6200   28.4280   33.8030 H   0  0  0  0  0  0  0  0  0  0  0  0
   35.4480   31.7830   30.2970 H   0  0  0  0  0  0  0  0  0  0  0  0
   34.8610   30.7450   34.6510 O   0  0  0  0  0  0  0  0  0  0  0  0
   35.7910   31.2070   35.6080 C   0  0  0  0  0  0  0  0  0  0  0  0
   35.1600   31.5150   36.8080 F   0  0  0  0  0  0  0  0  0  0  0  0
   36.4360   32.3010   35.0940 F   0  0  0  0  0  0  0  0  0  0  0  0
   36.7270   30.2170   35.8160 F   0  0  0  0  0  0  0  0  0  0  0  0
   38.3460   23.9300   32.8100 O   0  0  0  0  0  0  0  0  0  0  0  0
   37.8720   25.3180   34.6060 C   0  0  0  0  0  3  0  0  0  0  0  0
   38.2960   24.0550   34.1840 C   0  0  0  0  0  0  0  0  0  0  0  0
   38.6060   23.1110   35.1420 C   0  0  0  0  0  0  0  0  0  0  0  0
   38.9240   22.1620   34.7470 H   0  0  0  0  0  0  0  0  0  0  0  0
   38.5010   23.4030   36.4850 C   0  0  0  0  0  0  0  0  0  0  0  0
   38.7560   22.6180   37.5620 N   0  0  0  0  0  0  0  0  0  0  0  0
   39.0850   21.6300   37.5340 H   0  0  0  0  0  0  0  0  0  0  0  0
   38.5000   23.3660   38.6590 C   0  0  0  0  0  0  0  0  0  0  0  0
   38.6190   22.9900   39.6760 H   0  0  0  0  0  0  0  0  0  0  0  0
   38.0790   24.6320   38.3100 C   0  0  0  0  0  3  0  0  0  0  0  0
   38.0870   24.6330   36.9240 C   0  0  0  0  0  0  0  0  0  0  0  0
   37.7770   25.5800   35.9770 C   0  0  0  0  0  3  0  0  0  0  0  0
  1  6  1  1  0  0  0
  1 32  1  0  0  0  0
  2  7  1  6  0  0  0
  2 15  1  0  0  0  0
  2  1  1  0  0  0  0
  3  4  1  0  0  0  0
  3  9  1  0  0  0  0
  3  2  1  0  0  0  0
  4  5  1  0  0  0  0
  5  1  1  0  0  0  0
  5 11  1  0  0  0  0
  8  3  1  0  0  0  0
 10  5  1  0  0  0  0
 12 21  1  0  0  0  0
 13 17  1  0  0  0  0
 13 12  1  0  0  0  0
 14 13  2  0  0  0  0
 15 14  1  0  0  0  0
 15 16  1  0  0  0  0
 16 12  2  0  0  0  0
 18 14  1  0  0  0  0
 19 27  1  0  0  0  0
 20 19  1  0  0  0  0
 20 25  1  0  0  0  0
 21 20  2  0  0  0  0
 22 23  2  0  0  0  0
 22 21  1  0  0  0  0
 23 24  1  0  0  0  0
 24 19  2  0  0  0  0
 26 23  1  0  0  0  0
 27 28  1  0  0  0  0
 28 31  1  0  0  0  0
 28 29  1  0  0  0  0
 30 28  1  0  0  0  0
 32 34  1  0  0  0  0
 33 44  1  0  0  0  0
 34 33  2  0  0  0  0
 34 35  1  0  0  0  0
 35 37  2  0  0  0  0
 36 35  1  0  0  0  0
 37 43  1  0  0  0  0
 37 38  1  0  0  0  0
 38 40  1  0  0  0  0
 39 38  1  0  0  0  0
 40 41  1  0  0  0  0
 42 40  2  0  0  0  0
 43 42  1  0  0  0  0
 44 43  2  0  0  0  0
M  END
>  <minimizedAffinity>
-6.39361048

$$$$

 OpenBabel03272503433D

 44 48  0  0  1  0  0  0  0  0999 V2000
   41.8370   25.6160   33.8280 C   0  0  2  0  0  0  0  0  0  0  0  0
   42.2580   24.3000   34.4640 C   0  0  1  0  0  0  0  0  0  0  0  0
   43.1970   24.8470   35.5190 C   0  0  0  0  0  0  0  0  0  0  0  0
   43.8300   25.9430   34.9820 O   0  0  0  0  0  0  0  0  0  0  0  0
   43.2140   26.3080   33.8230 C   0  0  0  0  0  0  0  0  0  0  0  0
   41.4450   25.5130   32.8110 H   0  0  0  0  0  0  0  0  0  0  0  0
   42.8330   23.6480   33.7950 H   0  0  0  0  0  0  0  0  0  0  0  0
   43.8940   24.0720   35.8880 H   0  0  0  0  0  0  0  0  0  0  0  0
   42.5770   25.1990   36.3550 H   0  0  0  0  0  0  0  0  0  0  0  0
   43.7640   25.8180   32.9690 H   0  0  0  0  0  0  0  0  0  0  0  0
   43.0720   27.3910   33.6710 H   0  0  0  0  0  0  0  0  0  0  0  0
   39.2420   22.5550   35.3120 C   0  0  0  0  0  0  0  0  0  0  0  0
   39.8160   22.6420   36.5420 C   0  0  0  0  0  0  0  0  0  0  0  0
   41.0180   23.3180   36.3170 C   0  0  0  0  0  0  0  0  0  0  0  0
   41.1340   23.6070   35.0240 N   0  0  0  0  0  0  0  0  0  0  0  0
   40.0400   23.1370   34.3940 N   0  0  0  0  0  0  0  0  0  0  0  0
   39.3910   22.2540   37.4740 H   0  0  0  0  0  0  0  0  0  0  0  0
   41.6960   23.5300   37.1570 H   0  0  0  0  0  0  0  0  0  0  0  0
   36.3470   20.9990   33.4960 C   0  0  0  0  0  0  0  0  0  0  0  0
   37.5720   21.5920   33.7350 C   0  0  0  0  0  0  0  0  0  0  0  0
   37.9570   21.9260   35.0130 C   0  0  0  0  0  0  0  0  0  0  0  0
   37.0950   21.6520   36.0180 N   0  0  0  0  0  0  0  0  0  0  0  0
   35.8880   21.0650   35.7640 C   0  0  0  0  0  0  0  0  0  0  0  0
   35.5140   20.7430   34.5430 N   0  0  0  0  0  0  0  0  0  0  0  0
   38.2970   21.8320   32.9670 H   0  0  0  0  0  0  0  0  0  0  0  0
   35.1960   20.8450   36.5710 H   0  0  0  0  0  0  0  0  0  0  0  0
   36.1120   20.7250   32.1530 O   0  0  0  0  0  0  0  0  0  0  0  0
   35.6380   19.4820   31.6800 C   0  0  0  0  0  0  0  0  0  0  0  0
   36.2120   18.4290   32.3850 F   0  0  0  0  0  0  0  0  0  0  0  0
   35.9170   19.3910   30.3420 F   0  0  0  0  0  0  0  0  0  0  0  0
   34.2690   19.4520   31.8340 F   0  0  0  0  0  0  0  0  0  0  0  0
   41.0160   26.2660   34.7460 O   0  0  0  0  0  0  0  0  0  0  0  0
   39.0370   27.0920   35.6300 C   0  0  0  0  0  3  0  0  0  0  0  0
   39.7630   26.7810   34.4770 C   0  0  0  0  0  0  0  0  0  0  0  0
   39.1770   27.0130   33.2490 C   0  0  0  0  0  0  0  0  0  0  0  0
   39.7930   26.7510   32.4050 H   0  0  0  0  0  0  0  0  0  0  0  0
   37.9070   27.5370   33.1570 C   0  0  0  0  0  0  0  0  0  0  0  0
   37.1710   27.8320   32.0550 N   0  0  0  0  0  0  0  0  0  0  0  0
   37.4710   27.7000   31.0660 H   0  0  0  0  0  0  0  0  0  0  0  0
   35.9910   28.3240   32.4940 C   0  0  0  0  0  0  0  0  0  0  0  0
   35.1940   28.6480   31.8220 H   0  0  0  0  0  0  0  0  0  0  0  0
   35.9470   28.3540   33.8730 C   0  0  0  0  0  3  0  0  0  0  0  0
   37.1740   27.8500   34.2720 C   0  0  0  0  0  0  0  0  0  0  0  0
   37.7490   27.6220   35.4990 C   0  0  0  0  0  3  0  0  0  0  0  0
  1  6  1  6  0  0  0
  1  2  1  0  0  0  0
  1 32  1  0  0  0  0
  2  7  1  6  0  0  0
  2 15  1  0  0  0  0
  2  3  1  0  0  0  0
  3  8  1  0  0  0  0
  3  9  1  0  0  0  0
  4  3  1  0  0  0  0
  5  1  1  0  0  0  0
  5  4  1  0  0  0  0
 10  5  1  0  0  0  0
 11  5  1  0  0  0  0
 12 13  1  0  0  0  0
 13 17  1  0  0  0  0
 14 13  2  0  0  0  0
 14 18  1  0  0  0  0
 15 14  1  0  0  0  0
 16 15  1  0  0  0  0
 16 12  2  0  0  0  0
 19 20  2  0  0  0  0
 19 24  1  0  0  0  0
 20 21  1  0  0  0  0
 21 12  1  0  0  0  0
 21 22  2  0  0  0  0
 23 22  1  0  0  0  0
 23 26  1  0  0  0  0
 24 23  2  0  0  0  0
 25 20  1  0  0  0  0
 27 19  1  0  0  0  0
 28 31  1  0  0  0  0
 28 27  1  0  0  0  0
 28 29  1  0  0  0  0
 30 28  1  0  0  0  0
 34 32  1  0  0  0  0
 34 33  2  0  0  0  0
 35 34  1  0  0  0  0
 36 35  1  0  0  0  0
 37 35  2  0  0  0  0
 37 43  1  0  0  0  0
 38 40  1  0  0  0  0
 38 37  1  0  0  0  0
 39 38  1  0  0  0  0
 40 42  2  0  0  0  0
 41 40  1  0  0  0  0
 42 43  1  0  0  0  0
 43 44  2  0  0  0  0
 44 33  1  0  0  0  0
M  END
>  <minimizedAffinity>
-6.37344503

$$$$

 OpenBabel03272503433D

 44 48  0  0  1  0  0  0  0  0999 V2000
   38.7710   22.3030   32.2630 C   0  0  2  0  0  0  0  0  0  0  0  0
   38.0950   22.5550   30.9230 C   0  0  1  0  0  0  0  0  0  0  0  0
   37.3930   21.2220   30.7680 C   0  0  0  0  0  0  0  0  0  0  0  0
   38.2120   20.2570   31.3070 O   0  0  0  0  0  0  0  0  0  0  0  0
   39.2150   20.8480   32.0150 C   0  0  0  0  0  0  0  0  0  0  0  0
   39.6320   22.9500   32.4550 H   0  0  0  0  0  0  0  0  0  0  0  0
   38.7960   22.6750   30.0890 H   0  0  0  0  0  0  0  0  0  0  0  0
   37.1150   21.0250   29.7160 H   0  0  0  0  0  0  0  0  0  0  0  0
   36.4810   21.2600   31.3790 H   0  0  0  0  0  0  0  0  0  0  0  0
   40.1080   20.9470   31.3340 H   0  0  0  0  0  0  0  0  0  0  0  0
   39.4660   20.3780   32.9810 H   0  0  0  0  0  0  0  0  0  0  0  0
   36.2960   25.6520   31.0970 C   0  0  0  0  0  0  0  0  0  0  0  0
   35.2570   24.7770   31.1180 C   0  0  0  0  0  0  0  0  0  0  0  0
   35.8620   23.5180   31.0540 C   0  0  0  0  0  0  0  0  0  0  0  0
   37.1830   23.6590   30.9980 N   0  0  0  0  0  0  0  0  0  0  0  0
   37.4620   24.9770   31.0230 N   0  0  0  0  0  0  0  0  0  0  0  0
   34.1970   25.0450   31.1750 H   0  0  0  0  0  0  0  0  0  0  0  0
   35.2420   22.6090   31.0560 H   0  0  0  0  0  0  0  0  0  0  0  0
   35.4380   29.1520   32.1530 C   0  0  0  0  0  0  0  0  0  0  0  0
   35.5190   27.7730   32.1470 C   0  0  0  0  0  0  0  0  0  0  0  0
   36.1860   27.1090   31.1430 C   0  0  0  0  0  0  0  0  0  0  0  0
   36.7580   27.8560   30.1710 N   0  0  0  0  0  0  0  0  0  0  0  0
   36.6690   29.2180   30.1940 C   0  0  0  0  0  0  0  0  0  0  0  0
   36.0310   29.8590   31.1510 N   0  0  0  0  0  0  0  0  0  0  0  0
   35.0790   27.1300   32.9000 H   0  0  0  0  0  0  0  0  0  0  0  0
   37.1280   29.8180   29.4130 H   0  0  0  0  0  0  0  0  0  0  0  0
   34.7290   29.6650   33.2340 O   0  0  0  0  0  0  0  0  0  0  0  0
   35.3420   30.2540   34.3610 C   0  0  0  0  0  0  0  0  0  0  0  0
   34.4100   30.5040   35.3620 F   0  0  0  0  0  0  0  0  0  0  0  0
   35.9620   31.4100   33.9640 F   0  0  0  0  0  0  0  0  0  0  0  0
   36.3080   29.3900   34.8310 F   0  0  0  0  0  0  0  0  0  0  0  0
   37.7670   22.3030   33.2300 O   0  0  0  0  0  0  0  0  0  0  0  0
   38.0790   24.2760   34.4080 C   0  0  0  0  0  3  0  0  0  0  0  0
   37.8520   22.8990   34.4720 C   0  0  0  0  0  0  0  0  0  0  0  0
   37.7400   22.3080   35.7150 C   0  0  0  0  0  0  0  0  0  0  0  0
   37.5650   21.2460   35.6900 H   0  0  0  0  0  0  0  0  0  0  0  0
   37.8500   23.0550   36.8670 C   0  0  0  0  0  0  0  0  0  0  0  0
   37.7700   22.6610   38.1630 N   0  0  0  0  0  0  0  0  0  0  0  0
   37.6050   21.6880   38.4980 H   0  0  0  0  0  0  0  0  0  0  0  0
   37.9440   23.7680   38.9200 C   0  0  0  0  0  0  0  0  0  0  0  0
   37.9290   23.7530   40.0100 H   0  0  0  0  0  0  0  0  0  0  0  0
   38.1370   24.8840   38.1300 C   0  0  0  0  0  3  0  0  0  0  0  0
   38.0730   24.4070   36.8310 C   0  0  0  0  0  0  0  0  0  0  0  0
   38.1860   25.0030   35.5980 C   0  0  0  0  0  3  0  0  0  0  0  0
  1  6  1  1  0  0  0
  1 32  1  0  0  0  0
  2  7  1  6  0  0  0
  2 15  1  0  0  0  0
  2  1  1  0  0  0  0
  3  2  1  0  0  0  0
  3  4  1  0  0  0  0
  3  9  1  0  0  0  0
  4  5  1  0  0  0  0
  5  1  1  0  0  0  0
  5 11  1  0  0  0  0
  8  3  1  0  0  0  0
 10  5  1  0  0  0  0
 12 13  1  0  0  0  0
 12 21  1  0  0  0  0
 13 17  1  0  0  0  0
 14 18  1  0  0  0  0
 14 13  2  0  0  0  0
 15 16  1  0  0  0  0
 15 14  1  0  0  0  0
 16 12  2  0  0  0  0
 19 27  1  0  0  0  0
 20 19  1  0  0  0  0
 20 25  1  0  0  0  0
 21 20  2  0  0  0  0
 22 23  2  0  0  0  0
 22 21  1  0  0  0  0
 23 24  1  0  0  0  0
 24 19  2  0  0  0  0
 26 23  1  0  0  0  0
 27 28  1  0  0  0  0
 28 31  1  0  0  0  0
 28 29  1  0  0  0  0
 30 28  1  0  0  0  0
 32 34  1  0  0  0  0
 33 34  2  0  0  0  0
 33 44  1  0  0  0  0
 34 35  1  0  0  0  0
 35 37  2  0  0  0  0
 36 35  1  0  0  0  0
 37 38  1  0  0  0  0
 38 39  1  0  0  0  0
 38 40  1  0  0  0  0
 40 41  1  0  0  0  0
 42 40  2  0  0  0  0
 43 37  1  0  0  0  0
 43 42  1  0  0  0  0
 44 43  2  0  0  0  0
M  END
>  <minimizedAffinity>
-6.31293058

$$$$
