
 OpenBabel03272510183D

 31 34  0  0  0  0  0  0  0  0999 V2000
   35.4720   30.3950   31.5130 Br  0  0  0  0  0  0  0  0  0  0  0  0
   36.2920   28.9980   32.5430 C   0  0  0  0  0  0  0  0  0  0  0  0
   36.0390   28.8750   33.8910 C   0  0  0  0  0  0  0  0  0  0  0  0
   36.6670   27.8430   34.5640 C   0  0  0  0  0  0  0  0  0  0  0  0
   37.5230   26.9450   33.9500 C   0  0  0  0  0  0  0  0  0  0  0  0
   37.7480   27.1000   32.6100 C   0  0  0  0  0  0  0  0  0  0  0  0
   37.1320   28.1240   31.9150 C   0  0  0  0  0  0  0  0  0  0  0  0
   36.4990   27.7090   35.6220 H   0  0  0  0  0  0  0  0  0  0  0  0
   38.4010   26.4310   32.0880 H   0  0  0  0  0  0  0  0  0  0  0  0
   37.3440   28.2030   30.8590 H   0  0  0  0  0  0  0  0  0  0  0  0
   39.1620   25.0700   34.1920 C   0  0  0  0  0  3  0  0  0  0  0  0
   38.1610   25.8830   34.6810 C   0  0  0  0  0  0  0  0  0  0  0  0
   37.7840   25.6030   35.9790 C   0  0  0  0  0  0  0  0  0  0  0  0
   36.9900   26.2260   36.4020 H   0  0  0  0  0  0  0  0  0  0  0  0
   38.3030   24.6210   36.7940 C   0  0  0  0  0  0  0  0  0  0  0  0
   38.0400   24.2400   38.0540 N   0  0  0  0  0  0  0  0  0  0  0  0
   37.3160   24.6980   38.6540 H   0  0  0  0  0  0  0  0  0  0  0  0
   38.8880   23.2020   38.3090 C   0  0  0  0  0  0  0  0  0  0  0  0
   38.8210   22.7550   39.2970 H   0  0  0  0  0  0  0  0  0  0  0  0
   39.6690   22.9500   37.2030 C   0  0  0  0  0  3  0  0  0  0  0  0
   39.3150   23.8460   36.2150 C   0  0  0  0  0  0  0  0  0  0  0  0
   39.7480   24.0610   34.9260 C   0  0  0  0  0  3  0  0  0  0  0  0
   34.9330   31.7170   35.8910 C   0  0  0  0  0  0  0  0  0  0  0  0
   33.5270   31.5960   35.8980 C   0  0  0  0  0  0  0  0  0  0  0  0
   32.9750   30.5270   35.2070 C   0  0  0  0  0  0  0  0  0  0  0  0
   33.7960   29.6480   34.5580 N   0  0  0  0  0  0  0  0  0  0  0  0
   35.1460   29.7990   34.5760 C   0  0  0  0  0  0  0  0  0  0  0  0
   35.7070   30.8420   35.2480 N   0  0  0  0  0  0  0  0  0  0  0  0
   35.4240   32.5420   36.4190 H   0  0  0  0  0  0  0  0  0  0  0  0
   32.9180   32.3160   36.4260 H   0  0  0  0  0  0  0  0  0  0  0  0
   31.9040   30.3810   35.1760 H   0  0  0  0  0  0  0  0  0  0  0  0
  1  2  1  0  0  0  0
  2  3  1  0  0  0  0
  3  4  2  0  0  0  0
  3 27  1  0  0  0  0
  4  8  1  0  0  0  0
  5  4  1  0  0  0  0
  5 12  1  0  0  0  0
  6  5  2  0  0  0  0
  7  2  2  0  0  0  0
  7  6  1  0  0  0  0
  9  6  1  0  0  0  0
 10  7  1  0  0  0  0
 11 12  2  0  0  0  0
 11 22  1  0  0  0  0
 12 13  1  0  0  0  0
 13 14  1  0  0  0  0
 13 15  2  0  0  0  0
 15 16  1  0  0  0  0
 16 18  1  0  0  0  0
 16 17  1  0  0  0  0
 18 19  1  0  0  0  0
 20 18  2  0  0  0  0
 21 15  1  0  0  0  0
 21 20  1  0  0  0  0
 22 21  2  0  0  0  0
 23 24  1  0  0  0  0
 23 29  1  0  0  0  0
 24 30  1  0  0  0  0
 25 24  2  0  0  0  0
 26 27  2  0  0  0  0
 26 25  1  0  0  0  0
 27 28  1  0  0  0  0
 28 23  2  0  0  0  0
 31 25  1  0  0  0  0
M  END
>  <minimizedAffinity>
-6.17058945

$$$$

 OpenBabel03272510183D

 31 34  0  0  0  0  0  0  0  0999 V2000
   36.0070   29.4640   31.5260 Br  0  0  0  0  0  0  0  0  0  0  0  0
   36.7200   28.1710   32.7540 C   0  0  0  0  0  0  0  0  0  0  0  0
   36.4620   28.2650   34.1040 C   0  0  0  0  0  0  0  0  0  0  0  0
   37.0100   27.2960   34.9240 C   0  0  0  0  0  0  0  0  0  0  0  0
   37.7920   26.2560   34.4530 C   0  0  0  0  0  0  0  0  0  0  0  0
   38.0240   26.1970   33.1070 C   0  0  0  0  0  0  0  0  0  0  0  0
   37.4870   27.1540   32.2660 C   0  0  0  0  0  0  0  0  0  0  0  0
   36.8340   27.3300   35.9890 H   0  0  0  0  0  0  0  0  0  0  0  0
   38.6220   25.4120   32.6930 H   0  0  0  0  0  0  0  0  0  0  0  0
   37.7030   27.0630   31.2110 H   0  0  0  0  0  0  0  0  0  0  0  0
   37.7530   24.8090   36.4950 C   0  0  0  0  0  3  0  0  0  0  0  0
   38.3480   25.2640   35.3360 C   0  0  0  0  0  0  0  0  0  0  0  0
   39.5690   24.6850   35.0580 C   0  0  0  0  0  0  0  0  0  0  0  0
   40.0720   25.0220   34.1480 H   0  0  0  0  0  0  0  0  0  0  0  0
   40.2180   23.7300   35.8100 C   0  0  0  0  0  0  0  0  0  0  0  0
   41.3880   23.0880   35.6660 N   0  0  0  0  0  0  0  0  0  0  0  0
   42.0380   23.2510   34.8630 H   0  0  0  0  0  0  0  0  0  0  0  0
   41.4830   22.2520   36.7400 C   0  0  0  0  0  0  0  0  0  0  0  0
   42.3790   21.6390   36.7980 H   0  0  0  0  0  0  0  0  0  0  0  0
   40.3690   22.3860   37.5400 C   0  0  0  0  0  3  0  0  0  0  0  0
   39.5410   23.3280   36.9670 C   0  0  0  0  0  0  0  0  0  0  0  0
   38.3180   23.8570   37.3150 C   0  0  0  0  0  3  0  0  0  0  0  0
   33.5010   30.2100   34.9670 C   0  0  0  0  0  0  0  0  0  0  0  0
   34.0240   31.3430   35.6270 C   0  0  0  0  0  0  0  0  0  0  0  0
   35.4010   31.4210   35.7660 C   0  0  0  0  0  0  0  0  0  0  0  0
   36.1870   30.4200   35.2690 N   0  0  0  0  0  0  0  0  0  0  0  0
   35.6450   29.3440   34.6400 C   0  0  0  0  0  0  0  0  0  0  0  0
   34.2950   29.2490   34.4940 N   0  0  0  0  0  0  0  0  0  0  0  0
   32.4200   30.0950   34.8300 H   0  0  0  0  0  0  0  0  0  0  0  0
   33.3620   32.1110   36.0040 H   0  0  0  0  0  0  0  0  0  0  0  0
   35.8610   32.2650   36.2610 H   0  0  0  0  0  0  0  0  0  0  0  0
  1  2  1  0  0  0  0
  2  3  1  0  0  0  0
  3 27  1  0  0  0  0
  3  4  2  0  0  0  0
  4  8  1  0  0  0  0
  5  4  1  0  0  0  0
  5 12  1  0  0  0  0
  6  5  2  0  0  0  0
  7  2  2  0  0  0  0
  7  6  1  0  0  0  0
  9  6  1  0  0  0  0
 10  7  1  0  0  0  0
 11 22  1  0  0  0  0
 12 11  2  0  0  0  0
 13 12  1  0  0  0  0
 13 15  2  0  0  0  0
 14 13  1  0  0  0  0
 15 21  1  0  0  0  0
 16 15  1  0  0  0  0
 16 18  1  0  0  0  0
 17 16  1  0  0  0  0
 18 19  1  0  0  0  0
 18 20  2  0  0  0  0
 21 22  2  0  0  0  0
 21 20  1  0  0  0  0
 23 24  1  0  0  0  0
 24 25  2  0  0  0  0
 24 30  1  0  0  0  0
 25 31  1  0  0  0  0
 26 25  1  0  0  0  0
 27 26  2  0  0  0  0
 28 27  1  0  0  0  0
 28 23  2  0  0  0  0
 29 23  1  0  0  0  0
M  END
>  <minimizedAffinity>
-5.99755287

$$$$

 OpenBabel03272510183D

 31 34  0  0  0  0  0  0  0  0999 V2000
   37.6760   25.8770   31.2310 Br  0  0  0  0  0  0  0  0  0  0  0  0
   36.9420   27.2010   32.4120 C   0  0  0  0  0  0  0  0  0  0  0  0
   37.2940   27.2300   33.7430 C   0  0  0  0  0  0  0  0  0  0  0  0
   36.7230   28.2130   34.5300 C   0  0  0  0  0  0  0  0  0  0  0  0
   35.8300   29.1520   34.0430 C   0  0  0  0  0  0  0  0  0  0  0  0
   35.5070   29.0910   32.7160 C   0  0  0  0  0  0  0  0  0  0  0  0
   36.0640   28.1160   31.9090 C   0  0  0  0  0  0  0  0  0  0  0  0
   36.9700   28.2750   35.5790 H   0  0  0  0  0  0  0  0  0  0  0  0
   34.8210   29.7950   32.2910 H   0  0  0  0  0  0  0  0  0  0  0  0
   35.7740   28.1110   30.8680 H   0  0  0  0  0  0  0  0  0  0  0  0
   35.9700   31.0730   35.6410 C   0  0  0  0  0  3  0  0  0  0  0  0
   35.2550   30.1630   34.8910 C   0  0  0  0  0  0  0  0  0  0  0  0
   33.8850   30.2820   35.0070 C   0  0  0  0  0  0  0  0  0  0  0  0
   33.2830   29.5760   34.4280 H   0  0  0  0  0  0  0  0  0  0  0  0
   33.1990   31.1950   35.7770 C   0  0  0  0  0  0  0  0  0  0  0  0
   31.8930   31.4250   35.9850 N   0  0  0  0  0  0  0  0  0  0  0  0
   31.1330   30.8690   35.5310 H   0  0  0  0  0  0  0  0  0  0  0  0
   31.8380   32.4730   36.8580 C   0  0  0  0  0  0  0  0  0  0  0  0
   30.8460   32.8070   37.1490 H   0  0  0  0  0  0  0  0  0  0  0  0
   33.1130   32.8820   37.1820 C   0  0  0  0  0  3  0  0  0  0  0  0
   34.0060   32.0790   36.5040 C   0  0  0  0  0  0  0  0  0  0  0  0
   35.3810   32.0270   36.4430 C   0  0  0  0  0  3  0  0  0  0  0  0
   40.4430   25.7540   34.8390 C   0  0  0  0  0  0  0  0  0  0  0  0
   40.0670   24.4830   35.3260 C   0  0  0  0  0  0  0  0  0  0  0  0
   38.7220   24.1500   35.2680 C   0  0  0  0  0  0  0  0  0  0  0  0
   37.8270   25.0460   34.7540 N   0  0  0  0  0  0  0  0  0  0  0  0
   38.2290   26.2600   34.2950 C   0  0  0  0  0  0  0  0  0  0  0  0
   39.5450   26.6050   34.3430 N   0  0  0  0  0  0  0  0  0  0  0  0
   41.4920   26.0710   34.8610 H   0  0  0  0  0  0  0  0  0  0  0  0
   40.8120   23.8070   35.7240 H   0  0  0  0  0  0  0  0  0  0  0  0
   38.3730   23.1910   35.6250 H   0  0  0  0  0  0  0  0  0  0  0  0
  1  2  1  0  0  0  0
  2  3  1  0  0  0  0
  3 27  1  0  0  0  0
  3  4  2  0  0  0  0
  4  8  1  0  0  0  0
  5  4  1  0  0  0  0
  5 12  1  0  0  0  0
  6  5  2  0  0  0  0
  7  2  2  0  0  0  0
  7  6  1  0  0  0  0
  9  6  1  0  0  0  0
 10  7  1  0  0  0  0
 11 22  1  0  0  0  0
 12 13  1  0  0  0  0
 12 11  2  0  0  0  0
 13 15  2  0  0  0  0
 14 13  1  0  0  0  0
 15 16  1  0  0  0  0
 15 21  1  0  0  0  0
 16 18  1  0  0  0  0
 17 16  1  0  0  0  0
 18 19  1  0  0  0  0
 18 20  2  0  0  0  0
 21 20  1  0  0  0  0
 22 21  2  0  0  0  0
 23 29  1  0  0  0  0
 23 24  1  0  0  0  0
 24 30  1  0  0  0  0
 25 24  2  0  0  0  0
 25 31  1  0  0  0  0
 26 25  1  0  0  0  0
 27 28  1  0  0  0  0
 27 26  2  0  0  0  0
 28 23  2  0  0  0  0
M  END
>  <minimizedAffinity>
-5.84840727

$$$$

 OpenBabel03272510183D

 31 34  0  0  0  0  0  0  0  0999 V2000
   38.6970   26.5090   30.8950 Br  0  0  0  0  0  0  0  0  0  0  0  0
   37.5570   27.5100   32.0710 C   0  0  0  0  0  0  0  0  0  0  0  0
   37.5390   27.2510   33.4240 C   0  0  0  0  0  0  0  0  0  0  0  0
   36.6910   28.0150   34.2060 C   0  0  0  0  0  0  0  0  0  0  0  0
   35.8760   29.0100   33.6930 C   0  0  0  0  0  0  0  0  0  0  0  0
   35.9230   29.2370   32.3460 C   0  0  0  0  0  0  0  0  0  0  0  0
   36.7630   28.4860   31.5430 C   0  0  0  0  0  0  0  0  0  0  0  0
   36.6440   27.8470   35.2710 H   0  0  0  0  0  0  0  0  0  0  0  0
   35.3130   29.9950   31.9010 H   0  0  0  0  0  0  0  0  0  0  0  0
   36.7610   28.7050   30.4850 H   0  0  0  0  0  0  0  0  0  0  0  0
   33.6440   29.5970   34.6610 C   0  0  0  0  0  3  0  0  0  0  0  0
   35.0050   29.7850   34.5370 C   0  0  0  0  0  0  0  0  0  0  0  0
   35.5090   30.8130   35.3060 C   0  0  0  0  0  0  0  0  0  0  0  0
   36.5860   30.9940   35.2330 H   0  0  0  0  0  0  0  0  0  0  0  0
   34.7980   31.6340   36.1530 C   0  0  0  0  0  0  0  0  0  0  0  0
   35.1480   32.6570   36.9500 N   0  0  0  0  0  0  0  0  0  0  0  0
   36.1300   33.0040   37.0400 H   0  0  0  0  0  0  0  0  0  0  0  0
   33.9920   33.0710   37.5450 C   0  0  0  0  0  0  0  0  0  0  0  0
   34.0780   33.9050   38.2370 H   0  0  0  0  0  0  0  0  0  0  0  0
   32.9370   32.3000   37.1110 C   0  0  0  0  0  3  0  0  0  0  0  0
   33.4250   31.3710   36.2160 C   0  0  0  0  0  0  0  0  0  0  0  0
   32.8430   30.3620   35.4800 C   0  0  0  0  0  3  0  0  0  0  0  0
   38.5680   23.9880   34.6830 C   0  0  0  0  0  0  0  0  0  0  0  0
   39.9060   24.1910   35.0880 C   0  0  0  0  0  0  0  0  0  0  0  0
   40.4370   25.4600   34.9200 C   0  0  0  0  0  0  0  0  0  0  0  0
   39.6640   26.4490   34.3800 N   0  0  0  0  0  0  0  0  0  0  0  0
   38.3800   26.2140   34.0020 C   0  0  0  0  0  0  0  0  0  0  0  0
   37.8400   24.9740   34.1590 N   0  0  0  0  0  0  0  0  0  0  0  0
   38.0960   23.0050   34.7920 H   0  0  0  0  0  0  0  0  0  0  0  0
   40.4780   23.3770   35.5110 H   0  0  0  0  0  0  0  0  0  0  0  0
   41.4560   25.6770   35.2120 H   0  0  0  0  0  0  0  0  0  0  0  0
  1  2  1  0  0  0  0
  2  3  1  0  0  0  0
  3 27  1  0  0  0  0
  3  4  2  0  0  0  0
  4  8  1  0  0  0  0
  5  4  1  0  0  0  0
  5 12  1  0  0  0  0
  6  5  2  0  0  0  0
  7  2  2  0  0  0  0
  7  6  1  0  0  0  0
  9  6  1  0  0  0  0
 10  7  1  0  0  0  0
 11 22  1  0  0  0  0
 12 11  2  0  0  0  0
 12 13  1  0  0  0  0
 13 15  2  0  0  0  0
 14 13  1  0  0  0  0
 15 21  1  0  0  0  0
 15 16  1  0  0  0  0
 16 17  1  0  0  0  0
 16 18  1  0  0  0  0
 18 19  1  0  0  0  0
 20 18  2  0  0  0  0
 21 20  1  0  0  0  0
 22 21  2  0  0  0  0
 23 29  1  0  0  0  0
 23 24  1  0  0  0  0
 24 30  1  0  0  0  0
 25 24  2  0  0  0  0
 25 31  1  0  0  0  0
 26 25  1  0  0  0  0
 27 28  1  0  0  0  0
 27 26  2  0  0  0  0
 28 23  2  0  0  0  0
M  END
>  <minimizedAffinity>
-5.83296776

$$$$

 OpenBabel03272510183D

 31 34  0  0  0  0  0  0  0  0999 V2000
   35.2050   31.4700   32.0650 Br  0  0  0  0  0  0  0  0  0  0  0  0
   35.8930   29.8270   32.7840 C   0  0  0  0  0  0  0  0  0  0  0  0
   35.7770   29.5420   34.1260 C   0  0  0  0  0  0  0  0  0  0  0  0
   36.2970   28.3390   34.5670 C   0  0  0  0  0  0  0  0  0  0  0  0
   36.9180   27.4280   33.7310 C   0  0  0  0  0  0  0  0  0  0  0  0
   37.0130   27.7470   32.4050 C   0  0  0  0  0  0  0  0  0  0  0  0
   36.5010   28.9440   31.9390 C   0  0  0  0  0  0  0  0  0  0  0  0
   36.2280   28.0730   35.6110 H   0  0  0  0  0  0  0  0  0  0  0  0
   37.4830   27.0760   31.7170 H   0  0  0  0  0  0  0  0  0  0  0  0
   36.6030   29.1480   30.8830 H   0  0  0  0  0  0  0  0  0  0  0  0
   37.7560   25.9190   35.5430 C   0  0  0  0  0  3  0  0  0  0  0  0
   37.4490   26.1840   34.2240 C   0  0  0  0  0  0  0  0  0  0  0  0
   37.6920   25.1360   33.3610 C   0  0  0  0  0  0  0  0  0  0  0  0
   37.4620   25.3090   32.3060 H   0  0  0  0  0  0  0  0  0  0  0  0
   38.1970   23.8970   33.6910 C   0  0  0  0  0  0  0  0  0  0  0  0
   38.4810   22.8000   32.9710 N   0  0  0  0  0  0  0  0  0  0  0  0
   38.3380   22.7380   31.9380 H   0  0  0  0  0  0  0  0  0  0  0  0
   38.9560   21.8860   33.8670 C   0  0  0  0  0  0  0  0  0  0  0  0
   39.2440   20.9190   33.4630 H   0  0  0  0  0  0  0  0  0  0  0  0
   38.9610   22.4270   35.1340 C   0  0  0  0  0  3  0  0  0  0  0  0
   38.4790   23.7170   35.0510 C   0  0  0  0  0  0  0  0  0  0  0  0
   38.2640   24.7140   35.9760 C   0  0  0  0  0  3  0  0  0  0  0  0
   33.1360   31.2410   35.9800 C   0  0  0  0  0  0  0  0  0  0  0  0
   33.8300   32.2020   36.7480 C   0  0  0  0  0  0  0  0  0  0  0  0
   35.2090   32.2510   36.6140 C   0  0  0  0  0  0  0  0  0  0  0  0
   35.8350   31.3850   35.7620 N   0  0  0  0  0  0  0  0  0  0  0  0
   35.1310   30.4740   35.0390 C   0  0  0  0  0  0  0  0  0  0  0  0
   33.7770   30.4100   35.1570 N   0  0  0  0  0  0  0  0  0  0  0  0
   32.0460   31.1570   36.0460 H   0  0  0  0  0  0  0  0  0  0  0  0
   33.2910   32.8660   37.4100 H   0  0  0  0  0  0  0  0  0  0  0  0
   35.7950   32.9650   37.1750 H   0  0  0  0  0  0  0  0  0  0  0  0
  1  2  1  0  0  0  0
  2  3  1  0  0  0  0
  3  4  2  0  0  0  0
  3 27  1  0  0  0  0
  4  8  1  0  0  0  0
  5 12  1  0  0  0  0
  5  4  1  0  0  0  0
  6  5  2  0  0  0  0
  7  6  1  0  0  0  0
  7  2  2  0  0  0  0
  9  6  1  0  0  0  0
 10  7  1  0  0  0  0
 11 22  1  0  0  0  0
 12 11  2  0  0  0  0
 13 15  2  0  0  0  0
 13 12  1  0  0  0  0
 14 13  1  0  0  0  0
 15 21  1  0  0  0  0
 16 15  1  0  0  0  0
 16 18  1  0  0  0  0
 17 16  1  0  0  0  0
 18 20  2  0  0  0  0
 19 18  1  0  0  0  0
 21 20  1  0  0  0  0
 21 22  2  0  0  0  0
 23 29  1  0  0  0  0
 23 24  1  0  0  0  0
 24 30  1  0  0  0  0
 25 24  2  0  0  0  0
 25 31  1  0  0  0  0
 26 25  1  0  0  0  0
 27 28  1  0  0  0  0
 27 26  2  0  0  0  0
 28 23  2  0  0  0  0
M  END
>  <minimizedAffinity>
-5.71875906

$$$$

 OpenBabel03272510183D

 31 34  0  0  0  0  0  0  0  0999 V2000
   38.4900   21.7900   33.3870 Br  0  0  0  0  0  0  0  0  0  0  0  0
   37.9040   23.6180   33.3320 C   0  0  0  0  0  0  0  0  0  0  0  0
   38.0190   24.4270   34.4410 C   0  0  0  0  0  0  0  0  0  0  0  0
   37.5760   25.7320   34.3230 C   0  0  0  0  0  0  0  0  0  0  0  0
   37.0320   26.2470   33.1580 C   0  0  0  0  0  0  0  0  0  0  0  0
   36.9360   25.4120   32.0800 C   0  0  0  0  0  0  0  0  0  0  0  0
   37.3720   24.1030   32.1730 C   0  0  0  0  0  0  0  0  0  0  0  0
   37.6460   26.4030   35.1660 H   0  0  0  0  0  0  0  0  0  0  0  0
   36.5240   25.7620   31.1570 H   0  0  0  0  0  0  0  0  0  0  0  0
   37.2730   23.4850   31.2930 H   0  0  0  0  0  0  0  0  0  0  0  0
   36.2480   28.4090   34.1460 C   0  0  0  0  0  3  0  0  0  0  0  0
   36.5800   27.6110   33.0710 C   0  0  0  0  0  0  0  0  0  0  0  0
   36.4460   28.2260   31.8440 C   0  0  0  0  0  0  0  0  0  0  0  0
   36.6980   27.6240   30.9660 H   0  0  0  0  0  0  0  0  0  0  0  0
   36.0250   29.5170   31.6100 C   0  0  0  0  0  0  0  0  0  0  0  0
   35.8490   30.2370   30.4910 N   0  0  0  0  0  0  0  0  0  0  0  0
   36.0320   29.8630   29.5330 H   0  0  0  0  0  0  0  0  0  0  0  0
   35.4140   31.4620   30.9070 C   0  0  0  0  0  0  0  0  0  0  0  0
   35.2140   32.1940   30.1290 H   0  0  0  0  0  0  0  0  0  0  0  0
   35.3250   31.4880   32.2820 C   0  0  0  0  0  3  0  0  0  0  0  0
   35.7110   30.2520   32.7590 C   0  0  0  0  0  0  0  0  0  0  0  0
   35.8180   29.7120   34.0210 C   0  0  0  0  0  3  0  0  0  0  0  0
   38.2320   23.3880   37.9290 C   0  0  0  0  0  0  0  0  0  0  0  0
   39.5760   22.9820   38.0770 C   0  0  0  0  0  0  0  0  0  0  0  0
   40.3960   23.0730   36.9630 C   0  0  0  0  0  0  0  0  0  0  0  0
   39.8850   23.5420   35.7860 N   0  0  0  0  0  0  0  0  0  0  0  0
   38.5850   23.9240   35.6840 C   0  0  0  0  0  0  0  0  0  0  0  0
   37.7640   23.8420   36.7660 N   0  0  0  0  0  0  0  0  0  0  0  0
   37.5380   23.3370   38.7760 H   0  0  0  0  0  0  0  0  0  0  0  0
   39.9350   22.6160   39.0290 H   0  0  0  0  0  0  0  0  0  0  0  0
   41.4350   22.7760   37.0150 H   0  0  0  0  0  0  0  0  0  0  0  0
  2  1  1  0  0  0  0
  2  3  1  0  0  0  0
  3 27  1  0  0  0  0
  4  3  2  0  0  0  0
  4  8  1  0  0  0  0
  5  4  1  0  0  0  0
  6  7  1  0  0  0  0
  6  5  2  0  0  0  0
  7  2  2  0  0  0  0
  9  6  1  0  0  0  0
 10  7  1  0  0  0  0
 12  5  1  0  0  0  0
 12 11  2  0  0  0  0
 13 12  1  0  0  0  0
 14 13  1  0  0  0  0
 15 13  2  0  0  0  0
 15 21  1  0  0  0  0
 16 18  1  0  0  0  0
 16 15  1  0  0  0  0
 17 16  1  0  0  0  0
 18 20  2  0  0  0  0
 19 18  1  0  0  0  0
 20 21  1  0  0  0  0
 21 22  2  0  0  0  0
 22 11  1  0  0  0  0
 23 24  1  0  0  0  0
 23 29  1  0  0  0  0
 24 30  1  0  0  0  0
 25 31  1  0  0  0  0
 25 24  2  0  0  0  0
 26 25  1  0  0  0  0
 27 26  2  0  0  0  0
 27 28  1  0  0  0  0
 28 23  2  0  0  0  0
M  END
>  <minimizedAffinity>
-5.63119936

$$$$

 OpenBabel03272510183D

 31 34  0  0  0  0  0  0  0  0999 V2000
   37.4670   28.6070   29.3280 Br  0  0  0  0  0  0  0  0  0  0  0  0
   36.7180   29.3700   30.9220 C   0  0  0  0  0  0  0  0  0  0  0  0
   36.2450   28.5650   31.9340 C   0  0  0  0  0  0  0  0  0  0  0  0
   35.7210   29.1890   33.0510 C   0  0  0  0  0  0  0  0  0  0  0  0
   35.6530   30.5650   33.1900 C   0  0  0  0  0  0  0  0  0  0  0  0
   36.1340   31.3300   32.1640 C   0  0  0  0  0  0  0  0  0  0  0  0
   36.6630   30.7290   31.0370 C   0  0  0  0  0  0  0  0  0  0  0  0
   35.3390   28.5980   33.8700 H   0  0  0  0  0  0  0  0  0  0  0  0
   36.1050   32.3980   32.2240 H   0  0  0  0  0  0  0  0  0  0  0  0
   37.0270   31.3790   30.2550 H   0  0  0  0  0  0  0  0  0  0  0  0
   35.7630   31.3440   35.5660 C   0  0  0  0  0  3  0  0  0  0  0  0
   35.1000   31.1820   34.3670 C   0  0  0  0  0  0  0  0  0  0  0  0
   33.8090   31.6680   34.3610 C   0  0  0  0  0  0  0  0  0  0  0  0
   33.2500   31.5560   33.4280 H   0  0  0  0  0  0  0  0  0  0  0  0
   33.1530   32.2780   35.4080 C   0  0  0  0  0  0  0  0  0  0  0  0
   31.9200   32.7920   35.5450 N   0  0  0  0  0  0  0  0  0  0  0  0
   31.2110   32.7960   34.7770 H   0  0  0  0  0  0  0  0  0  0  0  0
   31.8570   33.2590   36.8260 C   0  0  0  0  0  0  0  0  0  0  0  0
   30.9190   33.7180   37.1260 H   0  0  0  0  0  0  0  0  0  0  0  0
   33.0530   33.0290   37.4700 C   0  0  0  0  0  3  0  0  0  0  0  0
   33.9030   32.4000   36.5840 C   0  0  0  0  0  0  0  0  0  0  0  0
   35.1980   31.9410   36.6720 C   0  0  0  0  0  3  0  0  0  0  0  0
   37.4490   25.1460   32.3310 C   0  0  0  0  0  0  0  0  0  0  0  0
   36.4730   24.3670   31.6710 C   0  0  0  0  0  0  0  0  0  0  0  0
   35.4060   25.0380   31.0940 C   0  0  0  0  0  0  0  0  0  0  0  0
   35.3370   26.4000   31.1820 N   0  0  0  0  0  0  0  0  0  0  0  0
   36.2980   27.1140   31.8270 C   0  0  0  0  0  0  0  0  0  0  0  0
   37.3530   26.4740   32.4000 N   0  0  0  0  0  0  0  0  0  0  0  0
   38.3140   24.6690   32.8060 H   0  0  0  0  0  0  0  0  0  0  0  0
   36.5700   23.2910   31.6260 H   0  0  0  0  0  0  0  0  0  0  0  0
   34.6270   24.4970   30.5740 H   0  0  0  0  0  0  0  0  0  0  0  0
  1  2  1  0  0  0  0
  2  7  2  0  0  0  0
  2  3  1  0  0  0  0
  3  4  2  0  0  0  0
  4  5  1  0  0  0  0
  4  8  1  0  0  0  0
  5 12  1  0  0  0  0
  6  9  1  0  0  0  0
  6  5  2  0  0  0  0
  7  6  1  0  0  0  0
 10  7  1  0  0  0  0
 11 22  1  0  0  0  0
 12 11  2  0  0  0  0
 13 12  1  0  0  0  0
 13 15  2  0  0  0  0
 14 13  1  0  0  0  0
 15 16  1  0  0  0  0
 15 21  1  0  0  0  0
 16 18  1  0  0  0  0
 17 16  1  0  0  0  0
 18 19  1  0  0  0  0
 18 20  2  0  0  0  0
 21 22  2  0  0  0  0
 21 20  1  0  0  0  0
 23 28  1  0  0  0  0
 23 29  1  0  0  0  0
 24 23  2  0  0  0  0
 25 26  2  0  0  0  0
 25 24  1  0  0  0  0
 26 27  1  0  0  0  0
 27  3  1  0  0  0  0
 27 28  2  0  0  0  0
 30 24  1  0  0  0  0
 31 25  1  0  0  0  0
M  END
>  <minimizedAffinity>
-5.62993193

$$$$

 OpenBabel03272510183D

 31 34  0  0  0  0  0  0  0  0999 V2000
   36.2140   32.6830   32.1300 Br  0  0  0  0  0  0  0  0  0  0  0  0
   36.1630   30.7640   32.0640 C   0  0  0  0  0  0  0  0  0  0  0  0
   35.6380   30.0370   33.1090 C   0  0  0  0  0  0  0  0  0  0  0  0
   35.6360   28.6600   32.9880 C   0  0  0  0  0  0  0  0  0  0  0  0
   36.1310   27.9950   31.8790 C   0  0  0  0  0  0  0  0  0  0  0  0
   36.6430   28.7520   30.8630 C   0  0  0  0  0  0  0  0  0  0  0  0
   36.6570   30.1310   30.9610 C   0  0  0  0  0  0  0  0  0  0  0  0
   35.2340   28.0490   33.7820 H   0  0  0  0  0  0  0  0  0  0  0  0
   37.0380   28.2860   29.9840 H   0  0  0  0  0  0  0  0  0  0  0  0
   37.0740   30.6820   30.1300 H   0  0  0  0  0  0  0  0  0  0  0  0
   35.2370   25.8220   31.0170 C   0  0  0  0  0  3  0  0  0  0  0  0
   36.1140   26.5590   31.7860 C   0  0  0  0  0  0  0  0  0  0  0  0
   37.0200   25.8010   32.4990 C   0  0  0  0  0  0  0  0  0  0  0  0
   37.7320   26.3500   33.1220 H   0  0  0  0  0  0  0  0  0  0  0  0
   37.1190   24.4270   32.5070 C   0  0  0  0  0  0  0  0  0  0  0  0
   37.9350   23.5680   33.1400 N   0  0  0  0  0  0  0  0  0  0  0  0
   38.6960   23.8720   33.7890 H   0  0  0  0  0  0  0  0  0  0  0  0
   37.5390   22.3240   32.7420 C   0  0  0  0  0  0  0  0  0  0  0  0
   38.0930   21.4860   33.1570 H   0  0  0  0  0  0  0  0  0  0  0  0
   36.4810   22.4250   31.8660 C   0  0  0  0  0  3  0  0  0  0  0  0
   36.1900   23.7630   31.6980 C   0  0  0  0  0  0  0  0  0  0  0  0
   35.2530   24.4460   30.9550 C   0  0  0  0  0  3  0  0  0  0  0  0
   33.2270   31.5150   35.4120 C   0  0  0  0  0  0  0  0  0  0  0  0
   34.0200   31.9430   36.4990 C   0  0  0  0  0  0  0  0  0  0  0  0
   35.3850   31.7140   36.4220 C   0  0  0  0  0  0  0  0  0  0  0  0
   35.9040   31.0960   35.3190 N   0  0  0  0  0  0  0  0  0  0  0  0
   35.1070   30.6980   34.2930 C   0  0  0  0  0  0  0  0  0  0  0  0
   33.7640   30.9140   34.3500 N   0  0  0  0  0  0  0  0  0  0  0  0
   32.1420   31.6680   35.4190 H   0  0  0  0  0  0  0  0  0  0  0  0
   33.5640   32.4280   37.3510 H   0  0  0  0  0  0  0  0  0  0  0  0
   36.0440   32.0200   37.2230 H   0  0  0  0  0  0  0  0  0  0  0  0
  2  1  1  0  0  0  0
  2  3  1  0  0  0  0
  3 27  1  0  0  0  0
  4  3  2  0  0  0  0
  4  8  1  0  0  0  0
  5  4  1  0  0  0  0
  6  7  1  0  0  0  0
  6  5  2  0  0  0  0
  7  2  2  0  0  0  0
  9  6  1  0  0  0  0
 10  7  1  0  0  0  0
 11 12  1  0  0  0  0
 12  5  1  0  0  0  0
 12 13  2  0  0  0  0
 13 15  1  0  0  0  0
 13 14  1  0  0  0  0
 15 16  1  0  0  0  0
 16 17  1  0  0  0  0
 18 16  1  0  0  0  0
 18 19  1  0  0  0  0
 20 18  2  0  0  0  0
 21 20  1  0  0  0  0
 21 15  2  0  0  0  0
 22 11  2  0  0  0  0
 22 21  1  0  0  0  0
 23 29  1  0  0  0  0
 23 24  1  0  0  0  0
 24 30  1  0  0  0  0
 25 24  2  0  0  0  0
 25 31  1  0  0  0  0
 26 25  1  0  0  0  0
 27 28  1  0  0  0  0
 27 26  2  0  0  0  0
 28 23  2  0  0  0  0
M  END
>  <minimizedAffinity>
-5.62961197

$$$$

 OpenBabel03272510183D

 31 34  0  0  0  0  0  0  0  0999 V2000
   36.9970   24.6460   31.6930 Br  0  0  0  0  0  0  0  0  0  0  0  0
   36.6240   26.3820   32.4230 C   0  0  0  0  0  0  0  0  0  0  0  0
   37.1890   26.7820   33.6140 C   0  0  0  0  0  0  0  0  0  0  0  0
   36.8720   28.0460   34.0750 C   0  0  0  0  0  0  0  0  0  0  0  0
   36.0260   28.9100   33.4010 C   0  0  0  0  0  0  0  0  0  0  0  0
   35.4860   28.4770   32.2220 C   0  0  0  0  0  0  0  0  0  0  0  0
   35.7870   27.2160   31.7400 C   0  0  0  0  0  0  0  0  0  0  0  0
   37.2920   28.4020   35.0040 H   0  0  0  0  0  0  0  0  0  0  0  0
   34.8260   29.1080   31.6630 H   0  0  0  0  0  0  0  0  0  0  0  0
   35.3330   26.9230   30.8060 H   0  0  0  0  0  0  0  0  0  0  0  0
   35.5900   31.3610   33.1460 C   0  0  0  0  0  3  0  0  0  0  0  0
   35.7170   30.2210   33.9110 C   0  0  0  0  0  0  0  0  0  0  0  0
   35.5220   30.4170   35.2620 C   0  0  0  0  0  0  0  0  0  0  0  0
   35.6170   29.5350   35.9020 H   0  0  0  0  0  0  0  0  0  0  0  0
   35.2240   31.6080   35.8870 C   0  0  0  0  0  0  0  0  0  0  0  0
   35.0110   31.9450   37.1690 N   0  0  0  0  0  0  0  0  0  0  0  0
   35.0490   31.2590   37.9570 H   0  0  0  0  0  0  0  0  0  0  0  0
   34.7570   33.2860   37.1600 C   0  0  0  0  0  0  0  0  0  0  0  0
   34.5570   33.7460   38.1240 H   0  0  0  0  0  0  0  0  0  0  0  0
   34.8150   33.7670   35.8700 C   0  0  0  0  0  3  0  0  0  0  0  0
   35.1130   32.7120   35.0330 C   0  0  0  0  0  0  0  0  0  0  0  0
   35.2930   32.6000   33.6720 C   0  0  0  0  0  3  0  0  0  0  0  0
   40.2650   25.1310   34.6680 C   0  0  0  0  0  0  0  0  0  0  0  0
   39.8460   24.2710   35.7060 C   0  0  0  0  0  0  0  0  0  0  0  0
   38.4980   24.2720   36.0300 C   0  0  0  0  0  0  0  0  0  0  0  0
   37.6400   25.0890   35.3480 N   0  0  0  0  0  0  0  0  0  0  0  0
   38.0830   25.9030   34.3540 C   0  0  0  0  0  0  0  0  0  0  0  0
   39.4030   25.9170   34.0210 N   0  0  0  0  0  0  0  0  0  0  0  0
   41.3190   25.1730   34.3700 H   0  0  0  0  0  0  0  0  0  0  0  0
   40.5610   23.6420   36.2180 H   0  0  0  0  0  0  0  0  0  0  0  0
   38.1160   23.6350   36.8160 H   0  0  0  0  0  0  0  0  0  0  0  0
  1  2  1  0  0  0  0
  2  3  1  0  0  0  0
  3  4  2  0  0  0  0
  3 27  1  0  0  0  0
  4  8  1  0  0  0  0
  5 12  1  0  0  0  0
  5  4  1  0  0  0  0
  6  5  2  0  0  0  0
  7  6  1  0  0  0  0
  7  2  2  0  0  0  0
  9  6  1  0  0  0  0
 10  7  1  0  0  0  0
 11 22  2  0  0  0  0
 11 12  1  0  0  0  0
 12 13  2  0  0  0  0
 13 15  1  0  0  0  0
 13 14  1  0  0  0  0
 15 16  1  0  0  0  0
 16 17  1  0  0  0  0
 18 16  1  0  0  0  0
 18 19  1  0  0  0  0
 20 18  2  0  0  0  0
 21 20  1  0  0  0  0
 21 15  2  0  0  0  0
 22 21  1  0  0  0  0
 23 24  1  0  0  0  0
 24 25  2  0  0  0  0
 24 30  1  0  0  0  0
 25 31  1  0  0  0  0
 26 25  1  0  0  0  0
 27 26  2  0  0  0  0
 28 27  1  0  0  0  0
 28 23  2  0  0  0  0
 29 23  1  0  0  0  0
M  END
>  <minimizedAffinity>
-5.5849967

$$$$
