
 OpenBabel03272502583D

 37 40  0  0  1  0  0  0  0  0999 V2000
   36.0000   29.6950   48.7320 N   0  0  0  0  0  0  0  0  0  0  0  0
   36.8240   28.9510   49.6620 C   0  0  0  0  0  0  0  0  0  0  0  0
   37.4020   29.6780   50.7840 C   0  0  0  0  0  0  0  0  0  0  0  0
   37.6080   31.1300   50.6690 C   0  0  0  0  0  0  0  0  0  0  0  0
   36.7560   31.7950   49.6290 C   0  0  0  0  0  0  0  0  0  0  0  0
   36.6930   30.9260   48.3670 C   0  0  1  0  0  0  0  0  0  0  0  0
   36.1570   28.1210   50.0370 H   0  0  0  0  0  0  0  0  0  0  0  0
   37.6100   28.4070   49.0910 H   0  0  0  0  0  0  0  0  0  0  0  0
   36.7880   29.4930   51.7130 H   0  0  0  0  0  0  0  0  0  0  0  0
   38.4000   29.2250   51.0550 H   0  0  0  0  0  0  0  0  0  0  0  0
   38.6860   31.3770   50.4470 H   0  0  0  0  0  0  0  0  0  0  0  0
   37.4020   31.6660   51.6260 H   0  0  0  0  0  0  0  0  0  0  0  0
   37.1420   32.8040   49.3960 H   0  0  0  0  0  0  0  0  0  0  0  0
   35.7340   31.8940   50.0140 H   0  0  0  0  0  0  0  0  0  0  0  0
   36.1450   31.5100   47.6330 H   0  0  0  0  0  0  0  0  0  0  0  0
   34.7230   29.2820   48.2580 C   0  0  0  0  0  0  0  0  0  0  0  0
   34.1360   29.7360   47.0800 C   0  0  0  0  0  0  0  0  0  0  0  0
   32.8840   29.2490   46.7270 C   0  0  0  0  0  0  0  0  0  0  0  0
   32.2900   28.3530   47.5490 N   0  0  0  0  0  0  0  0  0  0  0  0
   32.8900   27.9370   48.6820 C   0  0  0  0  0  0  0  0  0  0  0  0
   34.1030   28.4050   49.0300 N   0  0  0  0  0  0  0  0  0  0  0  0
   34.6660   30.4370   46.4910 H   0  0  0  0  0  0  0  0  0  0  0  0
   32.4930   29.6440   45.8030 H   0  0  0  0  0  0  0  0  0  0  0  0
   32.3730   27.2100   49.3190 H   0  0  0  0  0  0  0  0  0  0  0  0
   38.0210   30.6750   48.0460 O   0  0  0  0  0  0  0  0  0  0  0  0
   38.0190   32.1170   46.3120 C   0  0  0  0  0  3  0  0  0  0  0  0
   38.4890   30.8910   46.7690 C   0  0  0  0  0  0  0  0  0  0  0  0
   39.2810   30.1610   45.9320 C   0  0  0  0  0  0  0  0  0  0  0  0
   39.6060   29.2380   46.3400 H   0  0  0  0  0  0  0  0  0  0  0  0
   39.6020   30.6270   44.6760 C   0  0  0  0  0  0  0  0  0  0  0  0
   40.3730   30.0080   43.7490 N   0  0  0  0  0  0  0  0  0  0  0  0
   40.8560   29.0880   43.8110 H   0  0  0  0  0  0  0  0  0  0  0  0
   40.4380   30.8080   42.6480 C   0  0  0  0  0  0  0  0  0  0  0  0
   40.9710   30.6210   41.7160 H   0  0  0  0  0  0  0  0  0  0  0  0
   39.6790   31.9470   42.9180 C   0  0  0  0  0  3  0  0  0  0  0  0
   39.1440   31.8540   44.1890 C   0  0  0  0  0  0  0  0  0  0  0  0
   38.3430   32.5920   45.0370 C   0  0  0  0  0  3  0  0  0  0  0  0
  1  2  1  0  0  0  0
  2  7  1  0  0  0  0
  2  3  1  0  0  0  0
  3 10  1  0  0  0  0
  3  9  1  0  0  0  0
  4  3  1  0  0  0  0
  4 12  1  0  0  0  0
  5 14  1  0  0  0  0
  5  4  1  0  0  0  0
  6 15  1  6  0  0  0
  6  1  1  0  0  0  0
  6  5  1  0  0  0  0
  8  2  1  0  0  0  0
 11  4  1  0  0  0  0
 13  5  1  0  0  0  0
 16  1  1  0  0  0  0
 16 21  1  0  0  0  0
 17 16  2  0  0  0  0
 18 17  1  0  0  0  0
 18 19  2  0  0  0  0
 19 20  1  0  0  0  0
 20 21  2  0  0  0  0
 20 24  1  0  0  0  0
 22 17  1  0  0  0  0
 23 18  1  0  0  0  0
 25  6  1  0  0  0  0
 26 27  1  0  0  0  0
 27 25  1  0  0  0  0
 28 29  1  0  0  0  0
 28 27  2  0  0  0  0
 30 28  1  0  0  0  0
 31 32  1  0  0  0  0
 31 30  1  0  0  0  0
 33 35  2  0  0  0  0
 33 31  1  0  0  0  0
 34 33  1  0  0  0  0
 35 36  1  0  0  0  0
 36 30  2  0  0  0  0
 36 37  1  0  0  0  0
 37 26  2  0  0  0  0
M  END
>  <minimizedAffinity>
-6.16441488

>  <minimizedRMSD>
0.920721233

$$$$
