
 OpenBabel03272510163D

 31 34  0  0  0  0  0  0  0  0999 V2000
   37.4310   29.1900   50.8400 Br  0  0  0  0  0  0  0  0  0  0  0  0
   36.0240   29.2940   49.5370 C   0  0  0  0  0  0  0  0  0  0  0  0
   36.0200   30.2870   48.5830 C   0  0  0  0  0  0  0  0  0  0  0  0
   34.9740   30.2950   47.6790 C   0  0  0  0  0  0  0  0  0  0  0  0
   33.9500   29.3630   47.6940 C   0  0  0  0  0  0  0  0  0  0  0  0
   33.9910   28.3930   48.6560 C   0  0  0  0  0  0  0  0  0  0  0  0
   35.0270   28.3640   49.5720 C   0  0  0  0  0  0  0  0  0  0  0  0
   34.9300   31.0550   46.9130 H   0  0  0  0  0  0  0  0  0  0  0  0
   33.2230   27.6490   48.7100 H   0  0  0  0  0  0  0  0  0  0  0  0
   35.0100   27.5770   50.3120 H   0  0  0  0  0  0  0  0  0  0  0  0
   32.0590   28.3390   46.4160 C   0  0  0  0  0  3  0  0  0  0  0  0
   32.8750   29.4020   46.7370 C   0  0  0  0  0  0  0  0  0  0  0  0
   32.5900   30.5660   46.0540 C   0  0  0  0  0  0  0  0  0  0  0  0
   33.2180   31.4330   46.2800 H   0  0  0  0  0  0  0  0  0  0  0  0
   31.5970   30.7470   45.1150 C   0  0  0  0  0  0  0  0  0  0  0  0
   31.2090   31.8040   44.3820 N   0  0  0  0  0  0  0  0  0  0  0  0
   31.6690   32.7400   44.4350 H   0  0  0  0  0  0  0  0  0  0  0  0
   30.1620   31.3610   43.6280 C   0  0  0  0  0  0  0  0  0  0  0  0
   29.7080   32.0880   42.9590 H   0  0  0  0  0  0  0  0  0  0  0  0
   29.9120   30.0350   43.9010 C   0  0  0  0  0  3  0  0  0  0  0  0
   30.8180   29.6150   44.8540 C   0  0  0  0  0  0  0  0  0  0  0  0
   31.0390   28.4150   45.4930 C   0  0  0  0  0  3  0  0  0  0  0  0
   38.0200   33.2000   49.4830 C   0  0  0  0  0  0  0  0  0  0  0  0
   39.0450   33.2170   48.5120 C   0  0  0  0  0  0  0  0  0  0  0  0
   39.0320   32.2150   47.5530 C   0  0  0  0  0  0  0  0  0  0  0  0
   38.0480   31.2680   47.5820 N   0  0  0  0  0  0  0  0  0  0  0  0
   37.0780   31.2860   48.5330 C   0  0  0  0  0  0  0  0  0  0  0  0
   37.0740   32.2610   49.4830 N   0  0  0  0  0  0  0  0  0  0  0  0
   37.9810   33.9670   50.2650 H   0  0  0  0  0  0  0  0  0  0  0  0
   39.8030   33.9880   48.5300 H   0  0  0  0  0  0  0  0  0  0  0  0
   39.7900   32.1750   46.7840 H   0  0  0  0  0  0  0  0  0  0  0  0
  2  7  1  0  0  0  0
  2  1  1  0  0  0  0
  3  2  2  0  0  0  0
  4  5  2  0  0  0  0
  4  3  1  0  0  0  0
  5  6  1  0  0  0  0
  6  9  1  0  0  0  0
  6  7  2  0  0  0  0
  7 10  1  0  0  0  0
  8  4  1  0  0  0  0
 11 12  1  0  0  0  0
 12  5  1  0  0  0  0
 13 14  1  0  0  0  0
 13 12  2  0  0  0  0
 15 13  1  0  0  0  0
 16 17  1  0  0  0  0
 16 15  1  0  0  0  0
 18 20  2  0  0  0  0
 18 16  1  0  0  0  0
 19 18  1  0  0  0  0
 20 21  1  0  0  0  0
 21 15  2  0  0  0  0
 21 22  1  0  0  0  0
 22 11  2  0  0  0  0
 23 28  1  0  0  0  0
 23 29  1  0  0  0  0
 24 30  1  0  0  0  0
 24 23  2  0  0  0  0
 25 26  2  0  0  0  0
 25 24  1  0  0  0  0
 26 27  1  0  0  0  0
 27  3  1  0  0  0  0
 27 28  2  0  0  0  0
 31 25  1  0  0  0  0
M  END
>  <minimizedAffinity>
-6.19095135

>  <minimizedRMSD>
0.814246893

$$$$
