
 OpenBabel03272502583D

 37 40  0  0  1  0  0  0  0  0999 V2000
   35.7620   29.5690   48.9420 N   0  0  0  0  0  0  0  0  0  0  0  0
   36.5780   28.7480   49.8130 C   0  0  0  0  0  0  0  0  0  0  0  0
   37.0970   29.3620   51.0270 C   0  0  0  0  0  0  0  0  0  0  0  0
   37.2630   30.8230   51.0790 C   0  0  0  0  0  0  0  0  0  0  0  0
   36.4260   31.5750   50.0890 C   0  0  0  0  0  0  0  0  0  0  0  0
   36.4300   30.8500   48.7390 C   0  0  1  0  0  0  0  0  0  0  0  0
   35.9240   27.8650   50.0700 H   0  0  0  0  0  0  0  0  0  0  0  0
   37.3980   28.2920   49.2140 H   0  0  0  0  0  0  0  0  0  0  0  0
   36.4600   29.0590   51.9080 H   0  0  0  0  0  0  0  0  0  0  0  0
   38.0990   28.9080   51.2830 H   0  0  0  0  0  0  0  0  0  0  0  0
   38.3400   31.1210   50.9250 H   0  0  0  0  0  0  0  0  0  0  0  0
   37.0100   31.2440   52.0820 H   0  0  0  0  0  0  0  0  0  0  0  0
   36.7890   32.6140   49.9830 H   0  0  0  0  0  0  0  0  0  0  0  0
   35.3900   31.6050   50.4460 H   0  0  0  0  0  0  0  0  0  0  0  0
   35.8880   31.4980   48.0540 H   0  0  0  0  0  0  0  0  0  0  0  0
   34.5140   29.1770   48.3800 C   0  0  0  0  0  0  0  0  0  0  0  0
   34.0200   29.6370   47.1620 C   0  0  0  0  0  0  0  0  0  0  0  0
   32.7870   29.1720   46.7230 C   0  0  0  0  0  0  0  0  0  0  0  0
   32.1200   28.2900   47.5040 N   0  0  0  0  0  0  0  0  0  0  0  0
   32.6310   27.8680   48.6780 C   0  0  0  0  0  0  0  0  0  0  0  0
   33.8250   28.3150   49.1080 N   0  0  0  0  0  0  0  0  0  0  0  0
   34.6030   30.3260   46.6100 H   0  0  0  0  0  0  0  0  0  0  0  0
   32.4700   29.5700   45.7740 H   0  0  0  0  0  0  0  0  0  0  0  0
   32.0570   27.1540   49.2790 H   0  0  0  0  0  0  0  0  0  0  0  0
   37.7740   30.6720   48.4390 O   0  0  0  0  0  0  0  0  0  0  0  0
   38.2480   30.2890   46.2670 C   0  0  0  0  0  3  0  0  0  0  0  0
   38.3200   31.2190   47.3000 C   0  0  0  0  0  0  0  0  0  0  0  0
   38.8830   32.4320   47.0270 C   0  0  0  0  0  0  0  0  0  0  0  0
   38.9080   33.0920   47.8540 H   0  0  0  0  0  0  0  0  0  0  0  0
   39.3610   32.7200   45.7680 C   0  0  0  0  0  0  0  0  0  0  0  0
   39.9400   33.8780   45.3630 N   0  0  0  0  0  0  0  0  0  0  0  0
   40.1260   34.7420   45.9120 H   0  0  0  0  0  0  0  0  0  0  0  0
   40.2680   33.7500   44.0460 C   0  0  0  0  0  0  0  0  0  0  0  0
   40.7480   34.4860   43.4000 H   0  0  0  0  0  0  0  0  0  0  0  0
   39.8750   32.4730   43.6440 C   0  0  0  0  0  3  0  0  0  0  0  0
   39.3020   31.8090   44.7110 C   0  0  0  0  0  0  0  0  0  0  0  0
   38.7330   30.5820   44.9890 C   0  0  0  0  0  3  0  0  0  0  0  0
  1  2  1  0  0  0  0
  2  7  1  0  0  0  0
  2  3  1  0  0  0  0
  3  4  1  0  0  0  0
  3 10  1  0  0  0  0
  3  9  1  0  0  0  0
  4 12  1  0  0  0  0
  5 14  1  0  0  0  0
  5  4  1  0  0  0  0
  6 15  1  6  0  0  0
  6  1  1  0  0  0  0
  6  5  1  0  0  0  0
  8  2  1  0  0  0  0
 11  4  1  0  0  0  0
 13  5  1  0  0  0  0
 16  1  1  0  0  0  0
 16 21  1  0  0  0  0
 17 16  2  0  0  0  0
 18 17  1  0  0  0  0
 18 19  2  0  0  0  0
 19 20  1  0  0  0  0
 20 21  2  0  0  0  0
 20 24  1  0  0  0  0
 22 17  1  0  0  0  0
 23 18  1  0  0  0  0
 25  6  1  0  0  0  0
 26 27  1  0  0  0  0
 27 25  1  0  0  0  0
 28 27  2  0  0  0  0
 28 29  1  0  0  0  0
 30 28  1  0  0  0  0
 31 30  1  0  0  0  0
 31 32  1  0  0  0  0
 33 31  1  0  0  0  0
 34 33  1  0  0  0  0
 35 33  2  0  0  0  0
 35 36  1  0  0  0  0
 36 37  1  0  0  0  0
 36 30  2  0  0  0  0
 37 26  2  0  0  0  0
M  END
>  <minimizedAffinity>
-6.2583003

>  <minimizedRMSD>
0.982953429

$$$$
