
 OpenBabel03262522153D

 48 52  0  0  1  0  0  0  0  0999 V2000
   39.5450   32.9220   43.7880 C   0  0  0  0  0  0  0  0  0  0  0  0
   38.4840   32.9540   44.0450 H   0  0  0  0  0  0  0  0  0  0  0  0
   39.8070   33.8090   43.1540 H   0  0  0  0  0  0  0  0  0  0  0  0
   38.7750   29.7370   42.4490 C   0  0  1  0  0  0  0  0  0  0  0  0
   38.7470   31.2280   42.1490 C   0  0  0  0  0  0  0  0  0  0  0  0
   39.9170   31.7030   42.9820 C   0  0  2  0  0  0  0  0  0  0  0  0
   40.3400   30.6710   43.7690 O   0  0  0  0  0  0  0  0  0  0  0  0
   39.3060   29.7510   43.8740 C   0  0  0  0  0  0  0  0  0  0  0  0
   39.5510   29.2390   41.8310 H   0  0  0  0  0  0  0  0  0  0  0  0
   38.9680   31.3390   41.0670 H   0  0  0  0  0  0  0  0  0  0  0  0
   37.7980   31.6550   42.4740 H   0  0  0  0  0  0  0  0  0  0  0  0
   40.7540   31.9600   42.2950 H   0  0  0  0  0  0  0  0  0  0  0  0
   39.6560   28.7770   44.2160 H   0  0  0  0  0  0  0  0  0  0  0  0
   38.4860   30.1470   44.5000 H   0  0  0  0  0  0  0  0  0  0  0  0
   37.5150   29.1760   42.3840 O   0  0  0  0  0  0  0  0  0  0  0  0
   37.9430   26.9550   41.7680 C   0  0  0  0  0  3  0  0  0  0  0  0
   37.1250   28.0700   41.6930 C   0  0  0  0  0  0  0  0  0  0  0  0
   35.9780   27.9810   40.9280 C   0  0  0  0  0  0  0  0  0  0  0  0
   35.3310   28.8270   40.8570 H   0  0  0  0  0  0  0  0  0  0  0  0
   35.5750   26.8570   40.2230 C   0  0  0  0  0  0  0  0  0  0  0  0
   34.5150   26.5880   39.4420 N   0  0  0  0  0  0  0  0  0  0  0  0
   33.7250   27.2290   39.1960 H   0  0  0  0  0  0  0  0  0  0  0  0
   34.6490   25.3020   39.0130 C   0  0  0  0  0  0  0  0  0  0  0  0
   33.9580   24.7700   38.3630 H   0  0  0  0  0  0  0  0  0  0  0  0
   35.8200   24.7740   39.5480 C   0  0  0  0  0  3  0  0  0  0  0  0
   36.4190   25.7490   40.3170 C   0  0  0  0  0  0  0  0  0  0  0  0
   37.5640   25.8070   41.0690 C   0  0  0  0  0  3  0  0  0  0  0  0
   40.6570   32.9880   45.2260 S   0  0  0  0  0  0  0  0  0  0  0  0
   37.7680   31.7550   47.6550 C   0  0  0  0  0  0  0  0  0  0  0  0
   37.9260   32.5390   48.8110 C   0  0  0  0  0  0  0  0  0  0  0  0
   38.9400   33.4830   48.8820 C   0  0  0  0  0  0  0  0  0  0  0  0
   39.7470   33.5960   47.7860 C   0  0  0  0  0  0  0  0  0  0  0  0
   39.5700   32.8240   46.6810 C   0  0  0  0  0  0  0  0  0  0  0  0
   38.5890   31.8970   46.5890 N   0  0  0  0  0  0  0  0  0  0  0  0
   37.2630   32.4150   49.6580 H   0  0  0  0  0  0  0  0  0  0  0  0
   39.1190   34.1160   49.7340 H   0  0  0  0  0  0  0  0  0  0  0  0
   40.5740   34.3110   47.7410 H   0  0  0  0  0  0  0  0  0  0  0  0
   36.6950   30.7970   47.6550 C   0  0  0  0  0  0  0  0  0  0  0  0
   36.1990   30.3950   46.6040 O   0  0  0  0  0  0  0  0  0  0  0  0
   37.0200   29.6320   49.8080 C   0  0  0  0  0  0  0  0  0  0  0  0
   36.1270   30.2390   48.8930 C   0  0  0  0  0  0  0  0  0  0  0  0
   34.7670   30.2820   49.1960 C   0  0  0  0  0  0  0  0  0  0  0  0
   34.3380   29.7340   50.3740 N   0  0  0  0  0  0  0  0  0  0  0  0
   35.2120   29.1610   51.2310 C   0  0  0  0  0  0  0  0  0  0  0  0
   36.5260   29.1110   50.9530 N   0  0  0  0  0  0  0  0  0  0  0  0
   38.0790   29.5630   49.6390 H   0  0  0  0  0  0  0  0  0  0  0  0
   34.1110   30.7510   48.4790 H   0  0  0  0  0  0  0  0  0  0  0  0
   34.7520   28.7600   52.1340 H   0  0  0  0  0  0  0  0  0  0  0  0
  1  2  1  0  0  0  0
  1 28  1  0  0  0  0
  3  1  1  0  0  0  0
  4  9  1  6  0  0  0
  4  8  1  0  0  0  0
  5  4  1  0  0  0  0
  5 11  1  0  0  0  0
  5  6  1  0  0  0  0
  6 12  1  6  0  0  0
  6  7  1  0  0  0  0
  6  1  1  0  0  0  0
  7  8  1  0  0  0  0
  8 13  1  0  0  0  0
  8 14  1  0  0  0  0
 10  5  1  0  0  0  0
 15  4  1  0  0  0  0
 17 16  1  0  0  0  0
 17 15  1  0  0  0  0
 18 17  2  0  0  0  0
 19 18  1  0  0  0  0
 20 26  2  0  0  0  0
 20 18  1  0  0  0  0
 21 20  1  0  0  0  0
 22 21  1  0  0  0  0
 23 21  1  0  0  0  0
 23 25  2  0  0  0  0
 24 23  1  0  0  0  0
 25 26  1  0  0  0  0
 26 27  1  0  0  0  0
 27 16  2  0  0  0  0
 28 33  1  0  0  0  0
 29 38  1  0  0  0  0
 29 30  1  0  0  0  0
 30 31  2  0  0  0  0
 30 35  1  0  0  0  0
 31 36  1  0  0  0  0
 32 31  1  0  0  0  0
 33 32  2  0  0  0  0
 34 33  1  0  0  0  0
 34 29  2  0  0  0  0
 37 32  1  0  0  0  0
 38 41  1  0  0  0  0
 39 38  2  0  0  0  0
 40 45  1  0  0  0  0
 41 42  1  0  0  0  0
 41 40  2  0  0  0  0
 42 43  2  0  0  0  0
 43 44  1  0  0  0  0
 44 48  1  0  0  0  0
 45 44  2  0  0  0  0
 46 40  1  0  0  0  0
 47 42  1  0  0  0  0
M  END
>  <minimizedAffinity>
-5.08738327

>  <minimizedRMSD>
0.24895604

$$$$
