
 OpenBabel03272502593D

 37 40  0  0  1  0  0  0  0  0999 V2000
   35.8920   29.6660   48.8740 N   0  0  0  0  0  0  0  0  0  0  0  0
   36.6600   28.8380   49.7800 C   0  0  0  0  0  0  0  0  0  0  0  0
   37.1570   29.4560   51.0020 C   0  0  0  0  0  0  0  0  0  0  0  0
   37.3570   30.9130   51.0390 C   0  0  0  0  0  0  0  0  0  0  0  0
   36.5690   31.6720   50.0140 C   0  0  0  0  0  0  0  0  0  0  0  0
   36.5960   30.9280   48.6740 C   0  0  1  0  0  0  0  0  0  0  0  0
   35.9790   27.9740   50.0290 H   0  0  0  0  0  0  0  0  0  0  0  0
   37.4870   28.3540   49.2120 H   0  0  0  0  0  0  0  0  0  0  0  0
   36.4870   29.1810   51.8660 H   0  0  0  0  0  0  0  0  0  0  0  0
   38.1400   28.9820   51.2930 H   0  0  0  0  0  0  0  0  0  0  0  0
   38.4450   31.1830   50.9140 H   0  0  0  0  0  0  0  0  0  0  0  0
   37.0840   31.3540   52.0280 H   0  0  0  0  0  0  0  0  0  0  0  0
   36.9600   32.7000   49.9050 H   0  0  0  0  0  0  0  0  0  0  0  0
   35.5240   31.7310   50.3390 H   0  0  0  0  0  0  0  0  0  0  0  0
   36.0910   31.5780   47.9650 H   0  0  0  0  0  0  0  0  0  0  0  0
   34.6520   29.2960   48.2790 C   0  0  0  0  0  0  0  0  0  0  0  0
   34.1430   29.8540   47.1100 C   0  0  0  0  0  0  0  0  0  0  0  0
   32.9210   29.4010   46.6310 C   0  0  0  0  0  0  0  0  0  0  0  0
   32.2780   28.4330   47.3280 N   0  0  0  0  0  0  0  0  0  0  0  0
   32.8030   27.9180   48.4570 C   0  0  0  0  0  0  0  0  0  0  0  0
   33.9870   28.3530   48.9260 N   0  0  0  0  0  0  0  0  0  0  0  0
   34.7060   30.6060   46.6230 H   0  0  0  0  0  0  0  0  0  0  0  0
   32.5900   29.8760   45.7220 H   0  0  0  0  0  0  0  0  0  0  0  0
   32.2500   27.1370   48.9890 H   0  0  0  0  0  0  0  0  0  0  0  0
   37.9440   30.7130   48.4180 O   0  0  0  0  0  0  0  0  0  0  0  0
   39.1050   32.3170   47.3400 C   0  0  0  0  0  3  0  0  0  0  0  0
   38.4970   31.0730   47.2090 C   0  0  0  0  0  0  0  0  0  0  0  0
   38.5490   30.4620   45.9900 C   0  0  0  0  0  0  0  0  0  0  0  0
   38.0690   29.5190   45.9590 H   0  0  0  0  0  0  0  0  0  0  0  0
   39.1860   31.0640   44.9260 C   0  0  0  0  0  0  0  0  0  0  0  0
   39.3110   30.5710   43.6690 N   0  0  0  0  0  0  0  0  0  0  0  0
   38.9590   29.6700   43.2820 H   0  0  0  0  0  0  0  0  0  0  0  0
   40.0070   31.4770   42.9250 C   0  0  0  0  0  0  0  0  0  0  0  0
   40.2880   31.4060   41.8760 H   0  0  0  0  0  0  0  0  0  0  0  0
   40.3110   32.5520   43.7620 C   0  0  0  0  0  3  0  0  0  0  0  0
   39.8040   32.3120   45.0240 C   0  0  0  0  0  0  0  0  0  0  0  0
   39.7500   32.9280   46.2580 C   0  0  0  0  0  3  0  0  0  0  0  0
  1  2  1  0  0  0  0
  2  7  1  0  0  0  0
  2  3  1  0  0  0  0
  3  4  1  0  0  0  0
  3 10  1  0  0  0  0
  3  9  1  0  0  0  0
  4 12  1  0  0  0  0
  5 14  1  0  0  0  0
  5  4  1  0  0  0  0
  6 15  1  6  0  0  0
  6  1  1  0  0  0  0
  6  5  1  0  0  0  0
  8  2  1  0  0  0  0
 11  4  1  0  0  0  0
 13  5  1  0  0  0  0
 16  1  1  0  0  0  0
 16 21  1  0  0  0  0
 17 16  2  0  0  0  0
 18 17  1  0  0  0  0
 18 19  2  0  0  0  0
 19 20  1  0  0  0  0
 20 21  2  0  0  0  0
 20 24  1  0  0  0  0
 22 17  1  0  0  0  0
 23 18  1  0  0  0  0
 25  6  1  0  0  0  0
 27 26  1  0  0  0  0
 27 25  1  0  0  0  0
 28 27  2  0  0  0  0
 29 28  1  0  0  0  0
 30 36  2  0  0  0  0
 30 28  1  0  0  0  0
 31 30  1  0  0  0  0
 32 31  1  0  0  0  0
 33 31  1  0  0  0  0
 33 35  2  0  0  0  0
 34 33  1  0  0  0  0
 35 36  1  0  0  0  0
 36 37  1  0  0  0  0
 37 26  2  0  0  0  0
M  END
>  <minimizedAffinity>
-6.36778593

>  <minimizedRMSD>
0.804264009

$$$$
