
 OpenBabel03272503003D

 37 40  0  0  1  0  0  0  0  0999 V2000
   39.1020   24.3900   35.9410 N   0  0  0  0  0  0  0  0  0  0  0  0
   38.0560   24.9360   36.7800 C   0  0  0  0  0  0  0  0  0  0  0  0
   38.0780   24.5940   38.1950 C   0  0  0  0  0  0  0  0  0  0  0  0
   38.7500   23.3580   38.6240 C   0  0  0  0  0  0  0  0  0  0  0  0
   39.7650   22.8370   37.6520 C   0  0  0  0  0  0  0  0  0  0  0  0
   39.2360   22.9640   36.2200 C   0  0  1  0  0  0  0  0  0  0  0  0
   38.1350   26.0540   36.6470 H   0  0  0  0  0  0  0  0  0  0  0  0
   37.0680   24.6960   36.3250 H   0  0  0  0  0  0  0  0  0  0  0  0
   38.5220   25.4470   38.7850 H   0  0  0  0  0  0  0  0  0  0  0  0
   37.0210   24.5470   38.5900 H   0  0  0  0  0  0  0  0  0  0  0  0
   38.0060   22.5340   38.8280 H   0  0  0  0  0  0  0  0  0  0  0  0
   39.2860   23.4810   39.5960 H   0  0  0  0  0  0  0  0  0  0  0  0
   40.0270   21.7880   37.8870 H   0  0  0  0  0  0  0  0  0  0  0  0
   40.6750   23.4450   37.7250 H   0  0  0  0  0  0  0  0  0  0  0  0
   39.9770   22.4840   35.5870 H   0  0  0  0  0  0  0  0  0  0  0  0
   39.8690   25.1340   34.9990 C   0  0  0  0  0  0  0  0  0  0  0  0
   39.9390   26.5240   34.9640 C   0  0  0  0  0  0  0  0  0  0  0  0
   40.7290   27.1280   33.9950 C   0  0  0  0  0  0  0  0  0  0  0  0
   41.3960   26.3330   33.1240 N   0  0  0  0  0  0  0  0  0  0  0  0
   41.3030   24.9900   33.1900 C   0  0  0  0  0  0  0  0  0  0  0  0
   40.5390   24.3990   34.1270 N   0  0  0  0  0  0  0  0  0  0  0  0
   39.3880   27.0740   35.6790 H   0  0  0  0  0  0  0  0  0  0  0  0
   40.7360   28.2050   34.0280 H   0  0  0  0  0  0  0  0  0  0  0  0
   41.8590   24.3850   32.4660 H   0  0  0  0  0  0  0  0  0  0  0  0
   37.9940   22.3420   36.2470 O   0  0  0  0  0  0  0  0  0  0  0  0
   36.3020   21.1050   35.4160 C   0  0  0  0  0  3  0  0  0  0  0  0
   37.4200   21.8650   35.0900 C   0  0  0  0  0  0  0  0  0  0  0  0
   37.7350   22.0010   33.7690 C   0  0  0  0  0  0  0  0  0  0  0  0
   38.5970   22.5920   33.5890 H   0  0  0  0  0  0  0  0  0  0  0  0
   36.9680   21.4010   32.7950 C   0  0  0  0  0  0  0  0  0  0  0  0
   37.1670   21.4530   31.4550 N   0  0  0  0  0  0  0  0  0  0  0  0
   37.9160   21.9430   30.9250 H   0  0  0  0  0  0  0  0  0  0  0  0
   36.1840   20.7270   30.8500 C   0  0  0  0  0  0  0  0  0  0  0  0
   36.0380   20.5550   29.7850 H   0  0  0  0  0  0  0  0  0  0  0  0
   35.3650   20.2190   31.8600 C   0  0  0  0  0  3  0  0  0  0  0  0
   35.8400   20.6320   33.0900 C   0  0  0  0  0  0  0  0  0  0  0  0
   35.5230   20.4950   34.4270 C   0  0  0  0  0  3  0  0  0  0  0  0
  1  6  1  0  0  0  0
  1  2  1  0  0  0  0
  2  3  1  0  0  0  0
  3 10  1  0  0  0  0
  3  4  1  0  0  0  0
  3  9  1  0  0  0  0
  4 11  1  0  0  0  0
  4 12  1  0  0  0  0
  5 14  1  0  0  0  0
  5 13  1  0  0  0  0
  5  4  1  0  0  0  0
  6 15  1  6  0  0  0
  6 25  1  0  0  0  0
  6  5  1  0  0  0  0
  7  2  1  0  0  0  0
  8  2  1  0  0  0  0
 16  1  1  0  0  0  0
 17 16  1  0  0  0  0
 17 22  1  0  0  0  0
 18 23  1  0  0  0  0
 18 17  2  0  0  0  0
 19 20  2  0  0  0  0
 19 18  1  0  0  0  0
 20 21  1  0  0  0  0
 21 16  2  0  0  0  0
 24 20  1  0  0  0  0
 27 26  1  0  0  0  0
 27 25  1  0  0  0  0
 28 27  2  0  0  0  0
 29 28  1  0  0  0  0
 30 36  2  0  0  0  0
 30 28  1  0  0  0  0
 31 30  1  0  0  0  0
 32 31  1  0  0  0  0
 33 31  1  0  0  0  0
 33 35  2  0  0  0  0
 34 33  1  0  0  0  0
 35 36  1  0  0  0  0
 36 37  1  0  0  0  0
 37 26  2  0  0  0  0
M  END
>  <minimizedAffinity>
-5.96138906

$$$$

 OpenBabel03272503003D

 37 40  0  0  1  0  0  0  0  0999 V2000
   38.2640   24.3800   36.1000 N   0  0  0  0  0  0  0  0  0  0  0  0
   37.7750   23.9630   37.3980 C   0  0  0  0  0  0  0  0  0  0  0  0
   38.7430   23.4230   38.3430 C   0  0  0  0  0  0  0  0  0  0  0  0
   39.9850   22.8210   37.8330 C   0  0  0  0  0  0  0  0  0  0  0  0
   40.3660   23.2660   36.4530 C   0  0  0  0  0  0  0  0  0  0  0  0
   39.1220   23.3310   35.5600 C   0  0  1  0  0  0  0  0  0  0  0  0
   37.2800   24.8810   37.8280 H   0  0  0  0  0  0  0  0  0  0  0  0
   36.9230   23.2600   37.2530 H   0  0  0  0  0  0  0  0  0  0  0  0
   39.0290   24.2190   39.0890 H   0  0  0  0  0  0  0  0  0  0  0  0
   38.2440   22.6450   38.9930 H   0  0  0  0  0  0  0  0  0  0  0  0
   39.9280   21.6950   37.8340 H   0  0  0  0  0  0  0  0  0  0  0  0
   40.8640   23.0460   38.4850 H   0  0  0  0  0  0  0  0  0  0  0  0
   41.1290   22.5910   36.0230 H   0  0  0  0  0  0  0  0  0  0  0  0
   40.7880   24.2770   36.5070 H   0  0  0  0  0  0  0  0  0  0  0  0
   39.4870   23.5650   34.5620 H   0  0  0  0  0  0  0  0  0  0  0  0
   37.9500   25.6150   35.4650 C   0  0  0  0  0  0  0  0  0  0  0  0
   38.1090   26.8660   36.0550 C   0  0  0  0  0  0  0  0  0  0  0  0
   37.7690   27.9970   35.3240 C   0  0  0  0  0  0  0  0  0  0  0  0
   37.2960   27.8290   34.0660 N   0  0  0  0  0  0  0  0  0  0  0  0
   37.1560   26.6010   33.5300 C   0  0  0  0  0  0  0  0  0  0  0  0
   37.4840   25.5010   34.2330 N   0  0  0  0  0  0  0  0  0  0  0  0
   38.4850   26.9130   37.0430 H   0  0  0  0  0  0  0  0  0  0  0  0
   37.9180   28.9290   35.8440 H   0  0  0  0  0  0  0  0  0  0  0  0
   36.7700   26.5100   32.5080 H   0  0  0  0  0  0  0  0  0  0  0  0
   38.5290   22.0820   35.6910 O   0  0  0  0  0  0  0  0  0  0  0  0
   36.5340   21.1270   35.2550 C   0  0  0  0  0  3  0  0  0  0  0  0
   37.7250   21.5760   34.6940 C   0  0  0  0  0  0  0  0  0  0  0  0
   37.8840   21.4480   33.3450 C   0  0  0  0  0  0  0  0  0  0  0  0
   38.8120   21.8090   32.9830 H   0  0  0  0  0  0  0  0  0  0  0  0
   36.8920   20.8910   32.5680 C   0  0  0  0  0  0  0  0  0  0  0  0
   36.9190   20.7040   31.2250 N   0  0  0  0  0  0  0  0  0  0  0  0
   37.6720   20.9410   30.5480 H   0  0  0  0  0  0  0  0  0  0  0  0
   35.7420   20.1240   30.8530 C   0  0  0  0  0  0  0  0  0  0  0  0
   35.4260   19.8340   29.8530 H   0  0  0  0  0  0  0  0  0  0  0  0
   34.9810   19.9550   32.0110 C   0  0  0  0  0  3  0  0  0  0  0  0
   35.6860   20.4300   33.1000 C   0  0  0  0  0  0  0  0  0  0  0  0
   35.5270   20.5610   34.4650 C   0  0  0  0  0  3  0  0  0  0  0  0
  1  2  1  0  0  0  0
  2  7  1  0  0  0  0
  2  3  1  0  0  0  0
  3 10  1  0  0  0  0
  3  9  1  0  0  0  0
  4 11  1  0  0  0  0
  4  3  1  0  0  0  0
  4 12  1  0  0  0  0
  5 14  1  0  0  0  0
  5  4  1  0  0  0  0
  6 15  1  6  0  0  0
  6 25  1  0  0  0  0
  6  1  1  0  0  0  0
  6  5  1  0  0  0  0
  8  2  1  0  0  0  0
 13  5  1  0  0  0  0
 16 17  1  0  0  0  0
 16  1  1  0  0  0  0
 17 22  1  0  0  0  0
 18 23  1  0  0  0  0
 18 17  2  0  0  0  0
 19 18  1  0  0  0  0
 20 19  2  0  0  0  0
 20 21  1  0  0  0  0
 21 16  2  0  0  0  0
 24 20  1  0  0  0  0
 27 26  1  0  0  0  0
 27 25  1  0  0  0  0
 28 27  2  0  0  0  0
 29 28  1  0  0  0  0
 30 36  2  0  0  0  0
 30 28  1  0  0  0  0
 31 30  1  0  0  0  0
 32 31  1  0  0  0  0
 33 31  1  0  0  0  0
 33 35  2  0  0  0  0
 34 33  1  0  0  0  0
 35 36  1  0  0  0  0
 36 37  1  0  0  0  0
 37 26  2  0  0  0  0
M  END
>  <minimizedAffinity>
-5.8729682

$$$$

 OpenBabel03272503003D

 37 40  0  0  1  0  0  0  0  0999 V2000
   38.1410   22.7830   35.9810 N   0  0  0  0  0  0  0  0  0  0  0  0
   39.5550   22.6000   36.2370 C   0  0  0  0  0  0  0  0  0  0  0  0
   40.0110   22.7040   37.6160 C   0  0  0  0  0  0  0  0  0  0  0  0
   39.2190   23.4880   38.5760 C   0  0  0  0  0  0  0  0  0  0  0  0
   37.7840   23.6790   38.1840 C   0  0  0  0  0  0  0  0  0  0  0  0
   37.6860   23.9780   36.6830 C   0  0  1  0  0  0  0  0  0  0  0  0
   39.7920   21.5770   35.8230 H   0  0  0  0  0  0  0  0  0  0  0  0
   40.1330   23.2820   35.5720 H   0  0  0  0  0  0  0  0  0  0  0  0
   40.1490   21.6710   38.0490 H   0  0  0  0  0  0  0  0  0  0  0  0
   41.0600   23.1210   37.6380 H   0  0  0  0  0  0  0  0  0  0  0  0
   39.6720   24.5050   38.7520 H   0  0  0  0  0  0  0  0  0  0  0  0
   39.2020   23.0240   39.5920 H   0  0  0  0  0  0  0  0  0  0  0  0
   37.3220   24.4870   38.7810 H   0  0  0  0  0  0  0  0  0  0  0  0
   37.2340   22.7500   38.3730 H   0  0  0  0  0  0  0  0  0  0  0  0
   36.6380   24.1980   36.4940 H   0  0  0  0  0  0  0  0  0  0  0  0
   37.3380   21.9310   35.1720 C   0  0  0  0  0  0  0  0  0  0  0  0
   36.2510   21.1970   35.6390 C   0  0  0  0  0  0  0  0  0  0  0  0
   35.5460   20.4050   34.7440 C   0  0  0  0  0  0  0  0  0  0  0  0
   35.9500   20.3820   33.4510 N   0  0  0  0  0  0  0  0  0  0  0  0
   37.0080   21.1060   33.0360 C   0  0  0  0  0  0  0  0  0  0  0  0
   37.6960   21.8770   33.9000 N   0  0  0  0  0  0  0  0  0  0  0  0
   35.9980   21.2690   36.6640 H   0  0  0  0  0  0  0  0  0  0  0  0
   34.7180   19.8670   35.1750 H   0  0  0  0  0  0  0  0  0  0  0  0
   37.3010   21.0590   31.9820 H   0  0  0  0  0  0  0  0  0  0  0  0
   38.5560   25.0410   36.4780 O   0  0  0  0  0  0  0  0  0  0  0  0
   39.9080   26.1850   35.0830 C   0  0  0  0  0  3  0  0  0  0  0  0
   38.6280   25.6660   35.2540 C   0  0  0  0  0  0  0  0  0  0  0  0
   37.7250   25.8510   34.2470 C   0  0  0  0  0  0  0  0  0  0  0  0
   36.7710   25.4310   34.4410 H   0  0  0  0  0  0  0  0  0  0  0  0
   38.0750   26.5310   33.1010 C   0  0  0  0  0  0  0  0  0  0  0  0
   37.2820   26.7850   32.0320 N   0  0  0  0  0  0  0  0  0  0  0  0
   36.2870   26.5210   31.8790 H   0  0  0  0  0  0  0  0  0  0  0  0
   38.0130   27.4820   31.1160 C   0  0  0  0  0  0  0  0  0  0  0  0
   37.6920   27.8500   30.1430 H   0  0  0  0  0  0  0  0  0  0  0  0
   39.2900   27.6540   31.6520 C   0  0  0  0  0  3  0  0  0  0  0  0
   39.3500   27.0640   32.9000 C   0  0  0  0  0  0  0  0  0  0  0  0
   40.2620   26.8760   33.9190 C   0  0  0  0  0  3  0  0  0  0  0  0
  1  2  1  0  0  0  0
  1  6  1  0  0  0  0
  2  3  1  0  0  0  0
  3 10  1  0  0  0  0
  3  9  1  0  0  0  0
  3  4  1  0  0  0  0
  4 11  1  0  0  0  0
  4 12  1  0  0  0  0
  5 14  1  0  0  0  0
  5  4  1  0  0  0  0
  5 13  1  0  0  0  0
  6 15  1  6  0  0  0
  6  5  1  0  0  0  0
  7  2  1  0  0  0  0
  8  2  1  0  0  0  0
 16 17  1  0  0  0  0
 16  1  1  0  0  0  0
 17 22  1  0  0  0  0
 18 23  1  0  0  0  0
 18 17  2  0  0  0  0
 19 18  1  0  0  0  0
 20 19  2  0  0  0  0
 20 21  1  0  0  0  0
 21 16  2  0  0  0  0
 24 20  1  0  0  0  0
 25  6  1  0  0  0  0
 26 27  1  0  0  0  0
 27 25  1  0  0  0  0
 28 29  1  0  0  0  0
 28 27  2  0  0  0  0
 30 28  1  0  0  0  0
 31 30  1  0  0  0  0
 32 31  1  0  0  0  0
 33 35  2  0  0  0  0
 33 31  1  0  0  0  0
 34 33  1  0  0  0  0
 35 36  1  0  0  0  0
 36 30  2  0  0  0  0
 36 37  1  0  0  0  0
 37 26  2  0  0  0  0
M  END
>  <minimizedAffinity>
-5.60794878

$$$$

 OpenBabel03272503003D

 37 40  0  0  1  0  0  0  0  0999 V2000
   38.1590   22.9890   34.6120 N   0  0  0  0  0  0  0  0  0  0  0  0
   37.3890   21.9250   34.0030 C   0  0  0  0  0  0  0  0  0  0  0  0
   37.8820   21.3640   32.7530 C   0  0  0  0  0  0  0  0  0  0  0  0
   38.7530   22.1810   31.8940 C   0  0  0  0  0  0  0  0  0  0  0  0
   39.4510   23.3000   32.6080 C   0  0  0  0  0  0  0  0  0  0  0  0
   38.4880   23.9770   33.5900 C   0  0  1  0  0  0  0  0  0  0  0  0
   37.3300   21.1230   34.7950 H   0  0  0  0  0  0  0  0  0  0  0  0
   36.3310   22.2580   33.9010 H   0  0  0  0  0  0  0  0  0  0  0  0
   38.4180   20.3930   32.9580 H   0  0  0  0  0  0  0  0  0  0  0  0
   37.0110   21.0330   32.1160 H   0  0  0  0  0  0  0  0  0  0  0  0
   38.1820   22.6220   31.0270 H   0  0  0  0  0  0  0  0  0  0  0  0
   39.5560   21.5770   31.4060 H   0  0  0  0  0  0  0  0  0  0  0  0
   39.8570   24.0300   31.8830 H   0  0  0  0  0  0  0  0  0  0  0  0
   40.2840   22.8890   33.1900 H   0  0  0  0  0  0  0  0  0  0  0  0
   39.0300   24.8290   33.9940 H   0  0  0  0  0  0  0  0  0  0  0  0
   38.5260   23.0520   35.9850 C   0  0  0  0  0  0  0  0  0  0  0  0
   39.7420   22.6040   36.4960 C   0  0  0  0  0  0  0  0  0  0  0  0
   39.9790   22.7260   37.8590 C   0  0  0  0  0  0  0  0  0  0  0  0
   39.0130   23.2770   38.6310 N   0  0  0  0  0  0  0  0  0  0  0  0
   37.8480   23.6990   38.1000 C   0  0  0  0  0  0  0  0  0  0  0  0
   37.6120   23.5830   36.7800 N   0  0  0  0  0  0  0  0  0  0  0  0
   40.4460   22.1860   35.8260 H   0  0  0  0  0  0  0  0  0  0  0  0
   40.9400   22.3600   38.1820 H   0  0  0  0  0  0  0  0  0  0  0  0
   37.0940   24.1390   38.7610 H   0  0  0  0  0  0  0  0  0  0  0  0
   37.3740   24.2980   32.8260 O   0  0  0  0  0  0  0  0  0  0  0  0
   37.1380   26.4580   33.4320 C   0  0  0  0  0  3  0  0  0  0  0  0
   37.1880   25.5780   32.3550 C   0  0  0  0  0  0  0  0  0  0  0  0
   37.0540   26.0990   31.1000 C   0  0  0  0  0  0  0  0  0  0  0  0
   37.1020   25.3770   30.3260 H   0  0  0  0  0  0  0  0  0  0  0  0
   36.8750   27.4520   30.9130 C   0  0  0  0  0  0  0  0  0  0  0  0
   36.7290   28.0970   29.7300 N   0  0  0  0  0  0  0  0  0  0  0  0
   36.7250   27.7030   28.7670 H   0  0  0  0  0  0  0  0  0  0  0  0
   36.5780   29.4280   29.9870 C   0  0  0  0  0  0  0  0  0  0  0  0
   36.4370   30.2360   29.2710 H   0  0  0  0  0  0  0  0  0  0  0  0
   36.6340   29.5900   31.3720 C   0  0  0  0  0  3  0  0  0  0  0  0
   36.8210   28.3600   31.9730 C   0  0  0  0  0  0  0  0  0  0  0  0
   36.9560   27.8320   33.2410 C   0  0  0  0  0  3  0  0  0  0  0  0
  1 16  1  0  0  0  0
  2  1  1  0  0  0  0
  2  7  1  0  0  0  0
  3  9  1  0  0  0  0
  3  2  1  0  0  0  0
  4  5  1  0  0  0  0
  4  3  1  0  0  0  0
  5 14  1  0  0  0  0
  5  6  1  0  0  0  0
  6 15  1  1  0  0  0
  6  1  1  0  0  0  0
  8  2  1  0  0  0  0
 10  3  1  0  0  0  0
 11  4  1  0  0  0  0
 12  4  1  0  0  0  0
 13  5  1  0  0  0  0
 16 17  2  0  0  0  0
 16 21  1  0  0  0  0
 17 18  1  0  0  0  0
 18 23  1  0  0  0  0
 18 19  2  0  0  0  0
 20 19  1  0  0  0  0
 20 24  1  0  0  0  0
 21 20  2  0  0  0  0
 22 17  1  0  0  0  0
 25  6  1  0  0  0  0
 27 25  1  0  0  0  0
 27 26  2  0  0  0  0
 28 27  1  0  0  0  0
 29 28  1  0  0  0  0
 30 28  2  0  0  0  0
 30 36  1  0  0  0  0
 31 33  1  0  0  0  0
 31 30  1  0  0  0  0
 32 31  1  0  0  0  0
 33 35  2  0  0  0  0
 34 33  1  0  0  0  0
 35 36  1  0  0  0  0
 36 37  2  0  0  0  0
 37 26  1  0  0  0  0
M  END
>  <minimizedAffinity>
-5.54599953

$$$$

 OpenBabel03272503003D

 37 40  0  0  1  0  0  0  0  0999 V2000
   37.6240   26.1350   31.3000 N   0  0  0  0  0  0  0  0  0  0  0  0
   38.7080   25.5430   30.5440 C   0  0  0  0  0  0  0  0  0  0  0  0
   38.5090   24.2010   30.0150 C   0  0  0  0  0  0  0  0  0  0  0  0
   37.5380   23.3090   30.6680 C   0  0  0  0  0  0  0  0  0  0  0  0
   36.4980   24.0180   31.4830 C   0  0  0  0  0  0  0  0  0  0  0  0
   37.1410   25.1630   32.2740 C   0  0  1  0  0  0  0  0  0  0  0  0
   38.9030   26.2700   29.7030 H   0  0  0  0  0  0  0  0  0  0  0  0
   39.6420   25.6000   31.1500 H   0  0  0  0  0  0  0  0  0  0  0  0
   38.2370   24.2610   28.9220 H   0  0  0  0  0  0  0  0  0  0  0  0
   39.4960   23.6530   29.9930 H   0  0  0  0  0  0  0  0  0  0  0  0
   38.0520   22.5580   31.3340 H   0  0  0  0  0  0  0  0  0  0  0  0
   36.9800   22.6790   29.9340 H   0  0  0  0  0  0  0  0  0  0  0  0
   35.9830   23.3100   32.1580 H   0  0  0  0  0  0  0  0  0  0  0  0
   35.7540   24.4580   30.8090 H   0  0  0  0  0  0  0  0  0  0  0  0
   36.3540   25.5630   32.9070 H   0  0  0  0  0  0  0  0  0  0  0  0
   37.1200   27.4540   31.1130 C   0  0  0  0  0  0  0  0  0  0  0  0
   36.3520   28.1420   32.0480 C   0  0  0  0  0  0  0  0  0  0  0  0
   35.9260   29.4280   31.7450 C   0  0  0  0  0  0  0  0  0  0  0  0
   36.2780   29.9550   30.5480 N   0  0  0  0  0  0  0  0  0  0  0  0
   37.0230   29.2570   29.6690 C   0  0  0  0  0  0  0  0  0  0  0  0
   37.4400   28.0100   29.9570 N   0  0  0  0  0  0  0  0  0  0  0  0
   36.1190   27.6610   32.9620 H   0  0  0  0  0  0  0  0  0  0  0  0
   35.3370   29.9000   32.5150 H   0  0  0  0  0  0  0  0  0  0  0  0
   37.2860   29.7210   28.7110 H   0  0  0  0  0  0  0  0  0  0  0  0
   38.1970   24.5710   32.9550 O   0  0  0  0  0  0  0  0  0  0  0  0
   38.0970   25.7190   34.8930 C   0  0  0  0  0  3  0  0  0  0  0  0
   38.1730   24.4510   34.3260 C   0  0  0  0  0  0  0  0  0  0  0  0
   38.2060   23.3770   35.1680 C   0  0  0  0  0  0  0  0  0  0  0  0
   38.2630   22.4420   34.6730 H   0  0  0  0  0  0  0  0  0  0  0  0
   38.1670   23.5500   36.5350 C   0  0  0  0  0  0  0  0  0  0  0  0
   38.1940   22.5790   37.4790 N   0  0  0  0  0  0  0  0  0  0  0  0
   38.2470   21.5470   37.3530 H   0  0  0  0  0  0  0  0  0  0  0  0
   38.1370   23.1750   38.7040 C   0  0  0  0  0  0  0  0  0  0  0  0
   38.1400   22.6960   39.6820 H   0  0  0  0  0  0  0  0  0  0  0  0
   38.0740   24.5520   38.4910 C   0  0  0  0  0  3  0  0  0  0  0  0
   38.0920   24.8100   37.1340 C   0  0  0  0  0  0  0  0  0  0  0  0
   38.0580   25.8950   36.2800 C   0  0  0  0  0  3  0  0  0  0  0  0
  1  6  1  0  0  0  0
  2  8  1  0  0  0  0
  2  1  1  0  0  0  0
  3  2  1  0  0  0  0
  3  4  1  0  0  0  0
  4 11  1  0  0  0  0
  4  5  1  0  0  0  0
  5 13  1  0  0  0  0
  5  6  1  0  0  0  0
  6 15  1  1  0  0  0
  6 25  1  0  0  0  0
  7  2  1  0  0  0  0
  9  3  1  0  0  0  0
 10  3  1  0  0  0  0
 12  4  1  0  0  0  0
 14  5  1  0  0  0  0
 16  1  1  0  0  0  0
 16 17  1  0  0  0  0
 17 22  1  0  0  0  0
 18 17  2  0  0  0  0
 18 23  1  0  0  0  0
 19 18  1  0  0  0  0
 20 21  1  0  0  0  0
 20 19  2  0  0  0  0
 21 16  2  0  0  0  0
 24 20  1  0  0  0  0
 25 27  1  0  0  0  0
 26 37  1  0  0  0  0
 27 26  2  0  0  0  0
 27 28  1  0  0  0  0
 28 30  2  0  0  0  0
 29 28  1  0  0  0  0
 30 36  1  0  0  0  0
 30 31  1  0  0  0  0
 31 33  1  0  0  0  0
 32 31  1  0  0  0  0
 33 34  1  0  0  0  0
 35 33  2  0  0  0  0
 36 35  1  0  0  0  0
 37 36  2  0  0  0  0
M  END
>  <minimizedAffinity>
-5.50559187

$$$$

 OpenBabel03272503003D

 37 40  0  0  1  0  0  0  0  0999 V2000
   37.2950   27.4880   33.4830 N   0  0  0  0  0  0  0  0  0  0  0  0
   37.2570   27.5210   34.9300 C   0  0  0  0  0  0  0  0  0  0  0  0
   38.5230   27.4120   35.6420 C   0  0  0  0  0  0  0  0  0  0  0  0
   39.6620   26.7540   34.9840 C   0  0  0  0  0  0  0  0  0  0  0  0
   39.5710   26.7110   33.4880 C   0  0  0  0  0  0  0  0  0  0  0  0
   38.1390   26.3750   33.0580 C   0  0  1  0  0  0  0  0  0  0  0  0
   36.7500   28.4970   35.1820 H   0  0  0  0  0  0  0  0  0  0  0  0
   36.5300   26.7570   35.2890 H   0  0  0  0  0  0  0  0  0  0  0  0
   38.8620   28.4370   35.9700 H   0  0  0  0  0  0  0  0  0  0  0  0
   38.3600   26.8820   36.6250 H   0  0  0  0  0  0  0  0  0  0  0  0
   39.8000   25.6990   35.3570 H   0  0  0  0  0  0  0  0  0  0  0  0
   40.6340   27.2510   35.2210 H   0  0  0  0  0  0  0  0  0  0  0  0
   40.2910   25.9800   33.0760 H   0  0  0  0  0  0  0  0  0  0  0  0
   39.8140   27.7020   33.0860 H   0  0  0  0  0  0  0  0  0  0  0  0
   38.1720   26.2670   31.9770 H   0  0  0  0  0  0  0  0  0  0  0  0
   36.6150   28.3970   32.6250 C   0  0  0  0  0  0  0  0  0  0  0  0
   37.0310   28.7250   31.3370 C   0  0  0  0  0  0  0  0  0  0  0  0
   36.2740   29.6250   30.6000 C   0  0  0  0  0  0  0  0  0  0  0  0
   35.1610   30.1460   31.1700 N   0  0  0  0  0  0  0  0  0  0  0  0
   34.7910   29.8040   32.4200 C   0  0  0  0  0  0  0  0  0  0  0  0
   35.5210   28.9320   33.1400 N   0  0  0  0  0  0  0  0  0  0  0  0
   37.9120   28.2740   30.9620 H   0  0  0  0  0  0  0  0  0  0  0  0
   36.6550   29.8300   29.6120 H   0  0  0  0  0  0  0  0  0  0  0  0
   33.8840   30.2490   32.8440 H   0  0  0  0  0  0  0  0  0  0  0  0
   37.8250   25.2150   33.7550 O   0  0  0  0  0  0  0  0  0  0  0  0
   36.5620   24.4580   32.0470 C   0  0  0  0  0  3  0  0  0  0  0  0
   37.4060   24.0850   33.0890 C   0  0  0  0  0  0  0  0  0  0  0  0
   37.6580   22.7560   33.2610 C   0  0  0  0  0  0  0  0  0  0  0  0
   38.3080   22.5410   34.0710 H   0  0  0  0  0  0  0  0  0  0  0  0
   37.0930   21.8160   32.4270 C   0  0  0  0  0  0  0  0  0  0  0  0
   37.2570   20.4720   32.4860 N   0  0  0  0  0  0  0  0  0  0  0  0
   37.8270   19.9120   33.1530 H   0  0  0  0  0  0  0  0  0  0  0  0
   36.5250   19.9090   31.4820 C   0  0  0  0  0  0  0  0  0  0  0  0
   36.4270   18.8540   31.2370 H   0  0  0  0  0  0  0  0  0  0  0  0
   35.8980   20.9500   30.7950 C   0  0  0  0  0  3  0  0  0  0  0  0
   36.2420   22.1570   31.3740 C   0  0  0  0  0  0  0  0  0  0  0  0
   35.9880   23.5030   31.2010 C   0  0  0  0  0  3  0  0  0  0  0  0
  1  2  1  0  0  0  0
  2  7  1  0  0  0  0
  2  8  1  0  0  0  0
  2  3  1  0  0  0  0
  3  9  1  0  0  0  0
  3 10  1  0  0  0  0
  4 12  1  0  0  0  0
  4 11  1  0  0  0  0
  4  3  1  0  0  0  0
  5  4  1  0  0  0  0
  6 15  1  6  0  0  0
  6  1  1  0  0  0  0
  6  5  1  0  0  0  0
  6 25  1  0  0  0  0
 13  5  1  0  0  0  0
 14  5  1  0  0  0  0
 16 21  1  0  0  0  0
 16  1  1  0  0  0  0
 17 16  2  0  0  0  0
 18 19  2  0  0  0  0
 18 17  1  0  0  0  0
 19 20  1  0  0  0  0
 20 24  1  0  0  0  0
 20 21  2  0  0  0  0
 22 17  1  0  0  0  0
 23 18  1  0  0  0  0
 26 27  1  0  0  0  0
 27 28  2  0  0  0  0
 27 25  1  0  0  0  0
 28 29  1  0  0  0  0
 30 31  1  0  0  0  0
 30 28  1  0  0  0  0
 31 32  1  0  0  0  0
 33 31  1  0  0  0  0
 34 33  1  0  0  0  0
 35 36  1  0  0  0  0
 35 33  2  0  0  0  0
 36 30  2  0  0  0  0
 37 36  1  0  0  0  0
 37 26  2  0  0  0  0
M  END
>  <minimizedAffinity>
-5.43269157

$$$$

 OpenBabel03272503003D

 37 40  0  0  1  0  0  0  0  0999 V2000
   40.2290   24.4770   35.2680 N   0  0  0  0  0  0  0  0  0  0  0  0
   40.8260   25.5310   34.4730 C   0  0  0  0  0  0  0  0  0  0  0  0
   40.3820   26.8960   34.7180 C   0  0  0  0  0  0  0  0  0  0  0  0
   39.0500   27.1240   35.3020 C   0  0  0  0  0  0  0  0  0  0  0  0
   38.4920   25.9470   36.0450 C   0  0  0  0  0  0  0  0  0  0  0  0
   38.7810   24.6540   35.2750 C   0  0  1  0  0  0  0  0  0  0  0  0
   41.9350   25.4410   34.6630 H   0  0  0  0  0  0  0  0  0  0  0  0
   40.7300   25.2670   33.3950 H   0  0  0  0  0  0  0  0  0  0  0  0
   41.1350   27.4290   35.3670 H   0  0  0  0  0  0  0  0  0  0  0  0
   40.4240   27.4870   33.7570 H   0  0  0  0  0  0  0  0  0  0  0  0
   38.3020   27.4280   34.5150 H   0  0  0  0  0  0  0  0  0  0  0  0
   39.0420   27.9770   36.0220 H   0  0  0  0  0  0  0  0  0  0  0  0
   37.4070   26.0740   36.2150 H   0  0  0  0  0  0  0  0  0  0  0  0
   38.9890   25.8710   37.0190 H   0  0  0  0  0  0  0  0  0  0  0  0
   38.2680   23.8650   35.8190 H   0  0  0  0  0  0  0  0  0  0  0  0
   40.9490   23.4430   35.9290 C   0  0  0  0  0  0  0  0  0  0  0  0
   40.3920   22.5610   36.8510 C   0  0  0  0  0  0  0  0  0  0  0  0
   41.2040   21.5900   37.4220 C   0  0  0  0  0  0  0  0  0  0  0  0
   42.5070   21.5470   37.0550 N   0  0  0  0  0  0  0  0  0  0  0  0
   43.0100   22.4190   36.1590 C   0  0  0  0  0  0  0  0  0  0  0  0
   42.2280   23.3610   35.6010 N   0  0  0  0  0  0  0  0  0  0  0  0
   39.3650   22.6590   37.0850 H   0  0  0  0  0  0  0  0  0  0  0  0
   40.7050   20.9440   38.1250 H   0  0  0  0  0  0  0  0  0  0  0  0
   44.0700   22.3490   35.8900 H   0  0  0  0  0  0  0  0  0  0  0  0
   38.3000   24.8920   33.9940 O   0  0  0  0  0  0  0  0  0  0  0  0
   36.8820   24.4940   32.2860 C   0  0  0  0  0  3  0  0  0  0  0  0
   37.6380   23.9070   33.2960 C   0  0  0  0  0  0  0  0  0  0  0  0
   37.5980   22.5480   33.4140 C   0  0  0  0  0  0  0  0  0  0  0  0
   38.1960   22.1650   34.2010 H   0  0  0  0  0  0  0  0  0  0  0  0
   36.8320   21.7870   32.5580 C   0  0  0  0  0  0  0  0  0  0  0  0
   36.7020   20.4380   32.5650 N   0  0  0  0  0  0  0  0  0  0  0  0
   37.1450   19.7420   33.1990 H   0  0  0  0  0  0  0  0  0  0  0  0
   35.8530   20.0880   31.5560 C   0  0  0  0  0  0  0  0  0  0  0  0
   35.5250   19.0890   31.2740 H   0  0  0  0  0  0  0  0  0  0  0  0
   35.4580   21.2660   30.9210 C   0  0  0  0  0  3  0  0  0  0  0  0
   36.0620   22.3460   31.5360 C   0  0  0  0  0  0  0  0  0  0  0  0
   36.1030   23.7210   31.4180 C   0  0  0  0  0  3  0  0  0  0  0  0
  1  6  1  0  0  0  0
  1 16  1  0  0  0  0
  2  7  1  0  0  0  0
  2  3  1  0  0  0  0
  2  1  1  0  0  0  0
  3  4  1  0  0  0  0
  3  9  1  0  0  0  0
  4 12  1  0  0  0  0
  4  5  1  0  0  0  0
  5 13  1  0  0  0  0
  5 14  1  0  0  0  0
  6 15  1  1  0  0  0
  6  5  1  0  0  0  0
  8  2  1  0  0  0  0
 10  3  1  0  0  0  0
 11  4  1  0  0  0  0
 16 17  1  0  0  0  0
 17 22  1  0  0  0  0
 17 18  2  0  0  0  0
 18 23  1  0  0  0  0
 19 18  1  0  0  0  0
 20 19  2  0  0  0  0
 21 16  2  0  0  0  0
 21 20  1  0  0  0  0
 24 20  1  0  0  0  0
 25  6  1  0  0  0  0
 26 27  1  0  0  0  0
 27 28  2  0  0  0  0
 27 25  1  0  0  0  0
 28 29  1  0  0  0  0
 30 31  1  0  0  0  0
 30 28  1  0  0  0  0
 31 32  1  0  0  0  0
 33 31  1  0  0  0  0
 34 33  1  0  0  0  0
 35 36  1  0  0  0  0
 35 33  2  0  0  0  0
 36 30  2  0  0  0  0
 37 36  1  0  0  0  0
 37 26  2  0  0  0  0
M  END
>  <minimizedAffinity>
-5.39010811

$$$$

 OpenBabel03272503003D

 37 40  0  0  1  0  0  0  0  0999 V2000
   39.3630   24.9350   34.7780 N   0  0  0  0  0  0  0  0  0  0  0  0
   39.8700   24.1970   33.6400 C   0  0  0  0  0  0  0  0  0  0  0  0
   40.9700   24.7860   32.8890 C   0  0  0  0  0  0  0  0  0  0  0  0
   41.1650   26.2440   32.9250 C   0  0  0  0  0  0  0  0  0  0  0  0
   40.5410   26.9220   34.1080 C   0  0  0  0  0  0  0  0  0  0  0  0
   39.1570   26.3250   34.3860 C   0  0  1  0  0  0  0  0  0  0  0  0
   40.1760   23.1950   34.0590 H   0  0  0  0  0  0  0  0  0  0  0  0
   39.0190   23.9420   32.9680 H   0  0  0  0  0  0  0  0  0  0  0  0
   41.9420   24.3040   33.1980 H   0  0  0  0  0  0  0  0  0  0  0  0
   40.8870   24.4920   31.8020 H   0  0  0  0  0  0  0  0  0  0  0  0
   40.7680   26.7360   31.9910 H   0  0  0  0  0  0  0  0  0  0  0  0
   42.2450   26.5280   32.9390 H   0  0  0  0  0  0  0  0  0  0  0  0
   40.4770   28.0130   33.9420 H   0  0  0  0  0  0  0  0  0  0  0  0
   41.1630   26.7410   34.9920 H   0  0  0  0  0  0  0  0  0  0  0  0
   38.7320   26.9250   35.1870 H   0  0  0  0  0  0  0  0  0  0  0  0
   39.1100   24.3820   36.0650 C   0  0  0  0  0  0  0  0  0  0  0  0
   38.0850   24.7970   36.9120 C   0  0  0  0  0  0  0  0  0  0  0  0
   37.9430   24.1710   38.1430 C   0  0  0  0  0  0  0  0  0  0  0  0
   38.8110   23.1830   38.4650 N   0  0  0  0  0  0  0  0  0  0  0  0
   39.7910   22.8090   37.6180 C   0  0  0  0  0  0  0  0  0  0  0  0
   39.9340   23.4120   36.4230 N   0  0  0  0  0  0  0  0  0  0  0  0
   37.4480   25.5760   36.5880 H   0  0  0  0  0  0  0  0  0  0  0  0
   37.1290   24.5430   38.7450 H   0  0  0  0  0  0  0  0  0  0  0  0
   40.4710   22.0050   37.9170 H   0  0  0  0  0  0  0  0  0  0  0  0
   38.4870   26.4080   33.1710 O   0  0  0  0  0  0  0  0  0  0  0  0
   36.9260   27.7360   34.1120 C   0  0  0  0  0  3  0  0  0  0  0  0
   37.5900   27.4240   32.9300 C   0  0  0  0  0  0  0  0  0  0  0  0
   37.2620   28.1300   31.8090 C   0  0  0  0  0  0  0  0  0  0  0  0
   37.8040   27.8440   30.9440 H   0  0  0  0  0  0  0  0  0  0  0  0
   36.3030   29.1190   31.8530 C   0  0  0  0  0  0  0  0  0  0  0  0
   35.8830   29.8910   30.8210 N   0  0  0  0  0  0  0  0  0  0  0  0
   36.1980   29.8830   29.8300 H   0  0  0  0  0  0  0  0  0  0  0  0
   34.9250   30.7410   31.2900 C   0  0  0  0  0  0  0  0  0  0  0  0
   34.3730   31.4970   30.7340 H   0  0  0  0  0  0  0  0  0  0  0  0
   34.7620   30.4720   32.6490 C   0  0  0  0  0  3  0  0  0  0  0  0
   35.6190   29.4550   33.0230 C   0  0  0  0  0  0  0  0  0  0  0  0
   35.9530   28.7390   34.1560 C   0  0  0  0  0  3  0  0  0  0  0  0
  1 16  1  0  0  0  0
  2  7  1  0  0  0  0
  2  1  1  0  0  0  0
  3  4  1  0  0  0  0
  3  9  1  0  0  0  0
  3  2  1  0  0  0  0
  4 12  1  0  0  0  0
  4  5  1  0  0  0  0
  5  6  1  0  0  0  0
  5 14  1  0  0  0  0
  6  1  1  0  0  0  0
  6 15  1  1  0  0  0
  8  2  1  0  0  0  0
 10  3  1  0  0  0  0
 11  4  1  0  0  0  0
 13  5  1  0  0  0  0
 16 21  2  0  0  0  0
 16 17  1  0  0  0  0
 17 18  2  0  0  0  0
 18 19  1  0  0  0  0
 18 23  1  0  0  0  0
 20 24  1  0  0  0  0
 20 19  2  0  0  0  0
 21 20  1  0  0  0  0
 22 17  1  0  0  0  0
 25  6  1  0  0  0  0
 26 37  1  0  0  0  0
 27 25  1  0  0  0  0
 27 26  2  0  0  0  0
 28 30  2  0  0  0  0
 28 27  1  0  0  0  0
 29 28  1  0  0  0  0
 30 36  1  0  0  0  0
 31 33  1  0  0  0  0
 31 30  1  0  0  0  0
 32 31  1  0  0  0  0
 33 35  2  0  0  0  0
 34 33  1  0  0  0  0
 35 36  1  0  0  0  0
 36 37  2  0  0  0  0
M  END
>  <minimizedAffinity>
-5.38151073

$$$$

 OpenBabel03272503003D

 37 40  0  0  1  0  0  0  0  0999 V2000
   38.3410   26.7360   32.9470 N   0  0  0  0  0  0  0  0  0  0  0  0
   37.1330   26.9950   33.7030 C   0  0  0  0  0  0  0  0  0  0  0  0
   37.2760   27.5910   35.0230 C   0  0  0  0  0  0  0  0  0  0  0  0
   38.5400   27.4150   35.7560 C   0  0  0  0  0  0  0  0  0  0  0  0
   39.7160   27.0810   34.8890 C   0  0  0  0  0  0  0  0  0  0  0  0
   39.3060   26.0680   33.8140 C   0  0  1  0  0  0  0  0  0  0  0  0
   36.5150   27.6650   33.0370 H   0  0  0  0  0  0  0  0  0  0  0  0
   36.5300   26.0590   33.7500 H   0  0  0  0  0  0  0  0  0  0  0  0
   37.0660   28.6980   34.9650 H   0  0  0  0  0  0  0  0  0  0  0  0
   36.4510   27.2210   35.6980 H   0  0  0  0  0  0  0  0  0  0  0  0
   38.4500   26.6160   36.5470 H   0  0  0  0  0  0  0  0  0  0  0  0
   38.8280   28.3290   36.3310 H   0  0  0  0  0  0  0  0  0  0  0  0
   40.5530   26.6940   35.5000 H   0  0  0  0  0  0  0  0  0  0  0  0
   40.0530   27.9900   34.3770 H   0  0  0  0  0  0  0  0  0  0  0  0
   40.2220   25.8040   33.2920 H   0  0  0  0  0  0  0  0  0  0  0  0
   38.5420   27.0800   31.5810 C   0  0  0  0  0  0  0  0  0  0  0  0
   37.8460   28.0830   30.9110 C   0  0  0  0  0  0  0  0  0  0  0  0
   38.1410   28.3230   29.5750 C   0  0  0  0  0  0  0  0  0  0  0  0
   39.0960   27.5660   28.9840 N   0  0  0  0  0  0  0  0  0  0  0  0
   39.7480   26.6050   29.6660 C   0  0  0  0  0  0  0  0  0  0  0  0
   39.4670   26.3670   30.9600 N   0  0  0  0  0  0  0  0  0  0  0  0
   37.1140   28.6300   31.4440 H   0  0  0  0  0  0  0  0  0  0  0  0
   37.5640   29.1120   29.1230 H   0  0  0  0  0  0  0  0  0  0  0  0
   40.5140   26.0160   29.1480 H   0  0  0  0  0  0  0  0  0  0  0  0
   38.7110   25.0290   34.5180 O   0  0  0  0  0  0  0  0  0  0  0  0
   38.8910   23.8600   36.4380 C   0  0  0  0  0  3  0  0  0  0  0  0
   39.4770   24.1120   35.2010 C   0  0  0  0  0  0  0  0  0  0  0  0
   40.6320   23.4520   34.8960 C   0  0  0  0  0  0  0  0  0  0  0  0
   41.0250   23.6890   33.9410 H   0  0  0  0  0  0  0  0  0  0  0  0
   41.1950   22.5660   35.7880 C   0  0  0  0  0  0  0  0  0  0  0  0
   42.3320   21.8490   35.6150 N   0  0  0  0  0  0  0  0  0  0  0  0
   42.9750   21.8320   34.7970 H   0  0  0  0  0  0  0  0  0  0  0  0
   42.5350   21.0960   36.7340 C   0  0  0  0  0  0  0  0  0  0  0  0
   43.3520   20.4050   36.9360 H   0  0  0  0  0  0  0  0  0  0  0  0
   41.4860   21.3700   37.6120 C   0  0  0  0  0  3  0  0  0  0  0  0
   40.6320   22.2910   37.0360 C   0  0  0  0  0  0  0  0  0  0  0  0
   39.4640   22.9600   37.3430 C   0  0  0  0  0  3  0  0  0  0  0  0
  1  2  1  0  0  0  0
  1  6  1  0  0  0  0
  2  8  1  0  0  0  0
  2  3  1  0  0  0  0
  3 10  1  0  0  0  0
  3  4  1  0  0  0  0
  4 12  1  0  0  0  0
  4 11  1  0  0  0  0
  5 13  1  0  0  0  0
  5  4  1  0  0  0  0
  6 15  1  6  0  0  0
  6 25  1  0  0  0  0
  6  5  1  0  0  0  0
  7  2  1  0  0  0  0
  9  3  1  0  0  0  0
 14  5  1  0  0  0  0
 16  1  1  0  0  0  0
 17 22  1  0  0  0  0
 17 16  2  0  0  0  0
 18 17  1  0  0  0  0
 19 18  2  0  0  0  0
 19 20  1  0  0  0  0
 20 21  2  0  0  0  0
 21 16  1  0  0  0  0
 23 18  1  0  0  0  0
 24 20  1  0  0  0  0
 25 27  1  0  0  0  0
 26 37  1  0  0  0  0
 27 26  2  0  0  0  0
 28 27  1  0  0  0  0
 28 30  2  0  0  0  0
 29 28  1  0  0  0  0
 30 36  1  0  0  0  0
 31 30  1  0  0  0  0
 31 33  1  0  0  0  0
 32 31  1  0  0  0  0
 33 34  1  0  0  0  0
 33 35  2  0  0  0  0
 36 37  2  0  0  0  0
 36 35  1  0  0  0  0
M  END
>  <minimizedAffinity>
-5.32610893

$$$$
