
 OpenBabel03272510113D

 38 42  0  0  0  0  0  0  0  0999 V2000
   36.7730   29.6540   49.9680 O   0  0  0  0  0  0  0  0  0  0  0  0
   32.9030   28.2490   49.1000 C   0  0  0  0  0  0  0  0  0  0  0  0
   33.1210   29.0870   50.1390 C   0  0  0  0  0  0  0  0  0  0  0  0
   34.3460   29.5930   50.4930 C   0  0  0  0  0  0  0  0  0  0  0  0
   35.4580   29.2520   49.7720 C   0  0  0  0  0  0  0  0  0  0  0  0
   35.2390   28.3820   48.6920 C   0  0  0  0  0  0  0  0  0  0  0  0
   34.0070   27.9120   48.3850 N   0  0  0  0  0  0  0  0  0  0  0  0
   32.3060   29.4160   50.7710 H   0  0  0  0  0  0  0  0  0  0  0  0
   34.5330   30.2620   51.3220 H   0  0  0  0  0  0  0  0  0  0  0  0
   36.0010   27.9990   48.0020 H   0  0  0  0  0  0  0  0  0  0  0  0
   30.4620   27.8090   49.5560 C   0  0  0  0  0  0  0  0  0  0  0  0
   31.6040   27.7290   48.7450 C   0  0  0  0  0  0  0  0  0  0  0  0
   31.4420   27.0990   47.5200 C   0  0  0  0  0  0  0  0  0  0  0  0
   30.2180   26.6030   47.1730 N   0  0  0  0  0  0  0  0  0  0  0  0
   29.1610   26.7120   47.9980 C   0  0  0  0  0  0  0  0  0  0  0  0
   29.2830   27.3140   49.1850 N   0  0  0  0  0  0  0  0  0  0  0  0
   30.5670   28.2930   50.5070 H   0  0  0  0  0  0  0  0  0  0  0  0
   32.2600   26.9850   46.8230 H   0  0  0  0  0  0  0  0  0  0  0  0
   28.2690   26.2650   47.5660 H   0  0  0  0  0  0  0  0  0  0  0  0
   37.4240   30.5110   49.1080 C   0  0  0  0  0  0  0  0  0  0  0  0
   38.1660   31.5240   49.7180 C   0  0  0  0  0  0  0  0  0  0  0  0
   38.7430   32.2780   48.6990 C   0  0  0  0  0  0  0  0  0  0  0  0
   38.3430   31.7120   47.5350 N   0  0  0  0  0  0  0  0  0  0  0  0
   37.5730   30.6810   47.7830 N   0  0  0  0  0  0  0  0  0  0  0  0
   38.3630   31.8130   50.7480 H   0  0  0  0  0  0  0  0  0  0  0  0
   39.3960   33.1600   48.7850 H   0  0  0  0  0  0  0  0  0  0  0  0
   39.9510   32.8160   45.9870 C   0  0  0  0  0  3  0  0  0  0  0  0
   38.7340   32.2090   46.2610 C   0  0  0  0  0  0  0  0  0  0  0  0
   37.7670   32.0330   45.2750 C   0  0  0  0  0  0  0  0  0  0  0  0
   36.8100   31.5710   45.4330 H   0  0  0  0  0  0  0  0  0  0  0  0
   38.0350   32.4800   43.9840 C   0  0  0  0  0  0  0  0  0  0  0  0
   37.3650   32.4860   42.7960 N   0  0  0  0  0  0  0  0  0  0  0  0
   36.4000   32.0720   42.7490 H   0  0  0  0  0  0  0  0  0  0  0  0
   38.1300   33.0650   41.8510 C   0  0  0  0  0  0  0  0  0  0  0  0
   37.8150   33.1890   40.8170 H   0  0  0  0  0  0  0  0  0  0  0  0
   39.3390   33.4640   42.3780 C   0  0  0  0  0  3  0  0  0  0  0  0
   39.2530   33.0840   43.7230 C   0  0  0  0  0  0  0  0  0  0  0  0
   40.2240   33.2620   44.7090 C   0  0  0  0  0  3  0  0  0  0  0  0
  2  3  1  0  0  0  0
  3  4  2  0  0  0  0
  3  8  1  0  0  0  0
  4  9  1  0  0  0  0
  5  1  1  0  0  0  0
  5  4  1  0  0  0  0
  6  5  2  0  0  0  0
  7  6  1  0  0  0  0
  7  2  2  0  0  0  0
 10  6  1  0  0  0  0
 11 17  1  0  0  0  0
 12  2  1  0  0  0  0
 12 11  2  0  0  0  0
 13 12  1  0  0  0  0
 14 13  2  0  0  0  0
 14 15  1  0  0  0  0
 15 16  2  0  0  0  0
 16 11  1  0  0  0  0
 18 13  1  0  0  0  0
 19 15  1  0  0  0  0
 20 21  1  0  0  0  0
 20  1  1  0  0  0  0
 21 25  1  0  0  0  0
 22 26  1  0  0  0  0
 22 21  2  0  0  0  0
 23 24  1  0  0  0  0
 23 22  1  0  0  0  0
 24 20  2  0  0  0  0
 27 28  1  0  0  0  0
 28 23  1  0  0  0  0
 29 30  1  0  0  0  0
 29 28  2  0  0  0  0
 31 29  1  0  0  0  0
 32 31  1  0  0  0  0
 33 32  1  0  0  0  0
 34 36  2  0  0  0  0
 34 32  1  0  0  0  0
 35 34  1  0  0  0  0
 36 37  1  0  0  0  0
 37 31  2  0  0  0  0
 37 38  1  0  0  0  0
 38 27  2  0  0  0  0
M  END
>  <minimizedAffinity>
-6.32931948

>  <minimizedRMSD>
2.38239384

$$$$
