
 OpenBabel03272502593D

 37 40  0  0  1  0  0  0  0  0999 V2000
   35.7460   29.5580   48.9240 N   0  0  0  0  0  0  0  0  0  0  0  0
   36.5620   28.7400   49.7980 C   0  0  0  0  0  0  0  0  0  0  0  0
   37.0860   29.3580   51.0070 C   0  0  0  0  0  0  0  0  0  0  0  0
   37.2570   30.8190   51.0510 C   0  0  0  0  0  0  0  0  0  0  0  0
   36.4190   31.5690   50.0590 C   0  0  0  0  0  0  0  0  0  0  0  0
   36.4170   30.8360   48.7120 C   0  0  1  0  0  0  0  0  0  0  0  0
   35.9070   27.8600   50.0620 H   0  0  0  0  0  0  0  0  0  0  0  0
   37.3790   28.2780   49.1980 H   0  0  0  0  0  0  0  0  0  0  0  0
   36.4510   29.0620   51.8910 H   0  0  0  0  0  0  0  0  0  0  0  0
   38.0880   28.9030   51.2620 H   0  0  0  0  0  0  0  0  0  0  0  0
   38.3340   31.1130   50.8920 H   0  0  0  0  0  0  0  0  0  0  0  0
   37.0080   31.2460   52.0520 H   0  0  0  0  0  0  0  0  0  0  0  0
   36.7850   32.6060   49.9460 H   0  0  0  0  0  0  0  0  0  0  0  0
   35.3840   31.6030   50.4190 H   0  0  0  0  0  0  0  0  0  0  0  0
   35.8750   31.4820   48.0260 H   0  0  0  0  0  0  0  0  0  0  0  0
   34.4960   29.1670   48.3680 C   0  0  0  0  0  0  0  0  0  0  0  0
   33.9980   29.6240   47.1510 C   0  0  0  0  0  0  0  0  0  0  0  0
   32.7630   29.1600   46.7180 C   0  0  0  0  0  0  0  0  0  0  0  0
   32.0960   28.2820   47.5040 N   0  0  0  0  0  0  0  0  0  0  0  0
   32.6110   27.8630   48.6770 C   0  0  0  0  0  0  0  0  0  0  0  0
   33.8080   28.3080   49.1020 N   0  0  0  0  0  0  0  0  0  0  0  0
   34.5800   30.3100   46.5950 H   0  0  0  0  0  0  0  0  0  0  0  0
   32.4430   29.5560   45.7680 H   0  0  0  0  0  0  0  0  0  0  0  0
   32.0380   27.1510   49.2820 H   0  0  0  0  0  0  0  0  0  0  0  0
   37.7600   30.6520   48.4100 O   0  0  0  0  0  0  0  0  0  0  0  0
   38.2350   30.2830   46.2370 C   0  0  0  0  0  3  0  0  0  0  0  0
   38.3090   31.2060   47.2750 C   0  0  0  0  0  0  0  0  0  0  0  0
   38.8730   32.4200   47.0120 C   0  0  0  0  0  0  0  0  0  0  0  0
   38.8990   33.0750   47.8440 H   0  0  0  0  0  0  0  0  0  0  0  0
   39.3540   32.7170   45.7550 C   0  0  0  0  0  0  0  0  0  0  0  0
   39.9350   33.8760   45.3590 N   0  0  0  0  0  0  0  0  0  0  0  0
   40.1230   34.7360   45.9140 H   0  0  0  0  0  0  0  0  0  0  0  0
   40.2650   33.7570   44.0410 C   0  0  0  0  0  0  0  0  0  0  0  0
   40.7470   34.4970   43.4030 H   0  0  0  0  0  0  0  0  0  0  0  0
   39.8700   32.4830   43.6300 C   0  0  0  0  0  3  0  0  0  0  0  0
   39.2960   31.8130   44.6920 C   0  0  0  0  0  0  0  0  0  0  0  0
   38.7230   30.5850   44.9600 C   0  0  0  0  0  3  0  0  0  0  0  0
  1  2  1  0  0  0  0
  2  7  1  0  0  0  0
  2  3  1  0  0  0  0
  3  4  1  0  0  0  0
  3 10  1  0  0  0  0
  3  9  1  0  0  0  0
  4 12  1  0  0  0  0
  5 14  1  0  0  0  0
  5  4  1  0  0  0  0
  6 15  1  6  0  0  0
  6  1  1  0  0  0  0
  6  5  1  0  0  0  0
  8  2  1  0  0  0  0
 11  4  1  0  0  0  0
 13  5  1  0  0  0  0
 16  1  1  0  0  0  0
 16 21  1  0  0  0  0
 17 16  2  0  0  0  0
 18 17  1  0  0  0  0
 18 19  2  0  0  0  0
 19 20  1  0  0  0  0
 20 21  2  0  0  0  0
 20 24  1  0  0  0  0
 22 17  1  0  0  0  0
 23 18  1  0  0  0  0
 25  6  1  0  0  0  0
 26 27  1  0  0  0  0
 27 25  1  0  0  0  0
 28 27  2  0  0  0  0
 28 29  1  0  0  0  0
 30 28  1  0  0  0  0
 31 30  1  0  0  0  0
 31 32  1  0  0  0  0
 33 31  1  0  0  0  0
 34 33  1  0  0  0  0
 35 33  2  0  0  0  0
 35 36  1  0  0  0  0
 36 37  1  0  0  0  0
 36 30  2  0  0  0  0
 37 26  2  0  0  0  0
M  END
>  <minimizedAffinity>
-6.26249409

>  <minimizedRMSD>
0.933971226

$$$$
