
 OpenBabel03272510163D

 31 34  0  0  0  0  0  0  0  0999 V2000
   37.2300   29.5600   51.2430 Br  0  0  0  0  0  0  0  0  0  0  0  0
   36.0190   29.3280   49.7710 C   0  0  0  0  0  0  0  0  0  0  0  0
   36.1130   30.1240   48.6510 C   0  0  0  0  0  0  0  0  0  0  0  0
   35.2050   29.8960   47.6330 C   0  0  0  0  0  0  0  0  0  0  0  0
   34.2250   28.9200   47.6930 C   0  0  0  0  0  0  0  0  0  0  0  0
   34.1660   28.1500   48.8210 C   0  0  0  0  0  0  0  0  0  0  0  0
   35.0630   28.3590   49.8540 C   0  0  0  0  0  0  0  0  0  0  0  0
   35.2410   30.4950   46.7350 H   0  0  0  0  0  0  0  0  0  0  0  0
   33.4280   27.3810   48.9170 H   0  0  0  0  0  0  0  0  0  0  0  0
   34.9720   27.7250   50.7230 H   0  0  0  0  0  0  0  0  0  0  0  0
   33.6360   28.6080   45.2810 C   0  0  0  0  0  3  0  0  0  0  0  0
   33.2960   28.7100   46.6140 C   0  0  0  0  0  0  0  0  0  0  0  0
   31.9450   28.5950   46.8670 C   0  0  0  0  0  0  0  0  0  0  0  0
   31.6360   28.6710   47.9130 H   0  0  0  0  0  0  0  0  0  0  0  0
   30.9470   28.3950   45.9380 C   0  0  0  0  0  0  0  0  0  0  0  0
   29.6140   28.2640   46.0370 N   0  0  0  0  0  0  0  0  0  0  0  0
   29.0990   28.3050   46.9440 H   0  0  0  0  0  0  0  0  0  0  0  0
   29.1680   28.0860   44.7590 C   0  0  0  0  0  0  0  0  0  0  0  0
   28.0950   27.9600   44.6360 H   0  0  0  0  0  0  0  0  0  0  0  0
   30.2300   28.1060   43.8820 C   0  0  0  0  0  3  0  0  0  0  0  0
   31.3840   28.3030   44.6110 C   0  0  0  0  0  0  0  0  0  0  0  0
   32.7150   28.4070   44.2760 C   0  0  0  0  0  3  0  0  0  0  0  0
   37.9800   33.1680   49.3860 C   0  0  0  0  0  0  0  0  0  0  0  0
   39.0130   33.1690   48.4240 C   0  0  0  0  0  0  0  0  0  0  0  0
   39.0510   32.1110   47.5280 C   0  0  0  0  0  0  0  0  0  0  0  0
   38.1080   31.1260   47.6070 N   0  0  0  0  0  0  0  0  0  0  0  0
   37.1280   31.1620   48.5480 C   0  0  0  0  0  0  0  0  0  0  0  0
   37.0740   32.1910   49.4370 N   0  0  0  0  0  0  0  0  0  0  0  0
   37.9010   33.9780   50.1200 H   0  0  0  0  0  0  0  0  0  0  0  0
   39.7380   33.9710   48.4010 H   0  0  0  0  0  0  0  0  0  0  0  0
   39.8190   32.0570   46.7680 H   0  0  0  0  0  0  0  0  0  0  0  0
  2  7  1  0  0  0  0
  2  1  1  0  0  0  0
  3  2  2  0  0  0  0
  4  5  2  0  0  0  0
  4  3  1  0  0  0  0
  5  6  1  0  0  0  0
  6  9  1  0  0  0  0
  6  7  2  0  0  0  0
  7 10  1  0  0  0  0
  8  4  1  0  0  0  0
 11 12  1  0  0  0  0
 12 13  2  0  0  0  0
 12  5  1  0  0  0  0
 13 14  1  0  0  0  0
 15 16  1  0  0  0  0
 15 13  1  0  0  0  0
 16 17  1  0  0  0  0
 18 16  1  0  0  0  0
 19 18  1  0  0  0  0
 20 21  1  0  0  0  0
 20 18  2  0  0  0  0
 21 15  2  0  0  0  0
 22 21  1  0  0  0  0
 22 11  2  0  0  0  0
 23 28  1  0  0  0  0
 23 29  1  0  0  0  0
 24 23  2  0  0  0  0
 25 26  2  0  0  0  0
 25 24  1  0  0  0  0
 26 27  1  0  0  0  0
 27  3  1  0  0  0  0
 27 28  2  0  0  0  0
 30 24  1  0  0  0  0
 31 25  1  0  0  0  0
M  END
>  <minimizedAffinity>
-6.13038397

>  <minimizedRMSD>
0.599293172

$$$$
