
 OpenBabel03262522053D

 43 47  0  0  1  0  0  0  0  0999 V2000
   37.7700   31.8640   49.5780 C   0  0  0  0  0  0  0  0  0  0  0  0
   36.7760   32.3700   50.1850 O   0  0  0  0  0  0  0  0  0  0  0  0
   34.5480   29.1450   48.6020 C   0  0  2  0  0  0  0  0  0  0  0  0
   35.1800   28.4110   49.7350 C   0  0  0  0  0  0  0  0  0  0  0  0
   36.3160   29.1830   50.2370 N   0  0  0  0  0  0  0  0  0  0  0  0
   37.2610   29.9100   51.0350 C   0  0  0  0  0  0  0  0  0  0  0  0
   37.4670   30.0900   52.2480 O   0  0  0  0  0  0  0  0  0  0  0  0
   37.9910   30.4370   49.9120 C   0  0  1  0  0  0  0  0  0  0  0  0
   37.1640   29.4350   49.1140 C   0  0  2  0  0  0  0  0  0  0  0  0
   35.9590   30.1490   47.9710 S   0  0  0  0  0  0  0  0  0  0  0  0
   34.4920   28.2860   50.6060 H   0  0  0  0  0  0  0  0  0  0  0  0
   35.5290   27.4000   49.4140 H   0  0  0  0  0  0  0  0  0  0  0  0
   39.0480   30.1890   49.7280 H   0  0  0  0  0  0  0  0  0  0  0  0
   37.7190   28.5660   48.7190 H   0  0  0  0  0  0  0  0  0  0  0  0
   33.3420   29.9610   48.9200 C   0  0  0  0  0  0  0  0  0  0  0  0
   33.0450   29.7670   49.9730 H   0  0  0  0  0  0  0  0  0  0  0  0
   33.5030   31.0650   48.8560 H   0  0  0  0  0  0  0  0  0  0  0  0
   32.4750   29.7120   48.2450 H   0  0  0  0  0  0  0  0  0  0  0  0
   34.2660   28.1370   47.4750 C   0  0  0  0  0  0  0  0  0  0  0  0
   34.9070   27.2560   47.5340 H   0  0  0  0  0  0  0  0  0  0  0  0
   33.1730   27.8900   47.6010 H   0  0  0  0  0  0  0  0  0  0  0  0
   34.3330   28.8090   46.2520 O   0  0  0  0  0  0  0  0  0  0  0  0
   34.9330   28.2410   45.6750 H   0  0  0  0  0  0  0  0  0  0  0  0
   38.5920   32.6040   48.6700 C   0  0  0  0  0  0  0  0  0  0  0  0
   39.2220   33.7370   49.1350 C   0  0  0  0  0  0  0  0  0  0  0  0
   40.0320   34.4620   48.2340 C   0  0  0  0  0  0  0  0  0  0  0  0
   40.1440   33.9990   46.9510 N   0  0  0  0  0  0  0  0  0  0  0  0
   39.5200   32.9050   46.5430 C   0  0  0  0  0  0  0  0  0  0  0  0
   38.7430   32.1960   47.3860 N   0  0  0  0  0  0  0  0  0  0  0  0
   39.1150   34.0790   50.1590 H   0  0  0  0  0  0  0  0  0  0  0  0
   40.5530   35.3610   48.5380 H   0  0  0  0  0  0  0  0  0  0  0  0
   39.1910   33.2440   44.1040 C   0  0  0  0  0  3  0  0  0  0  0  0
   39.6900   32.4750   45.1560 C   0  0  0  0  0  0  0  0  0  0  0  0
   40.3690   31.2730   44.9420 C   0  0  0  0  0  0  0  0  0  0  0  0
   40.7530   30.6820   45.7620 H   0  0  0  0  0  0  0  0  0  0  0  0
   40.5460   30.8390   43.6280 C   0  0  0  0  0  0  0  0  0  0  0  0
   41.1620   29.7250   43.2030 N   0  0  0  0  0  0  0  0  0  0  0  0
   41.6300   28.9640   43.7490 H   0  0  0  0  0  0  0  0  0  0  0  0
   41.1090   29.6880   41.8410 C   0  0  0  0  0  0  0  0  0  0  0  0
   41.4700   28.9890   41.1000 H   0  0  0  0  0  0  0  0  0  0  0  0
   40.4310   30.8330   41.4660 C   0  0  0  0  0  3  0  0  0  0  0  0
   40.0620   31.5810   42.5650 C   0  0  0  0  0  0  0  0  0  0  0  0
   39.3950   32.7660   42.8030 C   0  0  0  0  0  3  0  0  0  0  0  0
  1  8  1  0  0  0  0
  1  2  2  0  0  0  0
  3 19  1  6  0  0  0
  3 15  1  0  0  0  0
  3  4  1  0  0  0  0
  4  5  1  0  0  0  0
  4 11  1  0  0  0  0
  5  6  1  0  0  0  0
  6  7  2  0  0  0  0
  8 13  1  1  0  0  0
  8  6  1  0  0  0  0
  9 14  1  6  0  0  0
  9  8  1  0  0  0  0
  9  5  1  0  0  0  0
 10  3  1  0  0  0  0
 10  9  1  0  0  0  0
 12  4  1  0  0  0  0
 15 16  1  0  0  0  0
 17 15  1  0  0  0  0
 18 15  1  0  0  0  0
 19 20  1  0  0  0  0
 19 21  1  0  0  0  0
 22 19  1  0  0  0  0
 23 22  1  0  0  0  0
 24 25  1  0  0  0  0
 24  1  1  0  0  0  0
 25 30  1  0  0  0  0
 26 31  1  0  0  0  0
 26 25  2  0  0  0  0
 27 26  1  0  0  0  0
 28 27  2  0  0  0  0
 28 29  1  0  0  0  0
 29 24  2  0  0  0  0
 32 33  1  0  0  0  0
 33 28  1  0  0  0  0
 34 33  2  0  0  0  0
 34 35  1  0  0  0  0
 36 34  1  0  0  0  0
 37 36  1  0  0  0  0
 37 38  1  0  0  0  0
 39 37  1  0  0  0  0
 40 39  1  0  0  0  0
 41 39  2  0  0  0  0
 41 42  1  0  0  0  0
 42 43  1  0  0  0  0
 42 36  2  0  0  0  0
 43 32  2  0  0  0  0
M  END
>  <minimizedAffinity>
-6.82556105

>  <minimizedRMSD>
0.307850718

$$$$
