
 OpenBabel03262522053D

 43 47  0  0  1  0  0  0  0  0999 V2000
   37.7210   31.8080   49.6930 C   0  0  0  0  0  0  0  0  0  0  0  0
   36.7280   32.3240   50.2930 O   0  0  0  0  0  0  0  0  0  0  0  0
   34.4990   29.0760   48.7540 C   0  0  2  0  0  0  0  0  0  0  0  0
   35.1300   28.3580   49.8990 C   0  0  0  0  0  0  0  0  0  0  0  0
   36.2650   29.1380   50.3900 N   0  0  0  0  0  0  0  0  0  0  0  0
   37.2110   29.8760   51.1780 C   0  0  0  0  0  0  0  0  0  0  0  0
   37.4160   30.0740   52.3880 O   0  0  0  0  0  0  0  0  0  0  0  0
   37.9410   30.3860   50.0470 C   0  0  1  0  0  0  0  0  0  0  0  0
   37.1150   29.3730   49.2640 C   0  0  2  0  0  0  0  0  0  0  0  0
   35.9100   30.0700   48.1100 S   0  0  0  0  0  0  0  0  0  0  0  0
   34.4410   28.2460   50.7710 H   0  0  0  0  0  0  0  0  0  0  0  0
   35.4780   27.3430   49.5930 H   0  0  0  0  0  0  0  0  0  0  0  0
   38.9980   30.1350   49.8670 H   0  0  0  0  0  0  0  0  0  0  0  0
   37.6700   28.4980   48.8820 H   0  0  0  0  0  0  0  0  0  0  0  0
   33.2920   29.8970   49.0600 C   0  0  0  0  0  0  0  0  0  0  0  0
   32.9950   29.7180   50.1160 H   0  0  0  0  0  0  0  0  0  0  0  0
   33.4540   31.0000   48.9790 H   0  0  0  0  0  0  0  0  0  0  0  0
   32.4260   29.6380   48.3890 H   0  0  0  0  0  0  0  0  0  0  0  0
   34.2170   28.0520   47.6430 C   0  0  0  0  0  0  0  0  0  0  0  0
   34.8800   27.1870   47.6950 H   0  0  0  0  0  0  0  0  0  0  0  0
   33.1330   27.7790   47.7950 H   0  0  0  0  0  0  0  0  0  0  0  0
   34.2410   28.7140   46.4130 O   0  0  0  0  0  0  0  0  0  0  0  0
   34.8420   28.1560   45.8280 H   0  0  0  0  0  0  0  0  0  0  0  0
   38.5420   32.5340   48.7730 C   0  0  0  0  0  0  0  0  0  0  0  0
   39.1220   33.7070   49.2000 C   0  0  0  0  0  0  0  0  0  0  0  0
   39.9310   34.4190   48.2880 C   0  0  0  0  0  0  0  0  0  0  0  0
   40.0930   33.9030   47.0310 N   0  0  0  0  0  0  0  0  0  0  0  0
   39.5170   32.7700   46.6580 C   0  0  0  0  0  0  0  0  0  0  0  0
   38.7410   32.0740   47.5130 N   0  0  0  0  0  0  0  0  0  0  0  0
   38.9760   34.0920   50.2050 H   0  0  0  0  0  0  0  0  0  0  0  0
   40.4150   35.3470   48.5640 H   0  0  0  0  0  0  0  0  0  0  0  0
   40.5650   31.1860   45.0560 C   0  0  0  0  0  3  0  0  0  0  0  0
   39.7380   32.2840   45.2970 C   0  0  0  0  0  0  0  0  0  0  0  0
   39.0900   32.9670   44.2650 C   0  0  0  0  0  0  0  0  0  0  0  0
   38.4510   33.8180   44.4580 H   0  0  0  0  0  0  0  0  0  0  0  0
   39.2840   32.5260   42.9560 C   0  0  0  0  0  0  0  0  0  0  0  0
   38.7620   33.0330   41.8290 N   0  0  0  0  0  0  0  0  0  0  0  0
   38.1150   33.8440   41.6910 H   0  0  0  0  0  0  0  0  0  0  0  0
   39.2110   32.2990   40.7700 C   0  0  0  0  0  0  0  0  0  0  0  0
   39.0470   32.3530   39.7040 H   0  0  0  0  0  0  0  0  0  0  0  0
   40.0280   31.3260   41.3140 C   0  0  0  0  0  3  0  0  0  0  0  0
   40.0980   31.4390   42.6890 C   0  0  0  0  0  0  0  0  0  0  0  0
   40.7270   30.7810   43.7250 C   0  0  0  0  0  3  0  0  0  0  0  0
  1  8  1  0  0  0  0
  1  2  2  0  0  0  0
  3 19  1  6  0  0  0
  3 15  1  0  0  0  0
  3  4  1  0  0  0  0
  4  5  1  0  0  0  0
  4 11  1  0  0  0  0
  5  6  1  0  0  0  0
  6  7  2  0  0  0  0
  8 13  1  1  0  0  0
  8  6  1  0  0  0  0
  9 14  1  6  0  0  0
  9  8  1  0  0  0  0
  9  5  1  0  0  0  0
 10  3  1  0  0  0  0
 10  9  1  0  0  0  0
 12  4  1  0  0  0  0
 15 16  1  0  0  0  0
 17 15  1  0  0  0  0
 18 15  1  0  0  0  0
 19 20  1  0  0  0  0
 19 21  1  0  0  0  0
 22 19  1  0  0  0  0
 23 22  1  0  0  0  0
 24 25  1  0  0  0  0
 24  1  1  0  0  0  0
 25 30  1  0  0  0  0
 26 31  1  0  0  0  0
 26 25  2  0  0  0  0
 27 26  1  0  0  0  0
 28 27  2  0  0  0  0
 28 29  1  0  0  0  0
 29 24  2  0  0  0  0
 32 33  1  0  0  0  0
 33 28  1  0  0  0  0
 34 35  1  0  0  0  0
 34 33  2  0  0  0  0
 36 34  1  0  0  0  0
 37 36  1  0  0  0  0
 38 37  1  0  0  0  0
 39 41  2  0  0  0  0
 39 37  1  0  0  0  0
 40 39  1  0  0  0  0
 41 42  1  0  0  0  0
 42 36  2  0  0  0  0
 42 43  1  0  0  0  0
 43 32  2  0  0  0  0
M  END
>  <minimizedAffinity>
-6.52249908

>  <minimizedRMSD>
0.404302657

$$$$
