
 OpenBabel03262521083D

 48 51  0  0  1  0  0  0  0  0999 V2000
   37.5600   31.6410   45.4560 C   0  0  2  0  0  0  0  0  0  0  0  0
   38.5580   31.3180   44.4450 C   0  0  0  0  0  0  0  0  0  0  0  0
   39.8950   30.8800   45.0420 C   0  0  0  0  0  0  0  0  0  0  0  0
   40.4720   31.8940   45.9770 C   0  0  0  0  0  0  0  0  0  0  0  0
   39.4390   32.6320   46.7970 C   0  0  0  0  0  0  0  0  0  0  0  0
   38.1190   31.8630   46.8360 C   0  0  2  0  0  0  0  0  0  0  0  0
   37.0660   32.6150   45.1580 H   0  0  0  0  0  0  0  0  0  0  0  0
   38.8390   32.2310   43.8280 H   0  0  0  0  0  0  0  0  0  0  0  0
   38.3410   30.5540   43.6870 H   0  0  0  0  0  0  0  0  0  0  0  0
   40.5890   30.8380   44.1700 H   0  0  0  0  0  0  0  0  0  0  0  0
   39.8800   29.8530   45.4320 H   0  0  0  0  0  0  0  0  0  0  0  0
   41.1280   31.3410   46.7120 H   0  0  0  0  0  0  0  0  0  0  0  0
   41.1400   32.6380   45.4920 H   0  0  0  0  0  0  0  0  0  0  0  0
   39.7430   32.8110   47.8420 H   0  0  0  0  0  0  0  0  0  0  0  0
   39.2140   33.6020   46.3060 H   0  0  0  0  0  0  0  0  0  0  0  0
   37.4100   32.5460   47.3640 H   0  0  0  0  0  0  0  0  0  0  0  0
   36.4530   30.6880   45.5840 C   0  0  0  0  0  0  0  0  0  0  0  0
   36.2340   29.9020   44.4480 C   0  0  0  0  0  0  0  0  0  0  0  0
   35.2070   28.9740   44.5220 C   0  0  0  0  0  0  0  0  0  0  0  0
   34.4730   28.8700   45.6690 N   0  0  0  0  0  0  0  0  0  0  0  0
   34.7170   29.6470   46.7380 C   0  0  0  0  0  0  0  0  0  0  0  0
   35.6850   30.5130   46.6530 N   0  0  0  0  0  0  0  0  0  0  0  0
   36.6630   29.8230   43.4730 H   0  0  0  0  0  0  0  0  0  0  0  0
   34.8630   28.2800   43.7970 H   0  0  0  0  0  0  0  0  0  0  0  0
   34.1250   29.5560   47.6470 H   0  0  0  0  0  0  0  0  0  0  0  0
   38.3260   30.7670   47.6690 N   0  0  0  0  0  0  0  0  0  0  0  0
   39.2400   30.3020   47.6560 H   0  0  0  0  0  0  0  0  0  0  0  0
   37.7930   30.8760   49.2760 S   0  0  1  0  0  0  0  0  0  0  0  0
   39.0090   31.3870   50.0560 O   0  0  0  0  0  0  0  0  0  0  0  0
   39.4350   30.9140   50.8160 H   0  0  0  0  0  0  0  0  0  0  0  0
   36.6770   31.8020   49.4570 O   0  0  0  0  0  0  0  0  0  0  0  0
   36.8840   33.2760   51.1510 C   0  0  0  0  0  3  0  0  0  0  0  0
   36.1770   32.9450   49.9840 C   0  0  0  0  0  0  0  0  0  0  0  0
   35.1730   33.8250   49.6520 C   0  0  0  0  0  0  0  0  0  0  0  0
   34.6850   33.4830   48.7340 H   0  0  0  0  0  0  0  0  0  0  0  0
   34.8680   34.9400   50.3810 C   0  0  0  0  0  0  0  0  0  0  0  0
   33.9230   35.8620   50.1560 N   0  0  0  0  0  0  0  0  0  0  0  0
   33.2370   35.8990   49.3750 H   0  0  0  0  0  0  0  0  0  0  0  0
   34.0090   36.7720   51.1510 C   0  0  0  0  0  0  0  0  0  0  0  0
   33.4120   37.6700   51.3180 H   0  0  0  0  0  0  0  0  0  0  0  0
   35.0180   36.4180   52.0050 C   0  0  0  0  0  3  0  0  0  0  0  0
   35.5810   35.2510   51.5320 C   0  0  0  0  0  0  0  0  0  0  0  0
   36.6000   34.4000   51.9150 C   0  0  0  0  0  3  0  0  0  0  0  0
   37.4430   29.3730   49.9350 O   0  0  0  0  0  0  0  0  0  0  0  0
   37.2500   29.4250   51.3060 C   0  0  0  0  0  0  0  0  0  0  0  0
   37.8460   28.3380   51.8950 F   0  0  0  0  0  0  0  0  0  0  0  0
   37.9120   30.5270   51.7700 F   0  0  0  0  0  0  0  0  0  0  0  0
   35.9190   29.5750   51.6760 F   0  0  0  0  0  0  0  0  0  0  0  0
  1  7  1  6  0  0  0
  1 17  1  0  0  0  0
  1  6  1  0  0  0  0
  2  3  1  0  0  0  0
  2  1  1  0  0  0  0
  3 11  1  0  0  0  0
  3  4  1  0  0  0  0
  4 12  1  0  0  0  0
  4  5  1  0  0  0  0
  5  6  1  0  0  0  0
  5 14  1  0  0  0  0
  6 16  1  1  0  0  0
  6 26  1  0  0  0  0
  8  2  1  0  0  0  0
  9  2  1  0  0  0  0
 10  3  1  0  0  0  0
 13  4  1  0  0  0  0
 15  5  1  0  0  0  0
 17 22  1  0  0  0  0
 18 19  1  0  0  0  0
 18 17  2  0  0  0  0
 19 20  2  0  0  0  0
 20 21  1  0  0  0  0
 21 25  1  0  0  0  0
 22 21  2  0  0  0  0
 23 18  1  0  0  0  0
 24 19  1  0  0  0  0
 26 28  1  0  0  0  0
 27 26  1  0  0  0  0
 28 31  1  1  0  0  0
 28 44  1  0  0  0  0
 28 29  1  0  0  0  0
 29 30  1  0  0  0  0
 31 33  1  0  0  0  0
 32 43  1  0  0  0  0
 33 32  2  0  0  0  0
 34 33  1  0  0  0  0
 34 36  2  0  0  0  0
 35 34  1  0  0  0  0
 36 42  1  0  0  0  0
 37 36  1  0  0  0  0
 37 39  1  0  0  0  0
 38 37  1  0  0  0  0
 39 40  1  0  0  0  0
 39 41  2  0  0  0  0
 42 43  2  0  0  0  0
 42 41  1  0  0  0  0
 44 45  1  0  0  0  0
 45 48  1  0  0  0  0
 45 47  1  0  0  0  0
 45 46  1  0  0  0  0
M  END
>  <minimizedAffinity>
5.01320791

>  <minimizedRMSD>
1.03790176

$$$$
