
 OpenBabel03262521083D

 48 51  0  0  1  0  0  0  0  0999 V2000
   37.5600   31.6450   45.4570 C   0  0  2  0  0  0  0  0  0  0  0  0
   38.5580   31.3240   44.4460 C   0  0  0  0  0  0  0  0  0  0  0  0
   39.8960   30.8870   45.0420 C   0  0  0  0  0  0  0  0  0  0  0  0
   40.4730   31.9000   45.9770 C   0  0  0  0  0  0  0  0  0  0  0  0
   39.4390   32.6370   46.7980 C   0  0  0  0  0  0  0  0  0  0  0  0
   38.1200   31.8670   46.8370 C   0  0  2  0  0  0  0  0  0  0  0  0
   37.0650   32.6190   45.1600 H   0  0  0  0  0  0  0  0  0  0  0  0
   38.8390   32.2370   43.8290 H   0  0  0  0  0  0  0  0  0  0  0  0
   38.3420   30.5590   43.6870 H   0  0  0  0  0  0  0  0  0  0  0  0
   40.5900   30.8460   44.1690 H   0  0  0  0  0  0  0  0  0  0  0  0
   39.8820   29.8600   45.4310 H   0  0  0  0  0  0  0  0  0  0  0  0
   41.1290   31.3480   46.7120 H   0  0  0  0  0  0  0  0  0  0  0  0
   41.1390   32.6450   45.4930 H   0  0  0  0  0  0  0  0  0  0  0  0
   39.7430   32.8160   47.8430 H   0  0  0  0  0  0  0  0  0  0  0  0
   39.2140   33.6080   46.3070 H   0  0  0  0  0  0  0  0  0  0  0  0
   37.4110   32.5490   47.3660 H   0  0  0  0  0  0  0  0  0  0  0  0
   36.4540   30.6920   45.5840 C   0  0  0  0  0  0  0  0  0  0  0  0
   36.2360   29.9050   44.4490 C   0  0  0  0  0  0  0  0  0  0  0  0
   35.2100   28.9770   44.5220 C   0  0  0  0  0  0  0  0  0  0  0  0
   34.4760   28.8720   45.6690 N   0  0  0  0  0  0  0  0  0  0  0  0
   34.7200   29.6480   46.7390 C   0  0  0  0  0  0  0  0  0  0  0  0
   35.6870   30.5150   46.6540 N   0  0  0  0  0  0  0  0  0  0  0  0
   36.6650   29.8270   43.4730 H   0  0  0  0  0  0  0  0  0  0  0  0
   34.8660   28.2830   43.7970 H   0  0  0  0  0  0  0  0  0  0  0  0
   34.1280   29.5570   47.6480 H   0  0  0  0  0  0  0  0  0  0  0  0
   38.3280   30.7710   47.6690 N   0  0  0  0  0  0  0  0  0  0  0  0
   39.2420   30.3070   47.6560 H   0  0  0  0  0  0  0  0  0  0  0  0
   37.7950   30.8780   49.2760 S   0  0  1  0  0  0  0  0  0  0  0  0
   39.0100   31.3900   50.0570 O   0  0  0  0  0  0  0  0  0  0  0  0
   39.4360   30.9160   50.8160 H   0  0  0  0  0  0  0  0  0  0  0  0
   36.6780   31.8030   49.4580 O   0  0  0  0  0  0  0  0  0  0  0  0
   36.8850   33.2760   51.1520 C   0  0  0  0  0  3  0  0  0  0  0  0
   36.1780   32.9460   49.9850 C   0  0  0  0  0  0  0  0  0  0  0  0
   35.1750   33.8270   49.6520 C   0  0  0  0  0  0  0  0  0  0  0  0
   34.6860   33.4850   48.7340 H   0  0  0  0  0  0  0  0  0  0  0  0
   34.8690   34.9420   50.3800 C   0  0  0  0  0  0  0  0  0  0  0  0
   33.9230   35.8630   50.1560 N   0  0  0  0  0  0  0  0  0  0  0  0
   33.2370   35.9000   49.3750 H   0  0  0  0  0  0  0  0  0  0  0  0
   34.0090   36.7730   51.1510 C   0  0  0  0  0  0  0  0  0  0  0  0
   33.4120   37.6700   51.3180 H   0  0  0  0  0  0  0  0  0  0  0  0
   35.0170   36.4180   52.0050 C   0  0  0  0  0  3  0  0  0  0  0  0
   35.5800   35.2520   51.5340 C   0  0  0  0  0  0  0  0  0  0  0  0
   36.6000   34.4010   51.9160 C   0  0  0  0  0  3  0  0  0  0  0  0
   37.4460   29.3740   49.9340 O   0  0  0  0  0  0  0  0  0  0  0  0
   37.2500   29.4250   51.3050 C   0  0  0  0  0  0  0  0  0  0  0  0
   37.8450   28.3370   51.8930 F   0  0  0  0  0  0  0  0  0  0  0  0
   37.9120   30.5270   51.7710 F   0  0  0  0  0  0  0  0  0  0  0  0
   35.9190   29.5760   51.6730 F   0  0  0  0  0  0  0  0  0  0  0  0
  1  7  1  6  0  0  0
  1 17  1  0  0  0  0
  1  6  1  0  0  0  0
  2  3  1  0  0  0  0
  2  1  1  0  0  0  0
  3 11  1  0  0  0  0
  3  4  1  0  0  0  0
  4 12  1  0  0  0  0
  4  5  1  0  0  0  0
  5  6  1  0  0  0  0
  5 14  1  0  0  0  0
  6 16  1  1  0  0  0
  6 26  1  0  0  0  0
  8  2  1  0  0  0  0
  9  2  1  0  0  0  0
 10  3  1  0  0  0  0
 13  4  1  0  0  0  0
 15  5  1  0  0  0  0
 17 22  1  0  0  0  0
 18 19  1  0  0  0  0
 18 17  2  0  0  0  0
 19 20  2  0  0  0  0
 20 21  1  0  0  0  0
 21 25  1  0  0  0  0
 22 21  2  0  0  0  0
 23 18  1  0  0  0  0
 24 19  1  0  0  0  0
 26 28  1  0  0  0  0
 27 26  1  0  0  0  0
 28 31  1  1  0  0  0
 28 44  1  0  0  0  0
 28 29  1  0  0  0  0
 29 30  1  0  0  0  0
 31 33  1  0  0  0  0
 32 43  1  0  0  0  0
 33 32  2  0  0  0  0
 34 33  1  0  0  0  0
 34 36  2  0  0  0  0
 35 34  1  0  0  0  0
 36 42  1  0  0  0  0
 37 36  1  0  0  0  0
 37 39  1  0  0  0  0
 38 37  1  0  0  0  0
 39 40  1  0  0  0  0
 39 41  2  0  0  0  0
 42 43  2  0  0  0  0
 42 41  1  0  0  0  0
 44 45  1  0  0  0  0
 45 48  1  0  0  0  0
 45 47  1  0  0  0  0
 45 46  1  0  0  0  0
M  END
>  <minimizedAffinity>
5.01244545

>  <minimizedRMSD>
0.538073182

$$$$
