
 OpenBabel03262523573D

 31 34  0  0  0  0  0  0  0  0999 V2000
   34.0800   28.9710   48.3680 C   0  0  0  0  0  0  0  0  0  0  0  0
   34.8230   29.5500   47.3180 C   0  0  0  0  0  0  0  0  0  0  0  0
   34.4020   29.2670   46.0210 C   0  0  0  0  0  0  0  0  0  0  0  0
   33.3130   28.4560   45.8210 N   0  0  0  0  0  0  0  0  0  0  0  0
   32.6340   27.9230   46.8730 C   0  0  0  0  0  0  0  0  0  0  0  0
   33.0310   28.1910   48.1250 N   0  0  0  0  0  0  0  0  0  0  0  0
   34.4660   29.2360   49.3360 H   0  0  0  0  0  0  0  0  0  0  0  0
   34.8060   29.5920   45.0760 H   0  0  0  0  0  0  0  0  0  0  0  0
   36.8090   30.6650   46.3260 C   0  0  0  0  0  3  0  0  0  0  0  0
   35.9720   30.4080   47.3920 C   0  0  0  0  0  0  0  0  0  0  0  0
   36.2790   31.0270   48.5980 C   0  0  0  0  0  0  0  0  0  0  0  0
   35.6500   30.8580   49.4730 H   0  0  0  0  0  0  0  0  0  0  0  0
   37.3560   31.8680   48.7820 C   0  0  0  0  0  0  0  0  0  0  0  0
   37.8250   32.5530   49.8340 N   0  0  0  0  0  0  0  0  0  0  0  0
   37.4050   32.5630   50.7960 H   0  0  0  0  0  0  0  0  0  0  0  0
   38.9290   33.2210   49.4340 C   0  0  0  0  0  0  0  0  0  0  0  0
   39.5690   33.8830   50.0320 H   0  0  0  0  0  0  0  0  0  0  0  0
   39.1990   32.9780   48.0960 C   0  0  0  0  0  3  0  0  0  0  0  0
   38.1840   32.1160   47.7080 C   0  0  0  0  0  0  0  0  0  0  0  0
   37.8850   31.5090   46.5180 C   0  0  0  0  0  3  0  0  0  0  0  0
   33.3830   24.9570   46.1860 Br  0  0  0  0  0  0  0  0  0  0  0  0
   31.6390   25.7200   46.3680 C   0  0  0  0  0  0  0  0  0  0  0  0
   31.4790   27.0650   46.6780 C   0  0  0  0  0  0  0  0  0  0  0  0
   30.1920   27.5330   46.7900 C   0  0  0  0  0  0  0  0  0  0  0  0
   29.0700   26.7350   46.6090 C   0  0  0  0  0  0  0  0  0  0  0  0
   29.2660   25.4130   46.3040 C   0  0  0  0  0  0  0  0  0  0  0  0
   30.5650   24.9110   46.1840 C   0  0  0  0  0  0  0  0  0  0  0  0
   30.0110   28.5730   47.0300 H   0  0  0  0  0  0  0  0  0  0  0  0
   28.0650   27.0860   46.6920 H   0  0  0  0  0  0  0  0  0  0  0  0
   28.4510   24.7140   46.1450 H   0  0  0  0  0  0  0  0  0  0  0  0
   30.6920   23.8630   45.9430 H   0  0  0  0  0  0  0  0  0  0  0  0
  1  7  1  0  0  0  0
  2 10  1  0  0  0  0
  2  1  2  0  0  0  0
  3  2  1  0  0  0  0
  4  3  2  0  0  0  0
  4  5  1  0  0  0  0
  5  6  2  0  0  0  0
  6  1  1  0  0  0  0
  8  3  1  0  0  0  0
  9 20  2  0  0  0  0
  9 10  1  0  0  0  0
 10 11  2  0  0  0  0
 11 13  1  0  0  0  0
 11 12  1  0  0  0  0
 13 14  1  0  0  0  0
 14 15  1  0  0  0  0
 16 14  1  0  0  0  0
 16 17  1  0  0  0  0
 18 16  2  0  0  0  0
 19 18  1  0  0  0  0
 19 13  2  0  0  0  0
 20 19  1  0  0  0  0
 21 22  1  0  0  0  0
 22 23  1  0  0  0  0
 23 24  2  0  0  0  0
 23  5  1  0  0  0  0
 24 28  1  0  0  0  0
 25 29  1  0  0  0  0
 25 24  1  0  0  0  0
 26 25  2  0  0  0  0
 27 26  1  0  0  0  0
 27 22  2  0  0  0  0
 30 26  1  0  0  0  0
 31 27  1  0  0  0  0
M  END
>  <minimizedAffinity>
-5.14335155

>  <minimizedRMSD>
5.93392563

$$$$
