
 OpenBabel03272510163D

 31 34  0  0  0  0  0  0  0  0999 V2000
   37.4310   29.1900   50.8400 Br  0  0  0  0  0  0  0  0  0  0  0  0
   36.0250   29.2940   49.5370 C   0  0  0  0  0  0  0  0  0  0  0  0
   36.0200   30.2870   48.5820 C   0  0  0  0  0  0  0  0  0  0  0  0
   34.9740   30.2950   47.6780 C   0  0  0  0  0  0  0  0  0  0  0  0
   33.9500   29.3640   47.6940 C   0  0  0  0  0  0  0  0  0  0  0  0
   33.9910   28.3930   48.6560 C   0  0  0  0  0  0  0  0  0  0  0  0
   35.0270   28.3640   49.5710 C   0  0  0  0  0  0  0  0  0  0  0  0
   34.9290   31.0550   46.9130 H   0  0  0  0  0  0  0  0  0  0  0  0
   33.2230   27.6490   48.7100 H   0  0  0  0  0  0  0  0  0  0  0  0
   35.0100   27.5780   50.3110 H   0  0  0  0  0  0  0  0  0  0  0  0
   32.0580   28.3400   46.4160 C   0  0  0  0  0  3  0  0  0  0  0  0
   32.8750   29.4020   46.7370 C   0  0  0  0  0  0  0  0  0  0  0  0
   32.5890   30.5660   46.0530 C   0  0  0  0  0  0  0  0  0  0  0  0
   33.2170   31.4330   46.2800 H   0  0  0  0  0  0  0  0  0  0  0  0
   31.5970   30.7470   45.1150 C   0  0  0  0  0  0  0  0  0  0  0  0
   31.2090   31.8040   44.3820 N   0  0  0  0  0  0  0  0  0  0  0  0
   31.6690   32.7410   44.4350 H   0  0  0  0  0  0  0  0  0  0  0  0
   30.1620   31.3620   43.6270 C   0  0  0  0  0  0  0  0  0  0  0  0
   29.7070   32.0890   42.9580 H   0  0  0  0  0  0  0  0  0  0  0  0
   29.9110   30.0350   43.9020 C   0  0  0  0  0  3  0  0  0  0  0  0
   30.8180   29.6150   44.8530 C   0  0  0  0  0  0  0  0  0  0  0  0
   31.0380   28.4160   45.4930 C   0  0  0  0  0  3  0  0  0  0  0  0
   38.0210   33.2000   49.4820 C   0  0  0  0  0  0  0  0  0  0  0  0
   39.0460   33.2170   48.5110 C   0  0  0  0  0  0  0  0  0  0  0  0
   39.0320   32.2150   47.5520 C   0  0  0  0  0  0  0  0  0  0  0  0
   38.0480   31.2670   47.5800 N   0  0  0  0  0  0  0  0  0  0  0  0
   37.0780   31.2860   48.5320 C   0  0  0  0  0  0  0  0  0  0  0  0
   37.0750   32.2610   49.4820 N   0  0  0  0  0  0  0  0  0  0  0  0
   37.9820   33.9660   50.2640 H   0  0  0  0  0  0  0  0  0  0  0  0
   39.8040   33.9870   48.5280 H   0  0  0  0  0  0  0  0  0  0  0  0
   39.7900   32.1750   46.7820 H   0  0  0  0  0  0  0  0  0  0  0  0
  2  7  1  0  0  0  0
  2  1  1  0  0  0  0
  3  2  2  0  0  0  0
  4  5  2  0  0  0  0
  4  3  1  0  0  0  0
  5  6  1  0  0  0  0
  6  9  1  0  0  0  0
  6  7  2  0  0  0  0
  7 10  1  0  0  0  0
  8  4  1  0  0  0  0
 11 12  1  0  0  0  0
 12  5  1  0  0  0  0
 13 14  1  0  0  0  0
 13 12  2  0  0  0  0
 15 13  1  0  0  0  0
 16 17  1  0  0  0  0
 16 15  1  0  0  0  0
 18 20  2  0  0  0  0
 18 16  1  0  0  0  0
 19 18  1  0  0  0  0
 20 21  1  0  0  0  0
 21 15  2  0  0  0  0
 21 22  1  0  0  0  0
 22 11  2  0  0  0  0
 23 28  1  0  0  0  0
 23 29  1  0  0  0  0
 24 30  1  0  0  0  0
 24 23  2  0  0  0  0
 25 26  2  0  0  0  0
 25 24  1  0  0  0  0
 26 27  1  0  0  0  0
 27  3  1  0  0  0  0
 27 28  2  0  0  0  0
 31 25  1  0  0  0  0
M  END
>  <minimizedAffinity>
-6.1913085

>  <minimizedRMSD>
1.00724947

$$$$
