
 OpenBabel03262522083D

 43 47  0  0  1  0  0  0  0  0999 V2000
   38.7930   26.5120   32.9150 C   0  0  0  0  0  0  0  0  0  0  0  0
   39.8980   26.6920   32.3170 O   0  0  0  0  0  0  0  0  0  0  0  0
   38.7960   23.5690   36.0870 C   0  0  2  0  0  0  0  0  0  0  0  0
   38.1270   24.7060   36.7820 C   0  0  0  0  0  0  0  0  0  0  0  0
   38.0110   25.8340   35.8590 N   0  0  0  0  0  0  0  0  0  0  0  0
   37.5570   26.9200   35.0380 C   0  0  0  0  0  0  0  0  0  0  0  0
   36.5130   27.5850   34.9190 O   0  0  0  0  0  0  0  0  0  0  0  0
   38.7870   27.0390   34.3010 C   0  0  1  0  0  0  0  0  0  0  0  0
   39.3280   26.0970   35.3700 C   0  0  2  0  0  0  0  0  0  0  0  0
   39.7810   24.4420   34.7980 S   0  0  0  0  0  0  0  0  0  0  0  0
   37.0830   24.4660   37.0980 H   0  0  0  0  0  0  0  0  0  0  0  0
   38.7050   25.0200   37.6840 H   0  0  0  0  0  0  0  0  0  0  0  0
   39.4100   27.9460   34.3370 H   0  0  0  0  0  0  0  0  0  0  0  0
   40.0340   26.5480   36.0900 H   0  0  0  0  0  0  0  0  0  0  0  0
   37.9090   22.5070   35.5310 C   0  0  0  0  0  0  0  0  0  0  0  0
   36.8650   22.7040   35.8590 H   0  0  0  0  0  0  0  0  0  0  0  0
   37.8700   22.4790   34.4150 H   0  0  0  0  0  0  0  0  0  0  0  0
   38.2130   21.4800   35.8800 H   0  0  0  0  0  0  0  0  0  0  0  0
   39.8520   22.9800   37.0380 C   0  0  0  0  0  0  0  0  0  0  0  0
   40.4340   22.1840   36.5720 H   0  0  0  0  0  0  0  0  0  0  0  0
   40.4830   23.8700   37.3260 H   0  0  0  0  0  0  0  0  0  0  0  0
   39.2190   22.6030   38.2250 O   0  0  0  0  0  0  0  0  0  0  0  0
   39.5340   21.6630   38.4010 H   0  0  0  0  0  0  0  0  0  0  0  0
   37.6720   25.8620   32.3080 C   0  0  0  0  0  0  0  0  0  0  0  0
   36.7450   26.6370   31.6490 C   0  0  0  0  0  0  0  0  0  0  0  0
   35.6420   25.9890   31.0520 C   0  0  0  0  0  0  0  0  0  0  0  0
   35.5550   24.6280   31.1640 N   0  0  0  0  0  0  0  0  0  0  0  0
   36.4680   23.9180   31.8080 C   0  0  0  0  0  0  0  0  0  0  0  0
   37.5300   24.5150   32.3850 N   0  0  0  0  0  0  0  0  0  0  0  0
   36.8410   27.7160   31.5760 H   0  0  0  0  0  0  0  0  0  0  0  0
   34.8790   26.5430   30.5200 H   0  0  0  0  0  0  0  0  0  0  0  0
   35.0770   21.9040   32.2360 C   0  0  0  0  0  3  0  0  0  0  0  0
   36.3050   22.4660   31.8840 C   0  0  0  0  0  0  0  0  0  0  0  0
   37.4250   21.6850   31.5900 C   0  0  0  0  0  0  0  0  0  0  0  0
   38.3740   22.1280   31.3180 H   0  0  0  0  0  0  0  0  0  0  0  0
   37.2980   20.2970   31.6530 C   0  0  0  0  0  0  0  0  0  0  0  0
   38.2390   19.3710   31.4120 N   0  0  0  0  0  0  0  0  0  0  0  0
   39.2400   19.4850   31.1320 H   0  0  0  0  0  0  0  0  0  0  0  0
   37.6900   18.1350   31.5890 C   0  0  0  0  0  0  0  0  0  0  0  0
   38.0760   17.1290   31.5020 H   0  0  0  0  0  0  0  0  0  0  0  0
   36.3740   18.3620   31.9490 C   0  0  0  0  0  3  0  0  0  0  0  0
   36.0920   19.7110   31.9990 C   0  0  0  0  0  0  0  0  0  0  0  0
   35.0010   20.5050   32.2850 C   0  0  0  0  0  3  0  0  0  0  0  0
  1  8  1  0  0  0  0
  2  1  2  0  0  0  0
  3 15  1  6  0  0  0
  3  4  1  0  0  0  0
  3 19  1  0  0  0  0
  4 11  1  0  0  0  0
  4 12  1  0  0  0  0
  5  4  1  0  0  0  0
  6  5  1  0  0  0  0
  7  6  2  0  0  0  0
  8 13  1  1  0  0  0
  8  6  1  0  0  0  0
  8  9  1  0  0  0  0
  9  5  1  0  0  0  0
  9 14  1  1  0  0  0
 10  9  1  0  0  0  0
 10  3  1  0  0  0  0
 15 16  1  0  0  0  0
 15 18  1  0  0  0  0
 17 15  1  0  0  0  0
 19 21  1  0  0  0  0
 19 22  1  0  0  0  0
 20 19  1  0  0  0  0
 22 23  1  0  0  0  0
 24 29  1  0  0  0  0
 24  1  1  0  0  0  0
 25 24  2  0  0  0  0
 26 27  2  0  0  0  0
 26 25  1  0  0  0  0
 27 28  1  0  0  0  0
 28 33  1  0  0  0  0
 28 29  2  0  0  0  0
 30 25  1  0  0  0  0
 31 26  1  0  0  0  0
 32 43  1  0  0  0  0
 33 32  2  0  0  0  0
 34 36  2  0  0  0  0
 34 33  1  0  0  0  0
 35 34  1  0  0  0  0
 36 42  1  0  0  0  0
 37 39  1  0  0  0  0
 37 36  1  0  0  0  0
 38 37  1  0  0  0  0
 39 41  2  0  0  0  0
 40 39  1  0  0  0  0
 41 42  1  0  0  0  0
 42 43  2  0  0  0  0
M  END
>  <minimizedAffinity>
-6.65549278

$$$$

 OpenBabel03262522083D

 43 47  0  0  1  0  0  0  0  0999 V2000
   37.7130   26.2100   33.9030 C   0  0  0  0  0  0  0  0  0  0  0  0
   37.7220   25.0770   33.3310 O   0  0  0  0  0  0  0  0  0  0  0  0
   41.9790   26.0910   33.1870 C   0  0  2  0  0  0  0  0  0  0  0  0
   41.9250   25.5080   34.5580 C   0  0  0  0  0  0  0  0  0  0  0  0
   40.5320   25.4440   35.0000 N   0  0  0  0  0  0  0  0  0  0  0  0
   39.2420   25.0430   35.4840 C   0  0  0  0  0  0  0  0  0  0  0  0
   38.7590   24.0400   36.0390 O   0  0  0  0  0  0  0  0  0  0  0  0
   38.5830   26.2640   35.1020 C   0  0  1  0  0  0  0  0  0  0  0  0
   40.0030   26.7650   34.8690 C   0  0  2  0  0  0  0  0  0  0  0  0
   40.4400   27.1030   33.1470 S   0  0  0  0  0  0  0  0  0  0  0  0
   42.3020   24.4570   34.5960 H   0  0  0  0  0  0  0  0  0  0  0  0
   42.5170   26.1200   35.2790 H   0  0  0  0  0  0  0  0  0  0  0  0
   38.1270   26.9430   35.8400 H   0  0  0  0  0  0  0  0  0  0  0  0
   40.3710   27.5120   35.5950 H   0  0  0  0  0  0  0  0  0  0  0  0
   42.0800   25.1290   32.0520 C   0  0  0  0  0  0  0  0  0  0  0  0
   42.2270   24.1060   32.4610 H   0  0  0  0  0  0  0  0  0  0  0  0
   41.1610   25.0670   31.4190 H   0  0  0  0  0  0  0  0  0  0  0  0
   42.9400   25.3740   31.3680 H   0  0  0  0  0  0  0  0  0  0  0  0
   43.1160   27.1260   33.1510 C   0  0  0  0  0  0  0  0  0  0  0  0
   43.9750   26.7810   32.5740 H   0  0  0  0  0  0  0  0  0  0  0  0
   42.6330   28.0430   32.7060 H   0  0  0  0  0  0  0  0  0  0  0  0
   43.4220   27.4940   34.4630 O   0  0  0  0  0  0  0  0  0  0  0  0
   44.4230   27.4130   34.5300 H   0  0  0  0  0  0  0  0  0  0  0  0
   36.9360   27.3170   33.4350 C   0  0  0  0  0  0  0  0  0  0  0  0
   36.7180   27.4350   32.0810 C   0  0  0  0  0  0  0  0  0  0  0  0
   35.9510   28.5290   31.6250 C   0  0  0  0  0  0  0  0  0  0  0  0
   35.4680   29.4110   32.5550 N   0  0  0  0  0  0  0  0  0  0  0  0
   35.7010   29.2620   33.8500 C   0  0  0  0  0  0  0  0  0  0  0  0
   36.4310   28.2240   34.3070 N   0  0  0  0  0  0  0  0  0  0  0  0
   37.1130   26.7190   31.3670 H   0  0  0  0  0  0  0  0  0  0  0  0
   35.7440   28.6780   30.5730 H   0  0  0  0  0  0  0  0  0  0  0  0
   35.9940   31.0330   35.5670 C   0  0  0  0  0  3  0  0  0  0  0  0
   35.1510   30.2460   34.7810 C   0  0  0  0  0  0  0  0  0  0  0  0
   33.7600   30.3570   34.8390 C   0  0  0  0  0  0  0  0  0  0  0  0
   33.1130   29.7440   34.2260 H   0  0  0  0  0  0  0  0  0  0  0  0
   33.2080   31.2900   35.7170 C   0  0  0  0  0  0  0  0  0  0  0  0
   31.9090   31.5550   35.9290 N   0  0  0  0  0  0  0  0  0  0  0  0
   31.0560   31.1340   35.4930 H   0  0  0  0  0  0  0  0  0  0  0  0
   31.8120   32.5370   36.8710 C   0  0  0  0  0  0  0  0  0  0  0  0
   30.9780   33.0460   37.3320 H   0  0  0  0  0  0  0  0  0  0  0  0
   33.1140   32.8490   37.2170 C   0  0  0  0  0  3  0  0  0  0  0  0
   34.0190   32.0830   36.5100 C   0  0  0  0  0  0  0  0  0  0  0  0
   35.3900   31.9540   36.4330 C   0  0  0  0  0  3  0  0  0  0  0  0
  1  8  1  0  0  0  0
  2  1  2  0  0  0  0
  3 15  1  6  0  0  0
  3  4  1  0  0  0  0
  4 11  1  0  0  0  0
  4  5  1  0  0  0  0
  4 12  1  0  0  0  0
  5  6  1  0  0  0  0
  6  7  2  0  0  0  0
  8  6  1  0  0  0  0
  8 13  1  1  0  0  0
  9  5  1  0  0  0  0
  9  8  1  0  0  0  0
  9 14  1  1  0  0  0
 10  3  1  0  0  0  0
 10  9  1  0  0  0  0
 15 16  1  0  0  0  0
 17 15  1  0  0  0  0
 18 15  1  0  0  0  0
 19  3  1  0  0  0  0
 19 22  1  0  0  0  0
 20 19  1  0  0  0  0
 21 19  1  0  0  0  0
 22 23  1  0  0  0  0
 24  1  1  0  0  0  0
 24 29  1  0  0  0  0
 25 24  2  0  0  0  0
 26 25  1  0  0  0  0
 26 27  2  0  0  0  0
 27 28  1  0  0  0  0
 28 29  2  0  0  0  0
 28 33  1  0  0  0  0
 30 25  1  0  0  0  0
 31 26  1  0  0  0  0
 32 43  1  0  0  0  0
 33 34  1  0  0  0  0
 33 32  2  0  0  0  0
 34 36  2  0  0  0  0
 35 34  1  0  0  0  0
 36 37  1  0  0  0  0
 36 42  1  0  0  0  0
 37 39  1  0  0  0  0
 38 37  1  0  0  0  0
 39 41  2  0  0  0  0
 39 40  1  0  0  0  0
 42 41  1  0  0  0  0
 43 42  2  0  0  0  0
M  END
>  <minimizedAffinity>
-6.40444708

$$$$

 OpenBabel03262522083D

 43 47  0  0  1  0  0  0  0  0999 V2000
   34.1660   29.7150   32.5120 C   0  0  0  0  0  0  0  0  0  0  0  0
   33.0820   29.0980   32.7540 O   0  0  0  0  0  0  0  0  0  0  0  0
   33.0060   31.8080   36.1170 C   0  0  2  0  0  0  0  0  0  0  0  0
   32.4360   32.7220   35.0860 C   0  0  0  0  0  0  0  0  0  0  0  0
   32.7120   32.1800   33.7560 N   0  0  0  0  0  0  0  0  0  0  0  0
   32.6360   31.6760   32.4140 C   0  0  0  0  0  0  0  0  0  0  0  0
   31.7760   31.6300   31.5170 O   0  0  0  0  0  0  0  0  0  0  0  0
   33.9870   31.1810   32.3920 C   0  0  1  0  0  0  0  0  0  0  0  0
   34.1250   31.9740   33.6860 C   0  0  2  0  0  0  0  0  0  0  0  0
   34.3680   30.9890   35.1840 S   0  0  0  0  0  0  0  0  0  0  0  0
   31.3250   32.8080   35.1520 H   0  0  0  0  0  0  0  0  0  0  0  0
   32.8740   33.7450   35.1700 H   0  0  0  0  0  0  0  0  0  0  0  0
   34.7470   31.5750   31.6990 H   0  0  0  0  0  0  0  0  0  0  0  0
   34.7480   32.8840   33.6240 H   0  0  0  0  0  0  0  0  0  0  0  0
   32.0650   30.8420   36.7520 C   0  0  0  0  0  0  0  0  0  0  0  0
   31.0320   31.0720   36.4130 H   0  0  0  0  0  0  0  0  0  0  0  0
   32.2400   29.7750   36.4680 H   0  0  0  0  0  0  0  0  0  0  0  0
   32.1000   30.8980   37.8770 H   0  0  0  0  0  0  0  0  0  0  0  0
   33.7290   32.6650   37.1700 C   0  0  0  0  0  0  0  0  0  0  0  0
   33.8800   33.6930   36.8380 H   0  0  0  0  0  0  0  0  0  0  0  0
   33.0660   32.5950   38.0790 H   0  0  0  0  0  0  0  0  0  0  0  0
   34.9050   32.0100   37.5450 O   0  0  0  0  0  0  0  0  0  0  0  0
   35.6260   32.7090   37.4790 H   0  0  0  0  0  0  0  0  0  0  0  0
   35.4260   29.0540   32.3660 C   0  0  0  0  0  0  0  0  0  0  0  0
   36.1560   29.2840   31.2210 C   0  0  0  0  0  0  0  0  0  0  0  0
   37.3980   28.6290   31.0830 C   0  0  0  0  0  0  0  0  0  0  0  0
   37.8070   27.8010   32.0940 N   0  0  0  0  0  0  0  0  0  0  0  0
   37.0750   27.6050   33.1800 C   0  0  0  0  0  0  0  0  0  0  0  0
   35.8850   28.2210   33.3330 N   0  0  0  0  0  0  0  0  0  0  0  0
   35.8060   29.9470   30.4360 H   0  0  0  0  0  0  0  0  0  0  0  0
   38.0190   28.7690   30.2070 H   0  0  0  0  0  0  0  0  0  0  0  0
   37.9500   27.1950   35.4680 C   0  0  0  0  0  3  0  0  0  0  0  0
   37.5800   26.7050   34.2150 C   0  0  0  0  0  0  0  0  0  0  0  0
   37.6710   25.3500   33.8900 C   0  0  0  0  0  0  0  0  0  0  0  0
   37.3820   24.9770   32.9160 H   0  0  0  0  0  0  0  0  0  0  0  0
   38.1480   24.4680   34.8600 C   0  0  0  0  0  0  0  0  0  0  0  0
   38.3140   23.1400   34.7560 N   0  0  0  0  0  0  0  0  0  0  0  0
   38.1260   22.4970   33.9520 H   0  0  0  0  0  0  0  0  0  0  0  0
   38.8050   22.6680   35.9380 C   0  0  0  0  0  0  0  0  0  0  0  0
   39.0790   21.6840   36.2910 H   0  0  0  0  0  0  0  0  0  0  0  0
   38.9270   23.7750   36.7570 C   0  0  0  0  0  3  0  0  0  0  0  0
   38.5230   24.9250   36.1110 C   0  0  0  0  0  0  0  0  0  0  0  0
   38.4230   26.2690   36.4070 C   0  0  0  0  0  3  0  0  0  0  0  0
  1  2  2  0  0  0  0
  3 15  1  1  0  0  0
  3 19  1  0  0  0  0
  4 11  1  0  0  0  0
  4 12  1  0  0  0  0
  4  3  1  0  0  0  0
  5  4  1  0  0  0  0
  6  5  1  0  0  0  0
  7  6  2  0  0  0  0
  8 13  1  6  0  0  0
  8  6  1  0  0  0  0
  8  1  1  0  0  0  0
  8  9  1  0  0  0  0
  9 14  1  6  0  0  0
  9  5  1  0  0  0  0
  9 10  1  0  0  0  0
 10  3  1  0  0  0  0
 15 18  1  0  0  0  0
 16 15  1  0  0  0  0
 17 15  1  0  0  0  0
 19 22  1  0  0  0  0
 19 21  1  0  0  0  0
 20 19  1  0  0  0  0
 23 22  1  0  0  0  0
 24  1  1  0  0  0  0
 24 29  1  0  0  0  0
 25 24  2  0  0  0  0
 26 25  1  0  0  0  0
 26 27  2  0  0  0  0
 27 28  1  0  0  0  0
 28 29  2  0  0  0  0
 28 33  1  0  0  0  0
 30 25  1  0  0  0  0
 31 26  1  0  0  0  0
 32 43  1  0  0  0  0
 33 32  2  0  0  0  0
 34 33  1  0  0  0  0
 34 36  2  0  0  0  0
 35 34  1  0  0  0  0
 36 42  1  0  0  0  0
 37 36  1  0  0  0  0
 37 39  1  0  0  0  0
 38 37  1  0  0  0  0
 39 40  1  0  0  0  0
 39 41  2  0  0  0  0
 42 43  2  0  0  0  0
 42 41  1  0  0  0  0
M  END
>  <minimizedAffinity>
-6.2750144

$$$$

 OpenBabel03262522083D

 43 47  0  0  1  0  0  0  0  0999 V2000
   34.9660   30.4330   32.4650 C   0  0  0  0  0  0  0  0  0  0  0  0
   33.9580   30.7010   31.7400 O   0  0  0  0  0  0  0  0  0  0  0  0
   31.7600   30.5260   35.3700 C   0  0  2  0  0  0  0  0  0  0  0  0
   32.2980   31.9070   35.5270 C   0  0  0  0  0  0  0  0  0  0  0  0
   33.4140   32.0970   34.6010 N   0  0  0  0  0  0  0  0  0  0  0  0
   34.3200   32.5590   33.5870 C   0  0  0  0  0  0  0  0  0  0  0  0
   34.4470   33.5820   32.8910 O   0  0  0  0  0  0  0  0  0  0  0  0
   35.1340   31.3720   33.5990 C   0  0  1  0  0  0  0  0  0  0  0  0
   34.3410   31.0400   34.8580 C   0  0  2  0  0  0  0  0  0  0  0  0
   33.2300   29.6180   34.7300 S   0  0  0  0  0  0  0  0  0  0  0  0
   31.5510   32.6950   35.2640 H   0  0  0  0  0  0  0  0  0  0  0  0
   32.6470   32.0860   36.5720 H   0  0  0  0  0  0  0  0  0  0  0  0
   36.1950   31.3890   33.8920 H   0  0  0  0  0  0  0  0  0  0  0  0
   34.9030   31.1050   35.8070 H   0  0  0  0  0  0  0  0  0  0  0  0
   30.5520   30.3700   34.5100 C   0  0  0  0  0  0  0  0  0  0  0  0
   30.1820   31.3780   34.2260 H   0  0  0  0  0  0  0  0  0  0  0  0
   30.7410   29.8400   33.5450 H   0  0  0  0  0  0  0  0  0  0  0  0
   29.7270   29.8150   35.0400 H   0  0  0  0  0  0  0  0  0  0  0  0
   31.5320   29.9390   36.7730 C   0  0  0  0  0  0  0  0  0  0  0  0
   30.4740   29.8650   37.0270 H   0  0  0  0  0  0  0  0  0  0  0  0
   32.0400   28.9320   36.7320 H   0  0  0  0  0  0  0  0  0  0  0  0
   32.2880   30.6730   37.6900 O   0  0  0  0  0  0  0  0  0  0  0  0
   31.6470   30.9030   38.4320 H   0  0  0  0  0  0  0  0  0  0  0  0
   35.8470   29.3360   32.2050 C   0  0  0  0  0  0  0  0  0  0  0  0
   36.2440   29.1110   30.9060 C   0  0  0  0  0  0  0  0  0  0  0  0
   37.1140   28.0280   30.6560 C   0  0  0  0  0  0  0  0  0  0  0  0
   37.5130   27.2620   31.7180 N   0  0  0  0  0  0  0  0  0  0  0  0
   37.1080   27.5120   32.9540 C   0  0  0  0  0  0  0  0  0  0  0  0
   36.2780   28.5410   33.2160 N   0  0  0  0  0  0  0  0  0  0  0  0
   35.9110   29.7370   30.0840 H   0  0  0  0  0  0  0  0  0  0  0  0
   37.4610   27.7990   29.6560 H   0  0  0  0  0  0  0  0  0  0  0  0
   37.8500   27.1710   35.3000 C   0  0  0  0  0  3  0  0  0  0  0  0
   37.5790   26.6480   34.0350 C   0  0  0  0  0  0  0  0  0  0  0  0
   37.7390   25.2910   33.7400 C   0  0  0  0  0  0  0  0  0  0  0  0
   37.5270   24.8930   32.7580 H   0  0  0  0  0  0  0  0  0  0  0  0
   38.1850   24.4430   34.7540 C   0  0  0  0  0  0  0  0  0  0  0  0
   38.4060   23.1210   34.6850 N   0  0  0  0  0  0  0  0  0  0  0  0
   38.2930   22.4600   33.8820 H   0  0  0  0  0  0  0  0  0  0  0  0
   38.8370   22.6860   35.9040 C   0  0  0  0  0  0  0  0  0  0  0  0
   39.1240   21.7190   36.2910 H   0  0  0  0  0  0  0  0  0  0  0  0
   38.8660   23.8100   36.7090 C   0  0  0  0  0  3  0  0  0  0  0  0
   38.4630   24.9340   36.0180 C   0  0  0  0  0  0  0  0  0  0  0  0
   38.2960   26.2780   36.2830 C   0  0  0  0  0  3  0  0  0  0  0  0
  1  8  1  0  0  0  0
  2  1  2  0  0  0  0
  3 15  1  6  0  0  0
  3  4  1  0  0  0  0
  3 19  1  0  0  0  0
  4 12  1  0  0  0  0
  5  9  1  0  0  0  0
  5  4  1  0  0  0  0
  6  8  1  0  0  0  0
  6  5  1  0  0  0  0
  7  6  2  0  0  0  0
  8 13  1  1  0  0  0
  8  9  1  0  0  0  0
  9 14  1  1  0  0  0
 10  9  1  0  0  0  0
 10  3  1  0  0  0  0
 11  4  1  0  0  0  0
 15 18  1  0  0  0  0
 16 15  1  0  0  0  0
 17 15  1  0  0  0  0
 19 20  1  0  0  0  0
 19 22  1  0  0  0  0
 21 19  1  0  0  0  0
 22 23  1  0  0  0  0
 24  1  1  0  0  0  0
 24 29  1  0  0  0  0
 25 24  2  0  0  0  0
 26 25  1  0  0  0  0
 26 27  2  0  0  0  0
 27 28  1  0  0  0  0
 28 29  2  0  0  0  0
 28 33  1  0  0  0  0
 30 25  1  0  0  0  0
 31 26  1  0  0  0  0
 32 43  1  0  0  0  0
 33 32  2  0  0  0  0
 34 33  1  0  0  0  0
 34 36  2  0  0  0  0
 35 34  1  0  0  0  0
 36 42  1  0  0  0  0
 37 36  1  0  0  0  0
 37 39  1  0  0  0  0
 38 37  1  0  0  0  0
 39 40  1  0  0  0  0
 39 41  2  0  0  0  0
 42 43  2  0  0  0  0
 42 41  1  0  0  0  0
M  END
>  <minimizedAffinity>
-5.97989702

$$$$

 OpenBabel03262522083D

 43 47  0  0  1  0  0  0  0  0999 V2000
   36.7860   26.8820   31.0610 C   0  0  0  0  0  0  0  0  0  0  0  0
   35.8950   25.9930   30.8940 O   0  0  0  0  0  0  0  0  0  0  0  0
   38.6860   26.3150   34.9070 C   0  0  2  0  0  0  0  0  0  0  0  0
   39.8870   26.5130   34.0450 C   0  0  0  0  0  0  0  0  0  0  0  0
   39.4580   26.7410   32.6660 N   0  0  0  0  0  0  0  0  0  0  0  0
   39.2310   27.2540   31.3450 C   0  0  0  0  0  0  0  0  0  0  0  0
   39.7140   28.1510   30.6310 O   0  0  0  0  0  0  0  0  0  0  0  0
   38.1640   26.3380   31.0390 C   0  0  1  0  0  0  0  0  0  0  0  0
   38.6200   25.6370   32.3130 C   0  0  2  0  0  0  0  0  0  0  0  0
   37.4510   25.6840   33.6930 S   0  0  0  0  0  0  0  0  0  0  0  0
   40.4780   27.4170   34.3300 H   0  0  0  0  0  0  0  0  0  0  0  0
   40.5600   25.6250   34.0850 H   0  0  0  0  0  0  0  0  0  0  0  0
   38.2390   25.5960   30.2290 H   0  0  0  0  0  0  0  0  0  0  0  0
   39.1280   24.6670   32.1690 H   0  0  0  0  0  0  0  0  0  0  0  0
   38.2050   27.5010   35.6720 C   0  0  0  0  0  0  0  0  0  0  0  0
   38.9390   28.3270   35.5500 H   0  0  0  0  0  0  0  0  0  0  0  0
   37.2300   27.9140   35.3160 H   0  0  0  0  0  0  0  0  0  0  0  0
   38.0900   27.2740   36.7690 H   0  0  0  0  0  0  0  0  0  0  0  0
   38.9530   25.1170   35.8330 C   0  0  0  0  0  0  0  0  0  0  0  0
   39.1190   24.1910   35.2800 H   0  0  0  0  0  0  0  0  0  0  0  0
   39.8560   25.4330   36.4310 H   0  0  0  0  0  0  0  0  0  0  0  0
   37.9210   25.0420   36.7710 O   0  0  0  0  0  0  0  0  0  0  0  0
   37.6200   24.0810   36.7520 H   0  0  0  0  0  0  0  0  0  0  0  0
   36.4820   28.2670   31.2540 C   0  0  0  0  0  0  0  0  0  0  0  0
   36.6770   29.1320   30.2010 C   0  0  0  0  0  0  0  0  0  0  0  0
   36.3760   30.4970   30.3990 C   0  0  0  0  0  0  0  0  0  0  0  0
   35.9070   30.8830   31.6250 N   0  0  0  0  0  0  0  0  0  0  0  0
   35.7330   30.0190   32.6130 C   0  0  0  0  0  0  0  0  0  0  0  0
   36.0140   28.7110   32.4470 N   0  0  0  0  0  0  0  0  0  0  0  0
   37.0500   28.7960   29.2390 H   0  0  0  0  0  0  0  0  0  0  0  0
   36.5080   31.2260   29.6100 H   0  0  0  0  0  0  0  0  0  0  0  0
   36.0750   31.1640   34.7920 C   0  0  0  0  0  3  0  0  0  0  0  0
   35.2290   30.5100   33.8950 C   0  0  0  0  0  0  0  0  0  0  0  0
   33.8760   30.2940   34.1700 C   0  0  0  0  0  0  0  0  0  0  0  0
   33.2260   29.7870   33.4700 H   0  0  0  0  0  0  0  0  0  0  0  0
   33.3670   30.7530   35.3850 C   0  0  0  0  0  0  0  0  0  0  0  0
   32.1100   30.6510   35.8440 N   0  0  0  0  0  0  0  0  0  0  0  0
   31.2650   30.2190   35.4040 H   0  0  0  0  0  0  0  0  0  0  0  0
   32.0460   31.2320   37.0760 C   0  0  0  0  0  0  0  0  0  0  0  0
   31.2490   31.3750   37.7920 H   0  0  0  0  0  0  0  0  0  0  0  0
   33.3250   31.6890   37.3370 C   0  0  0  0  0  3  0  0  0  0  0  0
   34.1830   31.4050   36.2940 C   0  0  0  0  0  0  0  0  0  0  0  0
   35.5150   31.6050   35.9980 C   0  0  0  0  0  3  0  0  0  0  0  0
  1 24  1  0  0  0  0
  2  1  2  0  0  0  0
  3 15  1  1  0  0  0
  3 19  1  0  0  0  0
  4 12  1  0  0  0  0
  4 11  1  0  0  0  0
  4  3  1  0  0  0  0
  5  4  1  0  0  0  0
  6  5  1  0  0  0  0
  7  6  2  0  0  0  0
  8 13  1  6  0  0  0
  8  1  1  0  0  0  0
  8  6  1  0  0  0  0
  8  9  1  0  0  0  0
  9 14  1  6  0  0  0
  9  5  1  0  0  0  0
  9 10  1  0  0  0  0
 10  3  1  0  0  0  0
 15 18  1  0  0  0  0
 16 15  1  0  0  0  0
 17 15  1  0  0  0  0
 19 21  1  0  0  0  0
 19 22  1  0  0  0  0
 20 19  1  0  0  0  0
 23 22  1  0  0  0  0
 24 29  1  0  0  0  0
 25 26  1  0  0  0  0
 25 24  2  0  0  0  0
 26 27  2  0  0  0  0
 27 28  1  0  0  0  0
 28 33  1  0  0  0  0
 29 28  2  0  0  0  0
 30 25  1  0  0  0  0
 31 26  1  0  0  0  0
 32 43  1  0  0  0  0
 33 34  1  0  0  0  0
 33 32  2  0  0  0  0
 34 36  2  0  0  0  0
 35 34  1  0  0  0  0
 36 37  1  0  0  0  0
 36 42  1  0  0  0  0
 37 39  1  0  0  0  0
 38 37  1  0  0  0  0
 39 41  2  0  0  0  0
 39 40  1  0  0  0  0
 42 41  1  0  0  0  0
 43 42  2  0  0  0  0
M  END
>  <minimizedAffinity>
-5.96439314

$$$$

 OpenBabel03262522083D

 43 47  0  0  1  0  0  0  0  0999 V2000
   39.0800   26.1220   35.2460 C   0  0  0  0  0  0  0  0  0  0  0  0
   38.5960   26.9430   36.0860 O   0  0  0  0  0  0  0  0  0  0  0  0
   36.7040   25.8260   31.6420 C   0  0  2  0  0  0  0  0  0  0  0  0
   38.0640   25.9770   31.0500 C   0  0  0  0  0  0  0  0  0  0  0  0
   39.0480   26.0840   32.1260 N   0  0  0  0  0  0  0  0  0  0  0  0
   40.1640   25.9210   33.0140 C   0  0  0  0  0  0  0  0  0  0  0  0
   41.2390   25.2950   33.0060 O   0  0  0  0  0  0  0  0  0  0  0  0
   39.6320   26.7810   34.0390 C   0  0  1  0  0  0  0  0  0  0  0  0
   38.6170   27.1580   32.9670 C   0  0  2  0  0  0  0  0  0  0  0  0
   36.9150   26.6360   33.2830 S   0  0  0  0  0  0  0  0  0  0  0  0
   38.3730   25.0900   30.4460 H   0  0  0  0  0  0  0  0  0  0  0  0
   38.1210   26.8830   30.4010 H   0  0  0  0  0  0  0  0  0  0  0  0
   40.1310   27.7140   34.3410 H   0  0  0  0  0  0  0  0  0  0  0  0
   38.7200   28.1750   32.5490 H   0  0  0  0  0  0  0  0  0  0  0  0
   36.1630   24.4400   31.7350 C   0  0  0  0  0  0  0  0  0  0  0  0
   36.8560   23.7480   31.2090 H   0  0  0  0  0  0  0  0  0  0  0  0
   36.0850   24.0460   32.7780 H   0  0  0  0  0  0  0  0  0  0  0  0
   35.1410   24.3550   31.2700 H   0  0  0  0  0  0  0  0  0  0  0  0
   35.7440   26.7550   30.8800 C   0  0  0  0  0  0  0  0  0  0  0  0
   34.8690   26.2280   30.4980 H   0  0  0  0  0  0  0  0  0  0  0  0
   35.4780   27.5490   31.6360 H   0  0  0  0  0  0  0  0  0  0  0  0
   36.4700   27.4370   29.9010 O   0  0  0  0  0  0  0  0  0  0  0  0
   35.9370   27.3240   29.0540 H   0  0  0  0  0  0  0  0  0  0  0  0
   39.0820   24.7060   35.4500 C   0  0  0  0  0  0  0  0  0  0  0  0
   39.8960   24.1890   36.4330 C   0  0  0  0  0  0  0  0  0  0  0  0
   39.8940   22.7910   36.6290 C   0  0  0  0  0  0  0  0  0  0  0  0
   39.0850   22.0290   35.8310 N   0  0  0  0  0  0  0  0  0  0  0  0
   38.3160   22.5650   34.8950 C   0  0  0  0  0  0  0  0  0  0  0  0
   38.3020   23.8980   34.6910 N   0  0  0  0  0  0  0  0  0  0  0  0
   40.5270   24.8190   37.0510 H   0  0  0  0  0  0  0  0  0  0  0  0
   40.5120   22.3240   37.3850 H   0  0  0  0  0  0  0  0  0  0  0  0
   36.2710   21.1900   34.5780 C   0  0  0  0  0  3  0  0  0  0  0  0
   37.4790   21.6830   34.0830 C   0  0  0  0  0  0  0  0  0  0  0  0
   37.9440   21.3670   32.8040 C   0  0  0  0  0  0  0  0  0  0  0  0
   38.8820   21.7530   32.4270 H   0  0  0  0  0  0  0  0  0  0  0  0
   37.1650   20.5290   32.0060 C   0  0  0  0  0  0  0  0  0  0  0  0
   37.4240   20.1020   30.7600 N   0  0  0  0  0  0  0  0  0  0  0  0
   38.2390   20.3010   30.1350 H   0  0  0  0  0  0  0  0  0  0  0  0
   36.4000   19.2980   30.3520 C   0  0  0  0  0  0  0  0  0  0  0  0
   36.1980   18.7540   29.4410 H   0  0  0  0  0  0  0  0  0  0  0  0
   35.5130   19.2610   31.4130 C   0  0  0  0  0  3  0  0  0  0  0  0
   35.9630   20.0240   32.4710 C   0  0  0  0  0  0  0  0  0  0  0  0
   35.5260   20.3520   33.7380 C   0  0  0  0  0  3  0  0  0  0  0  0
  1 24  1  0  0  0  0
  1  2  2  0  0  0  0
  3 19  1  6  0  0  0
  3 15  1  0  0  0  0
  3 10  1  0  0  0  0
  4  3  1  0  0  0  0
  4  5  1  0  0  0  0
  5  9  1  0  0  0  0
  5  6  1  0  0  0  0
  6  8  1  0  0  0  0
  7  6  2  0  0  0  0
  8 13  1  1  0  0  0
  8  1  1  0  0  0  0
  9 14  1  6  0  0  0
  9 10  1  0  0  0  0
  9  8  1  0  0  0  0
 11  4  1  0  0  0  0
 12  4  1  0  0  0  0
 15 17  1  0  0  0  0
 16 15  1  0  0  0  0
 18 15  1  0  0  0  0
 19 21  1  0  0  0  0
 20 19  1  0  0  0  0
 22 19  1  0  0  0  0
 23 22  1  0  0  0  0
 24 25  1  0  0  0  0
 25 26  2  0  0  0  0
 25 30  1  0  0  0  0
 26 31  1  0  0  0  0
 27 26  1  0  0  0  0
 28 27  2  0  0  0  0
 29 28  1  0  0  0  0
 29 24  2  0  0  0  0
 33 32  1  0  0  0  0
 33 28  1  0  0  0  0
 34 33  2  0  0  0  0
 35 34  1  0  0  0  0
 36 42  2  0  0  0  0
 36 34  1  0  0  0  0
 37 36  1  0  0  0  0
 38 37  1  0  0  0  0
 39 37  1  0  0  0  0
 39 41  2  0  0  0  0
 40 39  1  0  0  0  0
 41 42  1  0  0  0  0
 42 43  1  0  0  0  0
 43 32  2  0  0  0  0
M  END
>  <minimizedAffinity>
-5.93896484

$$$$

 OpenBabel03262522083D

 43 47  0  0  1  0  0  0  0  0999 V2000
   40.3460   25.8830   34.0130 C   0  0  0  0  0  0  0  0  0  0  0  0
   40.7680   26.6060   34.9680 O   0  0  0  0  0  0  0  0  0  0  0  0
   38.2630   23.5950   37.0380 C   0  0  2  0  0  0  0  0  0  0  0  0
   39.5470   22.8410   36.9740 C   0  0  0  0  0  0  0  0  0  0  0  0
   40.4280   23.4720   35.9920 N   0  0  0  0  0  0  0  0  0  0  0  0
   41.5160   24.1010   35.2980 C   0  0  0  0  0  0  0  0  0  0  0  0
   42.7210   24.3150   35.5180 O   0  0  0  0  0  0  0  0  0  0  0  0
   40.7350   24.4590   34.1440 C   0  0  1  0  0  0  0  0  0  0  0  0
   39.6900   23.5420   34.7690 C   0  0  2  0  0  0  0  0  0  0  0  0
   38.1880   24.3560   35.3620 S   0  0  0  0  0  0  0  0  0  0  0  0
   40.1090   22.8600   37.9390 H   0  0  0  0  0  0  0  0  0  0  0  0
   39.3730   21.7760   36.6890 H   0  0  0  0  0  0  0  0  0  0  0  0
   40.9470   24.0560   33.1410 H   0  0  0  0  0  0  0  0  0  0  0  0
   39.5220   22.5840   34.2460 H   0  0  0  0  0  0  0  0  0  0  0  0
   38.1220   24.5880   38.1420 C   0  0  0  0  0  0  0  0  0  0  0  0
   38.9960   24.4940   38.8220 H   0  0  0  0  0  0  0  0  0  0  0  0
   38.1220   25.6540   37.8040 H   0  0  0  0  0  0  0  0  0  0  0  0
   37.1790   24.4270   38.7350 H   0  0  0  0  0  0  0  0  0  0  0  0
   37.1090   22.5780   37.0450 C   0  0  0  0  0  0  0  0  0  0  0  0
   36.8720   22.2240   38.0490 H   0  0  0  0  0  0  0  0  0  0  0  0
   36.2530   23.1360   36.5670 H   0  0  0  0  0  0  0  0  0  0  0  0
   37.4110   21.5590   36.1390 O   0  0  0  0  0  0  0  0  0  0  0  0
   37.2570   20.7030   36.6470 H   0  0  0  0  0  0  0  0  0  0  0  0
   39.5770   26.4000   32.9220 C   0  0  0  0  0  0  0  0  0  0  0  0
   39.9340   26.0390   31.6430 C   0  0  0  0  0  0  0  0  0  0  0  0
   39.1710   26.5520   30.5710 C   0  0  0  0  0  0  0  0  0  0  0  0
   38.1210   27.3800   30.8650 N   0  0  0  0  0  0  0  0  0  0  0  0
   37.8110   27.7040   32.1100 C   0  0  0  0  0  0  0  0  0  0  0  0
   38.5250   27.2250   33.1490 N   0  0  0  0  0  0  0  0  0  0  0  0
   40.7720   25.3800   31.4410 H   0  0  0  0  0  0  0  0  0  0  0  0
   39.4020   26.3050   29.5420 H   0  0  0  0  0  0  0  0  0  0  0  0
   36.0410   28.6340   33.5850 C   0  0  0  0  0  3  0  0  0  0  0  0
   36.6740   28.5940   32.3420 C   0  0  0  0  0  0  0  0  0  0  0  0
   36.2630   29.3910   31.2710 C   0  0  0  0  0  0  0  0  0  0  0  0
   36.7590   29.3550   30.3110 H   0  0  0  0  0  0  0  0  0  0  0  0
   35.1820   30.2520   31.4640 C   0  0  0  0  0  0  0  0  0  0  0  0
   34.6300   31.0950   30.5780 N   0  0  0  0  0  0  0  0  0  0  0  0
   34.8840   31.2850   29.5800 H   0  0  0  0  0  0  0  0  0  0  0  0
   33.5950   31.7470   31.1810 C   0  0  0  0  0  0  0  0  0  0  0  0
   32.8910   32.4960   30.8470 H   0  0  0  0  0  0  0  0  0  0  0  0
   33.5500   31.2550   32.4720 C   0  0  0  0  0  3  0  0  0  0  0  0
   34.5340   30.3120   32.6860 C   0  0  0  0  0  0  0  0  0  0  0  0
   34.9600   29.5150   33.7280 C   0  0  0  0  0  3  0  0  0  0  0  0
  1  8  1  0  0  0  0
  1  2  2  0  0  0  0
  3 19  1  1  0  0  0
  3 15  1  0  0  0  0
  4  3  1  0  0  0  0
  4 11  1  0  0  0  0
  5  4  1  0  0  0  0
  6  7  2  0  0  0  0
  6  5  1  0  0  0  0
  8 13  1  6  0  0  0
  8  9  1  0  0  0  0
  8  6  1  0  0  0  0
  9 14  1  6  0  0  0
  9 10  1  0  0  0  0
  9  5  1  0  0  0  0
 10  3  1  0  0  0  0
 12  4  1  0  0  0  0
 15 18  1  0  0  0  0
 15 16  1  0  0  0  0
 17 15  1  0  0  0  0
 19 20  1  0  0  0  0
 21 19  1  0  0  0  0
 22 23  1  0  0  0  0
 22 19  1  0  0  0  0
 24 29  1  0  0  0  0
 24  1  1  0  0  0  0
 25 24  2  0  0  0  0
 26 27  2  0  0  0  0
 26 25  1  0  0  0  0
 27 28  1  0  0  0  0
 28 33  1  0  0  0  0
 28 29  2  0  0  0  0
 30 25  1  0  0  0  0
 31 26  1  0  0  0  0
 32 43  1  0  0  0  0
 33 32  2  0  0  0  0
 34 36  2  0  0  0  0
 34 33  1  0  0  0  0
 35 34  1  0  0  0  0
 36 42  1  0  0  0  0
 37 39  1  0  0  0  0
 37 36  1  0  0  0  0
 38 37  1  0  0  0  0
 39 41  2  0  0  0  0
 40 39  1  0  0  0  0
 41 42  1  0  0  0  0
 42 43  2  0  0  0  0
M  END
>  <minimizedAffinity>
-5.93372631

$$$$

 OpenBabel03262522083D

 43 47  0  0  1  0  0  0  0  0999 V2000
   38.0570   26.0000   33.6450 C   0  0  0  0  0  0  0  0  0  0  0  0
   37.7940   25.4340   34.7510 O   0  0  0  0  0  0  0  0  0  0  0  0
   37.3410   21.8760   32.5480 C   0  0  2  0  0  0  0  0  0  0  0  0
   38.8310   21.8800   32.6020 C   0  0  0  0  0  0  0  0  0  0  0  0
   39.2950   23.2150   32.9780 N   0  0  0  0  0  0  0  0  0  0  0  0
   39.9190   24.3480   33.6000 C   0  0  0  0  0  0  0  0  0  0  0  0
   40.8090   24.5340   34.4480 O   0  0  0  0  0  0  0  0  0  0  0  0
   39.1370   25.3240   32.8880 C   0  0  1  0  0  0  0  0  0  0  0  0
   38.7080   24.1270   32.0470 C   0  0  2  0  0  0  0  0  0  0  0  0
   36.9710   23.6470   32.1990 S   0  0  0  0  0  0  0  0  0  0  0  0
   39.2370   21.1890   33.3790 H   0  0  0  0  0  0  0  0  0  0  0  0
   39.2690   21.5970   31.6150 H   0  0  0  0  0  0  0  0  0  0  0  0
   39.5900   26.0490   32.1940 H   0  0  0  0  0  0  0  0  0  0  0  0
   39.1090   24.0980   31.0180 H   0  0  0  0  0  0  0  0  0  0  0  0
   36.6270   21.3510   33.7470 C   0  0  0  0  0  0  0  0  0  0  0  0
   37.3740   20.9240   34.4500 H   0  0  0  0  0  0  0  0  0  0  0  0
   36.0790   22.1290   34.3320 H   0  0  0  0  0  0  0  0  0  0  0  0
   35.8820   20.5510   33.4760 H   0  0  0  0  0  0  0  0  0  0  0  0
   36.9100   21.1390   31.2680 C   0  0  0  0  0  0  0  0  0  0  0  0
   37.6690   21.1830   30.4870 H   0  0  0  0  0  0  0  0  0  0  0  0
   36.7060   20.0860   31.6180 H   0  0  0  0  0  0  0  0  0  0  0  0
   35.6600   21.6250   30.8760 O   0  0  0  0  0  0  0  0  0  0  0  0
   35.7590   21.8390   29.8970 H   0  0  0  0  0  0  0  0  0  0  0  0
   37.3790   27.1730   33.1860 C   0  0  0  0  0  0  0  0  0  0  0  0
   37.5520   27.5570   31.8750 C   0  0  0  0  0  0  0  0  0  0  0  0
   36.8800   28.7150   31.4280 C   0  0  0  0  0  0  0  0  0  0  0  0
   36.0950   29.3910   32.3230 N   0  0  0  0  0  0  0  0  0  0  0  0
   35.9550   28.9890   33.5760 C   0  0  0  0  0  0  0  0  0  0  0  0
   36.5870   27.8860   34.0250 N   0  0  0  0  0  0  0  0  0  0  0  0
   38.1810   26.9990   31.1880 H   0  0  0  0  0  0  0  0  0  0  0  0
   36.9760   29.0680   30.4090 H   0  0  0  0  0  0  0  0  0  0  0  0
   33.7370   29.4810   34.5830 C   0  0  0  0  0  3  0  0  0  0  0  0
   35.0990   29.7660   34.4710 C   0  0  0  0  0  0  0  0  0  0  0  0
   35.7060   30.7920   35.1990 C   0  0  0  0  0  0  0  0  0  0  0  0
   36.7620   31.0080   35.1080 H   0  0  0  0  0  0  0  0  0  0  0  0
   34.9130   31.5490   36.0630 C   0  0  0  0  0  0  0  0  0  0  0  0
   35.2910   32.5710   36.8460 N   0  0  0  0  0  0  0  0  0  0  0  0
   36.2330   33.0080   36.9770 H   0  0  0  0  0  0  0  0  0  0  0  0
   34.2000   33.0260   37.5270 C   0  0  0  0  0  0  0  0  0  0  0  0
   34.0490   33.8150   38.2490 H   0  0  0  0  0  0  0  0  0  0  0  0
   33.1480   32.2300   37.1140 C   0  0  0  0  0  3  0  0  0  0  0  0
   33.5600   31.2890   36.1930 C   0  0  0  0  0  0  0  0  0  0  0  0
   32.9850   30.2700   35.4630 C   0  0  0  0  0  3  0  0  0  0  0  0
  1  2  2  0  0  0  0
  3 19  1  6  0  0  0
  3  4  1  0  0  0  0
  3 15  1  0  0  0  0
  4  5  1  0  0  0  0
  4 11  1  0  0  0  0
  5  6  1  0  0  0  0
  6  7  2  0  0  0  0
  8 13  1  6  0  0  0
  8  6  1  0  0  0  0
  8  1  1  0  0  0  0
  9 14  1  6  0  0  0
  9 10  1  0  0  0  0
  9  8  1  0  0  0  0
  9  5  1  0  0  0  0
 10  3  1  0  0  0  0
 12  4  1  0  0  0  0
 15 17  1  0  0  0  0
 15 16  1  0  0  0  0
 18 15  1  0  0  0  0
 19 21  1  0  0  0  0
 20 19  1  0  0  0  0
 22 19  1  0  0  0  0
 23 22  1  0  0  0  0
 24  1  1  0  0  0  0
 24 29  1  0  0  0  0
 25 24  2  0  0  0  0
 26 25  1  0  0  0  0
 26 27  2  0  0  0  0
 27 28  1  0  0  0  0
 28 29  2  0  0  0  0
 28 33  1  0  0  0  0
 30 25  1  0  0  0  0
 31 26  1  0  0  0  0
 32 43  1  0  0  0  0
 33 32  2  0  0  0  0
 33 34  1  0  0  0  0
 34 36  2  0  0  0  0
 35 34  1  0  0  0  0
 36 42  1  0  0  0  0
 36 37  1  0  0  0  0
 37 38  1  0  0  0  0
 37 39  1  0  0  0  0
 39 40  1  0  0  0  0
 41 39  2  0  0  0  0
 42 41  1  0  0  0  0
 43 42  2  0  0  0  0
M  END
>  <minimizedAffinity>
-5.86733198

$$$$

 OpenBabel03262522083D

 43 47  0  0  1  0  0  0  0  0999 V2000
   39.3990   24.2080   32.4830 C   0  0  0  0  0  0  0  0  0  0  0  0
   40.5360   23.6800   32.6860 O   0  0  0  0  0  0  0  0  0  0  0  0
   39.3650   23.1060   36.6670 C   0  0  2  0  0  0  0  0  0  0  0  0
   38.6170   21.9560   36.0850 C   0  0  0  0  0  0  0  0  0  0  0  0
   38.5220   22.1270   34.6360 N   0  0  0  0  0  0  0  0  0  0  0  0
   38.5720   21.9760   33.2090 C   0  0  0  0  0  0  0  0  0  0  0  0
   38.7860   21.0480   32.4080 O   0  0  0  0  0  0  0  0  0  0  0  0
   38.2720   23.3550   32.9280 C   0  0  1  0  0  0  0  0  0  0  0  0
   37.9430   23.4160   34.4150 C   0  0  2  0  0  0  0  0  0  0  0  0
   39.0540   24.4280   35.4220 S   0  0  0  0  0  0  0  0  0  0  0  0
   39.1360   20.9790   36.2390 H   0  0  0  0  0  0  0  0  0  0  0  0
   37.5920   21.8820   36.5200 H   0  0  0  0  0  0  0  0  0  0  0  0
   37.3610   23.6620   32.3920 H   0  0  0  0  0  0  0  0  0  0  0  0
   36.8720   23.5180   34.6630 H   0  0  0  0  0  0  0  0  0  0  0  0
   40.8140   22.8920   36.9470 C   0  0  0  0  0  0  0  0  0  0  0  0
   41.0570   21.8210   36.7760 H   0  0  0  0  0  0  0  0  0  0  0  0
   41.5010   23.4630   36.2770 H   0  0  0  0  0  0  0  0  0  0  0  0
   41.0820   23.1610   38.0070 H   0  0  0  0  0  0  0  0  0  0  0  0
   38.6130   23.5810   37.9210 C   0  0  0  0  0  0  0  0  0  0  0  0
   38.8290   24.6220   38.1670 H   0  0  0  0  0  0  0  0  0  0  0  0
   37.5280   23.4100   37.6680 H   0  0  0  0  0  0  0  0  0  0  0  0
   38.8740   22.6860   38.9610 O   0  0  0  0  0  0  0  0  0  0  0  0
   39.1420   23.2620   39.7420 H   0  0  0  0  0  0  0  0  0  0  0  0
   39.2310   25.4950   31.8800 C   0  0  0  0  0  0  0  0  0  0  0  0
   40.1450   25.8960   30.9320 C   0  0  0  0  0  0  0  0  0  0  0  0
   39.9740   27.1670   30.3400 C   0  0  0  0  0  0  0  0  0  0  0  0
   38.9100   27.9280   30.7440 N   0  0  0  0  0  0  0  0  0  0  0  0
   38.0530   27.5050   31.6600 C   0  0  0  0  0  0  0  0  0  0  0  0
   38.1970   26.2950   32.2380 N   0  0  0  0  0  0  0  0  0  0  0  0
   40.9790   25.2700   30.6310 H   0  0  0  0  0  0  0  0  0  0  0  0
   40.6590   27.5390   29.5890 H   0  0  0  0  0  0  0  0  0  0  0  0
   36.3960   28.3230   33.3210 C   0  0  0  0  0  3  0  0  0  0  0  0
   36.9420   28.3770   32.0380 C   0  0  0  0  0  0  0  0  0  0  0  0
   36.4630   29.2560   31.0630 C   0  0  0  0  0  0  0  0  0  0  0  0
   36.8910   29.2930   30.0700 H   0  0  0  0  0  0  0  0  0  0  0  0
   35.4050   30.1010   31.3960 C   0  0  0  0  0  0  0  0  0  0  0  0
   34.7990   31.0100   30.6170 N   0  0  0  0  0  0  0  0  0  0  0  0
   34.9840   31.2760   29.6220 H   0  0  0  0  0  0  0  0  0  0  0  0
   33.8120   31.6160   31.3390 C   0  0  0  0  0  0  0  0  0  0  0  0
   33.0930   32.3890   31.1130 H   0  0  0  0  0  0  0  0  0  0  0  0
   33.8530   31.0260   32.5890 C   0  0  0  0  0  3  0  0  0  0  0  0
   34.8430   30.0680   32.6610 C   0  0  0  0  0  0  0  0  0  0  0  0
   35.3350   29.1920   33.6060 C   0  0  0  0  0  3  0  0  0  0  0  0
  1  2  2  0  0  0  0
  1  8  1  0  0  0  0
  3 15  1  1  0  0  0
  3 19  1  0  0  0  0
  4 11  1  0  0  0  0
  4 12  1  0  0  0  0
  4  3  1  0  0  0  0
  5  4  1  0  0  0  0
  6  5  1  0  0  0  0
  7  6  2  0  0  0  0
  8 13  1  6  0  0  0
  8  6  1  0  0  0  0
  8  9  1  0  0  0  0
  9  5  1  0  0  0  0
  9 14  1  1  0  0  0
  9 10  1  0  0  0  0
 10  3  1  0  0  0  0
 15 18  1  0  0  0  0
 16 15  1  0  0  0  0
 17 15  1  0  0  0  0
 19 20  1  0  0  0  0
 19 22  1  0  0  0  0
 21 19  1  0  0  0  0
 22 23  1  0  0  0  0
 24 29  1  0  0  0  0
 24  1  1  0  0  0  0
 25 24  2  0  0  0  0
 26 27  2  0  0  0  0
 26 25  1  0  0  0  0
 27 28  1  0  0  0  0
 28 33  1  0  0  0  0
 28 29  2  0  0  0  0
 30 25  1  0  0  0  0
 31 26  1  0  0  0  0
 32 43  1  0  0  0  0
 33 32  2  0  0  0  0
 34 36  2  0  0  0  0
 34 33  1  0  0  0  0
 35 34  1  0  0  0  0
 36 42  1  0  0  0  0
 37 39  1  0  0  0  0
 37 36  1  0  0  0  0
 38 37  1  0  0  0  0
 39 41  2  0  0  0  0
 40 39  1  0  0  0  0
 41 42  1  0  0  0  0
 42 43  2  0  0  0  0
M  END
>  <minimizedAffinity>
-5.81095552

$$$$
