
 OpenBabel03272510113D

 38 42  0  0  0  0  0  0  0  0999 V2000
   37.1680   30.2820   49.6700 O   0  0  0  0  0  0  0  0  0  0  0  0
   33.4080   28.4930   49.0580 C   0  0  0  0  0  0  0  0  0  0  0  0
   33.7870   28.9090   50.2870 C   0  0  0  0  0  0  0  0  0  0  0  0
   34.9900   29.5010   50.5770 C   0  0  0  0  0  0  0  0  0  0  0  0
   35.9070   29.7060   49.5820 C   0  0  0  0  0  0  0  0  0  0  0  0
   35.5190   29.2750   48.3030 C   0  0  0  0  0  0  0  0  0  0  0  0
   34.3170   28.6970   48.0710 N   0  0  0  0  0  0  0  0  0  0  0  0
   33.1340   28.7930   51.1430 H   0  0  0  0  0  0  0  0  0  0  0  0
   35.3060   29.8380   51.5560 H   0  0  0  0  0  0  0  0  0  0  0  0
   36.1140   29.3530   47.3830 H   0  0  0  0  0  0  0  0  0  0  0  0
   30.9740   28.0450   49.5450 C   0  0  0  0  0  0  0  0  0  0  0  0
   32.1350   27.8730   48.7760 C   0  0  0  0  0  0  0  0  0  0  0  0
   32.0210   27.0400   47.6730 C   0  0  0  0  0  0  0  0  0  0  0  0
   30.8230   26.4480   47.3950 N   0  0  0  0  0  0  0  0  0  0  0  0
   29.7460   26.6550   48.1740 C   0  0  0  0  0  0  0  0  0  0  0  0
   29.8220   27.4510   49.2450 N   0  0  0  0  0  0  0  0  0  0  0  0
   31.0430   28.6850   50.4030 H   0  0  0  0  0  0  0  0  0  0  0  0
   32.8580   26.8420   47.0170 H   0  0  0  0  0  0  0  0  0  0  0  0
   28.8780   26.1080   47.8100 H   0  0  0  0  0  0  0  0  0  0  0  0
   37.8030   30.8480   48.5860 C   0  0  0  0  0  0  0  0  0  0  0  0
   38.4000   32.0880   48.8210 C   0  0  0  0  0  0  0  0  0  0  0  0
   38.9830   32.4940   47.6240 C   0  0  0  0  0  0  0  0  0  0  0  0
   38.7270   31.5130   46.7250 N   0  0  0  0  0  0  0  0  0  0  0  0
   38.0370   30.5560   47.2950 N   0  0  0  0  0  0  0  0  0  0  0  0
   38.4890   32.7410   49.6860 H   0  0  0  0  0  0  0  0  0  0  0  0
   39.5450   33.4170   47.4130 H   0  0  0  0  0  0  0  0  0  0  0  0
   39.1650   32.7120   44.5870 C   0  0  0  0  0  3  0  0  0  0  0  0
   39.1690   31.5690   45.3740 C   0  0  0  0  0  0  0  0  0  0  0  0
   39.6220   30.3470   44.8860 C   0  0  0  0  0  0  0  0  0  0  0  0
   39.6470   29.4350   45.4510 H   0  0  0  0  0  0  0  0  0  0  0  0
   40.0810   30.2760   43.5730 C   0  0  0  0  0  0  0  0  0  0  0  0
   40.5830   29.2980   42.7680 N   0  0  0  0  0  0  0  0  0  0  0  0
   40.6860   28.3230   43.1480 H   0  0  0  0  0  0  0  0  0  0  0  0
   40.8680   29.8130   41.5580 C   0  0  0  0  0  0  0  0  0  0  0  0
   41.2830   29.2280   40.7380 H   0  0  0  0  0  0  0  0  0  0  0  0
   40.5650   31.1570   41.5140 C   0  0  0  0  0  3  0  0  0  0  0  0
   40.0720   31.4230   42.7970 C   0  0  0  0  0  0  0  0  0  0  0  0
   39.6170   32.6500   43.2830 C   0  0  0  0  0  3  0  0  0  0  0  0
  2  3  1  0  0  0  0
  3  4  2  0  0  0  0
  3  8  1  0  0  0  0
  4  9  1  0  0  0  0
  5  1  1  0  0  0  0
  5  4  1  0  0  0  0
  6  5  2  0  0  0  0
  7  6  1  0  0  0  0
  7  2  2  0  0  0  0
 10  6  1  0  0  0  0
 11 17  1  0  0  0  0
 12  2  1  0  0  0  0
 12 11  2  0  0  0  0
 13 12  1  0  0  0  0
 14 13  2  0  0  0  0
 14 15  1  0  0  0  0
 15 16  2  0  0  0  0
 16 11  1  0  0  0  0
 18 13  1  0  0  0  0
 19 15  1  0  0  0  0
 20 21  1  0  0  0  0
 20  1  1  0  0  0  0
 21 25  1  0  0  0  0
 22 21  2  0  0  0  0
 23 24  1  0  0  0  0
 23 22  1  0  0  0  0
 24 20  2  0  0  0  0
 26 22  1  0  0  0  0
 27 28  1  0  0  0  0
 28 23  1  0  0  0  0
 29 28  2  0  0  0  0
 29 30  1  0  0  0  0
 31 29  1  0  0  0  0
 32 33  1  0  0  0  0
 32 31  1  0  0  0  0
 34 32  1  0  0  0  0
 35 34  1  0  0  0  0
 36 34  2  0  0  0  0
 36 37  1  0  0  0  0
 37 38  1  0  0  0  0
 37 31  2  0  0  0  0
 38 27  2  0  0  0  0
M  END
>  <minimizedAffinity>
-6.2805171

>  <minimizedRMSD>
3.00302696

$$$$
