
 OpenBabel03262521083D

 48 51  0  0  1  0  0  0  0  0999 V2000
   37.2510   31.3880   45.7030 C   0  0  2  0  0  0  0  0  0  0  0  0
   38.1420   31.0130   44.6130 C   0  0  0  0  0  0  0  0  0  0  0  0
   39.5070   30.5250   45.0960 C   0  0  0  0  0  0  0  0  0  0  0  0
   40.2060   31.5210   45.9630 C   0  0  0  0  0  0  0  0  0  0  0  0
   39.2800   32.3100   46.8620 C   0  0  0  0  0  0  0  0  0  0  0  0
   37.9390   31.5980   47.0260 C   0  0  2  0  0  0  0  0  0  0  0  0
   36.7740   32.3790   45.4370 H   0  0  0  0  0  0  0  0  0  0  0  0
   38.4060   31.9080   43.9620 H   0  0  0  0  0  0  0  0  0  0  0  0
   37.8280   30.2520   43.8870 H   0  0  0  0  0  0  0  0  0  0  0  0
   40.1200   30.4460   44.1670 H   0  0  0  0  0  0  0  0  0  0  0  0
   39.4840   29.5030   45.4990 H   0  0  0  0  0  0  0  0  0  0  0  0
   40.9000   30.9490   46.6460 H   0  0  0  0  0  0  0  0  0  0  0  0
   40.8590   32.2320   45.4130 H   0  0  0  0  0  0  0  0  0  0  0  0
   39.6820   32.4860   47.8740 H   0  0  0  0  0  0  0  0  0  0  0  0
   39.0540   33.2850   46.3800 H   0  0  0  0  0  0  0  0  0  0  0  0
   37.3080   32.3150   47.6060 H   0  0  0  0  0  0  0  0  0  0  0  0
   36.1220   30.4830   45.9390 C   0  0  0  0  0  0  0  0  0  0  0  0
   35.7380   29.7340   44.8230 C   0  0  0  0  0  0  0  0  0  0  0  0
   34.6830   28.8530   44.9970 C   0  0  0  0  0  0  0  0  0  0  0  0
   34.0790   28.7560   46.2170 N   0  0  0  0  0  0  0  0  0  0  0  0
   34.4800   29.4960   47.2660 C   0  0  0  0  0  0  0  0  0  0  0  0
   35.4720   30.3180   47.0860 N   0  0  0  0  0  0  0  0  0  0  0  0
   36.0500   29.6580   43.8030 H   0  0  0  0  0  0  0  0  0  0  0  0
   34.2260   28.1920   44.3040 H   0  0  0  0  0  0  0  0  0  0  0  0
   33.9910   29.4120   48.2340 H   0  0  0  0  0  0  0  0  0  0  0  0
   38.1730   30.5020   47.8520 N   0  0  0  0  0  0  0  0  0  0  0  0
   39.0360   29.9630   47.7250 H   0  0  0  0  0  0  0  0  0  0  0  0
   37.8800   30.6800   49.5130 S   0  0  1  0  0  0  0  0  0  0  0  0
   39.1150   31.4110   50.0510 O   0  0  0  0  0  0  0  0  0  0  0  0
   39.7150   31.0650   50.7600 H   0  0  0  0  0  0  0  0  0  0  0  0
   36.6840   31.4640   49.8130 O   0  0  0  0  0  0  0  0  0  0  0  0
   34.9480   32.8380   49.3900 C   0  0  0  0  0  3  0  0  0  0  0  0
   36.1110   32.6430   50.1510 C   0  0  0  0  0  0  0  0  0  0  0  0
   36.3940   33.6560   51.0370 C   0  0  0  0  0  0  0  0  0  0  0  0
   37.3130   33.4130   51.5800 H   0  0  0  0  0  0  0  0  0  0  0  0
   35.6220   34.7740   51.1860 C   0  0  0  0  0  0  0  0  0  0  0  0
   35.7960   35.8160   52.0080 N   0  0  0  0  0  0  0  0  0  0  0  0
   36.5620   35.9700   52.6960 H   0  0  0  0  0  0  0  0  0  0  0  0
   34.7720   36.6720   51.7910 C   0  0  0  0  0  0  0  0  0  0  0  0
   34.5630   37.6310   52.2650 H   0  0  0  0  0  0  0  0  0  0  0  0
   33.9500   36.1600   50.8250 C   0  0  0  0  0  3  0  0  0  0  0  0
   34.4730   34.9490   50.4230 C   0  0  0  0  0  0  0  0  0  0  0  0
   34.1400   33.9610   49.5160 C   0  0  0  0  0  3  0  0  0  0  0  0
   37.8530   29.2060   50.3170 O   0  0  0  0  0  0  0  0  0  0  0  0
   37.2820   29.2980   51.5760 C   0  0  0  0  0  0  0  0  0  0  0  0
   37.8820   28.3940   52.4170 F   0  0  0  0  0  0  0  0  0  0  0  0
   37.5770   30.5380   52.0690 F   0  0  0  0  0  0  0  0  0  0  0  0
   35.8970   29.1910   51.5690 F   0  0  0  0  0  0  0  0  0  0  0  0
  1  7  1  6  0  0  0
  1 17  1  0  0  0  0
  1  6  1  0  0  0  0
  2  3  1  0  0  0  0
  2  1  1  0  0  0  0
  3 11  1  0  0  0  0
  3  4  1  0  0  0  0
  4 12  1  0  0  0  0
  4  5  1  0  0  0  0
  5  6  1  0  0  0  0
  5 14  1  0  0  0  0
  6 16  1  1  0  0  0
  6 26  1  0  0  0  0
  8  2  1  0  0  0  0
  9  2  1  0  0  0  0
 10  3  1  0  0  0  0
 13  4  1  0  0  0  0
 15  5  1  0  0  0  0
 17 22  1  0  0  0  0
 18 19  1  0  0  0  0
 18 17  2  0  0  0  0
 19 20  2  0  0  0  0
 20 21  1  0  0  0  0
 21 25  1  0  0  0  0
 22 21  2  0  0  0  0
 23 18  1  0  0  0  0
 24 19  1  0  0  0  0
 26 28  1  0  0  0  0
 27 26  1  0  0  0  0
 28 31  1  1  0  0  0
 28 29  1  0  0  0  0
 28 44  1  0  0  0  0
 29 30  1  0  0  0  0
 31 33  1  0  0  0  0
 32 43  2  0  0  0  0
 32 33  1  0  0  0  0
 33 34  2  0  0  0  0
 34 36  1  0  0  0  0
 34 35  1  0  0  0  0
 36 37  1  0  0  0  0
 37 38  1  0  0  0  0
 39 37  1  0  0  0  0
 39 40  1  0  0  0  0
 41 39  2  0  0  0  0
 42 41  1  0  0  0  0
 42 36  2  0  0  0  0
 43 42  1  0  0  0  0
 44 45  1  0  0  0  0
 45 47  1  0  0  0  0
 45 46  1  0  0  0  0
 48 45  1  0  0  0  0
M  END
>  <minimizedAffinity>
6.92829704

>  <minimizedRMSD>
0.934414923

$$$$
