
 OpenBabel03262522053D

 43 47  0  0  1  0  0  0  0  0999 V2000
   37.7190   31.8060   49.6900 C   0  0  0  0  0  0  0  0  0  0  0  0
   36.7260   32.3220   50.2900 O   0  0  0  0  0  0  0  0  0  0  0  0
   34.4950   29.0760   48.7550 C   0  0  2  0  0  0  0  0  0  0  0  0
   35.1260   28.3580   49.8990 C   0  0  0  0  0  0  0  0  0  0  0  0
   36.2630   29.1370   50.3890 N   0  0  0  0  0  0  0  0  0  0  0  0
   37.2090   29.8750   51.1760 C   0  0  0  0  0  0  0  0  0  0  0  0
   37.4150   30.0730   52.3870 O   0  0  0  0  0  0  0  0  0  0  0  0
   37.9390   30.3840   50.0450 C   0  0  1  0  0  0  0  0  0  0  0  0
   37.1120   29.3710   49.2630 C   0  0  2  0  0  0  0  0  0  0  0  0
   35.9060   30.0690   48.1090 S   0  0  0  0  0  0  0  0  0  0  0  0
   34.4390   28.2460   50.7720 H   0  0  0  0  0  0  0  0  0  0  0  0
   35.4740   27.3420   49.5930 H   0  0  0  0  0  0  0  0  0  0  0  0
   38.9960   30.1330   49.8640 H   0  0  0  0  0  0  0  0  0  0  0  0
   37.6660   28.4950   48.8800 H   0  0  0  0  0  0  0  0  0  0  0  0
   33.2890   29.8970   49.0610 C   0  0  0  0  0  0  0  0  0  0  0  0
   32.9930   29.7190   50.1180 H   0  0  0  0  0  0  0  0  0  0  0  0
   33.4520   31.0000   48.9810 H   0  0  0  0  0  0  0  0  0  0  0  0
   32.4220   29.6380   48.3910 H   0  0  0  0  0  0  0  0  0  0  0  0
   34.2120   28.0510   47.6440 C   0  0  0  0  0  0  0  0  0  0  0  0
   34.8660   27.1800   47.7040 H   0  0  0  0  0  0  0  0  0  0  0  0
   33.1240   27.7890   47.7880 H   0  0  0  0  0  0  0  0  0  0  0  0
   34.2520   28.7090   46.4130 O   0  0  0  0  0  0  0  0  0  0  0  0
   34.8520   28.1440   45.8340 H   0  0  0  0  0  0  0  0  0  0  0  0
   38.5410   32.5320   48.7710 C   0  0  0  0  0  0  0  0  0  0  0  0
   39.1210   33.7050   49.1990 C   0  0  0  0  0  0  0  0  0  0  0  0
   39.9310   34.4160   48.2870 C   0  0  0  0  0  0  0  0  0  0  0  0
   40.0930   33.9000   47.0300 N   0  0  0  0  0  0  0  0  0  0  0  0
   39.5170   32.7680   46.6570 C   0  0  0  0  0  0  0  0  0  0  0  0
   38.7400   32.0720   47.5110 N   0  0  0  0  0  0  0  0  0  0  0  0
   38.9750   34.0890   50.2040 H   0  0  0  0  0  0  0  0  0  0  0  0
   40.4150   35.3440   48.5640 H   0  0  0  0  0  0  0  0  0  0  0  0
   40.5660   31.1860   45.0530 C   0  0  0  0  0  3  0  0  0  0  0  0
   39.7380   32.2830   45.2950 C   0  0  0  0  0  0  0  0  0  0  0  0
   39.0890   32.9670   44.2640 C   0  0  0  0  0  0  0  0  0  0  0  0
   38.4480   33.8160   44.4580 H   0  0  0  0  0  0  0  0  0  0  0  0
   39.2820   32.5250   42.9540 C   0  0  0  0  0  0  0  0  0  0  0  0
   38.7580   33.0330   41.8280 N   0  0  0  0  0  0  0  0  0  0  0  0
   38.1110   33.8430   41.6910 H   0  0  0  0  0  0  0  0  0  0  0  0
   39.2070   32.3010   40.7690 C   0  0  0  0  0  0  0  0  0  0  0  0
   39.0420   32.3550   39.7030 H   0  0  0  0  0  0  0  0  0  0  0  0
   40.0270   31.3280   41.3120 C   0  0  0  0  0  3  0  0  0  0  0  0
   40.0970   31.4400   42.6860 C   0  0  0  0  0  0  0  0  0  0  0  0
   40.7270   30.7820   43.7220 C   0  0  0  0  0  3  0  0  0  0  0  0
  1  8  1  0  0  0  0
  1  2  2  0  0  0  0
  3 19  1  6  0  0  0
  3 15  1  0  0  0  0
  3  4  1  0  0  0  0
  4  5  1  0  0  0  0
  4 11  1  0  0  0  0
  5  6  1  0  0  0  0
  6  7  2  0  0  0  0
  8 13  1  1  0  0  0
  8  6  1  0  0  0  0
  9 14  1  6  0  0  0
  9  8  1  0  0  0  0
  9  5  1  0  0  0  0
 10  3  1  0  0  0  0
 10  9  1  0  0  0  0
 12  4  1  0  0  0  0
 15 16  1  0  0  0  0
 17 15  1  0  0  0  0
 18 15  1  0  0  0  0
 19 20  1  0  0  0  0
 19 21  1  0  0  0  0
 22 19  1  0  0  0  0
 23 22  1  0  0  0  0
 24 25  1  0  0  0  0
 24  1  1  0  0  0  0
 25 30  1  0  0  0  0
 26 31  1  0  0  0  0
 26 25  2  0  0  0  0
 27 26  1  0  0  0  0
 28 27  2  0  0  0  0
 28 29  1  0  0  0  0
 29 24  2  0  0  0  0
 32 33  1  0  0  0  0
 33 28  1  0  0  0  0
 34 35  1  0  0  0  0
 34 33  2  0  0  0  0
 36 34  1  0  0  0  0
 37 36  1  0  0  0  0
 38 37  1  0  0  0  0
 39 41  2  0  0  0  0
 39 37  1  0  0  0  0
 40 39  1  0  0  0  0
 41 42  1  0  0  0  0
 42 36  2  0  0  0  0
 42 43  1  0  0  0  0
 43 32  2  0  0  0  0
M  END
>  <minimizedAffinity>
-6.52287054

>  <minimizedRMSD>
0.343310505

$$$$
