
 OpenBabel03262521083D

 48 51  0  0  1  0  0  0  0  0999 V2000
   37.3390   31.4480   45.5460 C   0  0  2  0  0  0  0  0  0  0  0  0
   38.3780   30.9630   44.6470 C   0  0  0  0  0  0  0  0  0  0  0  0
   39.6630   30.5690   45.3740 C   0  0  0  0  0  0  0  0  0  0  0  0
   40.2260   31.6810   46.1990 C   0  0  0  0  0  0  0  0  0  0  0  0
   39.1780   32.5530   46.8530 C   0  0  0  0  0  0  0  0  0  0  0  0
   37.8310   31.8360   46.9150 C   0  0  2  0  0  0  0  0  0  0  0  0
   36.8990   32.3880   45.0940 H   0  0  0  0  0  0  0  0  0  0  0  0
   38.7260   31.7760   43.9330 H   0  0  0  0  0  0  0  0  0  0  0  0
   38.1740   30.1110   43.9850 H   0  0  0  0  0  0  0  0  0  0  0  0
   40.4020   30.3900   44.5580 H   0  0  0  0  0  0  0  0  0  0  0  0
   39.5880   29.6050   45.8950 H   0  0  0  0  0  0  0  0  0  0  0  0
   40.8190   31.2130   47.0390 H   0  0  0  0  0  0  0  0  0  0  0  0
   40.9470   32.3330   45.6610 H   0  0  0  0  0  0  0  0  0  0  0  0
   39.4310   32.8610   47.8810 H   0  0  0  0  0  0  0  0  0  0  0  0
   39.0170   33.4550   46.2250 H   0  0  0  0  0  0  0  0  0  0  0  0
   37.1200   32.6050   47.3060 H   0  0  0  0  0  0  0  0  0  0  0  0
   36.1920   30.5550   45.7330 C   0  0  0  0  0  0  0  0  0  0  0  0
   35.8780   29.7760   44.6140 C   0  0  0  0  0  0  0  0  0  0  0  0
   34.8090   28.9040   44.7430 C   0  0  0  0  0  0  0  0  0  0  0  0
   34.1270   28.8420   45.9250 N   0  0  0  0  0  0  0  0  0  0  0  0
   34.4630   29.6090   46.9760 C   0  0  0  0  0  0  0  0  0  0  0  0
   35.4690   30.4230   46.8390 N   0  0  0  0  0  0  0  0  0  0  0  0
   36.2550   29.6710   43.6200 H   0  0  0  0  0  0  0  0  0  0  0  0
   34.3950   28.2250   44.0410 H   0  0  0  0  0  0  0  0  0  0  0  0
   33.9120   29.5530   47.9130 H   0  0  0  0  0  0  0  0  0  0  0  0
   37.9510   30.8560   47.8960 N   0  0  0  0  0  0  0  0  0  0  0  0
   38.7980   30.2790   47.9180 H   0  0  0  0  0  0  0  0  0  0  0  0
   37.5310   31.2670   49.4880 S   0  0  1  0  0  0  0  0  0  0  0  0
   38.7300   30.8250   50.3340 O   0  0  0  0  0  0  0  0  0  0  0  0
   38.6880   30.1760   51.0810 H   0  0  0  0  0  0  0  0  0  0  0  0
   37.3050   32.6980   49.6800 O   0  0  0  0  0  0  0  0  0  0  0  0
   36.8340   33.9150   51.5170 C   0  0  0  0  0  3  0  0  0  0  0  0
   36.5430   33.7090   50.1600 C   0  0  0  0  0  0  0  0  0  0  0  0
   35.5870   34.5520   49.6430 C   0  0  0  0  0  0  0  0  0  0  0  0
   35.4320   34.3150   48.5860 H   0  0  0  0  0  0  0  0  0  0  0  0
   34.9540   35.5210   50.3710 C   0  0  0  0  0  0  0  0  0  0  0  0
   34.0160   36.3920   49.9790 N   0  0  0  0  0  0  0  0  0  0  0  0
   33.5890   36.4940   49.0350 H   0  0  0  0  0  0  0  0  0  0  0  0
   33.7010   37.1490   51.0530 C   0  0  0  0  0  0  0  0  0  0  0  0
   32.9810   37.9650   51.1340 H   0  0  0  0  0  0  0  0  0  0  0  0
   34.4490   36.7490   52.1260 C   0  0  0  0  0  3  0  0  0  0  0  0
   35.2570   35.7090   51.7140 C   0  0  0  0  0  0  0  0  0  0  0  0
   36.2110   34.8900   52.2860 C   0  0  0  0  0  3  0  0  0  0  0  0
   36.2320   30.3690   50.0570 O   0  0  0  0  0  0  0  0  0  0  0  0
   36.5620   29.5960   51.1590 C   0  0  0  0  0  0  0  0  0  0  0  0
   37.4800   28.6430   50.7920 F   0  0  0  0  0  0  0  0  0  0  0  0
   37.1910   30.4120   52.0570 F   0  0  0  0  0  0  0  0  0  0  0  0
   35.4600   29.0590   51.8130 F   0  0  0  0  0  0  0  0  0  0  0  0
  1  7  1  6  0  0  0
  1 17  1  0  0  0  0
  1  6  1  0  0  0  0
  2  3  1  0  0  0  0
  2  1  1  0  0  0  0
  3 11  1  0  0  0  0
  3  4  1  0  0  0  0
  4  5  1  0  0  0  0
  4 12  1  0  0  0  0
  5  6  1  0  0  0  0
  5 14  1  0  0  0  0
  6 16  1  1  0  0  0
  6 26  1  0  0  0  0
  8  2  1  0  0  0  0
  9  2  1  0  0  0  0
 10  3  1  0  0  0  0
 13  4  1  0  0  0  0
 15  5  1  0  0  0  0
 17 22  1  0  0  0  0
 18 19  1  0  0  0  0
 18 17  2  0  0  0  0
 19 20  2  0  0  0  0
 20 21  1  0  0  0  0
 21 25  1  0  0  0  0
 22 21  2  0  0  0  0
 23 18  1  0  0  0  0
 24 19  1  0  0  0  0
 26 27  1  0  0  0  0
 26 28  1  0  0  0  0
 28 31  1  1  0  0  0
 28 44  1  0  0  0  0
 28 29  1  0  0  0  0
 29 30  1  0  0  0  0
 31 33  1  0  0  0  0
 32 43  1  0  0  0  0
 33 32  2  0  0  0  0
 34 33  1  0  0  0  0
 34 36  2  0  0  0  0
 35 34  1  0  0  0  0
 36 42  1  0  0  0  0
 37 36  1  0  0  0  0
 37 39  1  0  0  0  0
 38 37  1  0  0  0  0
 39 40  1  0  0  0  0
 39 41  2  0  0  0  0
 42 41  1  0  0  0  0
 42 43  2  0  0  0  0
 44 45  1  0  0  0  0
 45 48  1  0  0  0  0
 45 47  1  0  0  0  0
 46 45  1  0  0  0  0
M  END
>  <minimizedAffinity>
3.51762843

>  <minimizedRMSD>
0.866421342

$$$$
