
 OpenBabel03272501193D

 33 36  0  0  0  0  0  0  0  0999 V2000
   37.6490   25.7350   33.9410 C   0  0  0  0  0  0  0  0  0  0  0  0
   37.6010   27.1030   33.8460 C   0  0  0  0  0  0  0  0  0  0  0  0
   37.9460   27.7860   35.0210 C   0  0  0  0  0  0  0  0  0  0  0  0
   38.3070   27.1000   36.1850 C   0  0  0  0  0  0  0  0  0  0  0  0
   38.3220   25.7020   36.1690 C   0  0  0  0  0  0  0  0  0  0  0  0
   37.9890   25.0060   35.0290 C   0  0  0  0  0  0  0  0  0  0  0  0
   37.9330   28.8690   35.0280 H   0  0  0  0  0  0  0  0  0  0  0  0
   38.5640   27.6880   37.0600 H   0  0  0  0  0  0  0  0  0  0  0  0
   38.6130   25.2440   37.1080 H   0  0  0  0  0  0  0  0  0  0  0  0
   38.1200   27.9190   31.5860 C   0  0  0  0  0  0  0  0  0  0  0  0
   37.2320   27.8170   32.6560 C   0  0  0  0  0  0  0  0  0  0  0  0
   35.9870   28.4310   32.5150 C   0  0  0  0  0  0  0  0  0  0  0  0
   35.7150   29.0900   31.3500 N   0  0  0  0  0  0  0  0  0  0  0  0
   36.6140   29.1610   30.3380 C   0  0  0  0  0  0  0  0  0  0  0  0
   37.8140   28.5750   30.4570 N   0  0  0  0  0  0  0  0  0  0  0  0
   39.0830   27.4300   31.7220 H   0  0  0  0  0  0  0  0  0  0  0  0
   35.2530   28.3880   33.3110 H   0  0  0  0  0  0  0  0  0  0  0  0
   36.3940   29.6840   29.4160 H   0  0  0  0  0  0  0  0  0  0  0  0
   37.3180   24.9730   32.8040 O   0  0  0  0  0  0  0  0  0  0  0  0
   36.3710   24.9120   32.4660 H   0  0  0  0  0  0  0  0  0  0  0  0
   38.0190   23.6300   35.0650 O   0  0  0  0  0  0  0  0  0  0  0  0
   40.0870   22.9480   34.4040 C   0  0  0  0  0  3  0  0  0  0  0  0
   39.1660   22.9670   35.4570 C   0  0  0  0  0  0  0  0  0  0  0  0
   39.5000   22.3690   36.6520 C   0  0  0  0  0  0  0  0  0  0  0  0
   38.7180   22.4500   37.3750 H   0  0  0  0  0  0  0  0  0  0  0  0
   40.7330   21.7690   36.7760 C   0  0  0  0  0  0  0  0  0  0  0  0
   41.2380   21.1390   37.8520 N   0  0  0  0  0  0  0  0  0  0  0  0
   40.7900   20.9910   38.7840 H   0  0  0  0  0  0  0  0  0  0  0  0
   42.4630   20.7200   37.4990 C   0  0  0  0  0  0  0  0  0  0  0  0
   43.2100   20.1700   38.0750 H   0  0  0  0  0  0  0  0  0  0  0  0
   42.7770   21.0640   36.2030 C   0  0  0  0  0  3  0  0  0  0  0  0
   41.6490   21.7430   35.7430 C   0  0  0  0  0  0  0  0  0  0  0  0
   41.3370   22.3350   34.5380 C   0  0  0  0  0  3  0  0  0  0  0  0
  1  6  1  0  0  0  0
  2  1  2  0  0  0  0
  2  3  1  0  0  0  0
  3  7  1  0  0  0  0
  3  4  2  0  0  0  0
  4  8  1  0  0  0  0
  5  4  1  0  0  0  0
  5  9  1  0  0  0  0
  6 21  1  0  0  0  0
  6  5  2  0  0  0  0
 10 16  1  0  0  0  0
 10 11  1  0  0  0  0
 11  2  1  0  0  0  0
 12 11  2  0  0  0  0
 12 17  1  0  0  0  0
 13 12  1  0  0  0  0
 14 15  1  0  0  0  0
 14 13  2  0  0  0  0
 15 10  2  0  0  0  0
 18 14  1  0  0  0  0
 19  1  1  0  0  0  0
 20 19  1  0  0  0  0
 21 23  1  0  0  0  0
 22 33  2  0  0  0  0
 22 23  1  0  0  0  0
 23 24  2  0  0  0  0
 24 26  1  0  0  0  0
 24 25  1  0  0  0  0
 26 27  1  0  0  0  0
 27 28  1  0  0  0  0
 29 27  1  0  0  0  0
 29 30  1  0  0  0  0
 31 29  2  0  0  0  0
 32 31  1  0  0  0  0
 32 26  2  0  0  0  0
 33 32  1  0  0  0  0
M  END
>  <minimizedAffinity>
-5.82255363

$$$$

 OpenBabel03272501193D

 33 36  0  0  0  0  0  0  0  0999 V2000
   37.7810   26.6450   31.6910 C   0  0  0  0  0  0  0  0  0  0  0  0
   36.8000   27.1930   30.9030 C   0  0  0  0  0  0  0  0  0  0  0  0
   35.6850   26.3700   30.6970 C   0  0  0  0  0  0  0  0  0  0  0  0
   35.6030   25.0930   31.2630 C   0  0  0  0  0  0  0  0  0  0  0  0
   36.6640   24.6350   32.0510 C   0  0  0  0  0  0  0  0  0  0  0  0
   37.7710   25.4220   32.2700 C   0  0  0  0  0  0  0  0  0  0  0  0
   34.8650   26.7300   30.0860 H   0  0  0  0  0  0  0  0  0  0  0  0
   34.7120   24.5070   31.0650 H   0  0  0  0  0  0  0  0  0  0  0  0
   36.5270   23.6380   32.4540 H   0  0  0  0  0  0  0  0  0  0  0  0
   37.4910   28.6940   29.0830 C   0  0  0  0  0  0  0  0  0  0  0  0
   36.8740   28.5030   30.3180 C   0  0  0  0  0  0  0  0  0  0  0  0
   36.3380   29.6280   30.9470 C   0  0  0  0  0  0  0  0  0  0  0  0
   36.4500   30.8370   30.3220 N   0  0  0  0  0  0  0  0  0  0  0  0
   37.0600   30.9700   29.1200 C   0  0  0  0  0  0  0  0  0  0  0  0
   37.5800   29.8990   28.5020 N   0  0  0  0  0  0  0  0  0  0  0  0
   37.9000   27.8000   28.6140 H   0  0  0  0  0  0  0  0  0  0  0  0
   35.8460   29.5440   31.9090 H   0  0  0  0  0  0  0  0  0  0  0  0
   37.1470   31.9310   28.6280 H   0  0  0  0  0  0  0  0  0  0  0  0
   38.9370   27.4070   31.9490 O   0  0  0  0  0  0  0  0  0  0  0  0
   39.6200   27.5900   31.2320 H   0  0  0  0  0  0  0  0  0  0  0  0
   38.7890   24.9250   33.0540 O   0  0  0  0  0  0  0  0  0  0  0  0
   38.3880   25.9190   35.0620 C   0  0  0  0  0  3  0  0  0  0  0  0
   38.5850   24.7010   34.4020 C   0  0  0  0  0  0  0  0  0  0  0  0
   38.5530   23.5310   35.1290 C   0  0  0  0  0  0  0  0  0  0  0  0
   38.7160   22.6710   34.5160 H   0  0  0  0  0  0  0  0  0  0  0  0
   38.3270   23.5940   36.4860 C   0  0  0  0  0  0  0  0  0  0  0  0
   38.2600   22.5730   37.3580 N   0  0  0  0  0  0  0  0  0  0  0  0
   38.3660   21.5510   37.1670 H   0  0  0  0  0  0  0  0  0  0  0  0
   38.0230   23.1220   38.5600 C   0  0  0  0  0  0  0  0  0  0  0  0
   37.8980   22.6490   39.5350 H   0  0  0  0  0  0  0  0  0  0  0  0
   37.9330   24.4950   38.4940 C   0  0  0  0  0  3  0  0  0  0  0  0
   38.1310   24.7910   37.1460 C   0  0  0  0  0  0  0  0  0  0  0  0
   38.1590   25.9740   36.4400 C   0  0  0  0  0  3  0  0  0  0  0  0
  1 19  1  0  0  0  0
  1  6  1  0  0  0  0
  2  1  2  0  0  0  0
  3  2  1  0  0  0  0
  3  4  2  0  0  0  0
  4  5  1  0  0  0  0
  5  6  2  0  0  0  0
  5  9  1  0  0  0  0
  6 21  1  0  0  0  0
  7  3  1  0  0  0  0
  8  4  1  0  0  0  0
 10 11  1  0  0  0  0
 11  2  1  0  0  0  0
 11 12  2  0  0  0  0
 12 17  1  0  0  0  0
 13 12  1  0  0  0  0
 14 13  2  0  0  0  0
 15 10  2  0  0  0  0
 15 14  1  0  0  0  0
 16 10  1  0  0  0  0
 18 14  1  0  0  0  0
 20 19  1  0  0  0  0
 21 23  1  0  0  0  0
 22 33  1  0  0  0  0
 23 22  2  0  0  0  0
 23 24  1  0  0  0  0
 24 26  2  0  0  0  0
 25 24  1  0  0  0  0
 26 32  1  0  0  0  0
 26 27  1  0  0  0  0
 27 29  1  0  0  0  0
 28 27  1  0  0  0  0
 29 30  1  0  0  0  0
 31 29  2  0  0  0  0
 32 31  1  0  0  0  0
 33 32  2  0  0  0  0
M  END
>  <minimizedAffinity>
-5.78768682

$$$$

 OpenBabel03272501193D

 33 36  0  0  0  0  0  0  0  0999 V2000
   36.5150   28.2650   33.4740 C   0  0  0  0  0  0  0  0  0  0  0  0
   35.7670   29.4070   33.3320 C   0  0  0  0  0  0  0  0  0  0  0  0
   35.7420   29.9350   32.0340 C   0  0  0  0  0  0  0  0  0  0  0  0
   36.4350   29.3260   30.9830 C   0  0  0  0  0  0  0  0  0  0  0  0
   37.1680   28.1630   31.2420 C   0  0  0  0  0  0  0  0  0  0  0  0
   37.2090   27.6220   32.5070 C   0  0  0  0  0  0  0  0  0  0  0  0
   35.1720   30.8360   31.8390 H   0  0  0  0  0  0  0  0  0  0  0  0
   36.3740   29.7850   30.0030 H   0  0  0  0  0  0  0  0  0  0  0  0
   37.6760   27.7510   30.3780 H   0  0  0  0  0  0  0  0  0  0  0  0
   35.6870   30.9600   35.2360 C   0  0  0  0  0  0  0  0  0  0  0  0
   35.0500   30.0400   34.4040 C   0  0  0  0  0  0  0  0  0  0  0  0
   33.7050   29.7700   34.6600 C   0  0  0  0  0  0  0  0  0  0  0  0
   33.0980   30.4150   35.6990 N   0  0  0  0  0  0  0  0  0  0  0  0
   33.7620   31.3020   36.4790 C   0  0  0  0  0  0  0  0  0  0  0  0
   35.0550   31.5740   36.2460 N   0  0  0  0  0  0  0  0  0  0  0  0
   36.7350   31.1530   35.0140 H   0  0  0  0  0  0  0  0  0  0  0  0
   33.1550   29.0630   34.0490 H   0  0  0  0  0  0  0  0  0  0  0  0
   33.2770   31.8120   37.3020 H   0  0  0  0  0  0  0  0  0  0  0  0
   36.5920   27.6680   34.7470 O   0  0  0  0  0  0  0  0  0  0  0  0
   37.1070   28.0950   35.5000 H   0  0  0  0  0  0  0  0  0  0  0  0
   37.9450   26.4760   32.7090 O   0  0  0  0  0  0  0  0  0  0  0  0
   36.2980   25.3600   31.6030 C   0  0  0  0  0  3  0  0  0  0  0  0
   37.3820   25.2350   32.4800 C   0  0  0  0  0  0  0  0  0  0  0  0
   37.7170   23.9880   32.9600 C   0  0  0  0  0  0  0  0  0  0  0  0
   38.5580   24.0220   33.6170 H   0  0  0  0  0  0  0  0  0  0  0  0
   36.9740   22.8980   32.5620 C   0  0  0  0  0  0  0  0  0  0  0  0
   37.1440   21.6130   32.9180 N   0  0  0  0  0  0  0  0  0  0  0  0
   37.8650   21.2080   33.5570 H   0  0  0  0  0  0  0  0  0  0  0  0
   36.1860   20.9190   32.2820 C   0  0  0  0  0  0  0  0  0  0  0  0
   35.9680   19.8500   32.2940 H   0  0  0  0  0  0  0  0  0  0  0  0
   35.3840   21.7310   31.5090 C   0  0  0  0  0  3  0  0  0  0  0  0
   35.9030   23.0110   31.6970 C   0  0  0  0  0  0  0  0  0  0  0  0
   35.5500   24.2480   31.2040 C   0  0  0  0  0  3  0  0  0  0  0  0
  1 19  1  0  0  0  0
  2  1  1  0  0  0  0
  2 11  1  0  0  0  0
  3  2  2  0  0  0  0
  4  5  2  0  0  0  0
  4  3  1  0  0  0  0
  5  6  1  0  0  0  0
  6 21  1  0  0  0  0
  6  1  2  0  0  0  0
  7  3  1  0  0  0  0
  8  4  1  0  0  0  0
  9  5  1  0  0  0  0
 10 15  1  0  0  0  0
 11 12  1  0  0  0  0
 11 10  2  0  0  0  0
 12 13  2  0  0  0  0
 13 14  1  0  0  0  0
 14 18  1  0  0  0  0
 15 14  2  0  0  0  0
 16 10  1  0  0  0  0
 17 12  1  0  0  0  0
 19 20  1  0  0  0  0
 22 23  1  0  0  0  0
 23 21  1  0  0  0  0
 23 24  2  0  0  0  0
 24 25  1  0  0  0  0
 26 27  1  0  0  0  0
 26 24  1  0  0  0  0
 27 28  1  0  0  0  0
 29 30  1  0  0  0  0
 29 27  1  0  0  0  0
 31 32  1  0  0  0  0
 31 29  2  0  0  0  0
 32 26  2  0  0  0  0
 33 22  2  0  0  0  0
 33 32  1  0  0  0  0
M  END
>  <minimizedAffinity>
-5.74038076

$$$$

 OpenBabel03272501193D

 33 36  0  0  0  0  0  0  0  0999 V2000
   37.5030   25.6110   32.0110 C   0  0  0  0  0  0  0  0  0  0  0  0
   36.3910   26.1770   31.4420 C   0  0  0  0  0  0  0  0  0  0  0  0
   35.3910   25.2660   31.0740 C   0  0  0  0  0  0  0  0  0  0  0  0
   35.5420   23.8910   31.2830 C   0  0  0  0  0  0  0  0  0  0  0  0
   36.7210   23.4240   31.8730 C   0  0  0  0  0  0  0  0  0  0  0  0
   37.7180   24.2960   32.2450 C   0  0  0  0  0  0  0  0  0  0  0  0
   34.4800   25.6340   30.6170 H   0  0  0  0  0  0  0  0  0  0  0  0
   34.7310   23.2400   30.9760 H   0  0  0  0  0  0  0  0  0  0  0  0
   36.7620   22.3480   32.0030 H   0  0  0  0  0  0  0  0  0  0  0  0
   35.4910   28.3620   32.1180 C   0  0  0  0  0  0  0  0  0  0  0  0
   36.2250   27.5870   31.2220 C   0  0  0  0  0  0  0  0  0  0  0  0
   36.7830   28.2380   30.1210 C   0  0  0  0  0  0  0  0  0  0  0  0
   36.5790   29.5810   29.9860 N   0  0  0  0  0  0  0  0  0  0  0  0
   35.8560   30.2910   30.8870 C   0  0  0  0  0  0  0  0  0  0  0  0
   35.3140   29.6810   31.9510 N   0  0  0  0  0  0  0  0  0  0  0  0
   35.0680   27.8300   32.9690 H   0  0  0  0  0  0  0  0  0  0  0  0
   37.3650   27.6890   29.3880 H   0  0  0  0  0  0  0  0  0  0  0  0
   35.6970   31.3560   30.7770 H   0  0  0  0  0  0  0  0  0  0  0  0
   38.5560   26.4570   32.4110 O   0  0  0  0  0  0  0  0  0  0  0  0
   39.1430   26.9250   31.7380 H   0  0  0  0  0  0  0  0  0  0  0  0
   38.8590   23.7850   32.8220 O   0  0  0  0  0  0  0  0  0  0  0  0
   40.0590   22.8640   34.5230 C   0  0  0  0  0  3  0  0  0  0  0  0
   38.9420   23.6390   34.1940 C   0  0  0  0  0  0  0  0  0  0  0  0
   38.1360   24.1180   35.2030 C   0  0  0  0  0  0  0  0  0  0  0  0
   37.3190   24.6950   34.8270 H   0  0  0  0  0  0  0  0  0  0  0  0
   38.4540   23.8190   36.5090 C   0  0  0  0  0  0  0  0  0  0  0  0
   37.7970   24.1900   37.6220 N   0  0  0  0  0  0  0  0  0  0  0  0
   36.9310   24.7710   37.6990 H   0  0  0  0  0  0  0  0  0  0  0  0
   38.4780   23.6630   38.6520 C   0  0  0  0  0  0  0  0  0  0  0  0
   38.2870   23.7240   39.7250 H   0  0  0  0  0  0  0  0  0  0  0  0
   39.5790   22.9470   38.2340 C   0  0  0  0  0  3  0  0  0  0  0  0
   39.5540   23.0540   36.8450 C   0  0  0  0  0  0  0  0  0  0  0  0
   40.3750   22.5640   35.8520 C   0  0  0  0  0  3  0  0  0  0  0  0
  1  6  1  0  0  0  0
  1 19  1  0  0  0  0
  2  1  2  0  0  0  0
  3  4  2  0  0  0  0
  3  2  1  0  0  0  0
  4  5  1  0  0  0  0
  5  9  1  0  0  0  0
  5  6  2  0  0  0  0
  6 21  1  0  0  0  0
  7  3  1  0  0  0  0
  8  4  1  0  0  0  0
 10 16  1  0  0  0  0
 11  2  1  0  0  0  0
 11 10  2  0  0  0  0
 12 11  1  0  0  0  0
 13 12  2  0  0  0  0
 13 14  1  0  0  0  0
 14 15  2  0  0  0  0
 15 10  1  0  0  0  0
 17 12  1  0  0  0  0
 18 14  1  0  0  0  0
 20 19  1  0  0  0  0
 21 23  1  0  0  0  0
 22 33  1  0  0  0  0
 23 22  2  0  0  0  0
 23 24  1  0  0  0  0
 24 26  2  0  0  0  0
 25 24  1  0  0  0  0
 26 32  1  0  0  0  0
 26 27  1  0  0  0  0
 27 28  1  0  0  0  0
 27 29  1  0  0  0  0
 29 30  1  0  0  0  0
 31 29  2  0  0  0  0
 32 31  1  0  0  0  0
 33 32  2  0  0  0  0
M  END
>  <minimizedAffinity>
-5.68037128

$$$$

 OpenBabel03272501193D

 33 36  0  0  0  0  0  0  0  0999 V2000
   39.8810   24.8720   34.9000 C   0  0  0  0  0  0  0  0  0  0  0  0
   40.1520   26.2050   34.7210 C   0  0  0  0  0  0  0  0  0  0  0  0
   39.2800   27.0770   35.3880 C   0  0  0  0  0  0  0  0  0  0  0  0
   38.2230   26.5970   36.1690 C   0  0  0  0  0  0  0  0  0  0  0  0
   38.0390   25.2150   36.2810 C   0  0  0  0  0  0  0  0  0  0  0  0
   38.8810   24.3370   35.6370 C   0  0  0  0  0  0  0  0  0  0  0  0
   39.4270   28.1460   35.2980 H   0  0  0  0  0  0  0  0  0  0  0  0
   37.5840   27.3240   36.6590 H   0  0  0  0  0  0  0  0  0  0  0  0
   37.2000   24.9220   36.9020 H   0  0  0  0  0  0  0  0  0  0  0  0
   40.9910   27.2720   32.6720 C   0  0  0  0  0  0  0  0  0  0  0  0
   41.2350   26.7080   33.9230 C   0  0  0  0  0  0  0  0  0  0  0  0
   42.5610   26.6590   34.3550 C   0  0  0  0  0  0  0  0  0  0  0  0
   43.5310   27.1590   33.5340 N   0  0  0  0  0  0  0  0  0  0  0  0
   43.2420   27.6980   32.3250 C   0  0  0  0  0  0  0  0  0  0  0  0
   41.9720   27.7540   31.8950 N   0  0  0  0  0  0  0  0  0  0  0  0
   39.9480   27.2990   32.3590 H   0  0  0  0  0  0  0  0  0  0  0  0
   42.8150   26.2320   35.3180 H   0  0  0  0  0  0  0  0  0  0  0  0
   44.0140   28.0940   31.6780 H   0  0  0  0  0  0  0  0  0  0  0  0
   40.7110   23.9290   34.2650 O   0  0  0  0  0  0  0  0  0  0  0  0
   40.6920   23.7950   33.2660 H   0  0  0  0  0  0  0  0  0  0  0  0
   38.6570   22.9850   35.7800 O   0  0  0  0  0  0  0  0  0  0  0  0
   36.8790   21.5690   35.6670 C   0  0  0  0  0  3  0  0  0  0  0  0
   37.7920   22.3270   34.9270 C   0  0  0  0  0  0  0  0  0  0  0  0
   37.7130   22.3180   33.5510 C   0  0  0  0  0  0  0  0  0  0  0  0
   38.4610   22.9340   33.1010 H   0  0  0  0  0  0  0  0  0  0  0  0
   36.7350   21.5610   32.9440 C   0  0  0  0  0  0  0  0  0  0  0  0
   36.4990   21.4240   31.6270 N   0  0  0  0  0  0  0  0  0  0  0  0
   37.0110   21.8640   30.8290 H   0  0  0  0  0  0  0  0  0  0  0  0
   35.4520   20.5910   31.5200 C   0  0  0  0  0  0  0  0  0  0  0  0
   34.9400   20.2190   30.6310 H   0  0  0  0  0  0  0  0  0  0  0  0
   34.9910   20.1750   32.7500 C   0  0  0  0  0  3  0  0  0  0  0  0
   35.8300   20.8090   33.6660 C   0  0  0  0  0  0  0  0  0  0  0  0
   35.8900   20.8030   35.0430 C   0  0  0  0  0  3  0  0  0  0  0  0
  1  6  1  0  0  0  0
  2  1  2  0  0  0  0
  2  3  1  0  0  0  0
  3  4  2  0  0  0  0
  4  5  1  0  0  0  0
  4  8  1  0  0  0  0
  5  9  1  0  0  0  0
  6 21  1  0  0  0  0
  6  5  2  0  0  0  0
  7  3  1  0  0  0  0
 10 11  1  0  0  0  0
 11 12  2  0  0  0  0
 11  2  1  0  0  0  0
 12 17  1  0  0  0  0
 13 12  1  0  0  0  0
 14 13  2  0  0  0  0
 15 14  1  0  0  0  0
 15 10  2  0  0  0  0
 16 10  1  0  0  0  0
 18 14  1  0  0  0  0
 19  1  1  0  0  0  0
 20 19  1  0  0  0  0
 23 22  2  0  0  0  0
 23 21  1  0  0  0  0
 24 23  1  0  0  0  0
 25 24  1  0  0  0  0
 26 24  2  0  0  0  0
 26 32  1  0  0  0  0
 27 26  1  0  0  0  0
 28 27  1  0  0  0  0
 29 27  1  0  0  0  0
 29 31  2  0  0  0  0
 30 29  1  0  0  0  0
 31 32  1  0  0  0  0
 32 33  2  0  0  0  0
 33 22  1  0  0  0  0
M  END
>  <minimizedAffinity>
-5.60794926

$$$$

 OpenBabel03272501193D

 33 36  0  0  0  0  0  0  0  0999 V2000
   36.4770   26.7050   31.5070 C   0  0  0  0  0  0  0  0  0  0  0  0
   36.2590   27.7120   32.4130 C   0  0  0  0  0  0  0  0  0  0  0  0
   36.8430   27.5080   33.6710 C   0  0  0  0  0  0  0  0  0  0  0  0
   37.5850   26.3560   33.9530 C   0  0  0  0  0  0  0  0  0  0  0  0
   37.7430   25.3920   32.9520 C   0  0  0  0  0  0  0  0  0  0  0  0
   37.1810   25.5670   31.7090 C   0  0  0  0  0  0  0  0  0  0  0  0
   36.7180   28.2580   34.4420 H   0  0  0  0  0  0  0  0  0  0  0  0
   38.0110   26.2590   34.9460 H   0  0  0  0  0  0  0  0  0  0  0  0
   38.3300   24.5290   33.2480 H   0  0  0  0  0  0  0  0  0  0  0  0
   36.0630   29.9460   31.4060 C   0  0  0  0  0  0  0  0  0  0  0  0
   35.5000   28.8990   32.1330 C   0  0  0  0  0  0  0  0  0  0  0  0
   34.1830   29.0570   32.5670 C   0  0  0  0  0  0  0  0  0  0  0  0
   33.5310   30.2170   32.2580 N   0  0  0  0  0  0  0  0  0  0  0  0
   34.1240   31.2070   31.5480 C   0  0  0  0  0  0  0  0  0  0  0  0
   35.3890   31.0700   31.1220 N   0  0  0  0  0  0  0  0  0  0  0  0
   37.0910   29.7970   31.0790 H   0  0  0  0  0  0  0  0  0  0  0  0
   33.6890   28.2780   33.1370 H   0  0  0  0  0  0  0  0  0  0  0  0
   33.6030   32.1240   31.3050 H   0  0  0  0  0  0  0  0  0  0  0  0
   35.9250   26.8320   30.2180 O   0  0  0  0  0  0  0  0  0  0  0  0
   34.9330   26.7570   30.0580 H   0  0  0  0  0  0  0  0  0  0  0  0
   37.3650   24.5880   30.7580 O   0  0  0  0  0  0  0  0  0  0  0  0
   38.0090   22.4050   30.7250 C   0  0  0  0  0  3  0  0  0  0  0  0
   36.9620   23.2900   31.0060 C   0  0  0  0  0  0  0  0  0  0  0  0
   35.7620   22.7880   31.4580 C   0  0  0  0  0  0  0  0  0  0  0  0
   35.0440   23.5580   31.6380 H   0  0  0  0  0  0  0  0  0  0  0  0
   35.6270   21.4260   31.6210 C   0  0  0  0  0  0  0  0  0  0  0  0
   34.5450   20.7520   32.0480 N   0  0  0  0  0  0  0  0  0  0  0  0
   33.6150   21.1340   32.3330 H   0  0  0  0  0  0  0  0  0  0  0  0
   34.8870   19.4540   32.0420 C   0  0  0  0  0  0  0  0  0  0  0  0
   34.3040   18.5730   32.3170 H   0  0  0  0  0  0  0  0  0  0  0  0
   36.1830   19.2610   31.6160 C   0  0  0  0  0  3  0  0  0  0  0  0
   36.6530   20.5450   31.3460 C   0  0  0  0  0  0  0  0  0  0  0  0
   37.8630   21.0250   30.8930 C   0  0  0  0  0  3  0  0  0  0  0  0
  1  6  2  0  0  0  0
  1  2  1  0  0  0  0
  2  3  2  0  0  0  0
  3  4  1  0  0  0  0
  3  7  1  0  0  0  0
  4  8  1  0  0  0  0
  5  9  1  0  0  0  0
  5  4  2  0  0  0  0
  6  5  1  0  0  0  0
 10 11  1  0  0  0  0
 11  2  1  0  0  0  0
 11 12  2  0  0  0  0
 12 17  1  0  0  0  0
 13 12  1  0  0  0  0
 14 13  2  0  0  0  0
 15 10  2  0  0  0  0
 15 14  1  0  0  0  0
 16 10  1  0  0  0  0
 18 14  1  0  0  0  0
 19  1  1  0  0  0  0
 20 19  1  0  0  0  0
 21 23  1  0  0  0  0
 21  6  1  0  0  0  0
 22 33  2  0  0  0  0
 22 23  1  0  0  0  0
 23 24  2  0  0  0  0
 24 26  1  0  0  0  0
 24 25  1  0  0  0  0
 26 27  1  0  0  0  0
 27 28  1  0  0  0  0
 29 27  1  0  0  0  0
 29 30  1  0  0  0  0
 31 29  2  0  0  0  0
 32 31  1  0  0  0  0
 32 26  2  0  0  0  0
 33 32  1  0  0  0  0
M  END
>  <minimizedAffinity>
-5.57074213

$$$$

 OpenBabel03272501193D

 33 36  0  0  0  0  0  0  0  0999 V2000
   38.9060   26.7950   33.2160 C   0  0  0  0  0  0  0  0  0  0  0  0
   39.7000   26.7870   34.3350 C   0  0  0  0  0  0  0  0  0  0  0  0
   39.0720   27.2390   35.5040 C   0  0  0  0  0  0  0  0  0  0  0  0
   37.7380   27.6590   35.5020 C   0  0  0  0  0  0  0  0  0  0  0  0
   37.0210   27.6240   34.3010 C   0  0  0  0  0  0  0  0  0  0  0  0
   37.6120   27.1850   33.1390 C   0  0  0  0  0  0  0  0  0  0  0  0
   39.6320   27.2630   36.4310 H   0  0  0  0  0  0  0  0  0  0  0  0
   37.3110   27.9960   36.4400 H   0  0  0  0  0  0  0  0  0  0  0  0
   35.9940   27.9640   34.3810 H   0  0  0  0  0  0  0  0  0  0  0  0
   42.0800   27.1930   33.8710 C   0  0  0  0  0  0  0  0  0  0  0  0
   41.0710   26.3580   34.3480 C   0  0  0  0  0  0  0  0  0  0  0  0
   41.4520   25.1060   34.8320 C   0  0  0  0  0  0  0  0  0  0  0  0
   42.7760   24.7750   34.8090 N   0  0  0  0  0  0  0  0  0  0  0  0
   43.7200   25.6240   34.3350 C   0  0  0  0  0  0  0  0  0  0  0  0
   43.3710   26.8320   33.8670 N   0  0  0  0  0  0  0  0  0  0  0  0
   41.7550   28.1640   33.5000 H   0  0  0  0  0  0  0  0  0  0  0  0
   40.7130   24.4110   35.2160 H   0  0  0  0  0  0  0  0  0  0  0  0
   44.7690   25.3580   34.3190 H   0  0  0  0  0  0  0  0  0  0  0  0
   39.4590   26.3550   31.9980 O   0  0  0  0  0  0  0  0  0  0  0  0
   40.1510   26.8970   31.5060 H   0  0  0  0  0  0  0  0  0  0  0  0
   36.8630   27.1700   31.9830 O   0  0  0  0  0  0  0  0  0  0  0  0
   36.4440   29.3620   31.5340 C   0  0  0  0  0  3  0  0  0  0  0  0
   37.0050   28.1760   31.0470 C   0  0  0  0  0  0  0  0  0  0  0  0
   37.5800   28.1700   29.7950 C   0  0  0  0  0  0  0  0  0  0  0  0
   37.9730   27.2110   29.5360 H   0  0  0  0  0  0  0  0  0  0  0  0
   37.5860   29.3340   29.0580 C   0  0  0  0  0  0  0  0  0  0  0  0
   38.0950   29.5260   27.8280 N   0  0  0  0  0  0  0  0  0  0  0  0
   38.5750   28.8340   27.2110 H   0  0  0  0  0  0  0  0  0  0  0  0
   37.8650   30.8140   27.5260 C   0  0  0  0  0  0  0  0  0  0  0  0
   38.1170   31.3800   26.6280 H   0  0  0  0  0  0  0  0  0  0  0  0
   37.2110   31.4770   28.5420 C   0  0  0  0  0  3  0  0  0  0  0  0
   37.0350   30.5090   29.5290 C   0  0  0  0  0  0  0  0  0  0  0  0
   36.4540   30.5380   30.7790 C   0  0  0  0  0  3  0  0  0  0  0  0
  1  2  1  0  0  0  0
  2 11  1  0  0  0  0
  2  3  2  0  0  0  0
  3  7  1  0  0  0  0
  4  3  1  0  0  0  0
  4  8  1  0  0  0  0
  5  9  1  0  0  0  0
  5  4  2  0  0  0  0
  6  1  2  0  0  0  0
  6  5  1  0  0  0  0
 10 11  1  0  0  0  0
 11 12  2  0  0  0  0
 12 17  1  0  0  0  0
 13 12  1  0  0  0  0
 14 13  2  0  0  0  0
 15 10  2  0  0  0  0
 15 14  1  0  0  0  0
 16 10  1  0  0  0  0
 18 14  1  0  0  0  0
 19  1  1  0  0  0  0
 20 19  1  0  0  0  0
 21  6  1  0  0  0  0
 23 22  1  0  0  0  0
 23 21  1  0  0  0  0
 24 23  2  0  0  0  0
 25 24  1  0  0  0  0
 26 32  2  0  0  0  0
 26 24  1  0  0  0  0
 27 26  1  0  0  0  0
 28 27  1  0  0  0  0
 29 27  1  0  0  0  0
 29 31  2  0  0  0  0
 30 29  1  0  0  0  0
 31 32  1  0  0  0  0
 32 33  1  0  0  0  0
 33 22  2  0  0  0  0
M  END
>  <minimizedAffinity>
-5.45636749

$$$$

 OpenBabel03272501193D

 33 36  0  0  0  0  0  0  0  0999 V2000
   37.8140   25.6850   34.0670 C   0  0  0  0  0  0  0  0  0  0  0  0
   38.5330   25.5770   35.2300 C   0  0  0  0  0  0  0  0  0  0  0  0
   38.5050   26.7160   36.0460 C   0  0  0  0  0  0  0  0  0  0  0  0
   37.7910   27.8610   35.6780 C   0  0  0  0  0  0  0  0  0  0  0  0
   37.0920   27.8610   34.4660 C   0  0  0  0  0  0  0  0  0  0  0  0
   37.1020   26.7560   33.6460 C   0  0  0  0  0  0  0  0  0  0  0  0
   39.0480   26.7110   36.9840 H   0  0  0  0  0  0  0  0  0  0  0  0
   37.8090   28.7090   36.3550 H   0  0  0  0  0  0  0  0  0  0  0  0
   36.5640   28.7840   34.2520 H   0  0  0  0  0  0  0  0  0  0  0  0
   40.5950   24.2390   35.2240 C   0  0  0  0  0  0  0  0  0  0  0  0
   39.2680   24.4050   35.6180 C   0  0  0  0  0  0  0  0  0  0  0  0
   38.7000   23.3950   36.3950 C   0  0  0  0  0  0  0  0  0  0  0  0
   39.4690   22.3140   36.7190 N   0  0  0  0  0  0  0  0  0  0  0  0
   40.7560   22.2000   36.3120 C   0  0  0  0  0  0  0  0  0  0  0  0
   41.3170   23.1620   35.5650 N   0  0  0  0  0  0  0  0  0  0  0  0
   41.0140   25.0420   34.6190 H   0  0  0  0  0  0  0  0  0  0  0  0
   37.6720   23.4660   36.7310 H   0  0  0  0  0  0  0  0  0  0  0  0
   41.3620   21.3410   36.5720 H   0  0  0  0  0  0  0  0  0  0  0  0
   37.7890   24.5840   33.1890 O   0  0  0  0  0  0  0  0  0  0  0  0
   38.6000   24.3120   32.6580 H   0  0  0  0  0  0  0  0  0  0  0  0
   36.3970   26.8070   32.4640 O   0  0  0  0  0  0  0  0  0  0  0  0
   37.8610   27.2110   30.7690 C   0  0  0  0  0  3  0  0  0  0  0  0
   36.7580   27.7020   31.4750 C   0  0  0  0  0  0  0  0  0  0  0  0
   36.2190   28.9180   31.1170 C   0  0  0  0  0  0  0  0  0  0  0  0
   35.3840   29.1840   31.7280 H   0  0  0  0  0  0  0  0  0  0  0  0
   36.7840   29.6170   30.0730 C   0  0  0  0  0  0  0  0  0  0  0  0
   36.4050   30.8090   29.5800 N   0  0  0  0  0  0  0  0  0  0  0  0
   35.6170   31.4190   29.8960 H   0  0  0  0  0  0  0  0  0  0  0  0
   37.2490   31.0830   28.5730 C   0  0  0  0  0  0  0  0  0  0  0  0
   37.2920   31.9470   27.9080 H   0  0  0  0  0  0  0  0  0  0  0  0
   38.1830   30.0860   28.3930 C   0  0  0  0  0  3  0  0  0  0  0  0
   37.8730   29.1410   29.3700 C   0  0  0  0  0  0  0  0  0  0  0  0
   38.4280   27.9260   29.7100 C   0  0  0  0  0  3  0  0  0  0  0  0
  1  2  1  0  0  0  0
  2 11  1  0  0  0  0
  2  3  2  0  0  0  0
  3  7  1  0  0  0  0
  4  3  1  0  0  0  0
  4  8  1  0  0  0  0
  5  4  2  0  0  0  0
  6  1  2  0  0  0  0
  6  5  1  0  0  0  0
  9  5  1  0  0  0  0
 10 15  2  0  0  0  0
 10 11  1  0  0  0  0
 11 12  2  0  0  0  0
 12 13  1  0  0  0  0
 12 17  1  0  0  0  0
 14 18  1  0  0  0  0
 14 13  2  0  0  0  0
 15 14  1  0  0  0  0
 16 10  1  0  0  0  0
 19  1  1  0  0  0  0
 20 19  1  0  0  0  0
 21  6  1  0  0  0  0
 22 23  1  0  0  0  0
 23 21  1  0  0  0  0
 24 23  2  0  0  0  0
 24 25  1  0  0  0  0
 26 24  1  0  0  0  0
 27 28  1  0  0  0  0
 27 26  1  0  0  0  0
 29 27  1  0  0  0  0
 30 29  1  0  0  0  0
 31 29  2  0  0  0  0
 31 32  1  0  0  0  0
 32 33  1  0  0  0  0
 32 26  2  0  0  0  0
 33 22  2  0  0  0  0
M  END
>  <minimizedAffinity>
-5.42575026

$$$$

 OpenBabel03272501193D

 33 36  0  0  0  0  0  0  0  0999 V2000
   37.3120   26.3720   33.7170 C   0  0  0  0  0  0  0  0  0  0  0  0
   38.1600   25.4240   34.2300 C   0  0  0  0  0  0  0  0  0  0  0  0
   38.7800   25.7810   35.4360 C   0  0  0  0  0  0  0  0  0  0  0  0
   38.5340   27.0150   36.0470 C   0  0  0  0  0  0  0  0  0  0  0  0
   37.6490   27.9070   35.4340 C   0  0  0  0  0  0  0  0  0  0  0  0
   37.0260   27.5830   34.2500 C   0  0  0  0  0  0  0  0  0  0  0  0
   39.4650   25.0850   35.9070 H   0  0  0  0  0  0  0  0  0  0  0  0
   39.0450   27.2290   36.9800 H   0  0  0  0  0  0  0  0  0  0  0  0
   37.5100   28.8410   35.9680 H   0  0  0  0  0  0  0  0  0  0  0  0
   39.3390   24.0470   32.5700 C   0  0  0  0  0  0  0  0  0  0  0  0
   38.4190   24.1540   33.6120 C   0  0  0  0  0  0  0  0  0  0  0  0
   37.7740   22.9850   34.0180 C   0  0  0  0  0  0  0  0  0  0  0  0
   38.0770   21.8180   33.3770 N   0  0  0  0  0  0  0  0  0  0  0  0
   38.9810   21.7660   32.3680 C   0  0  0  0  0  0  0  0  0  0  0  0
   39.6110   22.8810   31.9670 N   0  0  0  0  0  0  0  0  0  0  0  0
   39.8290   24.9730   32.2740 H   0  0  0  0  0  0  0  0  0  0  0  0
   37.0470   23.0030   34.8220 H   0  0  0  0  0  0  0  0  0  0  0  0
   39.2190   20.8390   31.8630 H   0  0  0  0  0  0  0  0  0  0  0  0
   36.6480   26.0930   32.5080 O   0  0  0  0  0  0  0  0  0  0  0  0
   37.1400   26.0630   31.6290 H   0  0  0  0  0  0  0  0  0  0  0  0
   36.1630   28.4960   33.6870 O   0  0  0  0  0  0  0  0  0  0  0  0
   34.1520   29.2220   34.4690 C   0  0  0  0  0  3  0  0  0  0  0  0
   35.5340   29.4400   34.4770 C   0  0  0  0  0  0  0  0  0  0  0  0
   36.0450   30.4860   35.2130 C   0  0  0  0  0  0  0  0  0  0  0  0
   37.1090   30.5490   35.1400 H   0  0  0  0  0  0  0  0  0  0  0  0
   35.1790   31.2890   35.9230 C   0  0  0  0  0  0  0  0  0  0  0  0
   35.4820   32.3480   36.6930 N   0  0  0  0  0  0  0  0  0  0  0  0
   36.4240   32.7540   36.8940 H   0  0  0  0  0  0  0  0  0  0  0  0
   34.3150   32.8070   37.1740 C   0  0  0  0  0  0  0  0  0  0  0  0
   34.1120   33.6480   37.8390 H   0  0  0  0  0  0  0  0  0  0  0  0
   33.2430   32.0630   36.7310 C   0  0  0  0  0  3  0  0  0  0  0  0
   33.8130   31.0820   35.9210 C   0  0  0  0  0  0  0  0  0  0  0  0
   33.2800   30.0420   35.1910 C   0  0  0  0  0  3  0  0  0  0  0  0
  1  2  2  0  0  0  0
  1  6  1  0  0  0  0
  2  3  1  0  0  0  0
  3  7  1  0  0  0  0
  3  4  2  0  0  0  0
  4  8  1  0  0  0  0
  5  9  1  0  0  0  0
  5  4  1  0  0  0  0
  6  5  2  0  0  0  0
 10 11  1  0  0  0  0
 11 12  2  0  0  0  0
 11  2  1  0  0  0  0
 12 17  1  0  0  0  0
 13 12  1  0  0  0  0
 14 13  2  0  0  0  0
 15 14  1  0  0  0  0
 15 10  2  0  0  0  0
 16 10  1  0  0  0  0
 18 14  1  0  0  0  0
 19  1  1  0  0  0  0
 20 19  1  0  0  0  0
 21  6  1  0  0  0  0
 21 23  1  0  0  0  0
 22 23  2  0  0  0  0
 22 33  1  0  0  0  0
 23 24  1  0  0  0  0
 24 26  2  0  0  0  0
 25 24  1  0  0  0  0
 26 27  1  0  0  0  0
 27 28  1  0  0  0  0
 27 29  1  0  0  0  0
 29 30  1  0  0  0  0
 31 29  2  0  0  0  0
 32 26  1  0  0  0  0
 32 31  1  0  0  0  0
 33 32  2  0  0  0  0
M  END
>  <minimizedAffinity>
-5.41321421

$$$$
