
 OpenBabel03272510163D

 31 34  0  0  0  0  0  0  0  0999 V2000
   37.2900   29.3180   51.0110 Br  0  0  0  0  0  0  0  0  0  0  0  0
   35.9510   29.3290   49.6350 C   0  0  0  0  0  0  0  0  0  0  0  0
   35.9930   30.2570   48.6180 C   0  0  0  0  0  0  0  0  0  0  0  0
   34.9930   30.2000   47.6640 C   0  0  0  0  0  0  0  0  0  0  0  0
   33.9710   29.2660   47.6890 C   0  0  0  0  0  0  0  0  0  0  0  0
   33.9660   28.3610   48.7140 C   0  0  0  0  0  0  0  0  0  0  0  0
   34.9540   28.3980   49.6800 C   0  0  0  0  0  0  0  0  0  0  0  0
   34.9860   30.9080   46.8490 H   0  0  0  0  0  0  0  0  0  0  0  0
   33.1980   27.6180   48.7780 H   0  0  0  0  0  0  0  0  0  0  0  0
   34.9020   27.6610   50.4690 H   0  0  0  0  0  0  0  0  0  0  0  0
   32.3310   28.0970   46.2050 C   0  0  0  0  0  3  0  0  0  0  0  0
   32.9460   29.2360   46.6800 C   0  0  0  0  0  0  0  0  0  0  0  0
   32.5000   30.4060   46.1010 C   0  0  0  0  0  0  0  0  0  0  0  0
   32.9660   31.3330   46.4510 H   0  0  0  0  0  0  0  0  0  0  0  0
   31.5310   30.5270   45.1290 C   0  0  0  0  0  0  0  0  0  0  0  0
   31.0050   31.5810   44.4840 N   0  0  0  0  0  0  0  0  0  0  0  0
   31.3000   32.5670   44.6590 H   0  0  0  0  0  0  0  0  0  0  0  0
   30.0780   31.0620   43.6280 C   0  0  0  0  0  0  0  0  0  0  0  0
   29.5380   31.7740   43.0100 H   0  0  0  0  0  0  0  0  0  0  0  0
   30.0400   29.6900   43.7520 C   0  0  0  0  0  3  0  0  0  0  0  0
   30.9630   29.3200   44.7080 C   0  0  0  0  0  0  0  0  0  0  0  0
   31.3520   28.1090   45.2360 C   0  0  0  0  0  3  0  0  0  0  0  0
   37.9860   33.1870   49.4760 C   0  0  0  0  0  0  0  0  0  0  0  0
   39.0150   33.1880   48.5090 C   0  0  0  0  0  0  0  0  0  0  0  0
   39.0060   32.1700   47.5670 C   0  0  0  0  0  0  0  0  0  0  0  0
   38.0230   31.2220   47.6080 N   0  0  0  0  0  0  0  0  0  0  0  0
   37.0490   31.2560   48.5550 C   0  0  0  0  0  0  0  0  0  0  0  0
   37.0410   32.2470   49.4890 N   0  0  0  0  0  0  0  0  0  0  0  0
   37.9440   33.9660   50.2450 H   0  0  0  0  0  0  0  0  0  0  0  0
   39.7720   33.9600   48.5170 H   0  0  0  0  0  0  0  0  0  0  0  0
   39.7680   32.1180   46.8010 H   0  0  0  0  0  0  0  0  0  0  0  0
  2  7  1  0  0  0  0
  2  1  1  0  0  0  0
  3  2  2  0  0  0  0
  4  5  2  0  0  0  0
  4  3  1  0  0  0  0
  5  6  1  0  0  0  0
  6  9  1  0  0  0  0
  6  7  2  0  0  0  0
  7 10  1  0  0  0  0
  8  4  1  0  0  0  0
 11 12  1  0  0  0  0
 12  5  1  0  0  0  0
 13 14  1  0  0  0  0
 13 12  2  0  0  0  0
 15 13  1  0  0  0  0
 16 17  1  0  0  0  0
 16 15  1  0  0  0  0
 18 20  2  0  0  0  0
 18 16  1  0  0  0  0
 19 18  1  0  0  0  0
 20 21  1  0  0  0  0
 21 15  2  0  0  0  0
 21 22  1  0  0  0  0
 22 11  2  0  0  0  0
 23 28  1  0  0  0  0
 23 29  1  0  0  0  0
 24 30  1  0  0  0  0
 24 23  2  0  0  0  0
 25 26  2  0  0  0  0
 25 24  1  0  0  0  0
 26 27  1  0  0  0  0
 27  3  1  0  0  0  0
 27 28  2  0  0  0  0
 31 25  1  0  0  0  0
M  END
>  <minimizedAffinity>
-6.21854305

>  <minimizedRMSD>
0.17098625

$$$$
