
 OpenBabel03262522143D

 48 52  0  0  1  0  0  0  0  0999 V2000
   39.3950   33.0300   43.9200 C   0  0  0  0  0  0  0  0  0  0  0  0
   38.3500   32.8570   44.1870 H   0  0  0  0  0  0  0  0  0  0  0  0
   39.4640   33.8840   43.1960 H   0  0  0  0  0  0  0  0  0  0  0  0
   39.2460   29.7160   42.6860 C   0  0  1  0  0  0  0  0  0  0  0  0
   39.0500   31.1730   42.2990 C   0  0  0  0  0  0  0  0  0  0  0  0
   40.0300   31.8460   43.2350 C   0  0  2  0  0  0  0  0  0  0  0  0
   40.4890   30.9180   44.1260 O   0  0  0  0  0  0  0  0  0  0  0  0
   39.5870   29.8640   44.1610 C   0  0  0  0  0  0  0  0  0  0  0  0
   40.1550   29.3100   42.1950 H   0  0  0  0  0  0  0  0  0  0  0  0
   39.3880   31.2710   41.2460 H   0  0  0  0  0  0  0  0  0  0  0  0
   38.0190   31.4730   42.4840 H   0  0  0  0  0  0  0  0  0  0  0  0
   40.9030   32.1930   42.6390 H   0  0  0  0  0  0  0  0  0  0  0  0
   40.0230   28.9650   44.5980 H   0  0  0  0  0  0  0  0  0  0  0  0
   38.6480   30.1630   44.6610 H   0  0  0  0  0  0  0  0  0  0  0  0
   38.0940   28.9770   42.5050 O   0  0  0  0  0  0  0  0  0  0  0  0
   36.5880   27.2050   42.8020 C   0  0  0  0  0  3  0  0  0  0  0  0
   37.8980   27.6540   42.7570 C   0  0  0  0  0  0  0  0  0  0  0  0
   38.9050   26.7340   42.9700 C   0  0  0  0  0  0  0  0  0  0  0  0
   39.9220   27.0560   42.9400 H   0  0  0  0  0  0  0  0  0  0  0  0
   38.7110   25.3850   43.2280 C   0  0  0  0  0  0  0  0  0  0  0  0
   39.5490   24.3600   43.4560 N   0  0  0  0  0  0  0  0  0  0  0  0
   40.5950   24.3830   43.4850 H   0  0  0  0  0  0  0  0  0  0  0  0
   38.7820   23.2490   43.6490 C   0  0  0  0  0  0  0  0  0  0  0  0
   39.1480   22.2470   43.8560 H   0  0  0  0  0  0  0  0  0  0  0  0
   37.4420   23.6090   43.5340 C   0  0  0  0  0  3  0  0  0  0  0  0
   37.3820   24.9610   43.2680 C   0  0  0  0  0  0  0  0  0  0  0  0
   36.3600   25.8510   43.0610 C   0  0  0  0  0  3  0  0  0  0  0  0
   40.4540   33.4810   45.3280 S   0  0  0  0  0  0  0  0  0  0  0  0
   37.7750   31.8520   47.7650 C   0  0  0  0  0  0  0  0  0  0  0  0
   37.9550   32.5300   48.9840 C   0  0  0  0  0  0  0  0  0  0  0  0
   38.9190   33.5210   49.0970 C   0  0  0  0  0  0  0  0  0  0  0  0
   39.6570   33.7870   47.9790 C   0  0  0  0  0  0  0  0  0  0  0  0
   39.4600   33.1150   46.8120 C   0  0  0  0  0  0  0  0  0  0  0  0
   38.5270   32.1440   46.6780 N   0  0  0  0  0  0  0  0  0  0  0  0
   37.3480   32.2870   49.8460 H   0  0  0  0  0  0  0  0  0  0  0  0
   39.1100   34.0790   49.9970 H   0  0  0  0  0  0  0  0  0  0  0  0
   40.4400   34.5490   47.9630 H   0  0  0  0  0  0  0  0  0  0  0  0
   36.7570   30.8370   47.7240 C   0  0  0  0  0  0  0  0  0  0  0  0
   36.3360   30.3990   46.6550 O   0  0  0  0  0  0  0  0  0  0  0  0
   37.0280   29.6250   49.8580 C   0  0  0  0  0  0  0  0  0  0  0  0
   36.1590   30.2610   48.9400 C   0  0  0  0  0  0  0  0  0  0  0  0
   34.7940   30.3140   49.2180 C   0  0  0  0  0  0  0  0  0  0  0  0
   34.3370   29.7470   50.3760 N   0  0  0  0  0  0  0  0  0  0  0  0
   35.1880   29.1460   51.2370 C   0  0  0  0  0  0  0  0  0  0  0  0
   36.5060   29.0870   50.9830 N   0  0  0  0  0  0  0  0  0  0  0  0
   38.0890   29.5470   49.7080 H   0  0  0  0  0  0  0  0  0  0  0  0
   34.1580   30.8050   48.4980 H   0  0  0  0  0  0  0  0  0  0  0  0
   34.7060   28.7330   52.1230 H   0  0  0  0  0  0  0  0  0  0  0  0
  1  2  1  0  0  0  0
  1 28  1  0  0  0  0
  3  1  1  0  0  0  0
  4  9  1  6  0  0  0
  4  8  1  0  0  0  0
  5 11  1  0  0  0  0
  5  4  1  0  0  0  0
  5  6  1  0  0  0  0
  6 12  1  6  0  0  0
  6  1  1  0  0  0  0
  6  7  1  0  0  0  0
  7  8  1  0  0  0  0
  8 13  1  0  0  0  0
  8 14  1  0  0  0  0
 10  5  1  0  0  0  0
 15  4  1  0  0  0  0
 15 17  1  0  0  0  0
 16 27  1  0  0  0  0
 17 16  2  0  0  0  0
 17 18  1  0  0  0  0
 18 20  2  0  0  0  0
 19 18  1  0  0  0  0
 20 26  1  0  0  0  0
 20 21  1  0  0  0  0
 21 22  1  0  0  0  0
 21 23  1  0  0  0  0
 23 24  1  0  0  0  0
 25 23  2  0  0  0  0
 26 25  1  0  0  0  0
 27 26  2  0  0  0  0
 28 33  1  0  0  0  0
 29 30  1  0  0  0  0
 30 31  2  0  0  0  0
 30 35  1  0  0  0  0
 31 36  1  0  0  0  0
 32 31  1  0  0  0  0
 33 32  2  0  0  0  0
 34 33  1  0  0  0  0
 34 29  2  0  0  0  0
 37 32  1  0  0  0  0
 38 29  1  0  0  0  0
 38 41  1  0  0  0  0
 39 38  2  0  0  0  0
 40 45  1  0  0  0  0
 41 42  1  0  0  0  0
 41 40  2  0  0  0  0
 42 43  2  0  0  0  0
 43 44  1  0  0  0  0
 44 48  1  0  0  0  0
 45 44  2  0  0  0  0
 46 40  1  0  0  0  0
 47 42  1  0  0  0  0
M  END
>  <minimizedAffinity>
-5.95562792

>  <minimizedRMSD>
1.89700139

$$$$
