
 OpenBabel03272510163D

 31 34  0  0  0  0  0  0  0  0999 V2000
   37.3280   29.3440   51.0490 Br  0  0  0  0  0  0  0  0  0  0  0  0
   35.9690   29.3400   49.6920 C   0  0  0  0  0  0  0  0  0  0  0  0
   35.9980   30.2560   48.6640 C   0  0  0  0  0  0  0  0  0  0  0  0
   34.9850   30.1890   47.7250 C   0  0  0  0  0  0  0  0  0  0  0  0
   33.9630   29.2560   47.7750 C   0  0  0  0  0  0  0  0  0  0  0  0
   33.9710   28.3640   48.8100 C   0  0  0  0  0  0  0  0  0  0  0  0
   34.9730   28.4100   49.7620 C   0  0  0  0  0  0  0  0  0  0  0  0
   34.9670   30.8870   46.9010 H   0  0  0  0  0  0  0  0  0  0  0  0
   33.2030   27.6220   48.8940 H   0  0  0  0  0  0  0  0  0  0  0  0
   34.9310   27.6840   50.5600 H   0  0  0  0  0  0  0  0  0  0  0  0
   32.9320   29.9200   45.5940 C   0  0  0  0  0  3  0  0  0  0  0  0
   32.9240   29.2160   46.7800 C   0  0  0  0  0  0  0  0  0  0  0  0
   31.8060   28.4300   46.9670 C   0  0  0  0  0  0  0  0  0  0  0  0
   31.7640   27.8550   47.8970 H   0  0  0  0  0  0  0  0  0  0  0  0
   30.7390   28.2950   46.1060 C   0  0  0  0  0  0  0  0  0  0  0  0
   29.6040   27.5800   46.1560 N   0  0  0  0  0  0  0  0  0  0  0  0
   29.3530   26.9560   46.9540 H   0  0  0  0  0  0  0  0  0  0  0  0
   28.9410   27.8630   44.9970 C   0  0  0  0  0  0  0  0  0  0  0  0
   27.9830   27.3690   44.8560 H   0  0  0  0  0  0  0  0  0  0  0  0
   29.6740   28.7520   44.2410 C   0  0  0  0  0  3  0  0  0  0  0  0
   30.8330   29.0470   44.9290 C   0  0  0  0  0  0  0  0  0  0  0  0
   31.9150   29.8560   44.6660 C   0  0  0  0  0  3  0  0  0  0  0  0
   38.0020   33.1980   49.4540 C   0  0  0  0  0  0  0  0  0  0  0  0
   39.0220   33.1820   48.4780 C   0  0  0  0  0  0  0  0  0  0  0  0
   39.0040   32.1490   47.5540 C   0  0  0  0  0  0  0  0  0  0  0  0
   38.0200   31.2020   47.6190 N   0  0  0  0  0  0  0  0  0  0  0  0
   37.0550   31.2530   48.5750 C   0  0  0  0  0  0  0  0  0  0  0  0
   37.0560   32.2590   49.4910 N   0  0  0  0  0  0  0  0  0  0  0  0
   37.9670   33.9910   50.2100 H   0  0  0  0  0  0  0  0  0  0  0  0
   39.7800   33.9530   48.4660 H   0  0  0  0  0  0  0  0  0  0  0  0
   39.7580   32.0830   46.7820 H   0  0  0  0  0  0  0  0  0  0  0  0
  2  7  1  0  0  0  0
  2  1  1  0  0  0  0
  3  2  2  0  0  0  0
  4  5  2  0  0  0  0
  4  3  1  0  0  0  0
  5  6  1  0  0  0  0
  6  9  1  0  0  0  0
  6  7  2  0  0  0  0
  7 10  1  0  0  0  0
  8  4  1  0  0  0  0
 11 12  1  0  0  0  0
 12 13  2  0  0  0  0
 12  5  1  0  0  0  0
 13 14  1  0  0  0  0
 15 16  1  0  0  0  0
 15 13  1  0  0  0  0
 16 17  1  0  0  0  0
 18 16  1  0  0  0  0
 19 18  1  0  0  0  0
 20 21  1  0  0  0  0
 20 18  2  0  0  0  0
 21 15  2  0  0  0  0
 22 21  1  0  0  0  0
 22 11  2  0  0  0  0
 23 28  1  0  0  0  0
 23 29  1  0  0  0  0
 24 23  2  0  0  0  0
 25 26  2  0  0  0  0
 25 24  1  0  0  0  0
 26 27  1  0  0  0  0
 27  3  1  0  0  0  0
 27 28  2  0  0  0  0
 30 24  1  0  0  0  0
 31 25  1  0  0  0  0
M  END
>  <minimizedAffinity>
-6.14748287

>  <minimizedRMSD>
0.473494917

$$$$
