
 OpenBabel03272508563D

 43 47  0  0  1  0  0  0  0  0999 V2000
   39.1700   31.4560   43.3860 C   0  0  0  0  0  0  0  0  0  0  0  0
   40.1530   30.5060   43.5430 C   0  0  0  0  0  0  0  0  0  0  0  0
   40.8670   30.1350   42.4290 C   0  0  0  0  0  0  0  0  0  0  0  0
   40.5620   30.7280   41.2230 C   0  0  0  0  0  0  0  0  0  0  0  0
   39.5770   31.6810   41.0590 C   0  0  0  0  0  0  0  0  0  0  0  0
   38.9020   32.0130   42.1830 N   0  0  0  0  0  0  0  0  0  0  0  0
   40.3940   30.0380   44.4870 H   0  0  0  0  0  0  0  0  0  0  0  0
   41.6590   29.3810   42.5180 H   0  0  0  0  0  0  0  0  0  0  0  0
   41.1480   30.4080   40.3620 H   0  0  0  0  0  0  0  0  0  0  0  0
   38.3890   31.8640   44.5730 C   0  0  0  0  0  0  0  0  0  0  0  0
   37.2820   32.4330   44.4490 O   0  0  0  0  0  0  0  0  0  0  0  0
   38.9310   31.5910   45.8710 N   0  0  0  0  0  0  0  0  0  0  0  0
   39.9090   31.3100   46.0370 H   0  0  0  0  0  0  0  0  0  0  0  0
   38.4160   31.1070   48.2590 C   0  0  2  0  0  0  0  0  0  0  0  0
   38.6490   32.5720   48.1570 C   0  0  0  0  0  0  0  0  0  0  0  0
   38.0610   31.7180   47.0190 C   0  0  1  0  0  0  0  0  0  0  0  0
   39.3380   30.4930   48.3510 H   0  0  0  0  0  0  0  0  0  0  0  0
   37.9620   33.2200   48.7360 H   0  0  0  0  0  0  0  0  0  0  0  0
   39.6740   32.9200   48.0910 H   0  0  0  0  0  0  0  0  0  0  0  0
   36.9960   31.9900   46.8140 H   0  0  0  0  0  0  0  0  0  0  0  0
   35.0500   30.1980   49.5440 C   0  0  0  0  0  0  0  0  0  0  0  0
   35.3770   29.5700   50.7880 C   0  0  0  0  0  0  0  0  0  0  0  0
   36.7750   29.4790   51.1680 C   0  0  0  0  0  0  0  0  0  0  0  0
   37.7230   29.9970   50.3250 N   0  0  0  0  0  0  0  0  0  0  0  0
   37.3300   30.5790   49.1580 C   0  0  0  0  0  0  0  0  0  0  0  0
   36.0090   30.6980   48.7360 N   0  0  0  0  0  0  0  0  0  0  0  0
   33.9980   30.2330   49.3160 H   0  0  0  0  0  0  0  0  0  0  0  0
   34.6230   29.1700   51.4430 H   0  0  0  0  0  0  0  0  0  0  0  0
   37.0130   29.0070   52.0960 H   0  0  0  0  0  0  0  0  0  0  0  0
   39.2520   32.2850   39.7770 C   0  0  0  0  0  0  0  0  0  0  0  0
   38.6290   33.3720   39.7440 O   0  0  0  0  0  0  0  0  0  0  0  0
   38.9380   30.6010   37.9160 C   0  0  0  0  0  3  0  0  0  0  0  0
   39.6230   31.6740   38.5060 C   0  0  0  0  0  0  0  0  0  0  0  0
   40.7040   32.1400   37.7890 C   0  0  0  0  0  0  0  0  0  0  0  0
   41.2370   32.9840   38.2520 H   0  0  0  0  0  0  0  0  0  0  0  0
   41.1770   31.6800   36.5840 C   0  0  0  0  0  0  0  0  0  0  0  0
   42.2100   32.0660   35.8180 N   0  0  0  0  0  0  0  0  0  0  0  0
   42.8630   32.8440   36.0510 H   0  0  0  0  0  0  0  0  0  0  0  0
   42.1690   31.2220   34.7420 C   0  0  0  0  0  0  0  0  0  0  0  0
   42.8920   31.2760   33.9170 H   0  0  0  0  0  0  0  0  0  0  0  0
   41.1220   30.3390   34.8580 C   0  0  0  0  0  3  0  0  0  0  0  0
   40.4620   30.6270   36.0590 C   0  0  0  0  0  0  0  0  0  0  0  0
   39.3670   30.0810   36.6870 C   0  0  0  0  0  3  0  0  0  0  0  0
  1  2  1  0  0  0  0
  1 10  1  0  0  0  0
  2  7  1  0  0  0  0
  3  8  1  0  0  0  0
  3  2  2  0  0  0  0
  4  3  1  0  0  0  0
  5  4  2  0  0  0  0
  5  6  1  0  0  0  0
  6  1  2  0  0  0  0
  9  4  1  0  0  0  0
 10 12  1  0  0  0  0
 11 10  2  0  0  0  0
 12 13  1  0  0  0  0
 12 16  1  0  0  0  0
 14 17  1  6  0  0  0
 14 25  1  0  0  0  0
 15 14  1  0  0  0  0
 15 18  1  0  0  0  0
 16 20  1  6  0  0  0
 16 15  1  0  0  0  0
 16 14  1  0  0  0  0
 19 15  1  0  0  0  0
 21 22  1  0  0  0  0
 22 23  2  0  0  0  0
 22 28  1  0  0  0  0
 23 29  1  0  0  0  0
 24 23  1  0  0  0  0
 25 24  2  0  0  0  0
 26 25  1  0  0  0  0
 26 21  2  0  0  0  0
 27 21  1  0  0  0  0
 30  5  1  0  0  0  0
 31 30  2  0  0  0  0
 32 33  1  0  0  0  0
 33 30  1  0  0  0  0
 34 35  1  0  0  0  0
 34 33  2  0  0  0  0
 36 34  1  0  0  0  0
 37 38  1  0  0  0  0
 37 36  1  0  0  0  0
 39 41  2  0  0  0  0
 39 37  1  0  0  0  0
 40 39  1  0  0  0  0
 41 42  1  0  0  0  0
 42 36  2  0  0  0  0
 42 43  1  0  0  0  0
 43 32  2  0  0  0  0
M  END
>  <minimizedAffinity>
-5.00006342

>  <minimizedRMSD>
0.887609899

$$$$
