
 OpenBabel03272507353D

 39 43  0  0  1  0  0  0  0  0999 V2000
   37.0360   26.8630   32.7230 C   0  0  0  0  0  0  0  0  0  0  0  0
   36.2990   26.0260   32.1180 O   0  0  0  0  0  0  0  0  0  0  0  0
   38.0480   25.3780   35.8150 C   0  0  0  0  0  0  0  0  0  0  0  0
   38.2660   26.6990   36.1340 C   0  0  0  0  0  0  0  0  0  0  0  0
   37.9170   27.4670   35.0130 C   0  0  0  0  0  0  0  0  0  0  0  0
   37.5050   26.5480   34.0690 C   0  0  0  0  0  0  0  0  0  0  0  0
   37.5990   25.3400   34.5820 O   0  0  0  0  0  0  0  0  0  0  0  0
   38.6340   27.1580   37.0540 H   0  0  0  0  0  0  0  0  0  0  0  0
   37.9430   28.5360   34.8560 H   0  0  0  0  0  0  0  0  0  0  0  0
   38.3060   24.2990   36.7540 C   0  0  0  0  0  0  0  0  0  0  0  0
   37.4700   24.0520   37.6350 O   0  0  0  0  0  0  0  0  0  0  0  0
   39.5360   23.5760   36.5970 C   0  0  0  0  0  0  0  0  0  0  0  0
   39.8590   22.6670   37.5920 C   0  0  0  0  0  0  0  0  0  0  0  0
   41.0540   21.9480   37.4680 C   0  0  0  0  0  0  0  0  0  0  0  0
   41.8440   22.1820   36.3650 N   0  0  0  0  0  0  0  0  0  0  0  0
   41.4940   23.0670   35.4290 C   0  0  0  0  0  0  0  0  0  0  0  0
   40.3510   23.7620   35.5370 N   0  0  0  0  0  0  0  0  0  0  0  0
   39.2150   22.5070   38.4450 H   0  0  0  0  0  0  0  0  0  0  0  0
   41.3310   21.2320   38.2280 H   0  0  0  0  0  0  0  0  0  0  0  0
   42.1150   23.2510   34.5620 H   0  0  0  0  0  0  0  0  0  0  0  0
   37.4180   28.1430   32.0620 C   0  0  1  0  0  0  0  0  0  0  0  0
   36.5530   28.3860   30.7630 C   0  0  0  0  0  0  0  0  0  0  0  0
   36.4920   29.2690   31.9230 C   0  0  1  0  0  0  0  0  0  0  0  0
   38.4940   28.1780   31.7570 H   0  0  0  0  0  0  0  0  0  0  0  0
   37.1160   28.6990   29.8610 H   0  0  0  0  0  0  0  0  0  0  0  0
   35.7990   27.6250   30.5270 H   0  0  0  0  0  0  0  0  0  0  0  0
   37.0550   30.2550   31.8280 H   0  0  0  0  0  0  0  0  0  0  0  0
   35.3620   29.9680   34.0130 C   0  0  0  0  0  3  0  0  0  0  0  0
   35.2530   29.4140   32.7320 C   0  0  0  0  0  0  0  0  0  0  0  0
   33.9660   29.0790   32.3680 C   0  0  0  0  0  0  0  0  0  0  0  0
   33.8400   28.6600   31.3830 H   0  0  0  0  0  0  0  0  0  0  0  0
   32.9030   29.2820   33.2080 C   0  0  0  0  0  0  0  0  0  0  0  0
   31.5970   29.0030   32.9880 N   0  0  0  0  0  0  0  0  0  0  0  0
   31.1940   28.5790   32.1110 H   0  0  0  0  0  0  0  0  0  0  0  0
   30.8700   29.3530   34.0650 C   0  0  0  0  0  0  0  0  0  0  0  0
   29.8050   29.2290   34.1280 H   0  0  0  0  0  0  0  0  0  0  0  0
   31.7530   29.8660   34.9880 C   0  0  0  0  0  3  0  0  0  0  0  0
   33.0360   29.8210   34.4480 C   0  0  0  0  0  0  0  0  0  0  0  0
   34.2860   30.1680   34.8510 C   0  0  0  0  0  3  0  0  0  0  0  0
  1  6  1  0  0  0  0
  2  1  2  0  0  0  0
  3  4  2  0  0  0  0
  3 10  1  0  0  0  0
  4  8  1  0  0  0  0
  5  4  1  0  0  0  0
  6  7  1  0  0  0  0
  6  5  2  0  0  0  0
  7  3  1  0  0  0  0
  9  5  1  0  0  0  0
 10 11  2  0  0  0  0
 12 10  1  0  0  0  0
 12 13  1  0  0  0  0
 13 18  1  0  0  0  0
 14 13  2  0  0  0  0
 14 19  1  0  0  0  0
 15 14  1  0  0  0  0
 16 17  1  0  0  0  0
 16 15  2  0  0  0  0
 17 12  2  0  0  0  0
 20 16  1  0  0  0  0
 21 24  1  6  0  0  0
 21  1  1  0  0  0  0
 22 23  1  0  0  0  0
 22 21  1  0  0  0  0
 23 27  1  6  0  0  0
 23 21  1  0  0  0  0
 23 29  1  0  0  0  0
 25 22  1  0  0  0  0
 26 22  1  0  0  0  0
 28 39  1  0  0  0  0
 29 28  2  0  0  0  0
 30 29  1  0  0  0  0
 30 32  2  0  0  0  0
 31 30  1  0  0  0  0
 32 38  1  0  0  0  0
 33 32  1  0  0  0  0
 33 35  1  0  0  0  0
 34 33  1  0  0  0  0
 35 36  1  0  0  0  0
 35 37  2  0  0  0  0
 38 39  2  0  0  0  0
 38 37  1  0  0  0  0
M  END
>  <minimizedAffinity>
-6.3427763

$$$$

 OpenBabel03272507353D

 39 43  0  0  1  0  0  0  0  0999 V2000
   36.8550   27.8310   33.4580 C   0  0  0  0  0  0  0  0  0  0  0  0
   35.7150   28.3690   33.6050 O   0  0  0  0  0  0  0  0  0  0  0  0
   37.9180   25.5000   35.9530 C   0  0  0  0  0  0  0  0  0  0  0  0
   38.6050   26.6090   36.3940 C   0  0  0  0  0  0  0  0  0  0  0  0
   38.3090   27.6640   35.5180 C   0  0  0  0  0  0  0  0  0  0  0  0
   37.4500   27.1190   34.5850 C   0  0  0  0  0  0  0  0  0  0  0  0
   37.2510   25.8520   34.8790 O   0  0  0  0  0  0  0  0  0  0  0  0
   39.2710   26.7410   37.2490 H   0  0  0  0  0  0  0  0  0  0  0  0
   38.6440   28.6920   35.5140 H   0  0  0  0  0  0  0  0  0  0  0  0
   37.9950   24.2190   36.6330 C   0  0  0  0  0  0  0  0  0  0  0  0
   37.1130   23.9130   37.4490 O   0  0  0  0  0  0  0  0  0  0  0  0
   39.1100   23.3730   36.3110 C   0  0  0  0  0  0  0  0  0  0  0  0
   39.8510   22.8810   37.3730 C   0  0  0  0  0  0  0  0  0  0  0  0
   40.9450   22.0550   37.0910 C   0  0  0  0  0  0  0  0  0  0  0  0
   41.2270   21.7760   35.7720 N   0  0  0  0  0  0  0  0  0  0  0  0
   40.4860   22.2710   34.7780 C   0  0  0  0  0  0  0  0  0  0  0  0
   39.4340   23.0630   35.0370 N   0  0  0  0  0  0  0  0  0  0  0  0
   39.6010   23.1200   38.3970 H   0  0  0  0  0  0  0  0  0  0  0  0
   41.5400   21.6570   37.8990 H   0  0  0  0  0  0  0  0  0  0  0  0
   40.7070   22.0520   33.7420 H   0  0  0  0  0  0  0  0  0  0  0  0
   37.5670   27.9220   32.1510 C   0  0  1  0  0  0  0  0  0  0  0  0
   38.9660   27.1920   32.2210 C   0  0  0  0  0  0  0  0  0  0  0  0
   37.8890   26.7440   31.3430 C   0  0  1  0  0  0  0  0  0  0  0  0
   37.7570   28.9750   31.8250 H   0  0  0  0  0  0  0  0  0  0  0  0
   39.8230   27.7530   31.7990 H   0  0  0  0  0  0  0  0  0  0  0  0
   39.2230   26.7140   33.1750 H   0  0  0  0  0  0  0  0  0  0  0  0
   37.9990   27.0170   30.2420 H   0  0  0  0  0  0  0  0  0  0  0  0
   35.9180   25.2710   31.0630 C   0  0  0  0  0  3  0  0  0  0  0  0
   37.2310   25.4230   31.5220 C   0  0  0  0  0  0  0  0  0  0  0  0
   37.7690   24.2850   32.0870 C   0  0  0  0  0  0  0  0  0  0  0  0
   38.7830   24.3590   32.4420 H   0  0  0  0  0  0  0  0  0  0  0  0
   37.0540   23.1190   32.1760 C   0  0  0  0  0  0  0  0  0  0  0  0
   37.4480   21.9350   32.7000 N   0  0  0  0  0  0  0  0  0  0  0  0
   38.3900   21.7300   33.1280 H   0  0  0  0  0  0  0  0  0  0  0  0
   36.4510   21.0380   32.5960 C   0  0  0  0  0  0  0  0  0  0  0  0
   36.5250   20.0230   32.9430 H   0  0  0  0  0  0  0  0  0  0  0  0
   35.4000   21.6840   31.9870 C   0  0  0  0  0  3  0  0  0  0  0  0
   35.7800   22.9980   31.7220 C   0  0  0  0  0  0  0  0  0  0  0  0
   35.2080   24.0930   31.1570 C   0  0  0  0  0  3  0  0  0  0  0  0
  1  2  2  0  0  0  0
  1  6  1  0  0  0  0
  3  4  2  0  0  0  0
  3 10  1  0  0  0  0
  4  8  1  0  0  0  0
  5  4  1  0  0  0  0
  6  7  1  0  0  0  0
  6  5  2  0  0  0  0
  7  3  1  0  0  0  0
  9  5  1  0  0  0  0
 10 11  2  0  0  0  0
 12 10  1  0  0  0  0
 12 13  1  0  0  0  0
 13 18  1  0  0  0  0
 14 13  2  0  0  0  0
 14 19  1  0  0  0  0
 15 14  1  0  0  0  0
 16 17  1  0  0  0  0
 16 15  2  0  0  0  0
 17 12  2  0  0  0  0
 20 16  1  0  0  0  0
 21 24  1  6  0  0  0
 21 22  1  0  0  0  0
 21  1  1  0  0  0  0
 22 26  1  0  0  0  0
 23 27  1  6  0  0  0
 23 29  1  0  0  0  0
 23 21  1  0  0  0  0
 23 22  1  0  0  0  0
 25 22  1  0  0  0  0
 28 39  2  0  0  0  0
 28 29  1  0  0  0  0
 29 30  2  0  0  0  0
 30 32  1  0  0  0  0
 30 31  1  0  0  0  0
 32 33  1  0  0  0  0
 33 34  1  0  0  0  0
 35 33  1  0  0  0  0
 35 36  1  0  0  0  0
 37 35  2  0  0  0  0
 38 37  1  0  0  0  0
 38 32  2  0  0  0  0
 39 38  1  0  0  0  0
M  END
>  <minimizedAffinity>
-6.26284266

$$$$

 OpenBabel03272507353D

 39 43  0  0  1  0  0  0  0  0999 V2000
   36.6170   28.2180   33.1560 C   0  0  0  0  0  0  0  0  0  0  0  0
   35.9260   28.7980   34.0480 O   0  0  0  0  0  0  0  0  0  0  0  0
   38.2080   25.2210   34.2820 C   0  0  0  0  0  0  0  0  0  0  0  0
   39.3330   25.9580   33.9870 C   0  0  0  0  0  0  0  0  0  0  0  0
   38.9050   27.2080   33.5140 C   0  0  0  0  0  0  0  0  0  0  0  0
   37.5270   27.1480   33.5510 C   0  0  0  0  0  0  0  0  0  0  0  0
   37.1650   25.9670   34.0070 O   0  0  0  0  0  0  0  0  0  0  0  0
   40.3920   25.7080   34.0720 H   0  0  0  0  0  0  0  0  0  0  0  0
   39.4710   28.0660   33.1790 H   0  0  0  0  0  0  0  0  0  0  0  0
   38.2840   23.8650   34.8010 C   0  0  0  0  0  0  0  0  0  0  0  0
   38.1560   22.9110   34.0200 O   0  0  0  0  0  0  0  0  0  0  0  0
   38.5050   23.7160   36.2110 C   0  0  0  0  0  0  0  0  0  0  0  0
   39.6190   22.9900   36.5970 C   0  0  0  0  0  0  0  0  0  0  0  0
   39.8600   22.8250   37.9660 C   0  0  0  0  0  0  0  0  0  0  0  0
   38.9770   23.3940   38.8560 N   0  0  0  0  0  0  0  0  0  0  0  0
   37.9140   24.0870   38.4410 C   0  0  0  0  0  0  0  0  0  0  0  0
   37.6730   24.2510   37.1310 N   0  0  0  0  0  0  0  0  0  0  0  0
   40.2930   22.5570   35.8720 H   0  0  0  0  0  0  0  0  0  0  0  0
   40.7220   22.2640   38.2970 H   0  0  0  0  0  0  0  0  0  0  0  0
   37.2190   24.5330   39.1400 H   0  0  0  0  0  0  0  0  0  0  0  0
   36.4920   28.6250   31.7270 C   0  0  1  0  0  0  0  0  0  0  0  0
   37.8390   28.3560   30.9450 C   0  0  0  0  0  0  0  0  0  0  0  0
   36.5930   27.6690   30.6210 C   0  0  1  0  0  0  0  0  0  0  0  0
   36.2430   29.7070   31.5960 H   0  0  0  0  0  0  0  0  0  0  0  0
   38.1950   29.1830   30.3010 H   0  0  0  0  0  0  0  0  0  0  0  0
   38.6580   27.9070   31.5210 H   0  0  0  0  0  0  0  0  0  0  0  0
   36.0410   28.0470   29.6990 H   0  0  0  0  0  0  0  0  0  0  0  0
   35.1650   25.6960   31.0720 C   0  0  0  0  0  3  0  0  0  0  0  0
   36.4400   26.2000   30.7930 C   0  0  0  0  0  0  0  0  0  0  0  0
   37.4200   25.2350   30.6930 C   0  0  0  0  0  0  0  0  0  0  0  0
   38.4140   25.5830   30.4670 H   0  0  0  0  0  0  0  0  0  0  0  0
   37.1400   23.9040   30.8590 C   0  0  0  0  0  0  0  0  0  0  0  0
   37.9930   22.8550   30.7910 N   0  0  0  0  0  0  0  0  0  0  0  0
   39.0280   22.9100   30.5940 H   0  0  0  0  0  0  0  0  0  0  0  0
   37.3230   21.7090   31.0140 C   0  0  0  0  0  0  0  0  0  0  0  0
   37.7860   20.7400   31.0100 H   0  0  0  0  0  0  0  0  0  0  0  0
   36.0080   22.0560   31.2280 C   0  0  0  0  0  3  0  0  0  0  0  0
   35.8930   23.4410   31.1300 C   0  0  0  0  0  0  0  0  0  0  0  0
   34.8930   24.3550   31.2370 C   0  0  0  0  0  3  0  0  0  0  0  0
  1  6  1  0  0  0  0
  1  2  2  0  0  0  0
  3 10  1  0  0  0  0
  4  8  1  0  0  0  0
  4  3  2  0  0  0  0
  5  6  2  0  0  0  0
  5  4  1  0  0  0  0
  6  7  1  0  0  0  0
  7  3  1  0  0  0  0
  9  5  1  0  0  0  0
 10 12  1  0  0  0  0
 11 10  2  0  0  0  0
 12 13  2  0  0  0  0
 12 17  1  0  0  0  0
 13 14  1  0  0  0  0
 14 19  1  0  0  0  0
 14 15  2  0  0  0  0
 16 15  1  0  0  0  0
 16 20  1  0  0  0  0
 17 16  2  0  0  0  0
 18 13  1  0  0  0  0
 21 24  1  6  0  0  0
 21  1  1  0  0  0  0
 22 26  1  0  0  0  0
 22 21  1  0  0  0  0
 23 27  1  6  0  0  0
 23 29  1  0  0  0  0
 23 22  1  0  0  0  0
 23 21  1  0  0  0  0
 25 22  1  0  0  0  0
 28 39  1  0  0  0  0
 29 28  2  0  0  0  0
 30 29  1  0  0  0  0
 30 32  2  0  0  0  0
 31 30  1  0  0  0  0
 32 38  1  0  0  0  0
 33 32  1  0  0  0  0
 33 35  1  0  0  0  0
 34 33  1  0  0  0  0
 35 37  2  0  0  0  0
 36 35  1  0  0  0  0
 38 37  1  0  0  0  0
 38 39  2  0  0  0  0
M  END
>  <minimizedAffinity>
-6.23669863

$$$$

 OpenBabel03272507353D

 39 43  0  0  1  0  0  0  0  0999 V2000
   36.2590   22.1410   31.4320 C   0  0  0  0  0  0  0  0  0  0  0  0
   37.1800   21.6670   30.6990 O   0  0  0  0  0  0  0  0  0  0  0  0
   36.4450   25.6760   31.9390 C   0  0  0  0  0  0  0  0  0  0  0  0
   35.2580   25.6250   31.2430 C   0  0  0  0  0  0  0  0  0  0  0  0
   35.0040   24.2780   30.9420 C   0  0  0  0  0  0  0  0  0  0  0  0
   36.0690   23.5880   31.4820 C   0  0  0  0  0  0  0  0  0  0  0  0
   36.8870   24.4460   32.0550 O   0  0  0  0  0  0  0  0  0  0  0  0
   34.5770   26.4210   30.9380 H   0  0  0  0  0  0  0  0  0  0  0  0
   34.1820   23.8190   30.4100 H   0  0  0  0  0  0  0  0  0  0  0  0
   37.0140   26.9260   32.4130 C   0  0  0  0  0  0  0  0  0  0  0  0
   36.7100   27.9840   31.8420 O   0  0  0  0  0  0  0  0  0  0  0  0
   37.9080   26.8550   33.5340 C   0  0  0  0  0  0  0  0  0  0  0  0
   37.3440   26.5750   34.7680 C   0  0  0  0  0  0  0  0  0  0  0  0
   38.1900   26.5000   35.8810 C   0  0  0  0  0  0  0  0  0  0  0  0
   39.5370   26.7100   35.6900 N   0  0  0  0  0  0  0  0  0  0  0  0
   40.0400   26.9770   34.4820 C   0  0  0  0  0  0  0  0  0  0  0  0
   39.2380   27.0500   33.4090 N   0  0  0  0  0  0  0  0  0  0  0  0
   36.2810   26.4150   34.8830 H   0  0  0  0  0  0  0  0  0  0  0  0
   37.7780   26.2830   36.8560 H   0  0  0  0  0  0  0  0  0  0  0  0
   41.0980   27.1410   34.3320 H   0  0  0  0  0  0  0  0  0  0  0  0
   35.3830   21.2290   32.2220 C   0  0  1  0  0  0  0  0  0  0  0  0
   36.0860   19.8330   32.4530 C   0  0  0  0  0  0  0  0  0  0  0  0
   35.7510   20.7350   33.5510 C   0  0  1  0  0  0  0  0  0  0  0  0
   34.3980   21.0280   31.7310 H   0  0  0  0  0  0  0  0  0  0  0  0
   35.4580   18.9410   32.2610 H   0  0  0  0  0  0  0  0  0  0  0  0
   37.0950   19.7180   32.0360 H   0  0  0  0  0  0  0  0  0  0  0  0
   34.8260   20.4580   34.1570 H   0  0  0  0  0  0  0  0  0  0  0  0
   38.0610   21.5800   33.8320 C   0  0  0  0  0  3  0  0  0  0  0  0
   36.7990   21.3630   34.3970 C   0  0  0  0  0  0  0  0  0  0  0  0
   36.6830   21.7890   35.7030 C   0  0  0  0  0  0  0  0  0  0  0  0
   35.7220   21.6490   36.1690 H   0  0  0  0  0  0  0  0  0  0  0  0
   37.7300   22.3710   36.3680 C   0  0  0  0  0  0  0  0  0  0  0  0
   37.7610   22.8320   37.6400 N   0  0  0  0  0  0  0  0  0  0  0  0
   36.9600   22.8120   38.3250 H   0  0  0  0  0  0  0  0  0  0  0  0
   38.9810   23.3320   37.9120 C   0  0  0  0  0  0  0  0  0  0  0  0
   39.2500   23.7590   38.8610 H   0  0  0  0  0  0  0  0  0  0  0  0
   39.7350   23.1770   36.7710 C   0  0  0  0  0  3  0  0  0  0  0  0
   38.9460   22.5700   35.7960 C   0  0  0  0  0  0  0  0  0  0  0  0
   39.1090   22.1670   34.5090 C   0  0  0  0  0  3  0  0  0  0  0  0
  1  6  1  0  0  0  0
  1 21  1  0  0  0  0
  2  1  2  0  0  0  0
  3  7  1  0  0  0  0
  3 10  1  0  0  0  0
  4  3  2  0  0  0  0
  5  4  1  0  0  0  0
  5  6  2  0  0  0  0
  6  7  1  0  0  0  0
  8  4  1  0  0  0  0
  9  5  1  0  0  0  0
 10 12  1  0  0  0  0
 11 10  2  0  0  0  0
 12 13  1  0  0  0  0
 13 18  1  0  0  0  0
 13 14  2  0  0  0  0
 14 19  1  0  0  0  0
 15 14  1  0  0  0  0
 16 15  2  0  0  0  0
 17 12  2  0  0  0  0
 17 16  1  0  0  0  0
 20 16  1  0  0  0  0
 21 24  1  6  0  0  0
 21 22  1  0  0  0  0
 21 23  1  0  0  0  0
 22 23  1  0  0  0  0
 23 27  1  1  0  0  0
 23 29  1  0  0  0  0
 25 22  1  0  0  0  0
 26 22  1  0  0  0  0
 28 29  2  0  0  0  0
 28 39  1  0  0  0  0
 29 30  1  0  0  0  0
 30 31  1  0  0  0  0
 30 32  2  0  0  0  0
 32 33  1  0  0  0  0
 33 35  1  0  0  0  0
 33 34  1  0  0  0  0
 35 36  1  0  0  0  0
 37 35  2  0  0  0  0
 38 32  1  0  0  0  0
 38 37  1  0  0  0  0
 39 38  2  0  0  0  0
M  END
>  <minimizedAffinity>
-6.20244217

$$$$

 OpenBabel03272507353D

 39 43  0  0  1  0  0  0  0  0999 V2000
   37.2600   26.1450   31.9660 C   0  0  0  0  0  0  0  0  0  0  0  0
   36.5040   25.1880   32.3180 O   0  0  0  0  0  0  0  0  0  0  0  0
   35.5540   29.2850   32.0920 C   0  0  0  0  0  0  0  0  0  0  0  0
   36.0570   29.3700   30.8130 C   0  0  0  0  0  0  0  0  0  0  0  0
   36.7820   28.1940   30.5670 C   0  0  0  0  0  0  0  0  0  0  0  0
   36.6720   27.4600   31.7300 C   0  0  0  0  0  0  0  0  0  0  0  0
   35.9450   28.1380   32.5940 O   0  0  0  0  0  0  0  0  0  0  0  0
   35.9640   30.1560   30.0610 H   0  0  0  0  0  0  0  0  0  0  0  0
   37.3280   27.8730   29.6900 H   0  0  0  0  0  0  0  0  0  0  0  0
   34.7450   30.3410   32.6790 C   0  0  0  0  0  0  0  0  0  0  0  0
   33.5580   30.4510   32.3410 O   0  0  0  0  0  0  0  0  0  0  0  0
   35.3870   31.2040   33.6300 C   0  0  0  0  0  0  0  0  0  0  0  0
   35.4570   30.7520   34.9380 C   0  0  0  0  0  0  0  0  0  0  0  0
   36.0750   31.5720   35.8890 C   0  0  0  0  0  0  0  0  0  0  0  0
   36.5810   32.7840   35.4740 N   0  0  0  0  0  0  0  0  0  0  0  0
   36.4920   33.1810   34.2020 C   0  0  0  0  0  0  0  0  0  0  0  0
   35.9020   32.4020   33.2820 N   0  0  0  0  0  0  0  0  0  0  0  0
   35.0500   29.7940   35.2290 H   0  0  0  0  0  0  0  0  0  0  0  0
   36.1450   31.2460   36.9160 H   0  0  0  0  0  0  0  0  0  0  0  0
   36.8890   34.1330   33.8760 H   0  0  0  0  0  0  0  0  0  0  0  0
   38.7250   25.9240   31.8040 C   0  0  1  0  0  0  0  0  0  0  0  0
   39.5460   27.1320   32.4070 C   0  0  0  0  0  0  0  0  0  0  0  0
   39.6330   25.7780   32.9440 C   0  0  1  0  0  0  0  0  0  0  0  0
   39.0390   25.8090   30.7370 H   0  0  0  0  0  0  0  0  0  0  0  0
   40.3620   27.5250   31.7700 H   0  0  0  0  0  0  0  0  0  0  0  0
   38.9630   27.9400   32.8660 H   0  0  0  0  0  0  0  0  0  0  0  0
   40.5640   25.1870   32.6560 H   0  0  0  0  0  0  0  0  0  0  0  0
   38.7690   26.5000   35.1500 C   0  0  0  0  0  3  0  0  0  0  0  0
   39.1740   25.4490   34.3190 C   0  0  0  0  0  0  0  0  0  0  0  0
   39.0750   24.2000   34.8980 C   0  0  0  0  0  0  0  0  0  0  0  0
   39.3670   23.3640   34.2850 H   0  0  0  0  0  0  0  0  0  0  0  0
   38.6180   24.0340   36.1780 C   0  0  0  0  0  0  0  0  0  0  0  0
   38.4690   22.8800   36.8700 N   0  0  0  0  0  0  0  0  0  0  0  0
   38.6890   21.9120   36.5140 H   0  0  0  0  0  0  0  0  0  0  0  0
   37.9900   23.1450   38.0990 C   0  0  0  0  0  0  0  0  0  0  0  0
   37.7880   22.3880   38.8350 H   0  0  0  0  0  0  0  0  0  0  0  0
   37.8360   24.5110   38.1770 C   0  0  0  0  0  3  0  0  0  0  0  0
   38.2320   25.0720   36.9640 C   0  0  0  0  0  0  0  0  0  0  0  0
   38.3100   26.3210   36.4380 C   0  0  0  0  0  3  0  0  0  0  0  0
  1  2  2  0  0  0  0
  3  7  1  0  0  0  0
  3 10  1  0  0  0  0
  4  3  2  0  0  0  0
  5  4  1  0  0  0  0
  5  6  2  0  0  0  0
  6  1  1  0  0  0  0
  6  7  1  0  0  0  0
  8  4  1  0  0  0  0
  9  5  1  0  0  0  0
 10 12  1  0  0  0  0
 11 10  2  0  0  0  0
 12 13  1  0  0  0  0
 13 18  1  0  0  0  0
 13 14  2  0  0  0  0
 14 19  1  0  0  0  0
 15 14  1  0  0  0  0
 16 15  2  0  0  0  0
 17 12  2  0  0  0  0
 17 16  1  0  0  0  0
 20 16  1  0  0  0  0
 21 24  1  6  0  0  0
 21  1  1  0  0  0  0
 21 22  1  0  0  0  0
 21 23  1  0  0  0  0
 22 26  1  0  0  0  0
 22 23  1  0  0  0  0
 23 27  1  6  0  0  0
 23 29  1  0  0  0  0
 25 22  1  0  0  0  0
 28 39  1  0  0  0  0
 29 30  1  0  0  0  0
 29 28  2  0  0  0  0
 30 32  2  0  0  0  0
 31 30  1  0  0  0  0
 32 33  1  0  0  0  0
 32 38  1  0  0  0  0
 33 35  1  0  0  0  0
 34 33  1  0  0  0  0
 35 37  2  0  0  0  0
 35 36  1  0  0  0  0
 38 37  1  0  0  0  0
 39 38  2  0  0  0  0
M  END
>  <minimizedAffinity>
-5.98985577

$$$$

 OpenBabel03272507353D

 39 43  0  0  1  0  0  0  0  0999 V2000
   36.2150   20.7830   33.2520 C   0  0  0  0  0  0  0  0  0  0  0  0
   35.0100   20.4460   33.0400 O   0  0  0  0  0  0  0  0  0  0  0  0
   37.6530   22.4750   36.0550 C   0  0  0  0  0  0  0  0  0  0  0  0
   36.6310   21.8200   36.7050 C   0  0  0  0  0  0  0  0  0  0  0  0
   35.9270   21.0780   35.7440 C   0  0  0  0  0  0  0  0  0  0  0  0
   36.5750   21.3350   34.5540 C   0  0  0  0  0  0  0  0  0  0  0  0
   37.5780   22.1570   34.7840 O   0  0  0  0  0  0  0  0  0  0  0  0
   36.3450   21.8150   37.7580 H   0  0  0  0  0  0  0  0  0  0  0  0
   35.0640   20.4350   35.8450 H   0  0  0  0  0  0  0  0  0  0  0  0
   38.5890   23.3400   36.7530 C   0  0  0  0  0  0  0  0  0  0  0  0
   39.0170   22.9960   37.8640 O   0  0  0  0  0  0  0  0  0  0  0  0
   38.9640   24.5610   36.0980 C   0  0  0  0  0  0  0  0  0  0  0  0
   38.1720   25.6710   36.3400 C   0  0  0  0  0  0  0  0  0  0  0  0
   38.5110   26.8760   35.7140 C   0  0  0  0  0  0  0  0  0  0  0  0
   39.6140   26.8930   34.8900 N   0  0  0  0  0  0  0  0  0  0  0  0
   40.3510   25.7990   34.6830 C   0  0  0  0  0  0  0  0  0  0  0  0
   40.0350   24.6390   35.2790 N   0  0  0  0  0  0  0  0  0  0  0  0
   37.3120   25.6230   36.9940 H   0  0  0  0  0  0  0  0  0  0  0  0
   37.9120   27.7580   35.8850 H   0  0  0  0  0  0  0  0  0  0  0  0
   41.2180   25.8130   34.0360 H   0  0  0  0  0  0  0  0  0  0  0  0
   37.2420   20.6100   32.1850 C   0  0  1  0  0  0  0  0  0  0  0  0
   36.5720   20.5960   30.7550 C   0  0  0  0  0  0  0  0  0  0  0  0
   37.5100   21.6330   31.1720 C   0  0  1  0  0  0  0  0  0  0  0  0
   37.8280   19.6620   32.2870 H   0  0  0  0  0  0  0  0  0  0  0  0
   36.9090   19.7900   30.0730 H   0  0  0  0  0  0  0  0  0  0  0  0
   35.4830   20.7270   30.7220 H   0  0  0  0  0  0  0  0  0  0  0  0
   38.5700   21.5380   30.7630 H   0  0  0  0  0  0  0  0  0  0  0  0
   35.7630   23.3830   31.0460 C   0  0  0  0  0  3  0  0  0  0  0  0
   37.0960   23.0530   31.3130 C   0  0  0  0  0  0  0  0  0  0  0  0
   37.8760   24.1220   31.7020 C   0  0  0  0  0  0  0  0  0  0  0  0
   38.9070   23.9070   31.9290 H   0  0  0  0  0  0  0  0  0  0  0  0
   37.3620   25.3880   31.8080 C   0  0  0  0  0  0  0  0  0  0  0  0
   38.0030   26.5230   32.1740 N   0  0  0  0  0  0  0  0  0  0  0  0
   39.0200   26.6010   32.4400 H   0  0  0  0  0  0  0  0  0  0  0  0
   37.1420   27.5570   32.1530 C   0  0  0  0  0  0  0  0  0  0  0  0
   37.4180   28.5650   32.4060 H   0  0  0  0  0  0  0  0  0  0  0  0
   35.9250   27.0500   31.7600 C   0  0  0  0  0  3  0  0  0  0  0  0
   36.0630   25.6810   31.5420 C   0  0  0  0  0  0  0  0  0  0  0  0
   35.2550   24.6600   31.1560 C   0  0  0  0  0  3  0  0  0  0  0  0
  1  6  1  0  0  0  0
  2  1  2  0  0  0  0
  3  4  2  0  0  0  0
  3 10  1  0  0  0  0
  4  8  1  0  0  0  0
  5  9  1  0  0  0  0
  5  4  1  0  0  0  0
  6  7  1  0  0  0  0
  6  5  2  0  0  0  0
  7  3  1  0  0  0  0
 10 11  2  0  0  0  0
 12 13  1  0  0  0  0
 12 10  1  0  0  0  0
 13 18  1  0  0  0  0
 14 19  1  0  0  0  0
 14 13  2  0  0  0  0
 15 14  1  0  0  0  0
 16 15  2  0  0  0  0
 16 17  1  0  0  0  0
 17 12  2  0  0  0  0
 20 16  1  0  0  0  0
 21 24  1  1  0  0  0
 21  1  1  0  0  0  0
 22 23  1  0  0  0  0
 22 21  1  0  0  0  0
 23 27  1  6  0  0  0
 23 29  1  0  0  0  0
 23 21  1  0  0  0  0
 25 22  1  0  0  0  0
 26 22  1  0  0  0  0
 28 39  2  0  0  0  0
 28 29  1  0  0  0  0
 29 30  2  0  0  0  0
 30 32  1  0  0  0  0
 30 31  1  0  0  0  0
 32 33  1  0  0  0  0
 33 34  1  0  0  0  0
 35 33  1  0  0  0  0
 35 36  1  0  0  0  0
 37 35  2  0  0  0  0
 38 37  1  0  0  0  0
 38 32  2  0  0  0  0
 39 38  1  0  0  0  0
M  END
>  <minimizedAffinity>
-5.96695518

$$$$

 OpenBabel03272507353D

 39 43  0  0  1  0  0  0  0  0999 V2000
   36.5230   27.4510   32.5060 C   0  0  0  0  0  0  0  0  0  0  0  0
   35.6570   26.7350   31.9140 O   0  0  0  0  0  0  0  0  0  0  0  0
   37.7880   25.6160   35.3020 C   0  0  0  0  0  0  0  0  0  0  0  0
   37.9550   26.8910   35.7930 C   0  0  0  0  0  0  0  0  0  0  0  0
   37.5020   27.7840   34.8110 C   0  0  0  0  0  0  0  0  0  0  0  0
   37.0850   26.9820   33.7680 C   0  0  0  0  0  0  0  0  0  0  0  0
   37.2710   25.7220   34.1000 O   0  0  0  0  0  0  0  0  0  0  0  0
   38.3510   27.2390   36.7490 H   0  0  0  0  0  0  0  0  0  0  0  0
   37.4630   28.8650   34.8050 H   0  0  0  0  0  0  0  0  0  0  0  0
   38.1550   24.4350   36.0650 C   0  0  0  0  0  0  0  0  0  0  0  0
   37.5870   24.2110   37.1440 O   0  0  0  0  0  0  0  0  0  0  0  0
   39.1730   23.5880   35.5090 C   0  0  0  0  0  0  0  0  0  0  0  0
   38.7840   22.7200   34.5020 C   0  0  0  0  0  0  0  0  0  0  0  0
   39.7530   21.8800   33.9420 C   0  0  0  0  0  0  0  0  0  0  0  0
   41.0410   21.9600   34.4220 N   0  0  0  0  0  0  0  0  0  0  0  0
   41.3730   22.8110   35.3950 C   0  0  0  0  0  0  0  0  0  0  0  0
   40.4520   23.6220   35.9390 N   0  0  0  0  0  0  0  0  0  0  0  0
   37.7630   22.6830   34.1480 H   0  0  0  0  0  0  0  0  0  0  0  0
   39.4790   21.1930   33.1540 H   0  0  0  0  0  0  0  0  0  0  0  0
   42.3850   22.8750   35.7730 H   0  0  0  0  0  0  0  0  0  0  0  0
   36.9590   28.7470   31.9110 C   0  0  1  0  0  0  0  0  0  0  0  0
   35.8600   29.3140   30.9280 C   0  0  0  0  0  0  0  0  0  0  0  0
   36.2500   30.0060   32.1520 C   0  0  1  0  0  0  0  0  0  0  0  0
   37.9130   28.6680   31.3330 H   0  0  0  0  0  0  0  0  0  0  0  0
   36.2300   29.6750   29.9490 H   0  0  0  0  0  0  0  0  0  0  0  0
   34.9440   28.7190   30.8220 H   0  0  0  0  0  0  0  0  0  0  0  0
   36.9430   30.9000   32.0190 H   0  0  0  0  0  0  0  0  0  0  0  0
   34.0440   29.5880   33.1990 C   0  0  0  0  0  3  0  0  0  0  0  0
   35.2970   30.2070   33.2760 C   0  0  0  0  0  0  0  0  0  0  0  0
   35.5000   30.9340   34.4300 C   0  0  0  0  0  0  0  0  0  0  0  0
   36.4580   31.4150   34.5320 H   0  0  0  0  0  0  0  0  0  0  0  0
   34.5380   31.0250   35.4020 C   0  0  0  0  0  0  0  0  0  0  0  0
   34.5960   31.6970   36.5760 N   0  0  0  0  0  0  0  0  0  0  0  0
   35.4140   32.2640   36.9250 H   0  0  0  0  0  0  0  0  0  0  0  0
   33.4410   31.5370   37.2480 C   0  0  0  0  0  0  0  0  0  0  0  0
   33.2480   31.9750   38.2100 H   0  0  0  0  0  0  0  0  0  0  0  0
   32.6370   30.7380   36.4680 C   0  0  0  0  0  3  0  0  0  0  0  0
   33.3290   30.4150   35.3020 C   0  0  0  0  0  0  0  0  0  0  0  0
   33.0830   29.6870   34.1820 C   0  0  0  0  0  3  0  0  0  0  0  0
  1  6  1  0  0  0  0
  2  1  2  0  0  0  0
  3  4  2  0  0  0  0
  3 10  1  0  0  0  0
  4  8  1  0  0  0  0
  5  4  1  0  0  0  0
  6  7  1  0  0  0  0
  6  5  2  0  0  0  0
  7  3  1  0  0  0  0
  9  5  1  0  0  0  0
 10 11  2  0  0  0  0
 12 17  1  0  0  0  0
 12 10  1  0  0  0  0
 13 12  2  0  0  0  0
 14 15  2  0  0  0  0
 14 13  1  0  0  0  0
 15 16  1  0  0  0  0
 16 20  1  0  0  0  0
 16 17  2  0  0  0  0
 18 13  1  0  0  0  0
 19 14  1  0  0  0  0
 21 24  1  6  0  0  0
 21 23  1  0  0  0  0
 21  1  1  0  0  0  0
 22 21  1  0  0  0  0
 22 23  1  0  0  0  0
 23 27  1  6  0  0  0
 23 29  1  0  0  0  0
 25 22  1  0  0  0  0
 26 22  1  0  0  0  0
 28 29  2  0  0  0  0
 28 39  1  0  0  0  0
 29 30  1  0  0  0  0
 30 31  1  0  0  0  0
 30 32  2  0  0  0  0
 32 33  1  0  0  0  0
 33 34  1  0  0  0  0
 33 35  1  0  0  0  0
 35 36  1  0  0  0  0
 37 35  2  0  0  0  0
 38 32  1  0  0  0  0
 38 37  1  0  0  0  0
 39 38  2  0  0  0  0
M  END
>  <minimizedAffinity>
-5.73937654

$$$$

 OpenBabel03272507353D

 39 43  0  0  1  0  0  0  0  0999 V2000
   38.4990   24.9590   35.5220 C   0  0  0  0  0  0  0  0  0  0  0  0
   37.8240   25.5160   36.4410 O   0  0  0  0  0  0  0  0  0  0  0  0
   37.2580   26.1220   32.3770 C   0  0  0  0  0  0  0  0  0  0  0  0
   38.5280   25.7650   31.9830 C   0  0  0  0  0  0  0  0  0  0  0  0
   39.1960   25.2690   33.1140 C   0  0  0  0  0  0  0  0  0  0  0  0
   38.2750   25.3600   34.1370 C   0  0  0  0  0  0  0  0  0  0  0  0
   37.1560   25.8640   33.6600 O   0  0  0  0  0  0  0  0  0  0  0  0
   39.0120   25.8170   31.0060 H   0  0  0  0  0  0  0  0  0  0  0  0
   40.2020   24.8890   33.2270 H   0  0  0  0  0  0  0  0  0  0  0  0
   36.2850   26.6770   31.4510 C   0  0  0  0  0  0  0  0  0  0  0  0
   35.3330   25.9750   31.0810 O   0  0  0  0  0  0  0  0  0  0  0  0
   36.4950   28.0290   31.0150 C   0  0  0  0  0  0  0  0  0  0  0  0
   36.2310   29.0310   31.9350 C   0  0  0  0  0  0  0  0  0  0  0  0
   36.4240   30.3590   31.5400 C   0  0  0  0  0  0  0  0  0  0  0  0
   36.8650   30.6000   30.2570 N   0  0  0  0  0  0  0  0  0  0  0  0
   37.1070   29.6040   29.4020 C   0  0  0  0  0  0  0  0  0  0  0  0
   36.9260   28.3260   29.7710 N   0  0  0  0  0  0  0  0  0  0  0  0
   35.8870   28.8060   32.9350 H   0  0  0  0  0  0  0  0  0  0  0  0
   36.2270   31.1610   32.2360 H   0  0  0  0  0  0  0  0  0  0  0  0
   37.4530   29.7920   28.3940 H   0  0  0  0  0  0  0  0  0  0  0  0
   39.5090   23.9150   35.8600 C   0  0  1  0  0  0  0  0  0  0  0  0
   39.0180   23.0270   37.0710 C   0  0  0  0  0  0  0  0  0  0  0  0
   39.2360   22.4810   35.7350 C   0  0  1  0  0  0  0  0  0  0  0  0
   40.5050   24.3390   36.1400 H   0  0  0  0  0  0  0  0  0  0  0  0
   39.7650   22.8460   37.8690 H   0  0  0  0  0  0  0  0  0  0  0  0
   38.0310   23.2670   37.4850 H   0  0  0  0  0  0  0  0  0  0  0  0
   40.1990   21.8900   35.5910 H   0  0  0  0  0  0  0  0  0  0  0  0
   36.9650   21.5030   35.5910 C   0  0  0  0  0  3  0  0  0  0  0  0
   38.1200   21.9280   34.9240 C   0  0  0  0  0  0  0  0  0  0  0  0
   38.0650   21.7890   33.5530 C   0  0  0  0  0  0  0  0  0  0  0  0
   38.9310   22.1160   33.0030 H   0  0  0  0  0  0  0  0  0  0  0  0
   36.9620   21.2750   32.9240 C   0  0  0  0  0  0  0  0  0  0  0  0
   36.7680   21.0810   31.5990 N   0  0  0  0  0  0  0  0  0  0  0  0
   37.4580   21.3050   30.8330 H   0  0  0  0  0  0  0  0  0  0  0  0
   35.5480   20.5540   31.3900 C   0  0  0  0  0  0  0  0  0  0  0  0
   35.1640   20.3110   30.4160 H   0  0  0  0  0  0  0  0  0  0  0  0
   34.9610   20.4140   32.6270 C   0  0  0  0  0  3  0  0  0  0  0  0
   35.8530   20.8690   33.5960 C   0  0  0  0  0  0  0  0  0  0  0  0
   35.8600   20.9870   34.9490 C   0  0  0  0  0  3  0  0  0  0  0  0
  1 21  1  0  0  0  0
  1  2  2  0  0  0  0
  3  7  1  0  0  0  0
  4  3  2  0  0  0  0
  4  5  1  0  0  0  0
  5  9  1  0  0  0  0
  5  6  2  0  0  0  0
  6  1  1  0  0  0  0
  7  6  1  0  0  0  0
  8  4  1  0  0  0  0
 10  3  1  0  0  0  0
 11 10  2  0  0  0  0
 12 10  1  0  0  0  0
 12 13  1  0  0  0  0
 13 18  1  0  0  0  0
 14 13  2  0  0  0  0
 14 19  1  0  0  0  0
 15 14  1  0  0  0  0
 16 17  1  0  0  0  0
 16 15  2  0  0  0  0
 17 12  2  0  0  0  0
 20 16  1  0  0  0  0
 21 24  1  1  0  0  0
 21 22  1  0  0  0  0
 22 26  1  0  0  0  0
 22 25  1  0  0  0  0
 23 27  1  6  0  0  0
 23 21  1  0  0  0  0
 23 22  1  0  0  0  0
 29 28  2  0  0  0  0
 29 23  1  0  0  0  0
 30 29  1  0  0  0  0
 31 30  1  0  0  0  0
 32 30  2  0  0  0  0
 32 38  1  0  0  0  0
 33 32  1  0  0  0  0
 34 33  1  0  0  0  0
 35 33  1  0  0  0  0
 35 37  2  0  0  0  0
 36 35  1  0  0  0  0
 37 38  1  0  0  0  0
 38 39  2  0  0  0  0
 39 28  1  0  0  0  0
M  END
>  <minimizedAffinity>
-5.72952032

$$$$

 OpenBabel03272507353D

 39 43  0  0  1  0  0  0  0  0999 V2000
   37.7150   26.6300   32.1330 C   0  0  0  0  0  0  0  0  0  0  0  0
   38.7150   26.8380   31.3800 O   0  0  0  0  0  0  0  0  0  0  0  0
   36.0560   23.4880   31.7300 C   0  0  0  0  0  0  0  0  0  0  0  0
   35.1280   24.2970   31.1130 C   0  0  0  0  0  0  0  0  0  0  0  0
   35.6120   25.6130   31.1710 C   0  0  0  0  0  0  0  0  0  0  0  0
   36.8200   25.5170   31.8300 C   0  0  0  0  0  0  0  0  0  0  0  0
   37.0380   24.2560   32.1390 O   0  0  0  0  0  0  0  0  0  0  0  0
   34.1750   24.0550   30.6400 H   0  0  0  0  0  0  0  0  0  0  0  0
   35.1860   26.5360   30.8040 H   0  0  0  0  0  0  0  0  0  0  0  0
   35.8750   22.0510   31.8510 C   0  0  0  0  0  0  0  0  0  0  0  0
   35.0540   21.6120   32.6700 O   0  0  0  0  0  0  0  0  0  0  0  0
   36.6730   21.2170   30.9980 C   0  0  0  0  0  0  0  0  0  0  0  0
   36.0860   20.0510   30.5350 C   0  0  0  0  0  0  0  0  0  0  0  0
   36.8400   19.2160   29.7030 C   0  0  0  0  0  0  0  0  0  0  0  0
   38.1260   19.5980   29.3890 N   0  0  0  0  0  0  0  0  0  0  0  0
   38.6530   20.7310   29.8570 C   0  0  0  0  0  0  0  0  0  0  0  0
   37.9390   21.5390   30.6550 N   0  0  0  0  0  0  0  0  0  0  0  0
   35.0740   19.7810   30.8010 H   0  0  0  0  0  0  0  0  0  0  0  0
   36.4090   18.3000   29.3260 H   0  0  0  0  0  0  0  0  0  0  0  0
   39.6630   21.0310   29.6100 H   0  0  0  0  0  0  0  0  0  0  0  0
   37.4670   27.5090   33.3120 C   0  0  1  0  0  0  0  0  0  0  0  0
   36.8390   26.6860   34.5060 C   0  0  0  0  0  0  0  0  0  0  0  0
   38.1490   27.3230   34.5940 C   0  0  1  0  0  0  0  0  0  0  0  0
   36.7710   28.3570   33.0910 H   0  0  0  0  0  0  0  0  0  0  0  0
   35.9650   27.1510   35.0040 H   0  0  0  0  0  0  0  0  0  0  0  0
   36.6860   25.6130   34.3340 H   0  0  0  0  0  0  0  0  0  0  0  0
   38.1890   28.2980   35.1840 H   0  0  0  0  0  0  0  0  0  0  0  0
   39.2840   25.1890   35.1330 C   0  0  0  0  0  3  0  0  0  0  0  0
   39.3970   26.5310   34.7500 C   0  0  0  0  0  0  0  0  0  0  0  0
   40.6940   26.9540   34.5450 C   0  0  0  0  0  0  0  0  0  0  0  0
   40.8210   27.9780   34.2380 H   0  0  0  0  0  0  0  0  0  0  0  0
   41.7610   26.1110   34.7090 C   0  0  0  0  0  0  0  0  0  0  0  0
   43.0760   26.3840   34.5450 N   0  0  0  0  0  0  0  0  0  0  0  0
   43.4840   27.3140   34.2570 H   0  0  0  0  0  0  0  0  0  0  0  0
   43.8060   25.2830   34.8040 C   0  0  0  0  0  0  0  0  0  0  0  0
   44.8780   25.2520   34.7410 H   0  0  0  0  0  0  0  0  0  0  0  0
   42.9150   24.2900   35.1410 C   0  0  0  0  0  3  0  0  0  0  0  0
   41.6240   24.8120   35.0820 C   0  0  0  0  0  0  0  0  0  0  0  0
   40.3650   24.3490   35.2950 C   0  0  0  0  0  3  0  0  0  0  0  0
  1 21  1  0  0  0  0
  2  1  2  0  0  0  0
  3 10  1  0  0  0  0
  3  7  1  0  0  0  0
  4  5  1  0  0  0  0
  4  3  2  0  0  0  0
  5  6  2  0  0  0  0
  6  1  1  0  0  0  0
  6  7  1  0  0  0  0
  8  4  1  0  0  0  0
  9  5  1  0  0  0  0
 10 11  2  0  0  0  0
 12 10  1  0  0  0  0
 13 18  1  0  0  0  0
 13 12  2  0  0  0  0
 14 13  1  0  0  0  0
 15 14  2  0  0  0  0
 15 16  1  0  0  0  0
 16 17  2  0  0  0  0
 17 12  1  0  0  0  0
 19 14  1  0  0  0  0
 20 16  1  0  0  0  0
 21 24  1  6  0  0  0
 21 22  1  0  0  0  0
 21 23  1  0  0  0  0
 22 23  1  0  0  0  0
 22 25  1  0  0  0  0
 23 29  1  0  0  0  0
 23 27  1  1  0  0  0
 26 22  1  0  0  0  0
 28 39  1  0  0  0  0
 29 28  2  0  0  0  0
 30 32  2  0  0  0  0
 30 29  1  0  0  0  0
 31 30  1  0  0  0  0
 32 38  1  0  0  0  0
 33 32  1  0  0  0  0
 33 35  1  0  0  0  0
 34 33  1  0  0  0  0
 35 37  2  0  0  0  0
 36 35  1  0  0  0  0
 38 37  1  0  0  0  0
 38 39  2  0  0  0  0
M  END
>  <minimizedAffinity>
-5.71484089

$$$$
