
 OpenBabel03272508563D

 43 47  0  0  1  0  0  0  0  0999 V2000
   39.1580   31.4690   43.4110 C   0  0  0  0  0  0  0  0  0  0  0  0
   40.1480   30.5260   43.5710 C   0  0  0  0  0  0  0  0  0  0  0  0
   40.8660   30.1580   42.4580 C   0  0  0  0  0  0  0  0  0  0  0  0
   40.5580   30.7480   41.2510 C   0  0  0  0  0  0  0  0  0  0  0  0
   39.5670   31.6940   41.0850 C   0  0  0  0  0  0  0  0  0  0  0  0
   38.8890   32.0230   42.2080 N   0  0  0  0  0  0  0  0  0  0  0  0
   40.3910   30.0600   44.5160 H   0  0  0  0  0  0  0  0  0  0  0  0
   41.6630   29.4100   42.5490 H   0  0  0  0  0  0  0  0  0  0  0  0
   41.1480   30.4310   40.3910 H   0  0  0  0  0  0  0  0  0  0  0  0
   38.3740   31.8730   44.5980 C   0  0  0  0  0  0  0  0  0  0  0  0
   37.2480   32.4020   44.4730 O   0  0  0  0  0  0  0  0  0  0  0  0
   38.9340   31.6430   45.8960 N   0  0  0  0  0  0  0  0  0  0  0  0
   39.9220   31.3970   46.0590 H   0  0  0  0  0  0  0  0  0  0  0  0
   38.4210   31.1290   48.2790 C   0  0  2  0  0  0  0  0  0  0  0  0
   38.6700   32.5920   48.1970 C   0  0  0  0  0  0  0  0  0  0  0  0
   38.0690   31.7620   47.0480 C   0  0  1  0  0  0  0  0  0  0  0  0
   39.3370   30.5040   48.3580 H   0  0  0  0  0  0  0  0  0  0  0  0
   37.9920   33.2390   48.7880 H   0  0  0  0  0  0  0  0  0  0  0  0
   39.6990   32.9300   48.1320 H   0  0  0  0  0  0  0  0  0  0  0  0
   37.0070   32.0490   46.8510 H   0  0  0  0  0  0  0  0  0  0  0  0
   35.0520   30.2210   49.5530 C   0  0  0  0  0  0  0  0  0  0  0  0
   35.3750   29.5890   50.7950 C   0  0  0  0  0  0  0  0  0  0  0  0
   36.7720   29.4940   51.1780 C   0  0  0  0  0  0  0  0  0  0  0  0
   37.7220   30.0130   50.3390 N   0  0  0  0  0  0  0  0  0  0  0  0
   37.3330   30.6000   49.1730 C   0  0  0  0  0  0  0  0  0  0  0  0
   36.0130   30.7220   48.7490 N   0  0  0  0  0  0  0  0  0  0  0  0
   34.0000   30.2590   49.3220 H   0  0  0  0  0  0  0  0  0  0  0  0
   34.6180   29.1870   51.4470 H   0  0  0  0  0  0  0  0  0  0  0  0
   37.0060   29.0180   52.1050 H   0  0  0  0  0  0  0  0  0  0  0  0
   39.2400   32.2950   39.8020 C   0  0  0  0  0  0  0  0  0  0  0  0
   38.6240   33.3860   39.7670 O   0  0  0  0  0  0  0  0  0  0  0  0
   38.9070   30.6030   37.9500 C   0  0  0  0  0  3  0  0  0  0  0  0
   39.6000   31.6760   38.5320 C   0  0  0  0  0  0  0  0  0  0  0  0
   40.6790   32.1330   37.8060 C   0  0  0  0  0  0  0  0  0  0  0  0
   41.2180   32.9770   38.2620 H   0  0  0  0  0  0  0  0  0  0  0  0
   41.1420   31.6660   36.6010 C   0  0  0  0  0  0  0  0  0  0  0  0
   42.1720   32.0420   35.8260 N   0  0  0  0  0  0  0  0  0  0  0  0
   42.8300   32.8190   36.0520 H   0  0  0  0  0  0  0  0  0  0  0  0
   42.1220   31.1950   34.7550 C   0  0  0  0  0  0  0  0  0  0  0  0
   42.8400   31.2410   33.9250 H   0  0  0  0  0  0  0  0  0  0  0  0
   41.0700   30.3150   34.8810 C   0  0  0  0  0  3  0  0  0  0  0  0
   40.4200   30.6130   36.0860 C   0  0  0  0  0  0  0  0  0  0  0  0
   39.3260   30.0760   36.7220 C   0  0  0  0  0  3  0  0  0  0  0  0
  1  2  1  0  0  0  0
  1 10  1  0  0  0  0
  2  7  1  0  0  0  0
  3  8  1  0  0  0  0
  3  2  2  0  0  0  0
  4  3  1  0  0  0  0
  5  4  2  0  0  0  0
  5  6  1  0  0  0  0
  6  1  2  0  0  0  0
  9  4  1  0  0  0  0
 10 12  1  0  0  0  0
 11 10  2  0  0  0  0
 12 13  1  0  0  0  0
 12 16  1  0  0  0  0
 14 17  1  6  0  0  0
 14 25  1  0  0  0  0
 15 14  1  0  0  0  0
 15 18  1  0  0  0  0
 16 20  1  6  0  0  0
 16 15  1  0  0  0  0
 16 14  1  0  0  0  0
 19 15  1  0  0  0  0
 21 22  1  0  0  0  0
 22 23  2  0  0  0  0
 22 28  1  0  0  0  0
 23 29  1  0  0  0  0
 24 23  1  0  0  0  0
 25 24  2  0  0  0  0
 26 25  1  0  0  0  0
 26 21  2  0  0  0  0
 27 21  1  0  0  0  0
 30  5  1  0  0  0  0
 31 30  2  0  0  0  0
 32 33  1  0  0  0  0
 33 30  1  0  0  0  0
 34 35  1  0  0  0  0
 34 33  2  0  0  0  0
 36 34  1  0  0  0  0
 37 38  1  0  0  0  0
 37 36  1  0  0  0  0
 39 41  2  0  0  0  0
 39 37  1  0  0  0  0
 40 39  1  0  0  0  0
 41 42  1  0  0  0  0
 42 36  2  0  0  0  0
 42 43  1  0  0  0  0
 43 32  2  0  0  0  0
M  END
>  <minimizedAffinity>
-4.99738026

>  <minimizedRMSD>
0.724312723

$$$$
