
 OpenBabel03272508563D

 43 47  0  0  1  0  0  0  0  0999 V2000
   39.1650   31.4610   43.3970 C   0  0  0  0  0  0  0  0  0  0  0  0
   40.1510   30.5130   43.5550 C   0  0  0  0  0  0  0  0  0  0  0  0
   40.8660   30.1420   42.4410 C   0  0  0  0  0  0  0  0  0  0  0  0
   40.5600   30.7340   41.2360 C   0  0  0  0  0  0  0  0  0  0  0  0
   39.5730   31.6850   41.0700 C   0  0  0  0  0  0  0  0  0  0  0  0
   38.8970   32.0170   42.1940 N   0  0  0  0  0  0  0  0  0  0  0  0
   40.3930   30.0460   44.5000 H   0  0  0  0  0  0  0  0  0  0  0  0
   41.6600   29.3900   42.5310 H   0  0  0  0  0  0  0  0  0  0  0  0
   41.1470   30.4160   40.3740 H   0  0  0  0  0  0  0  0  0  0  0  0
   38.3830   31.8680   44.5840 C   0  0  0  0  0  0  0  0  0  0  0  0
   37.2690   32.4210   44.4600 O   0  0  0  0  0  0  0  0  0  0  0  0
   38.9330   31.6120   45.8830 N   0  0  0  0  0  0  0  0  0  0  0  0
   39.9150   31.3450   46.0470 H   0  0  0  0  0  0  0  0  0  0  0  0
   38.4190   31.1150   48.2680 C   0  0  2  0  0  0  0  0  0  0  0  0
   38.6600   32.5790   48.1760 C   0  0  0  0  0  0  0  0  0  0  0  0
   38.0660   31.7360   47.0320 C   0  0  1  0  0  0  0  0  0  0  0  0
   39.3380   30.4950   48.3540 H   0  0  0  0  0  0  0  0  0  0  0  0
   37.9780   33.2270   48.7600 H   0  0  0  0  0  0  0  0  0  0  0  0
   39.6870   32.9220   48.1100 H   0  0  0  0  0  0  0  0  0  0  0  0
   37.0020   32.0160   46.8310 H   0  0  0  0  0  0  0  0  0  0  0  0
   35.0510   30.2050   49.5470 C   0  0  0  0  0  0  0  0  0  0  0  0
   35.3760   29.5790   50.7910 C   0  0  0  0  0  0  0  0  0  0  0  0
   36.7730   29.4890   51.1750 C   0  0  0  0  0  0  0  0  0  0  0  0
   37.7220   30.0070   50.3340 N   0  0  0  0  0  0  0  0  0  0  0  0
   37.3320   30.5870   49.1660 C   0  0  0  0  0  0  0  0  0  0  0  0
   36.0120   30.7050   48.7400 N   0  0  0  0  0  0  0  0  0  0  0  0
   33.9990   30.2400   49.3150 H   0  0  0  0  0  0  0  0  0  0  0  0
   34.6200   29.1790   51.4450 H   0  0  0  0  0  0  0  0  0  0  0  0
   37.0080   29.0190   52.1050 H   0  0  0  0  0  0  0  0  0  0  0  0
   39.2470   32.2880   39.7880 C   0  0  0  0  0  0  0  0  0  0  0  0
   38.6280   33.3770   39.7550 O   0  0  0  0  0  0  0  0  0  0  0  0
   38.9230   30.6010   37.9320 C   0  0  0  0  0  3  0  0  0  0  0  0
   39.6130   31.6730   38.5180 C   0  0  0  0  0  0  0  0  0  0  0  0
   40.6930   32.1340   37.7970 C   0  0  0  0  0  0  0  0  0  0  0  0
   41.2300   32.9780   38.2580 H   0  0  0  0  0  0  0  0  0  0  0  0
   41.1620   31.6710   36.5920 C   0  0  0  0  0  0  0  0  0  0  0  0
   42.1940   32.0510   35.8220 N   0  0  0  0  0  0  0  0  0  0  0  0
   42.8510   32.8290   36.0520 H   0  0  0  0  0  0  0  0  0  0  0  0
   42.1470   31.2060   34.7480 C   0  0  0  0  0  0  0  0  0  0  0  0
   42.8690   31.2560   33.9210 H   0  0  0  0  0  0  0  0  0  0  0  0
   41.0980   30.3250   34.8690 C   0  0  0  0  0  3  0  0  0  0  0  0
   40.4430   30.6190   36.0710 C   0  0  0  0  0  0  0  0  0  0  0  0
   39.3470   30.0780   36.7030 C   0  0  0  0  0  3  0  0  0  0  0  0
  1  2  1  0  0  0  0
  1 10  1  0  0  0  0
  2  7  1  0  0  0  0
  3  8  1  0  0  0  0
  3  2  2  0  0  0  0
  4  3  1  0  0  0  0
  5  4  2  0  0  0  0
  5  6  1  0  0  0  0
  6  1  2  0  0  0  0
  9  4  1  0  0  0  0
 10 12  1  0  0  0  0
 11 10  2  0  0  0  0
 12 13  1  0  0  0  0
 12 16  1  0  0  0  0
 14 17  1  6  0  0  0
 14 25  1  0  0  0  0
 15 14  1  0  0  0  0
 15 18  1  0  0  0  0
 16 20  1  6  0  0  0
 16 15  1  0  0  0  0
 16 14  1  0  0  0  0
 19 15  1  0  0  0  0
 21 22  1  0  0  0  0
 22 23  2  0  0  0  0
 22 28  1  0  0  0  0
 23 29  1  0  0  0  0
 24 23  1  0  0  0  0
 25 24  2  0  0  0  0
 26 25  1  0  0  0  0
 26 21  2  0  0  0  0
 27 21  1  0  0  0  0
 30  5  1  0  0  0  0
 31 30  2  0  0  0  0
 32 33  1  0  0  0  0
 33 30  1  0  0  0  0
 34 35  1  0  0  0  0
 34 33  2  0  0  0  0
 36 34  1  0  0  0  0
 37 38  1  0  0  0  0
 37 36  1  0  0  0  0
 39 41  2  0  0  0  0
 39 37  1  0  0  0  0
 40 39  1  0  0  0  0
 41 42  1  0  0  0  0
 42 36  2  0  0  0  0
 42 43  1  0  0  0  0
 43 32  2  0  0  0  0
M  END
>  <minimizedAffinity>
-4.99492693

>  <minimizedRMSD>
0.776536763

$$$$
