
 OpenBabel03272508563D

 43 47  0  0  1  0  0  0  0  0999 V2000
   39.1710   31.4560   43.3820 C   0  0  0  0  0  0  0  0  0  0  0  0
   40.1540   30.5050   43.5400 C   0  0  0  0  0  0  0  0  0  0  0  0
   40.8680   30.1330   42.4250 C   0  0  0  0  0  0  0  0  0  0  0  0
   40.5630   30.7270   41.2200 C   0  0  0  0  0  0  0  0  0  0  0  0
   39.5780   31.6810   41.0550 C   0  0  0  0  0  0  0  0  0  0  0  0
   38.9040   32.0130   42.1800 N   0  0  0  0  0  0  0  0  0  0  0  0
   40.3950   30.0370   44.4840 H   0  0  0  0  0  0  0  0  0  0  0  0
   41.6590   29.3790   42.5140 H   0  0  0  0  0  0  0  0  0  0  0  0
   41.1490   30.4070   40.3580 H   0  0  0  0  0  0  0  0  0  0  0  0
   38.3910   31.8640   44.5700 C   0  0  0  0  0  0  0  0  0  0  0  0
   37.2870   32.4380   44.4470 O   0  0  0  0  0  0  0  0  0  0  0  0
   38.9290   31.5840   45.8680 N   0  0  0  0  0  0  0  0  0  0  0  0
   39.9060   31.2980   46.0340 H   0  0  0  0  0  0  0  0  0  0  0  0
   38.4140   31.1050   48.2580 C   0  0  2  0  0  0  0  0  0  0  0  0
   38.6440   32.5700   48.1510 C   0  0  0  0  0  0  0  0  0  0  0  0
   38.0580   31.7110   47.0150 C   0  0  1  0  0  0  0  0  0  0  0  0
   39.3380   30.4940   48.3510 H   0  0  0  0  0  0  0  0  0  0  0  0
   37.9540   33.2180   48.7280 H   0  0  0  0  0  0  0  0  0  0  0  0
   39.6680   32.9210   48.0840 H   0  0  0  0  0  0  0  0  0  0  0  0
   36.9930   31.9810   46.8090 H   0  0  0  0  0  0  0  0  0  0  0  0
   35.0500   30.1950   49.5450 C   0  0  0  0  0  0  0  0  0  0  0  0
   35.3790   29.5670   50.7880 C   0  0  0  0  0  0  0  0  0  0  0  0
   36.7770   29.4760   51.1680 C   0  0  0  0  0  0  0  0  0  0  0  0
   37.7230   29.9940   50.3240 N   0  0  0  0  0  0  0  0  0  0  0  0
   37.3300   30.5770   49.1570 C   0  0  0  0  0  0  0  0  0  0  0  0
   36.0080   30.6950   48.7370 N   0  0  0  0  0  0  0  0  0  0  0  0
   33.9980   30.2290   49.3170 H   0  0  0  0  0  0  0  0  0  0  0  0
   34.6250   29.1660   51.4440 H   0  0  0  0  0  0  0  0  0  0  0  0
   37.0150   29.0050   52.0960 H   0  0  0  0  0  0  0  0  0  0  0  0
   39.2530   32.2850   39.7740 C   0  0  0  0  0  0  0  0  0  0  0  0
   38.6300   33.3720   39.7410 O   0  0  0  0  0  0  0  0  0  0  0  0
   38.9420   30.6010   37.9120 C   0  0  0  0  0  3  0  0  0  0  0  0
   39.6250   31.6750   38.5030 C   0  0  0  0  0  0  0  0  0  0  0  0
   40.7060   32.1410   37.7860 C   0  0  0  0  0  0  0  0  0  0  0  0
   41.2390   32.9850   38.2510 H   0  0  0  0  0  0  0  0  0  0  0  0
   41.1800   31.6820   36.5830 C   0  0  0  0  0  0  0  0  0  0  0  0
   42.2140   32.0670   35.8170 N   0  0  0  0  0  0  0  0  0  0  0  0
   42.8670   32.8470   36.0510 H   0  0  0  0  0  0  0  0  0  0  0  0
   42.1740   31.2240   34.7410 C   0  0  0  0  0  0  0  0  0  0  0  0
   42.8980   31.2780   33.9160 H   0  0  0  0  0  0  0  0  0  0  0  0
   41.1270   30.3390   34.8560 C   0  0  0  0  0  3  0  0  0  0  0  0
   40.4660   30.6280   36.0570 C   0  0  0  0  0  0  0  0  0  0  0  0
   39.3700   30.0830   36.6840 C   0  0  0  0  0  3  0  0  0  0  0  0
  1  2  1  0  0  0  0
  1 10  1  0  0  0  0
  2  7  1  0  0  0  0
  3  8  1  0  0  0  0
  3  2  2  0  0  0  0
  4  3  1  0  0  0  0
  5  4  2  0  0  0  0
  5  6  1  0  0  0  0
  6  1  2  0  0  0  0
  9  4  1  0  0  0  0
 10 12  1  0  0  0  0
 11 10  2  0  0  0  0
 12 13  1  0  0  0  0
 12 16  1  0  0  0  0
 14 17  1  6  0  0  0
 14 25  1  0  0  0  0
 15 14  1  0  0  0  0
 15 18  1  0  0  0  0
 16 20  1  6  0  0  0
 16 15  1  0  0  0  0
 16 14  1  0  0  0  0
 19 15  1  0  0  0  0
 21 22  1  0  0  0  0
 22 23  2  0  0  0  0
 22 28  1  0  0  0  0
 23 29  1  0  0  0  0
 24 23  1  0  0  0  0
 25 24  2  0  0  0  0
 26 25  1  0  0  0  0
 26 21  2  0  0  0  0
 27 21  1  0  0  0  0
 30  5  1  0  0  0  0
 31 30  2  0  0  0  0
 32 33  1  0  0  0  0
 33 30  1  0  0  0  0
 34 35  1  0  0  0  0
 34 33  2  0  0  0  0
 36 34  1  0  0  0  0
 37 38  1  0  0  0  0
 37 36  1  0  0  0  0
 39 41  2  0  0  0  0
 39 37  1  0  0  0  0
 40 39  1  0  0  0  0
 41 42  1  0  0  0  0
 42 36  2  0  0  0  0
 42 43  1  0  0  0  0
 43 32  2  0  0  0  0
M  END
>  <minimizedAffinity>
-4.99882889

>  <minimizedRMSD>
1.46016514

$$$$
