
 OpenBabel03272508563D

 43 47  0  0  1  0  0  0  0  0999 V2000
   39.1780   31.4190   43.3690 C   0  0  0  0  0  0  0  0  0  0  0  0
   40.2370   30.5590   43.5500 C   0  0  0  0  0  0  0  0  0  0  0  0
   40.9430   30.1710   42.4360 C   0  0  0  0  0  0  0  0  0  0  0  0
   40.5550   30.6590   41.2080 C   0  0  0  0  0  0  0  0  0  0  0  0
   39.4930   31.5220   41.0190 C   0  0  0  0  0  0  0  0  0  0  0  0
   38.8310   31.8750   42.1440 N   0  0  0  0  0  0  0  0  0  0  0  0
   40.5440   30.1730   44.5120 H   0  0  0  0  0  0  0  0  0  0  0  0
   41.7940   29.4870   42.5430 H   0  0  0  0  0  0  0  0  0  0  0  0
   41.1370   30.3290   40.3470 H   0  0  0  0  0  0  0  0  0  0  0  0
   38.4060   31.8430   44.5560 C   0  0  0  0  0  0  0  0  0  0  0  0
   37.3370   32.4810   44.4330 O   0  0  0  0  0  0  0  0  0  0  0  0
   38.9100   31.5060   45.8540 N   0  0  0  0  0  0  0  0  0  0  0  0
   39.8670   31.1620   46.0250 H   0  0  0  0  0  0  0  0  0  0  0  0
   38.2920   30.9360   48.1980 C   0  0  2  0  0  0  0  0  0  0  0  0
   38.6820   32.3710   48.1920 C   0  0  0  0  0  0  0  0  0  0  0  0
   38.0330   31.6560   46.9930 C   0  0  1  0  0  0  0  0  0  0  0  0
   39.1410   30.2220   48.2660 H   0  0  0  0  0  0  0  0  0  0  0  0
   38.0540   33.0530   48.7990 H   0  0  0  0  0  0  0  0  0  0  0  0
   39.7390   32.6100   48.1650 H   0  0  0  0  0  0  0  0  0  0  0  0
   37.0080   32.0530   46.7880 H   0  0  0  0  0  0  0  0  0  0  0  0
   34.8270   30.1520   49.2870 C   0  0  0  0  0  0  0  0  0  0  0  0
   35.0540   29.5870   50.5820 C   0  0  0  0  0  0  0  0  0  0  0  0
   36.4200   29.4940   51.0650 C   0  0  0  0  0  0  0  0  0  0  0  0
   37.4340   29.9500   50.2650 N   0  0  0  0  0  0  0  0  0  0  0  0
   37.1360   30.4750   49.0450 C   0  0  0  0  0  0  0  0  0  0  0  0
   35.8500   30.5920   48.5240 N   0  0  0  0  0  0  0  0  0  0  0  0
   33.7940   30.1920   48.9830 H   0  0  0  0  0  0  0  0  0  0  0  0
   34.2480   29.2340   51.2020 H   0  0  0  0  0  0  0  0  0  0  0  0
   36.5820   29.0690   52.0310 H   0  0  0  0  0  0  0  0  0  0  0  0
   39.0820   32.0140   39.7150 C   0  0  0  0  0  0  0  0  0  0  0  0
   39.9430   32.1980   38.8220 O   0  0  0  0  0  0  0  0  0  0  0  0
   36.6970   31.3380   39.2130 C   0  0  0  0  0  3  0  0  0  0  0  0
   37.6920   32.3110   39.3920 C   0  0  0  0  0  0  0  0  0  0  0  0
   37.2660   33.6130   39.2430 C   0  0  0  0  0  0  0  0  0  0  0  0
   38.0480   34.3760   39.3860 H   0  0  0  0  0  0  0  0  0  0  0  0
   36.0000   34.0580   38.9440 C   0  0  0  0  0  0  0  0  0  0  0  0
   35.4950   35.2900   38.7800 N   0  0  0  0  0  0  0  0  0  0  0  0
   36.0460   36.1720   38.8660 H   0  0  0  0  0  0  0  0  0  0  0  0
   34.1740   35.0830   38.4960 C   0  0  0  0  0  0  0  0  0  0  0  0
   33.4700   35.9040   38.3050 H   0  0  0  0  0  0  0  0  0  0  0  0
   33.8850   33.7370   38.4890 C   0  0  0  0  0  3  0  0  0  0  0  0
   35.0720   33.0530   38.7810 C   0  0  0  0  0  0  0  0  0  0  0  0
   35.3840   31.7200   38.9070 C   0  0  0  0  0  3  0  0  0  0  0  0
  1  2  1  0  0  0  0
  1 10  1  0  0  0  0
  2  7  1  0  0  0  0
  3  8  1  0  0  0  0
  3  2  2  0  0  0  0
  4  3  1  0  0  0  0
  5  4  2  0  0  0  0
  5  6  1  0  0  0  0
  6  1  2  0  0  0  0
  9  4  1  0  0  0  0
 10 12  1  0  0  0  0
 11 10  2  0  0  0  0
 12 13  1  0  0  0  0
 12 16  1  0  0  0  0
 14 17  1  6  0  0  0
 14 25  1  0  0  0  0
 15 14  1  0  0  0  0
 15 18  1  0  0  0  0
 16 20  1  6  0  0  0
 16 15  1  0  0  0  0
 16 14  1  0  0  0  0
 19 15  1  0  0  0  0
 21 22  1  0  0  0  0
 22 23  2  0  0  0  0
 22 28  1  0  0  0  0
 23 29  1  0  0  0  0
 24 23  1  0  0  0  0
 25 24  2  0  0  0  0
 26 25  1  0  0  0  0
 26 21  2  0  0  0  0
 27 21  1  0  0  0  0
 30  5  1  0  0  0  0
 31 30  2  0  0  0  0
 32 33  1  0  0  0  0
 33 30  1  0  0  0  0
 34 35  1  0  0  0  0
 34 33  2  0  0  0  0
 36 34  1  0  0  0  0
 37 38  1  0  0  0  0
 37 36  1  0  0  0  0
 39 37  1  0  0  0  0
 40 39  1  0  0  0  0
 41 39  2  0  0  0  0
 41 42  1  0  0  0  0
 42 43  1  0  0  0  0
 42 36  2  0  0  0  0
 43 32  2  0  0  0  0
M  END
>  <minimizedAffinity>
-5.20949841

>  <minimizedRMSD>
2.85799861

$$$$
