
 OpenBabel03272508563D

 43 47  0  0  1  0  0  0  0  0999 V2000
   39.1420   31.4730   43.4230 C   0  0  0  0  0  0  0  0  0  0  0  0
   40.1370   30.5360   43.5860 C   0  0  0  0  0  0  0  0  0  0  0  0
   40.8610   30.1730   42.4750 C   0  0  0  0  0  0  0  0  0  0  0  0
   40.5540   30.7620   41.2680 C   0  0  0  0  0  0  0  0  0  0  0  0
   39.5580   31.7020   41.0980 C   0  0  0  0  0  0  0  0  0  0  0  0
   38.8730   32.0260   42.2190 N   0  0  0  0  0  0  0  0  0  0  0  0
   40.3790   30.0710   44.5310 H   0  0  0  0  0  0  0  0  0  0  0  0
   41.6630   29.4300   42.5690 H   0  0  0  0  0  0  0  0  0  0  0  0
   41.1490   30.4500   40.4100 H   0  0  0  0  0  0  0  0  0  0  0  0
   38.3500   31.8710   44.6070 C   0  0  0  0  0  0  0  0  0  0  0  0
   37.2030   32.3520   44.4790 O   0  0  0  0  0  0  0  0  0  0  0  0
   38.9290   31.6930   45.9050 N   0  0  0  0  0  0  0  0  0  0  0  0
   39.9270   31.4910   46.0650 H   0  0  0  0  0  0  0  0  0  0  0  0
   38.4220   31.1530   48.2830 C   0  0  2  0  0  0  0  0  0  0  0  0
   38.6770   32.6170   48.2180 C   0  0  0  0  0  0  0  0  0  0  0  0
   38.0690   31.8020   47.0610 C   0  0  1  0  0  0  0  0  0  0  0  0
   39.3350   30.5230   48.3520 H   0  0  0  0  0  0  0  0  0  0  0  0
   38.0040   33.2600   48.8190 H   0  0  0  0  0  0  0  0  0  0  0  0
   39.7070   32.9510   48.1540 H   0  0  0  0  0  0  0  0  0  0  0  0
   37.0070   32.0970   46.8710 H   0  0  0  0  0  0  0  0  0  0  0  0
   35.0530   30.2320   49.5510 C   0  0  0  0  0  0  0  0  0  0  0  0
   35.3770   29.5980   50.7920 C   0  0  0  0  0  0  0  0  0  0  0  0
   36.7740   29.5080   51.1780 C   0  0  0  0  0  0  0  0  0  0  0  0
   37.7230   30.0310   50.3410 N   0  0  0  0  0  0  0  0  0  0  0  0
   37.3340   30.6190   49.1750 C   0  0  0  0  0  0  0  0  0  0  0  0
   36.0140   30.7380   48.7490 N   0  0  0  0  0  0  0  0  0  0  0  0
   34.0020   30.2660   49.3180 H   0  0  0  0  0  0  0  0  0  0  0  0
   34.6210   29.1930   51.4420 H   0  0  0  0  0  0  0  0  0  0  0  0
   37.0080   29.0320   52.1040 H   0  0  0  0  0  0  0  0  0  0  0  0
   39.2320   32.3020   39.8140 C   0  0  0  0  0  0  0  0  0  0  0  0
   38.6220   33.3960   39.7780 O   0  0  0  0  0  0  0  0  0  0  0  0
   38.8860   30.6060   37.9700 C   0  0  0  0  0  3  0  0  0  0  0  0
   39.5850   31.6770   38.5450 C   0  0  0  0  0  0  0  0  0  0  0  0
   40.6640   32.1280   37.8160 C   0  0  0  0  0  0  0  0  0  0  0  0
   41.2090   32.9700   38.2670 H   0  0  0  0  0  0  0  0  0  0  0  0
   41.1220   31.6540   36.6100 C   0  0  0  0  0  0  0  0  0  0  0  0
   42.1510   32.0230   35.8320 N   0  0  0  0  0  0  0  0  0  0  0  0
   42.8140   32.7980   36.0530 H   0  0  0  0  0  0  0  0  0  0  0  0
   42.0940   31.1720   34.7620 C   0  0  0  0  0  0  0  0  0  0  0  0
   42.8100   31.2140   33.9320 H   0  0  0  0  0  0  0  0  0  0  0  0
   41.0400   30.2990   34.8960 C   0  0  0  0  0  3  0  0  0  0  0  0
   40.3930   30.6040   36.1000 C   0  0  0  0  0  0  0  0  0  0  0  0
   39.2990   30.0730   36.7410 C   0  0  0  0  0  3  0  0  0  0  0  0
  1  2  1  0  0  0  0
  1 10  1  0  0  0  0
  2  7  1  0  0  0  0
  3  8  1  0  0  0  0
  3  2  2  0  0  0  0
  4  3  1  0  0  0  0
  5  4  2  0  0  0  0
  5  6  1  0  0  0  0
  6  1  2  0  0  0  0
  9  4  1  0  0  0  0
 10 12  1  0  0  0  0
 11 10  2  0  0  0  0
 12 13  1  0  0  0  0
 12 16  1  0  0  0  0
 14 17  1  6  0  0  0
 14 25  1  0  0  0  0
 15 14  1  0  0  0  0
 15 18  1  0  0  0  0
 16 20  1  6  0  0  0
 16 15  1  0  0  0  0
 16 14  1  0  0  0  0
 19 15  1  0  0  0  0
 21 22  1  0  0  0  0
 22 23  2  0  0  0  0
 22 28  1  0  0  0  0
 23 29  1  0  0  0  0
 24 23  1  0  0  0  0
 25 24  2  0  0  0  0
 26 25  1  0  0  0  0
 26 21  2  0  0  0  0
 27 21  1  0  0  0  0
 30  5  1  0  0  0  0
 31 30  2  0  0  0  0
 32 33  1  0  0  0  0
 33 30  1  0  0  0  0
 34 35  1  0  0  0  0
 34 33  2  0  0  0  0
 36 34  1  0  0  0  0
 37 38  1  0  0  0  0
 37 36  1  0  0  0  0
 39 41  2  0  0  0  0
 39 37  1  0  0  0  0
 40 39  1  0  0  0  0
 41 42  1  0  0  0  0
 42 36  2  0  0  0  0
 42 43  1  0  0  0  0
 43 32  2  0  0  0  0
M  END
>  <minimizedAffinity>
-4.9890933

>  <minimizedRMSD>
0.743433833

$$$$
