
 OpenBabel03272508563D

 43 47  0  0  1  0  0  0  0  0999 V2000
   39.1280   31.4890   43.4150 C   0  0  0  0  0  0  0  0  0  0  0  0
   40.1200   30.5470   43.5700 C   0  0  0  0  0  0  0  0  0  0  0  0
   40.8420   30.1900   42.4560 C   0  0  0  0  0  0  0  0  0  0  0  0
   40.5350   30.7870   41.2530 C   0  0  0  0  0  0  0  0  0  0  0  0
   39.5410   31.7310   41.0910 C   0  0  0  0  0  0  0  0  0  0  0  0
   38.8590   32.0500   42.2140 N   0  0  0  0  0  0  0  0  0  0  0  0
   40.3630   30.0760   44.5120 H   0  0  0  0  0  0  0  0  0  0  0  0
   41.6410   29.4430   42.5440 H   0  0  0  0  0  0  0  0  0  0  0  0
   41.1270   30.4780   40.3920 H   0  0  0  0  0  0  0  0  0  0  0  0
   38.3390   31.8820   44.6020 C   0  0  0  0  0  0  0  0  0  0  0  0
   37.1880   32.3550   44.4800 O   0  0  0  0  0  0  0  0  0  0  0  0
   38.9250   31.7070   45.8980 N   0  0  0  0  0  0  0  0  0  0  0  0
   39.9260   31.5120   46.0530 H   0  0  0  0  0  0  0  0  0  0  0  0
   38.4260   31.1530   48.2740 C   0  0  2  0  0  0  0  0  0  0  0  0
   38.6840   32.6160   48.2180 C   0  0  0  0  0  0  0  0  0  0  0  0
   38.0690   31.8110   47.0580 C   0  0  1  0  0  0  0  0  0  0  0  0
   39.3370   30.5200   48.3350 H   0  0  0  0  0  0  0  0  0  0  0  0
   38.0150   33.2570   48.8250 H   0  0  0  0  0  0  0  0  0  0  0  0
   39.7150   32.9480   48.1520 H   0  0  0  0  0  0  0  0  0  0  0  0
   37.0080   32.1090   46.8740 H   0  0  0  0  0  0  0  0  0  0  0  0
   35.0600   30.2270   49.5460 C   0  0  0  0  0  0  0  0  0  0  0  0
   35.3860   29.5890   50.7840 C   0  0  0  0  0  0  0  0  0  0  0  0
   36.7840   29.4980   51.1670 C   0  0  0  0  0  0  0  0  0  0  0  0
   37.7310   30.0240   50.3290 N   0  0  0  0  0  0  0  0  0  0  0  0
   37.3400   30.6150   49.1670 C   0  0  0  0  0  0  0  0  0  0  0  0
   36.0190   30.7350   48.7440 N   0  0  0  0  0  0  0  0  0  0  0  0
   34.0080   30.2610   49.3160 H   0  0  0  0  0  0  0  0  0  0  0  0
   34.6320   29.1820   51.4350 H   0  0  0  0  0  0  0  0  0  0  0  0
   37.0210   29.0190   52.0910 H   0  0  0  0  0  0  0  0  0  0  0  0
   39.2150   32.3390   39.8110 C   0  0  0  0  0  0  0  0  0  0  0  0
   38.6150   33.4390   39.7830 O   0  0  0  0  0  0  0  0  0  0  0  0
   40.6860   32.0510   37.7750 C   0  0  0  0  0  3  0  0  0  0  0  0
   39.5570   31.7180   38.5380 C   0  0  0  0  0  0  0  0  0  0  0  0
   38.7620   30.7300   37.9990 C   0  0  0  0  0  0  0  0  0  0  0  0
   37.8780   30.4670   38.6010 H   0  0  0  0  0  0  0  0  0  0  0  0
   38.9460   30.0480   36.8210 C   0  0  0  0  0  0  0  0  0  0  0  0
   38.2350   29.0810   36.2200 N   0  0  0  0  0  0  0  0  0  0  0  0
   37.3550   28.6700   36.6000 H   0  0  0  0  0  0  0  0  0  0  0  0
   38.9260   28.8120   35.0710 C   0  0  0  0  0  0  0  0  0  0  0  0
   38.6010   28.0540   34.3460 H   0  0  0  0  0  0  0  0  0  0  0  0
   40.0440   29.6090   34.9800 C   0  0  0  0  0  3  0  0  0  0  0  0
   40.0710   30.4230   36.1200 C   0  0  0  0  0  0  0  0  0  0  0  0
   40.9370   31.3960   36.5610 C   0  0  0  0  0  3  0  0  0  0  0  0
  1  2  1  0  0  0  0
  1 10  1  0  0  0  0
  2  7  1  0  0  0  0
  3  8  1  0  0  0  0
  3  2  2  0  0  0  0
  4  3  1  0  0  0  0
  5  4  2  0  0  0  0
  5  6  1  0  0  0  0
  6  1  2  0  0  0  0
  9  4  1  0  0  0  0
 10 12  1  0  0  0  0
 11 10  2  0  0  0  0
 12 13  1  0  0  0  0
 12 16  1  0  0  0  0
 14 17  1  6  0  0  0
 14 25  1  0  0  0  0
 15 14  1  0  0  0  0
 15 18  1  0  0  0  0
 16 20  1  6  0  0  0
 16 15  1  0  0  0  0
 16 14  1  0  0  0  0
 19 15  1  0  0  0  0
 21 22  1  0  0  0  0
 22 23  2  0  0  0  0
 22 28  1  0  0  0  0
 23 29  1  0  0  0  0
 24 23  1  0  0  0  0
 25 24  2  0  0  0  0
 26 25  1  0  0  0  0
 26 21  2  0  0  0  0
 27 21  1  0  0  0  0
 30  5  1  0  0  0  0
 31 30  2  0  0  0  0
 32 33  1  0  0  0  0
 33 30  1  0  0  0  0
 34 33  2  0  0  0  0
 34 35  1  0  0  0  0
 36 34  1  0  0  0  0
 37 38  1  0  0  0  0
 37 36  1  0  0  0  0
 39 37  1  0  0  0  0
 40 39  1  0  0  0  0
 41 39  2  0  0  0  0
 41 42  1  0  0  0  0
 42 43  1  0  0  0  0
 42 36  2  0  0  0  0
 43 32  2  0  0  0  0
M  END
>  <minimizedAffinity>
-4.95380783

>  <minimizedRMSD>
0.803911209

$$$$
