
 OpenBabel03272508563D

 43 47  0  0  1  0  0  0  0  0999 V2000
   39.1430   31.4730   43.4230 C   0  0  0  0  0  0  0  0  0  0  0  0
   40.1380   30.5360   43.5860 C   0  0  0  0  0  0  0  0  0  0  0  0
   40.8620   30.1730   42.4750 C   0  0  0  0  0  0  0  0  0  0  0  0
   40.5550   30.7610   41.2680 C   0  0  0  0  0  0  0  0  0  0  0  0
   39.5580   31.7020   41.0980 C   0  0  0  0  0  0  0  0  0  0  0  0
   38.8740   32.0260   42.2190 N   0  0  0  0  0  0  0  0  0  0  0  0
   40.3800   30.0710   44.5310 H   0  0  0  0  0  0  0  0  0  0  0  0
   41.6630   29.4290   42.5680 H   0  0  0  0  0  0  0  0  0  0  0  0
   41.1490   30.4490   40.4090 H   0  0  0  0  0  0  0  0  0  0  0  0
   38.3520   31.8720   44.6070 C   0  0  0  0  0  0  0  0  0  0  0  0
   37.2060   32.3570   44.4800 O   0  0  0  0  0  0  0  0  0  0  0  0
   38.9290   31.6890   45.9060 N   0  0  0  0  0  0  0  0  0  0  0  0
   39.9260   31.4830   46.0660 H   0  0  0  0  0  0  0  0  0  0  0  0
   38.4210   31.1520   48.2840 C   0  0  2  0  0  0  0  0  0  0  0  0
   38.6750   32.6160   48.2170 C   0  0  0  0  0  0  0  0  0  0  0  0
   38.0680   31.7990   47.0610 C   0  0  1  0  0  0  0  0  0  0  0  0
   39.3350   30.5230   48.3540 H   0  0  0  0  0  0  0  0  0  0  0  0
   38.0010   33.2590   48.8160 H   0  0  0  0  0  0  0  0  0  0  0  0
   39.7040   32.9510   48.1530 H   0  0  0  0  0  0  0  0  0  0  0  0
   37.0060   32.0920   46.8700 H   0  0  0  0  0  0  0  0  0  0  0  0
   35.0530   30.2310   49.5530 C   0  0  0  0  0  0  0  0  0  0  0  0
   35.3770   29.5970   50.7940 C   0  0  0  0  0  0  0  0  0  0  0  0
   36.7740   29.5070   51.1790 C   0  0  0  0  0  0  0  0  0  0  0  0
   37.7230   30.0300   50.3420 N   0  0  0  0  0  0  0  0  0  0  0  0
   37.3340   30.6180   49.1770 C   0  0  0  0  0  0  0  0  0  0  0  0
   36.0140   30.7360   48.7510 N   0  0  0  0  0  0  0  0  0  0  0  0
   34.0010   30.2650   49.3210 H   0  0  0  0  0  0  0  0  0  0  0  0
   34.6210   29.1920   51.4450 H   0  0  0  0  0  0  0  0  0  0  0  0
   37.0090   29.0310   52.1060 H   0  0  0  0  0  0  0  0  0  0  0  0
   39.2320   32.3010   39.8150 C   0  0  0  0  0  0  0  0  0  0  0  0
   38.6220   33.3950   39.7780 O   0  0  0  0  0  0  0  0  0  0  0  0
   38.8870   30.6060   37.9700 C   0  0  0  0  0  3  0  0  0  0  0  0
   39.5860   31.6770   38.5450 C   0  0  0  0  0  0  0  0  0  0  0  0
   40.6650   32.1270   37.8150 C   0  0  0  0  0  0  0  0  0  0  0  0
   41.2090   32.9700   38.2670 H   0  0  0  0  0  0  0  0  0  0  0  0
   41.1230   31.6540   36.6110 C   0  0  0  0  0  0  0  0  0  0  0  0
   42.1530   32.0240   35.8320 N   0  0  0  0  0  0  0  0  0  0  0  0
   42.8140   32.7990   36.0530 H   0  0  0  0  0  0  0  0  0  0  0  0
   42.0950   31.1740   34.7630 C   0  0  0  0  0  0  0  0  0  0  0  0
   42.8110   31.2140   33.9310 H   0  0  0  0  0  0  0  0  0  0  0  0
   41.0400   30.2990   34.8950 C   0  0  0  0  0  3  0  0  0  0  0  0
   40.3940   30.6030   36.1000 C   0  0  0  0  0  0  0  0  0  0  0  0
   39.2990   30.0720   36.7420 C   0  0  0  0  0  3  0  0  0  0  0  0
  1  2  1  0  0  0  0
  1 10  1  0  0  0  0
  2  7  1  0  0  0  0
  3  8  1  0  0  0  0
  3  2  2  0  0  0  0
  4  3  1  0  0  0  0
  5  4  2  0  0  0  0
  5  6  1  0  0  0  0
  6  1  2  0  0  0  0
  9  4  1  0  0  0  0
 10 12  1  0  0  0  0
 11 10  2  0  0  0  0
 12 13  1  0  0  0  0
 12 16  1  0  0  0  0
 14 17  1  6  0  0  0
 14 25  1  0  0  0  0
 15 14  1  0  0  0  0
 15 18  1  0  0  0  0
 16 20  1  6  0  0  0
 16 15  1  0  0  0  0
 16 14  1  0  0  0  0
 19 15  1  0  0  0  0
 21 22  1  0  0  0  0
 22 23  2  0  0  0  0
 22 28  1  0  0  0  0
 23 29  1  0  0  0  0
 24 23  1  0  0  0  0
 25 24  2  0  0  0  0
 26 25  1  0  0  0  0
 26 21  2  0  0  0  0
 27 21  1  0  0  0  0
 30  5  1  0  0  0  0
 31 30  2  0  0  0  0
 32 33  1  0  0  0  0
 33 30  1  0  0  0  0
 34 35  1  0  0  0  0
 34 33  2  0  0  0  0
 36 34  1  0  0  0  0
 37 38  1  0  0  0  0
 37 36  1  0  0  0  0
 39 41  2  0  0  0  0
 39 37  1  0  0  0  0
 40 39  1  0  0  0  0
 41 42  1  0  0  0  0
 42 36  2  0  0  0  0
 42 43  1  0  0  0  0
 43 32  2  0  0  0  0
M  END
>  <minimizedAffinity>
-4.98953485

>  <minimizedRMSD>
1.15144539

$$$$
