
 OpenBabel03272507323D

 39 43  0  0  1  0  0  0  0  0999 V2000
   33.0420   27.6490   47.7890 C   0  0  0  0  0  0  0  0  0  0  0  0
   32.4730   26.5760   48.1570 O   0  0  0  0  0  0  0  0  0  0  0  0
   35.7240   29.1230   49.6370 C   0  0  0  0  0  0  0  0  0  0  0  0
   34.6760   29.5100   50.4420 C   0  0  0  0  0  0  0  0  0  0  0  0
   33.4970   29.0120   49.8670 C   0  0  0  0  0  0  0  0  0  0  0  0
   33.9110   28.3470   48.7310 C   0  0  0  0  0  0  0  0  0  0  0  0
   35.2210   28.4380   48.6380 O   0  0  0  0  0  0  0  0  0  0  0  0
   34.6650   30.0900   51.3670 H   0  0  0  0  0  0  0  0  0  0  0  0
   32.4680   29.0960   50.1870 H   0  0  0  0  0  0  0  0  0  0  0  0
   37.1030   29.4710   49.9380 C   0  0  0  0  0  0  0  0  0  0  0  0
   37.7000   28.8560   50.8340 O   0  0  0  0  0  0  0  0  0  0  0  0
   37.6960   30.5240   49.1630 C   0  0  0  0  0  0  0  0  0  0  0  0
   38.0110   31.6940   49.8340 C   0  0  0  0  0  0  0  0  0  0  0  0
   38.5890   32.7400   49.1060 C   0  0  0  0  0  0  0  0  0  0  0  0
   38.8130   32.5500   47.7600 N   0  0  0  0  0  0  0  0  0  0  0  0
   38.4940   31.4050   47.1520 C   0  0  0  0  0  0  0  0  0  0  0  0
   37.9410   30.3960   47.8420 N   0  0  0  0  0  0  0  0  0  0  0  0
   37.8210   31.8100   50.8920 H   0  0  0  0  0  0  0  0  0  0  0  0
   38.8450   33.6640   49.6020 H   0  0  0  0  0  0  0  0  0  0  0  0
   38.6710   31.2550   46.0950 H   0  0  0  0  0  0  0  0  0  0  0  0
   32.8270   28.1800   46.4130 C   0  0  1  0  0  0  0  0  0  0  0  0
   32.3250   27.0390   45.4410 C   0  0  0  0  0  0  0  0  0  0  0  0
   31.5100   28.2050   45.7710 C   0  0  1  0  0  0  0  0  0  0  0  0
   33.7510   28.6190   45.9600 H   0  0  0  0  0  0  0  0  0  0  0  0
   32.8350   26.9840   44.4600 H   0  0  0  0  0  0  0  0  0  0  0  0
   32.1850   26.0450   45.8840 H   0  0  0  0  0  0  0  0  0  0  0  0
   31.4570   29.0160   44.9730 H   0  0  0  0  0  0  0  0  0  0  0  0
   29.5210   26.8790   46.4200 C   0  0  0  0  0  0  0  0  0  0  0  0
   30.2320   28.0810   46.5210 C   0  0  0  0  0  0  0  0  0  0  0  0
   29.6440   29.0190   47.3420 C   0  0  0  0  0  0  0  0  0  0  0  0
   30.1680   29.9540   47.4540 H   0  0  0  0  0  0  0  0  0  0  0  0
   28.4640   28.7700   47.9920 C   0  0  0  0  0  0  0  0  0  0  0  0
   27.7760   29.5890   48.8210 N   0  0  0  0  0  0  0  0  0  0  0  0
   28.0570   30.5680   49.0980 H   0  0  0  0  0  0  0  0  0  0  0  0
   26.6630   28.9680   49.2530 C   0  0  0  0  0  0  0  0  0  0  0  0
   25.9540   29.4180   49.9240 H   0  0  0  0  0  0  0  0  0  0  0  0
   26.6570   27.7200   48.6730 C   0  0  0  0  0  0  0  0  0  0  0  0
   27.7930   27.5950   47.8770 C   0  0  0  0  0  0  0  0  0  0  0  0
   28.3340   26.6380   47.0780 C   0  0  0  0  0  0  0  0  0  0  0  0
  1  2  2  0  0  0  0
  1  6  1  0  0  0  0
  3 10  1  0  0  0  0
  3  4  2  0  0  0  0
  4  8  1  0  0  0  0
  5  9  1  0  0  0  0
  5  4  1  0  0  0  0
  6  5  2  0  0  0  0
  7  6  1  0  0  0  0
  7  3  1  0  0  0  0
 10 11  2  0  0  0  0
 12 13  1  0  0  0  0
 12 10  1  0  0  0  0
 13 18  1  0  0  0  0
 14 19  1  0  0  0  0
 14 13  2  0  0  0  0
 15 14  1  0  0  0  0
 16 15  2  0  0  0  0
 16 17  1  0  0  0  0
 17 12  2  0  0  0  0
 20 16  1  0  0  0  0
 21 24  1  6  0  0  0
 21  1  1  0  0  0  0
 22 23  1  0  0  0  0
 22 26  1  0  0  0  0
 22 21  1  0  0  0  0
 23 27  1  6  0  0  0
 23 21  1  0  0  0  0
 23 29  1  0  0  0  0
 25 22  1  0  0  0  0
 28 29  2  0  0  0  0
 28 39  1  0  0  0  0
 29 30  1  0  0  0  0
 30 31  1  0  0  0  0
 30 32  2  0  0  0  0
 32 33  1  0  0  0  0
 33 34  1  0  0  0  0
 33 35  1  0  0  0  0
 35 36  1  0  0  0  0
 37 35  2  0  0  0  0
 38 32  1  0  0  0  0
 38 37  1  0  0  0  0
 39 38  2  0  0  0  0
M  END
>  <minimizedAffinity>
-6.34042358

>  <minimizedRMSD>
2.10861421

$$$$
