
 OpenBabel03272508563D

 43 47  0  0  1  0  0  0  0  0999 V2000
   39.1280   31.4880   43.4130 C   0  0  0  0  0  0  0  0  0  0  0  0
   40.1210   30.5470   43.5690 C   0  0  0  0  0  0  0  0  0  0  0  0
   40.8420   30.1890   42.4540 C   0  0  0  0  0  0  0  0  0  0  0  0
   40.5350   30.7860   41.2510 C   0  0  0  0  0  0  0  0  0  0  0  0
   39.5410   31.7310   41.0890 C   0  0  0  0  0  0  0  0  0  0  0  0
   38.8600   32.0500   42.2120 N   0  0  0  0  0  0  0  0  0  0  0  0
   40.3630   30.0760   44.5110 H   0  0  0  0  0  0  0  0  0  0  0  0
   41.6410   29.4430   42.5420 H   0  0  0  0  0  0  0  0  0  0  0  0
   41.1280   30.4780   40.3900 H   0  0  0  0  0  0  0  0  0  0  0  0
   38.3390   31.8810   44.6000 C   0  0  0  0  0  0  0  0  0  0  0  0
   37.1880   32.3530   44.4780 O   0  0  0  0  0  0  0  0  0  0  0  0
   38.9260   31.7080   45.8960 N   0  0  0  0  0  0  0  0  0  0  0  0
   39.9260   31.5130   46.0510 H   0  0  0  0  0  0  0  0  0  0  0  0
   38.4260   31.1530   48.2720 C   0  0  2  0  0  0  0  0  0  0  0  0
   38.6860   32.6160   48.2160 C   0  0  0  0  0  0  0  0  0  0  0  0
   38.0700   31.8120   47.0560 C   0  0  1  0  0  0  0  0  0  0  0  0
   39.3380   30.5200   48.3330 H   0  0  0  0  0  0  0  0  0  0  0  0
   38.0160   33.2570   48.8240 H   0  0  0  0  0  0  0  0  0  0  0  0
   39.7160   32.9480   48.1500 H   0  0  0  0  0  0  0  0  0  0  0  0
   37.0080   32.1100   46.8720 H   0  0  0  0  0  0  0  0  0  0  0  0
   35.0610   30.2280   49.5450 C   0  0  0  0  0  0  0  0  0  0  0  0
   35.3870   29.5900   50.7830 C   0  0  0  0  0  0  0  0  0  0  0  0
   36.7850   29.4960   51.1640 C   0  0  0  0  0  0  0  0  0  0  0  0
   37.7320   30.0230   50.3270 N   0  0  0  0  0  0  0  0  0  0  0  0
   37.3410   30.6160   49.1650 C   0  0  0  0  0  0  0  0  0  0  0  0
   36.0200   30.7370   48.7430 N   0  0  0  0  0  0  0  0  0  0  0  0
   34.0080   30.2640   49.3150 H   0  0  0  0  0  0  0  0  0  0  0  0
   34.6320   29.1820   51.4330 H   0  0  0  0  0  0  0  0  0  0  0  0
   37.0220   29.0170   52.0880 H   0  0  0  0  0  0  0  0  0  0  0  0
   39.2150   32.3390   39.8100 C   0  0  0  0  0  0  0  0  0  0  0  0
   38.6150   33.4390   39.7810 O   0  0  0  0  0  0  0  0  0  0  0  0
   40.6880   32.0520   37.7730 C   0  0  0  0  0  3  0  0  0  0  0  0
   39.5590   31.7180   38.5360 C   0  0  0  0  0  0  0  0  0  0  0  0
   38.7640   30.7300   37.9960 C   0  0  0  0  0  0  0  0  0  0  0  0
   37.8790   30.4670   38.5980 H   0  0  0  0  0  0  0  0  0  0  0  0
   38.9490   30.0490   36.8190 C   0  0  0  0  0  0  0  0  0  0  0  0
   38.2380   29.0820   36.2170 N   0  0  0  0  0  0  0  0  0  0  0  0
   37.3570   28.6710   36.5960 H   0  0  0  0  0  0  0  0  0  0  0  0
   38.9300   28.8130   35.0690 C   0  0  0  0  0  0  0  0  0  0  0  0
   38.6050   28.0570   34.3420 H   0  0  0  0  0  0  0  0  0  0  0  0
   40.0470   29.6110   34.9780 C   0  0  0  0  0  3  0  0  0  0  0  0
   40.0740   30.4240   36.1180 C   0  0  0  0  0  0  0  0  0  0  0  0
   40.9390   31.3970   36.5600 C   0  0  0  0  0  3  0  0  0  0  0  0
  1  2  1  0  0  0  0
  1 10  1  0  0  0  0
  2  7  1  0  0  0  0
  3  8  1  0  0  0  0
  3  2  2  0  0  0  0
  4  3  1  0  0  0  0
  5  4  2  0  0  0  0
  5  6  1  0  0  0  0
  6  1  2  0  0  0  0
  9  4  1  0  0  0  0
 10 12  1  0  0  0  0
 11 10  2  0  0  0  0
 12 13  1  0  0  0  0
 12 16  1  0  0  0  0
 14 17  1  6  0  0  0
 14 25  1  0  0  0  0
 15 14  1  0  0  0  0
 15 18  1  0  0  0  0
 16 20  1  6  0  0  0
 16 15  1  0  0  0  0
 16 14  1  0  0  0  0
 19 15  1  0  0  0  0
 21 22  1  0  0  0  0
 22 23  2  0  0  0  0
 22 28  1  0  0  0  0
 23 29  1  0  0  0  0
 24 23  1  0  0  0  0
 25 24  2  0  0  0  0
 26 25  1  0  0  0  0
 26 21  2  0  0  0  0
 27 21  1  0  0  0  0
 30  5  1  0  0  0  0
 31 30  2  0  0  0  0
 32 33  1  0  0  0  0
 33 30  1  0  0  0  0
 34 33  2  0  0  0  0
 34 35  1  0  0  0  0
 36 34  1  0  0  0  0
 37 38  1  0  0  0  0
 37 36  1  0  0  0  0
 39 37  1  0  0  0  0
 40 39  1  0  0  0  0
 41 39  2  0  0  0  0
 41 42  1  0  0  0  0
 42 43  1  0  0  0  0
 42 36  2  0  0  0  0
 43 32  2  0  0  0  0
M  END
>  <minimizedAffinity>
-4.9543066

>  <minimizedRMSD>
0.877763987

$$$$
