
 OpenBabel03272510253D

 48 53  0  0  1  0  0  0  0  0999 V2000
   39.6800   31.8620   41.8690 N   0  0  0  0  0  0  0  0  0  0  0  0
   39.3210   33.2850   41.9700 C   0  0  1  0  0  0  0  0  0  0  0  0
   37.9290   33.4490   41.5680 C   0  0  0  0  0  0  0  0  0  0  0  0
   37.8160   33.1130   40.2060 O   0  0  0  0  0  0  0  0  0  0  0  0
   38.2630   31.8730   39.8720 C   0  0  0  0  0  0  0  0  0  0  0  0
   39.6070   31.5320   40.4630 C   0  0  2  0  0  0  0  0  0  0  0  0
   40.6750   31.8010   42.1570 H   0  0  0  0  0  0  0  0  0  0  0  0
   39.9610   33.9050   41.3380 H   0  0  0  0  0  0  0  0  0  0  0  0
   37.0970   32.9860   42.0210 H   0  0  0  0  0  0  0  0  0  0  0  0
   37.7160   34.5620   41.5690 H   0  0  0  0  0  0  0  0  0  0  0  0
   38.3740   31.8330   38.7780 H   0  0  0  0  0  0  0  0  0  0  0  0
   37.5040   31.1120   40.1390 H   0  0  0  0  0  0  0  0  0  0  0  0
   40.4640   31.9020   39.8780 H   0  0  0  0  0  0  0  0  0  0  0  0
   40.3410   29.4400   39.4080 C   0  0  0  0  0  3  0  0  0  0  0  0
   39.6360   30.0210   40.4620 C   0  0  0  0  0  0  0  0  0  0  0  0
   39.0320   29.2110   41.4030 C   0  0  0  0  0  0  0  0  0  0  0  0
   38.5000   29.7140   42.1970 H   0  0  0  0  0  0  0  0  0  0  0  0
   39.1500   27.8360   41.2630 C   0  0  0  0  0  0  0  0  0  0  0  0
   38.6740   26.8450   42.0140 N   0  0  0  0  0  0  0  0  0  0  0  0
   38.1010   26.9720   42.8820 H   0  0  0  0  0  0  0  0  0  0  0  0
   39.0390   25.6580   41.4920 C   0  0  0  0  0  0  0  0  0  0  0  0
   38.7870   24.6920   41.9030 H   0  0  0  0  0  0  0  0  0  0  0  0
   39.7780   25.9060   40.3610 C   0  0  0  0  0  3  0  0  0  0  0  0
   39.8580   27.2780   40.2010 C   0  0  0  0  0  0  0  0  0  0  0  0
   40.4690   28.0690   39.2510 C   0  0  0  0  0  3  0  0  0  0  0  0
   39.5190   33.5880   43.3460 O   0  0  0  0  0  0  0  0  0  0  0  0
   36.2300   30.2070   46.9020 C   0  0  0  0  0  0  0  0  0  0  0  0
   37.0610   30.7750   47.8660 C   0  0  0  0  0  0  0  0  0  0  0  0
   38.0500   31.6830   47.5130 C   0  0  0  0  0  0  0  0  0  0  0  0
   38.1590   31.9860   46.1630 C   0  0  0  0  0  0  0  0  0  0  0  0
   39.0500   32.8430   45.5760 N   0  0  0  0  0  0  0  0  0  0  0  0
   38.7830   32.8140   44.2600 C   0  0  0  0  0  0  0  0  0  0  0  0
   37.7890   31.9930   44.0060 N   0  0  0  0  0  0  0  0  0  0  0  0
   37.3620   31.4480   45.1770 C   0  0  0  0  0  0  0  0  0  0  0  0
   36.3710   30.5340   45.5610 C   0  0  0  0  0  0  0  0  0  0  0  0
   35.4600   29.5040   47.1440 H   0  0  0  0  0  0  0  0  0  0  0  0
   38.6840   32.1160   48.2630 H   0  0  0  0  0  0  0  0  0  0  0  0
   39.7790   33.3970   46.0760 H   0  0  0  0  0  0  0  0  0  0  0  0
   35.7480   30.1170   44.7800 H   0  0  0  0  0  0  0  0  0  0  0  0
   37.4300   30.1360   51.5430 C   0  0  0  0  0  0  0  0  0  0  0  0
   37.7410   30.5860   50.2720 C   0  0  0  0  0  0  0  0  0  0  0  0
   36.8420   30.3570   49.2370 C   0  0  0  0  0  0  0  0  0  0  0  0
   35.6920   29.6910   49.5400 N   0  0  0  0  0  0  0  0  0  0  0  0
   35.3950   29.2560   50.7770 C   0  0  0  0  0  0  0  0  0  0  0  0
   36.2620   29.4810   51.7630 N   0  0  0  0  0  0  0  0  0  0  0  0
   38.1870   30.3580   52.2920 H   0  0  0  0  0  0  0  0  0  0  0  0
   38.6600   31.1160   50.0410 H   0  0  0  0  0  0  0  0  0  0  0  0
   34.4700   28.7300   50.9790 H   0  0  0  0  0  0  0  0  0  0  0  0
  1  2  1  0  0  0  0
  1  7  1  0  0  0  0
  2  8  1  6  0  0  0
  2 26  1  0  0  0  0
  3 10  1  0  0  0  0
  3  2  1  0  0  0  0
  3  9  1  0  0  0  0
  4  3  1  0  0  0  0
  5 12  1  0  0  0  0
  5  4  1  0  0  0  0
  5  6  1  0  0  0  0
  6 13  1  6  0  0  0
  6  1  1  0  0  0  0
 11  5  1  0  0  0  0
 14 15  1  0  0  0  0
 15  6  1  0  0  0  0
 15 16  2  0  0  0  0
 16 17  1  0  0  0  0
 18 16  1  0  0  0  0
 18 19  1  0  0  0  0
 19 20  1  0  0  0  0
 21 22  1  0  0  0  0
 21 19  1  0  0  0  0
 23 21  2  0  0  0  0
 24 23  1  0  0  0  0
 24 18  2  0  0  0  0
 25 14  2  0  0  0  0
 25 24  1  0  0  0  0
 26 32  1  0  0  0  0
 27 36  1  0  0  0  0
 27 28  1  0  0  0  0
 28 42  1  0  0  0  0
 29 28  2  0  0  0  0
 29 37  1  0  0  0  0
 30 29  1  0  0  0  0
 31 38  1  0  0  0  0
 31 30  1  0  0  0  0
 32 31  1  0  0  0  0
 33 32  2  0  0  0  0
 33 34  1  0  0  0  0
 34 35  1  0  0  0  0
 34 30  2  0  0  0  0
 35 27  2  0  0  0  0
 39 35  1  0  0  0  0
 40 45  1  0  0  0  0
 40 46  1  0  0  0  0
 41 40  2  0  0  0  0
 42 43  2  0  0  0  0
 42 41  1  0  0  0  0
 43 44  1  0  0  0  0
 44 48  1  0  0  0  0
 44 45  2  0  0  0  0
 47 41  1  0  0  0  0
M  END
>  <minimizedAffinity>
-6.23377991

>  <minimizedRMSD>
0.185118198

$$$$
