
 OpenBabel03272508193D

 34 37  0  0  0  0  0  0  0  0999 V2000
   38.2230   26.1420   33.7780 C   0  0  0  0  0  0  0  0  0  0  0  0
   39.0590   25.3720   33.6430 H   0  0  0  0  0  0  0  0  0  0  0  0
   38.7390   27.1000   33.5390 H   0  0  0  0  0  0  0  0  0  0  0  0
   36.4940   26.8060   32.0890 C   0  0  0  0  0  0  0  0  0  0  0  0
   37.2300   25.8250   32.7690 C   0  0  0  0  0  0  0  0  0  0  0  0
   36.8910   24.5360   32.4570 C   0  0  0  0  0  0  0  0  0  0  0  0
   35.9180   24.2500   31.5600 N   0  0  0  0  0  0  0  0  0  0  0  0
   35.2200   25.2180   30.9170 C   0  0  0  0  0  0  0  0  0  0  0  0
   35.5060   26.4960   31.1810 N   0  0  0  0  0  0  0  0  0  0  0  0
   37.2790   23.6330   32.8470 H   0  0  0  0  0  0  0  0  0  0  0  0
   34.4370   25.0280   30.1970 H   0  0  0  0  0  0  0  0  0  0  0  0
   36.8900   28.2570   32.3290 C   0  0  0  0  0  0  0  0  0  0  0  0
   36.1260   29.3370   31.8340 C   0  0  0  0  0  0  0  0  0  0  0  0
   35.7910   28.9060   33.2510 C   0  0  0  0  0  0  0  0  0  0  0  0
   37.8830   28.3770   32.8390 H   0  0  0  0  0  0  0  0  0  0  0  0
   35.3580   29.1680   31.0450 H   0  0  0  0  0  0  0  0  0  0  0  0
   36.5860   30.3390   31.7270 H   0  0  0  0  0  0  0  0  0  0  0  0
   36.1820   29.4660   34.0920 H   0  0  0  0  0  0  0  0  0  0  0  0
   34.8330   28.4050   33.3440 H   0  0  0  0  0  0  0  0  0  0  0  0
   37.8720   26.1280   35.1890 C   0  0  0  0  0  0  0  0  0  0  0  0
   36.7210   26.1330   35.2320 H   0  0  0  0  0  0  0  0  0  0  0  0
   38.1170   27.1270   35.6670 H   0  0  0  0  0  0  0  0  0  0  0  0
   38.1000   24.4080   37.2170 C   0  0  0  0  0  3  0  0  0  0  0  0
   38.3950   25.0740   36.0530 C   0  0  0  0  0  0  0  0  0  0  0  0
   39.5660   24.5630   35.4560 C   0  0  0  0  0  0  0  0  0  0  0  0
   40.0370   24.9020   34.5240 H   0  0  0  0  0  0  0  0  0  0  0  0
   40.3230   23.5130   35.9880 C   0  0  0  0  0  0  0  0  0  0  0  0
   41.4380   22.8410   35.6560 N   0  0  0  0  0  0  0  0  0  0  0  0
   42.0030   23.0380   34.8030 H   0  0  0  0  0  0  0  0  0  0  0  0
   41.7300   21.9010   36.5420 C   0  0  0  0  0  0  0  0  0  0  0  0
   42.5700   21.2370   36.4900 H   0  0  0  0  0  0  0  0  0  0  0  0
   40.7760   21.9160   37.5380 C   0  0  0  0  0  3  0  0  0  0  0  0
   39.9220   22.9260   37.1610 C   0  0  0  0  0  0  0  0  0  0  0  0
   38.7850   23.3890   37.7830 C   0  0  0  0  0  3  0  0  0  0  0  0
  1 20  1  0  0  0  0
  2  1  1  0  0  0  0
  3  1  1  0  0  0  0
  4 12  1  0  0  0  0
  4  5  1  0  0  0  0
  5  1  1  0  0  0  0
  6  5  2  0  0  0  0
  6 10  1  0  0  0  0
  7  6  1  0  0  0  0
  8  9  1  0  0  0  0
  8  7  2  0  0  0  0
  9  4  2  0  0  0  0
 11  8  1  0  0  0  0
 12 15  1  0  0  0  0
 12 14  1  0  0  0  0
 13 12  1  0  0  0  0
 13 14  1  0  0  0  0
 14 19  1  0  0  0  0
 14 18  1  0  0  0  0
 16 13  1  0  0  0  0
 17 13  1  0  0  0  0
 20 21  1  0  0  0  0
 20 22  1  0  0  0  0
 20 24  1  0  0  0  0
 23 34  1  0  0  0  0
 24 23  2  0  0  0  0
 25 27  2  0  0  0  0
 25 24  1  0  0  0  0
 26 25  1  0  0  0  0
 27 33  1  0  0  0  0
 28 27  1  0  0  0  0
 28 30  1  0  0  0  0
 29 28  1  0  0  0  0
 30 32  2  0  0  0  0
 31 30  1  0  0  0  0
 33 32  1  0  0  0  0
 33 34  2  0  0  0  0
M  END
>  <minimizedAffinity>
-5.37005901

$$$$

 OpenBabel03272508193D

 34 37  0  0  0  0  0  0  0  0999 V2000
   38.6870   23.7240   32.0610 C   0  0  0  0  0  0  0  0  0  0  0  0
   38.4250   22.6990   32.4970 H   0  0  0  0  0  0  0  0  0  0  0  0
   39.2600   23.4540   31.1450 H   0  0  0  0  0  0  0  0  0  0  0  0
   36.2050   23.6390   31.7230 C   0  0  0  0  0  0  0  0  0  0  0  0
   37.4200   24.3390   31.7140 C   0  0  0  0  0  0  0  0  0  0  0  0
   37.3300   25.6360   31.2850 C   0  0  0  0  0  0  0  0  0  0  0  0
   36.1520   26.1820   30.9020 N   0  0  0  0  0  0  0  0  0  0  0  0
   34.9910   25.4820   30.9190 C   0  0  0  0  0  0  0  0  0  0  0  0
   35.0160   24.2110   31.3290 N   0  0  0  0  0  0  0  0  0  0  0  0
   38.0990   26.3520   31.1660 H   0  0  0  0  0  0  0  0  0  0  0  0
   34.0330   25.8840   30.6210 H   0  0  0  0  0  0  0  0  0  0  0  0
   36.2290   22.2200   32.2790 C   0  0  0  0  0  0  0  0  0  0  0  0
   35.0880   21.3890   32.2680 C   0  0  0  0  0  0  0  0  0  0  0  0
   36.0110   21.2320   31.0720 C   0  0  0  0  0  0  0  0  0  0  0  0
   37.1970   21.9460   32.7780 H   0  0  0  0  0  0  0  0  0  0  0  0
   34.0770   21.8230   32.0900 H   0  0  0  0  0  0  0  0  0  0  0  0
   35.0270   20.5210   32.9520 H   0  0  0  0  0  0  0  0  0  0  0  0
   36.7100   20.4060   31.0360 H   0  0  0  0  0  0  0  0  0  0  0  0
   35.6040   21.6280   30.1480 H   0  0  0  0  0  0  0  0  0  0  0  0
   39.5810   24.3620   33.0140 C   0  0  0  0  0  0  0  0  0  0  0  0
   40.0030   25.2920   32.4820 H   0  0  0  0  0  0  0  0  0  0  0  0
   40.5190   23.7400   33.1520 H   0  0  0  0  0  0  0  0  0  0  0  0
   38.5030   25.7820   35.0000 C   0  0  0  0  0  3  0  0  0  0  0  0
   39.0850   24.7290   34.3360 C   0  0  0  0  0  0  0  0  0  0  0  0
   39.2240   23.6090   35.1810 C   0  0  0  0  0  0  0  0  0  0  0  0
   39.6540   22.6320   34.9200 H   0  0  0  0  0  0  0  0  0  0  0  0
   38.8190   23.5810   36.5190 C   0  0  0  0  0  0  0  0  0  0  0  0
   38.8230   22.6920   37.5270 N   0  0  0  0  0  0  0  0  0  0  0  0
   39.1950   21.7230   37.4460 H   0  0  0  0  0  0  0  0  0  0  0  0
   38.2990   23.1980   38.6340 C   0  0  0  0  0  0  0  0  0  0  0  0
   38.1940   22.6790   39.5660 H   0  0  0  0  0  0  0  0  0  0  0  0
   37.9110   24.4990   38.3870 C   0  0  0  0  0  3  0  0  0  0  0  0
   38.2470   24.7000   37.0690 C   0  0  0  0  0  0  0  0  0  0  0  0
   38.0900   25.8210   36.2870 C   0  0  0  0  0  3  0  0  0  0  0  0
  1  2  1  0  0  0  0
  1 20  1  0  0  0  0
  3  1  1  0  0  0  0
  4 12  1  0  0  0  0
  5  4  1  0  0  0  0
  5  1  1  0  0  0  0
  6  5  2  0  0  0  0
  7  8  2  0  0  0  0
  7  6  1  0  0  0  0
  8  9  1  0  0  0  0
  9  4  2  0  0  0  0
 10  6  1  0  0  0  0
 11  8  1  0  0  0  0
 12 15  1  0  0  0  0
 13 12  1  0  0  0  0
 13 17  1  0  0  0  0
 14 13  1  0  0  0  0
 14 12  1  0  0  0  0
 16 13  1  0  0  0  0
 18 14  1  0  0  0  0
 19 14  1  0  0  0  0
 20 22  1  0  0  0  0
 20 24  1  0  0  0  0
 21 20  1  0  0  0  0
 23 34  1  0  0  0  0
 24 23  2  0  0  0  0
 24 25  1  0  0  0  0
 25 27  2  0  0  0  0
 26 25  1  0  0  0  0
 27 33  1  0  0  0  0
 27 28  1  0  0  0  0
 28 30  1  0  0  0  0
 29 28  1  0  0  0  0
 30 31  1  0  0  0  0
 32 30  2  0  0  0  0
 33 32  1  0  0  0  0
 34 33  2  0  0  0  0
M  END
>  <minimizedAffinity>
-5.35472822

$$$$

 OpenBabel03272508193D

 34 37  0  0  0  0  0  0  0  0999 V2000
   36.6510   28.3990   32.7500 C   0  0  0  0  0  0  0  0  0  0  0  0
   37.3880   28.8270   33.5140 H   0  0  0  0  0  0  0  0  0  0  0  0
   37.0180   28.8340   31.7930 H   0  0  0  0  0  0  0  0  0  0  0  0
   37.4600   26.2950   33.8470 C   0  0  0  0  0  0  0  0  0  0  0  0
   36.8520   26.9620   32.7750 C   0  0  0  0  0  0  0  0  0  0  0  0
   36.5220   26.1600   31.7150 C   0  0  0  0  0  0  0  0  0  0  0  0
   36.7720   24.8290   31.7210 N   0  0  0  0  0  0  0  0  0  0  0  0
   37.3630   24.2100   32.7710 C   0  0  0  0  0  0  0  0  0  0  0  0
   37.7080   24.9410   33.8350 N   0  0  0  0  0  0  0  0  0  0  0  0
   36.0820   26.4260   30.7910 H   0  0  0  0  0  0  0  0  0  0  0  0
   37.5790   23.1510   32.8110 H   0  0  0  0  0  0  0  0  0  0  0  0
   37.7660   27.1220   35.0900 C   0  0  0  0  0  0  0  0  0  0  0  0
   38.3280   26.5510   36.2530 C   0  0  0  0  0  0  0  0  0  0  0  0
   39.3300   27.1420   35.2770 C   0  0  0  0  0  0  0  0  0  0  0  0
   37.4120   28.1850   35.0250 H   0  0  0  0  0  0  0  0  0  0  0  0
   38.3300   25.4450   36.3930 H   0  0  0  0  0  0  0  0  0  0  0  0
   38.2340   27.0690   37.2270 H   0  0  0  0  0  0  0  0  0  0  0  0
   39.7470   28.1240   35.4620 H   0  0  0  0  0  0  0  0  0  0  0  0
   39.9220   26.4010   34.7520 H   0  0  0  0  0  0  0  0  0  0  0  0
   35.3500   28.9680   33.0670 C   0  0  0  0  0  0  0  0  0  0  0  0
   34.6300   28.0760   33.1740 H   0  0  0  0  0  0  0  0  0  0  0  0
   34.9190   29.4950   32.1600 H   0  0  0  0  0  0  0  0  0  0  0  0
   35.9680   30.6360   35.0570 C   0  0  0  0  0  3  0  0  0  0  0  0
   35.2110   29.8580   34.2140 C   0  0  0  0  0  0  0  0  0  0  0  0
   33.8380   29.9720   34.5140 C   0  0  0  0  0  0  0  0  0  0  0  0
   33.0060   29.4660   34.0060 H   0  0  0  0  0  0  0  0  0  0  0  0
   33.3220   30.7740   35.5370 C   0  0  0  0  0  0  0  0  0  0  0  0
   32.1100   31.0710   36.0350 N   0  0  0  0  0  0  0  0  0  0  0  0
   31.2180   30.6760   35.6680 H   0  0  0  0  0  0  0  0  0  0  0  0
   32.1860   31.9230   37.0470 C   0  0  0  0  0  0  0  0  0  0  0  0
   31.3530   32.3050   37.6020 H   0  0  0  0  0  0  0  0  0  0  0  0
   33.5120   32.2360   37.2650 C   0  0  0  0  0  3  0  0  0  0  0  0
   34.1850   31.5080   36.3120 C   0  0  0  0  0  0  0  0  0  0  0  0
   35.5350   31.4320   36.0600 C   0  0  0  0  0  3  0  0  0  0  0  0
  1  5  1  0  0  0  0
  1 20  1  0  0  0  0
  1  2  1  0  0  0  0
  3  1  1  0  0  0  0
  4 12  1  0  0  0  0
  5  4  2  0  0  0  0
  6  7  2  0  0  0  0
  6  5  1  0  0  0  0
  7  8  1  0  0  0  0
  8 11  1  0  0  0  0
  8  9  2  0  0  0  0
  9  4  1  0  0  0  0
 10  6  1  0  0  0  0
 12 14  1  0  0  0  0
 12 13  1  0  0  0  0
 13 16  1  0  0  0  0
 13 17  1  0  0  0  0
 14 18  1  0  0  0  0
 14 13  1  0  0  0  0
 15 12  1  0  0  0  0
 19 14  1  0  0  0  0
 20 21  1  0  0  0  0
 20 24  1  0  0  0  0
 22 20  1  0  0  0  0
 23 34  1  0  0  0  0
 24 25  1  0  0  0  0
 24 23  2  0  0  0  0
 25 27  2  0  0  0  0
 26 25  1  0  0  0  0
 27 28  1  0  0  0  0
 27 33  1  0  0  0  0
 28 30  1  0  0  0  0
 29 28  1  0  0  0  0
 30 32  2  0  0  0  0
 30 31  1  0  0  0  0
 33 32  1  0  0  0  0
 34 33  2  0  0  0  0
M  END
>  <minimizedAffinity>
-5.32366133

$$$$

 OpenBabel03272508193D

 34 37  0  0  0  0  0  0  0  0999 V2000
   36.6410   28.2570   32.7190 C   0  0  0  0  0  0  0  0  0  0  0  0
   36.9260   28.6560   33.7530 H   0  0  0  0  0  0  0  0  0  0  0  0
   37.3760   28.7660   32.0560 H   0  0  0  0  0  0  0  0  0  0  0  0
   37.4770   26.1940   33.8710 C   0  0  0  0  0  0  0  0  0  0  0  0
   36.8920   26.8280   32.7670 C   0  0  0  0  0  0  0  0  0  0  0  0
   36.6360   26.0060   31.7030 C   0  0  0  0  0  0  0  0  0  0  0  0
   36.9320   24.6850   31.7330 N   0  0  0  0  0  0  0  0  0  0  0  0
   37.5000   24.0960   32.8140 C   0  0  0  0  0  0  0  0  0  0  0  0
   37.7730   24.8490   33.8840 N   0  0  0  0  0  0  0  0  0  0  0  0
   36.2270   26.2470   30.7590 H   0  0  0  0  0  0  0  0  0  0  0  0
   37.7500   23.0460   32.8750 H   0  0  0  0  0  0  0  0  0  0  0  0
   37.7000   27.0410   35.1180 C   0  0  0  0  0  0  0  0  0  0  0  0
   38.2750   26.5130   36.2940 C   0  0  0  0  0  0  0  0  0  0  0  0
   39.2540   27.1690   35.3360 C   0  0  0  0  0  0  0  0  0  0  0  0
   37.2760   28.0790   35.0410 H   0  0  0  0  0  0  0  0  0  0  0  0
   38.3500   25.4110   36.4380 H   0  0  0  0  0  0  0  0  0  0  0  0
   38.1260   27.0260   37.2640 H   0  0  0  0  0  0  0  0  0  0  0  0
   39.6000   28.1770   35.5260 H   0  0  0  0  0  0  0  0  0  0  0  0
   39.9070   26.4690   34.8260 H   0  0  0  0  0  0  0  0  0  0  0  0
   35.3080   28.7630   32.4340 C   0  0  0  0  0  0  0  0  0  0  0  0
   34.7010   27.8640   32.0460 H   0  0  0  0  0  0  0  0  0  0  0  0
   35.3280   29.4300   31.5170 H   0  0  0  0  0  0  0  0  0  0  0  0
   33.2820   29.5750   33.9690 C   0  0  0  0  0  3  0  0  0  0  0  0
   34.5590   29.4540   33.4780 C   0  0  0  0  0  0  0  0  0  0  0  0
   35.4720   30.2090   34.2430 C   0  0  0  0  0  0  0  0  0  0  0  0
   36.5550   30.2990   34.0820 H   0  0  0  0  0  0  0  0  0  0  0  0
   35.1160   30.9770   35.3560 C   0  0  0  0  0  0  0  0  0  0  0  0
   35.7420   31.7670   36.2440 N   0  0  0  0  0  0  0  0  0  0  0  0
   36.7660   31.9580   36.2320 H   0  0  0  0  0  0  0  0  0  0  0  0
   34.9010   32.2730   37.1340 C   0  0  0  0  0  0  0  0  0  0  0  0
   35.1680   32.9290   37.9390 H   0  0  0  0  0  0  0  0  0  0  0  0
   33.6300   31.8150   36.8560 C   0  0  0  0  0  3  0  0  0  0  0  0
   33.8020   31.0160   35.7500 C   0  0  0  0  0  0  0  0  0  0  0  0
   32.8710   30.2970   35.0360 C   0  0  0  0  0  3  0  0  0  0  0  0
  1  5  1  0  0  0  0
  1  2  1  0  0  0  0
  3  1  1  0  0  0  0
  4  9  1  0  0  0  0
  4 12  1  0  0  0  0
  5  4  2  0  0  0  0
  6  7  2  0  0  0  0
  6  5  1  0  0  0  0
  7  8  1  0  0  0  0
  8 11  1  0  0  0  0
  8  9  2  0  0  0  0
 10  6  1  0  0  0  0
 12 14  1  0  0  0  0
 12 13  1  0  0  0  0
 13 16  1  0  0  0  0
 13 17  1  0  0  0  0
 14 18  1  0  0  0  0
 14 13  1  0  0  0  0
 15 12  1  0  0  0  0
 19 14  1  0  0  0  0
 20  1  1  0  0  0  0
 20 24  1  0  0  0  0
 21 20  1  0  0  0  0
 22 20  1  0  0  0  0
 23 34  1  0  0  0  0
 24 23  2  0  0  0  0
 24 25  1  0  0  0  0
 25 27  2  0  0  0  0
 26 25  1  0  0  0  0
 27 33  1  0  0  0  0
 27 28  1  0  0  0  0
 28 30  1  0  0  0  0
 29 28  1  0  0  0  0
 30 31  1  0  0  0  0
 32 30  2  0  0  0  0
 33 32  1  0  0  0  0
 34 33  2  0  0  0  0
M  END
>  <minimizedAffinity>
-5.28284073

$$$$

 OpenBabel03272508193D

 34 37  0  0  0  0  0  0  0  0999 V2000
   39.2030   27.1950   31.8170 C   0  0  0  0  0  0  0  0  0  0  0  0
   39.8520   27.1460   30.8750 H   0  0  0  0  0  0  0  0  0  0  0  0
   39.0250   28.2880   31.9280 H   0  0  0  0  0  0  0  0  0  0  0  0
   36.7050   27.0740   31.6600 C   0  0  0  0  0  0  0  0  0  0  0  0
   37.9730   26.5030   31.4830 C   0  0  0  0  0  0  0  0  0  0  0  0
   37.9600   25.2100   31.0340 C   0  0  0  0  0  0  0  0  0  0  0  0
   36.8040   24.5500   30.7850 N   0  0  0  0  0  0  0  0  0  0  0  0
   35.5910   25.1260   30.9670 C   0  0  0  0  0  0  0  0  0  0  0  0
   35.5390   26.3880   31.4040 N   0  0  0  0  0  0  0  0  0  0  0  0
   38.7750   24.5620   30.8480 H   0  0  0  0  0  0  0  0  0  0  0  0
   34.6480   24.6310   30.7800 H   0  0  0  0  0  0  0  0  0  0  0  0
   36.6590   28.5400   32.0710 C   0  0  0  0  0  0  0  0  0  0  0  0
   35.4420   29.2180   32.3070 C   0  0  0  0  0  0  0  0  0  0  0  0
   36.0900   28.6070   33.5380 C   0  0  0  0  0  0  0  0  0  0  0  0
   37.6630   29.0430   32.0680 H   0  0  0  0  0  0  0  0  0  0  0  0
   34.4780   28.7820   31.9580 H   0  0  0  0  0  0  0  0  0  0  0  0
   35.4080   30.3240   32.2750 H   0  0  0  0  0  0  0  0  0  0  0  0
   36.6590   29.2320   34.2140 H   0  0  0  0  0  0  0  0  0  0  0  0
   35.5640   27.7420   33.9280 H   0  0  0  0  0  0  0  0  0  0  0  0
   40.0350   26.7320   32.9160 C   0  0  0  0  0  0  0  0  0  0  0  0
   40.8990   27.4890   33.0040 H   0  0  0  0  0  0  0  0  0  0  0  0
   40.5940   25.7910   32.6190 H   0  0  0  0  0  0  0  0  0  0  0  0
   38.8550   27.1930   35.2650 C   0  0  0  0  0  3  0  0  0  0  0  0
   39.4390   26.5060   34.2290 C   0  0  0  0  0  0  0  0  0  0  0  0
   39.4390   25.1170   34.4740 C   0  0  0  0  0  0  0  0  0  0  0  0
   39.8390   24.3300   33.8220 H   0  0  0  0  0  0  0  0  0  0  0  0
   38.9100   24.5250   35.6260 C   0  0  0  0  0  0  0  0  0  0  0  0
   38.7740   23.2810   36.1150 N   0  0  0  0  0  0  0  0  0  0  0  0
   39.1000   22.4230   35.6220 H   0  0  0  0  0  0  0  0  0  0  0  0
   38.1770   23.2780   37.2980 C   0  0  0  0  0  0  0  0  0  0  0  0
   37.9590   22.4060   37.8820 H   0  0  0  0  0  0  0  0  0  0  0  0
   37.8830   24.5790   37.6510 C   0  0  0  0  0  3  0  0  0  0  0  0
   38.3500   25.3220   36.5930 C   0  0  0  0  0  0  0  0  0  0  0  0
   38.3260   26.6840   36.4010 C   0  0  0  0  0  3  0  0  0  0  0  0
  1  3  1  0  0  0  0
  1 20  1  0  0  0  0
  2  1  1  0  0  0  0
  4 12  1  0  0  0  0
  5  4  1  0  0  0  0
  5  1  1  0  0  0  0
  6  5  2  0  0  0  0
  7  8  2  0  0  0  0
  7  6  1  0  0  0  0
  8  9  1  0  0  0  0
  9  4  2  0  0  0  0
 10  6  1  0  0  0  0
 11  8  1  0  0  0  0
 12 13  1  0  0  0  0
 12 14  1  0  0  0  0
 13 14  1  0  0  0  0
 14 19  1  0  0  0  0
 14 18  1  0  0  0  0
 15 12  1  0  0  0  0
 16 13  1  0  0  0  0
 17 13  1  0  0  0  0
 20 21  1  0  0  0  0
 20 24  1  0  0  0  0
 22 20  1  0  0  0  0
 23 34  1  0  0  0  0
 24 25  1  0  0  0  0
 24 23  2  0  0  0  0
 25 27  2  0  0  0  0
 26 25  1  0  0  0  0
 27 28  1  0  0  0  0
 27 33  1  0  0  0  0
 28 30  1  0  0  0  0
 29 28  1  0  0  0  0
 30 32  2  0  0  0  0
 30 31  1  0  0  0  0
 33 32  1  0  0  0  0
 34 33  2  0  0  0  0
M  END
>  <minimizedAffinity>
-5.2205472

$$$$

 OpenBabel03272508193D

 34 37  0  0  0  0  0  0  0  0999 V2000
   37.9030   25.3010   35.0460 C   0  0  0  0  0  0  0  0  0  0  0  0
   37.7720   25.1630   33.9180 H   0  0  0  0  0  0  0  0  0  0  0  0
   36.9740   24.8420   35.4540 H   0  0  0  0  0  0  0  0  0  0  0  0
   39.1300   23.7290   36.5640 C   0  0  0  0  0  0  0  0  0  0  0  0
   39.0680   24.5140   35.4040 C   0  0  0  0  0  0  0  0  0  0  0  0
   40.2210   24.5380   34.6670 C   0  0  0  0  0  0  0  0  0  0  0  0
   41.3250   23.8510   35.0440 N   0  0  0  0  0  0  0  0  0  0  0  0
   41.3590   23.0990   36.1710 C   0  0  0  0  0  0  0  0  0  0  0  0
   40.2620   23.0370   36.9320 N   0  0  0  0  0  0  0  0  0  0  0  0
   40.4310   25.0690   33.7770 H   0  0  0  0  0  0  0  0  0  0  0  0
   42.2210   22.5380   36.5030 H   0  0  0  0  0  0  0  0  0  0  0  0
   37.8480   23.5920   37.3750 C   0  0  0  0  0  0  0  0  0  0  0  0
   37.8400   23.0690   38.6870 C   0  0  0  0  0  0  0  0  0  0  0  0
   37.9480   24.5820   38.5960 C   0  0  0  0  0  0  0  0  0  0  0  0
   36.9180   23.8470   36.7990 H   0  0  0  0  0  0  0  0  0  0  0  0
   38.7210   22.5090   39.0750 H   0  0  0  0  0  0  0  0  0  0  0  0
   36.9010   22.6740   39.1220 H   0  0  0  0  0  0  0  0  0  0  0  0
   37.0690   25.1950   38.7500 H   0  0  0  0  0  0  0  0  0  0  0  0
   38.9230   24.9700   38.8670 H   0  0  0  0  0  0  0  0  0  0  0  0
   37.8760   26.7340   35.2930 C   0  0  0  0  0  0  0  0  0  0  0  0
   38.9770   27.0640   35.3820 H   0  0  0  0  0  0  0  0  0  0  0  0
   37.4950   26.9470   36.3390 H   0  0  0  0  0  0  0  0  0  0  0  0
   36.1930   28.5800   34.3530 C   0  0  0  0  0  3  0  0  0  0  0  0
   37.1690   27.6130   34.3680 C   0  0  0  0  0  0  0  0  0  0  0  0
   37.7080   27.4150   33.0790 C   0  0  0  0  0  0  0  0  0  0  0  0
   38.4990   26.7080   32.7950 H   0  0  0  0  0  0  0  0  0  0  0  0
   37.2970   28.1160   31.9410 C   0  0  0  0  0  0  0  0  0  0  0  0
   37.6150   28.1400   30.6360 N   0  0  0  0  0  0  0  0  0  0  0  0
   38.3430   27.5330   30.2030 H   0  0  0  0  0  0  0  0  0  0  0  0
   36.8920   29.0270   29.9680 C   0  0  0  0  0  0  0  0  0  0  0  0
   36.9680   29.2260   28.9170 H   0  0  0  0  0  0  0  0  0  0  0  0
   36.0300   29.6500   30.8460 C   0  0  0  0  0  3  0  0  0  0  0  0
   36.3100   29.0620   32.0570 C   0  0  0  0  0  0  0  0  0  0  0  0
   35.7510   29.2930   33.2930 C   0  0  0  0  0  3  0  0  0  0  0  0
  1 20  1  0  0  0  0
  1  5  1  0  0  0  0
  1  3  1  0  0  0  0
  2  1  1  0  0  0  0
  4  9  1  0  0  0  0
  4 12  1  0  0  0  0
  5  4  2  0  0  0  0
  6  7  2  0  0  0  0
  6  5  1  0  0  0  0
  7  8  1  0  0  0  0
  8 11  1  0  0  0  0
  8  9  2  0  0  0  0
 10  6  1  0  0  0  0
 12 14  1  0  0  0  0
 12 13  1  0  0  0  0
 13 16  1  0  0  0  0
 13 17  1  0  0  0  0
 14 13  1  0  0  0  0
 14 18  1  0  0  0  0
 14 19  1  0  0  0  0
 15 12  1  0  0  0  0
 20 21  1  0  0  0  0
 20 22  1  0  0  0  0
 23 24  1  0  0  0  0
 24 20  1  0  0  0  0
 25 24  2  0  0  0  0
 26 25  1  0  0  0  0
 27 33  2  0  0  0  0
 27 25  1  0  0  0  0
 28 27  1  0  0  0  0
 29 28  1  0  0  0  0
 30 28  1  0  0  0  0
 30 32  2  0  0  0  0
 31 30  1  0  0  0  0
 32 33  1  0  0  0  0
 33 34  1  0  0  0  0
 34 23  2  0  0  0  0
M  END
>  <minimizedAffinity>
-5.19286442

$$$$

 OpenBabel03272508193D

 34 37  0  0  0  0  0  0  0  0999 V2000
   40.5300   24.9810   35.2240 C   0  0  0  0  0  0  0  0  0  0  0  0
   40.4590   25.0720   36.3620 H   0  0  0  0  0  0  0  0  0  0  0  0
   41.5770   24.6300   35.0770 H   0  0  0  0  0  0  0  0  0  0  0  0
   38.6340   23.4270   35.7460 C   0  0  0  0  0  0  0  0  0  0  0  0
   39.5830   23.9460   34.8540 C   0  0  0  0  0  0  0  0  0  0  0  0
   39.5950   23.3510   33.6210 C   0  0  0  0  0  0  0  0  0  0  0  0
   38.7500   22.3410   33.3060 N   0  0  0  0  0  0  0  0  0  0  0  0
   37.8420   21.8570   34.1880 C   0  0  0  0  0  0  0  0  0  0  0  0
   37.7830   22.3980   35.4080 N   0  0  0  0  0  0  0  0  0  0  0  0
   40.2260   23.5450   32.7950 H   0  0  0  0  0  0  0  0  0  0  0  0
   37.1520   21.0530   33.9720 H   0  0  0  0  0  0  0  0  0  0  0  0
   38.5130   24.1110   37.1010 C   0  0  0  0  0  0  0  0  0  0  0  0
   37.7410   23.5680   38.1520 C   0  0  0  0  0  0  0  0  0  0  0  0
   39.2110   23.1850   38.1670 C   0  0  0  0  0  0  0  0  0  0  0  0
   39.0060   25.1190   37.1450 H   0  0  0  0  0  0  0  0  0  0  0  0
   36.9970   22.7640   37.9470 H   0  0  0  0  0  0  0  0  0  0  0  0
   37.3990   24.2160   38.9820 H   0  0  0  0  0  0  0  0  0  0  0  0
   39.8950   23.6990   38.8310 H   0  0  0  0  0  0  0  0  0  0  0  0
   39.3970   22.1480   37.9070 H   0  0  0  0  0  0  0  0  0  0  0  0
   40.3970   26.3270   34.6920 C   0  0  0  0  0  0  0  0  0  0  0  0
   40.9790   26.3370   33.6980 H   0  0  0  0  0  0  0  0  0  0  0  0
   41.0030   27.0580   35.3120 H   0  0  0  0  0  0  0  0  0  0  0  0
   37.9850   27.3450   35.2080 C   0  0  0  0  0  3  0  0  0  0  0  0
   39.0690   26.8980   34.4930 C   0  0  0  0  0  0  0  0  0  0  0  0
   38.8730   27.0740   33.1080 C   0  0  0  0  0  0  0  0  0  0  0  0
   39.5690   26.8080   32.3010 H   0  0  0  0  0  0  0  0  0  0  0  0
   37.7210   27.6320   32.5430 C   0  0  0  0  0  0  0  0  0  0  0  0
   37.2710   27.9140   31.3100 N   0  0  0  0  0  0  0  0  0  0  0  0
   37.8080   27.7250   30.4370 H   0  0  0  0  0  0  0  0  0  0  0  0
   36.0640   28.4610   31.3370 C   0  0  0  0  0  0  0  0  0  0  0  0
   35.5020   28.7710   30.4790 H   0  0  0  0  0  0  0  0  0  0  0  0
   35.6530   28.5650   32.6500 C   0  0  0  0  0  3  0  0  0  0  0  0
   36.7030   28.0440   33.3670 C   0  0  0  0  0  0  0  0  0  0  0  0
   36.8460   27.8930   34.7280 C   0  0  0  0  0  3  0  0  0  0  0  0
  1  2  1  0  0  0  0
  3  1  1  0  0  0  0
  4 12  1  0  0  0  0
  5  1  1  0  0  0  0
  5  4  2  0  0  0  0
  6  5  1  0  0  0  0
  7  6  2  0  0  0  0
  7  8  1  0  0  0  0
  8  9  2  0  0  0  0
  9  4  1  0  0  0  0
 10  6  1  0  0  0  0
 11  8  1  0  0  0  0
 12 15  1  0  0  0  0
 12 13  1  0  0  0  0
 12 14  1  0  0  0  0
 13 14  1  0  0  0  0
 13 17  1  0  0  0  0
 14 18  1  0  0  0  0
 16 13  1  0  0  0  0
 19 14  1  0  0  0  0
 20  1  1  0  0  0  0
 20 22  1  0  0  0  0
 21 20  1  0  0  0  0
 24 20  1  0  0  0  0
 24 23  2  0  0  0  0
 25 24  1  0  0  0  0
 26 25  1  0  0  0  0
 27 25  2  0  0  0  0
 27 33  1  0  0  0  0
 28 30  1  0  0  0  0
 28 27  1  0  0  0  0
 29 28  1  0  0  0  0
 30 32  2  0  0  0  0
 31 30  1  0  0  0  0
 32 33  1  0  0  0  0
 33 34  2  0  0  0  0
 34 23  1  0  0  0  0
M  END
>  <minimizedAffinity>
-5.18850517

$$$$

 OpenBabel03272508193D

 34 37  0  0  0  0  0  0  0  0999 V2000
   38.6230   23.9050   36.1920 C   0  0  0  0  0  0  0  0  0  0  0  0
   38.7130   24.0680   37.3210 H   0  0  0  0  0  0  0  0  0  0  0  0
   37.6020   24.2920   35.9750 H   0  0  0  0  0  0  0  0  0  0  0  0
   39.4180   26.1070   35.2970 C   0  0  0  0  0  0  0  0  0  0  0  0
   39.6350   24.7540   35.5910 C   0  0  0  0  0  0  0  0  0  0  0  0
   40.8570   24.2730   35.2040 C   0  0  0  0  0  0  0  0  0  0  0  0
   41.7710   25.0570   34.5860 N   0  0  0  0  0  0  0  0  0  0  0  0
   41.5350   26.3630   34.3110 C   0  0  0  0  0  0  0  0  0  0  0  0
   40.3580   26.8900   34.6660 N   0  0  0  0  0  0  0  0  0  0  0  0
   41.2440   23.2930   35.2910 H   0  0  0  0  0  0  0  0  0  0  0  0
   42.2390   27.0200   33.8200 H   0  0  0  0  0  0  0  0  0  0  0  0
   38.1110   26.7200   35.7860 C   0  0  0  0  0  0  0  0  0  0  0  0
   37.6530   27.9750   35.3320 C   0  0  0  0  0  0  0  0  0  0  0  0
   37.1230   26.7770   34.5620 C   0  0  0  0  0  0  0  0  0  0  0  0
   37.6140   26.1310   36.6040 H   0  0  0  0  0  0  0  0  0  0  0  0
   38.3440   28.6690   34.8000 H   0  0  0  0  0  0  0  0  0  0  0  0
   36.9070   28.5410   35.9230 H   0  0  0  0  0  0  0  0  0  0  0  0
   36.1290   26.4010   34.7680 H   0  0  0  0  0  0  0  0  0  0  0  0
   37.5330   26.6810   33.5620 H   0  0  0  0  0  0  0  0  0  0  0  0
   38.6450   22.4660   35.9780 C   0  0  0  0  0  0  0  0  0  0  0  0
   38.7570   21.9910   37.0210 H   0  0  0  0  0  0  0  0  0  0  0  0
   39.6190   22.1560   35.4860 H   0  0  0  0  0  0  0  0  0  0  0  0
   36.4310   21.0620   35.4800 C   0  0  0  0  0  3  0  0  0  0  0  0
   37.5510   21.8260   35.2570 C   0  0  0  0  0  0  0  0  0  0  0  0
   37.6870   22.1420   33.8890 C   0  0  0  0  0  0  0  0  0  0  0  0
   38.4840   22.7370   33.4230 H   0  0  0  0  0  0  0  0  0  0  0  0
   36.7940   21.7270   32.8950 C   0  0  0  0  0  0  0  0  0  0  0  0
   36.6710   21.8690   31.5650 N   0  0  0  0  0  0  0  0  0  0  0  0
   37.3410   22.4030   30.9730 H   0  0  0  0  0  0  0  0  0  0  0  0
   35.5960   21.2490   31.0990 C   0  0  0  0  0  0  0  0  0  0  0  0
   35.2910   21.2220   30.0730 H   0  0  0  0  0  0  0  0  0  0  0  0
   34.9390   20.6470   32.1520 C   0  0  0  0  0  3  0  0  0  0  0  0
   35.7080   20.9650   33.2470 C   0  0  0  0  0  0  0  0  0  0  0  0
   35.5300   20.6290   34.5690 C   0  0  0  0  0  3  0  0  0  0  0  0
  1  2  1  0  0  0  0
  3  1  1  0  0  0  0
  4  5  1  0  0  0  0
  4 12  1  0  0  0  0
  5  1  1  0  0  0  0
  6 10  1  0  0  0  0
  6  5  2  0  0  0  0
  7  6  1  0  0  0  0
  8  7  2  0  0  0  0
  8  9  1  0  0  0  0
  9  4  2  0  0  0  0
 11  8  1  0  0  0  0
 12 15  1  0  0  0  0
 13 12  1  0  0  0  0
 13 17  1  0  0  0  0
 14 18  1  0  0  0  0
 14 13  1  0  0  0  0
 14 12  1  0  0  0  0
 16 13  1  0  0  0  0
 19 14  1  0  0  0  0
 20  1  1  0  0  0  0
 20 21  1  0  0  0  0
 22 20  1  0  0  0  0
 24 23  1  0  0  0  0
 24 20  1  0  0  0  0
 25 24  2  0  0  0  0
 26 25  1  0  0  0  0
 27 33  2  0  0  0  0
 27 25  1  0  0  0  0
 28 27  1  0  0  0  0
 29 28  1  0  0  0  0
 30 28  1  0  0  0  0
 30 32  2  0  0  0  0
 31 30  1  0  0  0  0
 32 33  1  0  0  0  0
 33 34  1  0  0  0  0
 34 23  2  0  0  0  0
M  END
>  <minimizedAffinity>
-5.16426945

$$$$

 OpenBabel03272508193D

 34 37  0  0  0  0  0  0  0  0999 V2000
   40.4510   24.8290   34.5020 C   0  0  0  0  0  0  0  0  0  0  0  0
   41.2720   24.8350   33.7050 H   0  0  0  0  0  0  0  0  0  0  0  0
   39.5520   24.5280   33.9190 H   0  0  0  0  0  0  0  0  0  0  0  0
   39.9080   23.1710   36.3020 C   0  0  0  0  0  0  0  0  0  0  0  0
   40.8270   23.7900   35.4440 C   0  0  0  0  0  0  0  0  0  0  0  0
   42.1250   23.3890   35.6090 C   0  0  0  0  0  0  0  0  0  0  0  0
   42.4760   22.4650   36.5350 N   0  0  0  0  0  0  0  0  0  0  0  0
   41.5670   21.8820   37.3540 C   0  0  0  0  0  0  0  0  0  0  0  0
   40.2820   22.2340   37.2390 N   0  0  0  0  0  0  0  0  0  0  0  0
   42.9940   23.7220   35.1060 H   0  0  0  0  0  0  0  0  0  0  0  0
   41.8090   21.1420   38.1040 H   0  0  0  0  0  0  0  0  0  0  0  0
   38.4370   23.5110   36.1010 C   0  0  0  0  0  0  0  0  0  0  0  0
   37.4270   23.0150   36.9540 C   0  0  0  0  0  0  0  0  0  0  0  0
   37.9760   24.3800   37.3310 C   0  0  0  0  0  0  0  0  0  0  0  0
   38.2320   24.1000   35.1670 H   0  0  0  0  0  0  0  0  0  0  0  0
   37.6380   22.1630   37.6410 H   0  0  0  0  0  0  0  0  0  0  0  0
   36.3730   22.9930   36.6130 H   0  0  0  0  0  0  0  0  0  0  0  0
   37.4240   25.2740   37.0690 H   0  0  0  0  0  0  0  0  0  0  0  0
   38.5890   24.3750   38.2260 H   0  0  0  0  0  0  0  0  0  0  0  0
   40.2950   26.2050   34.9460 C   0  0  0  0  0  0  0  0  0  0  0  0
   41.1390   26.8020   34.4360 H   0  0  0  0  0  0  0  0  0  0  0  0
   40.5820   26.3020   36.0380 H   0  0  0  0  0  0  0  0  0  0  0  0
   38.0490   27.5500   35.4610 C   0  0  0  0  0  3  0  0  0  0  0  0
   39.0200   26.8860   34.7520 C   0  0  0  0  0  0  0  0  0  0  0  0
   38.7290   26.8830   33.3720 C   0  0  0  0  0  0  0  0  0  0  0  0
   39.3260   26.4270   32.5700 H   0  0  0  0  0  0  0  0  0  0  0  0
   37.5960   27.4790   32.8070 C   0  0  0  0  0  0  0  0  0  0  0  0
   37.0770   27.6300   31.5780 N   0  0  0  0  0  0  0  0  0  0  0  0
   37.5190   27.2590   30.7100 H   0  0  0  0  0  0  0  0  0  0  0  0
   35.9380   28.3070   31.6020 C   0  0  0  0  0  0  0  0  0  0  0  0
   35.3420   28.5510   30.7460 H   0  0  0  0  0  0  0  0  0  0  0  0
   35.6490   28.6440   32.9080 C   0  0  0  0  0  3  0  0  0  0  0  0
   36.6970   28.1160   33.6250 C   0  0  0  0  0  0  0  0  0  0  0  0
   36.9350   28.1480   34.9800 C   0  0  0  0  0  3  0  0  0  0  0  0
  1 20  1  0  0  0  0
  1  5  1  0  0  0  0
  2  1  1  0  0  0  0
  3  1  1  0  0  0  0
  4  9  1  0  0  0  0
  5  6  1  0  0  0  0
  5  4  2  0  0  0  0
  6  7  2  0  0  0  0
  7  8  1  0  0  0  0
  8 11  1  0  0  0  0
  9  8  2  0  0  0  0
 10  6  1  0  0  0  0
 12  4  1  0  0  0  0
 12 13  1  0  0  0  0
 12 14  1  0  0  0  0
 13 14  1  0  0  0  0
 13 16  1  0  0  0  0
 14 19  1  0  0  0  0
 15 12  1  0  0  0  0
 17 13  1  0  0  0  0
 18 14  1  0  0  0  0
 20 22  1  0  0  0  0
 21 20  1  0  0  0  0
 24 20  1  0  0  0  0
 24 23  2  0  0  0  0
 25 24  1  0  0  0  0
 26 25  1  0  0  0  0
 27 25  2  0  0  0  0
 27 33  1  0  0  0  0
 28 30  1  0  0  0  0
 28 27  1  0  0  0  0
 29 28  1  0  0  0  0
 30 32  2  0  0  0  0
 31 30  1  0  0  0  0
 32 33  1  0  0  0  0
 33 34  2  0  0  0  0
 34 23  1  0  0  0  0
M  END
>  <minimizedAffinity>
-5.16031408

$$$$
