
 OpenBabel03272510263D

 48 53  0  0  1  0  0  0  0  0999 V2000
   39.6420   31.8980   41.7310 N   0  0  0  0  0  0  0  0  0  0  0  0
   39.2210   33.3000   41.8700 C   0  0  1  0  0  0  0  0  0  0  0  0
   37.8080   33.4040   41.5240 C   0  0  0  0  0  0  0  0  0  0  0  0
   37.6580   33.0860   40.1620 O   0  0  0  0  0  0  0  0  0  0  0  0
   38.1500   31.8740   39.7890 C   0  0  0  0  0  0  0  0  0  0  0  0
   39.5300   31.5880   40.3230 C   0  0  2  0  0  0  0  0  0  0  0  0
   40.6490   31.8790   41.9800 H   0  0  0  0  0  0  0  0  0  0  0  0
   39.8060   33.9600   41.2260 H   0  0  0  0  0  0  0  0  0  0  0  0
   37.0160   32.8950   42.0010 H   0  0  0  0  0  0  0  0  0  0  0  0
   37.5440   34.5060   41.5540 H   0  0  0  0  0  0  0  0  0  0  0  0
   38.2200   31.8570   38.6910 H   0  0  0  0  0  0  0  0  0  0  0  0
   37.4370   31.0740   40.0710 H   0  0  0  0  0  0  0  0  0  0  0  0
   40.3450   32.0070   39.7120 H   0  0  0  0  0  0  0  0  0  0  0  0
   40.5130   29.5590   39.3470 C   0  0  0  0  0  3  0  0  0  0  0  0
   39.6290   30.0800   40.2930 C   0  0  0  0  0  0  0  0  0  0  0  0
   38.9270   29.2190   41.1120 C   0  0  0  0  0  0  0  0  0  0  0  0
   38.2570   29.6750   41.8250 H   0  0  0  0  0  0  0  0  0  0  0  0
   39.1290   27.8540   40.9630 C   0  0  0  0  0  0  0  0  0  0  0  0
   38.5900   26.8220   41.6100 N   0  0  0  0  0  0  0  0  0  0  0  0
   37.8860   26.9000   42.3810 H   0  0  0  0  0  0  0  0  0  0  0  0
   39.0850   25.6670   41.1250 C   0  0  0  0  0  0  0  0  0  0  0  0
   38.8190   24.6800   41.4700 H   0  0  0  0  0  0  0  0  0  0  0  0
   39.9770   25.9790   40.1270 C   0  0  0  0  0  3  0  0  0  0  0  0
   40.0160   27.3570   40.0110 C   0  0  0  0  0  0  0  0  0  0  0  0
   40.7280   28.2000   39.1820 C   0  0  0  0  0  3  0  0  0  0  0  0
   39.4570   33.5900   43.2430 O   0  0  0  0  0  0  0  0  0  0  0  0
   36.2590   30.1820   46.8550 C   0  0  0  0  0  0  0  0  0  0  0  0
   37.0850   30.7760   47.8080 C   0  0  0  0  0  0  0  0  0  0  0  0
   38.0530   31.6990   47.4390 C   0  0  0  0  0  0  0  0  0  0  0  0
   38.1470   31.9900   46.0850 C   0  0  0  0  0  0  0  0  0  0  0  0
   39.0170   32.8590   45.4830 N   0  0  0  0  0  0  0  0  0  0  0  0
   38.7430   32.8110   44.1700 C   0  0  0  0  0  0  0  0  0  0  0  0
   37.7630   31.9680   43.9310 N   0  0  0  0  0  0  0  0  0  0  0  0
   37.3540   31.4270   45.1100 C   0  0  0  0  0  0  0  0  0  0  0  0
   36.3840   30.4990   45.5110 C   0  0  0  0  0  0  0  0  0  0  0  0
   35.5040   29.4670   47.1090 H   0  0  0  0  0  0  0  0  0  0  0  0
   38.6830   32.1520   48.1800 H   0  0  0  0  0  0  0  0  0  0  0  0
   39.7390   33.4320   45.9730 H   0  0  0  0  0  0  0  0  0  0  0  0
   35.7640   30.0620   44.7370 H   0  0  0  0  0  0  0  0  0  0  0  0
   37.5030   30.1570   51.4830 C   0  0  0  0  0  0  0  0  0  0  0  0
   37.7980   30.5980   50.2050 C   0  0  0  0  0  0  0  0  0  0  0  0
   36.8820   30.3680   49.1840 C   0  0  0  0  0  0  0  0  0  0  0  0
   35.7330   29.7120   49.5080 N   0  0  0  0  0  0  0  0  0  0  0  0
   35.4520   29.2860   50.7520 C   0  0  0  0  0  0  0  0  0  0  0  0
   36.3340   29.5110   51.7240 N   0  0  0  0  0  0  0  0  0  0  0  0
   38.2720   30.3790   52.2200 H   0  0  0  0  0  0  0  0  0  0  0  0
   38.7170   31.1210   49.9570 H   0  0  0  0  0  0  0  0  0  0  0  0
   34.5250   28.7680   50.9710 H   0  0  0  0  0  0  0  0  0  0  0  0
  1  2  1  0  0  0  0
  1  7  1  0  0  0  0
  2  8  1  6  0  0  0
  2 26  1  0  0  0  0
  3 10  1  0  0  0  0
  3  2  1  0  0  0  0
  3  9  1  0  0  0  0
  4  3  1  0  0  0  0
  5 12  1  0  0  0  0
  5  4  1  0  0  0  0
  5  6  1  0  0  0  0
  6 13  1  6  0  0  0
  6  1  1  0  0  0  0
 11  5  1  0  0  0  0
 14 15  1  0  0  0  0
 15  6  1  0  0  0  0
 15 16  2  0  0  0  0
 16 17  1  0  0  0  0
 18 16  1  0  0  0  0
 18 19  1  0  0  0  0
 19 20  1  0  0  0  0
 21 22  1  0  0  0  0
 21 19  1  0  0  0  0
 23 21  2  0  0  0  0
 24 23  1  0  0  0  0
 24 18  2  0  0  0  0
 25 14  2  0  0  0  0
 25 24  1  0  0  0  0
 26 32  1  0  0  0  0
 27 36  1  0  0  0  0
 27 28  1  0  0  0  0
 28 42  1  0  0  0  0
 29 28  2  0  0  0  0
 29 37  1  0  0  0  0
 30 29  1  0  0  0  0
 31 38  1  0  0  0  0
 31 30  1  0  0  0  0
 32 31  1  0  0  0  0
 33 32  2  0  0  0  0
 33 34  1  0  0  0  0
 34 35  1  0  0  0  0
 34 30  2  0  0  0  0
 35 27  2  0  0  0  0
 39 35  1  0  0  0  0
 40 45  1  0  0  0  0
 40 46  1  0  0  0  0
 41 40  2  0  0  0  0
 42 43  2  0  0  0  0
 42 41  1  0  0  0  0
 43 44  1  0  0  0  0
 44 48  1  0  0  0  0
 44 45  2  0  0  0  0
 47 41  1  0  0  0  0
M  END
>  <minimizedAffinity>
-6.2502408

>  <minimizedRMSD>
0.149164721

$$$$
