
 OpenBabel03272510263D

 48 53  0  0  1  0  0  0  0  0999 V2000
   39.6720   31.8400   41.8700 N   0  0  0  0  0  0  0  0  0  0  0  0
   39.3260   33.2660   41.9680 C   0  0  1  0  0  0  0  0  0  0  0  0
   37.9350   33.4410   41.5640 C   0  0  0  0  0  0  0  0  0  0  0  0
   37.8200   33.1050   40.2030 O   0  0  0  0  0  0  0  0  0  0  0  0
   38.2580   31.8610   39.8710 C   0  0  0  0  0  0  0  0  0  0  0  0
   39.5980   31.5090   40.4640 C   0  0  2  0  0  0  0  0  0  0  0  0
   40.6670   31.7710   42.1590 H   0  0  0  0  0  0  0  0  0  0  0  0
   39.9720   33.8790   41.3360 H   0  0  0  0  0  0  0  0  0  0  0  0
   37.0990   32.9860   42.0180 H   0  0  0  0  0  0  0  0  0  0  0  0
   37.7330   34.5570   41.5640 H   0  0  0  0  0  0  0  0  0  0  0  0
   38.3690   31.8180   38.7780 H   0  0  0  0  0  0  0  0  0  0  0  0
   37.4910   31.1070   40.1390 H   0  0  0  0  0  0  0  0  0  0  0  0
   40.4580   31.8700   39.8790 H   0  0  0  0  0  0  0  0  0  0  0  0
   38.7580   29.3930   41.3870 C   0  0  0  0  0  3  0  0  0  0  0  0
   39.6140   29.9970   40.4650 C   0  0  0  0  0  0  0  0  0  0  0  0
   40.3920   29.2090   39.6420 C   0  0  0  0  0  0  0  0  0  0  0  0
   41.0360   29.7280   38.9480 H   0  0  0  0  0  0  0  0  0  0  0  0
   40.2930   27.8290   39.7630 C   0  0  0  0  0  0  0  0  0  0  0  0
   40.9180   26.8550   39.1070 N   0  0  0  0  0  0  0  0  0  0  0  0
   41.6260   27.0010   38.3480 H   0  0  0  0  0  0  0  0  0  0  0  0
   40.5060   25.6560   39.5620 C   0  0  0  0  0  0  0  0  0  0  0  0
   40.8510   24.6990   39.2030 H   0  0  0  0  0  0  0  0  0  0  0  0
   39.5780   25.8790   40.5510 C   0  0  0  0  0  3  0  0  0  0  0  0
   39.4320   27.2480   40.6910 C   0  0  0  0  0  0  0  0  0  0  0  0
   38.6460   28.0180   41.5230 C   0  0  0  0  0  3  0  0  0  0  0  0
   39.5240   33.5700   43.3440 O   0  0  0  0  0  0  0  0  0  0  0  0
   36.2190   30.2080   46.9020 C   0  0  0  0  0  0  0  0  0  0  0  0
   37.0540   30.7710   47.8660 C   0  0  0  0  0  0  0  0  0  0  0  0
   38.0480   31.6720   47.5120 C   0  0  0  0  0  0  0  0  0  0  0  0
   38.1580   31.9750   46.1620 C   0  0  0  0  0  0  0  0  0  0  0  0
   39.0530   32.8270   45.5740 N   0  0  0  0  0  0  0  0  0  0  0  0
   38.7850   32.8000   44.2590 C   0  0  0  0  0  0  0  0  0  0  0  0
   37.7860   31.9840   44.0050 N   0  0  0  0  0  0  0  0  0  0  0  0
   37.3560   31.4420   45.1770 C   0  0  0  0  0  0  0  0  0  0  0  0
   36.3600   30.5350   45.5620 C   0  0  0  0  0  0  0  0  0  0  0  0
   35.4440   29.5100   47.1450 H   0  0  0  0  0  0  0  0  0  0  0  0
   38.6850   32.1010   48.2610 H   0  0  0  0  0  0  0  0  0  0  0  0
   39.7860   33.3760   46.0740 H   0  0  0  0  0  0  0  0  0  0  0  0
   35.7340   30.1210   44.7810 H   0  0  0  0  0  0  0  0  0  0  0  0
   37.4220   30.1290   51.5430 C   0  0  0  0  0  0  0  0  0  0  0  0
   37.7340   30.5780   50.2720 C   0  0  0  0  0  0  0  0  0  0  0  0
   36.8330   30.3540   49.2370 C   0  0  0  0  0  0  0  0  0  0  0  0
   35.6800   29.6940   49.5410 N   0  0  0  0  0  0  0  0  0  0  0  0
   35.3820   29.2610   50.7780 C   0  0  0  0  0  0  0  0  0  0  0  0
   36.2510   29.4810   51.7630 N   0  0  0  0  0  0  0  0  0  0  0  0
   38.1810   30.3470   52.2910 H   0  0  0  0  0  0  0  0  0  0  0  0
   38.6560   31.1030   50.0400 H   0  0  0  0  0  0  0  0  0  0  0  0
   34.4530   28.7400   50.9810 H   0  0  0  0  0  0  0  0  0  0  0  0
  1  2  1  0  0  0  0
  1  7  1  0  0  0  0
  2  8  1  6  0  0  0
  2 26  1  0  0  0  0
  3  2  1  0  0  0  0
  3  9  1  0  0  0  0
  4  3  1  0  0  0  0
  5 12  1  0  0  0  0
  5  4  1  0  0  0  0
  5  6  1  0  0  0  0
  6 13  1  6  0  0  0
  6 15  1  0  0  0  0
  6  1  1  0  0  0  0
 10  3  1  0  0  0  0
 11  5  1  0  0  0  0
 14 25  1  0  0  0  0
 15 14  2  0  0  0  0
 16 18  2  0  0  0  0
 16 15  1  0  0  0  0
 17 16  1  0  0  0  0
 18 24  1  0  0  0  0
 19 21  1  0  0  0  0
 19 18  1  0  0  0  0
 20 19  1  0  0  0  0
 21 23  2  0  0  0  0
 22 21  1  0  0  0  0
 23 24  1  0  0  0  0
 24 25  2  0  0  0  0
 26 32  1  0  0  0  0
 27 36  1  0  0  0  0
 27 28  1  0  0  0  0
 28 42  1  0  0  0  0
 29 28  2  0  0  0  0
 29 37  1  0  0  0  0
 30 29  1  0  0  0  0
 31 38  1  0  0  0  0
 31 30  1  0  0  0  0
 32 31  1  0  0  0  0
 33 32  2  0  0  0  0
 33 34  1  0  0  0  0
 34 35  1  0  0  0  0
 34 30  2  0  0  0  0
 35 27  2  0  0  0  0
 39 35  1  0  0  0  0
 40 45  1  0  0  0  0
 40 46  1  0  0  0  0
 41 40  2  0  0  0  0
 42 43  2  0  0  0  0
 42 41  1  0  0  0  0
 43 44  1  0  0  0  0
 44 48  1  0  0  0  0
 44 45  2  0  0  0  0
 47 41  1  0  0  0  0
M  END
>  <minimizedAffinity>
-6.3089962

>  <minimizedRMSD>
0.295118451

$$$$
