
 OpenBabel03272510253D

 48 53  0  0  1  0  0  0  0  0999 V2000
   39.6850   31.8680   41.8070 N   0  0  0  0  0  0  0  0  0  0  0  0
   39.2820   33.2770   41.9300 C   0  0  1  0  0  0  0  0  0  0  0  0
   37.8770   33.4000   41.5560 C   0  0  0  0  0  0  0  0  0  0  0  0
   37.7490   33.0740   40.1940 O   0  0  0  0  0  0  0  0  0  0  0  0
   38.2300   31.8530   39.8380 C   0  0  0  0  0  0  0  0  0  0  0  0
   39.5950   31.5500   40.4000 C   0  0  2  0  0  0  0  0  0  0  0  0
   40.6870   31.8370   42.0760 H   0  0  0  0  0  0  0  0  0  0  0  0
   39.8890   33.9250   41.2920 H   0  0  0  0  0  0  0  0  0  0  0  0
   37.0700   32.9050   42.0210 H   0  0  0  0  0  0  0  0  0  0  0  0
   37.6290   34.5060   41.5730 H   0  0  0  0  0  0  0  0  0  0  0  0
   38.3210   31.8270   38.7420 H   0  0  0  0  0  0  0  0  0  0  0  0
   37.5010   31.0650   40.1110 H   0  0  0  0  0  0  0  0  0  0  0  0
   40.4280   31.9540   39.8020 H   0  0  0  0  0  0  0  0  0  0  0  0
   40.6710   29.5060   39.5660 C   0  0  0  0  0  3  0  0  0  0  0  0
   39.6740   30.0410   40.3820 C   0  0  0  0  0  0  0  0  0  0  0  0
   38.8510   29.1920   41.0950 C   0  0  0  0  0  0  0  0  0  0  0  0
   38.0970   29.6600   41.7110 H   0  0  0  0  0  0  0  0  0  0  0  0
   39.0490   27.8240   40.9730 C   0  0  0  0  0  0  0  0  0  0  0  0
   38.4100   26.8020   41.5380 N   0  0  0  0  0  0  0  0  0  0  0  0
   37.6080   26.8920   42.2050 H   0  0  0  0  0  0  0  0  0  0  0  0
   38.9480   25.6390   41.1250 C   0  0  0  0  0  0  0  0  0  0  0  0
   38.6210   24.6550   41.4280 H   0  0  0  0  0  0  0  0  0  0  0  0
   39.9740   25.9350   40.2590 C   0  0  0  0  0  3  0  0  0  0  0  0
   40.0520   27.3130   40.1520 C   0  0  0  0  0  0  0  0  0  0  0  0
   40.8830   28.1440   39.4300 C   0  0  0  0  0  3  0  0  0  0  0  0
   39.4960   33.5740   43.3050 O   0  0  0  0  0  0  0  0  0  0  0  0
   36.2370   30.1860   46.8810 C   0  0  0  0  0  0  0  0  0  0  0  0
   37.0630   30.7670   47.8420 C   0  0  0  0  0  0  0  0  0  0  0  0
   38.0440   31.6810   47.4830 C   0  0  0  0  0  0  0  0  0  0  0  0
   38.1500   31.9760   46.1310 C   0  0  0  0  0  0  0  0  0  0  0  0
   39.0340   32.8380   45.5390 N   0  0  0  0  0  0  0  0  0  0  0  0
   38.7680   32.7990   44.2240 C   0  0  0  0  0  0  0  0  0  0  0  0
   37.7800   31.9670   43.9750 N   0  0  0  0  0  0  0  0  0  0  0  0
   37.3580   31.4260   45.1490 C   0  0  0  0  0  0  0  0  0  0  0  0
   36.3740   30.5070   45.5390 C   0  0  0  0  0  0  0  0  0  0  0  0
   35.4720   29.4780   47.1270 H   0  0  0  0  0  0  0  0  0  0  0  0
   38.6740   32.1240   48.2300 H   0  0  0  0  0  0  0  0  0  0  0  0
   39.7580   33.4010   46.0360 H   0  0  0  0  0  0  0  0  0  0  0  0
   35.7550   30.0800   44.7590 H   0  0  0  0  0  0  0  0  0  0  0  0
   37.4460   30.1350   51.5180 C   0  0  0  0  0  0  0  0  0  0  0  0
   37.7540   30.5780   50.2450 C   0  0  0  0  0  0  0  0  0  0  0  0
   36.8470   30.3550   49.2150 C   0  0  0  0  0  0  0  0  0  0  0  0
   35.6920   29.7030   49.5270 N   0  0  0  0  0  0  0  0  0  0  0  0
   35.3980   29.2740   50.7670 C   0  0  0  0  0  0  0  0  0  0  0  0
   36.2730   29.4920   51.7470 N   0  0  0  0  0  0  0  0  0  0  0  0
   38.2100   30.3510   52.2620 H   0  0  0  0  0  0  0  0  0  0  0  0
   38.6780   31.0980   50.0060 H   0  0  0  0  0  0  0  0  0  0  0  0
   34.4680   28.7590   50.9760 H   0  0  0  0  0  0  0  0  0  0  0  0
  1  2  1  0  0  0  0
  1  7  1  0  0  0  0
  2  8  1  6  0  0  0
  2 26  1  0  0  0  0
  3 10  1  0  0  0  0
  3  2  1  0  0  0  0
  3  9  1  0  0  0  0
  4  3  1  0  0  0  0
  5 12  1  0  0  0  0
  5  4  1  0  0  0  0
  5  6  1  0  0  0  0
  6 13  1  6  0  0  0
  6  1  1  0  0  0  0
 11  5  1  0  0  0  0
 14 15  1  0  0  0  0
 15  6  1  0  0  0  0
 15 16  2  0  0  0  0
 16 17  1  0  0  0  0
 18 16  1  0  0  0  0
 18 19  1  0  0  0  0
 19 20  1  0  0  0  0
 21 22  1  0  0  0  0
 21 19  1  0  0  0  0
 23 21  2  0  0  0  0
 24 23  1  0  0  0  0
 24 18  2  0  0  0  0
 25 14  2  0  0  0  0
 25 24  1  0  0  0  0
 26 32  1  0  0  0  0
 27 36  1  0  0  0  0
 27 28  1  0  0  0  0
 28 42  1  0  0  0  0
 29 28  2  0  0  0  0
 29 37  1  0  0  0  0
 30 29  1  0  0  0  0
 31 38  1  0  0  0  0
 31 30  1  0  0  0  0
 32 31  1  0  0  0  0
 33 32  2  0  0  0  0
 33 34  1  0  0  0  0
 34 35  1  0  0  0  0
 34 30  2  0  0  0  0
 35 27  2  0  0  0  0
 39 35  1  0  0  0  0
 40 45  1  0  0  0  0
 40 46  1  0  0  0  0
 41 40  2  0  0  0  0
 42 43  2  0  0  0  0
 42 41  1  0  0  0  0
 43 44  1  0  0  0  0
 44 48  1  0  0  0  0
 44 45  2  0  0  0  0
 47 41  1  0  0  0  0
M  END
>  <minimizedAffinity>
-6.25585222

>  <minimizedRMSD>
0.191555545

$$$$
