
 OpenBabel03272510263D

 48 53  0  0  1  0  0  0  0  0999 V2000
   39.6770   31.5440   42.2600 N   0  0  0  0  0  0  0  0  0  0  0  0
   39.6080   32.9790   41.9490 C   0  0  1  0  0  0  0  0  0  0  0  0
   38.5050   33.2080   41.0220 C   0  0  0  0  0  0  0  0  0  0  0  0
   38.8020   32.5590   39.8090 O   0  0  0  0  0  0  0  0  0  0  0  0
   39.0700   31.2300   39.9080 C   0  0  0  0  0  0  0  0  0  0  0  0
   40.0270   30.8850   41.0210 C   0  0  2  0  0  0  0  0  0  0  0  0
   40.4770   31.4350   42.9130 H   0  0  0  0  0  0  0  0  0  0  0  0
   40.5400   33.3390   41.5060 H   0  0  0  0  0  0  0  0  0  0  0  0
   37.4920   32.9790   41.2000 H   0  0  0  0  0  0  0  0  0  0  0  0
   38.5410   34.3040   40.7340 H   0  0  0  0  0  0  0  0  0  0  0  0
   39.5410   30.9050   38.9680 H   0  0  0  0  0  0  0  0  0  0  0  0
   38.1250   30.6590   40.0010 H   0  0  0  0  0  0  0  0  0  0  0  0
   41.0890   30.9890   40.7500 H   0  0  0  0  0  0  0  0  0  0  0  0
   39.5190   28.6300   40.1910 C   0  0  0  0  0  3  0  0  0  0  0  0
   39.7420   29.4300   41.3120 C   0  0  0  0  0  0  0  0  0  0  0  0
   39.6900   28.8630   42.5700 C   0  0  0  0  0  0  0  0  0  0  0  0
   39.8690   29.5280   43.4020 H   0  0  0  0  0  0  0  0  0  0  0  0
   39.4150   27.5080   42.6730 C   0  0  0  0  0  0  0  0  0  0  0  0
   39.3090   26.7240   43.7440 N   0  0  0  0  0  0  0  0  0  0  0  0
   39.4250   27.0430   44.7350 H   0  0  0  0  0  0  0  0  0  0  0  0
   39.0280   25.4630   43.3640 C   0  0  0  0  0  0  0  0  0  0  0  0
   38.8900   24.6240   44.0310 H   0  0  0  0  0  0  0  0  0  0  0  0
   38.9540   25.4440   41.9920 C   0  0  0  0  0  3  0  0  0  0  0  0
   39.1960   26.7300   41.5390 C   0  0  0  0  0  0  0  0  0  0  0  0
   39.2440   27.2750   40.2730 C   0  0  0  0  0  3  0  0  0  0  0  0
   39.3770   33.5900   43.2130 O   0  0  0  0  0  0  0  0  0  0  0  0
   36.1700   30.2350   46.8660 C   0  0  0  0  0  0  0  0  0  0  0  0
   37.0440   30.7850   47.8030 C   0  0  0  0  0  0  0  0  0  0  0  0
   38.0330   31.6790   47.4190 C   0  0  0  0  0  0  0  0  0  0  0  0
   38.0970   31.9900   46.0680 C   0  0  0  0  0  0  0  0  0  0  0  0
   38.9790   32.8380   45.4540 N   0  0  0  0  0  0  0  0  0  0  0  0
   38.6640   32.8210   44.1490 C   0  0  0  0  0  0  0  0  0  0  0  0
   37.6490   32.0160   43.9260 N   0  0  0  0  0  0  0  0  0  0  0  0
   37.2560   31.4710   45.1090 C   0  0  0  0  0  0  0  0  0  0  0  0
   36.2660   30.5700   45.5240 C   0  0  0  0  0  0  0  0  0  0  0  0
   35.3980   29.5430   47.1320 H   0  0  0  0  0  0  0  0  0  0  0  0
   38.7000   32.0980   48.1480 H   0  0  0  0  0  0  0  0  0  0  0  0
   39.7340   33.3770   45.9300 H   0  0  0  0  0  0  0  0  0  0  0  0
   35.6090   30.1670   44.7630 H   0  0  0  0  0  0  0  0  0  0  0  0
   37.5260   30.1390   51.4660 C   0  0  0  0  0  0  0  0  0  0  0  0
   37.7950   30.5950   50.1880 C   0  0  0  0  0  0  0  0  0  0  0  0
   36.8690   30.3610   49.1780 C   0  0  0  0  0  0  0  0  0  0  0  0
   35.7340   29.6840   49.5130 N   0  0  0  0  0  0  0  0  0  0  0  0
   35.4780   29.2430   50.7570 C   0  0  0  0  0  0  0  0  0  0  0  0
   36.3710   29.4720   51.7180 N   0  0  0  0  0  0  0  0  0  0  0  0
   38.3030   30.3650   52.1930 H   0  0  0  0  0  0  0  0  0  0  0  0
   38.7030   31.1340   49.9310 H   0  0  0  0  0  0  0  0  0  0  0  0
   34.5620   28.7090   50.9850 H   0  0  0  0  0  0  0  0  0  0  0  0
  1  7  1  0  0  0  0
  2  8  1  6  0  0  0
  2  1  1  0  0  0  0
  2 26  1  0  0  0  0
  3  9  1  0  0  0  0
  3  2  1  0  0  0  0
  4  5  1  0  0  0  0
  4  3  1  0  0  0  0
  5 12  1  0  0  0  0
  5  6  1  0  0  0  0
  6 13  1  6  0  0  0
  6 15  1  0  0  0  0
  6  1  1  0  0  0  0
 10  3  1  0  0  0  0
 11  5  1  0  0  0  0
 14 25  2  0  0  0  0
 14 15  1  0  0  0  0
 15 16  2  0  0  0  0
 16 18  1  0  0  0  0
 16 17  1  0  0  0  0
 18 19  1  0  0  0  0
 19 20  1  0  0  0  0
 21 19  1  0  0  0  0
 21 22  1  0  0  0  0
 23 21  2  0  0  0  0
 24 23  1  0  0  0  0
 24 18  2  0  0  0  0
 25 24  1  0  0  0  0
 26 32  1  0  0  0  0
 27 36  1  0  0  0  0
 27 28  1  0  0  0  0
 28 42  1  0  0  0  0
 29 28  2  0  0  0  0
 29 37  1  0  0  0  0
 30 29  1  0  0  0  0
 31 38  1  0  0  0  0
 31 30  1  0  0  0  0
 32 31  1  0  0  0  0
 33 32  2  0  0  0  0
 33 34  1  0  0  0  0
 34 35  1  0  0  0  0
 34 30  2  0  0  0  0
 35 27  2  0  0  0  0
 39 35  1  0  0  0  0
 40 45  1  0  0  0  0
 40 46  1  0  0  0  0
 41 40  2  0  0  0  0
 42 43  2  0  0  0  0
 42 41  1  0  0  0  0
 43 44  1  0  0  0  0
 44 48  1  0  0  0  0
 44 45  2  0  0  0  0
 47 41  1  0  0  0  0
M  END
>  <minimizedAffinity>
-6.37441587

>  <minimizedRMSD>
1.08142447

$$$$
