
 OpenBabel03272510253D

 48 53  0  0  1  0  0  0  0  0999 V2000
   39.6730   31.8440   41.8750 N   0  0  0  0  0  0  0  0  0  0  0  0
   39.3270   33.2700   41.9750 C   0  0  1  0  0  0  0  0  0  0  0  0
   37.9360   33.4460   41.5710 C   0  0  0  0  0  0  0  0  0  0  0  0
   37.8210   33.1100   40.2100 O   0  0  0  0  0  0  0  0  0  0  0  0
   38.2580   31.8670   39.8770 C   0  0  0  0  0  0  0  0  0  0  0  0
   39.5980   31.5140   40.4690 C   0  0  2  0  0  0  0  0  0  0  0  0
   40.6680   31.7750   42.1640 H   0  0  0  0  0  0  0  0  0  0  0  0
   39.9730   33.8840   41.3430 H   0  0  0  0  0  0  0  0  0  0  0  0
   37.1000   32.9900   42.0240 H   0  0  0  0  0  0  0  0  0  0  0  0
   37.7340   34.5610   41.5720 H   0  0  0  0  0  0  0  0  0  0  0  0
   38.3700   31.8250   38.7830 H   0  0  0  0  0  0  0  0  0  0  0  0
   37.4920   31.1130   40.1430 H   0  0  0  0  0  0  0  0  0  0  0  0
   40.4590   31.8760   39.8850 H   0  0  0  0  0  0  0  0  0  0  0  0
   38.7580   29.3970   41.3880 C   0  0  0  0  0  3  0  0  0  0  0  0
   39.6150   30.0030   40.4680 C   0  0  0  0  0  0  0  0  0  0  0  0
   40.3940   29.2140   39.6450 C   0  0  0  0  0  0  0  0  0  0  0  0
   41.0380   29.7350   38.9530 H   0  0  0  0  0  0  0  0  0  0  0  0
   40.2950   27.8360   39.7650 C   0  0  0  0  0  0  0  0  0  0  0  0
   40.9210   26.8620   39.1080 N   0  0  0  0  0  0  0  0  0  0  0  0
   41.6290   27.0090   38.3510 H   0  0  0  0  0  0  0  0  0  0  0  0
   40.5080   25.6630   39.5620 C   0  0  0  0  0  0  0  0  0  0  0  0
   40.8540   24.7060   39.2020 H   0  0  0  0  0  0  0  0  0  0  0  0
   39.5780   25.8850   40.5500 C   0  0  0  0  0  3  0  0  0  0  0  0
   39.4330   27.2540   40.6910 C   0  0  0  0  0  0  0  0  0  0  0  0
   38.6450   28.0230   41.5220 C   0  0  0  0  0  3  0  0  0  0  0  0
   39.5260   33.5720   43.3510 O   0  0  0  0  0  0  0  0  0  0  0  0
   36.2200   30.2070   46.9060 C   0  0  0  0  0  0  0  0  0  0  0  0
   37.0540   30.7710   47.8710 C   0  0  0  0  0  0  0  0  0  0  0  0
   38.0480   31.6730   47.5170 C   0  0  0  0  0  0  0  0  0  0  0  0
   38.1580   31.9760   46.1670 C   0  0  0  0  0  0  0  0  0  0  0  0
   39.0540   32.8290   45.5800 N   0  0  0  0  0  0  0  0  0  0  0  0
   38.7870   32.8020   44.2650 C   0  0  0  0  0  0  0  0  0  0  0  0
   37.7870   31.9860   44.0110 N   0  0  0  0  0  0  0  0  0  0  0  0
   37.3580   31.4430   45.1820 C   0  0  0  0  0  0  0  0  0  0  0  0
   36.3620   30.5350   45.5660 C   0  0  0  0  0  0  0  0  0  0  0  0
   35.4460   29.5090   47.1480 H   0  0  0  0  0  0  0  0  0  0  0  0
   38.6850   32.1020   48.2670 H   0  0  0  0  0  0  0  0  0  0  0  0
   39.7860   33.3780   46.0800 H   0  0  0  0  0  0  0  0  0  0  0  0
   35.7370   30.1220   44.7840 H   0  0  0  0  0  0  0  0  0  0  0  0
   37.4220   30.1270   51.5470 C   0  0  0  0  0  0  0  0  0  0  0  0
   37.7340   30.5770   50.2760 C   0  0  0  0  0  0  0  0  0  0  0  0
   36.8330   30.3530   49.2410 C   0  0  0  0  0  0  0  0  0  0  0  0
   35.6800   29.6940   49.5450 N   0  0  0  0  0  0  0  0  0  0  0  0
   35.3810   29.2600   50.7820 C   0  0  0  0  0  0  0  0  0  0  0  0
   36.2500   29.4790   51.7670 N   0  0  0  0  0  0  0  0  0  0  0  0
   38.1800   30.3450   52.2960 H   0  0  0  0  0  0  0  0  0  0  0  0
   38.6560   31.1020   50.0450 H   0  0  0  0  0  0  0  0  0  0  0  0
   34.4520   28.7390   50.9840 H   0  0  0  0  0  0  0  0  0  0  0  0
  1  2  1  0  0  0  0
  1  7  1  0  0  0  0
  2  8  1  6  0  0  0
  2 26  1  0  0  0  0
  3 10  1  0  0  0  0
  3  2  1  0  0  0  0
  3  9  1  0  0  0  0
  4  3  1  0  0  0  0
  5 12  1  0  0  0  0
  5  4  1  0  0  0  0
  5  6  1  0  0  0  0
  6 13  1  6  0  0  0
  6  1  1  0  0  0  0
 11  5  1  0  0  0  0
 14 25  1  0  0  0  0
 15  6  1  0  0  0  0
 15 14  2  0  0  0  0
 16 18  2  0  0  0  0
 16 15  1  0  0  0  0
 17 16  1  0  0  0  0
 18 24  1  0  0  0  0
 19 21  1  0  0  0  0
 19 18  1  0  0  0  0
 20 19  1  0  0  0  0
 21 23  2  0  0  0  0
 22 21  1  0  0  0  0
 23 24  1  0  0  0  0
 24 25  2  0  0  0  0
 26 32  1  0  0  0  0
 27 36  1  0  0  0  0
 27 28  1  0  0  0  0
 28 42  1  0  0  0  0
 29 28  2  0  0  0  0
 29 37  1  0  0  0  0
 30 29  1  0  0  0  0
 31 38  1  0  0  0  0
 31 30  1  0  0  0  0
 32 31  1  0  0  0  0
 33 32  2  0  0  0  0
 33 34  1  0  0  0  0
 34 35  1  0  0  0  0
 34 30  2  0  0  0  0
 35 27  2  0  0  0  0
 39 35  1  0  0  0  0
 40 45  1  0  0  0  0
 40 46  1  0  0  0  0
 41 40  2  0  0  0  0
 42 43  2  0  0  0  0
 42 41  1  0  0  0  0
 43 44  1  0  0  0  0
 44 48  1  0  0  0  0
 44 45  2  0  0  0  0
 47 41  1  0  0  0  0
M  END
>  <minimizedAffinity>
-6.31209183

>  <minimizedRMSD>
0.192598805

$$$$
