
 OpenBabel03272506383D

 40 43  0  0  1  0  0  0  0  0999 V2000
   34.5460   29.7100   49.9910 O   0  0  0  0  0  0  0  0  0  0  0  0
   34.3570   29.6520   48.7680 C   0  0  0  0  0  0  0  0  0  0  0  0
   35.1670   30.4120   47.8380 C   0  0  2  0  0  0  0  0  0  0  0  0
   34.6650   29.8480   46.4730 C   0  0  0  0  0  0  0  0  0  0  0  0
   33.2760   29.3890   46.7800 C   0  0  0  0  0  0  0  0  0  0  0  0
   33.3500   28.8550   48.1280 N   0  0  0  0  0  0  0  0  0  0  0  0
   35.0150   31.4960   47.8300 H   0  0  0  0  0  0  0  0  0  0  0  0
   34.6130   30.7170   45.7920 H   0  0  0  0  0  0  0  0  0  0  0  0
   35.3350   29.0400   46.1330 H   0  0  0  0  0  0  0  0  0  0  0  0
   32.5230   30.1680   46.6630 H   0  0  0  0  0  0  0  0  0  0  0  0
   33.0220   28.5540   46.0800 H   0  0  0  0  0  0  0  0  0  0  0  0
   32.5610   27.7610   48.6760 C   0  0  0  0  0  0  0  0  0  0  0  0
   31.5580   28.1600   48.8900 H   0  0  0  0  0  0  0  0  0  0  0  0
   33.0450   27.4950   49.6360 H   0  0  0  0  0  0  0  0  0  0  0  0
   33.8350   26.0960   47.5190 C   0  0  0  0  0  0  0  0  0  0  0  0
   32.5570   26.5680   47.8260 C   0  0  0  0  0  0  0  0  0  0  0  0
   31.4250   25.9380   47.3500 C   0  0  0  0  0  0  0  0  0  0  0  0
   30.4610   26.3480   47.6190 H   0  0  0  0  0  0  0  0  0  0  0  0
   31.6110   24.8140   46.5540 C   0  0  0  0  0  0  0  0  0  0  0  0
   30.7020   24.0110   45.9610 N   0  0  0  0  0  0  0  0  0  0  0  0
   29.6740   24.0830   45.9880 H   0  0  0  0  0  0  0  0  0  0  0  0
   31.3940   23.0530   45.2940 C   0  0  0  0  0  0  0  0  0  0  0  0
   31.0120   22.2240   44.6930 H   0  0  0  0  0  0  0  0  0  0  0  0
   32.7440   23.2330   45.4540 C   0  0  0  0  0  0  0  0  0  0  0  0
   32.8740   24.3490   46.2520 C   0  0  0  0  0  0  0  0  0  0  0  0
   34.0100   24.9760   46.7260 C   0  0  0  0  0  0  0  0  0  0  0  0
   36.5650   30.1030   47.8920 O   0  0  0  0  0  0  0  0  0  0  0  0
   37.4510   31.1670   48.0500 C   0  0  0  0  0  0  0  0  0  0  0  0
   37.5920   31.6750   49.3290 C   0  0  0  0  0  0  0  0  0  0  0  0
   38.4680   32.7360   49.5130 C   0  0  0  0  0  0  0  0  0  0  0  0
   39.1420   33.2260   48.4440 N   0  0  0  0  0  0  0  0  0  0  0  0
   38.9920   32.7210   47.2040 C   0  0  0  0  0  0  0  0  0  0  0  0
   38.1570   31.7120   47.0430 N   0  0  0  0  0  0  0  0  0  0  0  0
   40.5520   32.2970   45.4730 C   0  0  0  0  0  0  0  0  0  0  0  0
   40.7090   31.0790   45.7750 O   0  0  0  0  0  0  0  0  0  0  0  0
   39.7160   33.2620   46.1040 N   0  0  0  0  0  0  0  0  0  0  0  0
   37.0830   31.3270   50.2140 H   0  0  0  0  0  0  0  0  0  0  0  0
   38.6080   33.1610   50.4940 H   0  0  0  0  0  0  0  0  0  0  0  0
   41.1920   32.4760   44.6180 H   0  0  0  0  0  0  0  0  0  0  0  0
   39.7210   34.2190   45.7100 H   0  0  0  0  0  0  0  0  0  0  0  0
  2  1  2  0  0  0  0
  3  7  1  1  0  0  0
  3 27  1  0  0  0  0
  3  2  1  0  0  0  0
  4  5  1  0  0  0  0
  4  3  1  0  0  0  0
  5  6  1  0  0  0  0
  6 12  1  0  0  0  0
  6  2  1  0  0  0  0
  8  4  1  0  0  0  0
  9  4  1  0  0  0  0
 10  5  1  0  0  0  0
 11  5  1  0  0  0  0
 12 13  1  0  0  0  0
 12 14  1  0  0  0  0
 15 16  1  0  0  0  0
 16 12  1  0  0  0  0
 17 18  1  0  0  0  0
 17 16  2  0  0  0  0
 19 17  1  0  0  0  0
 20 21  1  0  0  0  0
 20 19  1  0  0  0  0
 22 24  2  0  0  0  0
 22 20  1  0  0  0  0
 23 22  1  0  0  0  0
 24 25  1  0  0  0  0
 25 19  2  0  0  0  0
 25 26  1  0  0  0  0
 26 15  2  0  0  0  0
 27 28  1  0  0  0  0
 28 29  1  0  0  0  0
 29 30  2  0  0  0  0
 29 37  1  0  0  0  0
 30 38  1  0  0  0  0
 31 30  1  0  0  0  0
 32 31  2  0  0  0  0
 33 32  1  0  0  0  0
 33 28  2  0  0  0  0
 34 35  2  0  0  0  0
 34 36  1  0  0  0  0
 36 32  1  0  0  0  0
 39 34  1  0  0  0  0
 40 36  1  0  0  0  0
M  END
>  <minimizedAffinity>
-5.97700644

>  <minimizedRMSD>
2.16578865

$$$$
