
 OpenBabel03272501313D

 23 25  0  0  0  0  0  0  0  0999 V2000
   38.3150   26.1400   35.1670 C   0  0  0  0  0  3  0  0  0  0  0  0
   38.4100   25.0150   34.3780 C   0  0  0  0  0  0  0  0  0  0  0  0
   38.3640   23.7960   35.0770 C   0  0  0  0  0  0  0  0  0  0  0  0
   38.4360   22.8410   34.5420 H   0  0  0  0  0  0  0  0  0  0  0  0
   38.2360   23.7110   36.4270 C   0  0  0  0  0  0  0  0  0  0  0  0
   38.1600   22.6480   37.2840 N   0  0  0  0  0  0  0  0  0  0  0  0
   38.1990   21.6350   37.0390 H   0  0  0  0  0  0  0  0  0  0  0  0
   38.0270   23.1590   38.5230 C   0  0  0  0  0  0  0  0  0  0  0  0
   37.9400   22.5940   39.4320 H   0  0  0  0  0  0  0  0  0  0  0  0
   38.0120   24.5570   38.5050 C   0  0  0  0  0  3  0  0  0  0  0  0
   38.1470   24.8720   37.1610 C   0  0  0  0  0  0  0  0  0  0  0  0
   38.1850   26.1100   36.5370 C   0  0  0  0  0  3  0  0  0  0  0  0
   38.4800   24.8740   32.9330 C   0  0  0  0  0  0  0  0  0  0  0  0
   39.6060   24.6520   32.3770 O   0  0  0  0  0  0  0  0  0  0  0  0
   35.3210   24.1100   31.0740 C   0  0  0  0  0  0  0  0  0  0  0  0
   36.5000   23.8640   31.8080 C   0  0  0  0  0  0  0  0  0  0  0  0
   37.2480   24.9790   32.1450 C   0  0  0  0  0  0  0  0  0  0  0  0
   36.8020   26.2190   31.7520 N   0  0  0  0  0  0  0  0  0  0  0  0
   35.6780   26.3960   31.0570 C   0  0  0  0  0  0  0  0  0  0  0  0
   34.9250   25.3540   30.7100 N   0  0  0  0  0  0  0  0  0  0  0  0
   34.7060   23.2580   30.7920 H   0  0  0  0  0  0  0  0  0  0  0  0
   36.8020   22.8870   32.0850 H   0  0  0  0  0  0  0  0  0  0  0  0
   35.3830   27.3980   30.7820 H   0  0  0  0  0  0  0  0  0  0  0  0
  1 12  1  0  0  0  0
  2  3  1  0  0  0  0
  2  1  2  0  0  0  0
  3  5  2  0  0  0  0
  4  3  1  0  0  0  0
  5 11  1  0  0  0  0
  5  6  1  0  0  0  0
  6  8  1  0  0  0  0
  7  6  1  0  0  0  0
  8  9  1  0  0  0  0
 10  8  2  0  0  0  0
 11 10  1  0  0  0  0
 12 11  2  0  0  0  0
 13  2  1  0  0  0  0
 14 13  2  0  0  0  0
 15 16  1  0  0  0  0
 16 22  1  0  0  0  0
 16 17  2  0  0  0  0
 17 13  1  0  0  0  0
 18 17  1  0  0  0  0
 19 18  2  0  0  0  0
 20 19  1  0  0  0  0
 20 15  2  0  0  0  0
 21 15  1  0  0  0  0
 23 19  1  0  0  0  0
M  END
>  <minimizedAffinity>
-4.96345425

$$$$

 OpenBabel03272501313D

 23 25  0  0  0  0  0  0  0  0999 V2000
   40.5520   24.3020   35.2870 C   0  0  0  0  0  3  0  0  0  0  0  0
   39.4380   23.9830   36.0310 C   0  0  0  0  0  0  0  0  0  0  0  0
   39.5990   22.8910   36.9010 C   0  0  0  0  0  0  0  0  0  0  0  0
   38.7700   22.5520   37.5350 H   0  0  0  0  0  0  0  0  0  0  0  0
   40.7580   22.1910   37.0170 C   0  0  0  0  0  0  0  0  0  0  0  0
   41.1220   21.1270   37.7950 N   0  0  0  0  0  0  0  0  0  0  0  0
   40.5300   20.6170   38.4860 H   0  0  0  0  0  0  0  0  0  0  0  0
   42.4070   20.8530   37.4990 C   0  0  0  0  0  0  0  0  0  0  0  0
   43.0020   20.0720   37.9350 H   0  0  0  0  0  0  0  0  0  0  0  0
   42.9090   21.7250   36.5290 C   0  0  0  0  0  3  0  0  0  0  0  0
   41.8370   22.5590   36.2460 C   0  0  0  0  0  0  0  0  0  0  0  0
   41.7490   23.6260   35.3660 C   0  0  0  0  0  3  0  0  0  0  0  0
   38.1390   24.6300   36.1170 C   0  0  0  0  0  0  0  0  0  0  0  0
   37.3790   24.3820   37.1110 O   0  0  0  0  0  0  0  0  0  0  0  0
   37.1960   27.7050   34.2020 C   0  0  0  0  0  0  0  0  0  0  0  0
   37.5550   26.9140   35.3130 C   0  0  0  0  0  0  0  0  0  0  0  0
   37.7340   25.5640   35.0620 C   0  0  0  0  0  0  0  0  0  0  0  0
   37.5540   25.0990   33.7810 N   0  0  0  0  0  0  0  0  0  0  0  0
   37.2130   25.8920   32.7650 C   0  0  0  0  0  0  0  0  0  0  0  0
   37.0300   27.1970   32.9570 N   0  0  0  0  0  0  0  0  0  0  0  0
   37.0490   28.7720   34.3600 H   0  0  0  0  0  0  0  0  0  0  0  0
   37.6800   27.3210   36.2830 H   0  0  0  0  0  0  0  0  0  0  0  0
   37.0900   25.4630   31.7810 H   0  0  0  0  0  0  0  0  0  0  0  0
  1 12  2  0  0  0  0
  1  2  1  0  0  0  0
  2 13  1  0  0  0  0
  2  3  2  0  0  0  0
  3  5  1  0  0  0  0
  3  4  1  0  0  0  0
  5  6  1  0  0  0  0
  6  7  1  0  0  0  0
  8  6  1  0  0  0  0
  8  9  1  0  0  0  0
 10  8  2  0  0  0  0
 11 10  1  0  0  0  0
 11  5  2  0  0  0  0
 12 11  1  0  0  0  0
 13 14  2  0  0  0  0
 15 21  1  0  0  0  0
 15 16  1  0  0  0  0
 16 22  1  0  0  0  0
 17 16  2  0  0  0  0
 17 13  1  0  0  0  0
 18 17  1  0  0  0  0
 19 20  1  0  0  0  0
 19 18  2  0  0  0  0
 20 15  2  0  0  0  0
 23 19  1  0  0  0  0
M  END
>  <minimizedAffinity>
-4.94578695

$$$$

 OpenBabel03272501313D

 23 25  0  0  0  0  0  0  0  0999 V2000
   36.6780   21.4440   35.8100 C   0  0  0  0  0  3  0  0  0  0  0  0
   37.8000   22.0530   35.2950 C   0  0  0  0  0  0  0  0  0  0  0  0
   37.8980   22.0260   33.8930 C   0  0  0  0  0  0  0  0  0  0  0  0
   38.7560   22.4800   33.3820 H   0  0  0  0  0  0  0  0  0  0  0  0
   36.9670   21.4500   33.0880 C   0  0  0  0  0  0  0  0  0  0  0  0
   36.8670   21.3260   31.7300 N   0  0  0  0  0  0  0  0  0  0  0  0
   37.5420   21.6710   31.0130 H   0  0  0  0  0  0  0  0  0  0  0  0
   35.7190   20.6660   31.4850 C   0  0  0  0  0  0  0  0  0  0  0  0
   35.3380   20.4020   30.5170 H   0  0  0  0  0  0  0  0  0  0  0  0
   35.0470   20.3440   32.6680 C   0  0  0  0  0  3  0  0  0  0  0  0
   35.8670   20.8560   33.6640 C   0  0  0  0  0  0  0  0  0  0  0  0
   35.7060   20.8450   35.0410 C   0  0  0  0  0  3  0  0  0  0  0  0
   38.8700   22.7830   35.9550 C   0  0  0  0  0  0  0  0  0  0  0  0
   39.7140   22.1490   36.6710 O   0  0  0  0  0  0  0  0  0  0  0  0
   38.2510   26.4720   36.1010 C   0  0  0  0  0  0  0  0  0  0  0  0
   38.0270   25.0980   36.3240 C   0  0  0  0  0  0  0  0  0  0  0  0
   38.9610   24.2350   35.7750 C   0  0  0  0  0  0  0  0  0  0  0  0
   40.0160   24.7630   35.0700 N   0  0  0  0  0  0  0  0  0  0  0  0
   40.1800   26.0740   34.8880 C   0  0  0  0  0  0  0  0  0  0  0  0
   39.3080   26.9430   35.3970 N   0  0  0  0  0  0  0  0  0  0  0  0
   37.5390   27.1810   36.5180 H   0  0  0  0  0  0  0  0  0  0  0  0
   37.1950   24.7400   36.8740 H   0  0  0  0  0  0  0  0  0  0  0  0
   41.0340   26.4240   34.3250 H   0  0  0  0  0  0  0  0  0  0  0  0
  2  1  1  0  0  0  0
  2 13  1  0  0  0  0
  3  2  2  0  0  0  0
  4  3  1  0  0  0  0
  5 11  2  0  0  0  0
  5  3  1  0  0  0  0
  6  5  1  0  0  0  0
  7  6  1  0  0  0  0
  8  6  1  0  0  0  0
  8 10  2  0  0  0  0
  9  8  1  0  0  0  0
 10 11  1  0  0  0  0
 11 12  1  0  0  0  0
 12  1  2  0  0  0  0
 13 14  2  0  0  0  0
 15 16  1  0  0  0  0
 15 21  1  0  0  0  0
 16 22  1  0  0  0  0
 17 13  1  0  0  0  0
 17 16  2  0  0  0  0
 18 17  1  0  0  0  0
 19 18  2  0  0  0  0
 19 20  1  0  0  0  0
 20 15  2  0  0  0  0
 23 19  1  0  0  0  0
M  END
>  <minimizedAffinity>
-4.87070608

$$$$

 OpenBabel03272501313D

 23 25  0  0  0  0  0  0  0  0999 V2000
   36.8350   27.8500   34.5670 C   0  0  0  0  0  3  0  0  0  0  0  0
   37.9530   27.1420   34.1850 C   0  0  0  0  0  0  0  0  0  0  0  0
   38.2790   27.2420   32.8210 C   0  0  0  0  0  0  0  0  0  0  0  0
   39.1490   26.7120   32.4140 H   0  0  0  0  0  0  0  0  0  0  0  0
   37.5620   27.9760   31.9310 C   0  0  0  0  0  0  0  0  0  0  0  0
   37.7120   28.2110   30.5920 N   0  0  0  0  0  0  0  0  0  0  0  0
   38.4550   27.8350   29.9640 H   0  0  0  0  0  0  0  0  0  0  0  0
   36.7070   29.0300   30.2290 C   0  0  0  0  0  0  0  0  0  0  0  0
   36.5300   29.4110   29.2400 H   0  0  0  0  0  0  0  0  0  0  0  0
   35.8820   29.3470   31.3120 C   0  0  0  0  0  3  0  0  0  0  0  0
   36.4540   28.6610   32.3750 C   0  0  0  0  0  0  0  0  0  0  0  0
   36.0730   28.6080   33.7070 C   0  0  0  0  0  3  0  0  0  0  0  0
   38.8950   26.3620   34.9700 C   0  0  0  0  0  0  0  0  0  0  0  0
   40.0610   26.8270   35.1970 O   0  0  0  0  0  0  0  0  0  0  0  0
   37.6450   23.5980   37.1650 C   0  0  0  0  0  0  0  0  0  0  0  0
   38.0450   24.9000   36.8000 C   0  0  0  0  0  0  0  0  0  0  0  0
   38.4790   25.0570   35.4940 C   0  0  0  0  0  0  0  0  0  0  0  0
   38.4900   23.9610   34.6640 N   0  0  0  0  0  0  0  0  0  0  0  0
   38.1010   22.7490   35.0620 C   0  0  0  0  0  0  0  0  0  0  0  0
   37.6750   22.5490   36.3070 N   0  0  0  0  0  0  0  0  0  0  0  0
   37.2960   23.4360   38.1820 H   0  0  0  0  0  0  0  0  0  0  0  0
   38.0200   25.7130   37.4790 H   0  0  0  0  0  0  0  0  0  0  0  0
   38.1320   21.9300   34.3570 H   0  0  0  0  0  0  0  0  0  0  0  0
  2  1  1  0  0  0  0
  2 13  1  0  0  0  0
  3  2  2  0  0  0  0
  4  3  1  0  0  0  0
  5 11  2  0  0  0  0
  5  3  1  0  0  0  0
  6  5  1  0  0  0  0
  7  6  1  0  0  0  0
  8  6  1  0  0  0  0
  8 10  2  0  0  0  0
  9  8  1  0  0  0  0
 10 11  1  0  0  0  0
 11 12  1  0  0  0  0
 12  1  2  0  0  0  0
 13 14  2  0  0  0  0
 13 17  1  0  0  0  0
 15 21  1  0  0  0  0
 16 15  1  0  0  0  0
 16 22  1  0  0  0  0
 17 16  2  0  0  0  0
 18 19  2  0  0  0  0
 18 17  1  0  0  0  0
 19 20  1  0  0  0  0
 20 15  2  0  0  0  0
 23 19  1  0  0  0  0
M  END
>  <minimizedAffinity>
-4.86092806

$$$$

 OpenBabel03272501313D

 23 25  0  0  0  0  0  0  0  0999 V2000
   37.9860   23.1870   33.1520 C   0  0  0  0  0  3  0  0  0  0  0  0
   38.3690   24.4070   33.6630 C   0  0  0  0  0  0  0  0  0  0  0  0
   37.6490   25.5080   33.1680 C   0  0  0  0  0  0  0  0  0  0  0  0
   37.8780   26.5260   33.5080 H   0  0  0  0  0  0  0  0  0  0  0  0
   36.6480   25.3990   32.2550 C   0  0  0  0  0  0  0  0  0  0  0  0
   35.8300   26.3230   31.6640 N   0  0  0  0  0  0  0  0  0  0  0  0
   35.8330   27.3550   31.8110 H   0  0  0  0  0  0  0  0  0  0  0  0
   35.0090   25.6420   30.8420 C   0  0  0  0  0  0  0  0  0  0  0  0
   34.2410   26.0680   30.2240 H   0  0  0  0  0  0  0  0  0  0  0  0
   35.2680   24.2690   30.8760 C   0  0  0  0  0  3  0  0  0  0  0  0
   36.3130   24.1510   31.7820 C   0  0  0  0  0  0  0  0  0  0  0  0
   36.9810   23.0210   32.2270 C   0  0  0  0  0  3  0  0  0  0  0  0
   39.3480   24.7430   34.6840 C   0  0  0  0  0  0  0  0  0  0  0  0
   40.3690   25.4400   34.3690 O   0  0  0  0  0  0  0  0  0  0  0  0
   38.0000   24.2250   38.1380 C   0  0  0  0  0  0  0  0  0  0  0  0
   38.1120   24.7800   36.8460 C   0  0  0  0  0  0  0  0  0  0  0  0
   39.1350   24.2790   36.0580 C   0  0  0  0  0  0  0  0  0  0  0  0
   39.9490   23.3000   36.5750 N   0  0  0  0  0  0  0  0  0  0  0  0
   39.7990   22.8100   37.8060 C   0  0  0  0  0  0  0  0  0  0  0  0
   38.8310   23.2600   38.6010 N   0  0  0  0  0  0  0  0  0  0  0  0
   37.2070   24.5930   38.7860 H   0  0  0  0  0  0  0  0  0  0  0  0
   37.4590   25.5370   36.4950 H   0  0  0  0  0  0  0  0  0  0  0  0
   40.4730   22.0380   38.1500 H   0  0  0  0  0  0  0  0  0  0  0  0
  1  2  1  0  0  0  0
  2 13  1  0  0  0  0
  3  4  1  0  0  0  0
  3  2  2  0  0  0  0
  5  3  1  0  0  0  0
  6  7  1  0  0  0  0
  6  5  1  0  0  0  0
  8 10  2  0  0  0  0
  8  6  1  0  0  0  0
  9  8  1  0  0  0  0
 10 11  1  0  0  0  0
 11 12  1  0  0  0  0
 11  5  2  0  0  0  0
 12  1  2  0  0  0  0
 13 17  1  0  0  0  0
 14 13  2  0  0  0  0
 15 20  1  0  0  0  0
 15 21  1  0  0  0  0
 16 15  2  0  0  0  0
 17 18  2  0  0  0  0
 17 16  1  0  0  0  0
 18 19  1  0  0  0  0
 19 23  1  0  0  0  0
 19 20  2  0  0  0  0
 22 16  1  0  0  0  0
M  END
>  <minimizedAffinity>
-4.71069765

$$$$

 OpenBabel03272501313D

 23 25  0  0  0  0  0  0  0  0999 V2000
   38.0770   24.2920   34.6980 C   0  0  0  0  0  3  0  0  0  0  0  0
   38.3850   22.9510   34.6570 C   0  0  0  0  0  0  0  0  0  0  0  0
   38.6030   22.3550   35.9120 C   0  0  0  0  0  0  0  0  0  0  0  0
   38.8590   21.2910   35.9890 H   0  0  0  0  0  0  0  0  0  0  0  0
   38.5200   23.0320   37.0870 C   0  0  0  0  0  0  0  0  0  0  0  0
   38.6800   22.6470   38.3900 N   0  0  0  0  0  0  0  0  0  0  0  0
   38.9210   21.6950   38.7420 H   0  0  0  0  0  0  0  0  0  0  0  0
   38.4680   23.7410   39.1450 C   0  0  0  0  0  0  0  0  0  0  0  0
   38.5160   23.7860   40.2170 H   0  0  0  0  0  0  0  0  0  0  0  0
   38.1670   24.8580   38.3600 C   0  0  0  0  0  3  0  0  0  0  0  0
   38.2100   24.3720   37.0610 C   0  0  0  0  0  0  0  0  0  0  0  0
   37.9820   25.0250   35.8600 C   0  0  0  0  0  3  0  0  0  0  0  0
   38.4550   22.0280   33.5360 C   0  0  0  0  0  0  0  0  0  0  0  0
   39.5900   21.5880   33.1550 O   0  0  0  0  0  0  0  0  0  0  0  0
   35.6460   21.6110   31.0970 C   0  0  0  0  0  0  0  0  0  0  0  0
   36.8470   22.1170   31.6360 C   0  0  0  0  0  0  0  0  0  0  0  0
   37.2150   21.6150   32.8730 C   0  0  0  0  0  0  0  0  0  0  0  0
   36.4050   20.6820   33.4760 N   0  0  0  0  0  0  0  0  0  0  0  0
   35.2770   20.2370   32.9210 C   0  0  0  0  0  0  0  0  0  0  0  0
   34.8820   20.6900   31.7330 N   0  0  0  0  0  0  0  0  0  0  0  0
   35.3250   21.9810   30.1250 H   0  0  0  0  0  0  0  0  0  0  0  0
   37.4350   22.8390   31.1310 H   0  0  0  0  0  0  0  0  0  0  0  0
   34.6870   19.5000   33.4480 H   0  0  0  0  0  0  0  0  0  0  0  0
  1 12  1  0  0  0  0
  2  1  2  0  0  0  0
  2  3  1  0  0  0  0
  3  4  1  0  0  0  0
  3  5  2  0  0  0  0
  5  6  1  0  0  0  0
  6  7  1  0  0  0  0
  6  8  1  0  0  0  0
  8  9  1  0  0  0  0
 10  8  2  0  0  0  0
 11  5  1  0  0  0  0
 11 10  1  0  0  0  0
 12 11  2  0  0  0  0
 13  2  1  0  0  0  0
 14 13  2  0  0  0  0
 15 16  2  0  0  0  0
 15 20  1  0  0  0  0
 16 17  1  0  0  0  0
 17 18  2  0  0  0  0
 17 13  1  0  0  0  0
 19 23  1  0  0  0  0
 19 18  1  0  0  0  0
 20 19  2  0  0  0  0
 21 15  1  0  0  0  0
 22 16  1  0  0  0  0
M  END
>  <minimizedAffinity>
-4.6930933

$$$$

 OpenBabel03272501313D

 23 25  0  0  0  0  0  0  0  0999 V2000
   38.3370   27.2860   32.6130 C   0  0  0  0  0  3  0  0  0  0  0  0
   38.2560   27.1190   33.9780 C   0  0  0  0  0  0  0  0  0  0  0  0
   37.1540   27.7440   34.5860 C   0  0  0  0  0  0  0  0  0  0  0  0
   36.9990   27.6760   35.6700 H   0  0  0  0  0  0  0  0  0  0  0  0
   36.2260   28.4600   33.8990 C   0  0  0  0  0  0  0  0  0  0  0  0
   35.0950   29.1240   34.2890 N   0  0  0  0  0  0  0  0  0  0  0  0
   34.7170   29.2140   35.2570 H   0  0  0  0  0  0  0  0  0  0  0  0
   34.5520   29.6500   33.1750 C   0  0  0  0  0  0  0  0  0  0  0  0
   33.6530   30.2350   33.1270 H   0  0  0  0  0  0  0  0  0  0  0  0
   35.3090   29.3460   32.0400 C   0  0  0  0  0  3  0  0  0  0  0  0
   36.3620   28.5910   32.5370 C   0  0  0  0  0  0  0  0  0  0  0  0
   37.4260   28.0020   31.8700 C   0  0  0  0  0  3  0  0  0  0  0  0
   39.0840   26.3460   34.8890 C   0  0  0  0  0  0  0  0  0  0  0  0
   40.2380   26.7820   35.2110 O   0  0  0  0  0  0  0  0  0  0  0  0
   38.0420   22.7760   35.3150 C   0  0  0  0  0  0  0  0  0  0  0  0
   38.5340   23.9270   34.6660 C   0  0  0  0  0  0  0  0  0  0  0  0
   38.5680   25.0840   35.4260 C   0  0  0  0  0  0  0  0  0  0  0  0
   38.1310   25.0320   36.7280 N   0  0  0  0  0  0  0  0  0  0  0  0
   37.6740   23.9150   37.2940 C   0  0  0  0  0  0  0  0  0  0  0  0
   37.6220   22.7780   36.6030 N   0  0  0  0  0  0  0  0  0  0  0  0
   38.0020   21.8470   34.7500 H   0  0  0  0  0  0  0  0  0  0  0  0
   38.8570   23.9150   33.6560 H   0  0  0  0  0  0  0  0  0  0  0  0
   37.3480   23.9420   38.3240 H   0  0  0  0  0  0  0  0  0  0  0  0
  1  2  1  0  0  0  0
  2  3  2  0  0  0  0
  2 13  1  0  0  0  0
  3  4  1  0  0  0  0
  5  6  1  0  0  0  0
  5  3  1  0  0  0  0
  6  7  1  0  0  0  0
  8  6  1  0  0  0  0
  9  8  1  0  0  0  0
 10 11  1  0  0  0  0
 10  8  2  0  0  0  0
 11  5  2  0  0  0  0
 12 11  1  0  0  0  0
 12  1  2  0  0  0  0
 13 14  2  0  0  0  0
 13 17  1  0  0  0  0
 15 20  1  0  0  0  0
 16 15  2  0  0  0  0
 16 17  1  0  0  0  0
 17 18  2  0  0  0  0
 18 19  1  0  0  0  0
 19 23  1  0  0  0  0
 20 19  2  0  0  0  0
 21 15  1  0  0  0  0
 22 16  1  0  0  0  0
M  END
>  <minimizedAffinity>
-4.67656469

$$$$

 OpenBabel03272501313D

 23 25  0  0  0  0  0  0  0  0999 V2000
   38.7780   26.0540   34.1470 C   0  0  0  0  0  3  0  0  0  0  0  0
   38.0650   24.9080   33.8720 C   0  0  0  0  0  0  0  0  0  0  0  0
   37.2330   24.9860   32.7410 C   0  0  0  0  0  0  0  0  0  0  0  0
   36.6200   24.1280   32.4380 H   0  0  0  0  0  0  0  0  0  0  0  0
   37.1260   26.0950   31.9640 C   0  0  0  0  0  0  0  0  0  0  0  0
   36.4000   26.3690   30.8380 N   0  0  0  0  0  0  0  0  0  0  0  0
   35.7420   25.7320   30.3400 H   0  0  0  0  0  0  0  0  0  0  0  0
   36.6950   27.6350   30.4870 C   0  0  0  0  0  0  0  0  0  0  0  0
   36.2950   28.1650   29.6430 H   0  0  0  0  0  0  0  0  0  0  0  0
   37.6130   28.2140   31.3680 C   0  0  0  0  0  3  0  0  0  0  0  0
   37.8640   27.2090   32.2920 C   0  0  0  0  0  0  0  0  0  0  0  0
   38.7050   27.2040   33.3940 C   0  0  0  0  0  3  0  0  0  0  0  0
   38.0800   23.6060   34.5160 C   0  0  0  0  0  0  0  0  0  0  0  0
   37.8100   22.5630   33.8320 O   0  0  0  0  0  0  0  0  0  0  0  0
   37.9940   23.8160   38.2530 C   0  0  0  0  0  0  0  0  0  0  0  0
   37.5630   23.9920   36.9220 C   0  0  0  0  0  0  0  0  0  0  0  0
   38.4160   23.5170   35.9400 C   0  0  0  0  0  0  0  0  0  0  0  0
   39.5950   22.9200   36.3210 N   0  0  0  0  0  0  0  0  0  0  0  0
   39.9550   22.7780   37.5970 C   0  0  0  0  0  0  0  0  0  0  0  0
   39.1670   23.2200   38.5750 N   0  0  0  0  0  0  0  0  0  0  0  0
   37.3490   24.1750   39.0520 H   0  0  0  0  0  0  0  0  0  0  0  0
   36.6440   24.4630   36.6810 H   0  0  0  0  0  0  0  0  0  0  0  0
   40.8940   22.2970   37.8270 H   0  0  0  0  0  0  0  0  0  0  0  0
  2  1  1  0  0  0  0
  2 13  1  0  0  0  0
  3  2  2  0  0  0  0
  4  3  1  0  0  0  0
  5 11  2  0  0  0  0
  5  3  1  0  0  0  0
  6  5  1  0  0  0  0
  7  6  1  0  0  0  0
  8  6  1  0  0  0  0
  8 10  2  0  0  0  0
  9  8  1  0  0  0  0
 10 11  1  0  0  0  0
 11 12  1  0  0  0  0
 12  1  2  0  0  0  0
 13 17  1  0  0  0  0
 14 13  2  0  0  0  0
 15 20  1  0  0  0  0
 15 21  1  0  0  0  0
 16 15  2  0  0  0  0
 17 18  2  0  0  0  0
 17 16  1  0  0  0  0
 18 19  1  0  0  0  0
 19 23  1  0  0  0  0
 19 20  2  0  0  0  0
 22 16  1  0  0  0  0
M  END
>  <minimizedAffinity>
-4.67221069

$$$$

 OpenBabel03272501313D

 23 25  0  0  0  0  0  0  0  0999 V2000
   35.8570   31.0960   35.0490 C   0  0  0  0  0  3  0  0  0  0  0  0
   35.2980   30.2470   34.1200 C   0  0  0  0  0  0  0  0  0  0  0  0
   33.9470   29.9290   34.3460 C   0  0  0  0  0  0  0  0  0  0  0  0
   33.4090   29.2570   33.6660 H   0  0  0  0  0  0  0  0  0  0  0  0
   33.2290   30.4120   35.3930 C   0  0  0  0  0  0  0  0  0  0  0  0
   31.9280   30.2410   35.7810 N   0  0  0  0  0  0  0  0  0  0  0  0
   31.2010   29.6580   35.3120 H   0  0  0  0  0  0  0  0  0  0  0  0
   31.7580   30.9730   36.8970 C   0  0  0  0  0  0  0  0  0  0  0  0
   30.8490   31.0610   37.4620 H   0  0  0  0  0  0  0  0  0  0  0  0
   32.9340   31.6350   37.2640 C   0  0  0  0  0  3  0  0  0  0  0  0
   33.8450   31.2560   36.2880 C   0  0  0  0  0  0  0  0  0  0  0  0
   35.1750   31.6120   36.1270 C   0  0  0  0  0  3  0  0  0  0  0  0
   35.8510   29.6770   32.9030 C   0  0  0  0  0  0  0  0  0  0  0  0
   35.9890   30.4130   31.8700 O   0  0  0  0  0  0  0  0  0  0  0  0
   37.2180   26.3170   33.8280 C   0  0  0  0  0  0  0  0  0  0  0  0
   36.9240   27.6900   33.9550 C   0  0  0  0  0  0  0  0  0  0  0  0
   36.2480   28.2660   32.8910 C   0  0  0  0  0  0  0  0  0  0  0  0
   35.9200   27.4790   31.8130 N   0  0  0  0  0  0  0  0  0  0  0  0
   36.2240   26.1830   31.7430 C   0  0  0  0  0  0  0  0  0  0  0  0
   36.8720   25.5850   32.7410 N   0  0  0  0  0  0  0  0  0  0  0  0
   37.7470   25.8290   34.6440 H   0  0  0  0  0  0  0  0  0  0  0  0
   37.2020   28.2530   34.8080 H   0  0  0  0  0  0  0  0  0  0  0  0
   35.9340   25.6210   30.8670 H   0  0  0  0  0  0  0  0  0  0  0  0
  1 12  1  0  0  0  0
  2  3  1  0  0  0  0
  2  1  2  0  0  0  0
  3  5  2  0  0  0  0
  4  3  1  0  0  0  0
  5  6  1  0  0  0  0
  5 11  1  0  0  0  0
  6  8  1  0  0  0  0
  7  6  1  0  0  0  0
  8 10  2  0  0  0  0
  8  9  1  0  0  0  0
 11 10  1  0  0  0  0
 12 11  2  0  0  0  0
 13  2  1  0  0  0  0
 14 13  2  0  0  0  0
 15 16  1  0  0  0  0
 15 21  1  0  0  0  0
 16 22  1  0  0  0  0
 17 13  1  0  0  0  0
 17 16  2  0  0  0  0
 18 17  1  0  0  0  0
 19 18  2  0  0  0  0
 19 20  1  0  0  0  0
 20 15  2  0  0  0  0
 23 19  1  0  0  0  0
M  END
>  <minimizedAffinity>
-4.59807158

$$$$
