
 OpenBabel03272503073D

 35 38  0  0  0  0  0  0  0  0999 V2000
   40.1720   23.8150   34.7760 F   0  0  0  0  0  0  0  0  0  0  0  0
   39.5990   23.7280   36.0110 C   0  0  0  0  0  0  0  0  0  0  0  0
   40.2430   23.0810   37.0280 C   0  0  0  0  0  0  0  0  0  0  0  0
   39.6020   23.0390   38.2320 C   0  0  0  0  0  0  0  0  0  0  0  0
   38.3700   23.6090   38.4470 C   0  0  0  0  0  0  0  0  0  0  0  0
   37.7370   24.2590   37.4030 C   0  0  0  0  0  0  0  0  0  0  0  0
   38.3600   24.3200   36.1680 C   0  0  0  0  0  0  0  0  0  0  0  0
   40.0970   22.5290   39.0560 H   0  0  0  0  0  0  0  0  0  0  0  0
   37.8530   23.5830   39.3910 H   0  0  0  0  0  0  0  0  0  0  0  0
   36.7820   24.7340   37.4610 H   0  0  0  0  0  0  0  0  0  0  0  0
   43.9040   22.6570   36.1940 C   0  0  0  0  0  0  0  0  0  0  0  0
   42.6670   23.2500   36.4570 C   0  0  0  0  0  0  0  0  0  0  0  0
   41.5480   22.4930   36.7500 C   0  0  0  0  0  0  0  0  0  0  0  0
   41.7160   21.1280   36.7650 N   0  0  0  0  0  0  0  0  0  0  0  0
   42.9130   20.5700   36.5090 C   0  0  0  0  0  0  0  0  0  0  0  0
   43.9750   21.3050   36.2320 N   0  0  0  0  0  0  0  0  0  0  0  0
   44.7210   23.3390   35.9750 H   0  0  0  0  0  0  0  0  0  0  0  0
   42.5200   24.3210   36.4480 H   0  0  0  0  0  0  0  0  0  0  0  0
   43.0310   19.4920   36.5260 H   0  0  0  0  0  0  0  0  0  0  0  0
   37.9390   26.4000   35.0460 C   0  0  0  0  0  0  0  0  0  0  0  0
   38.6230   26.8520   36.0140 O   0  0  0  0  0  0  0  0  0  0  0  0
   37.7390   24.9850   35.0540 N   0  0  0  0  0  0  0  0  0  0  0  0
   37.1820   24.5760   34.2840 H   0  0  0  0  0  0  0  0  0  0  0  0
   36.4410   28.1770   34.4640 C   0  0  0  0  0  3  0  0  0  0  0  0
   37.4220   27.3100   34.0270 C   0  0  0  0  0  0  0  0  0  0  0  0
   37.8910   27.2790   32.7550 C   0  0  0  0  0  0  0  0  0  0  0  0
   38.6550   26.6020   32.4210 H   0  0  0  0  0  0  0  0  0  0  0  0
   37.3190   28.1970   31.8680 C   0  0  0  0  0  0  0  0  0  0  0  0
   37.6110   28.3660   30.5570 N   0  0  0  0  0  0  0  0  0  0  0  0
   38.2950   27.8640   29.9660 H   0  0  0  0  0  0  0  0  0  0  0  0
   36.8200   29.3660   30.0750 C   0  0  0  0  0  0  0  0  0  0  0  0
   36.7780   29.7730   29.0700 H   0  0  0  0  0  0  0  0  0  0  0  0
   36.0420   29.8090   31.1040 C   0  0  0  0  0  3  0  0  0  0  0  0
   36.3330   29.0860   32.2610 C   0  0  0  0  0  0  0  0  0  0  0  0
   35.8770   29.0880   33.5720 C   0  0  0  0  0  3  0  0  0  0  0  0
  1  2  1  0  0  0  0
  2  7  2  0  0  0  0
  2  3  1  0  0  0  0
  3  4  2  0  0  0  0
  4  5  1  0  0  0  0
  4  8  1  0  0  0  0
  5  9  1  0  0  0  0
  6 10  1  0  0  0  0
  6  5  2  0  0  0  0
  7  6  1  0  0  0  0
 11 16  2  0  0  0  0
 11 12  1  0  0  0  0
 12 13  2  0  0  0  0
 13 14  1  0  0  0  0
 13  3  1  0  0  0  0
 15 19  1  0  0  0  0
 15 14  2  0  0  0  0
 16 15  1  0  0  0  0
 17 11  1  0  0  0  0
 18 12  1  0  0  0  0
 20 22  1  0  0  0  0
 20 21  2  0  0  0  0
 22  7  1  0  0  0  0
 23 22  1  0  0  0  0
 25 24  1  0  0  0  0
 25 20  1  0  0  0  0
 26 25  2  0  0  0  0
 27 26  1  0  0  0  0
 28 34  2  0  0  0  0
 28 26  1  0  0  0  0
 29 28  1  0  0  0  0
 30 29  1  0  0  0  0
 31 29  1  0  0  0  0
 31 33  2  0  0  0  0
 32 31  1  0  0  0  0
 33 34  1  0  0  0  0
 34 35  1  0  0  0  0
 35 24  2  0  0  0  0
M  END
>  <minimizedAffinity>
-6.53726339

$$$$

 OpenBabel03272503073D

 35 38  0  0  0  0  0  0  0  0999 V2000
   36.5070   27.5270   35.2660 F   0  0  0  0  0  0  0  0  0  0  0  0
   36.6440   27.8950   33.9600 C   0  0  0  0  0  0  0  0  0  0  0  0
   36.0500   29.0360   33.4980 C   0  0  0  0  0  0  0  0  0  0  0  0
   36.2360   29.3330   32.1790 C   0  0  0  0  0  0  0  0  0  0  0  0
   36.9770   28.5470   31.3290 C   0  0  0  0  0  0  0  0  0  0  0  0
   37.5690   27.3980   31.8190 C   0  0  0  0  0  0  0  0  0  0  0  0
   37.4010   27.0670   33.1540 C   0  0  0  0  0  0  0  0  0  0  0  0
   35.7710   30.2370   31.7890 H   0  0  0  0  0  0  0  0  0  0  0  0
   37.1300   28.7700   30.2870 H   0  0  0  0  0  0  0  0  0  0  0  0
   38.1630   26.7190   31.2480 H   0  0  0  0  0  0  0  0  0  0  0  0
   35.0650   31.5660   36.1260 C   0  0  0  0  0  0  0  0  0  0  0  0
   35.8350   30.8170   35.2340 C   0  0  0  0  0  0  0  0  0  0  0  0
   35.2740   29.8350   34.4380 C   0  0  0  0  0  0  0  0  0  0  0  0
   33.9200   29.6330   34.5740 N   0  0  0  0  0  0  0  0  0  0  0  0
   33.1900   30.3620   35.4390 C   0  0  0  0  0  0  0  0  0  0  0  0
   33.7390   31.2980   36.1920 N   0  0  0  0  0  0  0  0  0  0  0  0
   35.6000   32.3130   36.7050 H   0  0  0  0  0  0  0  0  0  0  0  0
   36.9000   30.9630   35.1160 H   0  0  0  0  0  0  0  0  0  0  0  0
   32.1230   30.1920   35.5340 H   0  0  0  0  0  0  0  0  0  0  0  0
   39.2660   26.1120   34.3250 C   0  0  0  0  0  0  0  0  0  0  0  0
   39.6710   27.3130   34.2910 O   0  0  0  0  0  0  0  0  0  0  0  0
   37.9980   25.8810   33.7060 N   0  0  0  0  0  0  0  0  0  0  0  0
   37.6340   24.9130   33.7090 H   0  0  0  0  0  0  0  0  0  0  0  0
   41.4380   25.1920   34.7450 C   0  0  0  0  0  3  0  0  0  0  0  0
   40.0800   25.0830   34.9670 C   0  0  0  0  0  0  0  0  0  0  0  0
   39.5130   24.1060   35.7180 C   0  0  0  0  0  0  0  0  0  0  0  0
   38.4550   24.0260   35.8870 H   0  0  0  0  0  0  0  0  0  0  0  0
   40.3940   23.1770   36.2820 C   0  0  0  0  0  0  0  0  0  0  0  0
   40.0820   22.1170   37.0650 N   0  0  0  0  0  0  0  0  0  0  0  0
   39.1570   21.7920   37.3930 H   0  0  0  0  0  0  0  0  0  0  0  0
   41.2410   21.4800   37.3920 C   0  0  0  0  0  0  0  0  0  0  0  0
   41.3790   20.5940   38.0040 H   0  0  0  0  0  0  0  0  0  0  0  0
   42.2660   22.1600   36.8030 C   0  0  0  0  0  3  0  0  0  0  0  0
   41.7630   23.2470   36.0870 C   0  0  0  0  0  0  0  0  0  0  0  0
   42.3070   24.2610   35.3120 C   0  0  0  0  0  3  0  0  0  0  0  0
  2  1  1  0  0  0  0
  3  2  1  0  0  0  0
  3 13  1  0  0  0  0
  4  3  2  0  0  0  0
  5  6  2  0  0  0  0
  5  4  1  0  0  0  0
  6  7  1  0  0  0  0
  7 22  1  0  0  0  0
  7  2  2  0  0  0  0
  8  4  1  0  0  0  0
  9  5  1  0  0  0  0
 10  6  1  0  0  0  0
 11 16  1  0  0  0  0
 11 17  1  0  0  0  0
 12 11  2  0  0  0  0
 13 14  2  0  0  0  0
 13 12  1  0  0  0  0
 14 15  1  0  0  0  0
 15 19  1  0  0  0  0
 15 16  2  0  0  0  0
 18 12  1  0  0  0  0
 20 25  1  0  0  0  0
 21 20  2  0  0  0  0
 22 23  1  0  0  0  0
 22 20  1  0  0  0  0
 24 25  2  0  0  0  0
 24 35  1  0  0  0  0
 25 26  1  0  0  0  0
 26 27  1  0  0  0  0
 26 28  2  0  0  0  0
 28 29  1  0  0  0  0
 29 31  1  0  0  0  0
 29 30  1  0  0  0  0
 31 32  1  0  0  0  0
 33 31  2  0  0  0  0
 34 28  1  0  0  0  0
 34 33  1  0  0  0  0
 35 34  2  0  0  0  0
M  END
>  <minimizedAffinity>
-6.22544146

$$$$

 OpenBabel03272503073D

 35 38  0  0  0  0  0  0  0  0999 V2000
   37.7790   27.1750   31.5650 F   0  0  0  0  0  0  0  0  0  0  0  0
   37.0360   28.0500   32.3010 C   0  0  0  0  0  0  0  0  0  0  0  0
   36.6710   29.2590   31.7770 C   0  0  0  0  0  0  0  0  0  0  0  0
   35.9290   30.0760   32.5790 C   0  0  0  0  0  0  0  0  0  0  0  0
   35.5480   29.7340   33.8540 C   0  0  0  0  0  0  0  0  0  0  0  0
   35.9280   28.5060   34.3630 C   0  0  0  0  0  0  0  0  0  0  0  0
   36.6820   27.6520   33.5760 C   0  0  0  0  0  0  0  0  0  0  0  0
   35.6270   31.0440   32.1810 H   0  0  0  0  0  0  0  0  0  0  0  0
   34.9640   30.3690   34.4960 H   0  0  0  0  0  0  0  0  0  0  0  0
   35.6880   28.1420   35.3380 H   0  0  0  0  0  0  0  0  0  0  0  0
   38.0130   28.9620   28.2570 C   0  0  0  0  0  0  0  0  0  0  0  0
   37.6090   28.6280   29.5520 C   0  0  0  0  0  0  0  0  0  0  0  0
   37.1000   29.5760   30.4200 C   0  0  0  0  0  0  0  0  0  0  0  0
   37.0130   30.8620   29.9430 N   0  0  0  0  0  0  0  0  0  0  0  0
   37.4060   31.1710   28.6930 C   0  0  0  0  0  0  0  0  0  0  0  0
   37.8900   30.2550   27.8730 N   0  0  0  0  0  0  0  0  0  0  0  0
   38.3990   28.1450   27.6530 H   0  0  0  0  0  0  0  0  0  0  0  0
   37.6720   27.6210   29.9400 H   0  0  0  0  0  0  0  0  0  0  0  0
   37.3310   32.1900   28.3310 H   0  0  0  0  0  0  0  0  0  0  0  0
   38.1540   26.4320   35.0290 C   0  0  0  0  0  0  0  0  0  0  0  0
   38.5600   27.6020   35.3020 O   0  0  0  0  0  0  0  0  0  0  0  0
   37.1010   26.3650   34.0650 N   0  0  0  0  0  0  0  0  0  0  0  0
   36.7440   25.4280   33.8110 H   0  0  0  0  0  0  0  0  0  0  0  0
   38.1030   24.8460   36.8230 C   0  0  0  0  0  3  0  0  0  0  0  0
   38.7570   25.2760   35.6860 C   0  0  0  0  0  0  0  0  0  0  0  0
   39.8770   24.6920   35.1920 C   0  0  0  0  0  0  0  0  0  0  0  0
   40.3820   25.0320   34.3070 H   0  0  0  0  0  0  0  0  0  0  0  0
   40.3620   23.5930   35.9080 C   0  0  0  0  0  0  0  0  0  0  0  0
   41.4540   22.8430   35.6250 N   0  0  0  0  0  0  0  0  0  0  0  0
   42.1270   22.9310   34.8450 H   0  0  0  0  0  0  0  0  0  0  0  0
   41.5590   21.8760   36.5800 C   0  0  0  0  0  0  0  0  0  0  0  0
   42.3090   21.0970   36.6760 H   0  0  0  0  0  0  0  0  0  0  0  0
   40.5230   22.0400   37.4500 C   0  0  0  0  0  3  0  0  0  0  0  0
   39.7400   23.1250   37.0530 C   0  0  0  0  0  0  0  0  0  0  0  0
   38.5950   23.7490   37.5300 C   0  0  0  0  0  3  0  0  0  0  0  0
  1  2  1  0  0  0  0
  2  7  1  0  0  0  0
  3  2  2  0  0  0  0
  3  4  1  0  0  0  0
  4  5  2  0  0  0  0
  5  6  1  0  0  0  0
  5  9  1  0  0  0  0
  6 10  1  0  0  0  0
  7 22  1  0  0  0  0
  7  6  2  0  0  0  0
  8  4  1  0  0  0  0
 11 12  1  0  0  0  0
 12 18  1  0  0  0  0
 12 13  2  0  0  0  0
 13  3  1  0  0  0  0
 14 13  1  0  0  0  0
 15 14  2  0  0  0  0
 16 11  2  0  0  0  0
 16 15  1  0  0  0  0
 17 11  1  0  0  0  0
 19 15  1  0  0  0  0
 20 21  2  0  0  0  0
 20 25  1  0  0  0  0
 22 20  1  0  0  0  0
 23 22  1  0  0  0  0
 24 35  1  0  0  0  0
 25 24  2  0  0  0  0
 26 25  1  0  0  0  0
 26 28  2  0  0  0  0
 27 26  1  0  0  0  0
 28 34  1  0  0  0  0
 29 28  1  0  0  0  0
 29 31  1  0  0  0  0
 30 29  1  0  0  0  0
 31 32  1  0  0  0  0
 31 33  2  0  0  0  0
 34 33  1  0  0  0  0
 34 35  2  0  0  0  0
M  END
>  <minimizedAffinity>
-6.16593742

$$$$

 OpenBabel03272503073D

 35 38  0  0  0  0  0  0  0  0999 V2000
   36.1060   27.9550   34.0260 F   0  0  0  0  0  0  0  0  0  0  0  0
   36.2020   28.7690   32.9360 C   0  0  0  0  0  0  0  0  0  0  0  0
   35.7250   30.0490   32.9840 C   0  0  0  0  0  0  0  0  0  0  0  0
   35.8600   30.7970   31.8500 C   0  0  0  0  0  0  0  0  0  0  0  0
   36.4410   30.3190   30.7000 C   0  0  0  0  0  0  0  0  0  0  0  0
   36.9170   29.0210   30.6750 C   0  0  0  0  0  0  0  0  0  0  0  0
   36.7960   28.2350   31.8080 C   0  0  0  0  0  0  0  0  0  0  0  0
   35.4870   31.8190   31.8660 H   0  0  0  0  0  0  0  0  0  0  0  0
   36.5530   30.8980   29.8000 H   0  0  0  0  0  0  0  0  0  0  0  0
   37.3840   28.5520   29.8370 H   0  0  0  0  0  0  0  0  0  0  0  0
   35.1990   31.6570   36.3630 C   0  0  0  0  0  0  0  0  0  0  0  0
   35.8090   31.2310   35.1810 C   0  0  0  0  0  0  0  0  0  0  0  0
   35.1170   30.5080   34.2270 C   0  0  0  0  0  0  0  0  0  0  0  0
   33.7990   30.2290   34.5040 N   0  0  0  0  0  0  0  0  0  0  0  0
   33.2240   30.6450   35.6470 C   0  0  0  0  0  0  0  0  0  0  0  0
   33.8970   31.3360   36.5500 N   0  0  0  0  0  0  0  0  0  0  0  0
   35.8280   32.2180   37.0470 H   0  0  0  0  0  0  0  0  0  0  0  0
   36.8440   31.4420   34.9500 H   0  0  0  0  0  0  0  0  0  0  0  0
   32.1840   30.4180   35.8510 H   0  0  0  0  0  0  0  0  0  0  0  0
   36.3280   25.9270   31.3380 C   0  0  0  0  0  0  0  0  0  0  0  0
   35.2170   26.4150   30.9700 O   0  0  0  0  0  0  0  0  0  0  0  0
   37.2760   26.8790   31.8270 N   0  0  0  0  0  0  0  0  0  0  0  0
   38.1940   26.5210   32.1420 H   0  0  0  0  0  0  0  0  0  0  0  0
   37.8510   24.1310   30.9020 C   0  0  0  0  0  3  0  0  0  0  0  0
   36.5630   24.4890   31.2440 C   0  0  0  0  0  0  0  0  0  0  0  0
   35.5680   23.5980   31.4800 C   0  0  0  0  0  0  0  0  0  0  0  0
   34.5670   23.8830   31.7450 H   0  0  0  0  0  0  0  0  0  0  0  0
   35.9130   22.2480   31.3580 C   0  0  0  0  0  0  0  0  0  0  0  0
   35.1090   21.1740   31.5410 N   0  0  0  0  0  0  0  0  0  0  0  0
   34.1090   21.1380   31.7990 H   0  0  0  0  0  0  0  0  0  0  0  0
   35.8510   20.0510   31.3220 C   0  0  0  0  0  0  0  0  0  0  0  0
   35.5410   19.0120   31.3780 H   0  0  0  0  0  0  0  0  0  0  0  0
   37.1160   20.4480   31.0050 C   0  0  0  0  0  3  0  0  0  0  0  0
   37.1920   21.8410   31.0180 C   0  0  0  0  0  0  0  0  0  0  0  0
   38.1850   22.7820   30.7830 C   0  0  0  0  0  3  0  0  0  0  0  0
  2  3  1  0  0  0  0
  2  1  1  0  0  0  0
  3 13  1  0  0  0  0
  4  8  1  0  0  0  0
  4  3  2  0  0  0  0
  5  4  1  0  0  0  0
  6  5  2  0  0  0  0
  6  7  1  0  0  0  0
  7 22  1  0  0  0  0
  7  2  2  0  0  0  0
  9  5  1  0  0  0  0
 10  6  1  0  0  0  0
 11 16  1  0  0  0  0
 11 17  1  0  0  0  0
 12 11  2  0  0  0  0
 13 14  2  0  0  0  0
 13 12  1  0  0  0  0
 14 15  1  0  0  0  0
 15 19  1  0  0  0  0
 15 16  2  0  0  0  0
 18 12  1  0  0  0  0
 20 22  1  0  0  0  0
 21 20  2  0  0  0  0
 22 23  1  0  0  0  0
 24 25  1  0  0  0  0
 25 20  1  0  0  0  0
 25 26  2  0  0  0  0
 26 27  1  0  0  0  0
 28 26  1  0  0  0  0
 28 29  1  0  0  0  0
 29 30  1  0  0  0  0
 31 32  1  0  0  0  0
 31 29  1  0  0  0  0
 33 34  1  0  0  0  0
 33 31  2  0  0  0  0
 34 28  2  0  0  0  0
 35 24  2  0  0  0  0
 35 34  1  0  0  0  0
M  END
>  <minimizedAffinity>
-6.00272036

$$$$

 OpenBabel03272503073D

 35 38  0  0  0  0  0  0  0  0999 V2000
   35.9350   28.3160   34.6600 F   0  0  0  0  0  0  0  0  0  0  0  0
   36.3150   28.3970   33.3530 C   0  0  0  0  0  0  0  0  0  0  0  0
   35.5310   29.0520   32.4440 C   0  0  0  0  0  0  0  0  0  0  0  0
   35.9840   29.0870   31.1570 C   0  0  0  0  0  0  0  0  0  0  0  0
   37.1630   28.5050   30.7580 C   0  0  0  0  0  0  0  0  0  0  0  0
   37.9400   27.8480   31.6960 C   0  0  0  0  0  0  0  0  0  0  0  0
   37.5110   27.7940   33.0110 C   0  0  0  0  0  0  0  0  0  0  0  0
   35.3750   29.6030   30.4160 H   0  0  0  0  0  0  0  0  0  0  0  0
   37.5300   28.5250   29.7470 H   0  0  0  0  0  0  0  0  0  0  0  0
   38.8700   27.3640   31.4940 H   0  0  0  0  0  0  0  0  0  0  0  0
   33.0310   31.4400   33.9670 C   0  0  0  0  0  0  0  0  0  0  0  0
   34.2370   30.8920   33.5250 C   0  0  0  0  0  0  0  0  0  0  0  0
   34.2890   29.6510   32.9160 C   0  0  0  0  0  0  0  0  0  0  0  0
   33.0940   28.9870   32.7710 N   0  0  0  0  0  0  0  0  0  0  0  0
   31.9400   29.5270   33.2020 C   0  0  0  0  0  0  0  0  0  0  0  0
   31.9030   30.7140   33.7820 N   0  0  0  0  0  0  0  0  0  0  0  0
   33.0970   32.4200   34.4320 H   0  0  0  0  0  0  0  0  0  0  0  0
   35.1840   31.4020   33.6320 H   0  0  0  0  0  0  0  0  0  0  0  0
   31.0050   28.9910   33.0800 H   0  0  0  0  0  0  0  0  0  0  0  0
   38.0020   25.7240   34.1250 C   0  0  0  0  0  0  0  0  0  0  0  0
   37.1150   25.2940   33.3280 O   0  0  0  0  0  0  0  0  0  0  0  0
   38.2860   27.1210   34.0190 N   0  0  0  0  0  0  0  0  0  0  0  0
   39.0010   27.5140   34.6550 H   0  0  0  0  0  0  0  0  0  0  0  0
   37.9380   24.5550   36.2150 C   0  0  0  0  0  3  0  0  0  0  0  0
   38.6510   24.8100   35.0610 C   0  0  0  0  0  0  0  0  0  0  0  0
   39.8640   24.2700   34.7880 C   0  0  0  0  0  0  0  0  0  0  0  0
   40.4150   24.4730   33.8880 H   0  0  0  0  0  0  0  0  0  0  0  0
   40.3860   23.4100   35.7600 C   0  0  0  0  0  0  0  0  0  0  0  0
   41.5670   22.7500   35.7260 N   0  0  0  0  0  0  0  0  0  0  0  0
   42.2990   22.7500   34.9960 H   0  0  0  0  0  0  0  0  0  0  0  0
   41.6770   22.0240   36.8740 C   0  0  0  0  0  0  0  0  0  0  0  0
   42.4870   21.3750   37.1920 H   0  0  0  0  0  0  0  0  0  0  0  0
   40.5510   22.2450   37.6110 C   0  0  0  0  0  3  0  0  0  0  0  0
   39.7060   23.1240   36.9320 C   0  0  0  0  0  0  0  0  0  0  0  0
   38.4660   23.6960   37.1780 C   0  0  0  0  0  3  0  0  0  0  0  0
  2  1  1  0  0  0  0
  3 13  1  0  0  0  0
  3  2  2  0  0  0  0
  4  3  1  0  0  0  0
  5  4  2  0  0  0  0
  5  6  1  0  0  0  0
  6  7  2  0  0  0  0
  7  2  1  0  0  0  0
  7 22  1  0  0  0  0
  8  4  1  0  0  0  0
  9  5  1  0  0  0  0
 10  6  1  0  0  0  0
 11 17  1  0  0  0  0
 12 18  1  0  0  0  0
 12 11  2  0  0  0  0
 13 12  1  0  0  0  0
 14 13  2  0  0  0  0
 14 15  1  0  0  0  0
 15 16  2  0  0  0  0
 16 11  1  0  0  0  0
 19 15  1  0  0  0  0
 20 25  1  0  0  0  0
 21 20  2  0  0  0  0
 22 20  1  0  0  0  0
 22 23  1  0  0  0  0
 24 35  1  0  0  0  0
 25 24  2  0  0  0  0
 26 25  1  0  0  0  0
 26 28  2  0  0  0  0
 27 26  1  0  0  0  0
 28 34  1  0  0  0  0
 29 28  1  0  0  0  0
 29 31  1  0  0  0  0
 30 29  1  0  0  0  0
 31 32  1  0  0  0  0
 31 33  2  0  0  0  0
 34 35  2  0  0  0  0
 34 33  1  0  0  0  0
M  END
>  <minimizedAffinity>
-5.77424288

$$$$

 OpenBabel03272503073D

 35 38  0  0  0  0  0  0  0  0999 V2000
   35.5540   23.5780   31.7030 F   0  0  0  0  0  0  0  0  0  0  0  0
   36.8000   23.3920   31.1790 C   0  0  0  0  0  0  0  0  0  0  0  0
   37.3810   22.1550   31.2040 C   0  0  0  0  0  0  0  0  0  0  0  0
   38.6290   22.0540   30.6600 C   0  0  0  0  0  0  0  0  0  0  0  0
   39.2960   23.1200   30.1050 C   0  0  0  0  0  0  0  0  0  0  0  0
   38.6870   24.3610   30.0910 C   0  0  0  0  0  0  0  0  0  0  0  0
   37.4210   24.4990   30.6350 C   0  0  0  0  0  0  0  0  0  0  0  0
   39.1120   21.0780   30.6690 H   0  0  0  0  0  0  0  0  0  0  0  0
   40.2790   23.0530   29.6740 H   0  0  0  0  0  0  0  0  0  0  0  0
   39.1140   25.2530   29.6870 H   0  0  0  0  0  0  0  0  0  0  0  0
   35.4970   18.9160   31.6880 C   0  0  0  0  0  0  0  0  0  0  0  0
   36.2130   19.9530   31.0850 C   0  0  0  0  0  0  0  0  0  0  0  0
   36.6340   21.0570   31.8040 C   0  0  0  0  0  0  0  0  0  0  0  0
   36.3090   21.0810   33.1400 N   0  0  0  0  0  0  0  0  0  0  0  0
   35.6180   20.0750   33.7070 C   0  0  0  0  0  0  0  0  0  0  0  0
   35.2230   19.0250   33.0090 N   0  0  0  0  0  0  0  0  0  0  0  0
   35.2130   18.0940   31.0370 H   0  0  0  0  0  0  0  0  0  0  0  0
   36.4750   19.9480   30.0360 H   0  0  0  0  0  0  0  0  0  0  0  0
   35.3700   20.1070   34.7620 H   0  0  0  0  0  0  0  0  0  0  0  0
   37.0130   26.5530   31.8100 C   0  0  0  0  0  0  0  0  0  0  0  0
   37.7860   26.0110   32.6570 O   0  0  0  0  0  0  0  0  0  0  0  0
   36.7500   25.7720   30.6420 N   0  0  0  0  0  0  0  0  0  0  0  0
   36.1200   26.1760   29.9280 H   0  0  0  0  0  0  0  0  0  0  0  0
   36.3290   28.2090   33.4000 C   0  0  0  0  0  3  0  0  0  0  0  0
   36.4640   27.8820   32.0660 C   0  0  0  0  0  0  0  0  0  0  0  0
   36.1230   28.7080   31.0470 C   0  0  0  0  0  0  0  0  0  0  0  0
   36.2300   28.4480   30.0100 H   0  0  0  0  0  0  0  0  0  0  0  0
   35.6070   29.9550   31.4150 C   0  0  0  0  0  0  0  0  0  0  0  0
   35.1950   30.9500   30.5940 N   0  0  0  0  0  0  0  0  0  0  0  0
   35.1800   30.9860   29.5610 H   0  0  0  0  0  0  0  0  0  0  0  0
   34.7670   31.9860   31.3700 C   0  0  0  0  0  0  0  0  0  0  0  0
   34.3690   32.9470   31.0600 H   0  0  0  0  0  0  0  0  0  0  0  0
   34.9210   31.6160   32.6740 C   0  0  0  0  0  3  0  0  0  0  0  0
   35.4530   30.3280   32.7390 C   0  0  0  0  0  0  0  0  0  0  0  0
   35.8140   29.4550   33.7570 C   0  0  0  0  0  3  0  0  0  0  0  0
  2  3  1  0  0  0  0
  2  1  1  0  0  0  0
  3 13  1  0  0  0  0
  4  8  1  0  0  0  0
  4  3  2  0  0  0  0
  5  4  1  0  0  0  0
  6  5  2  0  0  0  0
  6  7  1  0  0  0  0
  7 22  1  0  0  0  0
  7  2  2  0  0  0  0
  9  5  1  0  0  0  0
 10  6  1  0  0  0  0
 11 16  1  0  0  0  0
 12 11  2  0  0  0  0
 12 13  1  0  0  0  0
 13 14  2  0  0  0  0
 14 15  1  0  0  0  0
 15 19  1  0  0  0  0
 16 15  2  0  0  0  0
 17 11  1  0  0  0  0
 18 12  1  0  0  0  0
 20 25  1  0  0  0  0
 20 21  2  0  0  0  0
 22 20  1  0  0  0  0
 23 22  1  0  0  0  0
 24 35  1  0  0  0  0
 25 24  2  0  0  0  0
 26 28  2  0  0  0  0
 26 25  1  0  0  0  0
 27 26  1  0  0  0  0
 28 34  1  0  0  0  0
 29 31  1  0  0  0  0
 29 28  1  0  0  0  0
 30 29  1  0  0  0  0
 31 33  2  0  0  0  0
 32 31  1  0  0  0  0
 33 34  1  0  0  0  0
 34 35  2  0  0  0  0
M  END
>  <minimizedAffinity>
-5.76707363

$$$$

 OpenBabel03272503073D

 35 38  0  0  0  0  0  0  0  0999 V2000
   34.6070   28.9930   33.9650 F   0  0  0  0  0  0  0  0  0  0  0  0
   35.2610   29.7900   33.0720 C   0  0  0  0  0  0  0  0  0  0  0  0
   35.4250   31.1230   33.3250 C   0  0  0  0  0  0  0  0  0  0  0  0
   36.0900   31.8490   32.3810 C   0  0  0  0  0  0  0  0  0  0  0  0
   36.5850   31.3010   31.2210 C   0  0  0  0  0  0  0  0  0  0  0  0
   36.4070   29.9490   30.9870 C   0  0  0  0  0  0  0  0  0  0  0  0
   35.7360   29.1830   31.9250 C   0  0  0  0  0  0  0  0  0  0  0  0
   36.2320   32.9130   32.5620 H   0  0  0  0  0  0  0  0  0  0  0  0
   37.1100   31.8620   30.4690 H   0  0  0  0  0  0  0  0  0  0  0  0
   36.7490   29.4240   30.1230 H   0  0  0  0  0  0  0  0  0  0  0  0
   35.0230   32.1420   36.9420 C   0  0  0  0  0  0  0  0  0  0  0  0
   35.5710   31.6220   35.7660 C   0  0  0  0  0  0  0  0  0  0  0  0
   34.8810   31.6570   34.5680 C   0  0  0  0  0  0  0  0  0  0  0  0
   33.6300   32.2270   34.5950 N   0  0  0  0  0  0  0  0  0  0  0  0
   33.1150   32.7230   35.7350 C   0  0  0  0  0  0  0  0  0  0  0  0
   33.7840   32.6850   36.8730 N   0  0  0  0  0  0  0  0  0  0  0  0
   35.6440   32.0670   37.8290 H   0  0  0  0  0  0  0  0  0  0  0  0
   36.5520   31.1710   35.7300 H   0  0  0  0  0  0  0  0  0  0  0  0
   32.1270   33.1710   35.7400 H   0  0  0  0  0  0  0  0  0  0  0  0
   36.5800   26.9580   32.2440 C   0  0  0  0  0  0  0  0  0  0  0  0
   37.5290   27.5910   32.7970 O   0  0  0  0  0  0  0  0  0  0  0  0
   35.5280   27.7740   31.7220 N   0  0  0  0  0  0  0  0  0  0  0  0
   34.7370   27.2960   31.2590 H   0  0  0  0  0  0  0  0  0  0  0  0
   35.6610   24.9320   31.3560 C   0  0  0  0  0  3  0  0  0  0  0  0
   36.6140   25.4990   32.1780 C   0  0  0  0  0  0  0  0  0  0  0  0
   37.5250   24.7850   32.8840 C   0  0  0  0  0  0  0  0  0  0  0  0
   38.2630   25.2330   33.5230 H   0  0  0  0  0  0  0  0  0  0  0  0
   37.4590   23.3950   32.7410 C   0  0  0  0  0  0  0  0  0  0  0  0
   38.2490   22.4690   33.3330 N   0  0  0  0  0  0  0  0  0  0  0  0
   39.0350   22.6000   33.9910 H   0  0  0  0  0  0  0  0  0  0  0  0
   37.8390   21.2380   32.9160 C   0  0  0  0  0  0  0  0  0  0  0  0
   38.2380   20.2640   33.1820 H   0  0  0  0  0  0  0  0  0  0  0  0
   36.7920   21.4190   32.0620 C   0  0  0  0  0  3  0  0  0  0  0  0
   36.5220   22.7810   31.9270 C   0  0  0  0  0  0  0  0  0  0  0  0
   35.6040   23.5450   31.2190 C   0  0  0  0  0  3  0  0  0  0  0  0
  2  3  1  0  0  0  0
  2  1  1  0  0  0  0
  3 13  1  0  0  0  0
  4  8  1  0  0  0  0
  4  3  2  0  0  0  0
  5  4  1  0  0  0  0
  6  5  2  0  0  0  0
  6  7  1  0  0  0  0
  7  2  2  0  0  0  0
  9  5  1  0  0  0  0
 10  6  1  0  0  0  0
 11 17  1  0  0  0  0
 12 11  2  0  0  0  0
 13 14  2  0  0  0  0
 13 12  1  0  0  0  0
 14 15  1  0  0  0  0
 15 19  1  0  0  0  0
 15 16  2  0  0  0  0
 16 11  1  0  0  0  0
 18 12  1  0  0  0  0
 20 21  2  0  0  0  0
 22  7  1  0  0  0  0
 22 20  1  0  0  0  0
 23 22  1  0  0  0  0
 24 25  1  0  0  0  0
 25 20  1  0  0  0  0
 25 26  2  0  0  0  0
 26 27  1  0  0  0  0
 28 26  1  0  0  0  0
 28 29  1  0  0  0  0
 29 30  1  0  0  0  0
 31 32  1  0  0  0  0
 31 29  1  0  0  0  0
 33 31  2  0  0  0  0
 34 33  1  0  0  0  0
 34 28  2  0  0  0  0
 35 24  2  0  0  0  0
 35 34  1  0  0  0  0
M  END
>  <minimizedAffinity>
-5.72664165

$$$$

 OpenBabel03272503073D

 35 38  0  0  0  0  0  0  0  0999 V2000
   38.8400   25.4180   34.3010 F   0  0  0  0  0  0  0  0  0  0  0  0
   38.3220   24.2930   33.7300 C   0  0  0  0  0  0  0  0  0  0  0  0
   38.1030   23.1740   34.4840 C   0  0  0  0  0  0  0  0  0  0  0  0
   37.5830   22.0910   33.8360 C   0  0  0  0  0  0  0  0  0  0  0  0
   37.2810   22.0900   32.4950 C   0  0  0  0  0  0  0  0  0  0  0  0
   37.5110   23.2340   31.7530 C   0  0  0  0  0  0  0  0  0  0  0  0
   38.0380   24.3520   32.3790 C   0  0  0  0  0  0  0  0  0  0  0  0
   37.4010   21.1880   34.4170 H   0  0  0  0  0  0  0  0  0  0  0  0
   36.8710   21.2430   31.9730 H   0  0  0  0  0  0  0  0  0  0  0  0
   37.3130   23.3410   30.7090 H   0  0  0  0  0  0  0  0  0  0  0  0
   39.9060   22.7610   37.7790 C   0  0  0  0  0  0  0  0  0  0  0  0
   39.6110   22.6970   36.4150 C   0  0  0  0  0  0  0  0  0  0  0  0
   38.4400   23.2240   35.9010 C   0  0  0  0  0  0  0  0  0  0  0  0
   37.5830   23.8110   36.8020 N   0  0  0  0  0  0  0  0  0  0  0  0
   37.8790   23.8640   38.1130 C   0  0  0  0  0  0  0  0  0  0  0  0
   39.0020   23.3580   38.5910 N   0  0  0  0  0  0  0  0  0  0  0  0
   40.8500   22.3180   38.0820 H   0  0  0  0  0  0  0  0  0  0  0  0
   40.2750   22.2390   35.6950 H   0  0  0  0  0  0  0  0  0  0  0  0
   37.1930   24.3310   38.8120 H   0  0  0  0  0  0  0  0  0  0  0  0
   37.1650   26.4370   31.5710 C   0  0  0  0  0  0  0  0  0  0  0  0
   36.1190   26.0160   32.1510 O   0  0  0  0  0  0  0  0  0  0  0  0
   38.2930   25.5630   31.6460 N   0  0  0  0  0  0  0  0  0  0  0  0
   39.1660   25.8670   31.1810 H   0  0  0  0  0  0  0  0  0  0  0  0
   36.5970   28.7640   31.6180 C   0  0  0  0  0  3  0  0  0  0  0  0
   37.1560   27.7300   30.8930 C   0  0  0  0  0  0  0  0  0  0  0  0
   37.6650   27.8720   29.6440 C   0  0  0  0  0  0  0  0  0  0  0  0
   38.0970   27.0640   29.0850 H   0  0  0  0  0  0  0  0  0  0  0  0
   37.5990   29.1590   29.0980 C   0  0  0  0  0  0  0  0  0  0  0  0
   38.0350   29.5580   27.8800 N   0  0  0  0  0  0  0  0  0  0  0  0
   38.4890   29.0080   27.1310 H   0  0  0  0  0  0  0  0  0  0  0  0
   37.7750   30.8900   27.7570 C   0  0  0  0  0  0  0  0  0  0  0  0
   37.9850   31.5480   26.9180 H   0  0  0  0  0  0  0  0  0  0  0  0
   37.1780   31.3030   28.9110 C   0  0  0  0  0  3  0  0  0  0  0  0
   37.0490   30.2250   29.7880 C   0  0  0  0  0  0  0  0  0  0  0  0
   36.5370   30.0420   31.0650 C   0  0  0  0  0  3  0  0  0  0  0  0
  2  1  1  0  0  0  0
  2  3  1  0  0  0  0
  3 13  1  0  0  0  0
  4  8  1  0  0  0  0
  4  3  2  0  0  0  0
  5  4  1  0  0  0  0
  6  7  1  0  0  0  0
  6  5  2  0  0  0  0
  7  2  2  0  0  0  0
  9  5  1  0  0  0  0
 10  6  1  0  0  0  0
 11 17  1  0  0  0  0
 11 16  1  0  0  0  0
 12 11  2  0  0  0  0
 13 12  1  0  0  0  0
 13 14  2  0  0  0  0
 14 15  1  0  0  0  0
 15 16  2  0  0  0  0
 15 19  1  0  0  0  0
 18 12  1  0  0  0  0
 20 22  1  0  0  0  0
 20 21  2  0  0  0  0
 22  7  1  0  0  0  0
 23 22  1  0  0  0  0
 25 20  1  0  0  0  0
 25 24  2  0  0  0  0
 26 25  1  0  0  0  0
 27 26  1  0  0  0  0
 28 26  2  0  0  0  0
 28 34  1  0  0  0  0
 29 28  1  0  0  0  0
 30 29  1  0  0  0  0
 31 29  1  0  0  0  0
 31 33  2  0  0  0  0
 32 31  1  0  0  0  0
 33 34  1  0  0  0  0
 34 35  2  0  0  0  0
 35 24  1  0  0  0  0
M  END
>  <minimizedAffinity>
-5.69138575

$$$$

 OpenBabel03272503073D

 35 38  0  0  0  0  0  0  0  0999 V2000
   35.6120   28.6930   33.4700 F   0  0  0  0  0  0  0  0  0  0  0  0
   36.1830   28.6170   32.2340 C   0  0  0  0  0  0  0  0  0  0  0  0
   36.0530   29.6500   31.3480 C   0  0  0  0  0  0  0  0  0  0  0  0
   36.6550   29.4950   30.1330 C   0  0  0  0  0  0  0  0  0  0  0  0
   37.3640   28.3720   29.7830 C   0  0  0  0  0  0  0  0  0  0  0  0
   37.4830   27.3400   30.6960 C   0  0  0  0  0  0  0  0  0  0  0  0
   36.8850   27.4640   31.9390 C   0  0  0  0  0  0  0  0  0  0  0  0
   36.5640   30.3060   29.4110 H   0  0  0  0  0  0  0  0  0  0  0  0
   37.8430   28.2370   28.8290 H   0  0  0  0  0  0  0  0  0  0  0  0
   38.0090   26.4260   30.5280 H   0  0  0  0  0  0  0  0  0  0  0  0
   35.1090   33.0170   32.7800 C   0  0  0  0  0  0  0  0  0  0  0  0
   35.8670   31.9100   32.3910 C   0  0  0  0  0  0  0  0  0  0  0  0
   35.2900   30.8210   31.7650 C   0  0  0  0  0  0  0  0  0  0  0  0
   33.9330   30.8830   31.5490 N   0  0  0  0  0  0  0  0  0  0  0  0
   33.2150   31.9550   31.9300 C   0  0  0  0  0  0  0  0  0  0  0  0
   33.7790   32.9910   32.5260 N   0  0  0  0  0  0  0  0  0  0  0  0
   35.6560   33.8210   33.2640 H   0  0  0  0  0  0  0  0  0  0  0  0
   36.9330   31.8470   32.5550 H   0  0  0  0  0  0  0  0  0  0  0  0
   32.1460   31.9910   31.7510 H   0  0  0  0  0  0  0  0  0  0  0  0
   38.2090   26.4280   33.6530 C   0  0  0  0  0  0  0  0  0  0  0  0
   39.0200   27.3470   33.3290 O   0  0  0  0  0  0  0  0  0  0  0  0
   36.9820   26.4160   32.9190 N   0  0  0  0  0  0  0  0  0  0  0  0
   36.2940   25.6780   33.1490 H   0  0  0  0  0  0  0  0  0  0  0  0
   39.5300   24.5610   34.3650 C   0  0  0  0  0  3  0  0  0  0  0  0
   38.5590   25.4800   34.7070 C   0  0  0  0  0  0  0  0  0  0  0  0
   37.9560   25.5250   35.9200 C   0  0  0  0  0  0  0  0  0  0  0  0
   37.2000   26.2420   36.1810 H   0  0  0  0  0  0  0  0  0  0  0  0
   38.3730   24.5650   36.8490 C   0  0  0  0  0  0  0  0  0  0  0  0
   37.9300   24.4010   38.1180 N   0  0  0  0  0  0  0  0  0  0  0  0
   37.2150   24.9360   38.6390 H   0  0  0  0  0  0  0  0  0  0  0  0
   38.6050   23.3510   38.6660 C   0  0  0  0  0  0  0  0  0  0  0  0
   38.5120   22.9320   39.6630 H   0  0  0  0  0  0  0  0  0  0  0  0
   39.4650   22.8750   37.7220 C   0  0  0  0  0  3  0  0  0  0  0  0
   39.3440   23.6250   36.5510 C   0  0  0  0  0  0  0  0  0  0  0  0
   39.9400   23.6090   35.2970 C   0  0  0  0  0  3  0  0  0  0  0  0
  2  1  1  0  0  0  0
  3 13  1  0  0  0  0
  3  2  2  0  0  0  0
  4  3  1  0  0  0  0
  5  4  2  0  0  0  0
  5  6  1  0  0  0  0
  6  7  2  0  0  0  0
  7  2  1  0  0  0  0
  7 22  1  0  0  0  0
  8  4  1  0  0  0  0
  9  5  1  0  0  0  0
 10  6  1  0  0  0  0
 11 17  1  0  0  0  0
 12 18  1  0  0  0  0
 12 11  2  0  0  0  0
 13 12  1  0  0  0  0
 14 13  2  0  0  0  0
 14 15  1  0  0  0  0
 15 16  2  0  0  0  0
 16 11  1  0  0  0  0
 19 15  1  0  0  0  0
 20 25  1  0  0  0  0
 21 20  2  0  0  0  0
 22 23  1  0  0  0  0
 22 20  1  0  0  0  0
 24 25  2  0  0  0  0
 24 35  1  0  0  0  0
 25 26  1  0  0  0  0
 26 27  1  0  0  0  0
 26 28  2  0  0  0  0
 28 29  1  0  0  0  0
 29 30  1  0  0  0  0
 29 31  1  0  0  0  0
 31 32  1  0  0  0  0
 33 31  2  0  0  0  0
 34 28  1  0  0  0  0
 34 33  1  0  0  0  0
 35 34  2  0  0  0  0
M  END
>  <minimizedAffinity>
-5.66621923

$$$$
