
 OpenBabel03272501293D

 23 25  0  0  0  0  0  0  0  0999 V2000
   37.2810   30.9630   45.9280 C   0  0  0  0  0  0  0  0  0  0  0  0
   38.3430   31.2250   46.7640 C   0  0  0  0  0  0  0  0  0  0  0  0
   39.6100   31.1030   46.1680 C   0  0  0  0  0  0  0  0  0  0  0  0
   40.5230   31.2860   46.7490 H   0  0  0  0  0  0  0  0  0  0  0  0
   39.7950   30.7570   44.8670 C   0  0  0  0  0  0  0  0  0  0  0  0
   40.9180   30.5970   44.1030 N   0  0  0  0  0  0  0  0  0  0  0  0
   41.9100   30.7130   44.4050 H   0  0  0  0  0  0  0  0  0  0  0  0
   40.5010   30.2550   42.8690 C   0  0  0  0  0  0  0  0  0  0  0  0
   41.1320   30.0550   42.0230 H   0  0  0  0  0  0  0  0  0  0  0  0
   39.1070   30.1830   42.7980 C   0  0  0  0  0  0  0  0  0  0  0  0
   38.6930   30.5070   44.0830 C   0  0  0  0  0  0  0  0  0  0  0  0
   37.4130   30.6080   44.6050 C   0  0  0  0  0  0  0  0  0  0  0  0
   38.3730   31.6740   48.1460 C   0  0  0  0  0  0  0  0  0  0  0  0
   38.9110   32.7960   48.4310 O   0  0  0  0  0  0  0  0  0  0  0  0
   37.3870   30.1580   51.4240 C   0  0  0  0  0  0  0  0  0  0  0  0
   38.0550   31.0180   50.5280 C   0  0  0  0  0  0  0  0  0  0  0  0
   37.7750   30.8310   49.1850 C   0  0  0  0  0  0  0  0  0  0  0  0
   36.8870   29.8440   48.8260 N   0  0  0  0  0  0  0  0  0  0  0  0
   36.2830   29.0560   49.7150 C   0  0  0  0  0  0  0  0  0  0  0  0
   36.5210   29.1990   51.0180 N   0  0  0  0  0  0  0  0  0  0  0  0
   37.5810   30.2760   52.4880 H   0  0  0  0  0  0  0  0  0  0  0  0
   38.7330   31.7630   50.8560 H   0  0  0  0  0  0  0  0  0  0  0  0
   35.5940   28.3010   49.3660 H   0  0  0  0  0  0  0  0  0  0  0  0
  1  2  1  0  0  0  0
  2 13  1  0  0  0  0
  3  4  1  0  0  0  0
  3  2  2  0  0  0  0
  5  3  1  0  0  0  0
  6  7  1  0  0  0  0
  6  5  1  0  0  0  0
  8  6  1  0  0  0  0
  9  8  1  0  0  0  0
 10  8  2  0  0  0  0
 10 11  1  0  0  0  0
 11 12  1  0  0  0  0
 11  5  2  0  0  0  0
 12  1  2  0  0  0  0
 13 14  2  0  0  0  0
 13 17  1  0  0  0  0
 15 21  1  0  0  0  0
 16 22  1  0  0  0  0
 16 15  2  0  0  0  0
 17 16  1  0  0  0  0
 18 17  2  0  0  0  0
 18 19  1  0  0  0  0
 19 20  2  0  0  0  0
 20 15  1  0  0  0  0
 23 19  1  0  0  0  0
M  END
>  <minimizedAffinity>
-5.81736088

>  <minimizedRMSD>
1.22126007

$$$$
