
 OpenBabel03272508563D

 41 45  0  0  1  0  0  0  0  0999 V2000
   37.0430   26.9950   32.9100 C   0  0  0  0  0  0  0  0  0  0  0  0
   37.4260   27.4180   31.6670 C   0  0  0  0  0  0  0  0  0  0  0  0
   37.0480   28.6930   31.2760 C   0  0  0  0  0  0  0  0  0  0  0  0
   36.3170   29.4560   32.1520 C   0  0  0  0  0  0  0  0  0  0  0  0
   35.9280   29.0340   33.4110 C   0  0  0  0  0  0  0  0  0  0  0  0
   36.3240   27.7880   33.7340 N   0  0  0  0  0  0  0  0  0  0  0  0
   38.0010   26.8030   30.9900 H   0  0  0  0  0  0  0  0  0  0  0  0
   37.3350   29.0580   30.2950 H   0  0  0  0  0  0  0  0  0  0  0  0
   36.0250   30.4510   31.8440 H   0  0  0  0  0  0  0  0  0  0  0  0
   33.8240   29.5160   34.4640 C   0  0  0  0  0  3  0  0  0  0  0  0
   35.1620   29.8080   34.3530 C   0  0  0  0  0  0  0  0  0  0  0  0
   35.7140   30.8020   35.1200 C   0  0  0  0  0  0  0  0  0  0  0  0
   36.7450   31.0520   35.0580 H   0  0  0  0  0  0  0  0  0  0  0  0
   34.9640   31.5470   36.0300 C   0  0  0  0  0  0  0  0  0  0  0  0
   35.2700   32.5350   36.8620 N   0  0  0  0  0  0  0  0  0  0  0  0
   36.2170   32.9770   37.0030 H   0  0  0  0  0  0  0  0  0  0  0  0
   34.1770   32.9440   37.5560 C   0  0  0  0  0  0  0  0  0  0  0  0
   34.0430   33.7100   38.3090 H   0  0  0  0  0  0  0  0  0  0  0  0
   33.1330   32.1310   37.0990 C   0  0  0  0  0  3  0  0  0  0  0  0
   33.6170   31.2510   36.1390 C   0  0  0  0  0  0  0  0  0  0  0  0
   33.0820   30.2640   35.3730 C   0  0  0  0  0  3  0  0  0  0  0  0
   37.4350   25.6440   33.3480 C   0  0  0  0  0  0  0  0  0  0  0  0
   37.4730   24.6780   32.5430 O   0  0  0  0  0  0  0  0  0  0  0  0
   37.7790   25.4480   34.7380 N   0  0  0  0  0  0  0  0  0  0  0  0
   37.5950   26.1460   35.4740 H   0  0  0  0  0  0  0  0  0  0  0  0
   39.1700   24.1350   36.3240 C   0  0  2  0  0  0  0  0  0  0  0  0
   37.8170   23.5550   36.3720 C   0  0  0  0  0  0  0  0  0  0  0  0
   38.4190   24.1960   35.0940 C   0  0  1  0  0  0  0  0  0  0  0  0
   39.3080   25.0340   36.9570 H   0  0  0  0  0  0  0  0  0  0  0  0
   37.0220   24.0970   36.8910 H   0  0  0  0  0  0  0  0  0  0  0  0
   37.6960   22.4660   36.3970 H   0  0  0  0  0  0  0  0  0  0  0  0
   38.5660   23.4480   34.2840 H   0  0  0  0  0  0  0  0  0  0  0  0
   41.5150   21.4450   37.3520 C   0  0  0  0  0  0  0  0  0  0  0  0
   42.6120   21.6470   36.4550 C   0  0  0  0  0  0  0  0  0  0  0  0
   42.5080   22.7340   35.5080 C   0  0  0  0  0  0  0  0  0  0  0  0
   41.3940   23.5030   35.5090 N   0  0  0  0  0  0  0  0  0  0  0  0
   40.3880   23.2600   36.3870 C   0  0  0  0  0  0  0  0  0  0  0  0
   40.4240   22.2400   37.3160 N   0  0  0  0  0  0  0  0  0  0  0  0
   41.6210   20.6260   38.0480 H   0  0  0  0  0  0  0  0  0  0  0  0
   43.4810   21.0410   36.4590 H   0  0  0  0  0  0  0  0  0  0  0  0
   43.3330   22.8920   34.8280 H   0  0  0  0  0  0  0  0  0  0  0  0
  1 22  1  0  0  0  0
  1  6  1  0  0  0  0
  2  1  2  0  0  0  0
  3  2  1  0  0  0  0
  3  4  2  0  0  0  0
  4  5  1  0  0  0  0
  5  6  2  0  0  0  0
  5 11  1  0  0  0  0
  7  2  1  0  0  0  0
  8  3  1  0  0  0  0
  9  4  1  0  0  0  0
 10 21  1  0  0  0  0
 11 10  2  0  0  0  0
 11 12  1  0  0  0  0
 12 14  2  0  0  0  0
 13 12  1  0  0  0  0
 14 20  1  0  0  0  0
 14 15  1  0  0  0  0
 15 16  1  0  0  0  0
 15 17  1  0  0  0  0
 17 18  1  0  0  0  0
 19 17  2  0  0  0  0
 20 19  1  0  0  0  0
 21 20  2  0  0  0  0
 22 24  1  0  0  0  0
 23 22  2  0  0  0  0
 24 28  1  0  0  0  0
 24 25  1  0  0  0  0
 26 27  1  0  0  0  0
 26 37  1  0  0  0  0
 26 29  1  1  0  0  0
 27 31  1  0  0  0  0
 27 30  1  0  0  0  0
 28 32  1  6  0  0  0
 28 26  1  0  0  0  0
 28 27  1  0  0  0  0
 33 39  1  0  0  0  0
 34 40  1  0  0  0  0
 34 33  2  0  0  0  0
 35 36  2  0  0  0  0
 35 34  1  0  0  0  0
 36 37  1  0  0  0  0
 37 38  2  0  0  0  0
 38 33  1  0  0  0  0
 41 35  1  0  0  0  0
M  END
>  <minimizedAffinity>
-6.44533825

$$$$

 OpenBabel03272508563D

 41 45  0  0  1  0  0  0  0  0999 V2000
   36.9610   27.1110   32.9930 C   0  0  0  0  0  0  0  0  0  0  0  0
   37.2730   27.5000   31.7200 C   0  0  0  0  0  0  0  0  0  0  0  0
   36.9100   28.7800   31.3310 C   0  0  0  0  0  0  0  0  0  0  0  0
   36.2610   29.5800   32.2390 C   0  0  0  0  0  0  0  0  0  0  0  0
   35.9430   29.1910   33.5290 C   0  0  0  0  0  0  0  0  0  0  0  0
   36.3220   27.9380   33.8470 N   0  0  0  0  0  0  0  0  0  0  0  0
   37.7840   26.8570   31.0190 H   0  0  0  0  0  0  0  0  0  0  0  0
   37.1420   29.1200   30.3270 H   0  0  0  0  0  0  0  0  0  0  0  0
   35.9790   30.5780   31.9330 H   0  0  0  0  0  0  0  0  0  0  0  0
   36.0450   30.8050   35.3030 C   0  0  0  0  0  3  0  0  0  0  0  0
   35.2650   30.0040   34.5040 C   0  0  0  0  0  0  0  0  0  0  0  0
   33.9030   30.0040   34.6530 C   0  0  0  0  0  0  0  0  0  0  0  0
   33.2720   29.3970   34.0500 H   0  0  0  0  0  0  0  0  0  0  0  0
   33.2540   30.7960   35.6010 C   0  0  0  0  0  0  0  0  0  0  0  0
   31.9770   30.9610   35.9240 N   0  0  0  0  0  0  0  0  0  0  0  0
   31.1440   30.4830   35.4860 H   0  0  0  0  0  0  0  0  0  0  0  0
   31.8420   31.8580   36.9330 C   0  0  0  0  0  0  0  0  0  0  0  0
   30.9690   32.2390   37.4500 H   0  0  0  0  0  0  0  0  0  0  0  0
   33.1470   32.2620   37.2360 C   0  0  0  0  0  3  0  0  0  0  0  0
   34.0420   31.6000   36.4050 C   0  0  0  0  0  0  0  0  0  0  0  0
   35.3920   31.5920   36.2480 C   0  0  0  0  0  3  0  0  0  0  0  0
   37.3400   25.7550   33.4290 C   0  0  0  0  0  0  0  0  0  0  0  0
   37.3160   24.7790   32.6350 O   0  0  0  0  0  0  0  0  0  0  0  0
   37.7430   25.5660   34.8040 N   0  0  0  0  0  0  0  0  0  0  0  0
   37.6100   26.2770   35.5390 H   0  0  0  0  0  0  0  0  0  0  0  0
   39.1290   24.2220   36.3680 C   0  0  2  0  0  0  0  0  0  0  0  0
   37.7690   23.6610   36.4250 C   0  0  0  0  0  0  0  0  0  0  0  0
   38.3680   24.3030   35.1460 C   0  0  1  0  0  0  0  0  0  0  0  0
   39.2850   25.1150   37.0060 H   0  0  0  0  0  0  0  0  0  0  0  0
   36.9860   24.2110   36.9540 H   0  0  0  0  0  0  0  0  0  0  0  0
   37.6320   22.5740   36.4420 H   0  0  0  0  0  0  0  0  0  0  0  0
   38.4980   23.5590   34.3290 H   0  0  0  0  0  0  0  0  0  0  0  0
   41.4400   21.4860   37.3500 C   0  0  0  0  0  0  0  0  0  0  0  0
   42.5370   21.6860   36.4520 C   0  0  0  0  0  0  0  0  0  0  0  0
   42.4450   22.7870   35.5210 C   0  0  0  0  0  0  0  0  0  0  0  0
   41.3410   23.5720   35.5370 N   0  0  0  0  0  0  0  0  0  0  0  0
   40.3350   23.3290   36.4140 C   0  0  0  0  0  0  0  0  0  0  0  0
   40.3600   22.2960   37.3280 N   0  0  0  0  0  0  0  0  0  0  0  0
   41.5370   20.6550   38.0340 H   0  0  0  0  0  0  0  0  0  0  0  0
   43.3970   21.0680   36.4440 H   0  0  0  0  0  0  0  0  0  0  0  0
   43.2700   22.9440   34.8410 H   0  0  0  0  0  0  0  0  0  0  0  0
  1 22  1  0  0  0  0
  1  6  1  0  0  0  0
  2  1  2  0  0  0  0
  3  2  1  0  0  0  0
  3  4  2  0  0  0  0
  4  5  1  0  0  0  0
  5  6  2  0  0  0  0
  5 11  1  0  0  0  0
  7  2  1  0  0  0  0
  8  3  1  0  0  0  0
  9  4  1  0  0  0  0
 10 21  1  0  0  0  0
 11 12  1  0  0  0  0
 11 10  2  0  0  0  0
 12 14  2  0  0  0  0
 13 12  1  0  0  0  0
 14 15  1  0  0  0  0
 14 20  1  0  0  0  0
 15 17  1  0  0  0  0
 16 15  1  0  0  0  0
 17 19  2  0  0  0  0
 17 18  1  0  0  0  0
 20 19  1  0  0  0  0
 21 20  2  0  0  0  0
 22 24  1  0  0  0  0
 23 22  2  0  0  0  0
 24 28  1  0  0  0  0
 24 25  1  0  0  0  0
 26 37  1  0  0  0  0
 26 27  1  0  0  0  0
 26 29  1  1  0  0  0
 27 31  1  0  0  0  0
 27 30  1  0  0  0  0
 28 32  1  6  0  0  0
 28 26  1  0  0  0  0
 28 27  1  0  0  0  0
 33 39  1  0  0  0  0
 34 33  2  0  0  0  0
 35 36  2  0  0  0  0
 35 34  1  0  0  0  0
 36 37  1  0  0  0  0
 37 38  2  0  0  0  0
 38 33  1  0  0  0  0
 40 34  1  0  0  0  0
 41 35  1  0  0  0  0
M  END
>  <minimizedAffinity>
-6.41952372

$$$$

 OpenBabel03272508563D

 41 45  0  0  1  0  0  0  0  0999 V2000
   36.8020   27.5110   32.4050 C   0  0  0  0  0  0  0  0  0  0  0  0
   37.0530   28.0300   31.1650 C   0  0  0  0  0  0  0  0  0  0  0  0
   36.6680   29.3400   30.9260 C   0  0  0  0  0  0  0  0  0  0  0  0
   36.0600   30.0380   31.9390 C   0  0  0  0  0  0  0  0  0  0  0  0
   35.8030   29.5180   33.1960 C   0  0  0  0  0  0  0  0  0  0  0  0
   36.2000   28.2430   33.3680 N   0  0  0  0  0  0  0  0  0  0  0  0
   37.5330   27.4650   30.3800 H   0  0  0  0  0  0  0  0  0  0  0  0
   36.8520   29.7810   29.9520 H   0  0  0  0  0  0  0  0  0  0  0  0
   35.7600   31.0600   31.7490 H   0  0  0  0  0  0  0  0  0  0  0  0
   35.9900   30.8170   35.2060 C   0  0  0  0  0  3  0  0  0  0  0  0
   35.1690   30.2230   34.2790 C   0  0  0  0  0  0  0  0  0  0  0  0
   33.8070   30.3150   34.4080 C   0  0  0  0  0  0  0  0  0  0  0  0
   33.1450   29.8670   33.7080 H   0  0  0  0  0  0  0  0  0  0  0  0
   33.2010   31.0010   35.4610 C   0  0  0  0  0  0  0  0  0  0  0  0
   31.9340   31.2220   35.7890 N   0  0  0  0  0  0  0  0  0  0  0  0
   31.0760   30.8920   35.2700 H   0  0  0  0  0  0  0  0  0  0  0  0
   31.8450   31.9570   36.9260 C   0  0  0  0  0  0  0  0  0  0  0  0
   30.9940   32.3260   37.4850 H   0  0  0  0  0  0  0  0  0  0  0  0
   33.1710   32.1950   37.3070 C   0  0  0  0  0  3  0  0  0  0  0  0
   34.0300   31.5980   36.3930 C   0  0  0  0  0  0  0  0  0  0  0  0
   35.3790   31.5000   36.2550 C   0  0  0  0  0  3  0  0  0  0  0  0
   37.2050   26.1210   32.6840 C   0  0  0  0  0  0  0  0  0  0  0  0
   37.3460   25.7020   33.8610 O   0  0  0  0  0  0  0  0  0  0  0  0
   37.4390   25.2390   31.5620 N   0  0  0  0  0  0  0  0  0  0  0  0
   37.5180   25.5660   30.5880 H   0  0  0  0  0  0  0  0  0  0  0  0
   36.7960   22.8930   31.0540 C   0  0  2  0  0  0  0  0  0  0  0  0
   38.2150   23.0300   30.6830 C   0  0  0  0  0  0  0  0  0  0  0  0
   37.5640   23.8220   31.8470 C   0  0  1  0  0  0  0  0  0  0  0  0
   36.0840   23.2490   30.2840 H   0  0  0  0  0  0  0  0  0  0  0  0
   38.4790   23.5790   29.7740 H   0  0  0  0  0  0  0  0  0  0  0  0
   38.9200   22.2290   30.9330 H   0  0  0  0  0  0  0  0  0  0  0  0
   37.9880   23.5340   32.8340 H   0  0  0  0  0  0  0  0  0  0  0  0
   35.6180   19.4000   31.5010 C   0  0  0  0  0  0  0  0  0  0  0  0
   35.3870   19.3420   32.9130 C   0  0  0  0  0  0  0  0  0  0  0  0
   35.6440   20.5390   33.6810 C   0  0  0  0  0  0  0  0  0  0  0  0
   36.0870   21.6480   33.0420 N   0  0  0  0  0  0  0  0  0  0  0  0
   36.2850   21.6380   31.7000 C   0  0  0  0  0  0  0  0  0  0  0  0
   36.0590   20.5310   30.9090 N   0  0  0  0  0  0  0  0  0  0  0  0
   35.4160   18.4910   30.9540 H   0  0  0  0  0  0  0  0  0  0  0  0
   35.0410   18.4710   33.4070 H   0  0  0  0  0  0  0  0  0  0  0  0
   35.4710   20.5030   34.7470 H   0  0  0  0  0  0  0  0  0  0  0  0
  1 22  1  0  0  0  0
  1  6  1  0  0  0  0
  2  1  2  0  0  0  0
  3  2  1  0  0  0  0
  3  4  2  0  0  0  0
  4  5  1  0  0  0  0
  5  6  2  0  0  0  0
  5 11  1  0  0  0  0
  7  2  1  0  0  0  0
  8  3  1  0  0  0  0
  9  4  1  0  0  0  0
 10 21  1  0  0  0  0
 11 12  1  0  0  0  0
 11 10  2  0  0  0  0
 12 14  2  0  0  0  0
 13 12  1  0  0  0  0
 14 15  1  0  0  0  0
 14 20  1  0  0  0  0
 15 17  1  0  0  0  0
 16 15  1  0  0  0  0
 17 19  2  0  0  0  0
 17 18  1  0  0  0  0
 20 19  1  0  0  0  0
 21 20  2  0  0  0  0
 22 23  2  0  0  0  0
 24 28  1  0  0  0  0
 24 22  1  0  0  0  0
 25 24  1  0  0  0  0
 26 29  1  6  0  0  0
 26 37  1  0  0  0  0
 26 28  1  0  0  0  0
 27 31  1  0  0  0  0
 27 26  1  0  0  0  0
 27 28  1  0  0  0  0
 28 32  1  1  0  0  0
 30 27  1  0  0  0  0
 33 34  1  0  0  0  0
 34 40  1  0  0  0  0
 34 35  2  0  0  0  0
 35 41  1  0  0  0  0
 36 35  1  0  0  0  0
 37 36  2  0  0  0  0
 38 33  2  0  0  0  0
 38 37  1  0  0  0  0
 39 33  1  0  0  0  0
M  END
>  <minimizedAffinity>
-6.32225752

$$$$

 OpenBabel03272508563D

 41 45  0  0  1  0  0  0  0  0999 V2000
   36.7580   27.6570   31.9580 C   0  0  0  0  0  0  0  0  0  0  0  0
   36.9120   28.2260   30.7230 C   0  0  0  0  0  0  0  0  0  0  0  0
   36.4190   29.5090   30.5410 C   0  0  0  0  0  0  0  0  0  0  0  0
   35.8080   30.1320   31.6000 C   0  0  0  0  0  0  0  0  0  0  0  0
   35.6500   29.5610   32.8510 C   0  0  0  0  0  0  0  0  0  0  0  0
   36.1490   28.3160   32.9670 N   0  0  0  0  0  0  0  0  0  0  0  0
   37.3950   27.7200   29.9010 H   0  0  0  0  0  0  0  0  0  0  0  0
   36.5240   29.9890   29.5730 H   0  0  0  0  0  0  0  0  0  0  0  0
   35.4250   31.1330   31.4540 H   0  0  0  0  0  0  0  0  0  0  0  0
   33.8110   29.6680   34.3910 C   0  0  0  0  0  3  0  0  0  0  0  0
   35.0160   30.1870   33.9820 C   0  0  0  0  0  0  0  0  0  0  0  0
   35.5630   31.2560   34.6430 C   0  0  0  0  0  0  0  0  0  0  0  0
   36.4930   31.6800   34.3520 H   0  0  0  0  0  0  0  0  0  0  0  0
   34.9410   31.8560   35.7380 C   0  0  0  0  0  0  0  0  0  0  0  0
   35.2700   32.8770   36.5200 N   0  0  0  0  0  0  0  0  0  0  0  0
   36.1370   33.4740   36.4540 H   0  0  0  0  0  0  0  0  0  0  0  0
   34.3240   33.0870   37.4700 C   0  0  0  0  0  0  0  0  0  0  0  0
   34.2500   33.8150   38.2690 H   0  0  0  0  0  0  0  0  0  0  0  0
   33.3500   32.1100   37.2340 C   0  0  0  0  0  3  0  0  0  0  0  0
   33.7280   31.3320   36.1470 C   0  0  0  0  0  0  0  0  0  0  0  0
   33.1950   30.2720   35.4840 C   0  0  0  0  0  3  0  0  0  0  0  0
   37.2760   26.2950   32.1760 C   0  0  0  0  0  0  0  0  0  0  0  0
   38.1770   26.0640   33.0240 O   0  0  0  0  0  0  0  0  0  0  0  0
   36.7220   25.2180   31.3870 N   0  0  0  0  0  0  0  0  0  0  0  0
   36.1230   25.3660   30.5620 H   0  0  0  0  0  0  0  0  0  0  0  0
   36.5220   22.7700   31.0130 C   0  0  2  0  0  0  0  0  0  0  0  0
   37.9330   23.1170   30.7750 C   0  0  0  0  0  0  0  0  0  0  0  0
   37.0380   23.8630   31.7990 C   0  0  1  0  0  0  0  0  0  0  0  0
   35.8520   22.9510   30.1490 H   0  0  0  0  0  0  0  0  0  0  0  0
   38.2060   23.6420   29.8550 H   0  0  0  0  0  0  0  0  0  0  0  0
   38.7240   22.4620   31.1580 H   0  0  0  0  0  0  0  0  0  0  0  0
   37.3900   23.7140   32.8440 H   0  0  0  0  0  0  0  0  0  0  0  0
   35.5660   20.3690   33.6800 C   0  0  0  0  0  0  0  0  0  0  0  0
   35.4260   19.1480   32.9450 C   0  0  0  0  0  0  0  0  0  0  0  0
   35.6790   19.1920   31.5230 C   0  0  0  0  0  0  0  0  0  0  0  0
   36.0310   20.3690   30.9540 N   0  0  0  0  0  0  0  0  0  0  0  0
   36.1470   21.4920   31.7060 C   0  0  0  0  0  0  0  0  0  0  0  0
   35.9210   21.5180   33.0670 N   0  0  0  0  0  0  0  0  0  0  0  0
   35.3710   20.3050   34.7400 H   0  0  0  0  0  0  0  0  0  0  0  0
   35.1500   18.2300   33.3970 H   0  0  0  0  0  0  0  0  0  0  0  0
   35.5760   18.2730   30.9630 H   0  0  0  0  0  0  0  0  0  0  0  0
  1 22  1  0  0  0  0
  1  6  1  0  0  0  0
  2  1  2  0  0  0  0
  3  2  1  0  0  0  0
  3  4  2  0  0  0  0
  4  5  1  0  0  0  0
  5  6  2  0  0  0  0
  5 11  1  0  0  0  0
  7  2  1  0  0  0  0
  8  3  1  0  0  0  0
  9  4  1  0  0  0  0
 10 21  1  0  0  0  0
 11 10  2  0  0  0  0
 11 12  1  0  0  0  0
 12 14  2  0  0  0  0
 13 12  1  0  0  0  0
 14 20  1  0  0  0  0
 14 15  1  0  0  0  0
 15 17  1  0  0  0  0
 16 15  1  0  0  0  0
 17 18  1  0  0  0  0
 19 17  2  0  0  0  0
 20 19  1  0  0  0  0
 21 20  2  0  0  0  0
 22 23  2  0  0  0  0
 24 28  1  0  0  0  0
 24 22  1  0  0  0  0
 25 24  1  0  0  0  0
 26 29  1  6  0  0  0
 26 37  1  0  0  0  0
 26 28  1  0  0  0  0
 27 26  1  0  0  0  0
 27 31  1  0  0  0  0
 27 28  1  0  0  0  0
 28 32  1  1  0  0  0
 30 27  1  0  0  0  0
 33 39  1  0  0  0  0
 34 40  1  0  0  0  0
 34 33  2  0  0  0  0
 35 34  1  0  0  0  0
 36 35  2  0  0  0  0
 36 37  1  0  0  0  0
 37 38  2  0  0  0  0
 38 33  1  0  0  0  0
 41 35  1  0  0  0  0
M  END
>  <minimizedAffinity>
-6.2764802

$$$$

 OpenBabel03272508563D

 41 45  0  0  1  0  0  0  0  0999 V2000
   37.4360   27.5280   34.0800 C   0  0  0  0  0  0  0  0  0  0  0  0
   37.2810   27.2160   32.7570 C   0  0  0  0  0  0  0  0  0  0  0  0
   36.2910   27.8810   32.0510 C   0  0  0  0  0  0  0  0  0  0  0  0
   35.5260   28.8090   32.7130 C   0  0  0  0  0  0  0  0  0  0  0  0
   35.6790   29.1290   34.0510 C   0  0  0  0  0  0  0  0  0  0  0  0
   36.6560   28.4500   34.6830 N   0  0  0  0  0  0  0  0  0  0  0  0
   37.8920   26.4820   32.2530 H   0  0  0  0  0  0  0  0  0  0  0  0
   36.1420   27.6560   31.0000 H   0  0  0  0  0  0  0  0  0  0  0  0
   34.7550   29.3260   32.1590 H   0  0  0  0  0  0  0  0  0  0  0  0
   33.5510   30.1480   34.4940 C   0  0  0  0  0  3  0  0  0  0  0  0
   34.8950   30.0960   34.7740 C   0  0  0  0  0  0  0  0  0  0  0  0
   35.4350   30.9420   35.7070 C   0  0  0  0  0  0  0  0  0  0  0  0
   36.4710   30.9260   35.9470 H   0  0  0  0  0  0  0  0  0  0  0  0
   34.6670   31.8760   36.4030 C   0  0  0  0  0  0  0  0  0  0  0  0
   34.9600   32.7800   37.3300 N   0  0  0  0  0  0  0  0  0  0  0  0
   35.9080   32.9770   37.7490 H   0  0  0  0  0  0  0  0  0  0  0  0
   33.8520   33.4670   37.7070 C   0  0  0  0  0  0  0  0  0  0  0  0
   33.7050   34.2640   38.4260 H   0  0  0  0  0  0  0  0  0  0  0  0
   32.8120   32.9270   36.9420 C   0  0  0  0  0  3  0  0  0  0  0  0
   33.3140   31.9270   36.1190 C   0  0  0  0  0  0  0  0  0  0  0  0
   32.7900   31.0830   35.1910 C   0  0  0  0  0  3  0  0  0  0  0  0
   38.4840   26.8350   34.8510 C   0  0  0  0  0  0  0  0  0  0  0  0
   38.2370   26.3050   35.9650 O   0  0  0  0  0  0  0  0  0  0  0  0
   39.8170   26.7770   34.2940 N   0  0  0  0  0  0  0  0  0  0  0  0
   40.1210   27.3390   33.4860 H   0  0  0  0  0  0  0  0  0  0  0  0
   40.7670   24.4900   34.4980 C   0  0  2  0  0  0  0  0  0  0  0  0
   41.8300   25.3380   33.9320 C   0  0  0  0  0  0  0  0  0  0  0  0
   40.7590   25.8690   34.9200 C   0  0  1  0  0  0  0  0  0  0  0  0
   40.0360   24.1140   33.7560 H   0  0  0  0  0  0  0  0  0  0  0  0
   41.7630   25.6520   32.8870 H   0  0  0  0  0  0  0  0  0  0  0  0
   42.8590   25.2290   34.2940 H   0  0  0  0  0  0  0  0  0  0  0  0
   41.2060   26.1840   35.8890 H   0  0  0  0  0  0  0  0  0  0  0  0
   42.5490   21.7760   36.3010 C   0  0  0  0  0  0  0  0  0  0  0  0
   41.6590   21.5070   37.3890 C   0  0  0  0  0  0  0  0  0  0  0  0
   40.4420   22.2820   37.4630 C   0  0  0  0  0  0  0  0  0  0  0  0
   40.1990   23.2180   36.5150 N   0  0  0  0  0  0  0  0  0  0  0  0
   41.0840   23.4240   35.5070 C   0  0  0  0  0  0  0  0  0  0  0  0
   42.2630   22.7190   35.3780 N   0  0  0  0  0  0  0  0  0  0  0  0
   43.4500   21.1810   36.2710 H   0  0  0  0  0  0  0  0  0  0  0  0
   41.8550   20.7740   38.1280 H   0  0  0  0  0  0  0  0  0  0  0  0
   39.7650   22.0840   38.2820 H   0  0  0  0  0  0  0  0  0  0  0  0
  1  6  1  0  0  0  0
  1 22  1  0  0  0  0
  2  1  2  0  0  0  0
  3  4  2  0  0  0  0
  3  2  1  0  0  0  0
  4  5  1  0  0  0  0
  5  6  2  0  0  0  0
  5 11  1  0  0  0  0
  7  2  1  0  0  0  0
  8  3  1  0  0  0  0
  9  4  1  0  0  0  0
 10 11  2  0  0  0  0
 10 21  1  0  0  0  0
 11 12  1  0  0  0  0
 12 13  1  0  0  0  0
 12 14  2  0  0  0  0
 14 15  1  0  0  0  0
 15 17  1  0  0  0  0
 15 16  1  0  0  0  0
 17 18  1  0  0  0  0
 19 17  2  0  0  0  0
 20 14  1  0  0  0  0
 20 19  1  0  0  0  0
 21 20  2  0  0  0  0
 22 23  2  0  0  0  0
 24 22  1  0  0  0  0
 24 28  1  0  0  0  0
 25 24  1  0  0  0  0
 26 29  1  6  0  0  0
 26 28  1  0  0  0  0
 26 37  1  0  0  0  0
 27 31  1  0  0  0  0
 27 26  1  0  0  0  0
 27 28  1  0  0  0  0
 28 32  1  1  0  0  0
 30 27  1  0  0  0  0
 33 34  1  0  0  0  0
 34 35  2  0  0  0  0
 34 40  1  0  0  0  0
 35 41  1  0  0  0  0
 36 35  1  0  0  0  0
 37 36  2  0  0  0  0
 38 37  1  0  0  0  0
 38 33  2  0  0  0  0
 39 33  1  0  0  0  0
M  END
>  <minimizedAffinity>
-6.0496912

$$$$

 OpenBabel03272508563D

 41 45  0  0  1  0  0  0  0  0999 V2000
   36.5240   28.2580   33.0340 C   0  0  0  0  0  0  0  0  0  0  0  0
   36.7810   28.1400   31.6960 C   0  0  0  0  0  0  0  0  0  0  0  0
   37.5750   27.0810   31.2850 C   0  0  0  0  0  0  0  0  0  0  0  0
   38.0560   26.2160   32.2360 C   0  0  0  0  0  0  0  0  0  0  0  0
   37.7980   26.3310   33.5910 C   0  0  0  0  0  0  0  0  0  0  0  0
   37.0220   27.3780   33.9290 N   0  0  0  0  0  0  0  0  0  0  0  0
   36.3950   28.8310   30.9620 H   0  0  0  0  0  0  0  0  0  0  0  0
   37.7990   26.9600   30.2300 H   0  0  0  0  0  0  0  0  0  0  0  0
   38.6750   25.3910   31.9120 H   0  0  0  0  0  0  0  0  0  0  0  0
   39.3220   24.6050   34.2740 C   0  0  0  0  0  3  0  0  0  0  0  0
   38.2860   25.4420   34.6130 C   0  0  0  0  0  0  0  0  0  0  0  0
   37.7610   25.4060   35.8790 C   0  0  0  0  0  0  0  0  0  0  0  0
   36.9610   26.0400   36.1730 H   0  0  0  0  0  0  0  0  0  0  0  0
   38.2410   24.5410   36.8630 C   0  0  0  0  0  0  0  0  0  0  0  0
   37.9010   24.3300   38.1290 N   0  0  0  0  0  0  0  0  0  0  0  0
   37.1410   24.8200   38.6730 H   0  0  0  0  0  0  0  0  0  0  0  0
   38.6740   23.3650   38.6870 C   0  0  0  0  0  0  0  0  0  0  0  0
   38.6890   22.9340   39.6810 H   0  0  0  0  0  0  0  0  0  0  0  0
   39.5480   22.9670   37.6680 C   0  0  0  0  0  3  0  0  0  0  0  0
   39.2830   23.7000   36.5180 C   0  0  0  0  0  0  0  0  0  0  0  0
   39.7950   23.7430   35.2600 C   0  0  0  0  0  3  0  0  0  0  0  0
   35.6800   29.3750   33.4950 C   0  0  0  0  0  0  0  0  0  0  0  0
   34.7990   29.2120   34.3780 O   0  0  0  0  0  0  0  0  0  0  0  0
   35.8860   30.6780   32.9020 N   0  0  0  0  0  0  0  0  0  0  0  0
   36.4550   30.8350   32.0580 H   0  0  0  0  0  0  0  0  0  0  0  0
   35.9690   32.4960   34.5940 C   0  0  2  0  0  0  0  0  0  0  0  0
   35.9820   33.1500   33.2740 C   0  0  0  0  0  0  0  0  0  0  0  0
   35.2500   31.8090   33.5490 C   0  0  1  0  0  0  0  0  0  0  0  0
   36.9600   32.1380   34.9380 H   0  0  0  0  0  0  0  0  0  0  0  0
   36.8950   33.1200   32.6720 H   0  0  0  0  0  0  0  0  0  0  0  0
   35.3740   34.0460   33.1080 H   0  0  0  0  0  0  0  0  0  0  0  0
   34.1470   31.9080   33.4390 H   0  0  0  0  0  0  0  0  0  0  0  0
   34.7080   34.9310   37.0990 C   0  0  0  0  0  0  0  0  0  0  0  0
   33.7450   34.1500   37.8140 C   0  0  0  0  0  0  0  0  0  0  0  0
   33.5620   32.7760   37.4050 C   0  0  0  0  0  0  0  0  0  0  0  0
   34.3000   32.2920   36.3770 N   0  0  0  0  0  0  0  0  0  0  0  0
   35.1980   33.0850   35.7390 C   0  0  0  0  0  0  0  0  0  0  0  0
   35.4200   34.4030   36.0800 N   0  0  0  0  0  0  0  0  0  0  0  0
   34.8230   35.9530   37.4270 H   0  0  0  0  0  0  0  0  0  0  0  0
   33.1710   34.5340   38.6170 H   0  0  0  0  0  0  0  0  0  0  0  0
   32.8370   32.1800   37.9410 H   0  0  0  0  0  0  0  0  0  0  0  0
  1 22  1  0  0  0  0
  1  6  1  0  0  0  0
  2  1  2  0  0  0  0
  3  2  1  0  0  0  0
  3  4  2  0  0  0  0
  4  5  1  0  0  0  0
  5  6  2  0  0  0  0
  5 11  1  0  0  0  0
  7  2  1  0  0  0  0
  8  3  1  0  0  0  0
  9  4  1  0  0  0  0
 10 11  2  0  0  0  0
 10 21  1  0  0  0  0
 11 12  1  0  0  0  0
 12 13  1  0  0  0  0
 12 14  2  0  0  0  0
 14 15  1  0  0  0  0
 15 16  1  0  0  0  0
 15 17  1  0  0  0  0
 17 18  1  0  0  0  0
 19 17  2  0  0  0  0
 20 14  1  0  0  0  0
 20 19  1  0  0  0  0
 21 20  2  0  0  0  0
 22 23  2  0  0  0  0
 24 22  1  0  0  0  0
 24 28  1  0  0  0  0
 25 24  1  0  0  0  0
 26 29  1  1  0  0  0
 26 37  1  0  0  0  0
 27 28  1  0  0  0  0
 27 26  1  0  0  0  0
 28 32  1  1  0  0  0
 28 26  1  0  0  0  0
 30 27  1  0  0  0  0
 31 27  1  0  0  0  0
 33 39  1  0  0  0  0
 33 34  1  0  0  0  0
 34 40  1  0  0  0  0
 35 34  2  0  0  0  0
 35 41  1  0  0  0  0
 36 35  1  0  0  0  0
 37 38  1  0  0  0  0
 37 36  2  0  0  0  0
 38 33  2  0  0  0  0
M  END
>  <minimizedAffinity>
-6.03218222

$$$$

 OpenBabel03272508563D

 41 45  0  0  1  0  0  0  0  0999 V2000
   35.6810   29.5990   33.0620 C   0  0  0  0  0  0  0  0  0  0  0  0
   36.1070   29.7880   31.7770 C   0  0  0  0  0  0  0  0  0  0  0  0
   37.0560   28.9100   31.2770 C   0  0  0  0  0  0  0  0  0  0  0  0
   37.5120   27.9060   32.0940 C   0  0  0  0  0  0  0  0  0  0  0  0
   37.0840   27.7090   33.3960 C   0  0  0  0  0  0  0  0  0  0  0  0
   36.1630   28.5930   33.8240 N   0  0  0  0  0  0  0  0  0  0  0  0
   35.7370   30.5850   31.1480 H   0  0  0  0  0  0  0  0  0  0  0  0
   37.4160   29.0330   30.2610 H   0  0  0  0  0  0  0  0  0  0  0  0
   38.2520   27.2220   31.7020 H   0  0  0  0  0  0  0  0  0  0  0  0
   37.8420   27.0260   35.5700 C   0  0  0  0  0  3  0  0  0  0  0  0
   37.5420   26.6670   34.2780 C   0  0  0  0  0  0  0  0  0  0  0  0
   37.6830   25.3640   33.8770 C   0  0  0  0  0  0  0  0  0  0  0  0
   37.4580   25.0540   32.8850 H   0  0  0  0  0  0  0  0  0  0  0  0
   38.1260   24.3610   34.7390 C   0  0  0  0  0  0  0  0  0  0  0  0
   38.3370   23.0590   34.5830 N   0  0  0  0  0  0  0  0  0  0  0  0
   38.1960   22.4940   33.7040 H   0  0  0  0  0  0  0  0  0  0  0  0
   38.7790   22.4960   35.7360 C   0  0  0  0  0  0  0  0  0  0  0  0
   39.0500   21.4770   35.9860 H   0  0  0  0  0  0  0  0  0  0  0  0
   38.8360   23.5490   36.6550 C   0  0  0  0  0  3  0  0  0  0  0  0
   38.4280   24.7250   36.0390 C   0  0  0  0  0  0  0  0  0  0  0  0
   38.2850   26.0210   36.4240 C   0  0  0  0  0  3  0  0  0  0  0  0
   34.6700   30.5190   33.6140 C   0  0  0  0  0  0  0  0  0  0  0  0
   33.6240   30.8040   32.9760 O   0  0  0  0  0  0  0  0  0  0  0  0
   34.9090   31.0940   34.9180 N   0  0  0  0  0  0  0  0  0  0  0  0
   35.8170   31.0460   35.4040 H   0  0  0  0  0  0  0  0  0  0  0  0
   32.9460   31.0070   36.4390 C   0  0  2  0  0  0  0  0  0  0  0  0
   33.9520   31.8550   37.1010 C   0  0  0  0  0  0  0  0  0  0  0  0
   33.7970   31.7700   35.5590 C   0  0  1  0  0  0  0  0  0  0  0  0
   33.0970   29.9190   36.5810 H   0  0  0  0  0  0  0  0  0  0  0  0
   34.8310   31.3860   37.5530 H   0  0  0  0  0  0  0  0  0  0  0  0
   33.6380   32.7760   37.6020 H   0  0  0  0  0  0  0  0  0  0  0  0
   33.4650   32.7370   35.1210 H   0  0  0  0  0  0  0  0  0  0  0  0
   29.7960   32.9710   36.5450 C   0  0  0  0  0  0  0  0  0  0  0  0
   28.8040   31.9400   36.5960 C   0  0  0  0  0  0  0  0  0  0  0  0
   29.2640   30.5700   36.6000 C   0  0  0  0  0  0  0  0  0  0  0  0
   30.5950   30.3240   36.5550 N   0  0  0  0  0  0  0  0  0  0  0  0
   31.4850   31.3460   36.5080 C   0  0  0  0  0  0  0  0  0  0  0  0
   31.1120   32.6750   36.5020 N   0  0  0  0  0  0  0  0  0  0  0  0
   29.4220   33.9840   36.5430 H   0  0  0  0  0  0  0  0  0  0  0  0
   27.7640   32.1400   36.6310 H   0  0  0  0  0  0  0  0  0  0  0  0
   28.5200   29.7870   36.6390 H   0  0  0  0  0  0  0  0  0  0  0  0
  1 22  1  0  0  0  0
  1  6  1  0  0  0  0
  2  1  2  0  0  0  0
  3  2  1  0  0  0  0
  3  4  2  0  0  0  0
  4  5  1  0  0  0  0
  5  6  2  0  0  0  0
  5 11  1  0  0  0  0
  7  2  1  0  0  0  0
  8  3  1  0  0  0  0
  9  4  1  0  0  0  0
 10 21  1  0  0  0  0
 11 10  2  0  0  0  0
 12 11  1  0  0  0  0
 12 14  2  0  0  0  0
 13 12  1  0  0  0  0
 14 20  1  0  0  0  0
 15 14  1  0  0  0  0
 15 17  1  0  0  0  0
 16 15  1  0  0  0  0
 17 18  1  0  0  0  0
 17 19  2  0  0  0  0
 20 21  2  0  0  0  0
 20 19  1  0  0  0  0
 22 24  1  0  0  0  0
 23 22  2  0  0  0  0
 24 25  1  0  0  0  0
 24 28  1  0  0  0  0
 26 37  1  0  0  0  0
 26 29  1  1  0  0  0
 26 27  1  0  0  0  0
 27 30  1  0  0  0  0
 27 31  1  0  0  0  0
 28 32  1  6  0  0  0
 28 26  1  0  0  0  0
 28 27  1  0  0  0  0
 33 34  1  0  0  0  0
 34 35  2  0  0  0  0
 34 40  1  0  0  0  0
 35 41  1  0  0  0  0
 36 35  1  0  0  0  0
 37 36  2  0  0  0  0
 38 37  1  0  0  0  0
 38 33  2  0  0  0  0
 39 33  1  0  0  0  0
M  END
>  <minimizedAffinity>
-5.97653008

$$$$

 OpenBabel03272508563D

 41 45  0  0  1  0  0  0  0  0999 V2000
   36.4570   27.8140   32.9010 C   0  0  0  0  0  0  0  0  0  0  0  0
   36.1560   27.3140   31.6640 C   0  0  0  0  0  0  0  0  0  0  0  0
   36.4730   25.9880   31.4130 C   0  0  0  0  0  0  0  0  0  0  0  0
   37.0660   25.2560   32.4110 C   0  0  0  0  0  0  0  0  0  0  0  0
   37.3710   25.7570   33.6640 C   0  0  0  0  0  0  0  0  0  0  0  0
   37.0410   27.0490   33.8490 N   0  0  0  0  0  0  0  0  0  0  0  0
   35.6900   27.9050   30.8900 H   0  0  0  0  0  0  0  0  0  0  0  0
   36.2490   25.5600   30.4410 H   0  0  0  0  0  0  0  0  0  0  0  0
   37.3110   24.2220   32.2110 H   0  0  0  0  0  0  0  0  0  0  0  0
   37.6560   25.3700   36.0170 C   0  0  0  0  0  3  0  0  0  0  0  0
   37.9920   25.0170   34.7320 C   0  0  0  0  0  0  0  0  0  0  0  0
   38.8830   23.9990   34.5100 C   0  0  0  0  0  0  0  0  0  0  0  0
   39.1620   23.7020   33.5290 H   0  0  0  0  0  0  0  0  0  0  0  0
   39.4790   23.2870   35.5510 C   0  0  0  0  0  0  0  0  0  0  0  0
   40.3500   22.2860   35.5830 N   0  0  0  0  0  0  0  0  0  0  0  0
   40.7900   21.8010   34.7560 H   0  0  0  0  0  0  0  0  0  0  0  0
   40.6340   21.9270   36.8600 C   0  0  0  0  0  0  0  0  0  0  0  0
   41.2870   21.1660   37.2700 H   0  0  0  0  0  0  0  0  0  0  0  0
   39.8690   22.7870   37.6570 C   0  0  0  0  0  3  0  0  0  0  0  0
   39.1390   23.6450   36.8440 C   0  0  0  0  0  0  0  0  0  0  0  0
   38.2550   24.6560   37.0510 C   0  0  0  0  0  3  0  0  0  0  0  0
   36.1270   29.2210   33.1930 C   0  0  0  0  0  0  0  0  0  0  0  0
   36.0530   30.0800   32.2770 O   0  0  0  0  0  0  0  0  0  0  0  0
   35.8880   29.5970   34.5670 N   0  0  0  0  0  0  0  0  0  0  0  0
   36.1090   28.9890   35.3700 H   0  0  0  0  0  0  0  0  0  0  0  0
   34.8950   31.2350   36.1500 C   0  0  2  0  0  0  0  0  0  0  0  0
   36.1840   31.7990   35.7150 C   0  0  0  0  0  0  0  0  0  0  0  0
   35.3020   30.9020   34.8070 C   0  0  1  0  0  0  0  0  0  0  0  0
   34.9700   30.4960   36.9710 H   0  0  0  0  0  0  0  0  0  0  0  0
   37.1120   31.3750   36.1080 H   0  0  0  0  0  0  0  0  0  0  0  0
   36.2550   32.8660   35.4760 H   0  0  0  0  0  0  0  0  0  0  0  0
   34.9140   31.4580   33.9250 H   0  0  0  0  0  0  0  0  0  0  0  0
   31.3840   32.3210   36.6870 C   0  0  0  0  0  0  0  0  0  0  0  0
   31.5180   33.7460   36.7410 C   0  0  0  0  0  0  0  0  0  0  0  0
   32.8440   34.2980   36.5790 C   0  0  0  0  0  0  0  0  0  0  0  0
   33.8880   33.4570   36.3870 N   0  0  0  0  0  0  0  0  0  0  0  0
   33.6940   32.1150   36.3450 C   0  0  0  0  0  0  0  0  0  0  0  0
   32.4560   31.5240   36.4920 N   0  0  0  0  0  0  0  0  0  0  0  0
   30.3820   31.9380   36.8110 H   0  0  0  0  0  0  0  0  0  0  0  0
   30.6970   34.3980   36.8930 H   0  0  0  0  0  0  0  0  0  0  0  0
   32.9520   35.3730   36.6180 H   0  0  0  0  0  0  0  0  0  0  0  0
  1 22  1  0  0  0  0
  1  6  1  0  0  0  0
  2  1  2  0  0  0  0
  3  2  1  0  0  0  0
  3  4  2  0  0  0  0
  4  5  1  0  0  0  0
  5  6  2  0  0  0  0
  5 11  1  0  0  0  0
  7  2  1  0  0  0  0
  8  3  1  0  0  0  0
  9  4  1  0  0  0  0
 10 21  1  0  0  0  0
 11 10  2  0  0  0  0
 12 11  1  0  0  0  0
 12 14  2  0  0  0  0
 13 12  1  0  0  0  0
 14 15  1  0  0  0  0
 14 20  1  0  0  0  0
 15 17  1  0  0  0  0
 16 15  1  0  0  0  0
 17 18  1  0  0  0  0
 17 19  2  0  0  0  0
 20 21  2  0  0  0  0
 20 19  1  0  0  0  0
 22 24  1  0  0  0  0
 23 22  2  0  0  0  0
 24 28  1  0  0  0  0
 24 25  1  0  0  0  0
 26 37  1  0  0  0  0
 26 29  1  1  0  0  0
 27 30  1  0  0  0  0
 27 26  1  0  0  0  0
 28 32  1  6  0  0  0
 28 27  1  0  0  0  0
 28 26  1  0  0  0  0
 31 27  1  0  0  0  0
 33 34  1  0  0  0  0
 33 39  1  0  0  0  0
 34 40  1  0  0  0  0
 35 41  1  0  0  0  0
 35 34  2  0  0  0  0
 36 35  1  0  0  0  0
 37 36  2  0  0  0  0
 37 38  1  0  0  0  0
 38 33  2  0  0  0  0
M  END
>  <minimizedAffinity>
-5.9333601

$$$$

 OpenBabel03272508563D

 41 45  0  0  1  0  0  0  0  0999 V2000
   37.2380   27.9560   31.9180 C   0  0  0  0  0  0  0  0  0  0  0  0
   37.3910   28.5640   30.7020 C   0  0  0  0  0  0  0  0  0  0  0  0
   36.6290   29.6920   30.4460 C   0  0  0  0  0  0  0  0  0  0  0  0
   35.7680   30.1350   31.4200 C   0  0  0  0  0  0  0  0  0  0  0  0
   35.6100   29.5240   32.6520 C   0  0  0  0  0  0  0  0  0  0  0  0
   36.3760   28.4340   32.8410 N   0  0  0  0  0  0  0  0  0  0  0  0
   38.0730   28.2010   29.9470 H   0  0  0  0  0  0  0  0  0  0  0  0
   36.7260   30.1980   29.4910 H   0  0  0  0  0  0  0  0  0  0  0  0
   35.1750   31.0160   31.2170 H   0  0  0  0  0  0  0  0  0  0  0  0
   33.4080   29.5530   33.6100 C   0  0  0  0  0  3  0  0  0  0  0  0
   34.7170   29.9620   33.6930 C   0  0  0  0  0  0  0  0  0  0  0  0
   35.1250   30.7540   34.7350 C   0  0  0  0  0  0  0  0  0  0  0  0
   36.1300   31.0870   34.8290 H   0  0  0  0  0  0  0  0  0  0  0  0
   34.2530   31.1730   35.7410 C   0  0  0  0  0  0  0  0  0  0  0  0
   34.4120   31.9250   36.8230 N   0  0  0  0  0  0  0  0  0  0  0  0
   35.3030   32.3820   37.1540 H   0  0  0  0  0  0  0  0  0  0  0  0
   33.2450   32.0530   37.5030 C   0  0  0  0  0  0  0  0  0  0  0  0
   32.9930   32.5800   38.4160 H   0  0  0  0  0  0  0  0  0  0  0  0
   32.3120   31.3170   36.7640 C   0  0  0  0  0  3  0  0  0  0  0  0
   32.9350   30.7610   35.6540 C   0  0  0  0  0  0  0  0  0  0  0  0
   32.5430   29.9760   34.6160 C   0  0  0  0  0  3  0  0  0  0  0  0
   38.0400   26.7550   32.2130 C   0  0  0  0  0  0  0  0  0  0  0  0
   39.1240   26.5280   31.6160 O   0  0  0  0  0  0  0  0  0  0  0  0
   37.5510   25.8350   33.2130 N   0  0  0  0  0  0  0  0  0  0  0  0
   36.5960   25.8690   33.6000 H   0  0  0  0  0  0  0  0  0  0  0  0
   37.9960   23.8620   34.6570 C   0  0  2  0  0  0  0  0  0  0  0  0
   38.0480   23.3840   33.2650 C   0  0  0  0  0  0  0  0  0  0  0  0
   38.4690   24.8160   33.6850 C   0  0  1  0  0  0  0  0  0  0  0  0
   36.9740   23.9340   35.0800 H   0  0  0  0  0  0  0  0  0  0  0  0
   37.1150   23.2680   32.7050 H   0  0  0  0  0  0  0  0  0  0  0  0
   38.8320   22.6810   32.9630 H   0  0  0  0  0  0  0  0  0  0  0  0
   39.5560   24.9940   33.5240 H   0  0  0  0  0  0  0  0  0  0  0  0
   41.0550   22.4420   36.2120 C   0  0  0  0  0  0  0  0  0  0  0  0
   40.7040   22.4290   37.6000 C   0  0  0  0  0  0  0  0  0  0  0  0
   39.3920   22.9150   37.9620 C   0  0  0  0  0  0  0  0  0  0  0  0
   38.5620   23.3550   36.9880 N   0  0  0  0  0  0  0  0  0  0  0  0
   38.9540   23.3410   35.6890 C   0  0  0  0  0  0  0  0  0  0  0  0
   40.1910   22.8910   35.2760 N   0  0  0  0  0  0  0  0  0  0  0  0
   42.0410   22.0730   35.9720 H   0  0  0  0  0  0  0  0  0  0  0  0
   41.3590   22.0830   38.3580 H   0  0  0  0  0  0  0  0  0  0  0  0
   39.1210   22.9070   39.0080 H   0  0  0  0  0  0  0  0  0  0  0  0
  1 22  1  0  0  0  0
  1  6  1  0  0  0  0
  2  1  2  0  0  0  0
  3  2  1  0  0  0  0
  3  4  2  0  0  0  0
  4  5  1  0  0  0  0
  5  6  2  0  0  0  0
  5 11  1  0  0  0  0
  7  2  1  0  0  0  0
  8  3  1  0  0  0  0
  9  4  1  0  0  0  0
 10 11  2  0  0  0  0
 10 21  1  0  0  0  0
 11 12  1  0  0  0  0
 12 13  1  0  0  0  0
 12 14  2  0  0  0  0
 14 15  1  0  0  0  0
 15 16  1  0  0  0  0
 15 17  1  0  0  0  0
 17 18  1  0  0  0  0
 19 17  2  0  0  0  0
 20 14  1  0  0  0  0
 20 19  1  0  0  0  0
 21 20  2  0  0  0  0
 22 24  1  0  0  0  0
 23 22  2  0  0  0  0
 24 25  1  0  0  0  0
 24 28  1  0  0  0  0
 26 29  1  1  0  0  0
 26 37  1  0  0  0  0
 27 28  1  0  0  0  0
 27 26  1  0  0  0  0
 28 32  1  6  0  0  0
 28 26  1  0  0  0  0
 30 27  1  0  0  0  0
 31 27  1  0  0  0  0
 33 34  1  0  0  0  0
 34 35  2  0  0  0  0
 34 40  1  0  0  0  0
 35 41  1  0  0  0  0
 36 35  1  0  0  0  0
 37 36  2  0  0  0  0
 38 37  1  0  0  0  0
 38 33  2  0  0  0  0
 39 33  1  0  0  0  0
M  END
>  <minimizedAffinity>
-5.90500259

$$$$
