
 OpenBabel03272506403D

 40 43  0  0  1  0  0  0  0  0999 V2000
   36.5310   27.2640   34.9630 O   0  0  0  0  0  0  0  0  0  0  0  0
   36.9850   27.3880   33.8170 C   0  0  0  0  0  0  0  0  0  0  0  0
   38.1970   26.7120   33.4040 C   0  0  2  0  0  0  0  0  0  0  0  0
   38.2140   27.0340   31.8780 C   0  0  0  0  0  0  0  0  0  0  0  0
   37.4450   28.3140   31.7870 C   0  0  0  0  0  0  0  0  0  0  0  0
   36.3950   28.1870   32.7820 N   0  0  0  0  0  0  0  0  0  0  0  0
   39.1340   27.0790   33.8350 H   0  0  0  0  0  0  0  0  0  0  0  0
   39.2720   27.2340   31.6260 H   0  0  0  0  0  0  0  0  0  0  0  0
   37.7600   26.2030   31.3140 H   0  0  0  0  0  0  0  0  0  0  0  0
   38.0610   29.2030   31.9180 H   0  0  0  0  0  0  0  0  0  0  0  0
   36.9730   28.3650   30.7750 H   0  0  0  0  0  0  0  0  0  0  0  0
   35.0580   28.7600   32.7140 C   0  0  0  0  0  0  0  0  0  0  0  0
   34.3520   27.9230   32.6020 H   0  0  0  0  0  0  0  0  0  0  0  0
   35.0380   29.3620   31.7840 H   0  0  0  0  0  0  0  0  0  0  0  0
   33.4890   29.4340   34.3920 C   0  0  0  0  0  3  0  0  0  0  0  0
   34.7520   29.6500   33.8360 C   0  0  0  0  0  0  0  0  0  0  0  0
   35.5970   30.6220   34.3290 C   0  0  0  0  0  0  0  0  0  0  0  0
   36.5630   30.7450   33.8600 H   0  0  0  0  0  0  0  0  0  0  0  0
   35.1390   31.3760   35.4030 C   0  0  0  0  0  0  0  0  0  0  0  0
   35.7410   32.3780   36.0800 N   0  0  0  0  0  0  0  0  0  0  0  0
   36.6770   32.7810   35.9220 H   0  0  0  0  0  0  0  0  0  0  0  0
   34.8750   32.7840   37.0420 C   0  0  0  0  0  0  0  0  0  0  0  0
   35.0000   33.5720   37.7890 H   0  0  0  0  0  0  0  0  0  0  0  0
   33.7170   32.0500   36.9900 C   0  0  0  0  0  3  0  0  0  0  0  0
   33.8920   31.1620   35.9510 C   0  0  0  0  0  0  0  0  0  0  0  0
   33.0410   30.1890   35.4610 C   0  0  0  0  0  3  0  0  0  0  0  0
   38.1310   25.2840   33.4950 O   0  0  0  0  0  0  0  0  0  0  0  0
   39.0140   24.6560   34.3700 C   0  0  0  0  0  0  0  0  0  0  0  0
   40.3620   24.7710   34.0840 C   0  0  0  0  0  0  0  0  0  0  0  0
   41.2630   24.1540   34.9410 C   0  0  0  0  0  0  0  0  0  0  0  0
   40.7900   23.4700   36.0120 N   0  0  0  0  0  0  0  0  0  0  0  0
   39.4730   23.3650   36.2760 C   0  0  0  0  0  0  0  0  0  0  0  0
   38.6270   23.9580   35.4540 N   0  0  0  0  0  0  0  0  0  0  0  0
   38.2590   23.4460   38.3080 C   0  0  0  0  0  0  0  0  0  0  0  0
   37.9770   24.6740   38.2080 O   0  0  0  0  0  0  0  0  0  0  0  0
   39.0120   22.6370   37.4090 N   0  0  0  0  0  0  0  0  0  0  0  0
   40.7950   25.3000   33.2500 H   0  0  0  0  0  0  0  0  0  0  0  0
   42.3220   24.2200   34.7550 H   0  0  0  0  0  0  0  0  0  0  0  0
   37.8080   23.1120   39.2340 H   0  0  0  0  0  0  0  0  0  0  0  0
   39.1390   21.6420   37.6640 H   0  0  0  0  0  0  0  0  0  0  0  0
  2  1  2  0  0  0  0
  3 27  1  0  0  0  0
  3  2  1  0  0  0  0
  3  7  1  1  0  0  0
  4  3  1  0  0  0  0
  5  4  1  0  0  0  0
  5 10  1  0  0  0  0
  5  6  1  0  0  0  0
  6  2  1  0  0  0  0
  8  4  1  0  0  0  0
  9  4  1  0  0  0  0
 11  5  1  0  0  0  0
 12  6  1  0  0  0  0
 12 16  1  0  0  0  0
 13 12  1  0  0  0  0
 14 12  1  0  0  0  0
 15 26  1  0  0  0  0
 16 17  1  0  0  0  0
 16 15  2  0  0  0  0
 17 19  2  0  0  0  0
 18 17  1  0  0  0  0
 19 25  1  0  0  0  0
 19 20  1  0  0  0  0
 20 22  1  0  0  0  0
 21 20  1  0  0  0  0
 22 23  1  0  0  0  0
 24 22  2  0  0  0  0
 25 24  1  0  0  0  0
 26 25  2  0  0  0  0
 27 28  1  0  0  0  0
 28 33  1  0  0  0  0
 29 28  2  0  0  0  0
 29 30  1  0  0  0  0
 30 31  2  0  0  0  0
 31 32  1  0  0  0  0
 32 36  1  0  0  0  0
 33 32  2  0  0  0  0
 34 39  1  0  0  0  0
 35 34  2  0  0  0  0
 36 40  1  0  0  0  0
 36 34  1  0  0  0  0
 37 29  1  0  0  0  0
 38 30  1  0  0  0  0
M  END
>  <minimizedAffinity>
-6.14718962

$$$$

 OpenBabel03272506403D

 40 43  0  0  1  0  0  0  0  0999 V2000
   36.5230   27.6900   34.7700 O   0  0  0  0  0  0  0  0  0  0  0  0
   36.1850   28.6310   34.0390 C   0  0  0  0  0  0  0  0  0  0  0  0
   35.5420   29.8140   34.5720 C   0  0  2  0  0  0  0  0  0  0  0  0
   35.5110   30.7320   33.3110 C   0  0  0  0  0  0  0  0  0  0  0  0
   35.5140   29.7590   32.1760 C   0  0  0  0  0  0  0  0  0  0  0  0
   36.3760   28.6780   32.6170 N   0  0  0  0  0  0  0  0  0  0  0  0
   34.5130   29.6950   34.9260 H   0  0  0  0  0  0  0  0  0  0  0  0
   34.5310   31.2460   33.3400 H   0  0  0  0  0  0  0  0  0  0  0  0
   36.3820   31.4090   33.3190 H   0  0  0  0  0  0  0  0  0  0  0  0
   34.5190   29.4280   31.8820 H   0  0  0  0  0  0  0  0  0  0  0  0
   35.9890   30.2550   31.2940 H   0  0  0  0  0  0  0  0  0  0  0  0
   37.2260   27.8440   31.7780 C   0  0  0  0  0  0  0  0  0  0  0  0
   38.2630   27.9970   32.1130 H   0  0  0  0  0  0  0  0  0  0  0  0
   37.1240   28.2510   30.7530 H   0  0  0  0  0  0  0  0  0  0  0  0
   35.5980   26.2270   31.0950 C   0  0  0  0  0  3  0  0  0  0  0  0
   36.8130   26.4390   31.7510 C   0  0  0  0  0  0  0  0  0  0  0  0
   37.5220   25.3940   32.3060 C   0  0  0  0  0  0  0  0  0  0  0  0
   38.4570   25.6160   32.8020 H   0  0  0  0  0  0  0  0  0  0  0  0
   36.9770   24.1210   32.1840 C   0  0  0  0  0  0  0  0  0  0  0  0
   37.4430   22.9320   32.6220 N   0  0  0  0  0  0  0  0  0  0  0  0
   38.3120   22.7410   33.1420 H   0  0  0  0  0  0  0  0  0  0  0  0
   36.5400   21.9900   32.2500 C   0  0  0  0  0  0  0  0  0  0  0  0
   36.5640   20.9110   32.4230 H   0  0  0  0  0  0  0  0  0  0  0  0
   35.4940   22.5640   31.5740 C   0  0  0  0  0  3  0  0  0  0  0  0
   35.7770   23.9130   31.5360 C   0  0  0  0  0  0  0  0  0  0  0  0
   35.0630   24.9560   30.9790 C   0  0  0  0  0  3  0  0  0  0  0  0
   36.3260   30.5190   35.5420 O   0  0  0  0  0  0  0  0  0  0  0  0
   35.9470   31.8250   35.8450 C   0  0  0  0  0  0  0  0  0  0  0  0
   34.9350   31.9810   36.7740 C   0  0  0  0  0  0  0  0  0  0  0  0
   34.5390   33.2730   37.0930 C   0  0  0  0  0  0  0  0  0  0  0  0
   35.1530   34.3180   36.4870 N   0  0  0  0  0  0  0  0  0  0  0  0
   36.1380   34.1490   35.5820 C   0  0  0  0  0  0  0  0  0  0  0  0
   36.5050   32.9160   35.2890 N   0  0  0  0  0  0  0  0  0  0  0  0
   38.1620   35.3240   35.2140 C   0  0  0  0  0  0  0  0  0  0  0  0
   38.8670   34.5230   35.8910 O   0  0  0  0  0  0  0  0  0  0  0  0
   36.7600   35.2710   34.9650 N   0  0  0  0  0  0  0  0  0  0  0  0
   34.4110   31.1890   37.2860 H   0  0  0  0  0  0  0  0  0  0  0  0
   33.7540   33.4380   37.8120 H   0  0  0  0  0  0  0  0  0  0  0  0
   38.8420   36.0820   34.8480 H   0  0  0  0  0  0  0  0  0  0  0  0
   36.3570   36.0250   34.3810 H   0  0  0  0  0  0  0  0  0  0  0  0
  2  3  1  0  0  0  0
  2  1  2  0  0  0  0
  3  7  1  1  0  0  0
  3 27  1  0  0  0  0
  4  9  1  0  0  0  0
  4  8  1  0  0  0  0
  4  3  1  0  0  0  0
  5  6  1  0  0  0  0
  5  4  1  0  0  0  0
  6  2  1  0  0  0  0
 10  5  1  0  0  0  0
 11  5  1  0  0  0  0
 12 13  1  0  0  0  0
 12  6  1  0  0  0  0
 14 12  1  0  0  0  0
 15 16  1  0  0  0  0
 16 12  1  0  0  0  0
 16 17  2  0  0  0  0
 17 18  1  0  0  0  0
 19 17  1  0  0  0  0
 19 20  1  0  0  0  0
 20 21  1  0  0  0  0
 22 23  1  0  0  0  0
 22 20  1  0  0  0  0
 24 22  2  0  0  0  0
 25 24  1  0  0  0  0
 25 19  2  0  0  0  0
 26 15  2  0  0  0  0
 26 25  1  0  0  0  0
 27 28  1  0  0  0  0
 28 29  1  0  0  0  0
 29 30  2  0  0  0  0
 29 37  1  0  0  0  0
 30 38  1  0  0  0  0
 31 30  1  0  0  0  0
 32 31  2  0  0  0  0
 33 32  1  0  0  0  0
 33 28  2  0  0  0  0
 34 35  2  0  0  0  0
 36 34  1  0  0  0  0
 36 32  1  0  0  0  0
 39 34  1  0  0  0  0
 40 36  1  0  0  0  0
M  END
>  <minimizedAffinity>
-6.14498758

$$$$

 OpenBabel03272506403D

 40 43  0  0  1  0  0  0  0  0999 V2000
   37.3840   27.8750   35.3760 O   0  0  0  0  0  0  0  0  0  0  0  0
   37.0050   27.6650   34.2160 C   0  0  0  0  0  0  0  0  0  0  0  0
   37.5600   26.5900   33.4190 C   0  0  2  0  0  0  0  0  0  0  0  0
   36.6330   26.6380   32.1650 C   0  0  0  0  0  0  0  0  0  0  0  0
   36.1690   28.0590   32.1330 C   0  0  0  0  0  0  0  0  0  0  0  0
   36.0020   28.4250   33.5280 N   0  0  0  0  0  0  0  0  0  0  0  0
   38.5930   26.7170   33.0790 H   0  0  0  0  0  0  0  0  0  0  0  0
   37.2960   26.4590   31.2970 H   0  0  0  0  0  0  0  0  0  0  0  0
   35.8160   25.9060   32.2750 H   0  0  0  0  0  0  0  0  0  0  0  0
   36.8370   28.7240   31.5880 H   0  0  0  0  0  0  0  0  0  0  0  0
   35.1680   28.0870   31.6350 H   0  0  0  0  0  0  0  0  0  0  0  0
   35.0280   29.3630   34.0710 C   0  0  0  0  0  0  0  0  0  0  0  0
   34.6440   28.9260   35.0050 H   0  0  0  0  0  0  0  0  0  0  0  0
   34.2020   29.3950   33.3340 H   0  0  0  0  0  0  0  0  0  0  0  0
   35.7880   31.0850   35.5500 C   0  0  0  0  0  3  0  0  0  0  0  0
   35.5540   30.7210   34.2220 C   0  0  0  0  0  0  0  0  0  0  0  0
   35.8080   31.5920   33.1830 C   0  0  0  0  0  0  0  0  0  0  0  0
   35.6070   31.2570   32.1740 H   0  0  0  0  0  0  0  0  0  0  0  0
   36.3070   32.8460   33.5130 C   0  0  0  0  0  0  0  0  0  0  0  0
   36.6430   33.8840   32.7170 N   0  0  0  0  0  0  0  0  0  0  0  0
   36.5900   33.9420   31.6890 H   0  0  0  0  0  0  0  0  0  0  0  0
   37.0800   34.8810   33.5270 C   0  0  0  0  0  0  0  0  0  0  0  0
   37.4370   35.8780   33.2560 H   0  0  0  0  0  0  0  0  0  0  0  0
   37.0280   34.4930   34.8410 C   0  0  0  0  0  3  0  0  0  0  0  0
   36.5390   33.2040   34.8240 C   0  0  0  0  0  0  0  0  0  0  0  0
   36.2860   32.3360   35.8690 C   0  0  0  0  0  3  0  0  0  0  0  0
   37.3760   25.2870   33.9840 O   0  0  0  0  0  0  0  0  0  0  0  0
   38.4520   24.7290   34.6720 C   0  0  0  0  0  0  0  0  0  0  0  0
   39.7130   24.9820   34.1650 C   0  0  0  0  0  0  0  0  0  0  0  0
   40.8020   24.4370   34.8320 C   0  0  0  0  0  0  0  0  0  0  0  0
   40.5870   23.6860   35.9390 N   0  0  0  0  0  0  0  0  0  0  0  0
   39.3510   23.4470   36.4200 C   0  0  0  0  0  0  0  0  0  0  0  0
   38.3250   23.9720   35.7770 N   0  0  0  0  0  0  0  0  0  0  0  0
   38.5050   23.3630   38.6300 C   0  0  0  0  0  0  0  0  0  0  0  0
   38.0970   24.5590   38.6270 O   0  0  0  0  0  0  0  0  0  0  0  0
   39.1630   22.6520   37.5850 N   0  0  0  0  0  0  0  0  0  0  0  0
   39.9440   25.5700   33.2910 H   0  0  0  0  0  0  0  0  0  0  0  0
   41.8030   24.6100   34.4700 H   0  0  0  0  0  0  0  0  0  0  0  0
   38.2540   22.9650   39.6060 H   0  0  0  0  0  0  0  0  0  0  0  0
   39.4230   21.6690   37.7760 H   0  0  0  0  0  0  0  0  0  0  0  0
  2  1  2  0  0  0  0
  3  7  1  6  0  0  0
  3 27  1  0  0  0  0
  3  2  1  0  0  0  0
  4  9  1  0  0  0  0
  4  3  1  0  0  0  0
  5  4  1  0  0  0  0
  5  6  1  0  0  0  0
  6 12  1  0  0  0  0
  6  2  1  0  0  0  0
  8  4  1  0  0  0  0
 10  5  1  0  0  0  0
 11  5  1  0  0  0  0
 12 16  1  0  0  0  0
 12 13  1  0  0  0  0
 14 12  1  0  0  0  0
 15 26  1  0  0  0  0
 16 15  2  0  0  0  0
 17 19  2  0  0  0  0
 17 16  1  0  0  0  0
 18 17  1  0  0  0  0
 19 25  1  0  0  0  0
 20 19  1  0  0  0  0
 20 22  1  0  0  0  0
 21 20  1  0  0  0  0
 22 24  2  0  0  0  0
 23 22  1  0  0  0  0
 25 24  1  0  0  0  0
 25 26  2  0  0  0  0
 27 28  1  0  0  0  0
 28 33  1  0  0  0  0
 29 28  2  0  0  0  0
 29 30  1  0  0  0  0
 30 31  2  0  0  0  0
 31 32  1  0  0  0  0
 32 36  1  0  0  0  0
 33 32  2  0  0  0  0
 34 39  1  0  0  0  0
 35 34  2  0  0  0  0
 36 40  1  0  0  0  0
 36 34  1  0  0  0  0
 37 29  1  0  0  0  0
 38 30  1  0  0  0  0
M  END
>  <minimizedAffinity>
-6.14234877

$$$$

 OpenBabel03272506403D

 40 43  0  0  1  0  0  0  0  0999 V2000
   37.3040   26.7410   35.1820 O   0  0  0  0  0  0  0  0  0  0  0  0
   37.7630   26.7970   34.0330 C   0  0  0  0  0  0  0  0  0  0  0  0
   38.9570   26.0700   33.6560 C   0  0  2  0  0  0  0  0  0  0  0  0
   38.9850   26.3180   32.1150 C   0  0  0  0  0  0  0  0  0  0  0  0
   38.2510   27.6110   31.9610 C   0  0  0  0  0  0  0  0  0  0  0  0
   37.1960   27.5600   32.9580 N   0  0  0  0  0  0  0  0  0  0  0  0
   39.9030   26.4330   34.0710 H   0  0  0  0  0  0  0  0  0  0  0  0
   40.0490   26.4770   31.8580 H   0  0  0  0  0  0  0  0  0  0  0  0
   38.5090   25.4720   31.5910 H   0  0  0  0  0  0  0  0  0  0  0  0
   38.8900   28.4890   32.0510 H   0  0  0  0  0  0  0  0  0  0  0  0
   37.7810   27.6260   30.9470 H   0  0  0  0  0  0  0  0  0  0  0  0
   35.8750   28.1650   32.8590 C   0  0  0  0  0  0  0  0  0  0  0  0
   35.1590   27.4540   33.2990 H   0  0  0  0  0  0  0  0  0  0  0  0
   35.6650   28.2470   31.7740 H   0  0  0  0  0  0  0  0  0  0  0  0
   35.8420   30.5290   32.4830 C   0  0  0  0  0  3  0  0  0  0  0  0
   35.8080   29.5090   33.4360 C   0  0  0  0  0  0  0  0  0  0  0  0
   35.7200   29.7890   34.7840 C   0  0  0  0  0  0  0  0  0  0  0  0
   35.6980   28.9590   35.4780 H   0  0  0  0  0  0  0  0  0  0  0  0
   35.6660   31.1270   35.1530 C   0  0  0  0  0  0  0  0  0  0  0  0
   35.5780   31.6870   36.3780 N   0  0  0  0  0  0  0  0  0  0  0  0
   35.5340   31.2140   37.2940 H   0  0  0  0  0  0  0  0  0  0  0  0
   35.5580   33.0320   36.2010 C   0  0  0  0  0  0  0  0  0  0  0  0
   35.4940   33.8230   36.9530 H   0  0  0  0  0  0  0  0  0  0  0  0
   35.6310   33.3440   34.8670 C   0  0  0  0  0  3  0  0  0  0  0  0
   35.6990   32.1340   34.2110 C   0  0  0  0  0  0  0  0  0  0  0  0
   35.7880   31.8590   32.8590 C   0  0  0  0  0  3  0  0  0  0  0  0
   38.8520   24.6500   33.8150 O   0  0  0  0  0  0  0  0  0  0  0  0
   39.5640   24.0690   34.8630 C   0  0  0  0  0  0  0  0  0  0  0  0
   40.9380   24.0020   34.7210 C   0  0  0  0  0  0  0  0  0  0  0  0
   41.6700   23.4270   35.7500 C   0  0  0  0  0  0  0  0  0  0  0  0
   41.0150   22.9590   36.8410 N   0  0  0  0  0  0  0  0  0  0  0  0
   39.6750   23.0300   36.9640 C   0  0  0  0  0  0  0  0  0  0  0  0
   38.9920   23.5800   35.9780 N   0  0  0  0  0  0  0  0  0  0  0  0
   38.2840   23.5310   38.8140 C   0  0  0  0  0  0  0  0  0  0  0  0
   38.1600   24.7540   38.5180 O   0  0  0  0  0  0  0  0  0  0  0  0
   39.0220   22.5270   38.1240 N   0  0  0  0  0  0  0  0  0  0  0  0
   41.5110   24.3560   33.8780 H   0  0  0  0  0  0  0  0  0  0  0  0
   42.7430   23.3550   35.6790 H   0  0  0  0  0  0  0  0  0  0  0  0
   37.7070   23.3840   39.7180 H   0  0  0  0  0  0  0  0  0  0  0  0
   39.0040   21.5720   38.5230 H   0  0  0  0  0  0  0  0  0  0  0  0
  2  1  2  0  0  0  0
  3 27  1  0  0  0  0
  3  2  1  0  0  0  0
  3  7  1  1  0  0  0
  4  3  1  0  0  0  0
  5 10  1  0  0  0  0
  5  4  1  0  0  0  0
  5  6  1  0  0  0  0
  6  2  1  0  0  0  0
  8  4  1  0  0  0  0
  9  4  1  0  0  0  0
 11  5  1  0  0  0  0
 12  6  1  0  0  0  0
 12 13  1  0  0  0  0
 12 16  1  0  0  0  0
 14 12  1  0  0  0  0
 15 26  2  0  0  0  0
 15 16  1  0  0  0  0
 16 17  2  0  0  0  0
 17 19  1  0  0  0  0
 17 18  1  0  0  0  0
 19 20  1  0  0  0  0
 20 21  1  0  0  0  0
 22 20  1  0  0  0  0
 22 23  1  0  0  0  0
 24 22  2  0  0  0  0
 25 24  1  0  0  0  0
 25 19  2  0  0  0  0
 26 25  1  0  0  0  0
 27 28  1  0  0  0  0
 28 33  1  0  0  0  0
 29 28  2  0  0  0  0
 29 30  1  0  0  0  0
 30 31  2  0  0  0  0
 31 32  1  0  0  0  0
 32 36  1  0  0  0  0
 33 32  2  0  0  0  0
 34 39  1  0  0  0  0
 35 34  2  0  0  0  0
 36 40  1  0  0  0  0
 36 34  1  0  0  0  0
 37 29  1  0  0  0  0
 38 30  1  0  0  0  0
M  END
>  <minimizedAffinity>
-6.13589001

$$$$

 OpenBabel03272506403D

 40 43  0  0  1  0  0  0  0  0999 V2000
   37.6890   24.9870   33.3650 O   0  0  0  0  0  0  0  0  0  0  0  0
   37.8140   25.8850   34.2100 C   0  0  0  0  0  0  0  0  0  0  0  0
   37.6900   27.2840   33.8540 C   0  0  2  0  0  0  0  0  0  0  0  0
   37.7330   27.9550   35.2620 C   0  0  0  0  0  0  0  0  0  0  0  0
   38.5040   26.9750   36.0870 C   0  0  0  0  0  0  0  0  0  0  0  0
   38.0870   25.6730   35.6020 N   0  0  0  0  0  0  0  0  0  0  0  0
   38.5000   27.7100   33.2540 H   0  0  0  0  0  0  0  0  0  0  0  0
   38.3390   28.8720   35.1360 H   0  0  0  0  0  0  0  0  0  0  0  0
   36.7070   28.1320   35.6250 H   0  0  0  0  0  0  0  0  0  0  0  0
   39.5820   27.1270   36.0510 H   0  0  0  0  0  0  0  0  0  0  0  0
   38.1750   27.0810   37.1510 H   0  0  0  0  0  0  0  0  0  0  0  0
   37.9860   24.4450   36.3800 C   0  0  0  0  0  0  0  0  0  0  0  0
   37.1340   23.8760   35.9790 H   0  0  0  0  0  0  0  0  0  0  0  0
   37.7400   24.7650   37.4120 H   0  0  0  0  0  0  0  0  0  0  0  0
   40.1790   24.1000   35.4830 C   0  0  0  0  0  3  0  0  0  0  0  0
   39.2370   23.6860   36.4270 C   0  0  0  0  0  0  0  0  0  0  0  0
   39.5050   22.6530   37.3020 C   0  0  0  0  0  0  0  0  0  0  0  0
   38.7390   22.3740   38.0130 H   0  0  0  0  0  0  0  0  0  0  0  0
   40.7500   22.0440   37.2050 C   0  0  0  0  0  0  0  0  0  0  0  0
   41.2770   21.0260   37.9190 N   0  0  0  0  0  0  0  0  0  0  0  0
   40.8420   20.4970   38.6900 H   0  0  0  0  0  0  0  0  0  0  0  0
   42.5240   20.8040   37.4340 C   0  0  0  0  0  0  0  0  0  0  0  0
   43.2620   20.0630   37.7520 H   0  0  0  0  0  0  0  0  0  0  0  0
   42.8060   21.6730   36.4110 C   0  0  0  0  0  3  0  0  0  0  0  0
   41.6790   22.4540   36.2720 C   0  0  0  0  0  0  0  0  0  0  0  0
   41.4160   23.4880   35.3920 C   0  0  0  0  0  3  0  0  0  0  0  0
   36.4170   27.6360   33.2990 O   0  0  0  0  0  0  0  0  0  0  0  0
   36.4150   28.4330   32.1560 C   0  0  0  0  0  0  0  0  0  0  0  0
   37.0070   27.9010   31.0250 C   0  0  0  0  0  0  0  0  0  0  0  0
   37.0180   28.6750   29.8730 C   0  0  0  0  0  0  0  0  0  0  0  0
   36.4560   29.9080   29.9030 N   0  0  0  0  0  0  0  0  0  0  0  0
   35.8840   30.4120   31.0140 C   0  0  0  0  0  0  0  0  0  0  0  0
   35.8790   29.6660   32.1020 N   0  0  0  0  0  0  0  0  0  0  0  0
   33.9170   31.6920   31.3350 C   0  0  0  0  0  0  0  0  0  0  0  0
   33.1920   30.6940   31.6110 O   0  0  0  0  0  0  0  0  0  0  0  0
   35.3040   31.7130   31.0080 N   0  0  0  0  0  0  0  0  0  0  0  0
   37.4690   26.9300   30.9420 H   0  0  0  0  0  0  0  0  0  0  0  0
   37.4690   28.2980   28.9690 H   0  0  0  0  0  0  0  0  0  0  0  0
   33.2690   32.5570   31.3950 H   0  0  0  0  0  0  0  0  0  0  0  0
   35.7280   32.6360   30.8110 H   0  0  0  0  0  0  0  0  0  0  0  0
  1  2  2  0  0  0  0
  2  6  1  0  0  0  0
  3  7  1  6  0  0  0
  3  2  1  0  0  0  0
  3  4  1  0  0  0  0
  4  9  1  0  0  0  0
  4  5  1  0  0  0  0
  5 11  1  0  0  0  0
  6  5  1  0  0  0  0
  6 12  1  0  0  0  0
  8  4  1  0  0  0  0
 10  5  1  0  0  0  0
 12 16  1  0  0  0  0
 12 14  1  0  0  0  0
 13 12  1  0  0  0  0
 15 16  1  0  0  0  0
 16 17  2  0  0  0  0
 17 18  1  0  0  0  0
 19 17  1  0  0  0  0
 19 20  1  0  0  0  0
 20 21  1  0  0  0  0
 22 23  1  0  0  0  0
 22 20  1  0  0  0  0
 24 22  2  0  0  0  0
 25 24  1  0  0  0  0
 25 19  2  0  0  0  0
 26 15  2  0  0  0  0
 26 25  1  0  0  0  0
 27  3  1  0  0  0  0
 28 27  1  0  0  0  0
 29 28  2  0  0  0  0
 30 31  2  0  0  0  0
 30 29  1  0  0  0  0
 31 32  1  0  0  0  0
 32 33  2  0  0  0  0
 33 28  1  0  0  0  0
 34 39  1  0  0  0  0
 34 35  2  0  0  0  0
 36 32  1  0  0  0  0
 36 34  1  0  0  0  0
 37 29  1  0  0  0  0
 38 30  1  0  0  0  0
 40 36  1  0  0  0  0
M  END
>  <minimizedAffinity>
-6.06735134

$$$$

 OpenBabel03272506403D

 40 43  0  0  1  0  0  0  0  0999 V2000
   36.1660   27.9960   34.5120 O   0  0  0  0  0  0  0  0  0  0  0  0
   35.9860   28.7970   33.5840 C   0  0  0  0  0  0  0  0  0  0  0  0
   35.2620   30.0350   33.7790 C   0  0  2  0  0  0  0  0  0  0  0  0
   35.4870   30.7350   32.4020 C   0  0  0  0  0  0  0  0  0  0  0  0
   35.7060   29.5890   31.4660 C   0  0  0  0  0  0  0  0  0  0  0  0
   36.4540   28.6150   32.2400 N   0  0  0  0  0  0  0  0  0  0  0  0
   34.1820   29.9510   33.9400 H   0  0  0  0  0  0  0  0  0  0  0  0
   34.5260   31.2220   32.1540 H   0  0  0  0  0  0  0  0  0  0  0  0
   36.3460   31.4240   32.4680 H   0  0  0  0  0  0  0  0  0  0  0  0
   34.7840   29.1910   31.0420 H   0  0  0  0  0  0  0  0  0  0  0  0
   36.3490   29.9460   30.6240 H   0  0  0  0  0  0  0  0  0  0  0  0
   37.4450   27.6760   31.7320 C   0  0  0  0  0  0  0  0  0  0  0  0
   38.3720   27.8450   32.2990 H   0  0  0  0  0  0  0  0  0  0  0  0
   37.6210   27.9690   30.6780 H   0  0  0  0  0  0  0  0  0  0  0  0
   35.7880   26.0870   31.0530 C   0  0  0  0  0  3  0  0  0  0  0  0
   36.9850   26.2860   31.7450 C   0  0  0  0  0  0  0  0  0  0  0  0
   37.6370   25.2410   32.3670 C   0  0  0  0  0  0  0  0  0  0  0  0
   38.5600   25.4540   32.8890 H   0  0  0  0  0  0  0  0  0  0  0  0
   37.0530   23.9840   32.2760 C   0  0  0  0  0  0  0  0  0  0  0  0
   37.4620   22.7990   32.7780 N   0  0  0  0  0  0  0  0  0  0  0  0
   38.3050   22.6000   33.3380 H   0  0  0  0  0  0  0  0  0  0  0  0
   36.5410   21.8720   32.4110 C   0  0  0  0  0  0  0  0  0  0  0  0
   36.5210   20.8010   32.6260 H   0  0  0  0  0  0  0  0  0  0  0  0
   35.5400   22.4530   31.6730 C   0  0  0  0  0  3  0  0  0  0  0  0
   35.8720   23.7880   31.5920 C   0  0  0  0  0  0  0  0  0  0  0  0
   35.2140   24.8310   30.9680 C   0  0  0  0  0  3  0  0  0  0  0  0
   35.8460   30.9080   34.7540 O   0  0  0  0  0  0  0  0  0  0  0  0
   34.9900   31.4920   35.6860 C   0  0  0  0  0  0  0  0  0  0  0  0
   35.3990   32.6900   36.2410 C   0  0  0  0  0  0  0  0  0  0  0  0
   34.5640   33.2920   37.1720 C   0  0  0  0  0  0  0  0  0  0  0  0
   33.3960   32.6870   37.4970 N   0  0  0  0  0  0  0  0  0  0  0  0
   33.0120   31.5180   36.9480 C   0  0  0  0  0  0  0  0  0  0  0  0
   33.8150   30.9570   36.0630 N   0  0  0  0  0  0  0  0  0  0  0  0
   30.9030   30.7390   36.2040 C   0  0  0  0  0  0  0  0  0  0  0  0
   31.0990   31.0560   34.9960 O   0  0  0  0  0  0  0  0  0  0  0  0
   31.7780   30.9100   37.3150 N   0  0  0  0  0  0  0  0  0  0  0  0
   36.3140   33.2160   36.0220 H   0  0  0  0  0  0  0  0  0  0  0  0
   34.8450   34.2280   37.6290 H   0  0  0  0  0  0  0  0  0  0  0  0
   29.9140   30.3000   36.2390 H   0  0  0  0  0  0  0  0  0  0  0  0
   31.4380   30.5850   38.2370 H   0  0  0  0  0  0  0  0  0  0  0  0
  2  3  1  0  0  0  0
  2  1  2  0  0  0  0
  3  7  1  1  0  0  0
  3 27  1  0  0  0  0
  4  9  1  0  0  0  0
  4  3  1  0  0  0  0
  5  6  1  0  0  0  0
  5  4  1  0  0  0  0
  6  2  1  0  0  0  0
  8  4  1  0  0  0  0
 10  5  1  0  0  0  0
 11  5  1  0  0  0  0
 12 16  1  0  0  0  0
 12  6  1  0  0  0  0
 12 13  1  0  0  0  0
 14 12  1  0  0  0  0
 15 16  1  0  0  0  0
 16 17  2  0  0  0  0
 17 18  1  0  0  0  0
 19 17  1  0  0  0  0
 19 20  1  0  0  0  0
 20 21  1  0  0  0  0
 22 23  1  0  0  0  0
 22 20  1  0  0  0  0
 24 22  2  0  0  0  0
 25 24  1  0  0  0  0
 25 19  2  0  0  0  0
 26 15  2  0  0  0  0
 26 25  1  0  0  0  0
 27 28  1  0  0  0  0
 28 33  2  0  0  0  0
 28 29  1  0  0  0  0
 29 30  2  0  0  0  0
 30 31  1  0  0  0  0
 30 38  1  0  0  0  0
 32 36  1  0  0  0  0
 32 31  2  0  0  0  0
 33 32  1  0  0  0  0
 34 39  1  0  0  0  0
 34 36  1  0  0  0  0
 35 34  2  0  0  0  0
 36 40  1  0  0  0  0
 37 29  1  0  0  0  0
M  END
>  <minimizedAffinity>
-6.04296064

$$$$

 OpenBabel03272506403D

 40 43  0  0  1  0  0  0  0  0999 V2000
   37.0160   27.5600   34.3280 O   0  0  0  0  0  0  0  0  0  0  0  0
   38.1710   27.1170   34.2520 C   0  0  0  0  0  0  0  0  0  0  0  0
   38.9750   26.8880   35.4330 C   0  0  2  0  0  0  0  0  0  0  0  0
   40.2150   26.1690   34.8170 C   0  0  0  0  0  0  0  0  0  0  0  0
   40.2400   26.6710   33.4090 C   0  0  0  0  0  0  0  0  0  0  0  0
   38.8430   26.7810   33.0300 N   0  0  0  0  0  0  0  0  0  0  0  0
   39.3320   27.7780   35.9630 H   0  0  0  0  0  0  0  0  0  0  0  0
   41.0930   26.5720   35.3560 H   0  0  0  0  0  0  0  0  0  0  0  0
   40.0920   25.0760   34.8970 H   0  0  0  0  0  0  0  0  0  0  0  0
   40.7960   27.6000   33.2870 H   0  0  0  0  0  0  0  0  0  0  0  0
   40.7220   25.8910   32.7700 H   0  0  0  0  0  0  0  0  0  0  0  0
   38.2850   26.5920   31.6980 C   0  0  0  0  0  0  0  0  0  0  0  0
   39.0950   26.7800   30.9770 H   0  0  0  0  0  0  0  0  0  0  0  0
   37.5200   27.3840   31.5790 H   0  0  0  0  0  0  0  0  0  0  0  0
   36.2340   25.3590   31.6250 C   0  0  0  0  0  3  0  0  0  0  0  0
   37.6260   25.2960   31.5240 C   0  0  0  0  0  0  0  0  0  0  0  0
   38.2750   24.1020   31.2840 C   0  0  0  0  0  0  0  0  0  0  0  0
   39.3540   24.1120   31.2160 H   0  0  0  0  0  0  0  0  0  0  0  0
   37.4860   22.9670   31.1460 C   0  0  0  0  0  0  0  0  0  0  0  0
   37.8420   21.6860   30.9090 N   0  0  0  0  0  0  0  0  0  0  0  0
   38.7900   21.3010   30.7840 H   0  0  0  0  0  0  0  0  0  0  0  0
   36.6980   20.9570   30.8620 C   0  0  0  0  0  0  0  0  0  0  0  0
   36.5740   19.8850   30.6920 H   0  0  0  0  0  0  0  0  0  0  0  0
   35.6050   21.7610   31.0670 C   0  0  0  0  0  3  0  0  0  0  0  0
   36.1120   23.0300   31.2450 C   0  0  0  0  0  0  0  0  0  0  0  0
   35.4560   24.2230   31.4860 C   0  0  0  0  0  3  0  0  0  0  0  0
   38.4070   25.9520   36.3570 O   0  0  0  0  0  0  0  0  0  0  0  0
   38.5580   24.5960   36.0700 C   0  0  0  0  0  0  0  0  0  0  0  0
   37.7980   24.0920   35.0310 C   0  0  0  0  0  0  0  0  0  0  0  0
   37.9300   22.7440   34.7250 C   0  0  0  0  0  0  0  0  0  0  0  0
   38.7880   21.9860   35.4500 N   0  0  0  0  0  0  0  0  0  0  0  0
   39.5210   22.4930   36.4600 C   0  0  0  0  0  0  0  0  0  0  0  0
   39.3870   23.7750   36.7400 N   0  0  0  0  0  0  0  0  0  0  0  0
   41.7620   22.1160   37.1290 C   0  0  0  0  0  0  0  0  0  0  0  0
   42.2220   23.1170   36.5090 O   0  0  0  0  0  0  0  0  0  0  0  0
   40.4120   21.6650   37.2010 N   0  0  0  0  0  0  0  0  0  0  0  0
   37.1010   24.6450   34.4220 H   0  0  0  0  0  0  0  0  0  0  0  0
   37.3560   22.3110   33.9220 H   0  0  0  0  0  0  0  0  0  0  0  0
   42.6110   21.6490   37.6120 H   0  0  0  0  0  0  0  0  0  0  0  0
   40.2280   20.8170   37.7640 H   0  0  0  0  0  0  0  0  0  0  0  0
  2  1  2  0  0  0  0
  2  3  1  0  0  0  0
  3  7  1  1  0  0  0
  3 27  1  0  0  0  0
  4  9  1  0  0  0  0
  4  8  1  0  0  0  0
  4  3  1  0  0  0  0
  5  4  1  0  0  0  0
  6  5  1  0  0  0  0
  6  2  1  0  0  0  0
 10  5  1  0  0  0  0
 11  5  1  0  0  0  0
 12  6  1  0  0  0  0
 13 12  1  0  0  0  0
 14 12  1  0  0  0  0
 16 15  1  0  0  0  0
 16 12  1  0  0  0  0
 17 16  2  0  0  0  0
 18 17  1  0  0  0  0
 19 25  2  0  0  0  0
 19 17  1  0  0  0  0
 20 19  1  0  0  0  0
 21 20  1  0  0  0  0
 22 20  1  0  0  0  0
 22 24  2  0  0  0  0
 23 22  1  0  0  0  0
 24 25  1  0  0  0  0
 25 26  1  0  0  0  0
 26 15  2  0  0  0  0
 28 27  1  0  0  0  0
 28 33  1  0  0  0  0
 29 28  2  0  0  0  0
 30 29  1  0  0  0  0
 30 31  2  0  0  0  0
 31 32  1  0  0  0  0
 32 33  2  0  0  0  0
 32 36  1  0  0  0  0
 34 36  1  0  0  0  0
 34 39  1  0  0  0  0
 35 34  2  0  0  0  0
 36 40  1  0  0  0  0
 37 29  1  0  0  0  0
 38 30  1  0  0  0  0
M  END
>  <minimizedAffinity>
-5.8991766

$$$$

 OpenBabel03272506403D

 40 43  0  0  1  0  0  0  0  0999 V2000
   40.9110   24.3080   34.9450 O   0  0  0  0  0  0  0  0  0  0  0  0
   39.8060   24.7550   35.2820 C   0  0  0  0  0  0  0  0  0  0  0  0
   39.4400   26.1360   35.0410 C   0  0  2  0  0  0  0  0  0  0  0  0
   37.9370   26.1240   35.4570 C   0  0  0  0  0  0  0  0  0  0  0  0
   37.8600   25.0010   36.4420 C   0  0  0  0  0  0  0  0  0  0  0  0
   38.7750   23.9970   35.9300 N   0  0  0  0  0  0  0  0  0  0  0  0
   39.9510   26.8900   35.6480 H   0  0  0  0  0  0  0  0  0  0  0  0
   37.7670   27.0790   35.9900 H   0  0  0  0  0  0  0  0  0  0  0  0
   37.3020   25.9790   34.5670 H   0  0  0  0  0  0  0  0  0  0  0  0
   38.0770   25.3030   37.4660 H   0  0  0  0  0  0  0  0  0  0  0  0
   36.8230   24.5850   36.4150 H   0  0  0  0  0  0  0  0  0  0  0  0
   38.6470   22.5520   36.0670 C   0  0  0  0  0  0  0  0  0  0  0  0
   38.3820   22.3490   37.1150 H   0  0  0  0  0  0  0  0  0  0  0  0
   39.6580   22.1430   35.8750 H   0  0  0  0  0  0  0  0  0  0  0  0
   36.6080   21.3580   35.6790 C   0  0  0  0  0  3  0  0  0  0  0  0
   37.7270   21.9580   35.0950 C   0  0  0  0  0  0  0  0  0  0  0  0
   37.9060   21.9640   33.7270 C   0  0  0  0  0  0  0  0  0  0  0  0
   38.7900   22.4420   33.3300 H   0  0  0  0  0  0  0  0  0  0  0  0
   36.9270   21.3500   32.9560 C   0  0  0  0  0  0  0  0  0  0  0  0
   36.8400   21.2070   31.6160 N   0  0  0  0  0  0  0  0  0  0  0  0
   37.5020   21.5350   30.8960 H   0  0  0  0  0  0  0  0  0  0  0  0
   35.6920   20.5310   31.3610 C   0  0  0  0  0  0  0  0  0  0  0  0
   35.2750   20.2250   30.3980 H   0  0  0  0  0  0  0  0  0  0  0  0
   35.0360   20.2380   32.5290 C   0  0  0  0  0  3  0  0  0  0  0  0
   35.8230   20.7590   33.5330 C   0  0  0  0  0  0  0  0  0  0  0  0
   35.6390   20.7490   34.9030 C   0  0  0  0  0  3  0  0  0  0  0  0
   39.4540   26.5120   33.6590 O   0  0  0  0  0  0  0  0  0  0  0  0
   38.2380   26.4960   32.9780 C   0  0  0  0  0  0  0  0  0  0  0  0
   37.8270   25.2780   32.4670 C   0  0  0  0  0  0  0  0  0  0  0  0
   36.6200   25.2340   31.7840 C   0  0  0  0  0  0  0  0  0  0  0  0
   35.9000   26.3750   31.6470 N   0  0  0  0  0  0  0  0  0  0  0  0
   36.3150   27.5540   32.1500 C   0  0  0  0  0  0  0  0  0  0  0  0
   37.4640   27.5810   32.7980 N   0  0  0  0  0  0  0  0  0  0  0  0
   35.1460   29.3090   33.2280 C   0  0  0  0  0  0  0  0  0  0  0  0
   35.4100   28.9030   34.3960 O   0  0  0  0  0  0  0  0  0  0  0  0
   35.5330   28.7320   31.9840 N   0  0  0  0  0  0  0  0  0  0  0  0
   38.3570   24.3410   32.5450 H   0  0  0  0  0  0  0  0  0  0  0  0
   36.2630   24.3050   31.3710 H   0  0  0  0  0  0  0  0  0  0  0  0
   34.5520   30.2060   33.3530 H   0  0  0  0  0  0  0  0  0  0  0  0
   35.2180   29.2130   31.1240 H   0  0  0  0  0  0  0  0  0  0  0  0
  1  2  2  0  0  0  0
  2  6  1  0  0  0  0
  3  2  1  0  0  0  0
  3  4  1  0  0  0  0
  3  7  1  1  0  0  0
  4  8  1  0  0  0  0
  4  5  1  0  0  0  0
  5 10  1  0  0  0  0
  6 12  1  0  0  0  0
  6  5  1  0  0  0  0
  9  4  1  0  0  0  0
 11  5  1  0  0  0  0
 12 13  1  0  0  0  0
 14 12  1  0  0  0  0
 16 15  1  0  0  0  0
 16 12  1  0  0  0  0
 17 16  2  0  0  0  0
 18 17  1  0  0  0  0
 19 25  2  0  0  0  0
 19 17  1  0  0  0  0
 20 19  1  0  0  0  0
 21 20  1  0  0  0  0
 22 20  1  0  0  0  0
 22 24  2  0  0  0  0
 23 22  1  0  0  0  0
 24 25  1  0  0  0  0
 25 26  1  0  0  0  0
 26 15  2  0  0  0  0
 27  3  1  0  0  0  0
 28 27  1  0  0  0  0
 29 37  1  0  0  0  0
 29 28  2  0  0  0  0
 30 29  1  0  0  0  0
 31 30  2  0  0  0  0
 31 32  1  0  0  0  0
 32 33  2  0  0  0  0
 33 28  1  0  0  0  0
 34 39  1  0  0  0  0
 34 35  2  0  0  0  0
 36 32  1  0  0  0  0
 36 34  1  0  0  0  0
 38 30  1  0  0  0  0
 40 36  1  0  0  0  0
M  END
>  <minimizedAffinity>
-5.88519573

$$$$

 OpenBabel03272506403D

 40 43  0  0  1  0  0  0  0  0999 V2000
   36.0100   29.7350   31.3400 O   0  0  0  0  0  0  0  0  0  0  0  0
   36.3640   28.9970   32.2710 C   0  0  0  0  0  0  0  0  0  0  0  0
   36.0030   29.2830   33.6440 C   0  0  2  0  0  0  0  0  0  0  0  0
   36.5070   27.9920   34.3600 C   0  0  0  0  0  0  0  0  0  0  0  0
   37.6050   27.5090   33.4670 C   0  0  0  0  0  0  0  0  0  0  0  0
   37.1470   27.8040   32.1220 N   0  0  0  0  0  0  0  0  0  0  0  0
   36.4970   30.1410   34.1110 H   0  0  0  0  0  0  0  0  0  0  0  0
   36.9470   28.3330   35.3160 H   0  0  0  0  0  0  0  0  0  0  0  0
   35.6760   27.2750   34.4690 H   0  0  0  0  0  0  0  0  0  0  0  0
   38.5780   27.9420   33.6990 H   0  0  0  0  0  0  0  0  0  0  0  0
   37.6840   26.3990   33.5810 H   0  0  0  0  0  0  0  0  0  0  0  0
   37.4410   27.0440   30.9160 C   0  0  0  0  0  0  0  0  0  0  0  0
   38.5140   27.1650   30.7090 H   0  0  0  0  0  0  0  0  0  0  0  0
   36.8690   27.5370   30.1050 H   0  0  0  0  0  0  0  0  0  0  0  0
   35.6330   25.5010   31.2080 C   0  0  0  0  0  3  0  0  0  0  0  0
   37.0050   25.6470   30.9910 C   0  0  0  0  0  0  0  0  0  0  0  0
   37.8340   24.5510   30.8670 C   0  0  0  0  0  0  0  0  0  0  0  0
   38.8880   24.7240   30.7000 H   0  0  0  0  0  0  0  0  0  0  0  0
   37.2450   23.2960   30.9650 C   0  0  0  0  0  0  0  0  0  0  0  0
   37.8010   22.0680   30.8840 N   0  0  0  0  0  0  0  0  0  0  0  0
   38.7910   21.8260   30.7290 H   0  0  0  0  0  0  0  0  0  0  0  0
   36.8000   21.1670   31.0460 C   0  0  0  0  0  0  0  0  0  0  0  0
   36.8520   20.0750   31.0430 H   0  0  0  0  0  0  0  0  0  0  0  0
   35.6000   21.8060   31.2310 C   0  0  0  0  0  3  0  0  0  0  0  0
   35.8900   23.1530   31.1790 C   0  0  0  0  0  0  0  0  0  0  0  0
   35.0560   24.2470   31.3050 C   0  0  0  0  0  3  0  0  0  0  0  0
   34.5910   29.3280   33.8810 O   0  0  0  0  0  0  0  0  0  0  0  0
   34.1470   30.0930   34.9580 C   0  0  0  0  0  0  0  0  0  0  0  0
   35.0130   31.0600   35.4340 C   0  0  0  0  0  0  0  0  0  0  0  0
   34.5940   31.8360   36.5060 C   0  0  0  0  0  0  0  0  0  0  0  0
   33.3670   31.6160   37.0380 N   0  0  0  0  0  0  0  0  0  0  0  0
   32.5340   30.6680   36.5630 C   0  0  0  0  0  0  0  0  0  0  0  0
   32.9450   29.9390   35.5430 N   0  0  0  0  0  0  0  0  0  0  0  0
   30.1920   30.6540   36.2160 C   0  0  0  0  0  0  0  0  0  0  0  0
   30.2690   30.9690   34.9940 O   0  0  0  0  0  0  0  0  0  0  0  0
   31.2530   30.4640   37.1480 N   0  0  0  0  0  0  0  0  0  0  0  0
   35.9980   31.2800   35.0520 H   0  0  0  0  0  0  0  0  0  0  0  0
   35.2380   32.6010   36.9070 H   0  0  0  0  0  0  0  0  0  0  0  0
   29.1350   30.5520   36.4300 H   0  0  0  0  0  0  0  0  0  0  0  0
   30.9900   30.2060   38.1140 H   0  0  0  0  0  0  0  0  0  0  0  0
  1  2  2  0  0  0  0
  2  3  1  0  0  0  0
  3 27  1  0  0  0  0
  3  7  1  1  0  0  0
  3  4  1  0  0  0  0
  4  9  1  0  0  0  0
  4  8  1  0  0  0  0
  5 11  1  0  0  0  0
  5 10  1  0  0  0  0
  5  4  1  0  0  0  0
  6  2  1  0  0  0  0
  6  5  1  0  0  0  0
 12 16  1  0  0  0  0
 12  6  1  0  0  0  0
 13 12  1  0  0  0  0
 14 12  1  0  0  0  0
 15 26  1  0  0  0  0
 16 15  2  0  0  0  0
 17 19  2  0  0  0  0
 17 16  1  0  0  0  0
 18 17  1  0  0  0  0
 19 25  1  0  0  0  0
 20 19  1  0  0  0  0
 20 22  1  0  0  0  0
 21 20  1  0  0  0  0
 22 24  2  0  0  0  0
 23 22  1  0  0  0  0
 25 24  1  0  0  0  0
 25 26  2  0  0  0  0
 27 28  1  0  0  0  0
 28 29  2  0  0  0  0
 28 33  1  0  0  0  0
 29 30  1  0  0  0  0
 30 38  1  0  0  0  0
 30 31  2  0  0  0  0
 32 31  1  0  0  0  0
 32 36  1  0  0  0  0
 33 32  2  0  0  0  0
 34 39  1  0  0  0  0
 34 36  1  0  0  0  0
 35 34  2  0  0  0  0
 36 40  1  0  0  0  0
 37 29  1  0  0  0  0
M  END
>  <minimizedAffinity>
-5.87475491

$$$$
