
 OpenBabel03272501503D

 23 25  0  0  0  0  0  0  0  0999 V2000
   38.2730   26.7720   35.8790 C   0  0  0  0  0  3  0  0  0  0  0  0
   38.3920   25.5660   35.2260 C   0  0  0  0  0  0  0  0  0  0  0  0
   37.8160   25.3950   33.9880 C   0  0  0  0  0  0  0  0  0  0  0  0
   37.8980   24.4610   33.4610 H   0  0  0  0  0  0  0  0  0  0  0  0
   37.1210   26.4120   33.3910 C   0  0  0  0  0  0  0  0  0  0  0  0
   36.4670   26.5050   32.1970 N   0  0  0  0  0  0  0  0  0  0  0  0
   36.3750   25.7470   31.4610 H   0  0  0  0  0  0  0  0  0  0  0  0
   35.9270   27.7540   32.0700 C   0  0  0  0  0  0  0  0  0  0  0  0
   35.3550   28.1070   31.2240 H   0  0  0  0  0  0  0  0  0  0  0  0
   36.2310   28.5000   33.2020 C   0  0  0  0  0  3  0  0  0  0  0  0
   36.9640   27.6440   33.9910 C   0  0  0  0  0  0  0  0  0  0  0  0
   37.5490   27.7690   35.2150 C   0  0  0  0  0  3  0  0  0  0  0  0
   40.9510   22.9710   36.2040 C   0  0  0  0  0  0  0  0  0  0  0  0
   40.3490   23.9790   35.4380 C   0  0  0  0  0  0  0  0  0  0  0  0
   39.1410   24.5170   35.9030 C   0  0  0  0  0  0  0  0  0  0  0  0
   38.6330   24.0250   37.0710 N   0  0  0  0  0  0  0  0  0  0  0  0
   39.2590   23.0460   37.7750 C   0  0  0  0  0  0  0  0  0  0  0  0
   40.4210   22.5110   37.3480 N   0  0  0  0  0  0  0  0  0  0  0  0
   38.5950   22.6520   38.9620 N   0  0  0  0  0  0  0  0  0  0  0  0
   41.8940   22.5640   35.8220 H   0  0  0  0  0  0  0  0  0  0  0  0
   40.7520   24.3640   34.5190 H   0  0  0  0  0  0  0  0  0  0  0  0
   39.2910   22.7030   39.7500 H   0  0  0  0  0  0  0  0  0  0  0  0
   37.5760   22.3640   39.0170 H   0  0  0  0  0  0  0  0  0  0  0  0
  2  1  1  0  0  0  0
  2 15  1  0  0  0  0
  3  2  2  0  0  0  0
  4  3  1  0  0  0  0
  5  3  1  0  0  0  0
  5 11  2  0  0  0  0
  6  5  1  0  0  0  0
  7  6  1  0  0  0  0
  8  6  1  0  0  0  0
  8 10  2  0  0  0  0
  9  8  1  0  0  0  0
 10 11  1  0  0  0  0
 11 12  1  0  0  0  0
 12  1  2  0  0  0  0
 13 18  1  0  0  0  0
 14 15  1  0  0  0  0
 14 13  2  0  0  0  0
 15 16  2  0  0  0  0
 16 17  1  0  0  0  0
 17 19  1  0  0  0  0
 18 17  2  0  0  0  0
 19 23  1  0  0  0  0
 19 22  1  0  0  0  0
 20 13  1  0  0  0  0
 21 14  1  0  0  0  0
M  END
>  <minimizedAffinity>
-5.47248316

$$$$

 OpenBabel03272501503D

 23 25  0  0  0  0  0  0  0  0999 V2000
   38.0110   26.8970   35.8660 C   0  0  0  0  0  3  0  0  0  0  0  0
   38.0900   25.6060   35.3920 C   0  0  0  0  0  0  0  0  0  0  0  0
   37.6380   25.3100   34.1260 C   0  0  0  0  0  0  0  0  0  0  0  0
   37.6910   24.3100   33.7370 H   0  0  0  0  0  0  0  0  0  0  0  0
   37.1080   26.2850   33.3250 C   0  0  0  0  0  0  0  0  0  0  0  0
   36.5980   26.2630   32.0590 N   0  0  0  0  0  0  0  0  0  0  0  0
   36.5170   25.4190   31.4210 H   0  0  0  0  0  0  0  0  0  0  0  0
   36.1910   27.5190   31.7090 C   0  0  0  0  0  0  0  0  0  0  0  0
   35.7500   27.7950   30.7620 H   0  0  0  0  0  0  0  0  0  0  0  0
   36.4370   28.3890   32.7640 C   0  0  0  0  0  3  0  0  0  0  0  0
   37.0000   27.5960   33.7390 C   0  0  0  0  0  0  0  0  0  0  0  0
   37.4580   27.8440   34.9970 C   0  0  0  0  0  3  0  0  0  0  0  0
   38.8170   23.3010   38.2890 C   0  0  0  0  0  0  0  0  0  0  0  0
   38.1520   24.2890   37.5490 C   0  0  0  0  0  0  0  0  0  0  0  0
   38.6620   24.6070   36.2830 C   0  0  0  0  0  0  0  0  0  0  0  0
   39.7710   23.9350   35.8550 N   0  0  0  0  0  0  0  0  0  0  0  0
   40.3760   22.9840   36.6140 C   0  0  0  0  0  0  0  0  0  0  0  0
   39.9060   22.6600   37.8360 N   0  0  0  0  0  0  0  0  0  0  0  0
   41.5140   22.3860   36.0200 N   0  0  0  0  0  0  0  0  0  0  0  0
   38.4020   23.0680   39.2760 H   0  0  0  0  0  0  0  0  0  0  0  0
   37.2790   24.8160   37.8890 H   0  0  0  0  0  0  0  0  0  0  0  0
   41.3830   21.3430   36.0580 H   0  0  0  0  0  0  0  0  0  0  0  0
   42.3360   22.9210   35.6160 H   0  0  0  0  0  0  0  0  0  0  0  0
  2  1  1  0  0  0  0
  2 15  1  0  0  0  0
  3  2  2  0  0  0  0
  4  3  1  0  0  0  0
  5 11  2  0  0  0  0
  5  3  1  0  0  0  0
  6  5  1  0  0  0  0
  7  6  1  0  0  0  0
  8  6  1  0  0  0  0
  8 10  2  0  0  0  0
  9  8  1  0  0  0  0
 10 11  1  0  0  0  0
 11 12  1  0  0  0  0
 12  1  2  0  0  0  0
 13 20  1  0  0  0  0
 14 21  1  0  0  0  0
 14 13  2  0  0  0  0
 15 14  1  0  0  0  0
 16 15  2  0  0  0  0
 16 17  1  0  0  0  0
 17 18  2  0  0  0  0
 18 13  1  0  0  0  0
 19 22  1  0  0  0  0
 19 17  1  0  0  0  0
 23 19  1  0  0  0  0
M  END
>  <minimizedAffinity>
-5.05129719

$$$$

 OpenBabel03272501503D

 23 25  0  0  0  0  0  0  0  0999 V2000
   38.9030   24.5120   34.1690 C   0  0  0  0  0  3  0  0  0  0  0  0
   37.9060   25.3520   34.6120 C   0  0  0  0  0  0  0  0  0  0  0  0
   37.5460   25.3510   35.9410 C   0  0  0  0  0  0  0  0  0  0  0  0
   36.7710   26.0000   36.3060 H   0  0  0  0  0  0  0  0  0  0  0  0
   38.1680   24.5220   36.8350 C   0  0  0  0  0  0  0  0  0  0  0  0
   38.0080   24.3260   38.1760 N   0  0  0  0  0  0  0  0  0  0  0  0
   37.3190   24.8220   38.8130 H   0  0  0  0  0  0  0  0  0  0  0  0
   38.8860   23.3720   38.6050 C   0  0  0  0  0  0  0  0  0  0  0  0
   38.9810   23.0180   39.6210 H   0  0  0  0  0  0  0  0  0  0  0  0
   39.6420   22.9290   37.5260 C   0  0  0  0  0  3  0  0  0  0  0  0
   39.1730   23.6570   36.4570 C   0  0  0  0  0  0  0  0  0  0  0  0
   39.4970   23.6910   35.1340 C   0  0  0  0  0  3  0  0  0  0  0  0
   36.5870   28.3030   32.6660 C   0  0  0  0  0  0  0  0  0  0  0  0
   37.2320   27.6120   33.7010 C   0  0  0  0  0  0  0  0  0  0  0  0
   37.2770   26.2140   33.6210 C   0  0  0  0  0  0  0  0  0  0  0  0
   36.6900   25.6180   32.5410 N   0  0  0  0  0  0  0  0  0  0  0  0
   36.0780   26.3370   31.5640 C   0  0  0  0  0  0  0  0  0  0  0  0
   36.0210   27.6840   31.6180 N   0  0  0  0  0  0  0  0  0  0  0  0
   35.5220   25.5630   30.5170 N   0  0  0  0  0  0  0  0  0  0  0  0
   36.5640   29.3950   32.7480 H   0  0  0  0  0  0  0  0  0  0  0  0
   37.6920   28.0840   34.5500 H   0  0  0  0  0  0  0  0  0  0  0  0
   35.8880   25.9450   29.6080 H   0  0  0  0  0  0  0  0  0  0  0  0
   34.8600   24.7470   30.6560 H   0  0  0  0  0  0  0  0  0  0  0  0
  1  2  2  0  0  0  0
  1 12  1  0  0  0  0
  2  3  1  0  0  0  0
  3  4  1  0  0  0  0
  3  5  2  0  0  0  0
  5  6  1  0  0  0  0
  6  8  1  0  0  0  0
  6  7  1  0  0  0  0
  8  9  1  0  0  0  0
 10  8  2  0  0  0  0
 11  5  1  0  0  0  0
 11 10  1  0  0  0  0
 12 11  2  0  0  0  0
 13 20  1  0  0  0  0
 13 14  1  0  0  0  0
 14 21  1  0  0  0  0
 15 14  2  0  0  0  0
 15  2  1  0  0  0  0
 16 15  1  0  0  0  0
 17 18  1  0  0  0  0
 17 16  2  0  0  0  0
 18 13  2  0  0  0  0
 19 23  1  0  0  0  0
 19 17  1  0  0  0  0
 22 19  1  0  0  0  0
M  END
>  <minimizedAffinity>
-5.04970312

$$$$

 OpenBabel03272501503D

 23 25  0  0  0  0  0  0  0  0999 V2000
   38.3470   24.7430   33.5540 C   0  0  0  0  0  3  0  0  0  0  0  0
   38.4690   25.1120   34.8750 C   0  0  0  0  0  0  0  0  0  0  0  0
   37.8870   26.2790   35.3190 C   0  0  0  0  0  0  0  0  0  0  0  0
   37.9710   26.5840   36.3460 H   0  0  0  0  0  0  0  0  0  0  0  0
   37.1860   27.0830   34.4620 C   0  0  0  0  0  0  0  0  0  0  0  0
   36.5270   28.2650   34.6380 N   0  0  0  0  0  0  0  0  0  0  0  0
   36.4330   28.8120   35.5420 H   0  0  0  0  0  0  0  0  0  0  0  0
   35.9820   28.6650   33.4510 C   0  0  0  0  0  0  0  0  0  0  0  0
   35.4040   29.5640   33.2960 H   0  0  0  0  0  0  0  0  0  0  0  0
   36.2860   27.7280   32.4710 C   0  0  0  0  0  3  0  0  0  0  0  0
   37.0270   26.7720   33.1280 C   0  0  0  0  0  0  0  0  0  0  0  0
   37.6180   25.6100   32.7320 C   0  0  0  0  0  3  0  0  0  0  0  0
   41.1050   22.8860   36.3990 C   0  0  0  0  0  0  0  0  0  0  0  0
   40.5080   23.7370   35.4590 C   0  0  0  0  0  0  0  0  0  0  0  0
   39.2240   24.2230   35.7440 C   0  0  0  0  0  0  0  0  0  0  0  0
   38.6420   23.8340   36.9170 N   0  0  0  0  0  0  0  0  0  0  0  0
   39.2680   23.0070   37.7940 C   0  0  0  0  0  0  0  0  0  0  0  0
   40.5020   22.5250   37.5430 N   0  0  0  0  0  0  0  0  0  0  0  0
   38.5230   22.7050   38.9600 N   0  0  0  0  0  0  0  0  0  0  0  0
   42.1080   22.5180   36.1570 H   0  0  0  0  0  0  0  0  0  0  0  0
   40.9680   24.0400   34.5370 H   0  0  0  0  0  0  0  0  0  0  0  0
   39.1340   22.9120   39.7920 H   0  0  0  0  0  0  0  0  0  0  0  0
   37.5280   22.3390   38.9630 H   0  0  0  0  0  0  0  0  0  0  0  0
  1  2  1  0  0  0  0
  2  3  2  0  0  0  0
  2 15  1  0  0  0  0
  3  4  1  0  0  0  0
  5  6  1  0  0  0  0
  5  3  1  0  0  0  0
  6  7  1  0  0  0  0
  8  6  1  0  0  0  0
  9  8  1  0  0  0  0
 10 11  1  0  0  0  0
 10  8  2  0  0  0  0
 11  5  2  0  0  0  0
 12 11  1  0  0  0  0
 12  1  2  0  0  0  0
 13 18  1  0  0  0  0
 14 15  1  0  0  0  0
 14 13  2  0  0  0  0
 15 16  2  0  0  0  0
 16 17  1  0  0  0  0
 17 19  1  0  0  0  0
 18 17  2  0  0  0  0
 19 23  1  0  0  0  0
 19 22  1  0  0  0  0
 20 13  1  0  0  0  0
 21 14  1  0  0  0  0
M  END
>  <minimizedAffinity>
-5.03479767

$$$$

 OpenBabel03272501503D

 23 25  0  0  0  0  0  0  0  0999 V2000
   36.2830   21.0050   35.4290 C   0  0  0  0  0  3  0  0  0  0  0  0
   37.3200   21.8570   35.1200 C   0  0  0  0  0  0  0  0  0  0  0  0
   37.5560   22.2050   33.8090 C   0  0  0  0  0  0  0  0  0  0  0  0
   38.3600   22.8680   33.5470 H   0  0  0  0  0  0  0  0  0  0  0  0
   36.7710   21.7140   32.8000 C   0  0  0  0  0  0  0  0  0  0  0  0
   36.7880   21.8950   31.4480 N   0  0  0  0  0  0  0  0  0  0  0  0
   37.4660   22.4960   30.8950 H   0  0  0  0  0  0  0  0  0  0  0  0
   35.7780   21.1720   30.8790 C   0  0  0  0  0  0  0  0  0  0  0  0
   35.5550   21.1290   29.8230 H   0  0  0  0  0  0  0  0  0  0  0  0
   35.0800   20.5010   31.8760 C   0  0  0  0  0  3  0  0  0  0  0  0
   35.7180   20.8580   33.0410 C   0  0  0  0  0  0  0  0  0  0  0  0
   35.5200   20.5400   34.3510 C   0  0  0  0  0  3  0  0  0  0  0  0
   38.5330   23.5450   38.2680 C   0  0  0  0  0  0  0  0  0  0  0  0
   37.6320   23.1480   37.2710 C   0  0  0  0  0  0  0  0  0  0  0  0
   38.1240   22.3510   36.2280 C   0  0  0  0  0  0  0  0  0  0  0  0
   39.4470   22.0160   36.2530 N   0  0  0  0  0  0  0  0  0  0  0  0
   40.2780   22.4280   37.2450 C   0  0  0  0  0  0  0  0  0  0  0  0
   39.8300   23.1960   38.2590 N   0  0  0  0  0  0  0  0  0  0  0  0
   41.6190   21.9910   37.1170 N   0  0  0  0  0  0  0  0  0  0  0  0
   38.1280   24.1670   39.0730 H   0  0  0  0  0  0  0  0  0  0  0  0
   36.5900   23.4140   37.2540 H   0  0  0  0  0  0  0  0  0  0  0  0
   41.8940   21.5340   38.0240 H   0  0  0  0  0  0  0  0  0  0  0  0
   42.2140   22.1140   36.2480 H   0  0  0  0  0  0  0  0  0  0  0  0
  2  1  1  0  0  0  0
  2 15  1  0  0  0  0
  3  2  2  0  0  0  0
  4  3  1  0  0  0  0
  5 11  2  0  0  0  0
  5  3  1  0  0  0  0
  6  5  1  0  0  0  0
  7  6  1  0  0  0  0
  8  6  1  0  0  0  0
  8 10  2  0  0  0  0
  9  8  1  0  0  0  0
 10 11  1  0  0  0  0
 11 12  1  0  0  0  0
 12  1  2  0  0  0  0
 13 20  1  0  0  0  0
 14 13  2  0  0  0  0
 15 16  2  0  0  0  0
 15 14  1  0  0  0  0
 16 17  1  0  0  0  0
 17 18  2  0  0  0  0
 18 13  1  0  0  0  0
 19 17  1  0  0  0  0
 19 22  1  0  0  0  0
 21 14  1  0  0  0  0
 23 19  1  0  0  0  0
M  END
>  <minimizedAffinity>
-5.00991011

$$$$

 OpenBabel03272501503D

 23 25  0  0  0  0  0  0  0  0999 V2000
   37.6920   27.4700   35.1090 C   0  0  0  0  0  3  0  0  0  0  0  0
   37.2960   26.9600   33.8930 C   0  0  0  0  0  0  0  0  0  0  0  0
   37.4260   25.6140   33.6370 C   0  0  0  0  0  0  0  0  0  0  0  0
   37.1230   25.1960   32.6940 H   0  0  0  0  0  0  0  0  0  0  0  0
   37.9460   24.7680   34.5790 C   0  0  0  0  0  0  0  0  0  0  0  0
   38.1800   23.4240   34.5820 N   0  0  0  0  0  0  0  0  0  0  0  0
   37.9820   22.7420   33.7930 H   0  0  0  0  0  0  0  0  0  0  0  0
   38.7210   23.0580   35.7820 C   0  0  0  0  0  0  0  0  0  0  0  0
   39.0050   22.0540   36.0630 H   0  0  0  0  0  0  0  0  0  0  0  0
   38.8470   24.1830   36.5870 C   0  0  0  0  0  3  0  0  0  0  0  0
   38.3620   25.2140   35.8150 C   0  0  0  0  0  0  0  0  0  0  0  0
   38.2160   26.5520   36.0260 C   0  0  0  0  0  3  0  0  0  0  0  0
   35.5260   29.8390   32.2150 C   0  0  0  0  0  0  0  0  0  0  0  0
   35.9830   29.0260   33.2620 C   0  0  0  0  0  0  0  0  0  0  0  0
   36.7490   27.9010   32.9270 C   0  0  0  0  0  0  0  0  0  0  0  0
   36.9990   27.6720   31.6040 N   0  0  0  0  0  0  0  0  0  0  0  0
   36.5320   28.4940   30.6280 C   0  0  0  0  0  0  0  0  0  0  0  0
   35.7920   29.5820   30.9240 N   0  0  0  0  0  0  0  0  0  0  0  0
   36.8830   28.1100   29.3110 N   0  0  0  0  0  0  0  0  0  0  0  0
   34.9290   30.7120   32.4980 H   0  0  0  0  0  0  0  0  0  0  0  0
   35.7840   29.2090   34.3020 H   0  0  0  0  0  0  0  0  0  0  0  0
   37.3190   28.9450   28.8410 H   0  0  0  0  0  0  0  0  0  0  0  0
   36.7240   27.1460   28.9000 H   0  0  0  0  0  0  0  0  0  0  0  0
  1 12  1  0  0  0  0
  2  1  2  0  0  0  0
  3  2  1  0  0  0  0
  3  5  2  0  0  0  0
  4  3  1  0  0  0  0
  5  6  1  0  0  0  0
  5 11  1  0  0  0  0
  6  8  1  0  0  0  0
  7  6  1  0  0  0  0
  8  9  1  0  0  0  0
  8 10  2  0  0  0  0
 11 12  2  0  0  0  0
 11 10  1  0  0  0  0
 13 20  1  0  0  0  0
 13 14  1  0  0  0  0
 14 21  1  0  0  0  0
 15 14  2  0  0  0  0
 15  2  1  0  0  0  0
 16 15  1  0  0  0  0
 17 18  1  0  0  0  0
 17 16  2  0  0  0  0
 18 13  2  0  0  0  0
 19 17  1  0  0  0  0
 22 19  1  0  0  0  0
 23 19  1  0  0  0  0
M  END
>  <minimizedAffinity>
-4.99852324

$$$$

 OpenBabel03272501503D

 23 25  0  0  0  0  0  0  0  0999 V2000
   37.3570   23.2950   32.8250 C   0  0  0  0  0  3  0  0  0  0  0  0
   36.3780   22.8250   31.9770 C   0  0  0  0  0  0  0  0  0  0  0  0
   35.7090   23.6980   31.1490 C   0  0  0  0  0  0  0  0  0  0  0  0
   34.9430   23.3510   30.4800 H   0  0  0  0  0  0  0  0  0  0  0  0
   36.0030   25.0350   31.1550 C   0  0  0  0  0  0  0  0  0  0  0  0
   35.5020   26.0920   30.4520 N   0  0  0  0  0  0  0  0  0  0  0  0
   34.7370   26.0620   29.7170 H   0  0  0  0  0  0  0  0  0  0  0  0
   36.1420   27.2370   30.8330 C   0  0  0  0  0  0  0  0  0  0  0  0
   35.9490   28.2250   30.4400 H   0  0  0  0  0  0  0  0  0  0  0  0
   37.0840   26.9300   31.8070 C   0  0  0  0  0  3  0  0  0  0  0  0
   36.9700   25.5700   31.9790 C   0  0  0  0  0  0  0  0  0  0  0  0
   37.6060   24.6720   32.7810 C   0  0  0  0  0  3  0  0  0  0  0  0
   35.4230   19.3240   33.0060 C   0  0  0  0  0  0  0  0  0  0  0  0
   35.6390   20.7030   33.1340 C   0  0  0  0  0  0  0  0  0  0  0  0
   36.1050   21.3960   32.0090 C   0  0  0  0  0  0  0  0  0  0  0  0
   36.3170   20.6820   30.8640 N   0  0  0  0  0  0  0  0  0  0  0  0
   36.0900   19.3440   30.7950 C   0  0  0  0  0  0  0  0  0  0  0  0
   35.6430   18.6550   31.8640 N   0  0  0  0  0  0  0  0  0  0  0  0
   36.3620   18.7610   29.5340 N   0  0  0  0  0  0  0  0  0  0  0  0
   35.0590   18.8010   33.8980 H   0  0  0  0  0  0  0  0  0  0  0  0
   35.4710   21.2620   34.0370 H   0  0  0  0  0  0  0  0  0  0  0  0
   35.5090   18.2180   29.2420 H   0  0  0  0  0  0  0  0  0  0  0  0
   37.2720   18.8710   29.0000 H   0  0  0  0  0  0  0  0  0  0  0  0
  2 15  1  0  0  0  0
  2  1  2  0  0  0  0
  3  5  2  0  0  0  0
  3  2  1  0  0  0  0
  4  3  1  0  0  0  0
  5 11  1  0  0  0  0
  6  8  1  0  0  0  0
  6  5  1  0  0  0  0
  7  6  1  0  0  0  0
  8 10  2  0  0  0  0
  9  8  1  0  0  0  0
 10 11  1  0  0  0  0
 11 12  2  0  0  0  0
 12  1  1  0  0  0  0
 13 14  1  0  0  0  0
 13 20  1  0  0  0  0
 14 21  1  0  0  0  0
 15 14  2  0  0  0  0
 16 15  1  0  0  0  0
 17 16  2  0  0  0  0
 17 18  1  0  0  0  0
 18 13  2  0  0  0  0
 19 17  1  0  0  0  0
 22 19  1  0  0  0  0
 23 19  1  0  0  0  0
M  END
>  <minimizedAffinity>
-4.88372278

$$$$

 OpenBabel03272501503D

 23 25  0  0  0  0  0  0  0  0999 V2000
   37.1950   26.9850   34.7710 C   0  0  0  0  0  3  0  0  0  0  0  0
   37.6360   25.8040   34.2170 C   0  0  0  0  0  0  0  0  0  0  0  0
   37.6360   25.6450   32.8490 C   0  0  0  0  0  0  0  0  0  0  0  0
   37.9770   24.7310   32.3970 H   0  0  0  0  0  0  0  0  0  0  0  0
   37.2020   26.6480   32.0260 C   0  0  0  0  0  0  0  0  0  0  0  0
   37.0990   26.7480   30.6690 N   0  0  0  0  0  0  0  0  0  0  0  0
   37.3600   26.0070   29.9560 H   0  0  0  0  0  0  0  0  0  0  0  0
   36.5980   27.9750   30.3390 C   0  0  0  0  0  0  0  0  0  0  0  0
   36.4130   28.3280   29.3350 H   0  0  0  0  0  0  0  0  0  0  0  0
   36.3650   28.7010   31.5010 C   0  0  0  0  0  3  0  0  0  0  0  0
   36.7470   27.8540   32.5170 C   0  0  0  0  0  0  0  0  0  0  0  0
   36.7630   27.9690   33.8740 C   0  0  0  0  0  3  0  0  0  0  0  0
   39.1040   22.6850   35.7490 C   0  0  0  0  0  0  0  0  0  0  0  0
   38.7290   23.5860   34.7430 C   0  0  0  0  0  0  0  0  0  0  0  0
   38.0880   24.7690   35.1350 C   0  0  0  0  0  0  0  0  0  0  0  0
   37.8720   24.9650   36.4700 N   0  0  0  0  0  0  0  0  0  0  0  0
   38.2580   24.0570   37.4040 C   0  0  0  0  0  0  0  0  0  0  0  0
   38.8760   22.9110   37.0520 N   0  0  0  0  0  0  0  0  0  0  0  0
   37.9580   24.4160   38.7400 N   0  0  0  0  0  0  0  0  0  0  0  0
   39.6040   21.7670   35.4210 H   0  0  0  0  0  0  0  0  0  0  0  0
   38.9000   23.4290   33.6940 H   0  0  0  0  0  0  0  0  0  0  0  0
   38.8450   24.3340   39.3000 H   0  0  0  0  0  0  0  0  0  0  0  0
   37.0010   24.7140   39.0850 H   0  0  0  0  0  0  0  0  0  0  0  0
  2  1  1  0  0  0  0
  2 15  1  0  0  0  0
  3  2  2  0  0  0  0
  4  3  1  0  0  0  0
  5 11  2  0  0  0  0
  5  3  1  0  0  0  0
  6  5  1  0  0  0  0
  7  6  1  0  0  0  0
  8  6  1  0  0  0  0
  8 10  2  0  0  0  0
  9  8  1  0  0  0  0
 10 11  1  0  0  0  0
 11 12  1  0  0  0  0
 12  1  2  0  0  0  0
 13 18  1  0  0  0  0
 14 15  1  0  0  0  0
 14 13  2  0  0  0  0
 15 16  2  0  0  0  0
 16 17  1  0  0  0  0
 17 19  1  0  0  0  0
 18 17  2  0  0  0  0
 19 23  1  0  0  0  0
 19 22  1  0  0  0  0
 20 13  1  0  0  0  0
 21 14  1  0  0  0  0
M  END
>  <minimizedAffinity>
-4.81894732

$$$$

 OpenBabel03272501503D

 23 25  0  0  0  0  0  0  0  0999 V2000
   36.1040   28.8470   34.5180 C   0  0  0  0  0  3  0  0  0  0  0  0
   35.4520   30.0100   34.1730 C   0  0  0  0  0  0  0  0  0  0  0  0
   35.3540   30.3760   32.8490 C   0  0  0  0  0  0  0  0  0  0  0  0
   34.8490   31.2800   32.5590 H   0  0  0  0  0  0  0  0  0  0  0  0
   35.8970   29.5970   31.8640 C   0  0  0  0  0  0  0  0  0  0  0  0
   35.9420   29.7250   30.5060 N   0  0  0  0  0  0  0  0  0  0  0  0
   35.5290   30.5130   29.9290 H   0  0  0  0  0  0  0  0  0  0  0  0
   36.6120   28.6630   29.9700 C   0  0  0  0  0  0  0  0  0  0  0  0
   36.7970   28.5040   28.9170 H   0  0  0  0  0  0  0  0  0  0  0  0
   37.0190   27.8150   30.9930 C   0  0  0  0  0  3  0  0  0  0  0  0
   36.5630   28.4210   32.1420 C   0  0  0  0  0  0  0  0  0  0  0  0
   36.6370   28.0970   33.4630 C   0  0  0  0  0  3  0  0  0  0  0  0
   34.8910   32.5140   36.9390 C   0  0  0  0  0  0  0  0  0  0  0  0
   35.5670   31.8440   35.9100 C   0  0  0  0  0  0  0  0  0  0  0  0
   34.8920   30.8020   35.2580 C   0  0  0  0  0  0  0  0  0  0  0  0
   33.6230   30.5110   35.6680 N   0  0  0  0  0  0  0  0  0  0  0  0
   33.0130   31.1940   36.6720 C   0  0  0  0  0  0  0  0  0  0  0  0
   33.6420   32.1990   37.3160 N   0  0  0  0  0  0  0  0  0  0  0  0
   31.6980   30.7630   36.9710 N   0  0  0  0  0  0  0  0  0  0  0  0
   35.4360   33.3240   37.4350 H   0  0  0  0  0  0  0  0  0  0  0  0
   36.5660   32.0750   35.5890 H   0  0  0  0  0  0  0  0  0  0  0  0
   31.0720   31.6090   36.9520 H   0  0  0  0  0  0  0  0  0  0  0  0
   31.4230   29.7590   37.1720 H   0  0  0  0  0  0  0  0  0  0  0  0
  2  1  1  0  0  0  0
  2 15  1  0  0  0  0
  3  2  2  0  0  0  0
  4  3  1  0  0  0  0
  5 11  2  0  0  0  0
  5  3  1  0  0  0  0
  6  5  1  0  0  0  0
  7  6  1  0  0  0  0
  8  6  1  0  0  0  0
  8 10  2  0  0  0  0
  9  8  1  0  0  0  0
 10 11  1  0  0  0  0
 11 12  1  0  0  0  0
 12  1  2  0  0  0  0
 13 18  1  0  0  0  0
 13 20  1  0  0  0  0
 14 13  2  0  0  0  0
 15 16  2  0  0  0  0
 15 14  1  0  0  0  0
 16 17  1  0  0  0  0
 17 19  1  0  0  0  0
 17 18  2  0  0  0  0
 19 23  1  0  0  0  0
 21 14  1  0  0  0  0
 22 19  1  0  0  0  0
M  END
>  <minimizedAffinity>
-4.81067753

$$$$
