
 OpenBabel03272509303D

 41 44  0  0  1  0  0  0  0  0999 V2000
   36.3650   30.7010   49.0270 C   0  0  2  0  0  0  0  0  0  0  0  0
   37.3440   31.4820   49.8520 C   0  0  0  0  0  0  0  0  0  0  0  0
   38.1270   30.6230   50.8140 C   0  0  0  0  0  0  0  0  0  0  0  0
   37.1980   29.8220   51.7200 C   0  0  0  0  0  0  0  0  0  0  0  0
   35.9290   29.3670   51.0490 C   0  0  0  0  0  0  0  0  0  0  0  0
   36.1900   29.3060   49.5320 C   0  0  1  0  0  0  0  0  0  0  0  0
   35.3330   31.1510   48.9960 H   0  0  0  0  0  0  0  0  0  0  0  0
   36.6830   32.1170   50.5350 H   0  0  0  0  0  0  0  0  0  0  0  0
   37.9720   32.1870   49.3450 H   0  0  0  0  0  0  0  0  0  0  0  0
   38.6630   31.3260   51.4930 H   0  0  0  0  0  0  0  0  0  0  0  0
   38.8800   29.9800   50.3400 H   0  0  0  0  0  0  0  0  0  0  0  0
   37.7630   28.9100   52.0100 H   0  0  0  0  0  0  0  0  0  0  0  0
   36.9490   30.3850   52.6360 H   0  0  0  0  0  0  0  0  0  0  0  0
   35.1270   30.1140   51.1660 H   0  0  0  0  0  0  0  0  0  0  0  0
   35.6230   28.3860   51.4440 H   0  0  0  0  0  0  0  0  0  0  0  0
   37.1120   28.7780   49.5200 H   0  0  0  0  0  0  0  0  0  0  0  0
   36.7870   30.6460   47.6030 C   0  0  0  0  0  0  0  0  0  0  0  0
   38.1560   30.8400   47.3690 C   0  0  0  0  0  0  0  0  0  0  0  0
   38.5810   30.7880   46.0360 C   0  0  0  0  0  0  0  0  0  0  0  0
   37.6490   30.5520   45.0520 N   0  0  0  0  0  0  0  0  0  0  0  0
   36.3210   30.3670   45.3360 C   0  0  0  0  0  0  0  0  0  0  0  0
   35.9120   30.4180   46.6180 N   0  0  0  0  0  0  0  0  0  0  0  0
   38.9830   31.0220   48.0280 H   0  0  0  0  0  0  0  0  0  0  0  0
   39.5970   30.9200   45.7010 H   0  0  0  0  0  0  0  0  0  0  0  0
   35.6700   30.1870   44.4890 H   0  0  0  0  0  0  0  0  0  0  0  0
   33.8830   28.3580   49.0310 C   0  0  0  0  0  0  0  0  0  0  0  0
   33.1080   28.9410   49.8800 O   0  0  0  0  0  0  0  0  0  0  0  0
   35.2690   28.5170   48.7990 N   0  0  0  0  0  0  0  0  0  0  0  0
   35.6200   27.9630   47.9580 H   0  0  0  0  0  0  0  0  0  0  0  0
   33.6220   26.3070   47.6360 C   0  0  0  0  0  3  0  0  0  0  0  0
   33.0750   27.4110   48.2520 C   0  0  0  0  0  0  0  0  0  0  0  0
   31.7260   27.5190   48.0550 C   0  0  0  0  0  0  0  0  0  0  0  0
   31.1550   28.3190   48.4660 H   0  0  0  0  0  0  0  0  0  0  0  0
   30.9570   26.6380   47.3260 C   0  0  0  0  0  0  0  0  0  0  0  0
   29.6540   26.5410   47.0040 N   0  0  0  0  0  0  0  0  0  0  0  0
   28.9190   27.2210   47.3050 H   0  0  0  0  0  0  0  0  0  0  0  0
   29.4220   25.4670   46.2540 C   0  0  0  0  0  0  0  0  0  0  0  0
   28.4450   25.1740   45.8670 H   0  0  0  0  0  0  0  0  0  0  0  0
   30.6110   24.8130   46.0590 C   0  0  0  0  0  3  0  0  0  0  0  0
   31.5470   25.5550   46.7320 C   0  0  0  0  0  0  0  0  0  0  0  0
   32.8930   25.3820   46.8850 C   0  0  0  0  0  3  0  0  0  0  0  0
  1  7  1  1  0  0  0
  1  6  1  0  0  0  0
  1  2  1  0  0  0  0
  2  8  1  0  0  0  0
  2  3  1  0  0  0  0
  3 10  1  0  0  0  0
  3  4  1  0  0  0  0
  4 12  1  0  0  0  0
  4 13  1  0  0  0  0
  5 14  1  0  0  0  0
  5 15  1  0  0  0  0
  5  4  1  0  0  0  0
  6 16  1  6  0  0  0
  6  5  1  0  0  0  0
  9  2  1  0  0  0  0
 11  3  1  0  0  0  0
 17  1  1  0  0  0  0
 18 17  1  0  0  0  0
 18 23  1  0  0  0  0
 19 18  2  0  0  0  0
 20 21  2  0  0  0  0
 20 19  1  0  0  0  0
 21 22  1  0  0  0  0
 22 17  2  0  0  0  0
 24 19  1  0  0  0  0
 25 21  1  0  0  0  0
 26 27  2  0  0  0  0
 28 26  1  0  0  0  0
 28  6  1  0  0  0  0
 29 28  1  0  0  0  0
 30 31  1  0  0  0  0
 31 26  1  0  0  0  0
 32 31  2  0  0  0  0
 32 33  1  0  0  0  0
 34 32  1  0  0  0  0
 35 36  1  0  0  0  0
 35 34  1  0  0  0  0
 37 35  1  0  0  0  0
 38 37  1  0  0  0  0
 39 37  2  0  0  0  0
 39 40  1  0  0  0  0
 40 41  1  0  0  0  0
 40 34  2  0  0  0  0
 41 30  2  0  0  0  0
M  END
>  <minimizedAffinity>
-6.51258659

>  <minimizedRMSD>
1.1750648

$$$$
