
 OpenBabel03272509323D

 41 44  0  0  1  0  0  0  0  0999 V2000
   38.5040   26.1250   34.3880 C   0  0  2  0  0  0  0  0  0  0  0  0
   38.2160   27.3970   35.1280 C   0  0  0  0  0  0  0  0  0  0  0  0
   36.8110   27.9040   34.9120 C   0  0  0  0  0  0  0  0  0  0  0  0
   36.5100   28.0790   33.4270 C   0  0  0  0  0  0  0  0  0  0  0  0
   37.1650   27.0510   32.5430 C   0  0  0  0  0  0  0  0  0  0  0  0
   37.4380   25.7970   33.3950 C   0  0  1  0  0  0  0  0  0  0  0  0
   39.4710   26.1430   33.8100 H   0  0  0  0  0  0  0  0  0  0  0  0
   38.8660   28.1750   34.6000 H   0  0  0  0  0  0  0  0  0  0  0  0
   38.5050   27.4510   36.1580 H   0  0  0  0  0  0  0  0  0  0  0  0
   36.7810   28.9320   35.3400 H   0  0  0  0  0  0  0  0  0  0  0  0
   36.0330   27.3130   35.4130 H   0  0  0  0  0  0  0  0  0  0  0  0
   35.4110   27.9550   33.3190 H   0  0  0  0  0  0  0  0  0  0  0  0
   36.7840   29.0910   33.0800 H   0  0  0  0  0  0  0  0  0  0  0  0
   38.1610   27.3880   32.2110 H   0  0  0  0  0  0  0  0  0  0  0  0
   36.5130   26.8200   31.6850 H   0  0  0  0  0  0  0  0  0  0  0  0
   36.4950   25.6830   33.8720 H   0  0  0  0  0  0  0  0  0  0  0  0
   38.6550   24.9820   35.3260 C   0  0  0  0  0  0  0  0  0  0  0  0
   38.0200   25.1290   36.5680 C   0  0  0  0  0  0  0  0  0  0  0  0
   38.1410   24.0640   37.4680 C   0  0  0  0  0  0  0  0  0  0  0  0
   38.8610   22.9550   37.0890 N   0  0  0  0  0  0  0  0  0  0  0  0
   39.4610   22.8610   35.8600 C   0  0  0  0  0  0  0  0  0  0  0  0
   39.3460   23.8860   34.9940 N   0  0  0  0  0  0  0  0  0  0  0  0
   37.4290   25.9200   36.9870 H   0  0  0  0  0  0  0  0  0  0  0  0
   37.7110   24.0320   38.4560 H   0  0  0  0  0  0  0  0  0  0  0  0
   40.0050   21.9450   35.6600 H   0  0  0  0  0  0  0  0  0  0  0  0
   36.7160   23.8660   31.9050 C   0  0  0  0  0  0  0  0  0  0  0  0
   35.4820   24.1180   31.6320 O   0  0  0  0  0  0  0  0  0  0  0  0
   37.6570   24.6090   32.6550 N   0  0  0  0  0  0  0  0  0  0  0  0
   38.6390   24.1920   32.6290 H   0  0  0  0  0  0  0  0  0  0  0  0
   38.2680   22.3830   30.6350 C   0  0  0  0  0  3  0  0  0  0  0  0
   37.0680   22.5830   31.2810 C   0  0  0  0  0  0  0  0  0  0  0  0
   36.2640   21.4780   31.2710 C   0  0  0  0  0  0  0  0  0  0  0  0
   35.3010   21.4710   31.7280 H   0  0  0  0  0  0  0  0  0  0  0  0
   36.5810   20.2710   30.6880 C   0  0  0  0  0  0  0  0  0  0  0  0
   35.9700   19.0780   30.5550 N   0  0  0  0  0  0  0  0  0  0  0  0
   35.0200   18.8570   30.9300 H   0  0  0  0  0  0  0  0  0  0  0  0
   36.7330   18.2180   29.8830 C   0  0  0  0  0  0  0  0  0  0  0  0
   36.4560   17.1890   29.6480 H   0  0  0  0  0  0  0  0  0  0  0  0
   37.9020   18.8500   29.5490 C   0  0  0  0  0  3  0  0  0  0  0  0
   37.7870   20.1190   30.0560 C   0  0  0  0  0  0  0  0  0  0  0  0
   38.6440   21.1830   30.0270 C   0  0  0  0  0  3  0  0  0  0  0  0
  1  7  1  6  0  0  0
  1  2  1  0  0  0  0
  1 17  1  0  0  0  0
  2  9  1  0  0  0  0
  3  2  1  0  0  0  0
  3 10  1  0  0  0  0
  3 11  1  0  0  0  0
  4  3  1  0  0  0  0
  5  6  1  0  0  0  0
  5  4  1  0  0  0  0
  6 16  1  1  0  0  0
  6  1  1  0  0  0  0
  8  2  1  0  0  0  0
 12  4  1  0  0  0  0
 13  4  1  0  0  0  0
 14  5  1  0  0  0  0
 15  5  1  0  0  0  0
 17 18  1  0  0  0  0
 18 23  1  0  0  0  0
 18 19  2  0  0  0  0
 19 24  1  0  0  0  0
 20 19  1  0  0  0  0
 21 20  2  0  0  0  0
 22 17  2  0  0  0  0
 22 21  1  0  0  0  0
 25 21  1  0  0  0  0
 26 28  1  0  0  0  0
 27 26  2  0  0  0  0
 28  6  1  0  0  0  0
 29 28  1  0  0  0  0
 30 31  1  0  0  0  0
 31 26  1  0  0  0  0
 32 31  2  0  0  0  0
 32 33  1  0  0  0  0
 34 32  1  0  0  0  0
 35 34  1  0  0  0  0
 35 36  1  0  0  0  0
 37 35  1  0  0  0  0
 38 37  1  0  0  0  0
 39 37  2  0  0  0  0
 39 40  1  0  0  0  0
 40 34  2  0  0  0  0
 41 40  1  0  0  0  0
 41 30  2  0  0  0  0
M  END
>  <minimizedAffinity>
-5.91175413

$$$$

 OpenBabel03272509323D

 41 44  0  0  1  0  0  0  0  0999 V2000
   40.6230   22.6230   35.6170 C   0  0  2  0  0  0  0  0  0  0  0  0
   41.6700   21.8080   36.3150 C   0  0  0  0  0  0  0  0  0  0  0  0
   42.9910   22.5260   36.4460 C   0  0  0  0  0  0  0  0  0  0  0  0
   43.5040   22.9890   35.0870 C   0  0  0  0  0  0  0  0  0  0  0  0
   42.4200   23.4180   34.1350 C   0  0  0  0  0  0  0  0  0  0  0  0
   41.1960   23.8410   34.9700 C   0  0  1  0  0  0  0  0  0  0  0  0
   40.0790   22.0660   34.8030 H   0  0  0  0  0  0  0  0  0  0  0  0
   41.8960   20.9630   35.5800 H   0  0  0  0  0  0  0  0  0  0  0  0
   41.3930   21.3140   37.2250 H   0  0  0  0  0  0  0  0  0  0  0  0
   43.7260   21.7640   36.7930 H   0  0  0  0  0  0  0  0  0  0  0  0
   42.9920   23.3450   37.1770 H   0  0  0  0  0  0  0  0  0  0  0  0
   44.1410   23.8780   35.2850 H   0  0  0  0  0  0  0  0  0  0  0  0
   44.1280   22.2130   34.6090 H   0  0  0  0  0  0  0  0  0  0  0  0
   42.0650   22.5700   33.5270 H   0  0  0  0  0  0  0  0  0  0  0  0
   42.7790   24.2440   33.5010 H   0  0  0  0  0  0  0  0  0  0  0  0
   41.6640   24.4690   35.6880 H   0  0  0  0  0  0  0  0  0  0  0  0
   39.5510   23.0390   36.5590 C   0  0  0  0  0  0  0  0  0  0  0  0
   39.8880   22.9920   37.9200 C   0  0  0  0  0  0  0  0  0  0  0  0
   38.8980   23.3840   38.8290 C   0  0  0  0  0  0  0  0  0  0  0  0
   37.6760   23.7870   38.3430 N   0  0  0  0  0  0  0  0  0  0  0  0
   37.3990   23.8170   37.0010 C   0  0  0  0  0  0  0  0  0  0  0  0
   38.3500   23.4380   36.1270 N   0  0  0  0  0  0  0  0  0  0  0  0
   40.7890   22.7120   38.4310 H   0  0  0  0  0  0  0  0  0  0  0  0
   39.0080   23.4000   39.9010 H   0  0  0  0  0  0  0  0  0  0  0  0
   36.4060   24.1510   36.7230 H   0  0  0  0  0  0  0  0  0  0  0  0
   40.2490   26.0590   34.1600 C   0  0  0  0  0  0  0  0  0  0  0  0
   41.1130   26.9340   34.5450 O   0  0  0  0  0  0  0  0  0  0  0  0
   40.2570   24.6500   34.2840 N   0  0  0  0  0  0  0  0  0  0  0  0
   39.4420   24.1790   33.7810 H   0  0  0  0  0  0  0  0  0  0  0  0
   37.9990   27.1340   34.1920 C   0  0  0  0  0  3  0  0  0  0  0  0
   39.1390   26.7690   33.5110 C   0  0  0  0  0  0  0  0  0  0  0  0
   39.1150   27.1340   32.1930 C   0  0  0  0  0  0  0  0  0  0  0  0
   39.9230   26.9230   31.5310 H   0  0  0  0  0  0  0  0  0  0  0  0
   38.0810   27.7980   31.5730 C   0  0  0  0  0  0  0  0  0  0  0  0
   37.8390   28.2490   30.3270 N   0  0  0  0  0  0  0  0  0  0  0  0
   38.5000   28.1460   29.5240 H   0  0  0  0  0  0  0  0  0  0  0  0
   36.6490   28.8420   30.2520 C   0  0  0  0  0  0  0  0  0  0  0  0
   36.2290   29.2860   29.3480 H   0  0  0  0  0  0  0  0  0  0  0  0
   36.0640   28.7910   31.4890 C   0  0  0  0  0  3  0  0  0  0  0  0
   36.9660   28.1410   32.2920 C   0  0  0  0  0  0  0  0  0  0  0  0
   36.9190   27.8080   33.6160 C   0  0  0  0  0  3  0  0  0  0  0  0
  1  7  1  6  0  0  0
  1  2  1  0  0  0  0
  1 17  1  0  0  0  0
  2  3  1  0  0  0  0
  2  9  1  0  0  0  0
  3 10  1  0  0  0  0
  3 11  1  0  0  0  0
  4 12  1  0  0  0  0
  4  3  1  0  0  0  0
  5  6  1  0  0  0  0
  5  4  1  0  0  0  0
  6  1  1  0  0  0  0
  6 16  1  1  0  0  0
  8  2  1  0  0  0  0
 13  4  1  0  0  0  0
 14  5  1  0  0  0  0
 15  5  1  0  0  0  0
 17 18  1  0  0  0  0
 18 23  1  0  0  0  0
 18 19  2  0  0  0  0
 19 24  1  0  0  0  0
 20 19  1  0  0  0  0
 21 20  2  0  0  0  0
 22 17  2  0  0  0  0
 22 21  1  0  0  0  0
 25 21  1  0  0  0  0
 26 28  1  0  0  0  0
 26 27  2  0  0  0  0
 28  6  1  0  0  0  0
 29 28  1  0  0  0  0
 31 26  1  0  0  0  0
 31 30  2  0  0  0  0
 32 31  1  0  0  0  0
 33 32  1  0  0  0  0
 34 32  2  0  0  0  0
 34 40  1  0  0  0  0
 35 34  1  0  0  0  0
 36 35  1  0  0  0  0
 37 35  1  0  0  0  0
 37 39  2  0  0  0  0
 38 37  1  0  0  0  0
 39 40  1  0  0  0  0
 40 41  2  0  0  0  0
 41 30  1  0  0  0  0
M  END
>  <minimizedAffinity>
-5.78929138

$$$$

 OpenBabel03272509323D

 41 44  0  0  1  0  0  0  0  0999 V2000
   33.8620   31.6010   36.6210 C   0  0  2  0  0  0  0  0  0  0  0  0
   33.3980   32.9500   37.0850 C   0  0  0  0  0  0  0  0  0  0  0  0
   33.8280   34.0720   36.1720 C   0  0  0  0  0  0  0  0  0  0  0  0
   35.3410   34.0740   35.9760 C   0  0  0  0  0  0  0  0  0  0  0  0
   35.9580   32.7020   35.9480 C   0  0  0  0  0  0  0  0  0  0  0  0
   34.8680   31.7000   35.5220 C   0  0  1  0  0  0  0  0  0  0  0  0
   34.3450   30.9820   37.4290 H   0  0  0  0  0  0  0  0  0  0  0  0
   34.0000   33.1340   38.0390 H   0  0  0  0  0  0  0  0  0  0  0  0
   32.3740   33.0490   37.3840 H   0  0  0  0  0  0  0  0  0  0  0  0
   33.6010   35.0180   36.7140 H   0  0  0  0  0  0  0  0  0  0  0  0
   33.2980   34.1040   35.2110 H   0  0  0  0  0  0  0  0  0  0  0  0
   35.5210   34.5380   34.9820 H   0  0  0  0  0  0  0  0  0  0  0  0
   35.8430   34.6890   36.7440 H   0  0  0  0  0  0  0  0  0  0  0  0
   36.2570   32.3790   36.9590 H   0  0  0  0  0  0  0  0  0  0  0  0
   36.8130   32.6860   35.2540 H   0  0  0  0  0  0  0  0  0  0  0  0
   34.4640   32.2060   34.6800 H   0  0  0  0  0  0  0  0  0  0  0  0
   32.7200   30.7730   36.1540 C   0  0  0  0  0  0  0  0  0  0  0  0
   32.0350   30.0670   37.1540 C   0  0  0  0  0  0  0  0  0  0  0  0
   30.9510   29.2830   36.7410 C   0  0  0  0  0  0  0  0  0  0  0  0
   30.6260   29.2520   35.4050 N   0  0  0  0  0  0  0  0  0  0  0  0
   31.3290   29.9640   34.4670 C   0  0  0  0  0  0  0  0  0  0  0  0
   32.3730   30.7170   34.8640 N   0  0  0  0  0  0  0  0  0  0  0  0
   32.1700   30.0050   38.2160 H   0  0  0  0  0  0  0  0  0  0  0  0
   30.3320   28.6850   37.3900 H   0  0  0  0  0  0  0  0  0  0  0  0
   30.9910   29.8710   33.4420 H   0  0  0  0  0  0  0  0  0  0  0  0
   35.6310   30.0860   33.7090 C   0  0  0  0  0  0  0  0  0  0  0  0
   35.6030   30.7870   32.6270 O   0  0  0  0  0  0  0  0  0  0  0  0
   35.3540   30.4570   35.0450 N   0  0  0  0  0  0  0  0  0  0  0  0
   35.5550   29.6790   35.7470 H   0  0  0  0  0  0  0  0  0  0  0  0
   36.7420   27.9110   34.2090 C   0  0  0  0  0  3  0  0  0  0  0  0
   36.0230   28.7160   33.3540 C   0  0  0  0  0  0  0  0  0  0  0  0
   35.7290   28.1060   32.1660 C   0  0  0  0  0  0  0  0  0  0  0  0
   35.1790   28.5970   31.3970 H   0  0  0  0  0  0  0  0  0  0  0  0
   36.0920   26.8230   31.8210 C   0  0  0  0  0  0  0  0  0  0  0  0
   35.9210   26.0340   30.7440 N   0  0  0  0  0  0  0  0  0  0  0  0
   35.4100   26.3190   29.8780 H   0  0  0  0  0  0  0  0  0  0  0  0
   36.4880   24.8420   30.9260 C   0  0  0  0  0  0  0  0  0  0  0  0
   36.4840   24.0310   30.1960 H   0  0  0  0  0  0  0  0  0  0  0  0
   37.0630   24.8240   32.1690 C   0  0  0  0  0  3  0  0  0  0  0  0
   36.8070   26.0600   32.7060 C   0  0  0  0  0  0  0  0  0  0  0  0
   37.1380   26.6040   33.9150 C   0  0  0  0  0  3  0  0  0  0  0  0
  1  2  1  0  0  0  0
  1  7  1  1  0  0  0
  2  9  1  0  0  0  0
  2  8  1  0  0  0  0
  3 10  1  0  0  0  0
  3  2  1  0  0  0  0
  4  3  1  0  0  0  0
  4 13  1  0  0  0  0
  5  4  1  0  0  0  0
  5 14  1  0  0  0  0
  6 16  1  6  0  0  0
  6  5  1  0  0  0  0
  6  1  1  0  0  0  0
 11  3  1  0  0  0  0
 12  4  1  0  0  0  0
 15  5  1  0  0  0  0
 17  1  1  0  0  0  0
 17 18  1  0  0  0  0
 18 23  1  0  0  0  0
 19 18  2  0  0  0  0
 19 24  1  0  0  0  0
 20 19  1  0  0  0  0
 21 22  1  0  0  0  0
 21 20  2  0  0  0  0
 22 17  2  0  0  0  0
 25 21  1  0  0  0  0
 26 28  1  0  0  0  0
 27 26  2  0  0  0  0
 28  6  1  0  0  0  0
 28 29  1  0  0  0  0
 31 26  1  0  0  0  0
 31 30  2  0  0  0  0
 32 31  1  0  0  0  0
 33 32  1  0  0  0  0
 34 32  2  0  0  0  0
 34 40  1  0  0  0  0
 35 37  1  0  0  0  0
 35 34  1  0  0  0  0
 36 35  1  0  0  0  0
 37 39  2  0  0  0  0
 38 37  1  0  0  0  0
 39 40  1  0  0  0  0
 40 41  2  0  0  0  0
 41 30  1  0  0  0  0
M  END
>  <minimizedAffinity>
-5.71261072

$$$$

 OpenBabel03272509323D

 41 44  0  0  1  0  0  0  0  0999 V2000
   38.4920   23.3160   34.8390 C   0  0  2  0  0  0  0  0  0  0  0  0
   38.4620   22.4460   36.0590 C   0  0  0  0  0  0  0  0  0  0  0  0
   37.6010   23.0050   37.1660 C   0  0  0  0  0  0  0  0  0  0  0  0
   38.0340   24.4190   37.5390 C   0  0  0  0  0  0  0  0  0  0  0  0
   38.5220   25.2390   36.3750 C   0  0  0  0  0  0  0  0  0  0  0  0
   37.8940   24.6610   35.0920 C   0  0  1  0  0  0  0  0  0  0  0  0
   39.5290   23.5080   34.4410 H   0  0  0  0  0  0  0  0  0  0  0  0
   39.5220   22.5220   36.4780 H   0  0  0  0  0  0  0  0  0  0  0  0
   38.2970   21.3960   35.9180 H   0  0  0  0  0  0  0  0  0  0  0  0
   37.8130   22.3860   38.0670 H   0  0  0  0  0  0  0  0  0  0  0  0
   36.5220   22.9520   36.9730 H   0  0  0  0  0  0  0  0  0  0  0  0
   37.1280   24.9220   37.9410 H   0  0  0  0  0  0  0  0  0  0  0  0
   38.8050   24.4060   38.3290 H   0  0  0  0  0  0  0  0  0  0  0  0
   39.6090   25.1230   36.2330 H   0  0  0  0  0  0  0  0  0  0  0  0
   38.2470   26.2960   36.5160 H   0  0  0  0  0  0  0  0  0  0  0  0
   36.8810   24.5760   35.3980 H   0  0  0  0  0  0  0  0  0  0  0  0
   37.7740   22.6770   33.7050 C   0  0  0  0  0  0  0  0  0  0  0  0
   36.9250   21.6150   34.0480 C   0  0  0  0  0  0  0  0  0  0  0  0
   36.2310   20.9980   33.0000 C   0  0  0  0  0  0  0  0  0  0  0  0
   36.4180   21.4630   31.7190 N   0  0  0  0  0  0  0  0  0  0  0  0
   37.2590   22.5090   31.4380 C   0  0  0  0  0  0  0  0  0  0  0  0
   37.9280   23.1010   32.4460 N   0  0  0  0  0  0  0  0  0  0  0  0
   36.6800   21.1600   34.9890 H   0  0  0  0  0  0  0  0  0  0  0  0
   35.5470   20.1720   33.1070 H   0  0  0  0  0  0  0  0  0  0  0  0
   37.3340   22.7970   30.3970 H   0  0  0  0  0  0  0  0  0  0  0  0
   37.2810   26.8020   33.8620 C   0  0  0  0  0  0  0  0  0  0  0  0
   36.6490   27.5040   34.7390 O   0  0  0  0  0  0  0  0  0  0  0  0
   37.9020   25.5370   33.9780 N   0  0  0  0  0  0  0  0  0  0  0  0
   38.4340   25.2480   33.0990 H   0  0  0  0  0  0  0  0  0  0  0  0
   36.5260   28.6840   32.4100 C   0  0  0  0  0  3  0  0  0  0  0  0
   37.2800   27.5470   32.5960 C   0  0  0  0  0  0  0  0  0  0  0  0
   38.0080   27.2020   31.4900 C   0  0  0  0  0  0  0  0  0  0  0  0
   38.6420   26.3460   31.4730 H   0  0  0  0  0  0  0  0  0  0  0  0
   38.0140   27.8900   30.2980 C   0  0  0  0  0  0  0  0  0  0  0  0
   38.6300   27.7460   29.1090 N   0  0  0  0  0  0  0  0  0  0  0  0
   39.2950   26.9730   28.8790 H   0  0  0  0  0  0  0  0  0  0  0  0
   38.2810   28.7160   28.2650 C   0  0  0  0  0  0  0  0  0  0  0  0
   38.6470   28.8150   27.2420 H   0  0  0  0  0  0  0  0  0  0  0  0
   37.3990   29.5460   28.9040 C   0  0  0  0  0  3  0  0  0  0  0  0
   37.2470   29.0170   30.1610 C   0  0  0  0  0  0  0  0  0  0  0  0
   36.4930   29.4230   31.2250 C   0  0  0  0  0  3  0  0  0  0  0  0
  1  7  1  6  0  0  0
  1  6  1  0  0  0  0
  1  2  1  0  0  0  0
  2  8  1  0  0  0  0
  2  3  1  0  0  0  0
  3  4  1  0  0  0  0
  3 10  1  0  0  0  0
  4 12  1  0  0  0  0
  4 13  1  0  0  0  0
  5 15  1  0  0  0  0
  5  4  1  0  0  0  0
  6 16  1  1  0  0  0
  6  5  1  0  0  0  0
  9  2  1  0  0  0  0
 11  3  1  0  0  0  0
 14  5  1  0  0  0  0
 17 18  1  0  0  0  0
 17  1  1  0  0  0  0
 18 23  1  0  0  0  0
 19 24  1  0  0  0  0
 19 18  2  0  0  0  0
 20 19  1  0  0  0  0
 21 20  2  0  0  0  0
 21 22  1  0  0  0  0
 22 17  2  0  0  0  0
 25 21  1  0  0  0  0
 26 28  1  0  0  0  0
 26 27  2  0  0  0  0
 28  6  1  0  0  0  0
 29 28  1  0  0  0  0
 30 31  1  0  0  0  0
 31 26  1  0  0  0  0
 32 31  2  0  0  0  0
 33 32  1  0  0  0  0
 34 32  1  0  0  0  0
 35 34  1  0  0  0  0
 36 35  1  0  0  0  0
 37 39  2  0  0  0  0
 37 35  1  0  0  0  0
 38 37  1  0  0  0  0
 39 40  1  0  0  0  0
 40 34  2  0  0  0  0
 40 41  1  0  0  0  0
 41 30  2  0  0  0  0
M  END
>  <minimizedAffinity>
-5.68778133

$$$$

 OpenBabel03272509323D

 41 44  0  0  1  0  0  0  0  0999 V2000
   39.3850   23.7140   36.1870 C   0  0  2  0  0  0  0  0  0  0  0  0
   39.6580   22.9510   37.4490 C   0  0  0  0  0  0  0  0  0  0  0  0
   38.4840   22.9340   38.3980 C   0  0  0  0  0  0  0  0  0  0  0  0
   38.0210   24.3490   38.7280 C   0  0  0  0  0  0  0  0  0  0  0  0
   38.1450   25.3180   37.5830 C   0  0  0  0  0  0  0  0  0  0  0  0
   38.1240   24.5090   36.2720 C   0  0  1  0  0  0  0  0  0  0  0  0
   40.1960   24.4470   35.9130 H   0  0  0  0  0  0  0  0  0  0  0  0
   40.4340   23.5900   37.9940 H   0  0  0  0  0  0  0  0  0  0  0  0
   40.1120   21.9850   37.3590 H   0  0  0  0  0  0  0  0  0  0  0  0
   38.8670   22.5190   39.3580 H   0  0  0  0  0  0  0  0  0  0  0  0
   37.6470   22.3020   38.0730 H   0  0  0  0  0  0  0  0  0  0  0  0
   36.9410   24.2680   38.9770 H   0  0  0  0  0  0  0  0  0  0  0  0
   38.5530   24.7490   39.6090 H   0  0  0  0  0  0  0  0  0  0  0  0
   39.1290   25.8170   37.5890 H   0  0  0  0  0  0  0  0  0  0  0  0
   37.3240   26.0510   37.6170 H   0  0  0  0  0  0  0  0  0  0  0  0
   37.2870   23.8790   36.4520 H   0  0  0  0  0  0  0  0  0  0  0  0
   39.3000   22.8020   35.0170 C   0  0  0  0  0  0  0  0  0  0  0  0
   40.5250   22.4570   34.4270 C   0  0  0  0  0  0  0  0  0  0  0  0
   40.4730   21.5940   33.3250 C   0  0  0  0  0  0  0  0  0  0  0  0
   39.2470   21.1420   32.8960 N   0  0  0  0  0  0  0  0  0  0  0  0
   38.0780   21.5080   33.5110 C   0  0  0  0  0  0  0  0  0  0  0  0
   38.1270   22.3390   34.5690 N   0  0  0  0  0  0  0  0  0  0  0  0
   41.5380   22.7240   34.6580 H   0  0  0  0  0  0  0  0  0  0  0  0
   41.3270   21.2430   32.7690 H   0  0  0  0  0  0  0  0  0  0  0  0
   37.1670   21.0950   33.0950 H   0  0  0  0  0  0  0  0  0  0  0  0
   38.4770   26.4080   34.6160 C   0  0  0  0  0  0  0  0  0  0  0  0
   39.5520   26.9890   35.0220 O   0  0  0  0  0  0  0  0  0  0  0  0
   37.8130   25.2610   35.1120 N   0  0  0  0  0  0  0  0  0  0  0  0
   36.9890   24.9570   34.5060 H   0  0  0  0  0  0  0  0  0  0  0  0
   36.8300   27.9270   33.5210 C   0  0  0  0  0  3  0  0  0  0  0  0
   37.9660   27.1520   33.4570 C   0  0  0  0  0  0  0  0  0  0  0  0
   38.5470   27.1550   32.2190 C   0  0  0  0  0  0  0  0  0  0  0  0
   39.4330   26.6030   32.0050 H   0  0  0  0  0  0  0  0  0  0  0  0
   38.0770   27.8470   31.1240 C   0  0  0  0  0  0  0  0  0  0  0  0
   38.4670   27.9980   29.8440 N   0  0  0  0  0  0  0  0  0  0  0  0
   39.3110   27.5440   29.4270 H   0  0  0  0  0  0  0  0  0  0  0  0
   37.6370   28.8000   29.1790 C   0  0  0  0  0  0  0  0  0  0  0  0
   37.7420   29.0740   28.1290 H   0  0  0  0  0  0  0  0  0  0  0  0
   36.6510   29.2070   30.0390 C   0  0  0  0  0  3  0  0  0  0  0  0
   36.9420   28.6050   31.2360 C   0  0  0  0  0  0  0  0  0  0  0  0
   36.3070   28.6500   32.4460 C   0  0  0  0  0  3  0  0  0  0  0  0
  1  7  1  6  0  0  0
  1  6  1  0  0  0  0
  1  2  1  0  0  0  0
  2  8  1  0  0  0  0
  2  3  1  0  0  0  0
  3  4  1  0  0  0  0
  3 10  1  0  0  0  0
  4 12  1  0  0  0  0
  4 13  1  0  0  0  0
  5 14  1  0  0  0  0
  5 15  1  0  0  0  0
  5  4  1  0  0  0  0
  6 16  1  1  0  0  0
  6  5  1  0  0  0  0
  9  2  1  0  0  0  0
 11  3  1  0  0  0  0
 17  1  1  0  0  0  0
 18 23  1  0  0  0  0
 18 17  2  0  0  0  0
 19 18  1  0  0  0  0
 20 19  2  0  0  0  0
 20 21  1  0  0  0  0
 21 22  2  0  0  0  0
 22 17  1  0  0  0  0
 24 19  1  0  0  0  0
 25 21  1  0  0  0  0
 26 27  2  0  0  0  0
 26 28  1  0  0  0  0
 28  6  1  0  0  0  0
 29 28  1  0  0  0  0
 31 30  1  0  0  0  0
 31 26  1  0  0  0  0
 32 31  2  0  0  0  0
 33 32  1  0  0  0  0
 34 40  2  0  0  0  0
 34 32  1  0  0  0  0
 35 34  1  0  0  0  0
 36 35  1  0  0  0  0
 37 35  1  0  0  0  0
 37 39  2  0  0  0  0
 38 37  1  0  0  0  0
 39 40  1  0  0  0  0
 40 41  1  0  0  0  0
 41 30  2  0  0  0  0
M  END
>  <minimizedAffinity>
-5.68126726

$$$$

 OpenBabel03272509323D

 41 44  0  0  1  0  0  0  0  0999 V2000
   40.9290   23.5250   34.9210 C   0  0  2  0  0  0  0  0  0  0  0  0
   42.0380   22.7850   35.6060 C   0  0  0  0  0  0  0  0  0  0  0  0
   42.9150   23.6780   36.4490 C   0  0  0  0  0  0  0  0  0  0  0  0
   43.4820   24.8300   35.6260 C   0  0  0  0  0  0  0  0  0  0  0  0
   42.5420   25.3500   34.5710 C   0  0  0  0  0  0  0  0  0  0  0  0
   41.1040   25.0060   35.0040 C   0  0  1  0  0  0  0  0  0  0  0  0
   40.8300   23.2860   33.8240 H   0  0  0  0  0  0  0  0  0  0  0  0
   42.7240   22.4650   34.7500 H   0  0  0  0  0  0  0  0  0  0  0  0
   41.7900   21.8750   36.1150 H   0  0  0  0  0  0  0  0  0  0  0  0
   43.7980   23.0630   36.7390 H   0  0  0  0  0  0  0  0  0  0  0  0
   42.4430   24.0370   37.3730 H   0  0  0  0  0  0  0  0  0  0  0  0
   43.6640   25.6590   36.3430 H   0  0  0  0  0  0  0  0  0  0  0  0
   44.4430   24.5540   35.1590 H   0  0  0  0  0  0  0  0  0  0  0  0
   42.6830   24.8180   33.6150 H   0  0  0  0  0  0  0  0  0  0  0  0
   42.6760   26.4370   34.4480 H   0  0  0  0  0  0  0  0  0  0  0  0
   41.1290   25.3300   36.0160 H   0  0  0  0  0  0  0  0  0  0  0  0
   39.6070   23.1660   35.4980 C   0  0  0  0  0  0  0  0  0  0  0  0
   38.8260   22.2920   34.7270 C   0  0  0  0  0  0  0  0  0  0  0  0
   37.5790   21.9330   35.2510 C   0  0  0  0  0  0  0  0  0  0  0  0
   37.1990   22.4460   36.4700 N   0  0  0  0  0  0  0  0  0  0  0  0
   38.0030   23.2960   37.1840 C   0  0  0  0  0  0  0  0  0  0  0  0
   39.2020   23.6430   36.6800 N   0  0  0  0  0  0  0  0  0  0  0  0
   38.9960   21.8160   33.7810 H   0  0  0  0  0  0  0  0  0  0  0  0
   36.8700   21.2740   34.7750 H   0  0  0  0  0  0  0  0  0  0  0  0
   37.6100   23.6430   38.1330 H   0  0  0  0  0  0  0  0  0  0  0  0
   39.1990   26.6910   34.9530 C   0  0  0  0  0  0  0  0  0  0  0  0
   39.1390   27.1410   36.1590 O   0  0  0  0  0  0  0  0  0  0  0  0
   40.0910   25.7640   34.3660 N   0  0  0  0  0  0  0  0  0  0  0  0
   39.9540   25.6570   33.3140 H   0  0  0  0  0  0  0  0  0  0  0  0
   38.1070   27.3210   32.8010 C   0  0  0  0  0  3  0  0  0  0  0  0
   38.1200   27.3180   34.1780 C   0  0  0  0  0  0  0  0  0  0  0  0
   37.0400   27.9540   34.7250 C   0  0  0  0  0  0  0  0  0  0  0  0
   36.9040   28.0390   35.7780 H   0  0  0  0  0  0  0  0  0  0  0  0
   36.0230   28.5480   34.0100 C   0  0  0  0  0  0  0  0  0  0  0  0
   34.8930   29.2110   34.3180 N   0  0  0  0  0  0  0  0  0  0  0  0
   34.5700   29.4050   35.2940 H   0  0  0  0  0  0  0  0  0  0  0  0
   34.2420   29.5890   33.2200 C   0  0  0  0  0  0  0  0  0  0  0  0
   33.3000   30.1410   33.2110 H   0  0  0  0  0  0  0  0  0  0  0  0
   34.9540   29.1660   32.1300 C   0  0  0  0  0  3  0  0  0  0  0  0
   36.0540   28.5250   32.6410 C   0  0  0  0  0  0  0  0  0  0  0  0
   37.1040   27.9060   32.0240 C   0  0  0  0  0  3  0  0  0  0  0  0
  1  7  1  6  0  0  0
  1  6  1  0  0  0  0
  1 17  1  0  0  0  0
  1  2  1  0  0  0  0
  2  9  1  0  0  0  0
  2  3  1  0  0  0  0
  3 10  1  0  0  0  0
  3 11  1  0  0  0  0
  4 12  1  0  0  0  0
  4  3  1  0  0  0  0
  5  6  1  0  0  0  0
  5  4  1  0  0  0  0
  6 16  1  1  0  0  0
  8  2  1  0  0  0  0
 13  4  1  0  0  0  0
 14  5  1  0  0  0  0
 15  5  1  0  0  0  0
 17 22  1  0  0  0  0
 18 19  1  0  0  0  0
 18 17  2  0  0  0  0
 19 20  2  0  0  0  0
 20 21  1  0  0  0  0
 21 25  1  0  0  0  0
 22 21  2  0  0  0  0
 23 18  1  0  0  0  0
 24 19  1  0  0  0  0
 26 27  2  0  0  0  0
 28 26  1  0  0  0  0
 28  6  1  0  0  0  0
 29 28  1  0  0  0  0
 30 31  1  0  0  0  0
 31 32  2  0  0  0  0
 31 26  1  0  0  0  0
 32 33  1  0  0  0  0
 34 35  1  0  0  0  0
 34 32  1  0  0  0  0
 35 36  1  0  0  0  0
 37 35  1  0  0  0  0
 38 37  1  0  0  0  0
 39 40  1  0  0  0  0
 39 37  2  0  0  0  0
 40 34  2  0  0  0  0
 41 40  1  0  0  0  0
 41 30  2  0  0  0  0
M  END
>  <minimizedAffinity>
-5.64624786

$$$$

 OpenBabel03272509323D

 41 44  0  0  1  0  0  0  0  0999 V2000
   36.1200   28.0590   32.0400 C   0  0  2  0  0  0  0  0  0  0  0  0
   35.5830   29.3320   31.4580 C   0  0  0  0  0  0  0  0  0  0  0  0
   35.8990   30.5470   32.2950 C   0  0  0  0  0  0  0  0  0  0  0  0
   35.4040   30.3730   33.7270 C   0  0  0  0  0  0  0  0  0  0  0  0
   35.5040   28.9630   34.2440 C   0  0  0  0  0  0  0  0  0  0  0  0
   36.6020   28.2400   33.4420 C   0  0  1  0  0  0  0  0  0  0  0  0
   35.3680   27.2210   32.0770 H   0  0  0  0  0  0  0  0  0  0  0  0
   34.4500   29.2240   31.5590 H   0  0  0  0  0  0  0  0  0  0  0  0
   35.7510   29.5130   30.4150 H   0  0  0  0  0  0  0  0  0  0  0  0
   35.2930   31.3820   31.8750 H   0  0  0  0  0  0  0  0  0  0  0  0
   36.9530   30.8560   32.2680 H   0  0  0  0  0  0  0  0  0  0  0  0
   36.0650   31.0050   34.3600 H   0  0  0  0  0  0  0  0  0  0  0  0
   34.3670   30.7340   33.8390 H   0  0  0  0  0  0  0  0  0  0  0  0
   34.5820   28.3960   34.0340 H   0  0  0  0  0  0  0  0  0  0  0  0
   35.7320   28.9710   35.3220 H   0  0  0  0  0  0  0  0  0  0  0  0
   37.3780   28.9650   33.4880 H   0  0  0  0  0  0  0  0  0  0  0  0
   37.2340   27.5200   31.2160 C   0  0  0  0  0  0  0  0  0  0  0  0
   37.8720   28.4470   30.3800 C   0  0  0  0  0  0  0  0  0  0  0  0
   38.9290   27.9670   29.5960 C   0  0  0  0  0  0  0  0  0  0  0  0
   39.2730   26.6390   29.6920 N   0  0  0  0  0  0  0  0  0  0  0  0
   38.6160   25.7740   30.5290 C   0  0  0  0  0  0  0  0  0  0  0  0
   37.5990   26.2350   31.2810 N   0  0  0  0  0  0  0  0  0  0  0  0
   37.7170   29.4960   30.2130 H   0  0  0  0  0  0  0  0  0  0  0  0
   39.5110   28.5570   28.9080 H   0  0  0  0  0  0  0  0  0  0  0  0
   38.9660   24.7480   30.5290 H   0  0  0  0  0  0  0  0  0  0  0  0
   37.9130   26.9730   35.2160 C   0  0  0  0  0  0  0  0  0  0  0  0
   38.2910   27.8840   36.0450 O   0  0  0  0  0  0  0  0  0  0  0  0
   37.1140   27.0690   34.0530 N   0  0  0  0  0  0  0  0  0  0  0  0
   36.8890   26.1210   33.6190 H   0  0  0  0  0  0  0  0  0  0  0  0
   37.8580   24.9230   36.6360 C   0  0  0  0  0  3  0  0  0  0  0  0
   38.4670   25.6890   35.6670 C   0  0  0  0  0  0  0  0  0  0  0  0
   39.6200   25.1300   35.1890 C   0  0  0  0  0  0  0  0  0  0  0  0
   40.2100   25.6000   34.4370 H   0  0  0  0  0  0  0  0  0  0  0  0
   40.1500   23.9290   35.6050 C   0  0  0  0  0  0  0  0  0  0  0  0
   41.2370   23.1990   35.2900 N   0  0  0  0  0  0  0  0  0  0  0  0
   41.9480   23.4770   34.5760 H   0  0  0  0  0  0  0  0  0  0  0  0
   41.2880   22.0780   36.0080 C   0  0  0  0  0  0  0  0  0  0  0  0
   42.0740   21.3240   35.9330 H   0  0  0  0  0  0  0  0  0  0  0  0
   40.1980   22.0460   36.8360 C   0  0  0  0  0  3  0  0  0  0  0  0
   39.5070   23.2010   36.5720 C   0  0  0  0  0  0  0  0  0  0  0  0
   38.3480   23.6990   37.0960 C   0  0  0  0  0  3  0  0  0  0  0  0
  1  7  1  1  0  0  0
  1  6  1  0  0  0  0
  2  8  1  0  0  0  0
  2  1  1  0  0  0  0
  2  3  1  0  0  0  0
  3  4  1  0  0  0  0
  4 13  1  0  0  0  0
  4  5  1  0  0  0  0
  4 12  1  0  0  0  0
  5 15  1  0  0  0  0
  6 16  1  6  0  0  0
  6 28  1  0  0  0  0
  6  5  1  0  0  0  0
  9  2  1  0  0  0  0
 10  3  1  0  0  0  0
 11  3  1  0  0  0  0
 14  5  1  0  0  0  0
 17 22  1  0  0  0  0
 17  1  1  0  0  0  0
 18 17  2  0  0  0  0
 19 20  2  0  0  0  0
 19 18  1  0  0  0  0
 20 21  1  0  0  0  0
 21 22  2  0  0  0  0
 23 18  1  0  0  0  0
 24 19  1  0  0  0  0
 25 21  1  0  0  0  0
 26 31  1  0  0  0  0
 26 27  2  0  0  0  0
 28 26  1  0  0  0  0
 29 28  1  0  0  0  0
 30 41  1  0  0  0  0
 31 30  2  0  0  0  0
 32 34  2  0  0  0  0
 32 31  1  0  0  0  0
 33 32  1  0  0  0  0
 34 40  1  0  0  0  0
 35 34  1  0  0  0  0
 35 37  1  0  0  0  0
 36 35  1  0  0  0  0
 37 39  2  0  0  0  0
 38 37  1  0  0  0  0
 40 39  1  0  0  0  0
 40 41  2  0  0  0  0
M  END
>  <minimizedAffinity>
-5.58545828

$$$$

 OpenBabel03272509323D

 41 44  0  0  1  0  0  0  0  0999 V2000
   37.8380   27.2130   31.5530 C   0  0  2  0  0  0  0  0  0  0  0  0
   38.7110   26.8200   30.3990 C   0  0  0  0  0  0  0  0  0  0  0  0
   39.0760   27.9830   29.5080 C   0  0  0  0  0  0  0  0  0  0  0  0
   37.8300   28.7030   29.0050 C   0  0  0  0  0  0  0  0  0  0  0  0
   36.7010   28.7450   30.0000 C   0  0  0  0  0  0  0  0  0  0  0  0
   37.3050   28.6000   31.4090 C   0  0  1  0  0  0  0  0  0  0  0  0
   36.9400   26.5480   31.6930 H   0  0  0  0  0  0  0  0  0  0  0  0
   38.0270   26.1830   29.7420 H   0  0  0  0  0  0  0  0  0  0  0  0
   39.5560   26.1940   30.6040 H   0  0  0  0  0  0  0  0  0  0  0  0
   39.5470   27.5430   28.6000 H   0  0  0  0  0  0  0  0  0  0  0  0
   39.7960   28.6840   29.9490 H   0  0  0  0  0  0  0  0  0  0  0  0
   38.1390   29.7530   28.8120 H   0  0  0  0  0  0  0  0  0  0  0  0
   37.4700   28.2660   28.0570 H   0  0  0  0  0  0  0  0  0  0  0  0
   36.0380   27.8710   29.8870 H   0  0  0  0  0  0  0  0  0  0  0  0
   36.1410   29.6880   29.8970 H   0  0  0  0  0  0  0  0  0  0  0  0
   38.0950   29.3080   31.3500 H   0  0  0  0  0  0  0  0  0  0  0  0
   38.5750   27.1130   32.8410 C   0  0  0  0  0  0  0  0  0  0  0  0
   39.9740   27.0820   32.7370 C   0  0  0  0  0  0  0  0  0  0  0  0
   40.6920   26.9940   33.9360 C   0  0  0  0  0  0  0  0  0  0  0  0
   39.9980   26.9460   35.1220 N   0  0  0  0  0  0  0  0  0  0  0  0
   38.6280   26.9820   35.1670 C   0  0  0  0  0  0  0  0  0  0  0  0
   37.9370   27.0650   34.0150 N   0  0  0  0  0  0  0  0  0  0  0  0
   40.6360   27.1200   31.8950 H   0  0  0  0  0  0  0  0  0  0  0  0
   41.7660   26.9590   34.0160 H   0  0  0  0  0  0  0  0  0  0  0  0
   38.1790   26.9390   36.1530 H   0  0  0  0  0  0  0  0  0  0  0  0
   36.0540   30.3480   32.7720 C   0  0  0  0  0  0  0  0  0  0  0  0
   36.2560   31.4510   32.1370 O   0  0  0  0  0  0  0  0  0  0  0  0
   36.4640   29.0290   32.4660 N   0  0  0  0  0  0  0  0  0  0  0  0
   36.0630   28.2990   33.1340 H   0  0  0  0  0  0  0  0  0  0  0  0
   35.7220   31.5060   34.9550 C   0  0  0  0  0  3  0  0  0  0  0  0
   35.2680   30.6510   33.9750 C   0  0  0  0  0  0  0  0  0  0  0  0
   34.0340   30.1310   34.2480 C   0  0  0  0  0  0  0  0  0  0  0  0
   33.5450   29.4510   33.5890 H   0  0  0  0  0  0  0  0  0  0  0  0
   33.2880   30.4060   35.3730 C   0  0  0  0  0  0  0  0  0  0  0  0
   32.0860   30.0260   35.8450 N   0  0  0  0  0  0  0  0  0  0  0  0
   31.4420   29.3640   35.3540 H   0  0  0  0  0  0  0  0  0  0  0  0
   31.8250   30.6000   37.0170 C   0  0  0  0  0  0  0  0  0  0  0  0
   30.9130   30.4490   37.5980 H   0  0  0  0  0  0  0  0  0  0  0  0
   32.8870   31.3980   37.3520 C   0  0  0  0  0  3  0  0  0  0  0  0
   33.7810   31.2630   36.3210 C   0  0  0  0  0  0  0  0  0  0  0  0
   35.0110   31.8220   36.1150 C   0  0  0  0  0  3  0  0  0  0  0  0
  1  7  1  1  0  0  0
  1 17  1  0  0  0  0
  2  9  1  0  0  0  0
  2  1  1  0  0  0  0
  3 11  1  0  0  0  0
  3  2  1  0  0  0  0
  4  3  1  0  0  0  0
  4  5  1  0  0  0  0
  5  6  1  0  0  0  0
  6 16  1  1  0  0  0
  6  1  1  0  0  0  0
  6 28  1  0  0  0  0
  8  2  1  0  0  0  0
 10  3  1  0  0  0  0
 12  4  1  0  0  0  0
 13  4  1  0  0  0  0
 14  5  1  0  0  0  0
 15  5  1  0  0  0  0
 17 22  1  0  0  0  0
 18 17  2  0  0  0  0
 18 19  1  0  0  0  0
 19 24  1  0  0  0  0
 19 20  2  0  0  0  0
 20 21  1  0  0  0  0
 21 25  1  0  0  0  0
 22 21  2  0  0  0  0
 23 18  1  0  0  0  0
 26 31  1  0  0  0  0
 27 26  2  0  0  0  0
 28 26  1  0  0  0  0
 28 29  1  0  0  0  0
 30 41  1  0  0  0  0
 31 32  1  0  0  0  0
 31 30  2  0  0  0  0
 32 34  2  0  0  0  0
 33 32  1  0  0  0  0
 34 35  1  0  0  0  0
 34 40  1  0  0  0  0
 35 37  1  0  0  0  0
 36 35  1  0  0  0  0
 37 39  2  0  0  0  0
 37 38  1  0  0  0  0
 40 39  1  0  0  0  0
 41 40  2  0  0  0  0
M  END
>  <minimizedAffinity>
-5.56159878

$$$$

 OpenBabel03272509323D

 41 44  0  0  1  0  0  0  0  0999 V2000
   39.5800   25.4370   34.7440 C   0  0  2  0  0  0  0  0  0  0  0  0
   39.8820   26.8000   35.2900 C   0  0  0  0  0  0  0  0  0  0  0  0
   38.6730   27.4850   35.8790 C   0  0  0  0  0  0  0  0  0  0  0  0
   37.5360   27.5640   34.8650 C   0  0  0  0  0  0  0  0  0  0  0  0
   37.4490   26.3740   33.9470 C   0  0  0  0  0  0  0  0  0  0  0  0
   38.1120   25.1780   34.6560 C   0  0  1  0  0  0  0  0  0  0  0  0
   39.9890   25.2590   33.7090 H   0  0  0  0  0  0  0  0  0  0  0  0
   40.1170   27.4220   34.3610 H   0  0  0  0  0  0  0  0  0  0  0  0
   40.7440   26.9060   35.9170 H   0  0  0  0  0  0  0  0  0  0  0  0
   38.9730   28.5410   36.0650 H   0  0  0  0  0  0  0  0  0  0  0  0
   38.3320   27.0630   36.8330 H   0  0  0  0  0  0  0  0  0  0  0  0
   36.5970   27.5930   35.4580 H   0  0  0  0  0  0  0  0  0  0  0  0
   37.5990   28.4890   34.2640 H   0  0  0  0  0  0  0  0  0  0  0  0
   38.0500   26.5290   33.0350 H   0  0  0  0  0  0  0  0  0  0  0  0
   36.3960   26.1630   33.7010 H   0  0  0  0  0  0  0  0  0  0  0  0
   37.6540   25.2480   35.6120 H   0  0  0  0  0  0  0  0  0  0  0  0
   40.2050   24.3750   35.5750 C   0  0  0  0  0  0  0  0  0  0  0  0
   41.5560   24.1110   35.3050 C   0  0  0  0  0  0  0  0  0  0  0  0
   42.1710   23.1190   36.0790 C   0  0  0  0  0  0  0  0  0  0  0  0
   41.4290   22.4740   37.0410 N   0  0  0  0  0  0  0  0  0  0  0  0
   40.1100   22.7730   37.2660 C   0  0  0  0  0  0  0  0  0  0  0  0
   39.5180   23.7260   36.5210 N   0  0  0  0  0  0  0  0  0  0  0  0
   42.2480   24.5340   34.6040 H   0  0  0  0  0  0  0  0  0  0  0  0
   43.1980   22.8060   35.9870 H   0  0  0  0  0  0  0  0  0  0  0  0
   39.6170   22.2070   38.0470 H   0  0  0  0  0  0  0  0  0  0  0  0
   38.0350   23.3860   32.8520 C   0  0  0  0  0  0  0  0  0  0  0  0
   38.7320   23.8760   31.8860 O   0  0  0  0  0  0  0  0  0  0  0  0
   37.7600   23.9070   34.1370 N   0  0  0  0  0  0  0  0  0  0  0  0
   37.2260   23.2260   34.7610 H   0  0  0  0  0  0  0  0  0  0  0  0
   37.8100   21.5390   31.1920 C   0  0  0  0  0  3  0  0  0  0  0  0
   37.5020   22.0880   32.4160 C   0  0  0  0  0  0  0  0  0  0  0  0
   36.6630   21.3040   33.1580 C   0  0  0  0  0  0  0  0  0  0  0  0
   36.3300   21.5890   34.1290 H   0  0  0  0  0  0  0  0  0  0  0  0
   36.1560   20.0870   32.7610 C   0  0  0  0  0  0  0  0  0  0  0  0
   35.3390   19.1640   33.3020 N   0  0  0  0  0  0  0  0  0  0  0  0
   34.9000   19.2460   34.2480 H   0  0  0  0  0  0  0  0  0  0  0  0
   35.1610   18.1340   32.4770 C   0  0  0  0  0  0  0  0  0  0  0  0
   34.5410   17.2620   32.6910 H   0  0  0  0  0  0  0  0  0  0  0  0
   35.8830   18.3670   31.3370 C   0  0  0  0  0  3  0  0  0  0  0  0
   36.4910   19.5810   31.5330 C   0  0  0  0  0  0  0  0  0  0  0  0
   37.3270   20.3100   30.7350 C   0  0  0  0  0  3  0  0  0  0  0  0
  1  7  1  6  0  0  0
  1  2  1  0  0  0  0
  1 17  1  0  0  0  0
  2  3  1  0  0  0  0
  2  9  1  0  0  0  0
  3 10  1  0  0  0  0
  3 11  1  0  0  0  0
  4 12  1  0  0  0  0
  4  3  1  0  0  0  0
  5  6  1  0  0  0  0
  5  4  1  0  0  0  0
  6  1  1  0  0  0  0
  6 16  1  1  0  0  0
  8  2  1  0  0  0  0
 13  4  1  0  0  0  0
 14  5  1  0  0  0  0
 15  5  1  0  0  0  0
 17 22  1  0  0  0  0
 18 17  2  0  0  0  0
 18 19  1  0  0  0  0
 19 20  2  0  0  0  0
 20 21  1  0  0  0  0
 21 25  1  0  0  0  0
 22 21  2  0  0  0  0
 23 18  1  0  0  0  0
 24 19  1  0  0  0  0
 26 28  1  0  0  0  0
 27 26  2  0  0  0  0
 28  6  1  0  0  0  0
 28 29  1  0  0  0  0
 30 31  1  0  0  0  0
 31 26  1  0  0  0  0
 31 32  2  0  0  0  0
 32 33  1  0  0  0  0
 34 32  1  0  0  0  0
 34 35  1  0  0  0  0
 35 36  1  0  0  0  0
 37 38  1  0  0  0  0
 37 35  1  0  0  0  0
 39 40  1  0  0  0  0
 39 37  2  0  0  0  0
 40 34  2  0  0  0  0
 41 30  2  0  0  0  0
 41 40  1  0  0  0  0
M  END
>  <minimizedAffinity>
-5.56025505

$$$$
