
 OpenBabel03272510073D

 47 52  0  0  0  0  0  0  0  0999 V2000
   36.3460   30.2540   48.0990 C   0  0  0  0  0  0  0  0  0  0  0  0
   36.9760   30.5390   49.2680 N   0  0  0  0  0  0  0  0  0  0  0  0
   38.0830   31.3020   49.2590 C   0  0  0  0  0  0  0  0  0  0  0  0
   38.6430   31.8290   48.1290 N   0  0  0  0  0  0  0  0  0  0  0  0
   38.0410   31.5610   46.9530 C   0  0  0  0  0  0  0  0  0  0  0  0
   38.5270   32.0630   45.7590 C   0  0  0  0  0  0  0  0  0  0  0  0
   37.8660   31.7780   44.5530 C   0  0  0  0  0  0  0  0  0  0  0  0
   36.7160   30.9830   44.5770 C   0  0  0  0  0  0  0  0  0  0  0  0
   36.2720   30.5060   45.8030 C   0  0  0  0  0  0  0  0  0  0  0  0
   36.9110   30.7830   46.9710 C   0  0  0  0  0  0  0  0  0  0  0  0
   38.6090   31.5480   50.1790 H   0  0  0  0  0  0  0  0  0  0  0  0
   39.4190   32.6640   45.8500 H   0  0  0  0  0  0  0  0  0  0  0  0
   38.3400   32.2260   43.6960 H   0  0  0  0  0  0  0  0  0  0  0  0
   36.3830   30.8970   43.5670 H   0  0  0  0  0  0  0  0  0  0  0  0
   35.1080   28.0370   48.3550 C   0  0  0  0  0  0  0  0  0  0  0  0
   35.1840   29.4500   48.2190 C   0  0  0  0  0  0  0  0  0  0  0  0
   33.9790   30.1790   48.1870 C   0  0  0  0  0  0  0  0  0  0  0  0
   32.7910   29.5240   48.2780 N   0  0  0  0  0  0  0  0  0  0  0  0
   32.7850   28.1650   48.4020 C   0  0  0  0  0  0  0  0  0  0  0  0
   33.9070   27.4330   48.4420 N   0  0  0  0  0  0  0  0  0  0  0  0
   31.4930   27.5140   48.4510 N   0  0  0  0  0  0  0  0  0  0  0  0
   30.5110   27.7500   49.4640 C   0  0  0  0  0  0  0  0  0  0  0  0
   29.2800   27.0600   48.9560 C   0  0  0  0  0  0  0  0  0  0  0  0
   29.5500   26.6620   47.5240 C   0  0  0  0  0  0  0  0  0  0  0  0
   31.0150   26.5240   47.4660 C   0  0  0  0  0  0  0  0  0  0  0  0
   36.0610   27.5540   48.3780 H   0  0  0  0  0  0  0  0  0  0  0  0
   33.9320   31.2410   48.0920 H   0  0  0  0  0  0  0  0  0  0  0  0
   30.3130   28.8260   49.5410 H   0  0  0  0  0  0  0  0  0  0  0  0
   30.8790   27.2870   50.4030 H   0  0  0  0  0  0  0  0  0  0  0  0
   28.3450   27.6410   49.0610 H   0  0  0  0  0  0  0  0  0  0  0  0
   29.1740   26.1060   49.5200 H   0  0  0  0  0  0  0  0  0  0  0  0
   29.2500   27.5420   46.8980 H   0  0  0  0  0  0  0  0  0  0  0  0
   28.9810   25.7580   47.2440 H   0  0  0  0  0  0  0  0  0  0  0  0
   31.3960   25.5460   47.8240 H   0  0  0  0  0  0  0  0  0  0  0  0
   31.4710   26.7040   46.4670 H   0  0  0  0  0  0  0  0  0  0  0  0
   34.9200   28.3490   45.2110 C   0  0  0  0  0  3  0  0  0  0  0  0
   35.1290   29.7020   45.4060 C   0  0  0  0  0  0  0  0  0  0  0  0
   33.9350   30.4290   45.1220 C   0  0  0  0  0  0  0  0  0  0  0  0
   33.9540   31.5270   45.2350 H   0  0  0  0  0  0  0  0  0  0  0  0
   32.7140   29.9360   44.7120 C   0  0  0  0  0  0  0  0  0  0  0  0
   31.5360   30.4850   44.4150 N   0  0  0  0  0  0  0  0  0  0  0  0
   31.3290   31.5080   44.4530 H   0  0  0  0  0  0  0  0  0  0  0  0
   30.7350   29.4600   44.0770 C   0  0  0  0  0  0  0  0  0  0  0  0
   29.7150   29.5430   43.7820 H   0  0  0  0  0  0  0  0  0  0  0  0
   31.4090   28.2460   44.1590 C   0  0  0  0  0  3  0  0  0  0  0  0
   32.6830   28.5690   44.5690 C   0  0  0  0  0  0  0  0  0  0  0  0
   33.7580   27.7480   44.8080 C   0  0  0  0  0  3  0  0  0  0  0  0
  1 16  1  0  0  0  0
  1  2  1  0  0  0  0
  3  2  2  0  0  0  0
  3 11  1  0  0  0  0
  4  3  1  0  0  0  0
  5 10  1  0  0  0  0
  5  4  2  0  0  0  0
  6 12  1  0  0  0  0
  6  5  1  0  0  0  0
  7  8  1  0  0  0  0
  7  6  2  0  0  0  0
  8  9  2  0  0  0  0
  9 10  1  0  0  0  0
 10  1  2  0  0  0  0
 13  7  1  0  0  0  0
 14  8  1  0  0  0  0
 15 26  1  0  0  0  0
 15 20  1  0  0  0  0
 16 15  2  0  0  0  0
 17 16  1  0  0  0  0
 17 18  2  0  0  0  0
 18 19  1  0  0  0  0
 19 20  2  0  0  0  0
 19 21  1  0  0  0  0
 21 22  1  0  0  0  0
 22 28  1  0  0  0  0
 22 29  1  0  0  0  0
 23 30  1  0  0  0  0
 23 22  1  0  0  0  0
 23 31  1  0  0  0  0
 24 23  1  0  0  0  0
 25 24  1  0  0  0  0
 25 34  1  0  0  0  0
 25 21  1  0  0  0  0
 27 17  1  0  0  0  0
 32 24  1  0  0  0  0
 33 24  1  0  0  0  0
 35 25  1  0  0  0  0
 36 37  1  0  0  0  0
 37  9  1  0  0  0  0
 38 39  1  0  0  0  0
 38 37  2  0  0  0  0
 40 38  1  0  0  0  0
 41 42  1  0  0  0  0
 41 40  1  0  0  0  0
 43 45  2  0  0  0  0
 43 41  1  0  0  0  0
 44 43  1  0  0  0  0
 45 46  1  0  0  0  0
 46 40  2  0  0  0  0
 46 47  1  0  0  0  0
 47 36  2  0  0  0  0
M  END
>  <minimizedAffinity>
-4.44447184

>  <minimizedRMSD>
2.63736677

$$$$
