
 OpenBabel03272510133D

 44 48  0  0  0  0  0  0  0  0999 V2000
   38.3880   31.3690   48.8660 C   0  0  0  0  0  0  0  0  0  0  0  0
   38.3690   32.5690   49.5430 C   0  0  0  0  0  0  0  0  0  0  0  0
   38.9550   33.5230   48.7160 C   0  0  0  0  0  0  0  0  0  0  0  0
   39.3060   32.9040   47.5930 N   0  0  0  0  0  0  0  0  0  0  0  0
   38.9690   31.6670   47.7030 N   0  0  0  0  0  0  0  0  0  0  0  0
   38.0230   32.9120   50.5100 H   0  0  0  0  0  0  0  0  0  0  0  0
   39.1340   34.5830   48.8690 H   0  0  0  0  0  0  0  0  0  0  0  0
   39.9660   33.4710   46.4500 C   0  0  0  0  0  0  0  0  0  0  0  0
   40.7720   34.1490   46.8630 H   0  0  0  0  0  0  0  0  0  0  0  0
   39.3170   34.1470   45.8690 H   0  0  0  0  0  0  0  0  0  0  0  0
   40.6100   32.4030   45.6410 C   0  0  0  0  0  0  0  0  0  0  0  0
   40.4310   31.3770   46.1050 H   0  0  0  0  0  0  0  0  0  0  0  0
   41.7250   32.5100   45.6390 H   0  0  0  0  0  0  0  0  0  0  0  0
   39.4830   33.1090   43.3970 C   0  0  0  0  0  3  0  0  0  0  0  0
   40.1610   32.2870   44.2590 C   0  0  0  0  0  0  0  0  0  0  0  0
   40.5550   31.0640   43.6970 C   0  0  0  0  0  0  0  0  0  0  0  0
   41.1080   30.2660   44.2220 H   0  0  0  0  0  0  0  0  0  0  0  0
   40.2920   30.7020   42.3840 C   0  0  0  0  0  0  0  0  0  0  0  0
   40.5330   29.6480   41.6050 N   0  0  0  0  0  0  0  0  0  0  0  0
   41.0510   28.7790   41.9200 H   0  0  0  0  0  0  0  0  0  0  0  0
   40.0440   29.8210   40.3780 C   0  0  0  0  0  0  0  0  0  0  0  0
   40.1210   29.0940   39.5690 H   0  0  0  0  0  0  0  0  0  0  0  0
   39.4340   31.0580   40.3110 C   0  0  0  0  0  3  0  0  0  0  0  0
   39.6040   31.5820   41.5750 C   0  0  0  0  0  0  0  0  0  0  0  0
   39.2030   32.7860   42.0890 C   0  0  0  0  0  3  0  0  0  0  0  0
   37.8410   30.3080   49.5540 O   0  0  0  0  0  0  0  0  0  0  0  0
   34.0980   28.8370   48.3200 C   0  0  0  0  0  0  0  0  0  0  0  0
   34.6810   28.4050   49.4750 C   0  0  0  0  0  0  0  0  0  0  0  0
   35.8990   28.8360   49.9450 C   0  0  0  0  0  0  0  0  0  0  0  0
   36.6130   29.7630   49.2400 C   0  0  0  0  0  0  0  0  0  0  0  0
   36.0290   30.2170   48.0540 C   0  0  0  0  0  0  0  0  0  0  0  0
   34.8270   29.7660   47.6270 N   0  0  0  0  0  0  0  0  0  0  0  0
   34.1680   27.6700   50.0810 H   0  0  0  0  0  0  0  0  0  0  0  0
   36.3530   28.4880   50.8600 H   0  0  0  0  0  0  0  0  0  0  0  0
   36.4820   30.9460   47.4030 H   0  0  0  0  0  0  0  0  0  0  0  0
   31.9610   27.5810   48.5560 C   0  0  0  0  0  0  0  0  0  0  0  0
   32.8350   28.3930   47.8180 C   0  0  0  0  0  0  0  0  0  0  0  0
   32.4300   28.7580   46.5560 C   0  0  0  0  0  0  0  0  0  0  0  0
   31.2230   28.3290   46.0760 N   0  0  0  0  0  0  0  0  0  0  0  0
   30.4140   27.5410   46.8360 C   0  0  0  0  0  0  0  0  0  0  0  0
   30.7720   27.1550   48.0930 N   0  0  0  0  0  0  0  0  0  0  0  0
   32.2360   27.2700   49.5550 H   0  0  0  0  0  0  0  0  0  0  0  0
   33.0080   29.3790   45.8850 H   0  0  0  0  0  0  0  0  0  0  0  0
   29.4520   27.1960   46.4600 H   0  0  0  0  0  0  0  0  0  0  0  0
  1  2  1  0  0  0  0
  1 26  1  0  0  0  0
  2  6  1  0  0  0  0
  3  7  1  0  0  0  0
  3  2  2  0  0  0  0
  4  5  1  0  0  0  0
  4  3  1  0  0  0  0
  5  1  2  0  0  0  0
  8  9  1  0  0  0  0
  8  4  1  0  0  0  0
 10  8  1  0  0  0  0
 11 12  1  0  0  0  0
 11  8  1  0  0  0  0
 13 11  1  0  0  0  0
 14 15  1  0  0  0  0
 15 11  1  0  0  0  0
 16 17  1  0  0  0  0
 16 15  2  0  0  0  0
 18 16  1  0  0  0  0
 19 20  1  0  0  0  0
 19 18  1  0  0  0  0
 21 19  1  0  0  0  0
 22 21  1  0  0  0  0
 23 21  2  0  0  0  0
 23 24  1  0  0  0  0
 24 25  1  0  0  0  0
 24 18  2  0  0  0  0
 25 14  2  0  0  0  0
 27 28  1  0  0  0  0
 28 29  2  0  0  0  0
 28 33  1  0  0  0  0
 29 34  1  0  0  0  0
 30 26  1  0  0  0  0
 30 29  1  0  0  0  0
 31 30  2  0  0  0  0
 32 31  1  0  0  0  0
 32 27  2  0  0  0  0
 35 31  1  0  0  0  0
 36 42  1  0  0  0  0
 37 27  1  0  0  0  0
 37 36  2  0  0  0  0
 38 37  1  0  0  0  0
 39 38  2  0  0  0  0
 39 40  1  0  0  0  0
 40 41  2  0  0  0  0
 41 36  1  0  0  0  0
 43 38  1  0  0  0  0
 44 40  1  0  0  0  0
M  END
>  <minimizedAffinity>
-6.67245913

>  <minimizedRMSD>
1.86772549

$$$$
