
 OpenBabel03272510133D

 44 48  0  0  0  0  0  0  0  0999 V2000
   38.3350   31.6050   48.9400 C   0  0  0  0  0  0  0  0  0  0  0  0
   38.4860   32.8520   49.5050 C   0  0  0  0  0  0  0  0  0  0  0  0
   39.1220   33.6600   48.5660 C   0  0  0  0  0  0  0  0  0  0  0  0
   39.3360   32.9120   47.4880 N   0  0  0  0  0  0  0  0  0  0  0  0
   38.8750   31.7340   47.7280 N   0  0  0  0  0  0  0  0  0  0  0  0
   38.2370   33.3140   50.4520 H   0  0  0  0  0  0  0  0  0  0  0  0
   39.4230   34.7020   48.6120 H   0  0  0  0  0  0  0  0  0  0  0  0
   39.9850   33.3010   46.2670 C   0  0  0  0  0  0  0  0  0  0  0  0
   40.7990   34.0260   46.5660 H   0  0  0  0  0  0  0  0  0  0  0  0
   39.3320   33.8890   45.6000 H   0  0  0  0  0  0  0  0  0  0  0  0
   40.6130   32.1210   45.6150 C   0  0  0  0  0  0  0  0  0  0  0  0
   40.3220   31.1580   46.1510 H   0  0  0  0  0  0  0  0  0  0  0  0
   41.7290   32.1550   45.7010 H   0  0  0  0  0  0  0  0  0  0  0  0
   39.6190   32.6390   43.2600 C   0  0  0  0  0  3  0  0  0  0  0  0
   40.2710   31.9050   44.2150 C   0  0  0  0  0  0  0  0  0  0  0  0
   40.7610   30.6720   43.7560 C   0  0  0  0  0  0  0  0  0  0  0  0
   41.3110   29.9350   44.3640 H   0  0  0  0  0  0  0  0  0  0  0  0
   40.6090   30.2240   42.4520 C   0  0  0  0  0  0  0  0  0  0  0  0
   40.9560   29.1410   41.7570 N   0  0  0  0  0  0  0  0  0  0  0  0
   41.4900   28.3190   42.1580 H   0  0  0  0  0  0  0  0  0  0  0  0
   40.5480   29.2200   40.4910 C   0  0  0  0  0  0  0  0  0  0  0  0
   40.7170   28.4530   39.7340 H   0  0  0  0  0  0  0  0  0  0  0  0
   39.8880   30.4180   40.3080 C   0  0  0  0  0  3  0  0  0  0  0  0
   39.9410   31.0200   41.5460 C   0  0  0  0  0  0  0  0  0  0  0  0
   39.4480   32.2300   41.9580 C   0  0  0  0  0  3  0  0  0  0  0  0
   37.7190   30.6750   49.7490 O   0  0  0  0  0  0  0  0  0  0  0  0
   34.1450   28.9030   48.4100 C   0  0  0  0  0  0  0  0  0  0  0  0
   34.8480   28.3760   49.4530 C   0  0  0  0  0  0  0  0  0  0  0  0
   36.0200   28.8950   49.9480 C   0  0  0  0  0  0  0  0  0  0  0  0
   36.5600   30.0180   49.3880 C   0  0  0  0  0  0  0  0  0  0  0  0
   35.8510   30.5710   48.3170 C   0  0  0  0  0  0  0  0  0  0  0  0
   34.7000   30.0280   47.8610 N   0  0  0  0  0  0  0  0  0  0  0  0
   34.4760   27.4850   49.9420 H   0  0  0  0  0  0  0  0  0  0  0  0
   36.5700   28.4700   50.7750 H   0  0  0  0  0  0  0  0  0  0  0  0
   36.1630   31.4550   47.7850 H   0  0  0  0  0  0  0  0  0  0  0  0
   32.0640   27.5550   48.6280 C   0  0  0  0  0  0  0  0  0  0  0  0
   32.9280   28.3710   47.8820 C   0  0  0  0  0  0  0  0  0  0  0  0
   32.5590   28.6480   46.5870 C   0  0  0  0  0  0  0  0  0  0  0  0
   31.3970   28.1350   46.0840 N   0  0  0  0  0  0  0  0  0  0  0  0
   30.5940   27.3480   46.8520 C   0  0  0  0  0  0  0  0  0  0  0  0
   30.9170   27.0450   48.1420 N   0  0  0  0  0  0  0  0  0  0  0  0
   32.3110   27.3090   49.6520 H   0  0  0  0  0  0  0  0  0  0  0  0
   33.1350   29.2620   45.9080 H   0  0  0  0  0  0  0  0  0  0  0  0
   29.6670   26.9350   46.4570 H   0  0  0  0  0  0  0  0  0  0  0  0
  1  2  1  0  0  0  0
  1 26  1  0  0  0  0
  2  6  1  0  0  0  0
  3  7  1  0  0  0  0
  3  2  2  0  0  0  0
  4  5  1  0  0  0  0
  4  3  1  0  0  0  0
  5  1  2  0  0  0  0
  8  9  1  0  0  0  0
  8  4  1  0  0  0  0
 10  8  1  0  0  0  0
 11 13  1  0  0  0  0
 11 12  1  0  0  0  0
 11  8  1  0  0  0  0
 14 15  1  0  0  0  0
 15 11  1  0  0  0  0
 16 15  2  0  0  0  0
 16 17  1  0  0  0  0
 18 16  1  0  0  0  0
 19 20  1  0  0  0  0
 19 18  1  0  0  0  0
 21 19  1  0  0  0  0
 22 21  1  0  0  0  0
 23 21  2  0  0  0  0
 23 24  1  0  0  0  0
 24 25  1  0  0  0  0
 24 18  2  0  0  0  0
 25 14  2  0  0  0  0
 27 28  1  0  0  0  0
 28 33  1  0  0  0  0
 28 29  2  0  0  0  0
 29 34  1  0  0  0  0
 30 26  1  0  0  0  0
 30 29  1  0  0  0  0
 31 30  2  0  0  0  0
 32 31  1  0  0  0  0
 32 27  2  0  0  0  0
 35 31  1  0  0  0  0
 36 42  1  0  0  0  0
 37 27  1  0  0  0  0
 37 36  2  0  0  0  0
 38 37  1  0  0  0  0
 39 38  2  0  0  0  0
 39 40  1  0  0  0  0
 40 41  2  0  0  0  0
 41 36  1  0  0  0  0
 43 38  1  0  0  0  0
 44 40  1  0  0  0  0
M  END
>  <minimizedAffinity>
-6.69791651

>  <minimizedRMSD>
1.66455519

$$$$
