
 OpenBabel03272510133D

 44 48  0  0  0  0  0  0  0  0999 V2000
   38.2430   31.6360   48.9360 C   0  0  0  0  0  0  0  0  0  0  0  0
   38.4790   32.9010   49.4300 C   0  0  0  0  0  0  0  0  0  0  0  0
   39.1730   33.6070   48.4510 C   0  0  0  0  0  0  0  0  0  0  0  0
   39.3390   32.7850   47.4190 N   0  0  0  0  0  0  0  0  0  0  0  0
   38.7950   31.6580   47.7220 N   0  0  0  0  0  0  0  0  0  0  0  0
   38.2590   33.4330   50.3470 H   0  0  0  0  0  0  0  0  0  0  0  0
   39.5450   34.6260   48.4390 H   0  0  0  0  0  0  0  0  0  0  0  0
   40.0170   33.0570   46.1830 C   0  0  0  0  0  0  0  0  0  0  0  0
   40.8110   33.8230   46.4280 H   0  0  0  0  0  0  0  0  0  0  0  0
   39.3760   33.5610   45.4410 H   0  0  0  0  0  0  0  0  0  0  0  0
   40.6810   31.8280   45.6750 C   0  0  0  0  0  0  0  0  0  0  0  0
   40.8110   31.0610   46.5090 H   0  0  0  0  0  0  0  0  0  0  0  0
   41.7280   32.0400   45.3370 H   0  0  0  0  0  0  0  0  0  0  0  0
   39.2340   29.9810   44.5340 C   0  0  0  0  0  3  0  0  0  0  0  0
   39.9910   31.1220   44.6030 C   0  0  0  0  0  0  0  0  0  0  0  0
   40.1160   31.8020   43.3820 C   0  0  0  0  0  0  0  0  0  0  0  0
   40.6830   32.7360   43.2250 H   0  0  0  0  0  0  0  0  0  0  0  0
   39.5310   31.3730   42.2010 C   0  0  0  0  0  0  0  0  0  0  0  0
   39.4790   31.7970   40.9380 N   0  0  0  0  0  0  0  0  0  0  0  0
   39.9560   32.6740   40.5830 H   0  0  0  0  0  0  0  0  0  0  0  0
   38.7510   30.9830   40.1760 C   0  0  0  0  0  0  0  0  0  0  0  0
   38.5680   31.1260   39.1100 H   0  0  0  0  0  0  0  0  0  0  0  0
   38.2790   29.9450   40.9550 C   0  0  0  0  0  3  0  0  0  0  0  0
   38.7810   30.2160   42.2090 C   0  0  0  0  0  0  0  0  0  0  0  0
   38.6370   29.5240   43.3830 C   0  0  0  0  0  3  0  0  0  0  0  0
   37.5610   30.7990   49.7920 O   0  0  0  0  0  0  0  0  0  0  0  0
   34.0760   28.8880   48.4100 C   0  0  0  0  0  0  0  0  0  0  0  0
   34.8220   28.3540   49.4190 C   0  0  0  0  0  0  0  0  0  0  0  0
   35.9700   28.9170   49.9250 C   0  0  0  0  0  0  0  0  0  0  0  0
   36.4370   30.0940   49.4130 C   0  0  0  0  0  0  0  0  0  0  0  0
   35.6830   30.6550   48.3780 C   0  0  0  0  0  0  0  0  0  0  0  0
   34.5580   30.0680   47.9090 N   0  0  0  0  0  0  0  0  0  0  0  0
   34.5090   27.4220   49.8690 H   0  0  0  0  0  0  0  0  0  0  0  0
   36.5550   28.4860   50.7240 H   0  0  0  0  0  0  0  0  0  0  0  0
   35.9360   31.5790   47.8850 H   0  0  0  0  0  0  0  0  0  0  0  0
   32.0600   27.4400   48.5980 C   0  0  0  0  0  0  0  0  0  0  0  0
   32.8850   28.3120   47.8710 C   0  0  0  0  0  0  0  0  0  0  0  0
   32.5020   28.6010   46.5830 C   0  0  0  0  0  0  0  0  0  0  0  0
   31.3630   28.0450   46.0680 N   0  0  0  0  0  0  0  0  0  0  0  0
   30.6000   27.2040   46.8190 C   0  0  0  0  0  0  0  0  0  0  0  0
   30.9380   26.8890   48.1010 N   0  0  0  0  0  0  0  0  0  0  0  0
   32.3200   27.1840   49.6170 H   0  0  0  0  0  0  0  0  0  0  0  0
   33.0470   29.2560   45.9160 H   0  0  0  0  0  0  0  0  0  0  0  0
   29.6920   26.7580   46.4150 H   0  0  0  0  0  0  0  0  0  0  0  0
  1  2  1  0  0  0  0
  1 26  1  0  0  0  0
  2  6  1  0  0  0  0
  3  2  2  0  0  0  0
  4  5  1  0  0  0  0
  4  3  1  0  0  0  0
  5  1  2  0  0  0  0
  7  3  1  0  0  0  0
  8  9  1  0  0  0  0
  8  4  1  0  0  0  0
 10  8  1  0  0  0  0
 11  8  1  0  0  0  0
 11 12  1  0  0  0  0
 13 11  1  0  0  0  0
 14 15  1  0  0  0  0
 15 11  1  0  0  0  0
 16 15  2  0  0  0  0
 17 16  1  0  0  0  0
 18 24  2  0  0  0  0
 18 16  1  0  0  0  0
 19 18  1  0  0  0  0
 20 19  1  0  0  0  0
 21 19  1  0  0  0  0
 21 23  2  0  0  0  0
 22 21  1  0  0  0  0
 23 24  1  0  0  0  0
 24 25  1  0  0  0  0
 25 14  2  0  0  0  0
 27 28  1  0  0  0  0
 28 33  1  0  0  0  0
 28 29  2  0  0  0  0
 29 34  1  0  0  0  0
 30 26  1  0  0  0  0
 30 29  1  0  0  0  0
 31 30  2  0  0  0  0
 32 31  1  0  0  0  0
 32 27  2  0  0  0  0
 35 31  1  0  0  0  0
 36 42  1  0  0  0  0
 37 27  1  0  0  0  0
 37 36  2  0  0  0  0
 38 37  1  0  0  0  0
 39 38  2  0  0  0  0
 39 40  1  0  0  0  0
 40 41  2  0  0  0  0
 41 36  1  0  0  0  0
 43 38  1  0  0  0  0
 44 40  1  0  0  0  0
M  END
>  <minimizedAffinity>
-6.54373837

>  <minimizedRMSD>
1.20250916

$$$$
