
 OpenBabel03262521403D

 46 51  0  0  0  0  0  0  0  0999 V2000
   38.5480   31.5390   46.1100 C   0  0  0  0  0  0  0  0  0  0  0  0
   38.9880   31.4920   44.8220 N   0  0  0  0  0  0  0  0  0  0  0  0
   39.8760   32.4110   44.3740 C   0  0  0  0  0  0  0  0  0  0  0  0
   40.3600   33.3950   45.1580 N   0  0  0  0  0  0  0  0  0  0  0  0
   39.9540   33.4790   46.4290 C   0  0  0  0  0  0  0  0  0  0  0  0
   40.4620   34.4800   47.2250 C   0  0  0  0  0  0  0  0  0  0  0  0
   40.0620   34.5800   48.5520 C   0  0  0  0  0  0  0  0  0  0  0  0
   39.1370   33.6510   49.0670 C   0  0  0  0  0  0  0  0  0  0  0  0
   38.6770   32.6820   48.2110 C   0  0  0  0  0  0  0  0  0  0  0  0
   39.0510   32.5580   46.9110 C   0  0  0  0  0  0  0  0  0  0  0  0
   40.1410   32.2590   43.3360 H   0  0  0  0  0  0  0  0  0  0  0  0
   41.1750   35.1770   46.7790 H   0  0  0  0  0  0  0  0  0  0  0  0
   40.5210   35.4000   49.0840 H   0  0  0  0  0  0  0  0  0  0  0  0
   38.9210   33.8490   50.1010 H   0  0  0  0  0  0  0  0  0  0  0  0
   36.2800   31.8860   48.9450 C   0  0  0  0  0  0  0  0  0  0  0  0
   37.6860   31.8980   48.9340 C   0  0  0  0  0  0  0  0  0  0  0  0
   38.3350   30.9840   49.7740 C   0  0  0  0  0  0  0  0  0  0  0  0
   39.4100   30.8460   49.8990 H   0  0  0  0  0  0  0  0  0  0  0  0
   37.6260   30.0980   50.5890 C   0  0  0  0  0  0  0  0  0  0  0  0
   37.9280   29.1380   51.4720 N   0  0  0  0  0  0  0  0  0  0  0  0
   38.9130   28.8630   51.7240 H   0  0  0  0  0  0  0  0  0  0  0  0
   36.8210   28.5800   51.9860 C   0  0  0  0  0  0  0  0  0  0  0  0
   36.8370   27.7930   52.7090 H   0  0  0  0  0  0  0  0  0  0  0  0
   35.7100   29.1970   51.4200 C   0  0  0  0  0  0  0  0  0  0  0  0
   36.2540   30.1270   50.5640 C   0  0  0  0  0  0  0  0  0  0  0  0
   35.5920   31.0150   49.7480 C   0  0  0  0  0  0  0  0  0  0  0  0
   37.4260   30.3930   46.8380 S   0  0  0  0  0  0  0  0  0  0  0  0
   34.9890   28.9530   47.5990 F   0  0  0  0  0  0  0  0  0  0  0  0
   34.8950   29.4420   46.3120 C   0  0  0  0  0  0  0  0  0  0  0  0
   33.7560   29.2270   45.5600 C   0  0  0  0  0  0  0  0  0  0  0  0
   33.7060   29.7460   44.2540 C   0  0  0  0  0  0  0  0  0  0  0  0
   34.7810   30.4620   43.7300 C   0  0  0  0  0  0  0  0  0  0  0  0
   35.8800   30.6300   44.5470 C   0  0  0  0  0  0  0  0  0  0  0  0
   35.9690   30.1390   45.8310 C   0  0  0  0  0  0  0  0  0  0  0  0
   32.8280   29.5780   43.6810 H   0  0  0  0  0  0  0  0  0  0  0  0
   34.7210   30.8500   42.7260 H   0  0  0  0  0  0  0  0  0  0  0  0
   36.6770   31.1920   44.0870 H   0  0  0  0  0  0  0  0  0  0  0  0
   32.8800   27.1110   46.1640 C   0  0  0  0  0  0  0  0  0  0  0  0
   32.6960   28.4910   46.1540 C   0  0  0  0  0  0  0  0  0  0  0  0
   31.5250   28.9700   46.7110 C   0  0  0  0  0  0  0  0  0  0  0  0
   30.6300   28.0960   47.2310 N   0  0  0  0  0  0  0  0  0  0  0  0
   30.8330   26.7920   47.2260 C   0  0  0  0  0  0  0  0  0  0  0  0
   31.9620   26.2640   46.6920 N   0  0  0  0  0  0  0  0  0  0  0  0
   33.7400   26.5580   45.7680 H   0  0  0  0  0  0  0  0  0  0  0  0
   31.4190   30.0390   46.6850 H   0  0  0  0  0  0  0  0  0  0  0  0
   29.9960   26.2690   47.6900 H   0  0  0  0  0  0  0  0  0  0  0  0
  1 27  1  0  0  0  0
  1 10  1  0  0  0  0
  2  1  2  0  0  0  0
  3  2  1  0  0  0  0
  3  4  2  0  0  0  0
  4  5  1  0  0  0  0
  5 10  2  0  0  0  0
  5  6  1  0  0  0  0
  6  7  2  0  0  0  0
  7  8  1  0  0  0  0
  7 13  1  0  0  0  0
  8 14  1  0  0  0  0
  9 16  1  0  0  0  0
  9  8  2  0  0  0  0
 10  9  1  0  0  0  0
 11  3  1  0  0  0  0
 12  6  1  0  0  0  0
 15 26  1  0  0  0  0
 16 15  2  0  0  0  0
 16 17  1  0  0  0  0
 17 18  1  0  0  0  0
 17 19  2  0  0  0  0
 19 20  1  0  0  0  0
 20 21  1  0  0  0  0
 20 22  1  0  0  0  0
 22 23  1  0  0  0  0
 24 22  2  0  0  0  0
 25 19  1  0  0  0  0
 25 24  1  0  0  0  0
 26 25  2  0  0  0  0
 29 28  1  0  0  0  0
 30 39  1  0  0  0  0
 30 29  2  0  0  0  0
 31 30  1  0  0  0  0
 32 31  2  0  0  0  0
 32 33  1  0  0  0  0
 33 34  2  0  0  0  0
 34 29  1  0  0  0  0
 34 27  1  0  0  0  0
 35 31  1  0  0  0  0
 36 32  1  0  0  0  0
 37 33  1  0  0  0  0
 38 43  1  0  0  0  0
 39 38  2  0  0  0  0
 39 40  1  0  0  0  0
 40 41  2  0  0  0  0
 42 41  1  0  0  0  0
 42 46  1  0  0  0  0
 43 42  2  0  0  0  0
 44 38  1  0  0  0  0
 45 40  1  0  0  0  0
M  END
>  <minimizedAffinity>
-5.51011562

>  <minimizedRMSD>
1.49542379

$$$$
