
 OpenBabel03272502333D

 39 42  0  0  1  0  0  0  0  0999 V2000
   33.5900   29.1890   45.0570 C   0  0  0  0  0  0  0  0  0  0  0  0
   34.6150   29.4440   45.9450 C   0  0  0  0  0  0  0  0  0  0  0  0
   34.4960   29.2970   47.3020 C   0  0  0  0  0  0  0  0  0  0  0  0
   33.2990   28.8790   47.7430 N   0  0  0  0  0  0  0  0  0  0  0  0
   32.2920   28.6250   46.9140 C   0  0  0  0  0  0  0  0  0  0  0  0
   32.4210   28.7740   45.5830 N   0  0  0  0  0  0  0  0  0  0  0  0
   33.6250   29.2860   44.0020 H   0  0  0  0  0  0  0  0  0  0  0  0
   35.5000   29.7690   45.4140 H   0  0  0  0  0  0  0  0  0  0  0  0
   29.9130   28.0350   46.6010 C   0  0  0  0  0  0  0  0  0  0  0  0
   31.0070   28.1710   47.4410 C   0  0  0  0  0  0  0  0  0  0  0  0
   30.8220   27.8650   48.7660 C   0  0  0  0  0  0  0  0  0  0  0  0
   31.7030   27.9850   49.3910 H   0  0  0  0  0  0  0  0  0  0  0  0
   29.6080   27.4350   49.2730 C   0  0  0  0  0  0  0  0  0  0  0  0
   29.2680   27.0990   50.5320 N   0  0  0  0  0  0  0  0  0  0  0  0
   29.8840   27.1050   51.3750 H   0  0  0  0  0  0  0  0  0  0  0  0
   27.9590   26.7520   50.4770 C   0  0  0  0  0  0  0  0  0  0  0  0
   27.4290   26.4350   51.3720 H   0  0  0  0  0  0  0  0  0  0  0  0
   27.4660   26.8650   49.1980 C   0  0  0  0  0  0  0  0  0  0  0  0
   28.5330   27.3070   48.4190 C   0  0  0  0  0  0  0  0  0  0  0  0
   28.6880   27.6100   47.0700 C   0  0  0  0  0  0  0  0  0  0  0  0
   35.6180   29.5970   48.1570 C   0  0  0  0  0  0  0  0  0  0  0  0
   36.5930   30.3630   47.7850 C   0  0  0  0  0  0  0  0  0  0  0  0
   37.7020   30.6130   48.7670 C   0  0  1  0  0  0  0  0  0  0  0  0
   38.3300   29.7120   48.8630 H   0  0  0  0  0  0  0  0  0  0  0  0
   38.4800   31.7880   48.3440 C   0  0  0  0  0  0  0  0  0  0  0  0
   38.5870   32.7790   49.3570 C   0  0  0  0  0  0  0  0  0  0  0  0
   39.2680   33.9650   49.1880 C   0  0  0  0  0  0  0  0  0  0  0  0
   39.9070   34.2580   47.9720 C   0  0  0  0  0  0  0  0  0  0  0  0
   39.7520   33.2380   47.0410 C   0  0  0  0  0  0  0  0  0  0  0  0
   39.0980   32.0770   47.1760 N   0  0  0  0  0  0  0  0  0  0  0  0
   38.1840   32.7870   50.3770 H   0  0  0  0  0  0  0  0  0  0  0  0
   39.3860   34.7560   49.9150 H   0  0  0  0  0  0  0  0  0  0  0  0
   40.4670   35.1200   47.6900 H   0  0  0  0  0  0  0  0  0  0  0  0
   40.1920   33.3140   46.0440 H   0  0  0  0  0  0  0  0  0  0  0  0
   36.9240   31.0690   50.3540 S   0  0  0  0  0  0  0  0  0  0  0  0
   36.9220   29.6920   51.4870 C   0  0  0  0  0  0  0  0  0  0  0  0
   37.5540   29.9700   52.6880 F   0  0  0  0  0  0  0  0  0  0  0  0
   35.6480   29.1960   51.6850 F   0  0  0  0  0  0  0  0  0  0  0  0
   37.6440   28.6600   50.8560 F   0  0  0  0  0  0  0  0  0  0  0  0
  1  6  2  0  0  0  0
  1  2  1  0  0  0  0
  2  3  2  0  0  0  0
  3  4  1  0  0  0  0
  3 21  1  0  0  0  0
  5 10  1  0  0  0  0
  5  4  2  0  0  0  0
  6  5  1  0  0  0  0
  7  1  1  0  0  0  0
  8  2  1  0  0  0  0
  9 20  2  0  0  0  0
  9 10  1  0  0  0  0
 10 11  2  0  0  0  0
 11 13  1  0  0  0  0
 11 12  1  0  0  0  0
 13 14  1  0  0  0  0
 14 15  1  0  0  0  0
 16 14  1  0  0  0  0
 16 17  1  0  0  0  0
 18 16  2  0  0  0  0
 19 18  1  0  0  0  0
 19 13  2  0  0  0  0
 20 19  1  0  0  0  0
 22 21  2  0  0  0  0
 22 23  1  0  0  0  0
 23 24  1  1  0  0  0
 23 35  1  0  0  0  0
 25 23  1  0  0  0  0
 25 26  1  0  0  0  0
 26 31  1  0  0  0  0
 27 26  2  0  0  0  0
 27 32  1  0  0  0  0
 28 27  1  0  0  0  0
 29 30  1  0  0  0  0
 29 28  2  0  0  0  0
 30 25  2  0  0  0  0
 33 28  1  0  0  0  0
 34 29  1  0  0  0  0
 35 36  1  0  0  0  0
 36 38  1  0  0  0  0
 36 37  1  0  0  0  0
 39 36  1  0  0  0  0
M  END
>  <minimizedAffinity>
-7.40626574

>  <minimizedRMSD>
0.79052943

$$$$
