
 OpenBabel03272502503D

 45 49  0  0  0  0  0  0  0  0999 V2000
   38.5080   26.3170   30.0450 Cl  0  0  0  0  0  0  0  0  0  0  0  0
   37.5510   27.3130   31.1070 C   0  0  0  0  0  0  0  0  0  0  0  0
   36.9200   26.7380   32.1830 C   0  0  0  0  0  0  0  0  0  0  0  0
   36.1590   27.4970   33.0390 C   0  0  0  0  0  0  0  0  0  0  0  0
   36.0040   28.8640   32.8410 C   0  0  0  0  0  0  0  0  0  0  0  0
   36.6300   29.4500   31.7690 C   0  0  0  0  0  0  0  0  0  0  0  0
   36.5010   31.1600   31.4280 Cl  0  0  0  0  0  0  0  0  0  0  0  0
   37.3880   28.6580   30.9280 C   0  0  0  0  0  0  0  0  0  0  0  0
   35.6840   27.0000   33.8690 H   0  0  0  0  0  0  0  0  0  0  0  0
   33.8180   29.7560   33.7240 C   0  0  0  0  0  3  0  0  0  0  0  0
   35.1950   29.6700   33.7510 C   0  0  0  0  0  0  0  0  0  0  0  0
   35.8310   30.4170   34.7290 C   0  0  0  0  0  0  0  0  0  0  0  0
   36.9110   30.3690   34.7740 H   0  0  0  0  0  0  0  0  0  0  0  0
   35.1640   31.2120   35.6410 C   0  0  0  0  0  0  0  0  0  0  0  0
   35.5280   32.0100   36.6540 N   0  0  0  0  0  0  0  0  0  0  0  0
   36.4880   32.1990   36.9770 H   0  0  0  0  0  0  0  0  0  0  0  0
   34.4390   32.5570   37.2200 C   0  0  0  0  0  0  0  0  0  0  0  0
   34.3830   33.2520   38.0660 H   0  0  0  0  0  0  0  0  0  0  0  0
   33.3140   32.1080   36.5600 C   0  0  0  0  0  3  0  0  0  0  0  0
   33.7850   31.2700   35.5780 C   0  0  0  0  0  0  0  0  0  0  0  0
   33.1100   30.5370   34.6130 C   0  0  0  0  0  3  0  0  0  0  0  0
   36.6330   23.0960   31.8590 C   0  0  0  0  0  0  0  0  0  0  0  0
   37.3970   22.6190   32.9170 C   0  0  0  0  0  0  0  0  0  0  0  0
   38.0090   23.5710   33.7390 C   0  0  0  0  0  0  0  0  0  0  0  0
   37.8240   24.8890   33.4580 N   0  0  0  0  0  0  0  0  0  0  0  0
   37.0680   25.3000   32.4130 C   0  0  0  0  0  0  0  0  0  0  0  0
   36.4910   24.3990   31.6400 N   0  0  0  0  0  0  0  0  0  0  0  0
   36.1710   22.3390   31.2400 H   0  0  0  0  0  0  0  0  0  0  0  0
   37.5420   21.5650   33.1350 H   0  0  0  0  0  0  0  0  0  0  0  0
   38.8400   23.2010   34.8850 C   0  0  0  0  0  0  0  0  0  0  0  0
   40.1480   22.7930   34.7790 C   0  0  0  0  0  0  0  0  0  0  0  0
   40.6640   22.5150   36.0060 N   0  0  0  0  0  0  0  0  0  0  0  0
   39.6770   22.7490   36.8760 C   0  0  0  0  0  0  0  0  0  0  0  0
   38.5960   23.1570   36.1880 N   0  0  0  0  0  0  0  0  0  0  0  0
   38.7380   23.5060   38.9920 C   0  0  0  0  0  0  0  0  0  0  0  0
   38.0530   24.3300   38.3620 O   0  0  0  0  0  0  0  0  0  0  0  0
   39.6170   22.6370   38.2920 N   0  0  0  0  0  0  0  0  0  0  0  0
   40.7790   22.6740   33.9050 H   0  0  0  0  0  0  0  0  0  0  0  0
   41.5920   22.1920   36.3090 H   0  0  0  0  0  0  0  0  0  0  0  0
   38.6570   23.4550   40.1040 H   0  0  0  0  0  0  0  0  0  0  0  0
   40.2100   21.9320   38.7840 H   0  0  0  0  0  0  0  0  0  0  0  0
   38.0650   29.2900   29.7670 C   0  0  0  0  0  0  0  0  0  0  0  0
   39.4300   28.9890   29.7750 F   0  0  0  0  0  0  0  0  0  0  0  0
   38.0280   30.6880   29.8870 F   0  0  0  0  0  0  0  0  0  0  0  0
   37.4670   28.9790   28.5700 F   0  0  0  0  0  0  0  0  0  0  0  0
  1  2  1  0  0  0  0
  2  3  1  0  0  0  0
  3 26  1  0  0  0  0
  3  4  2  0  0  0  0
  4  9  1  0  0  0  0
  5  4  1  0  0  0  0
  5 11  1  0  0  0  0
  6  5  2  0  0  0  0
  7  6  1  0  0  0  0
  8  2  2  0  0  0  0
  8  6  1  0  0  0  0
 10 11  2  0  0  0  0
 10 21  1  0  0  0  0
 11 12  1  0  0  0  0
 12 13  1  0  0  0  0
 12 14  2  0  0  0  0
 14 15  1  0  0  0  0
 15 16  1  0  0  0  0
 15 17  1  0  0  0  0
 17 18  1  0  0  0  0
 19 17  2  0  0  0  0
 20 14  1  0  0  0  0
 20 19  1  0  0  0  0
 21 20  2  0  0  0  0
 22 23  1  0  0  0  0
 23 29  1  0  0  0  0
 23 24  2  0  0  0  0
 24 30  1  0  0  0  0
 25 24  1  0  0  0  0
 26 25  2  0  0  0  0
 27 22  2  0  0  0  0
 27 26  1  0  0  0  0
 28 22  1  0  0  0  0
 30 34  1  0  0  0  0
 31 30  2  0  0  0  0
 31 32  1  0  0  0  0
 32 39  1  0  0  0  0
 32 33  1  0  0  0  0
 33 37  1  0  0  0  0
 34 33  2  0  0  0  0
 35 40  1  0  0  0  0
 36 35  2  0  0  0  0
 37 41  1  0  0  0  0
 37 35  1  0  0  0  0
 38 31  1  0  0  0  0
 42 43  1  0  0  0  0
 42 44  1  0  0  0  0
 42  8  1  0  0  0  0
 45 42  1  0  0  0  0
M  END
>  <minimizedAffinity>
-7.92200708

$$$$

 OpenBabel03272502503D

 45 49  0  0  0  0  0  0  0  0999 V2000
   38.9590   26.6110   31.1200 Cl  0  0  0  0  0  0  0  0  0  0  0  0
   37.8540   27.5450   32.0910 C   0  0  0  0  0  0  0  0  0  0  0  0
   37.6420   27.1890   33.4010 C   0  0  0  0  0  0  0  0  0  0  0  0
   36.7780   27.9060   34.1930 C   0  0  0  0  0  0  0  0  0  0  0  0
   36.0940   29.0080   33.6930 C   0  0  0  0  0  0  0  0  0  0  0  0
   36.2970   29.3730   32.3860 C   0  0  0  0  0  0  0  0  0  0  0  0
   35.4880   30.7420   31.6570 Cl  0  0  0  0  0  0  0  0  0  0  0  0
   37.1730   28.6310   31.6170 C   0  0  0  0  0  0  0  0  0  0  0  0
   36.6460   27.5870   35.2140 H   0  0  0  0  0  0  0  0  0  0  0  0
   33.8170   29.5480   34.6300 C   0  0  0  0  0  3  0  0  0  0  0  0
   35.1750   29.7690   34.5350 C   0  0  0  0  0  0  0  0  0  0  0  0
   35.6780   30.8010   35.3110 C   0  0  0  0  0  0  0  0  0  0  0  0
   36.7410   30.9980   35.2570 H   0  0  0  0  0  0  0  0  0  0  0  0
   34.9010   31.5840   36.1430 C   0  0  0  0  0  0  0  0  0  0  0  0
   35.1290   32.6110   36.9720 N   0  0  0  0  0  0  0  0  0  0  0  0
   36.0360   33.0590   37.1640 H   0  0  0  0  0  0  0  0  0  0  0  0
   33.9780   33.0010   37.5460 C   0  0  0  0  0  0  0  0  0  0  0  0
   33.8140   33.8080   38.2700 H   0  0  0  0  0  0  0  0  0  0  0  0
   32.9510   32.2060   37.0820 C   0  0  0  0  0  3  0  0  0  0  0  0
   33.5440   31.3270   36.2080 C   0  0  0  0  0  0  0  0  0  0  0  0
   33.0020   30.3030   35.4460 C   0  0  0  0  0  3  0  0  0  0  0  0
   40.2640   25.0190   34.7690 C   0  0  0  0  0  0  0  0  0  0  0  0
   39.6060   23.8130   34.9750 C   0  0  0  0  0  0  0  0  0  0  0  0
   38.2490   23.7630   34.6360 C   0  0  0  0  0  0  0  0  0  0  0  0
   37.6630   24.8820   34.1310 N   0  0  0  0  0  0  0  0  0  0  0  0
   38.3520   26.0320   33.9500 C   0  0  0  0  0  0  0  0  0  0  0  0
   39.6310   26.0770   34.2710 N   0  0  0  0  0  0  0  0  0  0  0  0
   41.3110   25.0300   35.0400 H   0  0  0  0  0  0  0  0  0  0  0  0
   40.0790   22.9230   35.3790 H   0  0  0  0  0  0  0  0  0  0  0  0
   37.4430   22.5540   34.8050 C   0  0  0  0  0  0  0  0  0  0  0  0
   37.1570   21.9920   36.0260 C   0  0  0  0  0  0  0  0  0  0  0  0
   36.3900   20.8790   35.8730 N   0  0  0  0  0  0  0  0  0  0  0  0
   36.1990   20.7480   34.5580 C   0  0  0  0  0  0  0  0  0  0  0  0
   36.8350   21.7570   33.9360 N   0  0  0  0  0  0  0  0  0  0  0  0
   34.9170   20.1960   32.5610 C   0  0  0  0  0  0  0  0  0  0  0  0
   35.0560   21.3700   32.1810 O   0  0  0  0  0  0  0  0  0  0  0  0
   35.4850   19.7830   33.7970 N   0  0  0  0  0  0  0  0  0  0  0  0
   37.4430   22.2990   37.0260 H   0  0  0  0  0  0  0  0  0  0  0  0
   35.9930   20.2160   36.5500 H   0  0  0  0  0  0  0  0  0  0  0  0
   34.3480   19.4740   31.9290 H   0  0  0  0  0  0  0  0  0  0  0  0
   35.3910   18.8050   34.1520 H   0  0  0  0  0  0  0  0  0  0  0  0
   37.3940   29.0250   30.2020 C   0  0  0  0  0  0  0  0  0  0  0  0
   36.7290   28.1450   29.3420 F   0  0  0  0  0  0  0  0  0  0  0  0
   38.7470   28.8710   29.8620 F   0  0  0  0  0  0  0  0  0  0  0  0
   37.0710   30.3380   29.9600 F   0  0  0  0  0  0  0  0  0  0  0  0
  1  2  1  0  0  0  0
  2  3  1  0  0  0  0
  3 26  1  0  0  0  0
  3  4  2  0  0  0  0
  4  9  1  0  0  0  0
  5  4  1  0  0  0  0
  5 11  1  0  0  0  0
  6  5  2  0  0  0  0
  7  6  1  0  0  0  0
  8  2  2  0  0  0  0
  8  6  1  0  0  0  0
 10 21  1  0  0  0  0
 11 10  2  0  0  0  0
 11 12  1  0  0  0  0
 12 14  2  0  0  0  0
 13 12  1  0  0  0  0
 14 20  1  0  0  0  0
 14 15  1  0  0  0  0
 15 16  1  0  0  0  0
 15 17  1  0  0  0  0
 17 18  1  0  0  0  0
 19 17  2  0  0  0  0
 20 19  1  0  0  0  0
 21 20  2  0  0  0  0
 22 23  1  0  0  0  0
 22 28  1  0  0  0  0
 23 29  1  0  0  0  0
 24 30  1  0  0  0  0
 24 23  2  0  0  0  0
 25 24  1  0  0  0  0
 26 25  2  0  0  0  0
 26 27  1  0  0  0  0
 27 22  2  0  0  0  0
 30 31  2  0  0  0  0
 31 38  1  0  0  0  0
 32 31  1  0  0  0  0
 32 39  1  0  0  0  0
 33 32  1  0  0  0  0
 34 33  2  0  0  0  0
 34 30  1  0  0  0  0
 35 37  1  0  0  0  0
 36 35  2  0  0  0  0
 37 41  1  0  0  0  0
 37 33  1  0  0  0  0
 40 35  1  0  0  0  0
 42  8  1  0  0  0  0
 43 42  1  0  0  0  0
 44 42  1  0  0  0  0
 45 42  1  0  0  0  0
M  END
>  <minimizedAffinity>
-7.54263926

$$$$

 OpenBabel03272502503D

 45 49  0  0  0  0  0  0  0  0999 V2000
   38.9140   26.0790   30.4590 Cl  0  0  0  0  0  0  0  0  0  0  0  0
   37.8750   27.0700   31.4460 C   0  0  0  0  0  0  0  0  0  0  0  0
   37.4110   26.5770   32.6410 C   0  0  0  0  0  0  0  0  0  0  0  0
   36.5900   27.3340   33.4420 C   0  0  0  0  0  0  0  0  0  0  0  0
   36.2060   28.6160   33.0670 C   0  0  0  0  0  0  0  0  0  0  0  0
   36.6630   29.1200   31.8750 C   0  0  0  0  0  0  0  0  0  0  0  0
   36.2410   30.7200   31.3080 Cl  0  0  0  0  0  0  0  0  0  0  0  0
   37.4870   28.3320   31.0940 C   0  0  0  0  0  0  0  0  0  0  0  0
   36.2530   26.9040   34.3710 H   0  0  0  0  0  0  0  0  0  0  0  0
   33.9550   29.4060   33.8820 C   0  0  0  0  0  3  0  0  0  0  0  0
   35.3340   29.4200   33.9190 C   0  0  0  0  0  0  0  0  0  0  0  0
   35.9070   30.2750   34.8470 C   0  0  0  0  0  0  0  0  0  0  0  0
   36.9880   30.3080   34.8990 H   0  0  0  0  0  0  0  0  0  0  0  0
   35.1780   31.0790   35.7020 C   0  0  0  0  0  0  0  0  0  0  0  0
   35.4760   31.9660   36.6600 N   0  0  0  0  0  0  0  0  0  0  0  0
   36.4170   32.2440   36.9740 H   0  0  0  0  0  0  0  0  0  0  0  0
   34.3460   32.4700   37.1860 C   0  0  0  0  0  0  0  0  0  0  0  0
   34.2340   33.2130   37.9840 H   0  0  0  0  0  0  0  0  0  0  0  0
   33.2620   31.8980   36.5530 C   0  0  0  0  0  3  0  0  0  0  0  0
   33.7990   31.0330   35.6310 C   0  0  0  0  0  0  0  0  0  0  0  0
   33.1860   30.1910   34.7150 C   0  0  0  0  0  3  0  0  0  0  0  0
   39.1450   23.7830   34.2650 C   0  0  0  0  0  0  0  0  0  0  0  0
   38.4700   22.6660   33.7880 C   0  0  0  0  0  0  0  0  0  0  0  0
   37.4120   22.8940   32.9010 C   0  0  0  0  0  0  0  0  0  0  0  0
   37.1100   24.1770   32.5630 N   0  0  0  0  0  0  0  0  0  0  0  0
   37.8020   25.2290   33.0590 C   0  0  0  0  0  0  0  0  0  0  0  0
   38.8000   25.0120   33.8950 N   0  0  0  0  0  0  0  0  0  0  0  0
   39.9580   23.5780   34.9490 H   0  0  0  0  0  0  0  0  0  0  0  0
   38.7150   21.6450   34.0620 H   0  0  0  0  0  0  0  0  0  0  0  0
   36.6210   21.8060   32.3280 C   0  0  0  0  0  0  0  0  0  0  0  0
   35.2680   21.6600   32.5240 C   0  0  0  0  0  0  0  0  0  0  0  0
   34.8050   20.5600   31.8710 N   0  0  0  0  0  0  0  0  0  0  0  0
   35.8690   20.0200   31.2700 C   0  0  0  0  0  0  0  0  0  0  0  0
   36.9440   20.7780   31.5540 N   0  0  0  0  0  0  0  0  0  0  0  0
   37.0340   18.8720   29.4640 C   0  0  0  0  0  0  0  0  0  0  0  0
   37.7710   19.8660   29.3450 O   0  0  0  0  0  0  0  0  0  0  0  0
   36.0100   18.8680   30.4500 N   0  0  0  0  0  0  0  0  0  0  0  0
   34.5700   22.2660   33.0910 H   0  0  0  0  0  0  0  0  0  0  0  0
   33.8670   20.1470   31.7920 H   0  0  0  0  0  0  0  0  0  0  0  0
   37.1830   17.9910   28.7970 H   0  0  0  0  0  0  0  0  0  0  0  0
   35.3690   18.0540   30.5820 H   0  0  0  0  0  0  0  0  0  0  0  0
   37.9820   28.8750   29.8030 C   0  0  0  0  0  0  0  0  0  0  0  0
   39.2740   28.4080   29.5410 F   0  0  0  0  0  0  0  0  0  0  0  0
   38.1390   30.2670   29.8910 F   0  0  0  0  0  0  0  0  0  0  0  0
   37.1190   28.6380   28.7610 F   0  0  0  0  0  0  0  0  0  0  0  0
  1  2  1  0  0  0  0
  2  3  1  0  0  0  0
  3 26  1  0  0  0  0
  3  4  2  0  0  0  0
  4  9  1  0  0  0  0
  5  4  1  0  0  0  0
  5 11  1  0  0  0  0
  6  5  2  0  0  0  0
  7  6  1  0  0  0  0
  8  2  2  0  0  0  0
  8  6  1  0  0  0  0
 10 11  2  0  0  0  0
 10 21  1  0  0  0  0
 11 12  1  0  0  0  0
 12 13  1  0  0  0  0
 12 14  2  0  0  0  0
 14 15  1  0  0  0  0
 15 16  1  0  0  0  0
 15 17  1  0  0  0  0
 17 18  1  0  0  0  0
 19 17  2  0  0  0  0
 20 14  1  0  0  0  0
 20 19  1  0  0  0  0
 21 20  2  0  0  0  0
 22 28  1  0  0  0  0
 23 29  1  0  0  0  0
 23 22  2  0  0  0  0
 24 23  1  0  0  0  0
 25 24  2  0  0  0  0
 25 26  1  0  0  0  0
 26 27  2  0  0  0  0
 27 22  1  0  0  0  0
 30 31  2  0  0  0  0
 30 24  1  0  0  0  0
 31 38  1  0  0  0  0
 32 31  1  0  0  0  0
 33 34  2  0  0  0  0
 33 32  1  0  0  0  0
 34 30  1  0  0  0  0
 35 37  1  0  0  0  0
 36 35  2  0  0  0  0
 37 41  1  0  0  0  0
 37 33  1  0  0  0  0
 39 32  1  0  0  0  0
 40 35  1  0  0  0  0
 42 44  1  0  0  0  0
 42  8  1  0  0  0  0
 43 42  1  0  0  0  0
 45 42  1  0  0  0  0
M  END
>  <minimizedAffinity>
-7.53070116

$$$$

 OpenBabel03272502503D

 45 49  0  0  0  0  0  0  0  0999 V2000
   38.4680   26.7520   30.6180 Cl  0  0  0  0  0  0  0  0  0  0  0  0
   37.5470   27.7140   31.7410 C   0  0  0  0  0  0  0  0  0  0  0  0
   37.3440   27.2510   33.0180 C   0  0  0  0  0  0  0  0  0  0  0  0
   36.6220   27.9860   33.9260 C   0  0  0  0  0  0  0  0  0  0  0  0
   36.0780   29.2170   33.5810 C   0  0  0  0  0  0  0  0  0  0  0  0
   36.2740   29.6920   32.3080 C   0  0  0  0  0  0  0  0  0  0  0  0
   35.6330   31.2280   31.7700 Cl  0  0  0  0  0  0  0  0  0  0  0  0
   37.0040   28.9270   31.4200 C   0  0  0  0  0  0  0  0  0  0  0  0
   36.4900   27.5790   34.9160 H   0  0  0  0  0  0  0  0  0  0  0  0
   35.8390   30.9430   35.4030 C   0  0  0  0  0  3  0  0  0  0  0  0
   35.3110   29.9990   34.5470 C   0  0  0  0  0  0  0  0  0  0  0  0
   33.9420   29.7990   34.6350 C   0  0  0  0  0  0  0  0  0  0  0  0
   33.4990   29.0640   33.9760 H   0  0  0  0  0  0  0  0  0  0  0  0
   33.1220   30.4840   35.5110 C   0  0  0  0  0  0  0  0  0  0  0  0
   31.8120   30.4800   35.7890 N   0  0  0  0  0  0  0  0  0  0  0  0
   31.0880   29.8960   35.3450 H   0  0  0  0  0  0  0  0  0  0  0  0
   31.5460   31.3710   36.7590 C   0  0  0  0  0  0  0  0  0  0  0  0
   30.5810   31.6170   37.2170 H   0  0  0  0  0  0  0  0  0  0  0  0
   32.7210   31.9860   37.1390 C   0  0  0  0  0  3  0  0  0  0  0  0
   33.6940   31.4210   36.3510 C   0  0  0  0  0  0  0  0  0  0  0  0
   35.0600   31.6500   36.2940 C   0  0  0  0  0  3  0  0  0  0  0  0
   39.2570   24.6470   34.7530 C   0  0  0  0  0  0  0  0  0  0  0  0
   38.9190   23.4880   34.0650 C   0  0  0  0  0  0  0  0  0  0  0  0
   38.0240   23.6210   32.9970 C   0  0  0  0  0  0  0  0  0  0  0  0
   37.5440   24.8590   32.7010 N   0  0  0  0  0  0  0  0  0  0  0  0
   37.9070   25.9560   33.4050 C   0  0  0  0  0  0  0  0  0  0  0  0
   38.7520   25.8280   34.4110 N   0  0  0  0  0  0  0  0  0  0  0  0
   39.9510   24.5150   35.5730 H   0  0  0  0  0  0  0  0  0  0  0  0
   39.3050   22.5030   34.3070 H   0  0  0  0  0  0  0  0  0  0  0  0
   37.5870   22.4800   32.1930 C   0  0  0  0  0  0  0  0  0  0  0  0
   38.2030   22.0860   31.0290 C   0  0  0  0  0  0  0  0  0  0  0  0
   37.5800   20.9990   30.5010 N   0  0  0  0  0  0  0  0  0  0  0  0
   36.5750   20.7160   31.3350 C   0  0  0  0  0  0  0  0  0  0  0  0
   36.5960   21.6120   32.3390 N   0  0  0  0  0  0  0  0  0  0  0  0
   35.0730   19.2360   32.5550 C   0  0  0  0  0  0  0  0  0  0  0  0
   35.4980   19.7240   33.6160 O   0  0  0  0  0  0  0  0  0  0  0  0
   35.5830   19.6990   31.3120 N   0  0  0  0  0  0  0  0  0  0  0  0
   39.0620   22.5000   30.5140 H   0  0  0  0  0  0  0  0  0  0  0  0
   37.7590   20.4420   29.6560 H   0  0  0  0  0  0  0  0  0  0  0  0
   34.2940   18.4390   32.5870 H   0  0  0  0  0  0  0  0  0  0  0  0
   35.2530   19.3150   30.3980 H   0  0  0  0  0  0  0  0  0  0  0  0
   37.2170   29.4390   30.0420 C   0  0  0  0  0  0  0  0  0  0  0  0
   36.3170   30.4720   29.7600 F   0  0  0  0  0  0  0  0  0  0  0  0
   36.8970   28.4480   29.1010 F   0  0  0  0  0  0  0  0  0  0  0  0
   38.5210   29.8030   29.8060 F   0  0  0  0  0  0  0  0  0  0  0  0
  1  2  1  0  0  0  0
  2  3  1  0  0  0  0
  3 26  1  0  0  0  0
  3  4  2  0  0  0  0
  4  9  1  0  0  0  0
  5  4  1  0  0  0  0
  5 11  1  0  0  0  0
  6  5  2  0  0  0  0
  7  6  1  0  0  0  0
  8  2  2  0  0  0  0
  8  6  1  0  0  0  0
 10 21  1  0  0  0  0
 11 12  1  0  0  0  0
 11 10  2  0  0  0  0
 12 14  2  0  0  0  0
 13 12  1  0  0  0  0
 14 15  1  0  0  0  0
 14 20  1  0  0  0  0
 15 17  1  0  0  0  0
 16 15  1  0  0  0  0
 17 19  2  0  0  0  0
 17 18  1  0  0  0  0
 20 19  1  0  0  0  0
 21 20  2  0  0  0  0
 22 28  1  0  0  0  0
 23 29  1  0  0  0  0
 23 22  2  0  0  0  0
 24 23  1  0  0  0  0
 25 24  2  0  0  0  0
 25 26  1  0  0  0  0
 26 27  2  0  0  0  0
 27 22  1  0  0  0  0
 30 34  1  0  0  0  0
 30 24  1  0  0  0  0
 31 30  2  0  0  0  0
 32 31  1  0  0  0  0
 32 33  1  0  0  0  0
 33 34  2  0  0  0  0
 35 40  1  0  0  0  0
 35 36  2  0  0  0  0
 37 33  1  0  0  0  0
 37 35  1  0  0  0  0
 38 31  1  0  0  0  0
 39 32  1  0  0  0  0
 41 37  1  0  0  0  0
 42  8  1  0  0  0  0
 43 42  1  0  0  0  0
 44 42  1  0  0  0  0
 45 42  1  0  0  0  0
M  END
>  <minimizedAffinity>
-7.49358988

$$$$

 OpenBabel03272502503D

 45 49  0  0  0  0  0  0  0  0999 V2000
   38.3630   26.9050   30.4700 Cl  0  0  0  0  0  0  0  0  0  0  0  0
   37.4740   27.8510   31.6320 C   0  0  0  0  0  0  0  0  0  0  0  0
   37.3060   27.3690   32.9080 C   0  0  0  0  0  0  0  0  0  0  0  0
   36.6110   28.0920   33.8460 C   0  0  0  0  0  0  0  0  0  0  0  0
   36.0570   29.3280   33.5340 C   0  0  0  0  0  0  0  0  0  0  0  0
   36.2180   29.8210   32.2630 C   0  0  0  0  0  0  0  0  0  0  0  0
   35.5620   31.3640   31.7650 Cl  0  0  0  0  0  0  0  0  0  0  0  0
   36.9230   29.0690   31.3440 C   0  0  0  0  0  0  0  0  0  0  0  0
   36.5070   27.6710   34.8330 H   0  0  0  0  0  0  0  0  0  0  0  0
   35.8690   31.0350   35.3790 C   0  0  0  0  0  3  0  0  0  0  0  0
   35.3180   30.0960   34.5320 C   0  0  0  0  0  0  0  0  0  0  0  0
   33.9540   29.8870   34.6630 C   0  0  0  0  0  0  0  0  0  0  0  0
   33.4940   29.1550   34.0120 H   0  0  0  0  0  0  0  0  0  0  0  0
   33.1590   30.5580   35.5720 C   0  0  0  0  0  0  0  0  0  0  0  0
   31.8590   30.5430   35.8930 N   0  0  0  0  0  0  0  0  0  0  0  0
   31.1250   29.9590   35.4670 H   0  0  0  0  0  0  0  0  0  0  0  0
   31.6200   31.4240   36.8800 C   0  0  0  0  0  0  0  0  0  0  0  0
   30.6690   31.6590   37.3720 H   0  0  0  0  0  0  0  0  0  0  0  0
   32.8030   32.0430   37.2270 C   0  0  0  0  0  3  0  0  0  0  0  0
   33.7530   31.4910   36.4010 C   0  0  0  0  0  0  0  0  0  0  0  0
   35.1150   31.7290   36.3020 C   0  0  0  0  0  3  0  0  0  0  0  0
   39.1480   24.2010   32.7560 C   0  0  0  0  0  0  0  0  0  0  0  0
   38.9170   23.6370   34.0050 C   0  0  0  0  0  0  0  0  0  0  0  0
   38.1200   24.3650   34.8940 C   0  0  0  0  0  0  0  0  0  0  0  0
   37.6240   25.5660   34.4900 N   0  0  0  0  0  0  0  0  0  0  0  0
   37.8800   26.0700   33.2610 C   0  0  0  0  0  0  0  0  0  0  0  0
   38.6330   25.3800   32.4230 N   0  0  0  0  0  0  0  0  0  0  0  0
   39.7670   23.6170   32.0880 H   0  0  0  0  0  0  0  0  0  0  0  0
   39.3160   22.6780   34.3210 H   0  0  0  0  0  0  0  0  0  0  0  0
   37.8020   23.8830   36.2380 C   0  0  0  0  0  0  0  0  0  0  0  0
   38.1060   24.5730   37.3880 C   0  0  0  0  0  0  0  0  0  0  0  0
   37.6920   23.8820   38.4840 N   0  0  0  0  0  0  0  0  0  0  0  0
   37.1320   22.7630   38.0180 C   0  0  0  0  0  0  0  0  0  0  0  0
   37.2070   22.7820   36.6750 N   0  0  0  0  0  0  0  0  0  0  0  0
   35.4920   20.9610   37.9990 C   0  0  0  0  0  0  0  0  0  0  0  0
   35.1500   21.3220   36.8600 O   0  0  0  0  0  0  0  0  0  0  0  0
   36.5250   21.6610   38.6800 N   0  0  0  0  0  0  0  0  0  0  0  0
   38.5980   25.5290   37.5250 H   0  0  0  0  0  0  0  0  0  0  0  0
   37.7480   24.0850   39.4900 H   0  0  0  0  0  0  0  0  0  0  0  0
   34.9860   20.0900   38.4780 H   0  0  0  0  0  0  0  0  0  0  0  0
   36.8410   21.3910   39.6370 H   0  0  0  0  0  0  0  0  0  0  0  0
   37.0970   29.6000   29.9670 C   0  0  0  0  0  0  0  0  0  0  0  0
   36.8780   28.5910   29.0240 F   0  0  0  0  0  0  0  0  0  0  0  0
   38.4340   29.9730   29.7570 F   0  0  0  0  0  0  0  0  0  0  0  0
   36.3320   30.7150   29.7280 F   0  0  0  0  0  0  0  0  0  0  0  0
  1  2  1  0  0  0  0
  2  3  1  0  0  0  0
  3 26  1  0  0  0  0
  3  4  2  0  0  0  0
  4  9  1  0  0  0  0
  5  4  1  0  0  0  0
  5 11  1  0  0  0  0
  6  5  2  0  0  0  0
  7  6  1  0  0  0  0
  8  2  2  0  0  0  0
  8  6  1  0  0  0  0
 10 21  1  0  0  0  0
 11 12  1  0  0  0  0
 11 10  2  0  0  0  0
 12 14  2  0  0  0  0
 13 12  1  0  0  0  0
 14 15  1  0  0  0  0
 14 20  1  0  0  0  0
 15 17  1  0  0  0  0
 16 15  1  0  0  0  0
 17 19  2  0  0  0  0
 17 18  1  0  0  0  0
 20 19  1  0  0  0  0
 21 20  2  0  0  0  0
 22 23  1  0  0  0  0
 23 29  1  0  0  0  0
 23 24  2  0  0  0  0
 24 30  1  0  0  0  0
 25 24  1  0  0  0  0
 26 25  2  0  0  0  0
 27 22  2  0  0  0  0
 27 26  1  0  0  0  0
 28 22  1  0  0  0  0
 30 34  1  0  0  0  0
 30 31  2  0  0  0  0
 31 38  1  0  0  0  0
 31 32  1  0  0  0  0
 32 39  1  0  0  0  0
 33 32  1  0  0  0  0
 33 37  1  0  0  0  0
 34 33  2  0  0  0  0
 35 40  1  0  0  0  0
 35 37  1  0  0  0  0
 36 35  2  0  0  0  0
 37 41  1  0  0  0  0
 42  8  1  0  0  0  0
 43 42  1  0  0  0  0
 44 42  1  0  0  0  0
 45 42  1  0  0  0  0
M  END
>  <minimizedAffinity>
-7.47744703

$$$$

 OpenBabel03272502503D

 45 49  0  0  0  0  0  0  0  0999 V2000
   38.5870   27.0800   30.2160 Cl  0  0  0  0  0  0  0  0  0  0  0  0
   37.5600   27.9140   31.3500 C   0  0  0  0  0  0  0  0  0  0  0  0
   37.3040   27.3440   32.5740 C   0  0  0  0  0  0  0  0  0  0  0  0
   36.4990   27.9770   33.4890 C   0  0  0  0  0  0  0  0  0  0  0  0
   35.9190   29.2080   33.2050 C   0  0  0  0  0  0  0  0  0  0  0  0
   36.1670   29.7880   31.9860 C   0  0  0  0  0  0  0  0  0  0  0  0
   35.4890   31.3330   31.5270 Cl  0  0  0  0  0  0  0  0  0  0  0  0
   36.9810   29.1250   31.0890 C   0  0  0  0  0  0  0  0  0  0  0  0
   36.3290   27.4890   34.4360 H   0  0  0  0  0  0  0  0  0  0  0  0
   33.7110   29.6570   34.3330 C   0  0  0  0  0  3  0  0  0  0  0  0
   35.0630   29.8790   34.1790 C   0  0  0  0  0  0  0  0  0  0  0  0
   35.6250   30.8190   35.0280 C   0  0  0  0  0  0  0  0  0  0  0  0
   36.6850   31.0150   34.9300 H   0  0  0  0  0  0  0  0  0  0  0  0
   34.9090   31.5120   35.9860 C   0  0  0  0  0  0  0  0  0  0  0  0
   35.2000   32.4430   36.9040 N   0  0  0  0  0  0  0  0  0  0  0  0
   36.1230   32.8620   37.0860 H   0  0  0  0  0  0  0  0  0  0  0  0
   34.0920   32.7760   37.5860 C   0  0  0  0  0  0  0  0  0  0  0  0
   33.9810   33.5010   38.4010 H   0  0  0  0  0  0  0  0  0  0  0  0
   33.0280   32.0420   37.1040 C   0  0  0  0  0  3  0  0  0  0  0  0
   33.5560   31.2590   36.1060 C   0  0  0  0  0  0  0  0  0  0  0  0
   32.9560   30.3250   35.2740 C   0  0  0  0  0  3  0  0  0  0  0  0
   37.8460   23.7350   32.9420 C   0  0  0  0  0  0  0  0  0  0  0  0
   39.1000   23.6580   33.5360 C   0  0  0  0  0  0  0  0  0  0  0  0
   39.7510   24.8670   33.8050 C   0  0  0  0  0  0  0  0  0  0  0  0
   39.1270   26.0300   33.4740 N   0  0  0  0  0  0  0  0  0  0  0  0
   37.9030   26.0480   32.8960 C   0  0  0  0  0  0  0  0  0  0  0  0
   37.2910   24.9060   32.6440 N   0  0  0  0  0  0  0  0  0  0  0  0
   37.3650   22.7860   32.7450 H   0  0  0  0  0  0  0  0  0  0  0  0
   39.5920   22.7270   33.7970 H   0  0  0  0  0  0  0  0  0  0  0  0
   41.0730   24.9240   34.4270 C   0  0  0  0  0  0  0  0  0  0  0  0
   41.7440   26.0960   34.6880 C   0  0  0  0  0  0  0  0  0  0  0  0
   42.9480   25.8400   35.2670 N   0  0  0  0  0  0  0  0  0  0  0  0
   43.0270   24.5100   35.3670 C   0  0  0  0  0  0  0  0  0  0  0  0
   41.8990   23.9810   34.8600 N   0  0  0  0  0  0  0  0  0  0  0  0
   43.6430   22.4130   36.4430 C   0  0  0  0  0  0  0  0  0  0  0  0
   42.4400   22.1020   36.4640 O   0  0  0  0  0  0  0  0  0  0  0  0
   44.0400   23.6580   35.8850 N   0  0  0  0  0  0  0  0  0  0  0  0
   41.4580   27.1250   34.5050 H   0  0  0  0  0  0  0  0  0  0  0  0
   43.7020   26.4560   35.5950 H   0  0  0  0  0  0  0  0  0  0  0  0
   44.4030   21.7110   36.8610 H   0  0  0  0  0  0  0  0  0  0  0  0
   45.0400   23.9570   35.8480 H   0  0  0  0  0  0  0  0  0  0  0  0
   37.2500   29.7500   29.7690 C   0  0  0  0  0  0  0  0  0  0  0  0
   37.1320   28.8030   28.7460 F   0  0  0  0  0  0  0  0  0  0  0  0
   38.5890   30.1640   29.6910 F   0  0  0  0  0  0  0  0  0  0  0  0
   36.4770   30.8640   29.5420 F   0  0  0  0  0  0  0  0  0  0  0  0
  1  2  1  0  0  0  0
  2  3  1  0  0  0  0
  3 26  1  0  0  0  0
  3  4  2  0  0  0  0
  4  9  1  0  0  0  0
  5  4  1  0  0  0  0
  5 11  1  0  0  0  0
  6  5  2  0  0  0  0
  7  6  1  0  0  0  0
  8  2  2  0  0  0  0
  8  6  1  0  0  0  0
 10 21  1  0  0  0  0
 11 10  2  0  0  0  0
 11 12  1  0  0  0  0
 12 14  2  0  0  0  0
 13 12  1  0  0  0  0
 14 20  1  0  0  0  0
 14 15  1  0  0  0  0
 15 16  1  0  0  0  0
 15 17  1  0  0  0  0
 17 18  1  0  0  0  0
 19 17  2  0  0  0  0
 20 19  1  0  0  0  0
 21 20  2  0  0  0  0
 22 23  1  0  0  0  0
 23 29  1  0  0  0  0
 23 24  2  0  0  0  0
 24 30  1  0  0  0  0
 25 24  1  0  0  0  0
 26 25  2  0  0  0  0
 27 26  1  0  0  0  0
 27 22  2  0  0  0  0
 28 22  1  0  0  0  0
 30 31  2  0  0  0  0
 30 34  1  0  0  0  0
 31 32  1  0  0  0  0
 32 33  1  0  0  0  0
 32 39  1  0  0  0  0
 33 37  1  0  0  0  0
 34 33  2  0  0  0  0
 35 36  2  0  0  0  0
 35 40  1  0  0  0  0
 37 35  1  0  0  0  0
 38 31  1  0  0  0  0
 41 37  1  0  0  0  0
 42  8  1  0  0  0  0
 43 42  1  0  0  0  0
 44 42  1  0  0  0  0
 45 42  1  0  0  0  0
M  END
>  <minimizedAffinity>
-7.27809954

$$$$

 OpenBabel03272502503D

 45 49  0  0  0  0  0  0  0  0999 V2000
   34.9930   25.1540   30.8680 Cl  0  0  0  0  0  0  0  0  0  0  0  0
   36.3510   24.5870   31.8010 C   0  0  0  0  0  0  0  0  0  0  0  0
   37.2290   25.4980   32.3350 C   0  0  0  0  0  0  0  0  0  0  0  0
   38.3090   25.0830   33.0750 C   0  0  0  0  0  0  0  0  0  0  0  0
   38.5450   23.7320   33.3040 C   0  0  0  0  0  0  0  0  0  0  0  0
   37.6740   22.8120   32.7760 C   0  0  0  0  0  0  0  0  0  0  0  0
   37.8780   21.0900   33.0040 Cl  0  0  0  0  0  0  0  0  0  0  0  0
   36.5980   23.2630   32.0370 C   0  0  0  0  0  0  0  0  0  0  0  0
   38.9690   25.8360   33.4730 H   0  0  0  0  0  0  0  0  0  0  0  0
   41.0140   23.4600   33.7320 C   0  0  0  0  0  3  0  0  0  0  0  0
   39.6930   23.2910   34.0910 C   0  0  0  0  0  0  0  0  0  0  0  0
   39.4700   22.6500   35.3000 C   0  0  0  0  0  0  0  0  0  0  0  0
   38.4430   22.5040   35.6080 H   0  0  0  0  0  0  0  0  0  0  0  0
   40.4810   22.1930   36.1230 C   0  0  0  0  0  0  0  0  0  0  0  0
   40.5350   21.5620   37.3030 N   0  0  0  0  0  0  0  0  0  0  0  0
   39.7360   21.2660   37.8830 H   0  0  0  0  0  0  0  0  0  0  0  0
   41.8160   21.3530   37.6520 C   0  0  0  0  0  0  0  0  0  0  0  0
   42.2090   20.8660   38.5520 H   0  0  0  0  0  0  0  0  0  0  0  0
   42.6390   21.8630   36.6700 C   0  0  0  0  0  3  0  0  0  0  0  0
   41.7900   22.3830   35.7240 C   0  0  0  0  0  0  0  0  0  0  0  0
   42.0560   23.0200   34.5210 C   0  0  0  0  0  3  0  0  0  0  0  0
   37.3120   28.8660   30.8850 C   0  0  0  0  0  0  0  0  0  0  0  0
   36.5260   29.6100   31.7560 C   0  0  0  0  0  0  0  0  0  0  0  0
   35.9690   28.9310   32.8460 C   0  0  0  0  0  0  0  0  0  0  0  0
   36.2270   27.6030   32.9870 N   0  0  0  0  0  0  0  0  0  0  0  0
   37.0020   26.9270   32.1070 C   0  0  0  0  0  0  0  0  0  0  0  0
   37.5250   27.5690   31.0800 N   0  0  0  0  0  0  0  0  0  0  0  0
   37.7300   29.4150   30.0510 H   0  0  0  0  0  0  0  0  0  0  0  0
   36.3230   30.6700   31.6380 H   0  0  0  0  0  0  0  0  0  0  0  0
   35.1230   29.5980   33.8350 C   0  0  0  0  0  0  0  0  0  0  0  0
   35.4940   30.7320   34.5180 C   0  0  0  0  0  0  0  0  0  0  0  0
   34.5080   31.1230   35.3690 N   0  0  0  0  0  0  0  0  0  0  0  0
   33.5240   30.2330   35.2180 C   0  0  0  0  0  0  0  0  0  0  0  0
   33.9090   29.3300   34.2980 N   0  0  0  0  0  0  0  0  0  0  0  0
   31.1980   29.5190   35.0880 C   0  0  0  0  0  0  0  0  0  0  0  0
   31.4160   29.1150   33.9330 O   0  0  0  0  0  0  0  0  0  0  0  0
   32.2480   30.1180   35.8350 N   0  0  0  0  0  0  0  0  0  0  0  0
   36.4070   31.3150   34.4680 H   0  0  0  0  0  0  0  0  0  0  0  0
   34.4350   31.9110   36.0250 H   0  0  0  0  0  0  0  0  0  0  0  0
   30.1800   29.4070   35.5300 H   0  0  0  0  0  0  0  0  0  0  0  0
   32.1070   30.4700   36.8080 H   0  0  0  0  0  0  0  0  0  0  0  0
   35.6560   22.2690   31.4640 C   0  0  0  0  0  0  0  0  0  0  0  0
   36.3560   21.2760   30.7700 F   0  0  0  0  0  0  0  0  0  0  0  0
   34.8580   22.8690   30.4780 F   0  0  0  0  0  0  0  0  0  0  0  0
   34.8000   21.7460   32.4030 F   0  0  0  0  0  0  0  0  0  0  0  0
  1  2  1  0  0  0  0
  2  8  2  0  0  0  0
  2  3  1  0  0  0  0
  3  4  2  0  0  0  0
  4  5  1  0  0  0  0
  4  9  1  0  0  0  0
  5 11  1  0  0  0  0
  6  7  1  0  0  0  0
  6  5  2  0  0  0  0
  8  6  1  0  0  0  0
 10 11  2  0  0  0  0
 10 21  1  0  0  0  0
 11 12  1  0  0  0  0
 12 13  1  0  0  0  0
 12 14  2  0  0  0  0
 14 15  1  0  0  0  0
 15 17  1  0  0  0  0
 15 16  1  0  0  0  0
 17 18  1  0  0  0  0
 19 17  2  0  0  0  0
 20 14  1  0  0  0  0
 20 19  1  0  0  0  0
 21 20  2  0  0  0  0
 22 27  2  0  0  0  0
 22 23  1  0  0  0  0
 23 24  2  0  0  0  0
 24 25  1  0  0  0  0
 24 30  1  0  0  0  0
 26  3  1  0  0  0  0
 26 25  2  0  0  0  0
 27 26  1  0  0  0  0
 28 22  1  0  0  0  0
 29 23  1  0  0  0  0
 30 34  1  0  0  0  0
 30 31  2  0  0  0  0
 31 32  1  0  0  0  0
 32 39  1  0  0  0  0
 33 32  1  0  0  0  0
 33 37  1  0  0  0  0
 34 33  2  0  0  0  0
 35 40  1  0  0  0  0
 35 37  1  0  0  0  0
 36 35  2  0  0  0  0
 37 41  1  0  0  0  0
 38 31  1  0  0  0  0
 42  8  1  0  0  0  0
 42 45  1  0  0  0  0
 43 42  1  0  0  0  0
 44 42  1  0  0  0  0
M  END
>  <minimizedAffinity>
-7.26715469

$$$$

 OpenBabel03272502503D

 45 49  0  0  0  0  0  0  0  0999 V2000
   38.1880   26.4770   31.4630 Cl  0  0  0  0  0  0  0  0  0  0  0  0
   37.3220   27.6280   32.4430 C   0  0  0  0  0  0  0  0  0  0  0  0
   37.0710   27.3370   33.7610 C   0  0  0  0  0  0  0  0  0  0  0  0
   36.3910   28.2250   34.5600 C   0  0  0  0  0  0  0  0  0  0  0  0
   35.9370   29.4390   34.0580 C   0  0  0  0  0  0  0  0  0  0  0  0
   36.1820   29.7420   32.7420 C   0  0  0  0  0  0  0  0  0  0  0  0
   35.6560   31.2410   32.0100 Cl  0  0  0  0  0  0  0  0  0  0  0  0
   36.8690   28.8270   31.9670 C   0  0  0  0  0  0  0  0  0  0  0  0
   36.2180   27.9500   35.5880 H   0  0  0  0  0  0  0  0  0  0  0  0
   35.8000   31.3430   35.7040 C   0  0  0  0  0  3  0  0  0  0  0  0
   35.2140   30.3820   34.9070 C   0  0  0  0  0  0  0  0  0  0  0  0
   33.8300   30.3310   34.9350 C   0  0  0  0  0  0  0  0  0  0  0  0
   33.3420   29.5870   34.3200 H   0  0  0  0  0  0  0  0  0  0  0  0
   33.0470   31.1750   35.7010 C   0  0  0  0  0  0  0  0  0  0  0  0
   31.7330   31.3310   35.9040 N   0  0  0  0  0  0  0  0  0  0  0  0
   30.9730   30.7850   35.4740 H   0  0  0  0  0  0  0  0  0  0  0  0
   31.5190   32.3310   36.7760 C   0  0  0  0  0  0  0  0  0  0  0  0
   30.5660   32.7160   37.1560 H   0  0  0  0  0  0  0  0  0  0  0  0
   32.7340   32.8560   37.1650 C   0  0  0  0  0  3  0  0  0  0  0  0
   33.6770   32.1230   36.4850 C   0  0  0  0  0  0  0  0  0  0  0  0
   35.0610   32.2060   36.4850 C   0  0  0  0  0  3  0  0  0  0  0  0
   38.1950   24.7360   36.0900 C   0  0  0  0  0  0  0  0  0  0  0  0
   38.4160   23.6410   35.2650 C   0  0  0  0  0  0  0  0  0  0  0  0
   38.1720   23.8150   33.8980 C   0  0  0  0  0  0  0  0  0  0  0  0
   37.7380   25.0300   33.4640 N   0  0  0  0  0  0  0  0  0  0  0  0
   37.5390   26.0640   34.3130 C   0  0  0  0  0  0  0  0  0  0  0  0
   37.7700   25.8970   35.6020 N   0  0  0  0  0  0  0  0  0  0  0  0
   38.3910   24.5740   37.1420 H   0  0  0  0  0  0  0  0  0  0  0  0
   38.7620   22.6740   35.6170 H   0  0  0  0  0  0  0  0  0  0  0  0
   38.3660   22.7420   32.9230 C   0  0  0  0  0  0  0  0  0  0  0  0
   39.5810   22.1520   32.6690 C   0  0  0  0  0  0  0  0  0  0  0  0
   39.4560   21.1890   31.7170 N   0  0  0  0  0  0  0  0  0  0  0  0
   38.1640   21.1790   31.3780 C   0  0  0  0  0  0  0  0  0  0  0  0
   37.5290   22.1130   32.1090 N   0  0  0  0  0  0  0  0  0  0  0  0
   36.0670   20.1310   30.7160 C   0  0  0  0  0  0  0  0  0  0  0  0
   35.5450   20.5870   31.7480 O   0  0  0  0  0  0  0  0  0  0  0  0
   37.4370   20.3940   30.4430 N   0  0  0  0  0  0  0  0  0  0  0  0
   40.5580   22.3420   33.0990 H   0  0  0  0  0  0  0  0  0  0  0  0
   40.1380   20.5530   31.2850 H   0  0  0  0  0  0  0  0  0  0  0  0
   35.4550   19.5200   30.0110 H   0  0  0  0  0  0  0  0  0  0  0  0
   37.9130   20.0290   29.5880 H   0  0  0  0  0  0  0  0  0  0  0  0
   37.1340   29.1530   30.5420 C   0  0  0  0  0  0  0  0  0  0  0  0
   38.5030   29.0660   30.2690 F   0  0  0  0  0  0  0  0  0  0  0  0
   36.8250   30.4980   30.2860 F   0  0  0  0  0  0  0  0  0  0  0  0
   36.3790   28.4000   29.6760 F   0  0  0  0  0  0  0  0  0  0  0  0
  1  2  1  0  0  0  0
  2  3  1  0  0  0  0
  3 26  1  0  0  0  0
  3  4  2  0  0  0  0
  4  9  1  0  0  0  0
  5  4  1  0  0  0  0
  5 11  1  0  0  0  0
  6  5  2  0  0  0  0
  7  6  1  0  0  0  0
  8  2  2  0  0  0  0
  8  6  1  0  0  0  0
 10 21  1  0  0  0  0
 11 12  1  0  0  0  0
 11 10  2  0  0  0  0
 12 14  2  0  0  0  0
 13 12  1  0  0  0  0
 14 15  1  0  0  0  0
 14 20  1  0  0  0  0
 15 17  1  0  0  0  0
 16 15  1  0  0  0  0
 17 18  1  0  0  0  0
 17 19  2  0  0  0  0
 20 19  1  0  0  0  0
 21 20  2  0  0  0  0
 22 28  1  0  0  0  0
 23 29  1  0  0  0  0
 23 22  2  0  0  0  0
 24 23  1  0  0  0  0
 25 24  2  0  0  0  0
 25 26  1  0  0  0  0
 26 27  2  0  0  0  0
 27 22  1  0  0  0  0
 30 24  1  0  0  0  0
 31 30  2  0  0  0  0
 31 38  1  0  0  0  0
 32 31  1  0  0  0  0
 33 32  1  0  0  0  0
 33 34  2  0  0  0  0
 34 30  1  0  0  0  0
 35 36  2  0  0  0  0
 37 35  1  0  0  0  0
 37 33  1  0  0  0  0
 39 32  1  0  0  0  0
 40 35  1  0  0  0  0
 41 37  1  0  0  0  0
 42  8  1  0  0  0  0
 43 42  1  0  0  0  0
 44 42  1  0  0  0  0
 45 42  1  0  0  0  0
M  END
>  <minimizedAffinity>
-7.21634817

$$$$

 OpenBabel03272502503D

 45 49  0  0  0  0  0  0  0  0999 V2000
   34.9060   25.2460   30.9460 Cl  0  0  0  0  0  0  0  0  0  0  0  0
   36.2770   24.6990   31.8720 C   0  0  0  0  0  0  0  0  0  0  0  0
   37.1090   25.6240   32.4550 C   0  0  0  0  0  0  0  0  0  0  0  0
   38.1980   25.2240   33.1910 C   0  0  0  0  0  0  0  0  0  0  0  0
   38.4890   23.8760   33.3670 C   0  0  0  0  0  0  0  0  0  0  0  0
   37.6650   22.9430   32.7900 C   0  0  0  0  0  0  0  0  0  0  0  0
   37.9400   21.2230   32.9480 Cl  0  0  0  0  0  0  0  0  0  0  0  0
   36.5790   23.3790   32.0560 C   0  0  0  0  0  0  0  0  0  0  0  0
   38.8200   25.9880   33.6290 H   0  0  0  0  0  0  0  0  0  0  0  0
   40.9610   23.7260   33.8360 C   0  0  0  0  0  3  0  0  0  0  0  0
   39.6460   23.4520   34.1500 C   0  0  0  0  0  0  0  0  0  0  0  0
   39.4390   22.7150   35.3050 C   0  0  0  0  0  0  0  0  0  0  0  0
   38.4180   22.4840   35.5770 H   0  0  0  0  0  0  0  0  0  0  0  0
   40.4600   22.2640   36.1200 C   0  0  0  0  0  0  0  0  0  0  0  0
   40.5300   21.5550   37.2540 N   0  0  0  0  0  0  0  0  0  0  0  0
   39.7400   21.1710   37.7920 H   0  0  0  0  0  0  0  0  0  0  0  0
   41.8140   21.4010   37.6200 C   0  0  0  0  0  0  0  0  0  0  0  0
   42.2190   20.8770   38.4930 H   0  0  0  0  0  0  0  0  0  0  0  0
   42.6240   22.0290   36.6960 C   0  0  0  0  0  3  0  0  0  0  0  0
   41.7630   22.5610   35.7670 C   0  0  0  0  0  0  0  0  0  0  0  0
   42.0120   23.2970   34.6180 C   0  0  0  0  0  3  0  0  0  0  0  0
   35.9750   29.0600   33.0530 C   0  0  0  0  0  0  0  0  0  0  0  0
   36.3220   29.7210   31.8810 C   0  0  0  0  0  0  0  0  0  0  0  0
   36.9500   28.9630   30.8860 C   0  0  0  0  0  0  0  0  0  0  0  0
   37.1810   27.6430   31.1220 N   0  0  0  0  0  0  0  0  0  0  0  0
   36.8230   27.0490   32.2840 C   0  0  0  0  0  0  0  0  0  0  0  0
   36.2300   27.7670   33.2210 N   0  0  0  0  0  0  0  0  0  0  0  0
   35.4920   29.6690   33.8050 H   0  0  0  0  0  0  0  0  0  0  0  0
   36.1350   30.7750   31.6990 H   0  0  0  0  0  0  0  0  0  0  0  0
   37.3650   29.5380   29.6070 C   0  0  0  0  0  0  0  0  0  0  0  0
   37.9270   28.8060   28.5880 C   0  0  0  0  0  0  0  0  0  0  0  0
   38.2100   29.6040   27.5250 N   0  0  0  0  0  0  0  0  0  0  0  0
   37.8260   30.8330   27.8810 C   0  0  0  0  0  0  0  0  0  0  0  0
   37.3240   30.7730   29.1280 N   0  0  0  0  0  0  0  0  0  0  0  0
   36.8750   33.0430   27.4990 C   0  0  0  0  0  0  0  0  0  0  0  0
   36.0050   32.7850   28.3480 O   0  0  0  0  0  0  0  0  0  0  0  0
   37.8700   32.0760   27.1920 N   0  0  0  0  0  0  0  0  0  0  0  0
   38.1560   27.7480   28.5260 H   0  0  0  0  0  0  0  0  0  0  0  0
   38.6260   29.4090   26.6050 H   0  0  0  0  0  0  0  0  0  0  0  0
   36.8690   34.0330   26.9840 H   0  0  0  0  0  0  0  0  0  0  0  0
   38.6180   32.2530   26.4850 H   0  0  0  0  0  0  0  0  0  0  0  0
   35.6870   22.3700   31.4300 C   0  0  0  0  0  0  0  0  0  0  0  0
   36.4370   21.4390   30.7030 F   0  0  0  0  0  0  0  0  0  0  0  0
   34.8730   22.9770   30.4600 F   0  0  0  0  0  0  0  0  0  0  0  0
   34.8450   21.7710   32.3350 F   0  0  0  0  0  0  0  0  0  0  0  0
  1  2  1  0  0  0  0
  2  8  2  0  0  0  0
  2  3  1  0  0  0  0
  3  4  2  0  0  0  0
  4  5  1  0  0  0  0
  4  9  1  0  0  0  0
  5 11  1  0  0  0  0
  6  7  1  0  0  0  0
  6  5  2  0  0  0  0
  8  6  1  0  0  0  0
 10 11  2  0  0  0  0
 10 21  1  0  0  0  0
 11 12  1  0  0  0  0
 12 13  1  0  0  0  0
 12 14  2  0  0  0  0
 14 15  1  0  0  0  0
 15 17  1  0  0  0  0
 15 16  1  0  0  0  0
 17 18  1  0  0  0  0
 19 17  2  0  0  0  0
 20 14  1  0  0  0  0
 20 19  1  0  0  0  0
 21 20  2  0  0  0  0
 22 27  1  0  0  0  0
 22 28  1  0  0  0  0
 23 22  2  0  0  0  0
 24 25  2  0  0  0  0
 24 23  1  0  0  0  0
 25 26  1  0  0  0  0
 26  3  1  0  0  0  0
 26 27  2  0  0  0  0
 29 23  1  0  0  0  0
 30 24  1  0  0  0  0
 31 30  2  0  0  0  0
 32 33  1  0  0  0  0
 32 31  1  0  0  0  0
 33 34  2  0  0  0  0
 34 30  1  0  0  0  0
 35 36  2  0  0  0  0
 37 35  1  0  0  0  0
 37 33  1  0  0  0  0
 38 31  1  0  0  0  0
 39 32  1  0  0  0  0
 40 35  1  0  0  0  0
 41 37  1  0  0  0  0
 42  8  1  0  0  0  0
 42 45  1  0  0  0  0
 43 42  1  0  0  0  0
 44 42  1  0  0  0  0
M  END
>  <minimizedAffinity>
-7.2120657

$$$$
