
 OpenBabel03272510133D

 44 48  0  0  0  0  0  0  0  0999 V2000
   38.4240   31.5320   48.9230 C   0  0  0  0  0  0  0  0  0  0  0  0
   38.4790   32.7600   49.5460 C   0  0  0  0  0  0  0  0  0  0  0  0
   39.0850   33.6480   48.6610 C   0  0  0  0  0  0  0  0  0  0  0  0
   39.3760   32.9650   47.5590 N   0  0  0  0  0  0  0  0  0  0  0  0
   38.9860   31.7510   47.7340 N   0  0  0  0  0  0  0  0  0  0  0  0
   38.1750   33.1620   50.5050 H   0  0  0  0  0  0  0  0  0  0  0  0
   39.3160   34.7050   48.7610 H   0  0  0  0  0  0  0  0  0  0  0  0
   40.0290   33.4500   46.3750 C   0  0  0  0  0  0  0  0  0  0  0  0
   40.9210   34.0440   46.7350 H   0  0  0  0  0  0  0  0  0  0  0  0
   39.4240   34.1830   45.8180 H   0  0  0  0  0  0  0  0  0  0  0  0
   40.5150   32.3130   45.5500 C   0  0  0  0  0  0  0  0  0  0  0  0
   40.3950   31.3250   46.1070 H   0  0  0  0  0  0  0  0  0  0  0  0
   41.6170   32.3870   45.3630 H   0  0  0  0  0  0  0  0  0  0  0  0
   40.1830   31.4930   43.0960 C   0  0  0  0  0  3  0  0  0  0  0  0
   39.8480   32.1190   44.2690 C   0  0  0  0  0  0  0  0  0  0  0  0
   38.5620   32.6800   44.2740 C   0  0  0  0  0  0  0  0  0  0  0  0
   38.1050   33.2250   45.1170 H   0  0  0  0  0  0  0  0  0  0  0  0
   37.6920   32.6140   43.1960 C   0  0  0  0  0  0  0  0  0  0  0  0
   36.4580   33.0370   42.9230 N   0  0  0  0  0  0  0  0  0  0  0  0
   35.8500   33.5790   43.6000 H   0  0  0  0  0  0  0  0  0  0  0  0
   36.0810   32.6930   41.6920 C   0  0  0  0  0  0  0  0  0  0  0  0
   35.1130   32.9300   41.2490 H   0  0  0  0  0  0  0  0  0  0  0  0
   37.1100   31.9990   41.0890 C   0  0  0  0  0  3  0  0  0  0  0  0
   38.0980   31.9650   42.0490 C   0  0  0  0  0  0  0  0  0  0  0  0
   39.3480   31.4060   42.0070 C   0  0  0  0  0  3  0  0  0  0  0  0
   37.8490   30.5290   49.6730 O   0  0  0  0  0  0  0  0  0  0  0  0
   34.1790   28.9260   48.3850 C   0  0  0  0  0  0  0  0  0  0  0  0
   34.8350   28.4110   49.4640 C   0  0  0  0  0  0  0  0  0  0  0  0
   36.0350   28.8780   49.9460 C   0  0  0  0  0  0  0  0  0  0  0  0
   36.6530   29.9310   49.3330 C   0  0  0  0  0  0  0  0  0  0  0  0
   35.9930   30.4710   48.2250 C   0  0  0  0  0  0  0  0  0  0  0  0
   34.8120   29.9800   47.7840 N   0  0  0  0  0  0  0  0  0  0  0  0
   34.4000   27.5750   49.9960 H   0  0  0  0  0  0  0  0  0  0  0  0
   36.5480   28.4650   50.8010 H   0  0  0  0  0  0  0  0  0  0  0  0
   36.3680   31.3010   47.6500 H   0  0  0  0  0  0  0  0  0  0  0  0
   32.0560   27.6450   48.6170 C   0  0  0  0  0  0  0  0  0  0  0  0
   32.9340   28.4460   47.8710 C   0  0  0  0  0  0  0  0  0  0  0  0
   32.5510   28.7630   46.5890 C   0  0  0  0  0  0  0  0  0  0  0  0
   31.3620   28.3000   46.0990 N   0  0  0  0  0  0  0  0  0  0  0  0
   30.5480   27.5250   46.8670 C   0  0  0  0  0  0  0  0  0  0  0  0
   30.8840   27.1850   48.1430 N   0  0  0  0  0  0  0  0  0  0  0  0
   32.3140   27.3700   49.6310 H   0  0  0  0  0  0  0  0  0  0  0  0
   33.1340   29.3710   45.9100 H   0  0  0  0  0  0  0  0  0  0  0  0
   29.5990   27.1530   46.4820 H   0  0  0  0  0  0  0  0  0  0  0  0
  1  2  1  0  0  0  0
  1 26  1  0  0  0  0
  2  6  1  0  0  0  0
  3  7  1  0  0  0  0
  3  2  2  0  0  0  0
  4  5  1  0  0  0  0
  4  3  1  0  0  0  0
  5  1  2  0  0  0  0
  8  9  1  0  0  0  0
  8  4  1  0  0  0  0
 10  8  1  0  0  0  0
 11 12  1  0  0  0  0
 11  8  1  0  0  0  0
 13 11  1  0  0  0  0
 14 15  1  0  0  0  0
 15 16  2  0  0  0  0
 15 11  1  0  0  0  0
 16 17  1  0  0  0  0
 18 16  1  0  0  0  0
 19 18  1  0  0  0  0
 19 20  1  0  0  0  0
 21 19  1  0  0  0  0
 22 21  1  0  0  0  0
 23 21  2  0  0  0  0
 23 24  1  0  0  0  0
 24 18  2  0  0  0  0
 25 24  1  0  0  0  0
 25 14  2  0  0  0  0
 27 28  1  0  0  0  0
 28 29  2  0  0  0  0
 28 33  1  0  0  0  0
 29 34  1  0  0  0  0
 30 26  1  0  0  0  0
 30 29  1  0  0  0  0
 31 30  2  0  0  0  0
 32 31  1  0  0  0  0
 32 27  2  0  0  0  0
 35 31  1  0  0  0  0
 36 42  1  0  0  0  0
 37 27  1  0  0  0  0
 37 36  2  0  0  0  0
 38 37  1  0  0  0  0
 39 38  2  0  0  0  0
 39 40  1  0  0  0  0
 40 41  2  0  0  0  0
 41 36  1  0  0  0  0
 43 38  1  0  0  0  0
 44 40  1  0  0  0  0
M  END
>  <minimizedAffinity>
-6.67976141

>  <minimizedRMSD>
2.13261962

$$$$
