
 OpenBabel03262520103D

 37 40  0  0  0  0  0  0  0  0999 V2000
   38.1450   30.7570   48.8750 Br  0  0  0  0  0  0  0  0  0  0  0  0
   36.9090   30.4840   47.4500 C   0  0  0  0  0  0  0  0  0  0  0  0
   37.2480   30.8110   46.1600 C   0  0  0  0  0  0  0  0  0  0  0  0
   36.3060   30.6010   45.1750 C   0  0  0  0  0  0  0  0  0  0  0  0
   35.0420   30.0780   45.4140 C   0  0  0  0  0  0  0  0  0  0  0  0
   34.7460   29.7630   46.7310 C   0  0  0  0  0  0  0  0  0  0  0  0
   35.6970   29.9730   47.7430 C   0  0  0  0  0  0  0  0  0  0  0  0
   36.5940   30.8650   44.1630 H   0  0  0  0  0  0  0  0  0  0  0  0
   34.4020   29.9620   44.5700 H   0  0  0  0  0  0  0  0  0  0  0  0
   33.7490   29.3660   46.8390 H   0  0  0  0  0  0  0  0  0  0  0  0
   39.8470   33.2750   45.4520 C   0  0  0  0  0  0  0  0  0  0  0  0
   41.0030   32.5150   45.2470 C   0  0  0  0  0  0  0  0  0  0  0  0
   40.8680   31.1450   45.3570 C   0  0  0  0  0  0  0  0  0  0  0  0
   39.6450   30.5930   45.6550 N   0  0  0  0  0  0  0  0  0  0  0  0
   38.5600   31.3720   45.8440 C   0  0  0  0  0  0  0  0  0  0  0  0
   38.6610   32.7290   45.7410 N   0  0  0  0  0  0  0  0  0  0  0  0
   39.8280   34.3610   45.3910 H   0  0  0  0  0  0  0  0  0  0  0  0
   41.9000   33.0450   45.0210 H   0  0  0  0  0  0  0  0  0  0  0  0
   41.7490   30.5390   45.2020 H   0  0  0  0  0  0  0  0  0  0  0  0
   35.2270   29.5760   49.0910 C   0  0  0  0  0  0  0  0  0  0  0  0
   35.4460   30.3030   49.8660 H   0  0  0  0  0  0  0  0  0  0  0  0
   35.7900   28.6420   49.3460 H   0  0  0  0  0  0  0  0  0  0  0  0
   33.7680   29.1990   49.1520 C   0  0  0  0  0  0  0  0  0  0  0  0
   33.5720   29.0760   50.2610 H   0  0  0  0  0  0  0  0  0  0  0  0
   33.0760   30.0170   48.8670 H   0  0  0  0  0  0  0  0  0  0  0  0
   34.0720   26.8270   48.1550 C   0  0  0  0  0  0  0  0  0  0  0  0
   33.3860   27.9720   48.4760 C   0  0  0  0  0  0  0  0  0  0  0  0
   32.0410   27.9110   48.0750 C   0  0  0  0  0  0  0  0  0  0  0  0
   31.3510   28.7510   48.2580 H   0  0  0  0  0  0  0  0  0  0  0  0
   31.4430   26.8490   47.4350 C   0  0  0  0  0  0  0  0  0  0  0  0
   30.2050   26.6010   46.9800 N   0  0  0  0  0  0  0  0  0  0  0  0
   29.3830   27.2570   47.0450 H   0  0  0  0  0  0  0  0  0  0  0  0
   30.1990   25.3730   46.4310 C   0  0  0  0  0  0  0  0  0  0  0  0
   29.3220   24.9060   45.9800 H   0  0  0  0  0  0  0  0  0  0  0  0
   31.4440   24.7900   46.5170 C   0  0  0  0  0  0  0  0  0  0  0  0
   32.2130   25.7400   47.1550 C   0  0  0  0  0  0  0  0  0  0  0  0
   33.5420   25.7290   47.5180 C   0  0  0  0  0  0  0  0  0  0  0  0
  2  7  1  0  0  0  0
  2  1  1  0  0  0  0
  3  2  2  0  0  0  0
  4  5  2  0  0  0  0
  4  3  1  0  0  0  0
  5  6  1  0  0  0  0
  6 10  1  0  0  0  0
  6  7  2  0  0  0  0
  7 20  1  0  0  0  0
  8  4  1  0  0  0  0
  9  5  1  0  0  0  0
 11 16  1  0  0  0  0
 12 13  1  0  0  0  0
 12 11  2  0  0  0  0
 13 14  2  0  0  0  0
 14 15  1  0  0  0  0
 15  3  1  0  0  0  0
 16 15  2  0  0  0  0
 17 11  1  0  0  0  0
 18 12  1  0  0  0  0
 19 13  1  0  0  0  0
 20 23  1  0  0  0  0
 20 22  1  0  0  0  0
 20 21  1  0  0  0  0
 23 24  1  0  0  0  0
 25 23  1  0  0  0  0
 26 27  1  0  0  0  0
 27 23  1  0  0  0  0
 28 29  1  0  0  0  0
 28 27  2  0  0  0  0
 30 28  1  0  0  0  0
 31 32  1  0  0  0  0
 31 30  1  0  0  0  0
 33 35  2  0  0  0  0
 33 31  1  0  0  0  0
 34 33  1  0  0  0  0
 35 36  1  0  0  0  0
 36 30  2  0  0  0  0
 36 37  1  0  0  0  0
 37 26  2  0  0  0  0
M  END
>  <minimizedAffinity>
-5.63548517

>  <minimizedRMSD>
2.74668169

$$$$
