
 OpenBabel03272510133D

 44 48  0  0  0  0  0  0  0  0999 V2000
   38.4470   31.4270   48.8260 C   0  0  0  0  0  0  0  0  0  0  0  0
   38.4320   32.6490   49.4630 C   0  0  0  0  0  0  0  0  0  0  0  0
   39.0230   33.5720   48.6050 C   0  0  0  0  0  0  0  0  0  0  0  0
   39.3730   32.9150   47.5040 N   0  0  0  0  0  0  0  0  0  0  0  0
   39.0310   31.6830   47.6550 N   0  0  0  0  0  0  0  0  0  0  0  0
   38.0860   33.0260   50.4170 H   0  0  0  0  0  0  0  0  0  0  0  0
   39.2060   34.6360   48.7230 H   0  0  0  0  0  0  0  0  0  0  0  0
   40.0370   33.4410   46.3430 C   0  0  0  0  0  0  0  0  0  0  0  0
   41.1050   33.6320   46.6590 H   0  0  0  0  0  0  0  0  0  0  0  0
   39.6620   34.4340   46.0450 H   0  0  0  0  0  0  0  0  0  0  0  0
   40.0360   32.4370   45.2470 C   0  0  0  0  0  0  0  0  0  0  0  0
   39.9640   31.3790   45.6640 H   0  0  0  0  0  0  0  0  0  0  0  0
   41.0060   32.4440   44.6880 H   0  0  0  0  0  0  0  0  0  0  0  0
   37.6110   32.2620   44.3010 C   0  0  0  0  0  3  0  0  0  0  0  0
   38.9520   32.5460   44.2790 C   0  0  0  0  0  0  0  0  0  0  0  0
   39.4020   33.1040   43.0720 C   0  0  0  0  0  0  0  0  0  0  0  0
   40.4400   33.4000   42.8510 H   0  0  0  0  0  0  0  0  0  0  0  0
   38.5750   33.3520   41.9860 C   0  0  0  0  0  0  0  0  0  0  0  0
   38.7150   33.8530   40.7600 N   0  0  0  0  0  0  0  0  0  0  0  0
   39.6330   34.1970   40.3570 H   0  0  0  0  0  0  0  0  0  0  0  0
   37.5580   33.8710   40.1000 C   0  0  0  0  0  0  0  0  0  0  0  0
   37.4270   34.2380   39.0810 H   0  0  0  0  0  0  0  0  0  0  0  0
   36.5710   33.3540   40.9170 C   0  0  0  0  0  3  0  0  0  0  0  0
   37.2340   33.0410   42.0830 C   0  0  0  0  0  0  0  0  0  0  0  0
   36.7590   32.4950   43.2460 C   0  0  0  0  0  3  0  0  0  0  0  0
   37.8950   30.3910   49.5480 O   0  0  0  0  0  0  0  0  0  0  0  0
   34.1630   28.8730   48.3350 C   0  0  0  0  0  0  0  0  0  0  0  0
   34.7670   28.4350   49.4760 C   0  0  0  0  0  0  0  0  0  0  0  0
   35.9820   28.8810   49.9390 C   0  0  0  0  0  0  0  0  0  0  0  0
   36.6730   29.8300   49.2400 C   0  0  0  0  0  0  0  0  0  0  0  0
   36.0670   30.2900   48.0660 C   0  0  0  0  0  0  0  0  0  0  0  0
   34.8690   29.8240   47.6470 N   0  0  0  0  0  0  0  0  0  0  0  0
   34.2740   27.6840   50.0790 H   0  0  0  0  0  0  0  0  0  0  0  0
   36.4530   28.5290   50.8450 H   0  0  0  0  0  0  0  0  0  0  0  0
   36.5010   31.0350   47.4200 H   0  0  0  0  0  0  0  0  0  0  0  0
   32.0330   27.6110   48.5920 C   0  0  0  0  0  0  0  0  0  0  0  0
   32.9030   28.4140   47.8400 C   0  0  0  0  0  0  0  0  0  0  0  0
   32.4970   28.7540   46.5710 C   0  0  0  0  0  0  0  0  0  0  0  0
   31.2930   28.3110   46.0990 N   0  0  0  0  0  0  0  0  0  0  0  0
   30.4870   27.5330   46.8730 C   0  0  0  0  0  0  0  0  0  0  0  0
   30.8460   27.1700   48.1360 N   0  0  0  0  0  0  0  0  0  0  0  0
   32.3090   27.3180   49.5960 H   0  0  0  0  0  0  0  0  0  0  0  0
   33.0720   29.3660   45.8890 H   0  0  0  0  0  0  0  0  0  0  0  0
   29.5260   27.1760   46.5020 H   0  0  0  0  0  0  0  0  0  0  0  0
  1  2  1  0  0  0  0
  1 26  1  0  0  0  0
  2  6  1  0  0  0  0
  3  7  1  0  0  0  0
  3  2  2  0  0  0  0
  4  5  1  0  0  0  0
  4  3  1  0  0  0  0
  5  1  2  0  0  0  0
  8  9  1  0  0  0  0
  8  4  1  0  0  0  0
 10  8  1  0  0  0  0
 11 12  1  0  0  0  0
 11  8  1  0  0  0  0
 13 11  1  0  0  0  0
 15 14  1  0  0  0  0
 15 11  1  0  0  0  0
 16 15  2  0  0  0  0
 17 16  1  0  0  0  0
 18 24  2  0  0  0  0
 18 16  1  0  0  0  0
 19 18  1  0  0  0  0
 20 19  1  0  0  0  0
 21 19  1  0  0  0  0
 21 23  2  0  0  0  0
 22 21  1  0  0  0  0
 23 24  1  0  0  0  0
 24 25  1  0  0  0  0
 25 14  2  0  0  0  0
 27 28  1  0  0  0  0
 28 29  2  0  0  0  0
 28 33  1  0  0  0  0
 29 34  1  0  0  0  0
 30 26  1  0  0  0  0
 30 29  1  0  0  0  0
 31 30  2  0  0  0  0
 32 31  1  0  0  0  0
 32 27  2  0  0  0  0
 35 31  1  0  0  0  0
 36 42  1  0  0  0  0
 37 27  1  0  0  0  0
 37 36  2  0  0  0  0
 38 37  1  0  0  0  0
 39 38  2  0  0  0  0
 39 40  1  0  0  0  0
 40 41  2  0  0  0  0
 41 36  1  0  0  0  0
 43 38  1  0  0  0  0
 44 40  1  0  0  0  0
M  END
>  <minimizedAffinity>
-6.53659821

>  <minimizedRMSD>
2.36744428

$$$$
