
 OpenBabel03272510133D

 44 48  0  0  0  0  0  0  0  0999 V2000
   38.3290   31.3510   48.8150 C   0  0  0  0  0  0  0  0  0  0  0  0
   38.3760   32.5630   49.4690 C   0  0  0  0  0  0  0  0  0  0  0  0
   38.9740   33.4780   48.6060 C   0  0  0  0  0  0  0  0  0  0  0  0
   39.2670   32.8250   47.4850 N   0  0  0  0  0  0  0  0  0  0  0  0
   38.8860   31.6040   47.6300 N   0  0  0  0  0  0  0  0  0  0  0  0
   38.0730   32.9380   50.4380 H   0  0  0  0  0  0  0  0  0  0  0  0
   39.1980   34.5330   48.7320 H   0  0  0  0  0  0  0  0  0  0  0  0
   39.9140   33.3440   46.3130 C   0  0  0  0  0  0  0  0  0  0  0  0
   40.5790   34.1850   46.6730 H   0  0  0  0  0  0  0  0  0  0  0  0
   39.2150   33.8330   45.6150 H   0  0  0  0  0  0  0  0  0  0  0  0
   40.7650   32.2990   45.6860 C   0  0  0  0  0  0  0  0  0  0  0  0
   40.7130   31.3240   46.2740 H   0  0  0  0  0  0  0  0  0  0  0  0
   41.8480   32.5810   45.7210 H   0  0  0  0  0  0  0  0  0  0  0  0
   40.5960   30.8160   43.5460 C   0  0  0  0  0  3  0  0  0  0  0  0
   40.4320   31.9410   44.3130 C   0  0  0  0  0  0  0  0  0  0  0  0
   39.7640   32.9880   43.6600 C   0  0  0  0  0  0  0  0  0  0  0  0
   39.5340   33.9720   44.1000 H   0  0  0  0  0  0  0  0  0  0  0  0
   39.3010   32.9080   42.3550 C   0  0  0  0  0  0  0  0  0  0  0  0
   38.6560   33.7090   41.5080 N   0  0  0  0  0  0  0  0  0  0  0  0
   38.3460   34.6960   41.7390 H   0  0  0  0  0  0  0  0  0  0  0  0
   38.4480   33.1170   40.3330 C   0  0  0  0  0  0  0  0  0  0  0  0
   37.9410   33.5780   39.4850 H   0  0  0  0  0  0  0  0  0  0  0  0
   38.9780   31.8430   40.3750 C   0  0  0  0  0  3  0  0  0  0  0  0
   39.5020   31.7420   41.6470 C   0  0  0  0  0  0  0  0  0  0  0  0
   40.1520   30.6990   42.2500 C   0  0  0  0  0  3  0  0  0  0  0  0
   37.7620   30.3250   49.5400 O   0  0  0  0  0  0  0  0  0  0  0  0
   34.0180   28.8460   48.3170 C   0  0  0  0  0  0  0  0  0  0  0  0
   34.6360   28.3670   49.4340 C   0  0  0  0  0  0  0  0  0  0  0  0
   35.8570   28.7980   49.8980 C   0  0  0  0  0  0  0  0  0  0  0  0
   36.5370   29.7730   49.2260 C   0  0  0  0  0  0  0  0  0  0  0  0
   35.9160   30.2750   48.0780 C   0  0  0  0  0  0  0  0  0  0  0  0
   34.7130   29.8230   47.6570 N   0  0  0  0  0  0  0  0  0  0  0  0
   34.1520   27.5920   50.0140 H   0  0  0  0  0  0  0  0  0  0  0  0
   36.3400   28.4130   50.7840 H   0  0  0  0  0  0  0  0  0  0  0  0
   36.3400   31.0450   47.4550 H   0  0  0  0  0  0  0  0  0  0  0  0
   31.9100   27.5390   48.5380 C   0  0  0  0  0  0  0  0  0  0  0  0
   32.7520   28.4030   47.8220 C   0  0  0  0  0  0  0  0  0  0  0  0
   32.3110   28.8220   46.5890 C   0  0  0  0  0  0  0  0  0  0  0  0
   31.1020   28.3940   46.1150 N   0  0  0  0  0  0  0  0  0  0  0  0
   30.3250   27.5550   46.8530 C   0  0  0  0  0  0  0  0  0  0  0  0
   30.7190   27.1130   48.0800 N   0  0  0  0  0  0  0  0  0  0  0  0
   32.2140   27.1830   49.5130 H   0  0  0  0  0  0  0  0  0  0  0  0
   32.8620   29.4870   45.9370 H   0  0  0  0  0  0  0  0  0  0  0  0
   29.3610   27.2100   46.4810 H   0  0  0  0  0  0  0  0  0  0  0  0
  1  2  1  0  0  0  0
  1 26  1  0  0  0  0
  2  6  1  0  0  0  0
  3  7  1  0  0  0  0
  3  2  2  0  0  0  0
  4  5  1  0  0  0  0
  4  3  1  0  0  0  0
  5  1  2  0  0  0  0
  8  9  1  0  0  0  0
  8  4  1  0  0  0  0
 10  8  1  0  0  0  0
 11 13  1  0  0  0  0
 11 12  1  0  0  0  0
 11  8  1  0  0  0  0
 14 15  1  0  0  0  0
 15 11  1  0  0  0  0
 16 17  1  0  0  0  0
 16 15  2  0  0  0  0
 18 16  1  0  0  0  0
 19 20  1  0  0  0  0
 19 18  1  0  0  0  0
 21 23  2  0  0  0  0
 21 19  1  0  0  0  0
 22 21  1  0  0  0  0
 23 24  1  0  0  0  0
 24 25  1  0  0  0  0
 24 18  2  0  0  0  0
 25 14  2  0  0  0  0
 27 28  1  0  0  0  0
 28 29  2  0  0  0  0
 28 33  1  0  0  0  0
 29 34  1  0  0  0  0
 30 26  1  0  0  0  0
 30 29  1  0  0  0  0
 31 30  2  0  0  0  0
 32 31  1  0  0  0  0
 32 27  2  0  0  0  0
 35 31  1  0  0  0  0
 36 42  1  0  0  0  0
 37 27  1  0  0  0  0
 37 36  2  0  0  0  0
 38 37  1  0  0  0  0
 39 38  2  0  0  0  0
 39 40  1  0  0  0  0
 40 41  2  0  0  0  0
 41 36  1  0  0  0  0
 43 38  1  0  0  0  0
 44 40  1  0  0  0  0
M  END
>  <minimizedAffinity>
-6.80696249

>  <minimizedRMSD>
2.00497127

$$$$
