
 OpenBabel03272501373D

 39 43  0  0  1  0  0  0  0  0999 V2000
   36.5020   29.2780   31.0280 C   0  0  0  0  0  0  0  0  0  0  0  0
   37.1710   28.0870   31.3150 C   0  0  0  0  0  0  0  0  0  0  0  0
   37.1820   27.5960   32.6030 C   0  0  0  0  0  0  0  0  0  0  0  0
   36.5300   28.3130   33.5410 N   0  0  0  0  0  0  0  0  0  0  0  0
   35.8890   29.4630   33.2560 C   0  0  0  0  0  0  0  0  0  0  0  0
   35.8650   29.9580   32.0080 N   0  0  0  0  0  0  0  0  0  0  0  0
   36.5080   29.6430   30.0020 H   0  0  0  0  0  0  0  0  0  0  0  0
   37.6630   27.5840   30.5010 H   0  0  0  0  0  0  0  0  0  0  0  0
   35.9280   30.9140   35.2500 C   0  0  0  0  0  3  0  0  0  0  0  0
   35.2070   30.1840   34.3280 C   0  0  0  0  0  0  0  0  0  0  0  0
   33.8480   30.1510   34.4370 C   0  0  0  0  0  0  0  0  0  0  0  0
   33.2220   29.5940   33.7430 H   0  0  0  0  0  0  0  0  0  0  0  0
   33.2730   30.8610   35.4830 C   0  0  0  0  0  0  0  0  0  0  0  0
   31.9670   30.9990   35.8240 N   0  0  0  0  0  0  0  0  0  0  0  0
   31.1140   30.5940   35.3640 H   0  0  0  0  0  0  0  0  0  0  0  0
   31.8490   31.7880   36.9240 C   0  0  0  0  0  0  0  0  0  0  0  0
   30.9330   32.0720   37.4210 H   0  0  0  0  0  0  0  0  0  0  0  0
   33.1350   32.1780   37.3140 C   0  0  0  0  0  3  0  0  0  0  0  0
   33.9870   31.5930   36.4090 C   0  0  0  0  0  0  0  0  0  0  0  0
   35.3610   31.6230   36.2930 C   0  0  0  0  0  3  0  0  0  0  0  0
   37.8740   26.3580   32.9300 C   0  0  0  0  0  0  0  0  0  0  0  0
   38.2240   25.5130   32.0650 O   0  0  0  0  0  0  0  0  0  0  0  0
   38.1760   26.0700   34.3650 C   0  0  2  0  0  0  0  0  0  0  0  0
   39.6600   26.2700   34.6810 C   0  0  0  0  0  0  0  0  0  0  0  0
   38.9820   24.8930   34.7430 C   0  0  1  0  0  0  0  0  0  0  0  0
   37.3470   26.2370   35.0650 H   0  0  0  0  0  0  0  0  0  0  0  0
   39.8820   26.7680   35.6530 H   0  0  0  0  0  0  0  0  0  0  0  0
   40.3640   26.4560   33.8750 H   0  0  0  0  0  0  0  0  0  0  0  0
   39.3280   24.2020   33.9620 H   0  0  0  0  0  0  0  0  0  0  0  0
   38.9220   24.3360   36.1020 C   0  0  0  0  0  0  0  0  0  0  0  0
   37.9690   24.7650   37.0230 C   0  0  0  0  0  0  0  0  0  0  0  0
   37.9800   24.2040   38.2770 C   0  0  0  0  0  0  0  0  0  0  0  0
   38.8830   23.2500   38.6510 C   0  0  0  0  0  0  0  0  0  0  0  0
   39.8220   22.8440   37.7100 C   0  0  0  0  0  0  0  0  0  0  0  0
   39.8110   23.3910   36.4860 N   0  0  0  0  0  0  0  0  0  0  0  0
   37.2370   25.5220   36.7560 H   0  0  0  0  0  0  0  0  0  0  0  0
   37.2610   24.4990   39.0330 H   0  0  0  0  0  0  0  0  0  0  0  0
   38.9790   22.7480   39.6050 H   0  0  0  0  0  0  0  0  0  0  0  0
   40.6120   22.0960   37.8430 H   0  0  0  0  0  0  0  0  0  0  0  0
  1  2  2  0  0  0  0
  1  6  1  0  0  0  0
  2  3  1  0  0  0  0
  3 21  1  0  0  0  0
  3  4  2  0  0  0  0
  5  4  1  0  0  0  0
  5 10  1  0  0  0  0
  6  5  2  0  0  0  0
  7  1  1  0  0  0  0
  8  2  1  0  0  0  0
  9 20  1  0  0  0  0
 10 11  1  0  0  0  0
 10  9  2  0  0  0  0
 11 13  2  0  0  0  0
 12 11  1  0  0  0  0
 13 14  1  0  0  0  0
 13 19  1  0  0  0  0
 14 16  1  0  0  0  0
 15 14  1  0  0  0  0
 16 18  2  0  0  0  0
 16 17  1  0  0  0  0
 19 18  1  0  0  0  0
 20 19  2  0  0  0  0
 21 23  1  0  0  0  0
 22 21  2  0  0  0  0
 23 24  1  0  0  0  0
 23 25  1  0  0  0  0
 23 26  1  1  0  0  0
 24 25  1  0  0  0  0
 24 27  1  0  0  0  0
 25 29  1  6  0  0  0
 25 30  1  0  0  0  0
 28 24  1  0  0  0  0
 30 35  2  0  0  0  0
 30 31  1  0  0  0  0
 31 32  2  0  0  0  0
 32 33  1  0  0  0  0
 32 37  1  0  0  0  0
 33 38  1  0  0  0  0
 34 39  1  0  0  0  0
 34 33  2  0  0  0  0
 35 34  1  0  0  0  0
 36 31  1  0  0  0  0
M  END
>  <minimizedAffinity>
-6.74256039

$$$$

 OpenBabel03272501373D

 39 43  0  0  1  0  0  0  0  0999 V2000
   36.3810   28.9530   30.8060 C   0  0  0  0  0  0  0  0  0  0  0  0
   37.1620   27.8410   31.1260 C   0  0  0  0  0  0  0  0  0  0  0  0
   37.2480   27.4100   32.4320 C   0  0  0  0  0  0  0  0  0  0  0  0
   36.5540   28.1050   33.3560 N   0  0  0  0  0  0  0  0  0  0  0  0
   35.8040   29.1790   33.0410 C   0  0  0  0  0  0  0  0  0  0  0  0
   35.7070   29.6150   31.7740 N   0  0  0  0  0  0  0  0  0  0  0  0
   36.3300   29.2720   29.7670 H   0  0  0  0  0  0  0  0  0  0  0  0
   37.6800   27.3490   30.3200 H   0  0  0  0  0  0  0  0  0  0  0  0
   33.7560   29.6000   34.3490 C   0  0  0  0  0  3  0  0  0  0  0  0
   35.0830   29.8820   34.0990 C   0  0  0  0  0  0  0  0  0  0  0  0
   35.7060   30.8270   34.8600 C   0  0  0  0  0  0  0  0  0  0  0  0
   36.7490   31.0960   34.7140 H   0  0  0  0  0  0  0  0  0  0  0  0
   34.9530   31.4510   35.8460 C   0  0  0  0  0  0  0  0  0  0  0  0
   35.3130   32.4140   36.7330 N   0  0  0  0  0  0  0  0  0  0  0  0
   36.2410   32.8880   36.8580 H   0  0  0  0  0  0  0  0  0  0  0  0
   34.2580   32.7390   37.5250 C   0  0  0  0  0  0  0  0  0  0  0  0
   34.2480   33.4720   38.3190 H   0  0  0  0  0  0  0  0  0  0  0  0
   33.1670   31.9560   37.1350 C   0  0  0  0  0  3  0  0  0  0  0  0
   33.6260   31.1750   36.1020 C   0  0  0  0  0  0  0  0  0  0  0  0
   33.0020   30.2170   35.3290 C   0  0  0  0  0  3  0  0  0  0  0  0
   38.0570   26.2550   32.7910 C   0  0  0  0  0  0  0  0  0  0  0  0
   38.5390   25.4580   31.9450 O   0  0  0  0  0  0  0  0  0  0  0  0
   38.3230   25.9970   34.2390 C   0  0  2  0  0  0  0  0  0  0  0  0
   39.8050   26.1650   34.5800 C   0  0  0  0  0  0  0  0  0  0  0  0
   39.0900   24.8090   34.6630 C   0  0  1  0  0  0  0  0  0  0  0  0
   37.4850   26.2030   34.9180 H   0  0  0  0  0  0  0  0  0  0  0  0
   40.0210   26.6820   35.5450 H   0  0  0  0  0  0  0  0  0  0  0  0
   40.5290   26.3110   33.7850 H   0  0  0  0  0  0  0  0  0  0  0  0
   39.4320   24.0890   33.9080 H   0  0  0  0  0  0  0  0  0  0  0  0
   38.9870   24.2890   36.0340 C   0  0  0  0  0  0  0  0  0  0  0  0
   37.9960   24.7300   36.9080 C   0  0  0  0  0  0  0  0  0  0  0  0
   37.9690   24.2040   38.1770 C   0  0  0  0  0  0  0  0  0  0  0  0
   38.8700   23.2740   38.6110 C   0  0  0  0  0  0  0  0  0  0  0  0
   39.8470   22.8540   37.7150 C   0  0  0  0  0  0  0  0  0  0  0  0
   39.8730   23.3670   36.4770 N   0  0  0  0  0  0  0  0  0  0  0  0
   37.2650   25.4690   36.5940 H   0  0  0  0  0  0  0  0  0  0  0  0
   37.2190   24.5110   38.8980 H   0  0  0  0  0  0  0  0  0  0  0  0
   38.9370   22.8000   39.5810 H   0  0  0  0  0  0  0  0  0  0  0  0
   40.6410   22.1210   37.8970 H   0  0  0  0  0  0  0  0  0  0  0  0
  1  2  2  0  0  0  0
  1  6  1  0  0  0  0
  2  3  1  0  0  0  0
  3 21  1  0  0  0  0
  3  4  2  0  0  0  0
  5  4  1  0  0  0  0
  5 10  1  0  0  0  0
  6  5  2  0  0  0  0
  7  1  1  0  0  0  0
  8  2  1  0  0  0  0
  9 20  1  0  0  0  0
 10  9  2  0  0  0  0
 10 11  1  0  0  0  0
 11 13  2  0  0  0  0
 12 11  1  0  0  0  0
 13 19  1  0  0  0  0
 13 14  1  0  0  0  0
 14 15  1  0  0  0  0
 14 16  1  0  0  0  0
 16 17  1  0  0  0  0
 18 16  2  0  0  0  0
 19 18  1  0  0  0  0
 20 19  2  0  0  0  0
 21 23  1  0  0  0  0
 22 21  2  0  0  0  0
 23 24  1  0  0  0  0
 23 25  1  0  0  0  0
 23 26  1  1  0  0  0
 24 25  1  0  0  0  0
 24 27  1  0  0  0  0
 25 29  1  6  0  0  0
 25 30  1  0  0  0  0
 28 24  1  0  0  0  0
 30 35  2  0  0  0  0
 30 31  1  0  0  0  0
 31 32  2  0  0  0  0
 32 33  1  0  0  0  0
 32 37  1  0  0  0  0
 33 38  1  0  0  0  0
 34 39  1  0  0  0  0
 34 33  2  0  0  0  0
 35 34  1  0  0  0  0
 36 31  1  0  0  0  0
M  END
>  <minimizedAffinity>
-6.71992111

$$$$

 OpenBabel03272501373D

 39 43  0  0  1  0  0  0  0  0999 V2000
   36.1530   26.9370   30.7050 C   0  0  0  0  0  0  0  0  0  0  0  0
   36.3670   27.6120   31.9080 C   0  0  0  0  0  0  0  0  0  0  0  0
   36.6290   26.9030   33.0610 C   0  0  0  0  0  0  0  0  0  0  0  0
   36.6650   25.5590   32.9610 N   0  0  0  0  0  0  0  0  0  0  0  0
   36.4560   24.9130   31.7960 C   0  0  0  0  0  0  0  0  0  0  0  0
   36.2000   25.5860   30.6630 N   0  0  0  0  0  0  0  0  0  0  0  0
   35.9490   27.5210   29.8100 H   0  0  0  0  0  0  0  0  0  0  0  0
   36.3190   28.6870   31.8900 H   0  0  0  0  0  0  0  0  0  0  0  0
   37.7100   22.8000   31.5810 C   0  0  0  0  0  3  0  0  0  0  0  0
   36.5100   23.4540   31.7690 C   0  0  0  0  0  0  0  0  0  0  0  0
   35.3770   22.7100   31.9300 C   0  0  0  0  0  0  0  0  0  0  0  0
   34.4010   23.1640   32.0820 H   0  0  0  0  0  0  0  0  0  0  0  0
   35.5100   21.3290   31.8920 C   0  0  0  0  0  0  0  0  0  0  0  0
   34.5650   20.3630   32.0200 N   0  0  0  0  0  0  0  0  0  0  0  0
   33.5310   20.4610   32.1770 H   0  0  0  0  0  0  0  0  0  0  0  0
   35.1340   19.1330   31.9200 C   0  0  0  0  0  0  0  0  0  0  0  0
   34.6290   18.1800   31.9820 H   0  0  0  0  0  0  0  0  0  0  0  0
   36.5070   19.3080   31.7160 C   0  0  0  0  0  3  0  0  0  0  0  0
   36.7050   20.6670   31.7040 C   0  0  0  0  0  0  0  0  0  0  0  0
   37.8470   21.4250   31.5420 C   0  0  0  0  0  3  0  0  0  0  0  0
   36.8530   27.5830   34.3280 C   0  0  0  0  0  0  0  0  0  0  0  0
   36.4570   28.7530   34.5630 O   0  0  0  0  0  0  0  0  0  0  0  0
   37.5990   26.8570   35.4010 C   0  0  2  0  0  0  0  0  0  0  0  0
   39.1060   27.0940   35.3020 C   0  0  0  0  0  0  0  0  0  0  0  0
   38.4730   25.7150   35.0690 C   0  0  1  0  0  0  0  0  0  0  0  0
   37.0400   26.6850   36.3310 H   0  0  0  0  0  0  0  0  0  0  0  0
   39.6340   27.2510   36.2710 H   0  0  0  0  0  0  0  0  0  0  0  0
   39.5150   27.6180   34.4420 H   0  0  0  0  0  0  0  0  0  0  0  0
   38.5420   25.3730   34.0280 H   0  0  0  0  0  0  0  0  0  0  0  0
   38.8470   24.7240   36.0890 C   0  0  0  0  0  0  0  0  0  0  0  0
   39.9520   23.8920   35.9240 C   0  0  0  0  0  0  0  0  0  0  0  0
   40.2340   22.9840   36.9160 C   0  0  0  0  0  0  0  0  0  0  0  0
   39.4780   22.8670   38.0470 C   0  0  0  0  0  0  0  0  0  0  0  0
   38.3820   23.7120   38.1820 C   0  0  0  0  0  0  0  0  0  0  0  0
   38.1070   24.5980   37.2140 N   0  0  0  0  0  0  0  0  0  0  0  0
   40.5730   23.9600   35.0350 H   0  0  0  0  0  0  0  0  0  0  0  0
   41.0820   22.3130   36.8400 H   0  0  0  0  0  0  0  0  0  0  0  0
   39.6120   22.1920   38.8820 H   0  0  0  0  0  0  0  0  0  0  0  0
   37.6750   23.7510   39.0190 H   0  0  0  0  0  0  0  0  0  0  0  0
  1  2  1  0  0  0  0
  2  3  2  0  0  0  0
  3 21  1  0  0  0  0
  4  3  1  0  0  0  0
  5  4  2  0  0  0  0
  6  1  2  0  0  0  0
  6  5  1  0  0  0  0
  7  1  1  0  0  0  0
  8  2  1  0  0  0  0
  9 10  1  0  0  0  0
 10  5  1  0  0  0  0
 10 11  2  0  0  0  0
 11 12  1  0  0  0  0
 13 11  1  0  0  0  0
 13 14  1  0  0  0  0
 14 15  1  0  0  0  0
 16 17  1  0  0  0  0
 16 14  1  0  0  0  0
 18 16  2  0  0  0  0
 19 18  1  0  0  0  0
 19 13  2  0  0  0  0
 20  9  2  0  0  0  0
 20 19  1  0  0  0  0
 21 22  2  0  0  0  0
 21 23  1  0  0  0  0
 23 26  1  1  0  0  0
 24 23  1  0  0  0  0
 24 27  1  0  0  0  0
 25 29  1  6  0  0  0
 25 24  1  0  0  0  0
 25 23  1  0  0  0  0
 25 30  1  0  0  0  0
 28 24  1  0  0  0  0
 30 35  1  0  0  0  0
 31 30  2  0  0  0  0
 31 32  1  0  0  0  0
 32 33  2  0  0  0  0
 33 34  1  0  0  0  0
 33 38  1  0  0  0  0
 34 39  1  0  0  0  0
 35 34  2  0  0  0  0
 36 31  1  0  0  0  0
 37 32  1  0  0  0  0
M  END
>  <minimizedAffinity>
-6.32436323

$$$$

 OpenBabel03272501373D

 39 43  0  0  1  0  0  0  0  0999 V2000
   36.4640   29.2080   30.3460 C   0  0  0  0  0  0  0  0  0  0  0  0
   37.1320   27.9970   30.5300 C   0  0  0  0  0  0  0  0  0  0  0  0
   37.1210   27.3830   31.7630 C   0  0  0  0  0  0  0  0  0  0  0  0
   36.4460   28.0020   32.7520 N   0  0  0  0  0  0  0  0  0  0  0  0
   35.8040   29.1730   32.5680 C   0  0  0  0  0  0  0  0  0  0  0  0
   35.8030   29.7870   31.3740 N   0  0  0  0  0  0  0  0  0  0  0  0
   36.4880   29.6720   29.3610 H   0  0  0  0  0  0  0  0  0  0  0  0
   37.6440   27.5780   29.6800 H   0  0  0  0  0  0  0  0  0  0  0  0
   33.7550   29.5300   33.8940 C   0  0  0  0  0  3  0  0  0  0  0  0
   35.0960   29.7830   33.6910 C   0  0  0  0  0  0  0  0  0  0  0  0
   35.7450   30.6130   34.5580 C   0  0  0  0  0  0  0  0  0  0  0  0
   36.8000   30.8520   34.4530 H   0  0  0  0  0  0  0  0  0  0  0  0
   35.0040   31.1540   35.5990 C   0  0  0  0  0  0  0  0  0  0  0  0
   35.3880   31.9970   36.5910 N   0  0  0  0  0  0  0  0  0  0  0  0
   36.3330   32.4170   36.7770 H   0  0  0  0  0  0  0  0  0  0  0  0
   34.3360   32.2770   37.4040 C   0  0  0  0  0  0  0  0  0  0  0  0
   34.3440   32.9180   38.2740 H   0  0  0  0  0  0  0  0  0  0  0  0
   33.2200   31.5870   36.9180 C   0  0  0  0  0  3  0  0  0  0  0  0
   33.6630   30.9070   35.8100 C   0  0  0  0  0  0  0  0  0  0  0  0
   33.0130   30.0670   34.9300 C   0  0  0  0  0  3  0  0  0  0  0  0
   37.8120   26.1210   31.9820 C   0  0  0  0  0  0  0  0  0  0  0  0
   38.8770   26.0220   32.6450 O   0  0  0  0  0  0  0  0  0  0  0  0
   37.2330   24.8800   31.3810 C   0  0  2  0  0  0  0  0  0  0  0  0
   35.7050   24.8870   31.4350 C   0  0  0  0  0  0  0  0  0  0  0  0
   36.5520   23.8820   32.2280 C   0  0  1  0  0  0  0  0  0  0  0  0
   37.8420   24.4040   30.6010 H   0  0  0  0  0  0  0  0  0  0  0  0
   35.1890   24.5050   30.5230 H   0  0  0  0  0  0  0  0  0  0  0  0
   35.1870   25.6650   31.9880 H   0  0  0  0  0  0  0  0  0  0  0  0
   36.5080   24.0360   33.3140 H   0  0  0  0  0  0  0  0  0  0  0  0
   36.3820   22.4930   31.7770 C   0  0  0  0  0  0  0  0  0  0  0  0
   35.2740   21.7370   32.1530 C   0  0  0  0  0  0  0  0  0  0  0  0
   35.1880   20.4430   31.6980 C   0  0  0  0  0  0  0  0  0  0  0  0
   36.1400   19.8750   30.9010 C   0  0  0  0  0  0  0  0  0  0  0  0
   37.2340   20.6550   30.5430 C   0  0  0  0  0  0  0  0  0  0  0  0
   37.3170   21.9190   30.9860 N   0  0  0  0  0  0  0  0  0  0  0  0
   34.4990   22.1590   32.7860 H   0  0  0  0  0  0  0  0  0  0  0  0
   34.3470   19.8090   31.9590 H   0  0  0  0  0  0  0  0  0  0  0  0
   36.1680   18.8740   30.4920 H   0  0  0  0  0  0  0  0  0  0  0  0
   38.0810   20.3600   29.9150 H   0  0  0  0  0  0  0  0  0  0  0  0
  1  2  2  0  0  0  0
  1  6  1  0  0  0  0
  2  3  1  0  0  0  0
  3 21  1  0  0  0  0
  3  4  2  0  0  0  0
  5  4  1  0  0  0  0
  5 10  1  0  0  0  0
  6  5  2  0  0  0  0
  7  1  1  0  0  0  0
  8  2  1  0  0  0  0
  9 20  1  0  0  0  0
 10  9  2  0  0  0  0
 10 11  1  0  0  0  0
 11 13  2  0  0  0  0
 12 11  1  0  0  0  0
 13 19  1  0  0  0  0
 13 14  1  0  0  0  0
 14 15  1  0  0  0  0
 14 16  1  0  0  0  0
 16 17  1  0  0  0  0
 18 16  2  0  0  0  0
 19 18  1  0  0  0  0
 20 19  2  0  0  0  0
 21 22  2  0  0  0  0
 23 26  1  6  0  0  0
 23 24  1  0  0  0  0
 23 21  1  0  0  0  0
 23 25  1  0  0  0  0
 24 28  1  0  0  0  0
 24 25  1  0  0  0  0
 25 29  1  1  0  0  0
 27 24  1  0  0  0  0
 30 31  1  0  0  0  0
 30 25  1  0  0  0  0
 31 36  1  0  0  0  0
 32 37  1  0  0  0  0
 32 31  2  0  0  0  0
 33 32  1  0  0  0  0
 34 33  2  0  0  0  0
 34 35  1  0  0  0  0
 35 30  2  0  0  0  0
 38 33  1  0  0  0  0
 39 34  1  0  0  0  0
M  END
>  <minimizedAffinity>
-6.16533899

$$$$

 OpenBabel03272501373D

 39 43  0  0  1  0  0  0  0  0999 V2000
   35.7300   23.8600   31.5930 C   0  0  0  0  0  0  0  0  0  0  0  0
   35.6290   25.1800   31.1510 C   0  0  0  0  0  0  0  0  0  0  0  0
   36.5030   26.1350   31.6240 C   0  0  0  0  0  0  0  0  0  0  0  0
   37.4340   25.7310   32.5110 N   0  0  0  0  0  0  0  0  0  0  0  0
   37.5250   24.4540   32.9350 C   0  0  0  0  0  0  0  0  0  0  0  0
   36.6830   23.5090   32.4860 N   0  0  0  0  0  0  0  0  0  0  0  0
   35.0280   23.1250   31.2030 H   0  0  0  0  0  0  0  0  0  0  0  0
   34.8530   25.4080   30.4400 H   0  0  0  0  0  0  0  0  0  0  0  0
   39.8570   24.5360   33.7350 C   0  0  0  0  0  3  0  0  0  0  0  0
   38.5600   24.0950   33.9000 C   0  0  0  0  0  0  0  0  0  0  0  0
   38.2660   23.3170   34.9820 C   0  0  0  0  0  0  0  0  0  0  0  0
   37.2650   22.9370   35.1700 H   0  0  0  0  0  0  0  0  0  0  0  0
   39.3040   23.0190   35.8550 C   0  0  0  0  0  0  0  0  0  0  0  0
   39.2960   22.2780   36.9920 N   0  0  0  0  0  0  0  0  0  0  0  0
   38.4960   21.7740   37.4510 H   0  0  0  0  0  0  0  0  0  0  0  0
   40.5390   22.2440   37.5400 C   0  0  0  0  0  0  0  0  0  0  0  0
   40.8330   21.7320   38.4450 H   0  0  0  0  0  0  0  0  0  0  0  0
   41.3910   22.9930   36.7220 C   0  0  0  0  0  3  0  0  0  0  0  0
   40.6030   23.4560   35.6960 C   0  0  0  0  0  0  0  0  0  0  0  0
   40.8940   24.2420   34.6000 C   0  0  0  0  0  3  0  0  0  0  0  0
   36.4170   27.5190   31.1810 C   0  0  0  0  0  0  0  0  0  0  0  0
   37.0550   27.9700   30.1950 O   0  0  0  0  0  0  0  0  0  0  0  0
   35.5310   28.4530   31.9410 C   0  0  2  0  0  0  0  0  0  0  0  0
   35.8490   29.9150   31.6240 C   0  0  0  0  0  0  0  0  0  0  0  0
   36.0810   29.3040   33.0140 C   0  0  1  0  0  0  0  0  0  0  0  0
   34.5410   28.0570   32.2030 H   0  0  0  0  0  0  0  0  0  0  0  0
   34.9650   30.5860   31.5080 H   0  0  0  0  0  0  0  0  0  0  0  0
   36.7200   30.1620   31.0240 H   0  0  0  0  0  0  0  0  0  0  0  0
   37.1430   29.2190   33.2800 H   0  0  0  0  0  0  0  0  0  0  0  0
   35.2100   29.8740   34.0520 C   0  0  0  0  0  0  0  0  0  0  0  0
   35.6580   30.8790   34.9070 C   0  0  0  0  0  0  0  0  0  0  0  0
   34.7890   31.3560   35.8590 C   0  0  0  0  0  0  0  0  0  0  0  0
   33.5150   30.8850   35.9980 C   0  0  0  0  0  0  0  0  0  0  0  0
   33.0980   29.8810   35.1300 C   0  0  0  0  0  0  0  0  0  0  0  0
   33.9450   29.4170   34.2010 N   0  0  0  0  0  0  0  0  0  0  0  0
   36.6660   31.2750   34.8220 H   0  0  0  0  0  0  0  0  0  0  0  0
   35.0840   32.1380   36.5490 H   0  0  0  0  0  0  0  0  0  0  0  0
   32.7570   31.1880   36.7070 H   0  0  0  0  0  0  0  0  0  0  0  0
   32.1170   29.3940   35.1040 H   0  0  0  0  0  0  0  0  0  0  0  0
  1  6  1  0  0  0  0
  2  1  2  0  0  0  0
  2  3  1  0  0  0  0
  3  4  2  0  0  0  0
  4  5  1  0  0  0  0
  5 10  1  0  0  0  0
  6  5  2  0  0  0  0
  7  1  1  0  0  0  0
  8  2  1  0  0  0  0
  9 10  2  0  0  0  0
  9 20  1  0  0  0  0
 10 11  1  0  0  0  0
 11 12  1  0  0  0  0
 11 13  2  0  0  0  0
 13 14  1  0  0  0  0
 14 15  1  0  0  0  0
 14 16  1  0  0  0  0
 16 17  1  0  0  0  0
 18 16  2  0  0  0  0
 19 13  1  0  0  0  0
 19 18  1  0  0  0  0
 20 19  2  0  0  0  0
 21  3  1  0  0  0  0
 21 23  1  0  0  0  0
 22 21  2  0  0  0  0
 23 26  1  1  0  0  0
 23 25  1  0  0  0  0
 24 23  1  0  0  0  0
 24 25  1  0  0  0  0
 25 29  1  1  0  0  0
 25 30  1  0  0  0  0
 27 24  1  0  0  0  0
 28 24  1  0  0  0  0
 30 35  2  0  0  0  0
 30 31  1  0  0  0  0
 31 32  2  0  0  0  0
 32 33  1  0  0  0  0
 32 37  1  0  0  0  0
 33 38  1  0  0  0  0
 34 33  2  0  0  0  0
 35 34  1  0  0  0  0
 36 31  1  0  0  0  0
 39 34  1  0  0  0  0
M  END
>  <minimizedAffinity>
-6.11698484

$$$$

 OpenBabel03272501373D

 39 43  0  0  1  0  0  0  0  0999 V2000
   38.3000   26.1220   34.8940 C   0  0  0  0  0  0  0  0  0  0  0  0
   37.7830   27.2980   34.3490 C   0  0  0  0  0  0  0  0  0  0  0  0
   37.0280   27.2510   33.1970 C   0  0  0  0  0  0  0  0  0  0  0  0
   36.8250   26.0380   32.6440 N   0  0  0  0  0  0  0  0  0  0  0  0
   37.3290   24.9070   33.1750 C   0  0  0  0  0  0  0  0  0  0  0  0
   38.0670   24.9310   34.2970 N   0  0  0  0  0  0  0  0  0  0  0  0
   38.8920   26.1870   35.8050 H   0  0  0  0  0  0  0  0  0  0  0  0
   37.9980   28.2200   34.8620 H   0  0  0  0  0  0  0  0  0  0  0  0
   35.9690   23.4780   31.6940 C   0  0  0  0  0  3  0  0  0  0  0  0
   37.0670   23.6300   32.5160 C   0  0  0  0  0  0  0  0  0  0  0  0
   37.9000   22.5650   32.6980 C   0  0  0  0  0  0  0  0  0  0  0  0
   38.7820   22.6190   33.3320 H   0  0  0  0  0  0  0  0  0  0  0  0
   37.5830   21.3860   32.0380 C   0  0  0  0  0  0  0  0  0  0  0  0
   38.2270   20.1910   32.0400 N   0  0  0  0  0  0  0  0  0  0  0  0
   39.1030   19.9090   32.5450 H   0  0  0  0  0  0  0  0  0  0  0  0
   37.5690   19.3020   31.2490 C   0  0  0  0  0  0  0  0  0  0  0  0
   37.8480   18.2750   31.0600 H   0  0  0  0  0  0  0  0  0  0  0  0
   36.4510   19.9480   30.7120 C   0  0  0  0  0  3  0  0  0  0  0  0
   36.4880   21.2260   31.2150 C   0  0  0  0  0  0  0  0  0  0  0  0
   35.6490   22.3070   31.0340 C   0  0  0  0  0  3  0  0  0  0  0  0
   36.4790   28.4630   32.6070 C   0  0  0  0  0  0  0  0  0  0  0  0
   36.8630   28.9290   31.5030 O   0  0  0  0  0  0  0  0  0  0  0  0
   35.4110   29.1960   33.3530 C   0  0  2  0  0  0  0  0  0  0  0  0
   35.1560   30.5810   32.7580 C   0  0  0  0  0  0  0  0  0  0  0  0
   35.7410   30.3840   34.1640 C   0  0  1  0  0  0  0  0  0  0  0  0
   34.6600   28.5630   33.8450 H   0  0  0  0  0  0  0  0  0  0  0  0
   34.0850   30.8880   32.6950 H   0  0  0  0  0  0  0  0  0  0  0  0
   35.8120   30.9660   31.9830 H   0  0  0  0  0  0  0  0  0  0  0  0
   36.7870   30.7060   34.2500 H   0  0  0  0  0  0  0  0  0  0  0  0
   34.8460   30.8430   35.2360 C   0  0  0  0  0  0  0  0  0  0  0  0
   35.2510   31.8020   36.1610 C   0  0  0  0  0  0  0  0  0  0  0  0
   34.3620   32.1750   37.1410 C   0  0  0  0  0  0  0  0  0  0  0  0
   33.1080   31.6440   37.2410 C   0  0  0  0  0  0  0  0  0  0  0  0
   32.7340   30.6880   36.3040 C   0  0  0  0  0  0  0  0  0  0  0  0
   33.6010   30.3250   35.3470 N   0  0  0  0  0  0  0  0  0  0  0  0
   36.2420   32.2440   36.1080 H   0  0  0  0  0  0  0  0  0  0  0  0
   34.6240   32.9180   37.8860 H   0  0  0  0  0  0  0  0  0  0  0  0
   32.3370   31.8660   37.9670 H   0  0  0  0  0  0  0  0  0  0  0  0
   31.7730   30.1640   36.2390 H   0  0  0  0  0  0  0  0  0  0  0  0
  1  7  1  0  0  0  0
  2  8  1  0  0  0  0
  2  1  1  0  0  0  0
  3  2  2  0  0  0  0
  4  5  2  0  0  0  0
  4  3  1  0  0  0  0
  5  6  1  0  0  0  0
  6  1  2  0  0  0  0
  9 10  1  0  0  0  0
 10 11  2  0  0  0  0
 10  5  1  0  0  0  0
 11 12  1  0  0  0  0
 13 14  1  0  0  0  0
 13 11  1  0  0  0  0
 14 15  1  0  0  0  0
 16 14  1  0  0  0  0
 17 16  1  0  0  0  0
 18 19  1  0  0  0  0
 18 16  2  0  0  0  0
 19 13  2  0  0  0  0
 20 19  1  0  0  0  0
 20  9  2  0  0  0  0
 21  3  1  0  0  0  0
 21 23  1  0  0  0  0
 22 21  2  0  0  0  0
 23 26  1  1  0  0  0
 23 25  1  0  0  0  0
 24 23  1  0  0  0  0
 24 25  1  0  0  0  0
 25 29  1  1  0  0  0
 25 30  1  0  0  0  0
 27 24  1  0  0  0  0
 28 24  1  0  0  0  0
 30 35  2  0  0  0  0
 30 31  1  0  0  0  0
 31 32  2  0  0  0  0
 32 33  1  0  0  0  0
 32 37  1  0  0  0  0
 33 38  1  0  0  0  0
 34 33  2  0  0  0  0
 35 34  1  0  0  0  0
 36 31  1  0  0  0  0
 39 34  1  0  0  0  0
M  END
>  <minimizedAffinity>
-5.99422789

$$$$

 OpenBabel03272501373D

 39 43  0  0  1  0  0  0  0  0999 V2000
   35.4290   30.1510   34.0470 C   0  0  0  0  0  0  0  0  0  0  0  0
   35.8380   28.8310   34.2390 C   0  0  0  0  0  0  0  0  0  0  0  0
   36.4760   28.1510   33.2240 C   0  0  0  0  0  0  0  0  0  0  0  0
   36.6750   28.8160   32.0680 N   0  0  0  0  0  0  0  0  0  0  0  0
   36.2750   30.0910   31.8890 C   0  0  0  0  0  0  0  0  0  0  0  0
   35.6530   30.7710   32.8660 N   0  0  0  0  0  0  0  0  0  0  0  0
   34.9280   30.6650   34.8650 H   0  0  0  0  0  0  0  0  0  0  0  0
   35.6360   28.3820   35.1970 H   0  0  0  0  0  0  0  0  0  0  0  0
   36.0670   32.0230   30.3700 C   0  0  0  0  0  3  0  0  0  0  0  0
   36.5250   30.7440   30.6070 C   0  0  0  0  0  0  0  0  0  0  0  0
   37.2160   30.1030   29.6200 C   0  0  0  0  0  0  0  0  0  0  0  0
   37.6040   29.0950   29.7420 H   0  0  0  0  0  0  0  0  0  0  0  0
   37.4120   30.7900   28.4290 C   0  0  0  0  0  0  0  0  0  0  0  0
   38.0530   30.3990   27.2980 N   0  0  0  0  0  0  0  0  0  0  0  0
   38.5360   29.4910   27.0880 H   0  0  0  0  0  0  0  0  0  0  0  0
   38.0100   31.3890   26.3680 C   0  0  0  0  0  0  0  0  0  0  0  0
   38.4350   31.3620   25.3750 H   0  0  0  0  0  0  0  0  0  0  0  0
   37.3100   32.4680   26.9190 C   0  0  0  0  0  3  0  0  0  0  0  0
   36.9570   32.0690   28.1850 C   0  0  0  0  0  0  0  0  0  0  0  0
   36.2600   32.7110   29.1870 C   0  0  0  0  0  3  0  0  0  0  0  0
   36.9090   26.7730   33.3980 C   0  0  0  0  0  0  0  0  0  0  0  0
   36.8360   25.9050   32.4900 O   0  0  0  0  0  0  0  0  0  0  0  0
   37.4620   26.3650   34.7260 C   0  0  2  0  0  0  0  0  0  0  0  0
   38.9570   26.6710   34.8330 C   0  0  0  0  0  0  0  0  0  0  0  0
   38.4080   25.2370   34.8320 C   0  0  1  0  0  0  0  0  0  0  0  0
   36.7470   26.3760   35.5590 H   0  0  0  0  0  0  0  0  0  0  0  0
   39.2950   27.0820   35.8130 H   0  0  0  0  0  0  0  0  0  0  0  0
   39.5040   27.0070   33.9570 H   0  0  0  0  0  0  0  0  0  0  0  0
   38.6740   24.6690   33.9310 H   0  0  0  0  0  0  0  0  0  0  0  0
   38.6120   24.5350   36.1080 C   0  0  0  0  0  0  0  0  0  0  0  0
   37.8360   24.8210   37.2280 C   0  0  0  0  0  0  0  0  0  0  0  0
   38.0910   24.1300   38.3880 C   0  0  0  0  0  0  0  0  0  0  0  0
   39.0700   23.1820   38.4830 C   0  0  0  0  0  0  0  0  0  0  0  0
   39.8290   22.9200   37.3470 C   0  0  0  0  0  0  0  0  0  0  0  0
   39.5790   23.5940   36.2150 N   0  0  0  0  0  0  0  0  0  0  0  0
   37.0490   25.5690   37.1850 H   0  0  0  0  0  0  0  0  0  0  0  0
   37.5170   24.3100   39.2900 H   0  0  0  0  0  0  0  0  0  0  0  0
   39.3520   22.5850   39.3400 H   0  0  0  0  0  0  0  0  0  0  0  0
   40.6470   22.1970   37.2490 H   0  0  0  0  0  0  0  0  0  0  0  0
  1  2  1  0  0  0  0
  1  7  1  0  0  0  0
  2  8  1  0  0  0  0
  3 21  1  0  0  0  0
  3  2  2  0  0  0  0
  4  3  1  0  0  0  0
  5  4  2  0  0  0  0
  5  6  1  0  0  0  0
  6  1  2  0  0  0  0
  9 10  1  0  0  0  0
 10  5  1  0  0  0  0
 11 12  1  0  0  0  0
 11 10  2  0  0  0  0
 13 11  1  0  0  0  0
 14 13  1  0  0  0  0
 15 14  1  0  0  0  0
 16 18  2  0  0  0  0
 16 14  1  0  0  0  0
 17 16  1  0  0  0  0
 18 19  1  0  0  0  0
 19 13  2  0  0  0  0
 19 20  1  0  0  0  0
 20  9  2  0  0  0  0
 21 23  1  0  0  0  0
 22 21  2  0  0  0  0
 23 25  1  0  0  0  0
 23 24  1  0  0  0  0
 23 26  1  1  0  0  0
 24 27  1  0  0  0  0
 25 29  1  6  0  0  0
 25 24  1  0  0  0  0
 25 30  1  0  0  0  0
 28 24  1  0  0  0  0
 30 35  2  0  0  0  0
 30 31  1  0  0  0  0
 31 32  2  0  0  0  0
 32 33  1  0  0  0  0
 32 37  1  0  0  0  0
 33 38  1  0  0  0  0
 34 33  2  0  0  0  0
 35 34  1  0  0  0  0
 36 31  1  0  0  0  0
 39 34  1  0  0  0  0
M  END
>  <minimizedAffinity>
-5.98771095

$$$$

 OpenBabel03272501373D

 39 43  0  0  1  0  0  0  0  0999 V2000
   37.9670   26.6330   34.7430 C   0  0  0  0  0  0  0  0  0  0  0  0
   38.2520   25.9770   33.5440 C   0  0  0  0  0  0  0  0  0  0  0  0
   37.6010   26.3440   32.3850 C   0  0  0  0  0  0  0  0  0  0  0  0
   36.7000   27.3420   32.4760 N   0  0  0  0  0  0  0  0  0  0  0  0
   36.4290   27.9700   33.6370 C   0  0  0  0  0  0  0  0  0  0  0  0
   37.0520   27.6280   34.7770 N   0  0  0  0  0  0  0  0  0  0  0  0
   38.4960   26.3250   35.6430 H   0  0  0  0  0  0  0  0  0  0  0  0
   38.9870   25.1910   33.5690 H   0  0  0  0  0  0  0  0  0  0  0  0
   35.5270   30.0640   34.5770 C   0  0  0  0  0  3  0  0  0  0  0  0
   35.4370   29.0420   33.6550 C   0  0  0  0  0  0  0  0  0  0  0  0
   34.4050   29.0540   32.7630 C   0  0  0  0  0  0  0  0  0  0  0  0
   34.2780   28.2790   32.0110 H   0  0  0  0  0  0  0  0  0  0  0  0
   33.5040   30.1070   32.8430 C   0  0  0  0  0  0  0  0  0  0  0  0
   32.4010   30.3640   32.0930 N   0  0  0  0  0  0  0  0  0  0  0  0
   32.0010   29.8170   31.2920 H   0  0  0  0  0  0  0  0  0  0  0  0
   31.8040   31.5100   32.5150 C   0  0  0  0  0  0  0  0  0  0  0  0
   30.9110   31.9610   32.1070 H   0  0  0  0  0  0  0  0  0  0  0  0
   32.5490   32.0160   33.5850 C   0  0  0  0  0  3  0  0  0  0  0  0
   33.5860   31.1320   33.7620 C   0  0  0  0  0  0  0  0  0  0  0  0
   34.6320   31.1150   34.6610 C   0  0  0  0  0  3  0  0  0  0  0  0
   37.8780   25.6740   31.1230 C   0  0  0  0  0  0  0  0  0  0  0  0
   38.6930   26.1130   30.2720 O   0  0  0  0  0  0  0  0  0  0  0  0
   37.1500   24.4040   30.8190 C   0  0  2  0  0  0  0  0  0  0  0  0
   35.6420   24.5530   31.0260 C   0  0  0  0  0  0  0  0  0  0  0  0
   36.5060   23.6290   31.8970 C   0  0  1  0  0  0  0  0  0  0  0  0
   37.6310   23.7490   30.0790 H   0  0  0  0  0  0  0  0  0  0  0  0
   35.0000   24.0660   30.2550 H   0  0  0  0  0  0  0  0  0  0  0  0
   35.2460   25.4570   31.4800 H   0  0  0  0  0  0  0  0  0  0  0  0
   36.5980   23.9710   32.9360 H   0  0  0  0  0  0  0  0  0  0  0  0
   36.1910   22.2040   31.7240 C   0  0  0  0  0  0  0  0  0  0  0  0
   35.1170   21.6110   32.3830 C   0  0  0  0  0  0  0  0  0  0  0  0
   34.8890   20.2710   32.1780 C   0  0  0  0  0  0  0  0  0  0  0  0
   35.6710   19.5060   31.3610 C   0  0  0  0  0  0  0  0  0  0  0  0
   36.7360   20.1270   30.7170 C   0  0  0  0  0  0  0  0  0  0  0  0
   36.9570   21.4340   30.9160 N   0  0  0  0  0  0  0  0  0  0  0  0
   34.4760   22.1920   33.0400 H   0  0  0  0  0  0  0  0  0  0  0  0
   34.0670   19.7580   32.6650 H   0  0  0  0  0  0  0  0  0  0  0  0
   35.5800   18.4520   31.1320 H   0  0  0  0  0  0  0  0  0  0  0  0
   37.4560   19.6650   30.0320 H   0  0  0  0  0  0  0  0  0  0  0  0
  1  6  1  0  0  0  0
  1  7  1  0  0  0  0
  2  8  1  0  0  0  0
  2  1  2  0  0  0  0
  3  4  2  0  0  0  0
  3  2  1  0  0  0  0
  4  5  1  0  0  0  0
  5 10  1  0  0  0  0
  5  6  2  0  0  0  0
  9 20  1  0  0  0  0
 10  9  2  0  0  0  0
 11 13  2  0  0  0  0
 11 10  1  0  0  0  0
 12 11  1  0  0  0  0
 13 19  1  0  0  0  0
 14 16  1  0  0  0  0
 14 13  1  0  0  0  0
 15 14  1  0  0  0  0
 16 18  2  0  0  0  0
 17 16  1  0  0  0  0
 18 19  1  0  0  0  0
 19 20  2  0  0  0  0
 21  3  1  0  0  0  0
 22 21  2  0  0  0  0
 23 26  1  6  0  0  0
 23 24  1  0  0  0  0
 23 21  1  0  0  0  0
 23 25  1  0  0  0  0
 24 28  1  0  0  0  0
 24 25  1  0  0  0  0
 25 29  1  1  0  0  0
 27 24  1  0  0  0  0
 30 25  1  0  0  0  0
 30 31  1  0  0  0  0
 31 36  1  0  0  0  0
 32 31  2  0  0  0  0
 32 37  1  0  0  0  0
 33 32  1  0  0  0  0
 34 35  1  0  0  0  0
 34 33  2  0  0  0  0
 35 30  2  0  0  0  0
 38 33  1  0  0  0  0
 39 34  1  0  0  0  0
M  END
>  <minimizedAffinity>
-5.92987871

$$$$

 OpenBabel03272501373D

 39 43  0  0  1  0  0  0  0  0999 V2000
   37.9620   24.0710   32.5740 C   0  0  0  0  0  0  0  0  0  0  0  0
   38.3050   23.6570   33.8620 C   0  0  0  0  0  0  0  0  0  0  0  0
   38.1160   24.5040   34.9330 C   0  0  0  0  0  0  0  0  0  0  0  0
   37.5960   25.7200   34.6710 N   0  0  0  0  0  0  0  0  0  0  0  0
   37.2670   26.1130   33.4250 C   0  0  0  0  0  0  0  0  0  0  0  0
   37.4440   25.3030   32.3680 N   0  0  0  0  0  0  0  0  0  0  0  0
   38.1200   23.3830   31.7470 H   0  0  0  0  0  0  0  0  0  0  0  0
   38.7150   22.6670   33.9740 H   0  0  0  0  0  0  0  0  0  0  0  0
   36.3850   28.2430   34.3010 C   0  0  0  0  0  3  0  0  0  0  0  0
   36.7100   27.4480   33.2210 C   0  0  0  0  0  0  0  0  0  0  0  0
   36.5000   27.9330   31.9640 C   0  0  0  0  0  0  0  0  0  0  0  0
   36.7350   27.3570   31.0720 H   0  0  0  0  0  0  0  0  0  0  0  0
   35.9670   29.2100   31.8530 C   0  0  0  0  0  0  0  0  0  0  0  0
   35.6600   29.9290   30.7430 N   0  0  0  0  0  0  0  0  0  0  0  0
   35.7640   29.6660   29.7320 H   0  0  0  0  0  0  0  0  0  0  0  0
   35.1570   31.1420   31.0930 C   0  0  0  0  0  0  0  0  0  0  0  0
   34.8270   31.9230   30.4230 H   0  0  0  0  0  0  0  0  0  0  0  0
   35.1350   31.2130   32.4900 C   0  0  0  0  0  3  0  0  0  0  0  0
   35.6390   30.0120   32.9270 C   0  0  0  0  0  0  0  0  0  0  0  0
   35.8540   29.5150   34.1960 C   0  0  0  0  0  3  0  0  0  0  0  0
   38.4690   24.0970   36.2850 C   0  0  0  0  0  0  0  0  0  0  0  0
   38.1110   24.7290   37.3130 O   0  0  0  0  0  0  0  0  0  0  0  0
   39.3050   22.8710   36.4630 C   0  0  2  0  0  0  0  0  0  0  0  0
   39.9270   22.8080   37.8580 C   0  0  0  0  0  0  0  0  0  0  0  0
   40.7720   22.9720   36.5870 C   0  0  1  0  0  0  0  0  0  0  0  0
   39.0080   22.0040   35.8560 H   0  0  0  0  0  0  0  0  0  0  0  0
   39.9280   21.8010   38.3400 H   0  0  0  0  0  0  0  0  0  0  0  0
   39.8410   23.6590   38.5270 H   0  0  0  0  0  0  0  0  0  0  0  0
   41.2540   23.9560   36.5090 H   0  0  0  0  0  0  0  0  0  0  0  0
   41.6390   21.8180   36.3120 C   0  0  0  0  0  0  0  0  0  0  0  0
   42.1470   21.0270   37.3400 C   0  0  0  0  0  0  0  0  0  0  0  0
   42.9580   19.9700   37.0050 C   0  0  0  0  0  0  0  0  0  0  0  0
   43.2840   19.6690   35.7140 C   0  0  0  0  0  0  0  0  0  0  0  0
   42.7620   20.4770   34.7100 C   0  0  0  0  0  0  0  0  0  0  0  0
   41.9700   21.5080   35.0370 N   0  0  0  0  0  0  0  0  0  0  0  0
   41.9070   21.2400   38.3780 H   0  0  0  0  0  0  0  0  0  0  0  0
   43.3800   19.3210   37.7650 H   0  0  0  0  0  0  0  0  0  0  0  0
   43.9090   18.8670   35.3450 H   0  0  0  0  0  0  0  0  0  0  0  0
   42.9210   20.3780   33.6300 H   0  0  0  0  0  0  0  0  0  0  0  0
  1  2  1  0  0  0  0
  2  8  1  0  0  0  0
  2  3  2  0  0  0  0
  3 21  1  0  0  0  0
  4  3  1  0  0  0  0
  5  4  2  0  0  0  0
  6  1  2  0  0  0  0
  6  5  1  0  0  0  0
  7  1  1  0  0  0  0
 10  5  1  0  0  0  0
 10  9  2  0  0  0  0
 11 10  1  0  0  0  0
 12 11  1  0  0  0  0
 13 11  2  0  0  0  0
 13 19  1  0  0  0  0
 14 16  1  0  0  0  0
 14 13  1  0  0  0  0
 15 14  1  0  0  0  0
 16 18  2  0  0  0  0
 17 16  1  0  0  0  0
 18 19  1  0  0  0  0
 19 20  2  0  0  0  0
 20  9  1  0  0  0  0
 21 23  1  0  0  0  0
 21 22  2  0  0  0  0
 23 26  1  6  0  0  0
 23 25  1  0  0  0  0
 23 24  1  0  0  0  0
 24 27  1  0  0  0  0
 24 28  1  0  0  0  0
 25 29  1  6  0  0  0
 25 24  1  0  0  0  0
 30 25  1  0  0  0  0
 30 31  1  0  0  0  0
 31 36  1  0  0  0  0
 32 31  2  0  0  0  0
 32 37  1  0  0  0  0
 33 32  1  0  0  0  0
 34 35  1  0  0  0  0
 34 33  2  0  0  0  0
 35 30  2  0  0  0  0
 38 33  1  0  0  0  0
 39 34  1  0  0  0  0
M  END
>  <minimizedAffinity>
-5.92519951

$$$$
