
 OpenBabel03272501333D

 30 33  0  0  1  0  0  0  0  0999 V2000
   37.3020   26.4650   34.9640 C   0  0  2  0  0  0  0  0  0  0  0  0
   38.4960   27.0290   35.7340 C   0  0  0  0  0  0  0  0  0  0  0  0
   37.9250   25.6160   35.8800 C   0  0  2  0  0  0  0  0  0  0  0  0
   36.4740   27.1920   35.2500 H   0  0  0  0  0  0  0  0  0  0  0  0
   39.3900   27.2360   35.1690 H   0  0  0  0  0  0  0  0  0  0  0  0
   38.3660   27.6590   36.6230 H   0  0  0  0  0  0  0  0  0  0  0  0
   37.2770   25.4440   36.8050 H   0  0  0  0  0  0  0  0  0  0  0  0
   40.1140   24.7970   35.0610 C   0  0  0  0  0  3  0  0  0  0  0  0
   39.0470   24.7230   35.9470 C   0  0  0  0  0  0  0  0  0  0  0  0
   39.1110   23.7200   36.9250 C   0  0  0  0  0  0  0  0  0  0  0  0
   38.3400   23.5660   37.6640 H   0  0  0  0  0  0  0  0  0  0  0  0
   40.1740   22.8360   37.0240 C   0  0  0  0  0  0  0  0  0  0  0  0
   40.4650   21.8140   37.8490 N   0  0  0  0  0  0  0  0  0  0  0  0
   39.8700   21.4730   38.6510 H   0  0  0  0  0  0  0  0  0  0  0  0
   41.6440   21.2820   37.4990 C   0  0  0  0  0  0  0  0  0  0  0  0
   42.1780   20.4510   37.9450 H   0  0  0  0  0  0  0  0  0  0  0  0
   42.1400   21.9880   36.4000 C   0  0  0  0  0  3  0  0  0  0  0  0
   41.1820   22.9670   36.1240 C   0  0  0  0  0  0  0  0  0  0  0  0
   41.1750   23.9230   35.1500 C   0  0  0  0  0  3  0  0  0  0  0  0
   37.4420   26.5560   33.5000 C   0  0  0  0  0  0  0  0  0  0  0  0
   38.1290   27.5400   33.0940 O   0  0  0  0  0  0  0  0  0  0  0  0
   36.6570   23.4350   31.6280 C   0  0  0  0  0  0  0  0  0  0  0  0
   37.2550   24.3130   32.5110 C   0  0  0  0  0  0  0  0  0  0  0  0
   36.8450   25.6120   32.6070 C   0  0  0  0  0  0  0  0  0  0  0  0
   35.8480   25.9860   31.8140 N   0  0  0  0  0  0  0  0  0  0  0  0
   35.2510   25.1240   30.9390 C   0  0  0  0  0  0  0  0  0  0  0  0
   35.6470   23.8670   30.8440 N   0  0  0  0  0  0  0  0  0  0  0  0
   36.9940   22.4050   31.5620 H   0  0  0  0  0  0  0  0  0  0  0  0
   38.0650   23.9650   33.1400 H   0  0  0  0  0  0  0  0  0  0  0  0
   34.4230   25.4120   30.2730 H   0  0  0  0  0  0  0  0  0  0  0  0
  1  4  1  1  0  0  0
  1  2  1  0  0  0  0
  1  3  1  0  0  0  0
  2  3  1  0  0  0  0
  2  6  1  0  0  0  0
  3  9  1  0  0  0  0
  3  7  1  1  0  0  0
  5  2  1  0  0  0  0
  8 19  2  0  0  0  0
  8  9  1  0  0  0  0
  9 10  2  0  0  0  0
 10 12  1  0  0  0  0
 10 11  1  0  0  0  0
 12 13  1  0  0  0  0
 13 14  1  0  0  0  0
 15 13  1  0  0  0  0
 15 16  1  0  0  0  0
 17 15  2  0  0  0  0
 18 17  1  0  0  0  0
 18 12  2  0  0  0  0
 19 18  1  0  0  0  0
 20  1  1  0  0  0  0
 21 20  2  0  0  0  0
 22 23  1  0  0  0  0
 23 24  2  0  0  0  0
 23 29  1  0  0  0  0
 24 20  1  0  0  0  0
 25 24  1  0  0  0  0
 26 25  2  0  0  0  0
 27 26  1  0  0  0  0
 27 22  2  0  0  0  0
 28 22  1  0  0  0  0
 30 26  1  0  0  0  0
M  END
>  <minimizedAffinity>
-5.81883383

$$$$

 OpenBabel03272501333D

 30 33  0  0  1  0  0  0  0  0999 V2000
   37.3600   26.8400   34.7530 C   0  0  2  0  0  0  0  0  0  0  0  0
   38.5410   27.2550   35.6290 C   0  0  0  0  0  0  0  0  0  0  0  0
   37.5720   26.1070   35.9210 C   0  0  2  0  0  0  0  0  0  0  0  0
   36.7450   27.7970   34.7180 H   0  0  0  0  0  0  0  0  0  0  0  0
   39.5290   27.0920   35.2310 H   0  0  0  0  0  0  0  0  0  0  0  0
   38.4710   28.0920   36.3360 H   0  0  0  0  0  0  0  0  0  0  0  0
   36.7750   26.3290   36.7090 H   0  0  0  0  0  0  0  0  0  0  0  0
   38.1270   24.3730   37.6000 C   0  0  0  0  0  3  0  0  0  0  0  0
   38.3660   25.0060   36.3860 C   0  0  0  0  0  0  0  0  0  0  0  0
   39.4360   24.5150   35.6220 C   0  0  0  0  0  0  0  0  0  0  0  0
   39.7150   24.9290   34.6660 H   0  0  0  0  0  0  0  0  0  0  0  0
   40.2270   23.4550   36.0350 C   0  0  0  0  0  0  0  0  0  0  0  0
   41.2830   22.8150   35.5000 N   0  0  0  0  0  0  0  0  0  0  0  0
   41.7390   23.0330   34.5730 H   0  0  0  0  0  0  0  0  0  0  0  0
   41.6800   21.8410   36.3310 C   0  0  0  0  0  0  0  0  0  0  0  0
   42.4940   21.1350   36.2160 H   0  0  0  0  0  0  0  0  0  0  0  0
   40.8470   21.8490   37.4530 C   0  0  0  0  0  3  0  0  0  0  0  0
   39.9360   22.8860   37.2330 C   0  0  0  0  0  0  0  0  0  0  0  0
   38.9090   23.3200   38.0200 C   0  0  0  0  0  3  0  0  0  0  0  0
   37.7320   26.5390   33.3590 C   0  0  0  0  0  0  0  0  0  0  0  0
   38.7070   27.2140   32.9140 O   0  0  0  0  0  0  0  0  0  0  0  0
   36.6890   23.3390   31.7690 C   0  0  0  0  0  0  0  0  0  0  0  0
   37.3750   24.2440   32.5550 C   0  0  0  0  0  0  0  0  0  0  0  0
   37.0420   25.5690   32.5680 C   0  0  0  0  0  0  0  0  0  0  0  0
   36.0310   25.9390   31.7910 N   0  0  0  0  0  0  0  0  0  0  0  0
   35.3470   25.0500   31.0120 C   0  0  0  0  0  0  0  0  0  0  0  0
   35.6690   23.7690   30.9980 N   0  0  0  0  0  0  0  0  0  0  0  0
   36.9650   22.2880   31.7680 H   0  0  0  0  0  0  0  0  0  0  0  0
   38.1940   23.8970   33.1740 H   0  0  0  0  0  0  0  0  0  0  0  0
   34.5060   25.3360   30.3610 H   0  0  0  0  0  0  0  0  0  0  0  0
  1  4  1  1  0  0  0
  1  2  1  0  0  0  0
  1  3  1  0  0  0  0
  2  3  1  0  0  0  0
  2  6  1  0  0  0  0
  3  9  1  0  0  0  0
  3  7  1  1  0  0  0
  5  2  1  0  0  0  0
  8 19  1  0  0  0  0
  9  8  2  0  0  0  0
 10 12  2  0  0  0  0
 10  9  1  0  0  0  0
 11 10  1  0  0  0  0
 12 18  1  0  0  0  0
 13 12  1  0  0  0  0
 13 15  1  0  0  0  0
 14 13  1  0  0  0  0
 15 17  2  0  0  0  0
 16 15  1  0  0  0  0
 18 17  1  0  0  0  0
 18 19  2  0  0  0  0
 20  1  1  0  0  0  0
 21 20  2  0  0  0  0
 22 23  1  0  0  0  0
 23 24  2  0  0  0  0
 23 29  1  0  0  0  0
 24 20  1  0  0  0  0
 25 24  1  0  0  0  0
 26 25  2  0  0  0  0
 27 26  1  0  0  0  0
 27 22  2  0  0  0  0
 28 22  1  0  0  0  0
 30 26  1  0  0  0  0
M  END
>  <minimizedAffinity>
-5.80988836

$$$$

 OpenBabel03272501333D

 30 33  0  0  1  0  0  0  0  0999 V2000
   37.1640   26.4460   34.9910 C   0  0  2  0  0  0  0  0  0  0  0  0
   38.4080   27.0720   35.6190 C   0  0  0  0  0  0  0  0  0  0  0  0
   37.8610   25.6750   35.9210 C   0  0  2  0  0  0  0  0  0  0  0  0
   36.3540   27.1930   35.2800 H   0  0  0  0  0  0  0  0  0  0  0  0
   39.2550   27.2350   34.9740 H   0  0  0  0  0  0  0  0  0  0  0  0
   38.3410   27.7710   36.4630 H   0  0  0  0  0  0  0  0  0  0  0  0
   37.2860   25.5770   36.9040 H   0  0  0  0  0  0  0  0  0  0  0  0
   40.0730   24.9110   35.1110 C   0  0  0  0  0  3  0  0  0  0  0  0
   38.9910   24.7910   35.9740 C   0  0  0  0  0  0  0  0  0  0  0  0
   39.0490   23.7510   36.9140 C   0  0  0  0  0  0  0  0  0  0  0  0
   38.2670   23.5610   37.6320 H   0  0  0  0  0  0  0  0  0  0  0  0
   40.1200   22.8760   36.9980 C   0  0  0  0  0  0  0  0  0  0  0  0
   40.4080   21.8260   37.7880 N   0  0  0  0  0  0  0  0  0  0  0  0
   39.8030   21.4480   38.5650 H   0  0  0  0  0  0  0  0  0  0  0  0
   41.5990   21.3200   37.4390 C   0  0  0  0  0  0  0  0  0  0  0  0
   42.1340   20.4790   37.8620 H   0  0  0  0  0  0  0  0  0  0  0  0
   42.1070   22.0730   36.3770 C   0  0  0  0  0  3  0  0  0  0  0  0
   41.1430   23.0530   36.1220 C   0  0  0  0  0  0  0  0  0  0  0  0
   41.1420   24.0460   35.1850 C   0  0  0  0  0  3  0  0  0  0  0  0
   37.1920   26.4190   33.5180 C   0  0  0  0  0  0  0  0  0  0  0  0
   37.3890   25.2740   33.0130 O   0  0  0  0  0  0  0  0  0  0  0  0
   36.0330   29.7290   32.2670 C   0  0  0  0  0  0  0  0  0  0  0  0
   36.1810   28.6150   33.0700 C   0  0  0  0  0  0  0  0  0  0  0  0
   37.0170   27.5930   32.7210 C   0  0  0  0  0  0  0  0  0  0  0  0
   37.6770   27.7250   31.5760 N   0  0  0  0  0  0  0  0  0  0  0  0
   37.5370   28.8230   30.7770 C   0  0  0  0  0  0  0  0  0  0  0  0
   36.7280   29.8120   31.1140 N   0  0  0  0  0  0  0  0  0  0  0  0
   35.3640   30.5330   32.5580 H   0  0  0  0  0  0  0  0  0  0  0  0
   35.6230   28.5490   33.9970 H   0  0  0  0  0  0  0  0  0  0  0  0
   38.0740   28.9530   29.8250 H   0  0  0  0  0  0  0  0  0  0  0  0
  1  4  1  1  0  0  0
  1  2  1  0  0  0  0
  1  3  1  0  0  0  0
  2  3  1  0  0  0  0
  2  6  1  0  0  0  0
  3  9  1  0  0  0  0
  3  7  1  1  0  0  0
  5  2  1  0  0  0  0
  8 19  2  0  0  0  0
  8  9  1  0  0  0  0
  9 10  2  0  0  0  0
 10 12  1  0  0  0  0
 10 11  1  0  0  0  0
 12 13  1  0  0  0  0
 13 14  1  0  0  0  0
 15 13  1  0  0  0  0
 15 16  1  0  0  0  0
 17 15  2  0  0  0  0
 18 17  1  0  0  0  0
 18 12  2  0  0  0  0
 19 18  1  0  0  0  0
 20  1  1  0  0  0  0
 21 20  2  0  0  0  0
 22 28  1  0  0  0  0
 22 23  1  0  0  0  0
 23 29  1  0  0  0  0
 24 23  2  0  0  0  0
 24 20  1  0  0  0  0
 25 24  1  0  0  0  0
 26 27  1  0  0  0  0
 26 25  2  0  0  0  0
 27 22  2  0  0  0  0
 30 26  1  0  0  0  0
M  END
>  <minimizedAffinity>
-5.65167284

$$$$

 OpenBabel03272501333D

 30 33  0  0  1  0  0  0  0  0999 V2000
   37.8720   26.8800   34.6660 C   0  0  2  0  0  0  0  0  0  0  0  0
   38.3230   27.1560   36.1000 C   0  0  0  0  0  0  0  0  0  0  0  0
   37.7390   25.8390   35.5840 C   0  0  2  0  0  0  0  0  0  0  0  0
   37.0780   27.6820   34.5110 H   0  0  0  0  0  0  0  0  0  0  0  0
   39.3780   27.2960   36.2640 H   0  0  0  0  0  0  0  0  0  0  0  0
   37.6800   27.6810   36.8180 H   0  0  0  0  0  0  0  0  0  0  0  0
   36.6440   25.6510   35.8540 H   0  0  0  0  0  0  0  0  0  0  0  0
   38.2750   24.2670   37.4210 C   0  0  0  0  0  3  0  0  0  0  0  0
   38.5270   24.7860   36.1570 C   0  0  0  0  0  0  0  0  0  0  0  0
   39.6060   24.2280   35.4540 C   0  0  0  0  0  0  0  0  0  0  0  0
   39.8960   24.5530   34.4670 H   0  0  0  0  0  0  0  0  0  0  0  0
   40.3930   23.2120   35.9710 C   0  0  0  0  0  0  0  0  0  0  0  0
   41.4550   22.5270   35.5090 N   0  0  0  0  0  0  0  0  0  0  0  0
   41.9210   22.6590   34.5720 H   0  0  0  0  0  0  0  0  0  0  0  0
   41.8420   21.6340   36.4310 C   0  0  0  0  0  0  0  0  0  0  0  0
   42.6570   20.9210   36.3900 H   0  0  0  0  0  0  0  0  0  0  0  0
   40.9960   21.7430   37.5380 C   0  0  0  0  0  3  0  0  0  0  0  0
   40.0880   22.7540   37.2130 C   0  0  0  0  0  0  0  0  0  0  0  0
   39.0520   23.2570   37.9450 C   0  0  0  0  0  3  0  0  0  0  0  0
   38.9150   27.1340   33.6560 C   0  0  0  0  0  0  0  0  0  0  0  0
   40.1010   27.0880   34.0980 O   0  0  0  0  0  0  0  0  0  0  0  0
   37.1000   27.9580   30.5120 C   0  0  0  0  0  0  0  0  0  0  0  0
   37.3520   27.7010   31.8450 C   0  0  0  0  0  0  0  0  0  0  0  0
   38.6120   27.4160   32.2880 C   0  0  0  0  0  0  0  0  0  0  0  0
   39.5770   27.4000   31.3760 N   0  0  0  0  0  0  0  0  0  0  0  0
   39.3360   27.6540   30.0550 C   0  0  0  0  0  0  0  0  0  0  0  0
   38.1170   27.9290   29.6270 N   0  0  0  0  0  0  0  0  0  0  0  0
   36.0920   28.1830   30.1750 H   0  0  0  0  0  0  0  0  0  0  0  0
   36.5340   27.7250   32.5560 H   0  0  0  0  0  0  0  0  0  0  0  0
   40.1210   27.6450   29.2840 H   0  0  0  0  0  0  0  0  0  0  0  0
  1  4  1  6  0  0  0
  1  3  1  0  0  0  0
  1  2  1  0  0  0  0
  2  5  1  0  0  0  0
  2  6  1  0  0  0  0
  3  7  1  1  0  0  0
  3  2  1  0  0  0  0
  3  9  1  0  0  0  0
  8 19  1  0  0  0  0
  9  8  2  0  0  0  0
 10 12  2  0  0  0  0
 10  9  1  0  0  0  0
 11 10  1  0  0  0  0
 12 18  1  0  0  0  0
 13 12  1  0  0  0  0
 13 15  1  0  0  0  0
 14 13  1  0  0  0  0
 15 17  2  0  0  0  0
 16 15  1  0  0  0  0
 18 17  1  0  0  0  0
 18 19  2  0  0  0  0
 20 21  2  0  0  0  0
 20  1  1  0  0  0  0
 22 23  1  0  0  0  0
 23 24  2  0  0  0  0
 23 29  1  0  0  0  0
 24 20  1  0  0  0  0
 25 24  1  0  0  0  0
 26 25  2  0  0  0  0
 27 26  1  0  0  0  0
 27 22  2  0  0  0  0
 28 22  1  0  0  0  0
 30 26  1  0  0  0  0
M  END
>  <minimizedAffinity>
-5.35406637

$$$$

 OpenBabel03272501333D

 30 33  0  0  1  0  0  0  0  0999 V2000
   36.2980   28.7890   32.1650 C   0  0  2  0  0  0  0  0  0  0  0  0
   35.9710   27.3100   31.9660 C   0  0  0  0  0  0  0  0  0  0  0  0
   37.2620   27.8650   32.5710 C   0  0  2  0  0  0  0  0  0  0  0  0
   36.2270   29.1910   31.1020 H   0  0  0  0  0  0  0  0  0  0  0  0
   35.1800   26.8970   32.5680 H   0  0  0  0  0  0  0  0  0  0  0  0
   36.1070   26.8120   30.9970 H   0  0  0  0  0  0  0  0  0  0  0  0
   38.1670   27.8660   31.8740 H   0  0  0  0  0  0  0  0  0  0  0  0
   37.7730   27.5700   34.9760 C   0  0  0  0  0  3  0  0  0  0  0  0
   37.5720   27.0440   33.7060 C   0  0  0  0  0  0  0  0  0  0  0  0
   37.6890   25.6510   33.5780 C   0  0  0  0  0  0  0  0  0  0  0  0
   37.5570   25.1330   32.6410 H   0  0  0  0  0  0  0  0  0  0  0  0
   37.9890   24.8230   34.6470 C   0  0  0  0  0  0  0  0  0  0  0  0
   38.1520   23.4940   34.7810 N   0  0  0  0  0  0  0  0  0  0  0  0
   38.0710   22.7760   34.0120 H   0  0  0  0  0  0  0  0  0  0  0  0
   38.4380   23.2080   36.0600 C   0  0  0  0  0  0  0  0  0  0  0  0
   38.6290   22.2450   36.5180 H   0  0  0  0  0  0  0  0  0  0  0  0
   38.4620   24.4020   36.7860 C   0  0  0  0  0  3  0  0  0  0  0  0
   38.1730   25.4070   35.8590 C   0  0  0  0  0  0  0  0  0  0  0  0
   38.0720   26.7560   36.0460 C   0  0  0  0  0  3  0  0  0  0  0  0
   35.2880   29.5210   32.9500 C   0  0  0  0  0  0  0  0  0  0  0  0
   34.1070   29.0800   32.8340 O   0  0  0  0  0  0  0  0  0  0  0  0
   35.9770   31.6900   35.8960 C   0  0  0  0  0  0  0  0  0  0  0  0
   35.6660   30.5800   35.1370 C   0  0  0  0  0  0  0  0  0  0  0  0
   35.6150   30.6430   33.7730 C   0  0  0  0  0  0  0  0  0  0  0  0
   35.8780   31.8210   33.2190 N   0  0  0  0  0  0  0  0  0  0  0  0
   36.1860   32.9240   33.9630 C   0  0  0  0  0  0  0  0  0  0  0  0
   36.2350   32.8630   35.2820 N   0  0  0  0  0  0  0  0  0  0  0  0
   36.0130   31.6240   36.9800 H   0  0  0  0  0  0  0  0  0  0  0  0
   35.4590   29.6380   35.6310 H   0  0  0  0  0  0  0  0  0  0  0  0
   36.4070   33.9090   33.5240 H   0  0  0  0  0  0  0  0  0  0  0  0
  1  4  1  6  0  0  0
  1  3  1  0  0  0  0
  1 20  1  0  0  0  0
  2  1  1  0  0  0  0
  2  5  1  0  0  0  0
  2  3  1  0  0  0  0
  3  7  1  6  0  0  0
  3  9  1  0  0  0  0
  6  2  1  0  0  0  0
  8 19  1  0  0  0  0
  9  8  2  0  0  0  0
 10  9  1  0  0  0  0
 10 12  2  0  0  0  0
 11 10  1  0  0  0  0
 12 13  1  0  0  0  0
 12 18  1  0  0  0  0
 13 15  1  0  0  0  0
 14 13  1  0  0  0  0
 15 16  1  0  0  0  0
 15 17  2  0  0  0  0
 18 19  2  0  0  0  0
 18 17  1  0  0  0  0
 20 24  1  0  0  0  0
 21 20  2  0  0  0  0
 22 28  1  0  0  0  0
 23 29  1  0  0  0  0
 23 22  2  0  0  0  0
 24 23  1  0  0  0  0
 25 24  2  0  0  0  0
 25 26  1  0  0  0  0
 26 27  2  0  0  0  0
 27 22  1  0  0  0  0
 30 26  1  0  0  0  0
M  END
>  <minimizedAffinity>
-5.18593073

$$$$

 OpenBabel03272501333D

 30 33  0  0  1  0  0  0  0  0999 V2000
   38.8580   26.9380   31.5660 C   0  0  2  0  0  0  0  0  0  0  0  0
   40.0680   27.0930   32.4870 C   0  0  0  0  0  0  0  0  0  0  0  0
   38.6040   27.2650   32.8980 C   0  0  2  0  0  0  0  0  0  0  0  0
   39.0730   27.7140   30.7620 H   0  0  0  0  0  0  0  0  0  0  0  0
   40.6310   26.2030   32.7110 H   0  0  0  0  0  0  0  0  0  0  0  0
   40.6550   28.0200   32.5190 H   0  0  0  0  0  0  0  0  0  0  0  0
   38.2510   28.3470   33.0070 H   0  0  0  0  0  0  0  0  0  0  0  0
   38.4630   27.3140   35.3700 C   0  0  0  0  0  3  0  0  0  0  0  0
   38.4540   26.6160   34.1690 C   0  0  0  0  0  0  0  0  0  0  0  0
   38.2910   25.2250   34.2530 C   0  0  0  0  0  0  0  0  0  0  0  0
   38.2720   24.5810   33.3880 H   0  0  0  0  0  0  0  0  0  0  0  0
   38.1450   24.5590   35.4590 C   0  0  0  0  0  0  0  0  0  0  0  0
   37.9790   23.2680   35.7980 N   0  0  0  0  0  0  0  0  0  0  0  0
   37.9240   22.4510   35.1320 H   0  0  0  0  0  0  0  0  0  0  0  0
   37.8890   23.1660   37.1320 C   0  0  0  0  0  0  0  0  0  0  0  0
   37.7530   22.2810   37.7420 H   0  0  0  0  0  0  0  0  0  0  0  0
   38.0020   24.4460   37.6830 C   0  0  0  0  0  3  0  0  0  0  0  0
   38.1630   25.3060   36.5930 C   0  0  0  0  0  0  0  0  0  0  0  0
   38.3180   26.6620   36.5740 C   0  0  0  0  0  3  0  0  0  0  0  0
   38.7990   25.6370   30.8760 C   0  0  0  0  0  0  0  0  0  0  0  0
   39.8250   25.3550   30.1890 O   0  0  0  0  0  0  0  0  0  0  0  0
   35.3190   24.3360   31.1080 C   0  0  0  0  0  0  0  0  0  0  0  0
   36.3810   25.2120   31.0080 C   0  0  0  0  0  0  0  0  0  0  0  0
   37.6710   24.7640   30.9690 C   0  0  0  0  0  0  0  0  0  0  0  0
   37.8490   23.4490   31.0310 N   0  0  0  0  0  0  0  0  0  0  0  0
   36.8040   22.5760   31.1300 C   0  0  0  0  0  0  0  0  0  0  0  0
   35.5560   23.0090   31.1680 N   0  0  0  0  0  0  0  0  0  0  0  0
   34.2980   24.7080   31.1380 H   0  0  0  0  0  0  0  0  0  0  0  0
   36.1900   26.2780   30.9600 H   0  0  0  0  0  0  0  0  0  0  0  0
   36.9290   21.4840   31.1820 H   0  0  0  0  0  0  0  0  0  0  0  0
  1  4  1  6  0  0  0
  1  2  1  0  0  0  0
  1  3  1  0  0  0  0
  2  6  1  0  0  0  0
  2  5  1  0  0  0  0
  2  3  1  0  0  0  0
  3  7  1  1  0  0  0
  3  9  1  0  0  0  0
  8 19  1  0  0  0  0
  9 10  1  0  0  0  0
  9  8  2  0  0  0  0
 10 12  2  0  0  0  0
 11 10  1  0  0  0  0
 12 13  1  0  0  0  0
 12 18  1  0  0  0  0
 13 15  1  0  0  0  0
 14 13  1  0  0  0  0
 15 17  2  0  0  0  0
 15 16  1  0  0  0  0
 18 17  1  0  0  0  0
 19 18  2  0  0  0  0
 20 24  1  0  0  0  0
 20  1  1  0  0  0  0
 21 20  2  0  0  0  0
 22 28  1  0  0  0  0
 22 27  1  0  0  0  0
 23 22  2  0  0  0  0
 24 23  1  0  0  0  0
 24 25  2  0  0  0  0
 25 26  1  0  0  0  0
 26 27  2  0  0  0  0
 26 30  1  0  0  0  0
 29 23  1  0  0  0  0
M  END
>  <minimizedAffinity>
-5.18243837

$$$$

 OpenBabel03272501333D

 30 33  0  0  1  0  0  0  0  0999 V2000
   38.7690   26.7670   33.6060 C   0  0  2  0  0  0  0  0  0  0  0  0
   37.4400   27.1250   32.9410 C   0  0  0  0  0  0  0  0  0  0  0  0
   38.3510   25.9590   32.5480 C   0  0  2  0  0  0  0  0  0  0  0  0
   39.3690   27.7240   33.4630 H   0  0  0  0  0  0  0  0  0  0  0  0
   36.5460   26.9890   33.5260 H   0  0  0  0  0  0  0  0  0  0  0  0
   37.3670   27.9130   32.1810 H   0  0  0  0  0  0  0  0  0  0  0  0
   38.9840   26.1280   31.6120 H   0  0  0  0  0  0  0  0  0  0  0  0
   36.3580   24.9080   31.5210 C   0  0  0  0  0  3  0  0  0  0  0  0
   37.4970   24.8300   32.3120 C   0  0  0  0  0  0  0  0  0  0  0  0
   37.7810   23.5800   32.8830 C   0  0  0  0  0  0  0  0  0  0  0  0
   38.6360   23.4020   33.5160 H   0  0  0  0  0  0  0  0  0  0  0  0
   36.9820   22.4660   32.6820 C   0  0  0  0  0  0  0  0  0  0  0  0
   37.0360   21.1900   33.1050 N   0  0  0  0  0  0  0  0  0  0  0  0
   37.7770   20.7730   33.7300 H   0  0  0  0  0  0  0  0  0  0  0  0
   35.9930   20.5120   32.6070 C   0  0  0  0  0  0  0  0  0  0  0  0
   35.7270   19.4700   32.7440 H   0  0  0  0  0  0  0  0  0  0  0  0
   35.2280   21.3840   31.8280 C   0  0  0  0  0  3  0  0  0  0  0  0
   35.8840   22.6160   31.8960 C   0  0  0  0  0  0  0  0  0  0  0  0
   35.5570   23.8070   31.3150 C   0  0  0  0  0  3  0  0  0  0  0  0
   38.6680   26.5590   35.0620 C   0  0  0  0  0  0  0  0  0  0  0  0
   38.4300   27.6080   35.7310 O   0  0  0  0  0  0  0  0  0  0  0  0
   38.0780   23.4600   37.0380 C   0  0  0  0  0  0  0  0  0  0  0  0
   37.8770   24.6970   36.4590 C   0  0  0  0  0  0  0  0  0  0  0  0
   38.8310   25.2770   35.6720 C   0  0  0  0  0  0  0  0  0  0  0  0
   39.9550   24.5930   35.4930 N   0  0  0  0  0  0  0  0  0  0  0  0
   40.1610   23.3680   36.0620 C   0  0  0  0  0  0  0  0  0  0  0  0
   39.2390   22.8070   36.8240 N   0  0  0  0  0  0  0  0  0  0  0  0
   37.3100   23.0120   37.6630 H   0  0  0  0  0  0  0  0  0  0  0  0
   36.9440   25.2200   36.6320 H   0  0  0  0  0  0  0  0  0  0  0  0
   41.0840   22.7840   35.9260 H   0  0  0  0  0  0  0  0  0  0  0  0
  1  4  1  6  0  0  0
  1 20  1  0  0  0  0
  2  5  1  0  0  0  0
  2  1  1  0  0  0  0
  3  7  1  6  0  0  0
  3  2  1  0  0  0  0
  3  1  1  0  0  0  0
  6  2  1  0  0  0  0
  8  9  1  0  0  0  0
  9  3  1  0  0  0  0
  9 10  2  0  0  0  0
 10 11  1  0  0  0  0
 12 10  1  0  0  0  0
 12 13  1  0  0  0  0
 13 14  1  0  0  0  0
 15 16  1  0  0  0  0
 15 13  1  0  0  0  0
 17 18  1  0  0  0  0
 17 15  2  0  0  0  0
 18 12  2  0  0  0  0
 19  8  2  0  0  0  0
 19 18  1  0  0  0  0
 20 24  1  0  0  0  0
 20 21  2  0  0  0  0
 22 28  1  0  0  0  0
 23 29  1  0  0  0  0
 23 22  2  0  0  0  0
 24 23  1  0  0  0  0
 25 24  2  0  0  0  0
 25 26  1  0  0  0  0
 26 27  2  0  0  0  0
 27 22  1  0  0  0  0
 30 26  1  0  0  0  0
M  END
>  <minimizedAffinity>
-5.16534805

$$$$

 OpenBabel03272501333D

 30 33  0  0  1  0  0  0  0  0999 V2000
   34.6250   32.0120   37.0280 C   0  0  2  0  0  0  0  0  0  0  0  0
   35.2140   33.0580   36.0820 C   0  0  0  0  0  0  0  0  0  0  0  0
   35.6080   31.5800   36.1380 C   0  0  2  0  0  0  0  0  0  0  0  0
   34.8590   32.4600   38.0480 H   0  0  0  0  0  0  0  0  0  0  0  0
   34.5630   33.4550   35.3220 H   0  0  0  0  0  0  0  0  0  0  0  0
   36.0080   33.7450   36.4010 H   0  0  0  0  0  0  0  0  0  0  0  0
   36.5930   31.3560   36.6720 H   0  0  0  0  0  0  0  0  0  0  0  0
   35.7970   32.0130   33.7070 C   0  0  0  0  0  3  0  0  0  0  0  0
   35.7250   31.1330   34.7790 C   0  0  0  0  0  0  0  0  0  0  0  0
   35.7710   29.7650   34.4720 C   0  0  0  0  0  0  0  0  0  0  0  0
   35.7210   28.9910   35.2210 H   0  0  0  0  0  0  0  0  0  0  0  0
   35.8820   29.2910   33.1740 C   0  0  0  0  0  0  0  0  0  0  0  0
   35.9440   28.0620   32.6320 N   0  0  0  0  0  0  0  0  0  0  0  0
   35.9170   27.1470   33.1570 H   0  0  0  0  0  0  0  0  0  0  0  0
   36.0490   28.1690   31.2990 C   0  0  0  0  0  0  0  0  0  0  0  0
   36.1200   27.3850   30.5550 H   0  0  0  0  0  0  0  0  0  0  0  0
   36.0540   29.5250   30.9620 C   0  0  0  0  0  3  0  0  0  0  0  0
   35.9470   30.2100   32.1760 C   0  0  0  0  0  0  0  0  0  0  0  0
   35.9070   31.5530   32.4130 C   0  0  0  0  0  3  0  0  0  0  0  0
   33.1570   31.9040   36.9530 C   0  0  0  0  0  0  0  0  0  0  0  0
   32.5330   32.9680   37.2410 O   0  0  0  0  0  0  0  0  0  0  0  0
   31.5490   29.1800   34.9900 C   0  0  0  0  0  0  0  0  0  0  0  0
   32.2040   30.3560   35.2980 C   0  0  0  0  0  0  0  0  0  0  0  0
   32.4890   30.6930   36.5910 C   0  0  0  0  0  0  0  0  0  0  0  0
   32.1070   29.8370   37.5310 N   0  0  0  0  0  0  0  0  0  0  0  0
   31.4580   28.6720   37.2340 C   0  0  0  0  0  0  0  0  0  0  0  0
   31.1820   28.3450   35.9840 N   0  0  0  0  0  0  0  0  0  0  0  0
   31.3280   28.9260   33.9570 H   0  0  0  0  0  0  0  0  0  0  0  0
   32.4990   31.0260   34.4990 H   0  0  0  0  0  0  0  0  0  0  0  0
   31.1330   27.9490   37.9980 H   0  0  0  0  0  0  0  0  0  0  0  0
  1  4  1  1  0  0  0
  2  3  1  0  0  0  0
  2  6  1  0  0  0  0
  2  1  1  0  0  0  0
  3  7  1  1  0  0  0
  3  1  1  0  0  0  0
  5  2  1  0  0  0  0
  8  9  1  0  0  0  0
  9  3  1  0  0  0  0
 10  9  2  0  0  0  0
 10 11  1  0  0  0  0
 12 10  1  0  0  0  0
 13 14  1  0  0  0  0
 13 12  1  0  0  0  0
 15 13  1  0  0  0  0
 16 15  1  0  0  0  0
 17 15  2  0  0  0  0
 17 18  1  0  0  0  0
 18 19  1  0  0  0  0
 18 12  2  0  0  0  0
 19  8  2  0  0  0  0
 20  1  1  0  0  0  0
 20 21  2  0  0  0  0
 22 23  2  0  0  0  0
 22 27  1  0  0  0  0
 23 24  1  0  0  0  0
 24 20  1  0  0  0  0
 24 25  2  0  0  0  0
 26 25  1  0  0  0  0
 26 30  1  0  0  0  0
 27 26  2  0  0  0  0
 28 22  1  0  0  0  0
 29 23  1  0  0  0  0
M  END
>  <minimizedAffinity>
-5.15101814

$$$$

 OpenBabel03272501333D

 30 33  0  0  1  0  0  0  0  0999 V2000
   39.2920   25.8550   33.1780 C   0  0  2  0  0  0  0  0  0  0  0  0
   39.6590   27.1180   32.4000 C   0  0  0  0  0  0  0  0  0  0  0  0
   38.2700   26.4790   32.4630 C   0  0  2  0  0  0  0  0  0  0  0  0
   39.9940   25.0850   32.7200 H   0  0  0  0  0  0  0  0  0  0  0  0
   39.9220   27.9900   32.9750 H   0  0  0  0  0  0  0  0  0  0  0  0
   40.1290   27.0710   31.4090 H   0  0  0  0  0  0  0  0  0  0  0  0
   37.9680   25.8740   31.5420 H   0  0  0  0  0  0  0  0  0  0  0  0
   36.7910   27.8970   33.8530 C   0  0  0  0  0  3  0  0  0  0  0  0
   37.3290   27.5520   32.6200 C   0  0  0  0  0  0  0  0  0  0  0  0
   36.9060   28.3070   31.5170 C   0  0  0  0  0  0  0  0  0  0  0  0
   37.2540   28.1280   30.5110 H   0  0  0  0  0  0  0  0  0  0  0  0
   35.9990   29.3490   31.6250 C   0  0  0  0  0  0  0  0  0  0  0  0
   35.4480   30.2030   30.7430 N   0  0  0  0  0  0  0  0  0  0  0  0
   35.6330   30.2300   29.7040 H   0  0  0  0  0  0  0  0  0  0  0  0
   34.6150   31.0320   31.3880 C   0  0  0  0  0  0  0  0  0  0  0  0
   34.0100   31.8370   30.9890 H   0  0  0  0  0  0  0  0  0  0  0  0
   34.6250   30.7030   32.7460 C   0  0  0  0  0  3  0  0  0  0  0  0
   35.5140   29.6300   32.8620 C   0  0  0  0  0  0  0  0  0  0  0  0
   35.8880   28.9310   33.9720 C   0  0  0  0  0  3  0  0  0  0  0  0
   39.6310   25.9200   34.6110 C   0  0  0  0  0  0  0  0  0  0  0  0
   40.3720   26.8940   34.9350 O   0  0  0  0  0  0  0  0  0  0  0  0
   37.6570   24.2030   37.2590 C   0  0  0  0  0  0  0  0  0  0  0  0
   38.0680   25.1560   36.3480 C   0  0  0  0  0  0  0  0  0  0  0  0
   39.1650   24.9570   35.5590 C   0  0  0  0  0  0  0  0  0  0  0  0
   39.8110   23.8070   35.7110 N   0  0  0  0  0  0  0  0  0  0  0  0
   39.4100   22.8590   36.6090 C   0  0  0  0  0  0  0  0  0  0  0  0
   38.3500   23.0510   37.3730 N   0  0  0  0  0  0  0  0  0  0  0  0
   36.7820   24.3760   37.8800 H   0  0  0  0  0  0  0  0  0  0  0  0
   37.5110   26.0800   36.2560 H   0  0  0  0  0  0  0  0  0  0  0  0
   39.9310   21.9000   36.7510 H   0  0  0  0  0  0  0  0  0  0  0  0
  1  4  1  6  0  0  0
  1 20  1  0  0  0  0
  2  3  1  0  0  0  0
  2  5  1  0  0  0  0
  2  1  1  0  0  0  0
  3  7  1  6  0  0  0
  3  9  1  0  0  0  0
  3  1  1  0  0  0  0
  6  2  1  0  0  0  0
  8 19  1  0  0  0  0
  9  8  2  0  0  0  0
 10 12  2  0  0  0  0
 10  9  1  0  0  0  0
 11 10  1  0  0  0  0
 12 18  1  0  0  0  0
 13 15  1  0  0  0  0
 13 12  1  0  0  0  0
 14 13  1  0  0  0  0
 15 17  2  0  0  0  0
 16 15  1  0  0  0  0
 17 18  1  0  0  0  0
 18 19  2  0  0  0  0
 20 21  2  0  0  0  0
 20 24  1  0  0  0  0
 22 27  1  0  0  0  0
 22 28  1  0  0  0  0
 23 22  2  0  0  0  0
 24 25  2  0  0  0  0
 24 23  1  0  0  0  0
 25 26  1  0  0  0  0
 26 30  1  0  0  0  0
 26 27  2  0  0  0  0
 29 23  1  0  0  0  0
M  END
>  <minimizedAffinity>
-5.12352753

$$$$
