
 OpenBabel03272506543D

 23 25  0  0  0  0  0  0  0  0999 V2000
   35.7940   29.2570   49.5850 C   0  0  0  0  0  0  0  0  0  0  0  0
   35.8840   30.0850   48.4630 C   0  0  0  0  0  0  0  0  0  0  0  0
   35.0820   29.8930   47.3530 C   0  0  0  0  0  0  0  0  0  0  0  0
   35.1730   30.5500   46.4950 H   0  0  0  0  0  0  0  0  0  0  0  0
   34.1610   28.8660   47.3240 C   0  0  0  0  0  0  0  0  0  0  0  0
   33.2790   28.4770   46.3740 N   0  0  0  0  0  0  0  0  0  0  0  0
   33.1470   28.9330   45.4380 H   0  0  0  0  0  0  0  0  0  0  0  0
   32.6000   27.4070   46.8330 C   0  0  0  0  0  0  0  0  0  0  0  0
   31.8160   26.8730   46.2850 H   0  0  0  0  0  0  0  0  0  0  0  0
   33.0620   27.1030   48.1160 C   0  0  0  0  0  0  0  0  0  0  0  0
   34.0350   28.0260   48.3990 C   0  0  0  0  0  0  0  0  0  0  0  0
   34.8480   28.2440   49.4910 C   0  0  0  0  0  0  0  0  0  0  0  0
   37.7900   33.0060   49.6320 C   0  0  0  0  0  0  0  0  0  0  0  0
   38.7040   33.2390   48.5900 C   0  0  0  0  0  0  0  0  0  0  0  0
   38.6470   32.3730   47.4890 C   0  0  0  0  0  0  0  0  0  0  0  0
   37.7350   31.3770   47.4820 N   0  0  0  0  0  0  0  0  0  0  0  0
   36.8710   31.1820   48.5010 C   0  0  0  0  0  0  0  0  0  0  0  0
   36.8860   31.9890   49.5850 N   0  0  0  0  0  0  0  0  0  0  0  0
   37.8450   33.6850   50.4790 H   0  0  0  0  0  0  0  0  0  0  0  0
   39.3410   32.5360   46.6800 H   0  0  0  0  0  0  0  0  0  0  0  0
   39.6210   34.3130   48.6980 N   0  0  0  0  0  0  0  0  0  0  0  0
   39.2690   35.1870   49.1850 H   0  0  0  0  0  0  0  0  0  0  0  0
   40.5990   34.2900   48.3320 H   0  0  0  0  0  0  0  0  0  0  0  0
  2 17  1  0  0  0  0
  2  1  2  0  0  0  0
  3  2  1  0  0  0  0
  4  3  1  0  0  0  0
  5  3  2  0  0  0  0
  5 11  1  0  0  0  0
  6  8  1  0  0  0  0
  6  5  1  0  0  0  0
  7  6  1  0  0  0  0
  8 10  2  0  0  0  0
  9  8  1  0  0  0  0
 10 11  1  0  0  0  0
 11 12  2  0  0  0  0
 12  1  1  0  0  0  0
 13 19  1  0  0  0  0
 14 21  1  0  0  0  0
 14 13  2  0  0  0  0
 15 14  1  0  0  0  0
 16 15  2  0  0  0  0
 16 17  1  0  0  0  0
 17 18  2  0  0  0  0
 18 13  1  0  0  0  0
 20 15  1  0  0  0  0
 21 22  1  0  0  0  0
 23 21  1  0  0  0  0
M  END
>  <minimizedAffinity>
-5.848207

>  <minimizedRMSD>
3.87476206

$$$$
