
 OpenBabel03272507233D

 33 36  0  0  1  0  0  0  0  0999 V2000
   36.9710   31.1300   48.8800 C   0  0  0  0  0  0  0  0  0  0  0  0
   36.7550   30.7400   47.5500 C   0  0  0  0  0  0  0  0  0  0  0  0
   35.4950   30.2230   47.2070 C   0  0  0  0  0  0  0  0  0  0  0  0
   34.5800   30.1390   48.1880 N   0  0  0  0  0  0  0  0  0  0  0  0
   34.7850   30.5130   49.4680 C   0  0  0  0  0  0  0  0  0  0  0  0
   36.0000   31.0130   49.8050 N   0  0  0  0  0  0  0  0  0  0  0  0
   35.2020   29.8020   45.9000 N   0  0  0  0  0  0  0  0  0  0  0  0
   35.8020   30.3710   44.6950 C   0  0  0  0  0  0  0  0  0  0  0  0
   35.0430   29.8060   43.5320 C   0  0  0  0  0  0  0  0  0  0  0  0
   33.7140   29.4370   44.1910 C   0  0  0  0  0  0  0  0  0  0  0  0
   34.3270   28.7980   45.4590 C   0  0  2  0  0  0  0  0  0  0  0  0
   37.9390   31.5200   49.1160 H   0  0  0  0  0  0  0  0  0  0  0  0
   37.5310   30.8340   46.8130 H   0  0  0  0  0  0  0  0  0  0  0  0
   33.9430   30.3800   50.1370 H   0  0  0  0  0  0  0  0  0  0  0  0
   35.8130   31.4680   44.7170 H   0  0  0  0  0  0  0  0  0  0  0  0
   36.8410   29.9470   44.6490 H   0  0  0  0  0  0  0  0  0  0  0  0
   35.5170   28.9540   43.0370 H   0  0  0  0  0  0  0  0  0  0  0  0
   34.8430   30.6490   42.8170 H   0  0  0  0  0  0  0  0  0  0  0  0
   33.1580   28.6940   43.6110 H   0  0  0  0  0  0  0  0  0  0  0  0
   33.1850   30.3640   44.4170 H   0  0  0  0  0  0  0  0  0  0  0  0
   34.8840   27.8980   45.0350 H   0  0  0  0  0  0  0  0  0  0  0  0
   33.4640   27.2900   47.3090 C   0  0  0  0  0  0  0  0  0  0  0  0
   33.3360   28.2990   46.3890 C   0  0  0  0  0  0  0  0  0  0  0  0
   32.0950   28.9310   46.3690 C   0  0  0  0  0  0  0  0  0  0  0  0
   31.8830   29.7370   45.6850 H   0  0  0  0  0  0  0  0  0  0  0  0
   31.0530   28.5770   47.2140 C   0  0  0  0  0  0  0  0  0  0  0  0
   29.7950   29.0490   47.3580 N   0  0  0  0  0  0  0  0  0  0  0  0
   29.3650   29.8260   46.8090 H   0  0  0  0  0  0  0  0  0  0  0  0
   29.2000   28.3300   48.3450 C   0  0  0  0  0  0  0  0  0  0  0  0
   28.1620   28.5290   48.6490 H   0  0  0  0  0  0  0  0  0  0  0  0
   30.0680   27.3940   48.8390 C   0  0  0  0  0  0  0  0  0  0  0  0
   31.2420   27.5410   48.1330 C   0  0  0  0  0  0  0  0  0  0  0  0
   32.4640   26.8970   48.1730 C   0  0  0  0  0  0  0  0  0  0  0  0
  1 12  1  0  0  0  0
  1  6  1  0  0  0  0
  2  1  2  0  0  0  0
  3  2  1  0  0  0  0
  3  4  2  0  0  0  0
  4  5  1  0  0  0  0
  5  6  2  0  0  0  0
  5 14  1  0  0  0  0
  7  3  1  0  0  0  0
  8 15  1  0  0  0  0
  8  7  1  0  0  0  0
  9 10  1  0  0  0  0
  9  8  1  0  0  0  0
 10 20  1  0  0  0  0
 10 11  1  0  0  0  0
 11 21  1  6  0  0  0
 11  7  1  0  0  0  0
 11 23  1  0  0  0  0
 13  2  1  0  0  0  0
 16  8  1  0  0  0  0
 17  9  1  0  0  0  0
 18  9  1  0  0  0  0
 19 10  1  0  0  0  0
 22 33  1  0  0  0  0
 23 22  2  0  0  0  0
 24 23  1  0  0  0  0
 24 26  2  0  0  0  0
 25 24  1  0  0  0  0
 26 27  1  0  0  0  0
 26 32  1  0  0  0  0
 27 29  1  0  0  0  0
 28 27  1  0  0  0  0
 29 30  1  0  0  0  0
 29 31  2  0  0  0  0
 32 33  2  0  0  0  0
 32 31  1  0  0  0  0
M  END
>  <minimizedAffinity>
-5.05824804

>  <minimizedRMSD>
4.40965366

$$$$
