
 OpenBabel03272507233D

 33 36  0  0  1  0  0  0  0  0999 V2000
   36.9920   29.6250   50.7250 C   0  0  0  0  0  0  0  0  0  0  0  0
   37.2410   29.8180   49.3580 C   0  0  0  0  0  0  0  0  0  0  0  0
   36.1410   29.9200   48.4910 C   0  0  0  0  0  0  0  0  0  0  0  0
   34.9180   29.8260   49.0400 N   0  0  0  0  0  0  0  0  0  0  0  0
   34.6750   29.6400   50.3540 C   0  0  0  0  0  0  0  0  0  0  0  0
   35.7340   29.5400   51.1960 N   0  0  0  0  0  0  0  0  0  0  0  0
   36.3050   30.1040   47.1090 N   0  0  0  0  0  0  0  0  0  0  0  0
   37.4310   30.8090   46.4980 C   0  0  0  0  0  0  0  0  0  0  0  0
   37.0920   30.9790   45.0470 C   0  0  0  0  0  0  0  0  0  0  0  0
   35.5670   30.8890   45.0820 C   0  0  0  0  0  0  0  0  0  0  0  0
   35.4910   29.6820   46.0470 C   0  0  2  0  0  0  0  0  0  0  0  0
   37.8470   29.5500   51.3630 H   0  0  0  0  0  0  0  0  0  0  0  0
   38.2460   29.8860   48.9830 H   0  0  0  0  0  0  0  0  0  0  0  0
   33.6300   29.5840   50.6360 H   0  0  0  0  0  0  0  0  0  0  0  0
   37.6530   31.7540   47.0080 H   0  0  0  0  0  0  0  0  0  0  0  0
   38.2960   30.0950   46.5540 H   0  0  0  0  0  0  0  0  0  0  0  0
   37.5410   30.2420   44.3760 H   0  0  0  0  0  0  0  0  0  0  0  0
   37.3620   32.0300   44.7580 H   0  0  0  0  0  0  0  0  0  0  0  0
   35.1460   30.6320   44.1050 H   0  0  0  0  0  0  0  0  0  0  0  0
   35.1890   31.8030   45.5430 H   0  0  0  0  0  0  0  0  0  0  0  0
   35.9770   28.8510   45.4380 H   0  0  0  0  0  0  0  0  0  0  0  0
   32.9740   29.9790   46.1920 C   0  0  0  0  0  3  0  0  0  0  0  0
   34.1370   29.2690   46.3480 C   0  0  0  0  0  0  0  0  0  0  0  0
   33.9800   27.9760   46.8430 C   0  0  0  0  0  0  0  0  0  0  0  0
   34.8260   27.3280   47.0060 H   0  0  0  0  0  0  0  0  0  0  0  0
   32.7430   27.4340   47.1580 C   0  0  0  0  0  0  0  0  0  0  0  0
   32.3730   26.2260   47.6400 N   0  0  0  0  0  0  0  0  0  0  0  0
   33.0160   25.4360   47.8750 H   0  0  0  0  0  0  0  0  0  0  0  0
   31.0210   26.2320   47.7620 C   0  0  0  0  0  0  0  0  0  0  0  0
   30.4770   25.3520   48.1390 H   0  0  0  0  0  0  0  0  0  0  0  0
   30.5140   27.4400   47.3610 C   0  0  0  0  0  3  0  0  0  0  0  0
   31.5920   28.2050   46.9760 C   0  0  0  0  0  0  0  0  0  0  0  0
   31.7200   29.4910   46.4870 C   0  0  0  0  0  3  0  0  0  0  0  0
  1  6  1  0  0  0  0
  1 12  1  0  0  0  0
  2  1  2  0  0  0  0
  3  4  2  0  0  0  0
  3  2  1  0  0  0  0
  4  5  1  0  0  0  0
  5 14  1  0  0  0  0
  5  6  2  0  0  0  0
  7  3  1  0  0  0  0
  8 16  1  0  0  0  0
  8 15  1  0  0  0  0
  8  7  1  0  0  0  0
  9 10  1  0  0  0  0
  9  8  1  0  0  0  0
 10 20  1  0  0  0  0
 10 11  1  0  0  0  0
 11 21  1  6  0  0  0
 11 23  1  0  0  0  0
 11  7  1  0  0  0  0
 13  2  1  0  0  0  0
 17  9  1  0  0  0  0
 18  9  1  0  0  0  0
 19 10  1  0  0  0  0
 22 23  2  0  0  0  0
 22 33  1  0  0  0  0
 23 24  1  0  0  0  0
 24 25  1  0  0  0  0
 24 26  2  0  0  0  0
 26 27  1  0  0  0  0
 27 29  1  0  0  0  0
 27 28  1  0  0  0  0
 29 30  1  0  0  0  0
 31 29  2  0  0  0  0
 32 26  1  0  0  0  0
 32 31  1  0  0  0  0
 33 32  2  0  0  0  0
M  END
>  <minimizedAffinity>
-4.09555101

>  <minimizedRMSD>
3.23829627

$$$$
