
 OpenBabel03272510133D

 44 48  0  0  0  0  0  0  0  0999 V2000
   37.8950   31.4670   48.9720 C   0  0  0  0  0  0  0  0  0  0  0  0
   38.2410   32.7070   49.4640 C   0  0  0  0  0  0  0  0  0  0  0  0
   39.0020   33.3440   48.4880 C   0  0  0  0  0  0  0  0  0  0  0  0
   39.0980   32.5080   47.4590 N   0  0  0  0  0  0  0  0  0  0  0  0
   38.4540   31.4360   47.7620 N   0  0  0  0  0  0  0  0  0  0  0  0
   38.0650   33.2590   50.3790 H   0  0  0  0  0  0  0  0  0  0  0  0
   39.4650   34.3260   48.4770 H   0  0  0  0  0  0  0  0  0  0  0  0
   39.8060   32.7150   46.2260 C   0  0  0  0  0  0  0  0  0  0  0  0
   40.5900   33.4980   46.4470 H   0  0  0  0  0  0  0  0  0  0  0  0
   39.1810   33.1730   45.4420 H   0  0  0  0  0  0  0  0  0  0  0  0
   40.4870   31.4630   45.8050 C   0  0  0  0  0  0  0  0  0  0  0  0
   40.5010   30.7010   46.6520 H   0  0  0  0  0  0  0  0  0  0  0  0
   41.5700   31.6440   45.5840 H   0  0  0  0  0  0  0  0  0  0  0  0
   38.9930   29.7510   44.5250 C   0  0  0  0  0  3  0  0  0  0  0  0
   39.9020   30.7670   44.6660 C   0  0  0  0  0  0  0  0  0  0  0  0
   40.3620   31.2980   43.4520 C   0  0  0  0  0  0  0  0  0  0  0  0
   41.0940   32.1170   43.3480 H   0  0  0  0  0  0  0  0  0  0  0  0
   39.9440   30.8470   42.2090 C   0  0  0  0  0  0  0  0  0  0  0  0
   40.1980   31.1480   40.9360 N   0  0  0  0  0  0  0  0  0  0  0  0
   40.8710   31.9050   40.6250 H   0  0  0  0  0  0  0  0  0  0  0  0
   39.4990   30.3800   40.1010 C   0  0  0  0  0  0  0  0  0  0  0  0
   39.5440   30.4440   39.0120 H   0  0  0  0  0  0  0  0  0  0  0  0
   38.7270   29.5060   40.8380 C   0  0  0  0  0  3  0  0  0  0  0  0
   39.0240   29.8200   42.1470 C   0  0  0  0  0  0  0  0  0  0  0  0
   38.5530   29.2760   43.3110 C   0  0  0  0  0  3  0  0  0  0  0  0
   37.1350   30.6980   49.8260 O   0  0  0  0  0  0  0  0  0  0  0  0
   33.7520   28.7000   48.3210 C   0  0  0  0  0  0  0  0  0  0  0  0
   34.5100   28.1550   49.3150 C   0  0  0  0  0  0  0  0  0  0  0  0
   35.6260   28.7440   49.8580 C   0  0  0  0  0  0  0  0  0  0  0  0
   36.0470   29.9620   49.4030 C   0  0  0  0  0  0  0  0  0  0  0  0
   35.2800   30.5350   48.3840 C   0  0  0  0  0  0  0  0  0  0  0  0
   34.1860   29.9210   47.8770 N   0  0  0  0  0  0  0  0  0  0  0  0
   34.2320   27.1920   49.7210 H   0  0  0  0  0  0  0  0  0  0  0  0
   36.2210   28.3060   50.6460 H   0  0  0  0  0  0  0  0  0  0  0  0
   35.4970   31.4890   47.9340 H   0  0  0  0  0  0  0  0  0  0  0  0
   31.9320   27.0010   48.3200 C   0  0  0  0  0  0  0  0  0  0  0  0
   32.5920   28.0970   47.7430 C   0  0  0  0  0  0  0  0  0  0  0  0
   32.0740   28.5860   46.5670 C   0  0  0  0  0  0  0  0  0  0  0  0
   30.9670   28.0040   46.0150 N   0  0  0  0  0  0  0  0  0  0  0  0
   30.3660   26.9420   46.6170 C   0  0  0  0  0  0  0  0  0  0  0  0
   30.8420   26.4220   47.7840 N   0  0  0  0  0  0  0  0  0  0  0  0
   32.3020   26.5810   49.2460 H   0  0  0  0  0  0  0  0  0  0  0  0
   32.4860   29.4240   46.0210 H   0  0  0  0  0  0  0  0  0  0  0  0
   29.4840   26.4740   46.1820 H   0  0  0  0  0  0  0  0  0  0  0  0
  1  2  1  0  0  0  0
  1 26  1  0  0  0  0
  2  6  1  0  0  0  0
  3  2  2  0  0  0  0
  4  5  1  0  0  0  0
  4  3  1  0  0  0  0
  5  1  2  0  0  0  0
  7  3  1  0  0  0  0
  8  9  1  0  0  0  0
  8  4  1  0  0  0  0
 10  8  1  0  0  0  0
 11  8  1  0  0  0  0
 11 12  1  0  0  0  0
 13 11  1  0  0  0  0
 14 15  1  0  0  0  0
 15 11  1  0  0  0  0
 16 15  2  0  0  0  0
 17 16  1  0  0  0  0
 18 16  1  0  0  0  0
 19 18  1  0  0  0  0
 20 19  1  0  0  0  0
 21 23  2  0  0  0  0
 21 19  1  0  0  0  0
 22 21  1  0  0  0  0
 23 24  1  0  0  0  0
 24 18  2  0  0  0  0
 24 25  1  0  0  0  0
 25 14  2  0  0  0  0
 27 28  1  0  0  0  0
 28 33  1  0  0  0  0
 28 29  2  0  0  0  0
 29 34  1  0  0  0  0
 30 26  1  0  0  0  0
 30 29  1  0  0  0  0
 31 30  2  0  0  0  0
 32 27  2  0  0  0  0
 32 31  1  0  0  0  0
 35 31  1  0  0  0  0
 36 42  1  0  0  0  0
 37 36  2  0  0  0  0
 37 27  1  0  0  0  0
 38 37  1  0  0  0  0
 39 38  2  0  0  0  0
 39 40  1  0  0  0  0
 40 41  2  0  0  0  0
 41 36  1  0  0  0  0
 43 38  1  0  0  0  0
 44 40  1  0  0  0  0
M  END
>  <minimizedAffinity>
-6.52127409

>  <minimizedRMSD>
1.18442833

$$$$
