
 OpenBabel03272509203D

 49 54  0  0  0  0  0  0  0  0999 V2000
   40.2520   31.2000   44.2560 C   0  0  0  0  0  0  0  0  0  0  0  0
   39.6000   31.8650   45.2690 C   0  0  0  0  0  0  0  0  0  0  0  0
   38.3980   32.5120   44.9570 C   0  0  0  0  0  0  0  0  0  0  0  0
   37.8690   32.4860   43.6550 C   0  0  0  0  0  0  0  0  0  0  0  0
   36.7780   32.9940   43.0740 N   0  0  0  0  0  0  0  0  0  0  0  0
   36.7580   32.6600   41.7730 C   0  0  0  0  0  0  0  0  0  0  0  0
   37.8670   31.9260   41.5390 N   0  0  0  0  0  0  0  0  0  0  0  0
   38.5690   31.8060   42.6940 C   0  0  0  0  0  0  0  0  0  0  0  0
   39.7570   31.1600   42.9770 C   0  0  0  0  0  0  0  0  0  0  0  0
   41.1610   30.7310   44.5690 H   0  0  0  0  0  0  0  0  0  0  0  0
   37.7670   33.0810   45.6560 H   0  0  0  0  0  0  0  0  0  0  0  0
   36.0390   33.5660   43.5390 H   0  0  0  0  0  0  0  0  0  0  0  0
   36.0600   32.8720   40.9790 H   0  0  0  0  0  0  0  0  0  0  0  0
   40.9460   29.1510   42.1300 C   0  0  0  0  0  0  0  0  0  0  0  0
   40.4880   30.4400   41.9400 C   0  0  0  0  0  0  0  0  0  0  0  0
   40.6760   31.1510   40.7800 C   0  0  0  0  0  0  0  0  0  0  0  0
   40.3250   32.1600   40.6140 H   0  0  0  0  0  0  0  0  0  0  0  0
   41.3630   30.5420   39.7390 C   0  0  0  0  0  0  0  0  0  0  0  0
   41.7230   30.9190   38.4990 N   0  0  0  0  0  0  0  0  0  0  0  0
   41.4890   31.8600   38.1210 H   0  0  0  0  0  0  0  0  0  0  0  0
   42.3930   29.9450   37.8610 C   0  0  0  0  0  0  0  0  0  0  0  0
   42.7850   30.0270   36.8400 H   0  0  0  0  0  0  0  0  0  0  0  0
   42.4740   28.8750   38.7360 C   0  0  0  0  0  0  0  0  0  0  0  0
   41.8320   29.2430   39.9110 C   0  0  0  0  0  0  0  0  0  0  0  0
   41.6230   28.5610   41.0920 C   0  0  0  0  0  0  0  0  0  0  0  0
   39.9200   32.0180   46.5750 O   0  0  0  0  0  0  0  0  0  0  0  0
   38.0930   31.4110   48.0480 C   0  0  0  0  0  0  0  0  0  0  0  0
   37.2070   31.5990   49.0930 C   0  0  0  0  0  0  0  0  0  0  0  0
   37.3730   32.8260   49.7630 C   0  0  0  0  0  0  0  0  0  0  0  0
   38.3560   33.7500   49.3820 C   0  0  0  0  0  0  0  0  0  0  0  0
   39.2050   33.4460   48.2950 C   0  0  0  0  0  0  0  0  0  0  0  0
   39.0570   32.2430   47.6220 C   0  0  0  0  0  0  0  0  0  0  0  0
   36.7100   33.0340   50.5910 H   0  0  0  0  0  0  0  0  0  0  0  0
   38.4580   34.6840   49.9180 H   0  0  0  0  0  0  0  0  0  0  0  0
   39.9440   34.1930   48.0450 H   0  0  0  0  0  0  0  0  0  0  0  0
   35.0900   30.4450   48.6810 C   0  0  0  0  0  0  0  0  0  0  0  0
   36.2050   30.6580   49.4820 C   0  0  0  0  0  0  0  0  0  0  0  0
   36.3040   29.9180   50.6750 C   0  0  0  0  0  0  0  0  0  0  0  0
   35.3090   29.0480   50.9640 N   0  0  0  0  0  0  0  0  0  0  0  0
   34.2330   28.8720   50.1500 C   0  0  0  0  0  0  0  0  0  0  0  0
   34.1290   29.5700   49.0130 N   0  0  0  0  0  0  0  0  0  0  0  0
   34.9230   30.9630   47.7500 H   0  0  0  0  0  0  0  0  0  0  0  0
   33.5450   28.1360   50.5490 H   0  0  0  0  0  0  0  0  0  0  0  0
   37.4690   30.1030   51.5660 C   0  0  0  0  0  0  0  0  0  0  0  0
   37.4390   31.0280   52.1630 H   0  0  0  0  0  0  0  0  0  0  0  0
   38.3840   30.0730   50.9240 H   0  0  0  0  0  0  0  0  0  0  0  0
   37.5380   29.2170   52.2110 H   0  0  0  0  0  0  0  0  0  0  0  0
   38.0050   30.2160   47.3170 O   0  0  0  0  0  0  0  0  0  0  0  0
   37.1010   29.9470   46.9470 H   0  0  0  0  0  0  0  0  0  0  0  0
  1 10  1  0  0  0  0
  1  2  1  0  0  0  0
  2 26  1  0  0  0  0
  3  2  2  0  0  0  0
  3 11  1  0  0  0  0
  4  3  1  0  0  0  0
  5 12  1  0  0  0  0
  5  4  1  0  0  0  0
  6  5  1  0  0  0  0
  7  6  2  0  0  0  0
  7  8  1  0  0  0  0
  8  9  1  0  0  0  0
  8  4  2  0  0  0  0
  9  1  2  0  0  0  0
 13  6  1  0  0  0  0
 15 14  1  0  0  0  0
 15  9  1  0  0  0  0
 16 15  2  0  0  0  0
 17 16  1  0  0  0  0
 18 24  2  0  0  0  0
 18 16  1  0  0  0  0
 19 18  1  0  0  0  0
 20 19  1  0  0  0  0
 21 19  1  0  0  0  0
 21 23  2  0  0  0  0
 22 21  1  0  0  0  0
 23 24  1  0  0  0  0
 24 25  1  0  0  0  0
 25 14  2  0  0  0  0
 26 32  1  0  0  0  0
 27 28  1  0  0  0  0
 28 37  1  0  0  0  0
 28 29  2  0  0  0  0
 29 33  1  0  0  0  0
 30 29  1  0  0  0  0
 30 34  1  0  0  0  0
 31 30  2  0  0  0  0
 32 27  2  0  0  0  0
 32 31  1  0  0  0  0
 35 31  1  0  0  0  0
 36 41  2  0  0  0  0
 36 37  1  0  0  0  0
 37 38  2  0  0  0  0
 38 39  1  0  0  0  0
 38 44  1  0  0  0  0
 40 43  1  0  0  0  0
 40 39  2  0  0  0  0
 41 40  1  0  0  0  0
 42 36  1  0  0  0  0
 44 45  1  0  0  0  0
 44 47  1  0  0  0  0
 46 44  1  0  0  0  0
 48 27  1  0  0  0  0
 49 48  1  0  0  0  0
M  END
>  <minimizedAffinity>
-8.09781265

>  <minimizedRMSD>
1.00050986

$$$$
