
 OpenBabel03272508353D

 34 37  0  0  0  0  0  0  0  0999 V2000
   39.6250   33.0380   45.7310 C   0  0  0  0  0  0  0  0  0  0  0  0
   39.0680   33.4900   44.8770 H   0  0  0  0  0  0  0  0  0  0  0  0
   39.9960   33.8600   46.3910 H   0  0  0  0  0  0  0  0  0  0  0  0
   37.6400   31.1060   48.0170 C   0  0  0  0  0  0  0  0  0  0  0  0
   37.0160   30.8380   46.8130 C   0  0  0  0  0  0  0  0  0  0  0  0
   37.6700   31.5200   45.8020 C   0  0  0  0  0  0  0  0  0  0  0  0
   38.6730   32.1820   46.4260 N   0  0  0  0  0  0  0  0  0  0  0  0
   38.6580   31.9370   47.7470 N   0  0  0  0  0  0  0  0  0  0  0  0
   36.1480   30.2080   46.5950 H   0  0  0  0  0  0  0  0  0  0  0  0
   37.4490   31.5360   44.7470 H   0  0  0  0  0  0  0  0  0  0  0  0
   37.3710   30.0990   51.6330 C   0  0  0  0  0  0  0  0  0  0  0  0
   37.8850   30.6860   50.4780 C   0  0  0  0  0  0  0  0  0  0  0  0
   37.1820   30.5350   49.2580 C   0  0  0  0  0  0  0  0  0  0  0  0
   36.0300   29.8120   49.2960 N   0  0  0  0  0  0  0  0  0  0  0  0
   35.5660   29.2600   50.4400 C   0  0  0  0  0  0  0  0  0  0  0  0
   36.2350   29.4040   51.6020 N   0  0  0  0  0  0  0  0  0  0  0  0
   37.9880   30.2780   52.5070 H   0  0  0  0  0  0  0  0  0  0  0  0
   38.7950   31.2670   50.3980 H   0  0  0  0  0  0  0  0  0  0  0  0
   34.6310   28.6800   50.4480 H   0  0  0  0  0  0  0  0  0  0  0  0
   40.7790   32.1820   45.2230 C   0  0  0  0  0  0  0  0  0  0  0  0
   41.6730   32.8400   45.1730 H   0  0  0  0  0  0  0  0  0  0  0  0
   40.9590   31.3920   45.9560 H   0  0  0  0  0  0  0  0  0  0  0  0
   39.8030   32.4380   42.9370 C   0  0  0  0  0  0  0  0  0  0  0  0
   40.4630   31.6650   43.8760 C   0  0  0  0  0  0  0  0  0  0  0  0
   40.8720   30.3680   43.6250 C   0  0  0  0  0  0  0  0  0  0  0  0
   41.3880   29.7590   44.3560 H   0  0  0  0  0  0  0  0  0  0  0  0
   40.6240   29.7900   42.3950 C   0  0  0  0  0  0  0  0  0  0  0  0
   40.9080   28.5660   41.8960 N   0  0  0  0  0  0  0  0  0  0  0  0
   41.4020   27.8110   42.4220 H   0  0  0  0  0  0  0  0  0  0  0  0
   40.4440   28.5000   40.6190 C   0  0  0  0  0  0  0  0  0  0  0  0
   40.5710   27.5980   40.0360 H   0  0  0  0  0  0  0  0  0  0  0  0
   39.8610   29.7150   40.3290 C   0  0  0  0  0  0  0  0  0  0  0  0
   39.9610   30.5440   41.4310 C   0  0  0  0  0  0  0  0  0  0  0  0
   39.5690   31.8370   41.7170 C   0  0  0  0  0  0  0  0  0  0  0  0
  1  3  1  0  0  0  0
  1  7  1  0  0  0  0
  2  1  1  0  0  0  0
  4 13  1  0  0  0  0
  5  4  1  0  0  0  0
  6  7  1  0  0  0  0
  6  5  2  0  0  0  0
  7  8  1  0  0  0  0
  8  4  2  0  0  0  0
  9  5  1  0  0  0  0
 10  6  1  0  0  0  0
 11 17  1  0  0  0  0
 12 11  2  0  0  0  0
 13 14  2  0  0  0  0
 13 12  1  0  0  0  0
 14 15  1  0  0  0  0
 15 19  1  0  0  0  0
 15 16  2  0  0  0  0
 16 11  1  0  0  0  0
 18 12  1  0  0  0  0
 20  1  1  0  0  0  0
 20 22  1  0  0  0  0
 21 20  1  0  0  0  0
 23 24  1  0  0  0  0
 24 20  1  0  0  0  0
 25 24  2  0  0  0  0
 25 26  1  0  0  0  0
 27 25  1  0  0  0  0
 28 27  1  0  0  0  0
 28 29  1  0  0  0  0
 30 28  1  0  0  0  0
 31 30  1  0  0  0  0
 32 30  2  0  0  0  0
 32 33  1  0  0  0  0
 33 34  1  0  0  0  0
 33 27  2  0  0  0  0
 34 23  2  0  0  0  0
M  END
>  <minimizedAffinity>
-5.82825089

>  <minimizedRMSD>
3.95679545

$$$$
