
 OpenBabel03272510193D

 39 43  0  0  0  0  0  0  0  0999 V2000
   32.7960   29.3290   46.8810 C   0  0  0  0  0  0  0  0  0  0  0  0
   31.8880   28.3090   46.7560 C   0  0  0  0  0  0  0  0  0  0  0  0
   30.8310   28.3530   45.8610 C   0  0  0  0  0  0  0  0  0  0  0  0
   30.6710   29.4240   45.0770 N   0  0  0  0  0  0  0  0  0  0  0  0
   31.5500   30.4270   45.1880 C   0  0  0  0  0  0  0  0  0  0  0  0
   32.5630   30.3650   46.0590 N   0  0  0  0  0  0  0  0  0  0  0  0
   32.0080   27.4240   47.3930 H   0  0  0  0  0  0  0  0  0  0  0  0
   30.1370   27.5080   45.8050 H   0  0  0  0  0  0  0  0  0  0  0  0
   30.2500   32.2340   44.0570 C   0  0  0  0  0  3  0  0  0  0  0  0
   31.4510   31.6350   44.3710 C   0  0  0  0  0  0  0  0  0  0  0  0
   32.5710   32.2800   43.8430 C   0  0  0  0  0  0  0  0  0  0  0  0
   33.5310   31.8060   44.0910 H   0  0  0  0  0  0  0  0  0  0  0  0
   32.4850   33.4170   43.0730 C   0  0  0  0  0  0  0  0  0  0  0  0
   33.4950   34.1040   42.5260 N   0  0  0  0  0  0  0  0  0  0  0  0
   34.5280   33.8900   42.5900 H   0  0  0  0  0  0  0  0  0  0  0  0
   32.9290   35.1230   41.8740 C   0  0  0  0  0  0  0  0  0  0  0  0
   33.4740   35.8730   41.3200 H   0  0  0  0  0  0  0  0  0  0  0  0
   31.5390   35.0810   42.0130 C   0  0  0  0  0  3  0  0  0  0  0  0
   31.2600   33.9680   42.7940 C   0  0  0  0  0  0  0  0  0  0  0  0
   30.1190   33.3710   43.2910 C   0  0  0  0  0  3  0  0  0  0  0  0
   37.4760   29.1980   50.8470 Br  0  0  0  0  0  0  0  0  0  0  0  0
   36.0430   29.2760   49.5950 C   0  0  0  0  0  0  0  0  0  0  0  0
   36.0030   30.2690   48.6180 C   0  0  0  0  0  0  0  0  0  0  0  0
   34.9420   30.2670   47.7500 C   0  0  0  0  0  0  0  0  0  0  0  0
   33.9200   29.3260   47.8050 C   0  0  0  0  0  0  0  0  0  0  0  0
   33.9880   28.3680   48.7730 C   0  0  0  0  0  0  0  0  0  0  0  0
   35.0460   28.3570   49.6510 C   0  0  0  0  0  0  0  0  0  0  0  0
   34.8440   31.0180   46.9540 H   0  0  0  0  0  0  0  0  0  0  0  0
   33.2300   27.6010   48.8800 H   0  0  0  0  0  0  0  0  0  0  0  0
   35.0930   27.6000   50.4100 H   0  0  0  0  0  0  0  0  0  0  0  0
   38.0300   33.1980   49.4310 C   0  0  0  0  0  0  0  0  0  0  0  0
   39.0320   33.1960   48.4160 C   0  0  0  0  0  0  0  0  0  0  0  0
   38.9870   32.1860   47.4760 C   0  0  0  0  0  0  0  0  0  0  0  0
   37.9960   31.2480   47.5610 N   0  0  0  0  0  0  0  0  0  0  0  0
   37.0550   31.2680   48.5320 C   0  0  0  0  0  0  0  0  0  0  0  0
   37.0890   32.2530   49.4590 N   0  0  0  0  0  0  0  0  0  0  0  0
   38.1070   34.0060   50.1430 H   0  0  0  0  0  0  0  0  0  0  0  0
   39.8230   33.9130   48.3180 H   0  0  0  0  0  0  0  0  0  0  0  0
   39.6810   32.0680   46.6600 H   0  0  0  0  0  0  0  0  0  0  0  0
  1 25  1  0  0  0  0
  2  1  1  0  0  0  0
  2  7  1  0  0  0  0
  3  2  2  0  0  0  0
  4  5  2  0  0  0  0
  4  3  1  0  0  0  0
  5  6  1  0  0  0  0
  6  1  2  0  0  0  0
  8  3  1  0  0  0  0
  9 10  1  0  0  0  0
 10  5  1  0  0  0  0
 11 12  1  0  0  0  0
 11 10  2  0  0  0  0
 13 11  1  0  0  0  0
 14 15  1  0  0  0  0
 14 13  1  0  0  0  0
 16 18  2  0  0  0  0
 16 14  1  0  0  0  0
 17 16  1  0  0  0  0
 18 19  1  0  0  0  0
 19 13  2  0  0  0  0
 19 20  1  0  0  0  0
 20  9  2  0  0  0  0
 22 27  1  0  0  0  0
 22 21  1  0  0  0  0
 23 22  2  0  0  0  0
 24 25  2  0  0  0  0
 24 23  1  0  0  0  0
 25 26  1  0  0  0  0
 26 29  1  0  0  0  0
 26 27  2  0  0  0  0
 27 30  1  0  0  0  0
 28 24  1  0  0  0  0
 31 36  1  0  0  0  0
 31 37  1  0  0  0  0
 32 31  2  0  0  0  0
 33 34  2  0  0  0  0
 33 32  1  0  0  0  0
 34 35  1  0  0  0  0
 35 23  1  0  0  0  0
 35 36  2  0  0  0  0
 38 32  1  0  0  0  0
 39 33  1  0  0  0  0
M  END
>  <minimizedAffinity>
-6.96782255

>  <minimizedRMSD>
0.584658563

$$$$
