
 OpenBabel03262523233D

 36 39  0  0  1  0  0  0  0  0999 V2000
   31.2670   28.6770   35.1590 C   0  0  0  0  0  0  0  0  0  0  0  0
   31.1620   28.7510   33.7470 C   0  0  0  0  0  0  0  0  0  0  0  0
   32.0490   29.5840   33.0510 C   0  0  0  0  0  0  0  0  0  0  0  0
   32.9570   30.2700   33.7860 N   0  0  0  0  0  0  0  0  0  0  0  0
   33.0440   30.1900   35.1160 C   0  0  0  0  0  0  0  0  0  0  0  0
   32.2010   29.3930   35.8210 N   0  0  0  0  0  0  0  0  0  0  0  0
   34.0390   30.9330   35.8240 N   0  0  0  0  0  0  0  0  0  0  0  0
   33.6880   31.6740   37.0270 C   0  0  0  0  0  0  0  0  0  0  0  0
   34.4660   32.9420   37.2290 C   0  0  0  0  0  0  0  0  0  0  0  0
   35.0540   33.3440   35.9000 C   0  0  0  0  0  0  0  0  0  0  0  0
   36.0920   32.2770   35.5720 C   0  0  0  0  0  0  0  0  0  0  0  0
   35.3960   30.9650   35.3720 C   0  0  2  0  0  0  0  0  0  0  0  0
   30.5890   28.0360   35.7330 H   0  0  0  0  0  0  0  0  0  0  0  0
   30.4100   28.1680   33.2650 H   0  0  0  0  0  0  0  0  0  0  0  0
   31.9880   29.6550   31.9850 H   0  0  0  0  0  0  0  0  0  0  0  0
   32.5920   31.8410   37.0600 H   0  0  0  0  0  0  0  0  0  0  0  0
   33.9490   30.9900   37.8770 H   0  0  0  0  0  0  0  0  0  0  0  0
   35.2820   32.8350   37.9940 H   0  0  0  0  0  0  0  0  0  0  0  0
   33.7520   33.7200   37.5440 H   0  0  0  0  0  0  0  0  0  0  0  0
   34.2430   33.2400   35.1440 H   0  0  0  0  0  0  0  0  0  0  0  0
   35.4870   34.3570   35.9070 H   0  0  0  0  0  0  0  0  0  0  0  0
   36.8200   32.5680   34.8270 H   0  0  0  0  0  0  0  0  0  0  0  0
   36.6870   32.1930   36.5370 H   0  0  0  0  0  0  0  0  0  0  0  0
   35.9060   30.1860   36.0710 H   0  0  0  0  0  0  0  0  0  0  0  0
   35.7160   30.9990   32.7930 C   0  0  0  0  0  3  0  0  0  0  0  0
   35.6570   30.4100   34.0360 C   0  0  0  0  0  0  0  0  0  0  0  0
   35.9450   29.0360   33.9730 C   0  0  0  0  0  0  0  0  0  0  0  0
   35.9320   28.4440   34.9020 H   0  0  0  0  0  0  0  0  0  0  0  0
   36.2520   28.3310   32.8280 C   0  0  0  0  0  0  0  0  0  0  0  0
   36.5440   27.0430   32.6110 N   0  0  0  0  0  0  0  0  0  0  0  0
   36.5920   26.2830   33.3510 H   0  0  0  0  0  0  0  0  0  0  0  0
   36.7620   26.9020   31.2910 C   0  0  0  0  0  0  0  0  0  0  0  0
   37.0190   25.9760   30.8070 H   0  0  0  0  0  0  0  0  0  0  0  0
   36.6100   28.1060   30.6500 C   0  0  0  0  0  3  0  0  0  0  0  0
   36.2850   29.0160   31.6310 C   0  0  0  0  0  0  0  0  0  0  0  0
   36.0130   30.3460   31.6400 C   0  0  0  0  0  3  0  0  0  0  0  0
  1 13  1  0  0  0  0
  1  6  1  0  0  0  0
  2  1  2  0  0  0  0
  3  2  1  0  0  0  0
  3  4  2  0  0  0  0
  4  5  1  0  0  0  0
  5  6  2  0  0  0  0
  5  7  1  0  0  0  0
  7  8  1  0  0  0  0
  8 16  1  0  0  0  0
  8  9  1  0  0  0  0
  8 17  1  0  0  0  0
  9 19  1  0  0  0  0
  9 18  1  0  0  0  0
 10 21  1  0  0  0  0
 10  9  1  0  0  0  0
 11 10  1  0  0  0  0
 11 23  1  0  0  0  0
 12 11  1  0  0  0  0
 12  7  1  0  0  0  0
 12 24  1  1  0  0  0
 14  2  1  0  0  0  0
 15  3  1  0  0  0  0
 20 10  1  0  0  0  0
 22 11  1  0  0  0  0
 25 26  1  0  0  0  0
 26 12  1  0  0  0  0
 27 26  2  0  0  0  0
 27 28  1  0  0  0  0
 29 27  1  0  0  0  0
 30 29  1  0  0  0  0
 30 31  1  0  0  0  0
 32 30  1  0  0  0  0
 33 32  1  0  0  0  0
 34 32  2  0  0  0  0
 34 35  1  0  0  0  0
 35 36  1  0  0  0  0
 35 29  2  0  0  0  0
 36 25  2  0  0  0  0
M  END
>  <minimizedAffinity>
-5.76582146

$$$$

 OpenBabel03262523233D

 36 39  0  0  1  0  0  0  0  0999 V2000
   36.8020   27.5630   30.9380 C   0  0  0  0  0  0  0  0  0  0  0  0
   36.1710   26.4480   31.5460 C   0  0  0  0  0  0  0  0  0  0  0  0
   36.9320   25.6190   32.3820 C   0  0  0  0  0  0  0  0  0  0  0  0
   38.2370   25.9440   32.5500 N   0  0  0  0  0  0  0  0  0  0  0  0
   38.8170   26.9980   31.9710 C   0  0  0  0  0  0  0  0  0  0  0  0
   38.1090   27.8210   31.1570 N   0  0  0  0  0  0  0  0  0  0  0  0
   40.1970   27.2870   32.2080 N   0  0  0  0  0  0  0  0  0  0  0  0
   41.0800   27.6240   31.1020 C   0  0  0  0  0  0  0  0  0  0  0  0
   42.4970   27.1580   31.2690 C   0  0  0  0  0  0  0  0  0  0  0  0
   42.5080   26.0630   32.3040 C   0  0  0  0  0  0  0  0  0  0  0  0
   42.1440   26.7400   33.6200 C   0  0  0  0  0  0  0  0  0  0  0  0
   40.7400   27.2550   33.5310 C   0  0  2  0  0  0  0  0  0  0  0  0
   36.2350   28.2310   30.2800 H   0  0  0  0  0  0  0  0  0  0  0  0
   35.1360   26.2830   31.3460 H   0  0  0  0  0  0  0  0  0  0  0  0
   36.4770   24.7720   32.8510 H   0  0  0  0  0  0  0  0  0  0  0  0
   40.6330   27.2840   30.1460 H   0  0  0  0  0  0  0  0  0  0  0  0
   41.1040   28.7460   31.0800 H   0  0  0  0  0  0  0  0  0  0  0  0
   43.1940   27.9840   31.5760 H   0  0  0  0  0  0  0  0  0  0  0  0
   42.8190   26.7310   30.3040 H   0  0  0  0  0  0  0  0  0  0  0  0
   41.6650   25.3770   32.0570 H   0  0  0  0  0  0  0  0  0  0  0  0
   43.4700   25.5310   32.3620 H   0  0  0  0  0  0  0  0  0  0  0  0
   42.4090   26.1790   34.5070 H   0  0  0  0  0  0  0  0  0  0  0  0
   42.8290   27.6470   33.6400 H   0  0  0  0  0  0  0  0  0  0  0  0
   40.7610   28.3840   33.8170 H   0  0  0  0  0  0  0  0  0  0  0  0
   38.9040   27.2370   35.3710 C   0  0  0  0  0  3  0  0  0  0  0  0
   39.8840   26.6810   34.5800 C   0  0  0  0  0  0  0  0  0  0  0  0
   40.0290   25.3050   34.8250 C   0  0  0  0  0  0  0  0  0  0  0  0
   40.7820   24.7370   34.2560 H   0  0  0  0  0  0  0  0  0  0  0  0
   39.3000   24.5700   35.7360 C   0  0  0  0  0  0  0  0  0  0  0  0
   39.3230   23.2760   36.0780 N   0  0  0  0  0  0  0  0  0  0  0  0
   39.9630   22.5350   35.6660 H   0  0  0  0  0  0  0  0  0  0  0  0
   38.3890   23.1000   37.0300 C   0  0  0  0  0  0  0  0  0  0  0  0
   38.1690   22.1610   37.5080 H   0  0  0  0  0  0  0  0  0  0  0  0
   37.7580   24.2870   37.3070 C   0  0  0  0  0  3  0  0  0  0  0  0
   38.3410   25.2230   36.4810 C   0  0  0  0  0  0  0  0  0  0  0  0
   38.1620   26.5550   36.2810 C   0  0  0  0  0  3  0  0  0  0  0  0
  1  6  2  0  0  0  0
  1  2  1  0  0  0  0
  2  3  2  0  0  0  0
  3  4  1  0  0  0  0
  3 15  1  0  0  0  0
  5  7  1  0  0  0  0
  5  4  2  0  0  0  0
  6  5  1  0  0  0  0
  7 12  1  0  0  0  0
  8  9  1  0  0  0  0
  8  7  1  0  0  0  0
  9 18  1  0  0  0  0
  9 10  1  0  0  0  0
 10 21  1  0  0  0  0
 10 11  1  0  0  0  0
 11 23  1  0  0  0  0
 11 22  1  0  0  0  0
 12 11  1  0  0  0  0
 12 24  1  1  0  0  0
 12 26  1  0  0  0  0
 13  1  1  0  0  0  0
 14  2  1  0  0  0  0
 16  8  1  0  0  0  0
 17  8  1  0  0  0  0
 19  9  1  0  0  0  0
 20 10  1  0  0  0  0
 25 36  1  0  0  0  0
 26 27  1  0  0  0  0
 26 25  2  0  0  0  0
 27 29  2  0  0  0  0
 28 27  1  0  0  0  0
 29 30  1  0  0  0  0
 29 35  1  0  0  0  0
 30 32  1  0  0  0  0
 31 30  1  0  0  0  0
 32 34  2  0  0  0  0
 32 33  1  0  0  0  0
 35 34  1  0  0  0  0
 36 35  2  0  0  0  0
M  END
>  <minimizedAffinity>
-5.60093212

$$$$

 OpenBabel03262523233D

 36 39  0  0  1  0  0  0  0  0999 V2000
   38.8080   26.3640   31.6540 C   0  0  0  0  0  0  0  0  0  0  0  0
   38.7950   26.8650   32.9810 C   0  0  0  0  0  0  0  0  0  0  0  0
   38.3020   26.0410   34.0030 C   0  0  0  0  0  0  0  0  0  0  0  0
   37.8650   24.8100   33.6460 N   0  0  0  0  0  0  0  0  0  0  0  0
   37.8830   24.3530   32.3920 C   0  0  0  0  0  0  0  0  0  0  0  0
   38.3540   25.1240   31.3780 N   0  0  0  0  0  0  0  0  0  0  0  0
   37.4170   23.0350   32.0930 N   0  0  0  0  0  0  0  0  0  0  0  0
   36.5320   22.8050   30.9610 C   0  0  0  0  0  0  0  0  0  0  0  0
   35.5360   21.7000   31.1610 C   0  0  0  0  0  0  0  0  0  0  0  0
   35.4060   21.4530   32.6430 C   0  0  0  0  0  0  0  0  0  0  0  0
   36.7470   20.8760   33.0790 C   0  0  0  0  0  0  0  0  0  0  0  0
   37.8100   21.9150   32.8930 C   0  0  2  0  0  0  0  0  0  0  0  0
   39.1860   26.9830   30.8310 H   0  0  0  0  0  0  0  0  0  0  0  0
   39.1640   27.8500   33.1520 H   0  0  0  0  0  0  0  0  0  0  0  0
   38.2840   26.3970   35.0120 H   0  0  0  0  0  0  0  0  0  0  0  0
   36.0520   23.7570   30.6580 H   0  0  0  0  0  0  0  0  0  0  0  0
   37.2080   22.4880   30.1230 H   0  0  0  0  0  0  0  0  0  0  0  0
   35.8270   20.7500   30.6370 H   0  0  0  0  0  0  0  0  0  0  0  0
   34.5650   22.0600   30.7810 H   0  0  0  0  0  0  0  0  0  0  0  0
   35.3170   22.4510   33.1290 H   0  0  0  0  0  0  0  0  0  0  0  0
   34.5650   20.7910   32.8990 H   0  0  0  0  0  0  0  0  0  0  0  0
   36.7290   20.3540   34.0280 H   0  0  0  0  0  0  0  0  0  0  0  0
   36.9400   20.0630   32.3090 H   0  0  0  0  0  0  0  0  0  0  0  0
   38.6590   21.4410   32.2520 H   0  0  0  0  0  0  0  0  0  0  0  0
   39.8300   22.4330   34.4460 C   0  0  0  0  0  3  0  0  0  0  0  0
   38.5010   22.2190   34.1550 C   0  0  0  0  0  0  0  0  0  0  0  0
   37.6900   22.3680   35.2930 C   0  0  0  0  0  0  0  0  0  0  0  0
   36.6030   22.2230   35.1980 H   0  0  0  0  0  0  0  0  0  0  0  0
   38.1340   22.6870   36.5590 C   0  0  0  0  0  0  0  0  0  0  0  0
   37.4970   22.8610   37.7240 N   0  0  0  0  0  0  0  0  0  0  0  0
   36.4500   22.7730   37.8780 H   0  0  0  0  0  0  0  0  0  0  0  0
   38.4280   23.1630   38.6460 C   0  0  0  0  0  0  0  0  0  0  0  0
   38.2240   23.3590   39.6840 H   0  0  0  0  0  0  0  0  0  0  0  0
   39.6770   23.1850   38.0750 C   0  0  0  0  0  3  0  0  0  0  0  0
   39.4870   22.8810   36.7450 C   0  0  0  0  0  0  0  0  0  0  0  0
   40.3130   22.7480   35.6750 C   0  0  0  0  0  3  0  0  0  0  0  0
  1  2  1  0  0  0  0
  2 14  1  0  0  0  0
  2  3  2  0  0  0  0
  3 15  1  0  0  0  0
  4  3  1  0  0  0  0
  5  4  2  0  0  0  0
  6  1  2  0  0  0  0
  6  5  1  0  0  0  0
  7  5  1  0  0  0  0
  7 12  1  0  0  0  0
  8  9  1  0  0  0  0
  8  7  1  0  0  0  0
  9 10  1  0  0  0  0
 10 21  1  0  0  0  0
 10 11  1  0  0  0  0
 10 20  1  0  0  0  0
 11 22  1  0  0  0  0
 12 24  1  6  0  0  0
 12 11  1  0  0  0  0
 12 26  1  0  0  0  0
 13  1  1  0  0  0  0
 16  8  1  0  0  0  0
 17  8  1  0  0  0  0
 18  9  1  0  0  0  0
 19  9  1  0  0  0  0
 23 11  1  0  0  0  0
 25 36  1  0  0  0  0
 26 25  2  0  0  0  0
 26 27  1  0  0  0  0
 27 29  2  0  0  0  0
 28 27  1  0  0  0  0
 29 35  1  0  0  0  0
 29 30  1  0  0  0  0
 30 31  1  0  0  0  0
 30 32  1  0  0  0  0
 32 33  1  0  0  0  0
 34 32  2  0  0  0  0
 35 34  1  0  0  0  0
 36 35  2  0  0  0  0
M  END
>  <minimizedAffinity>
-5.52951479

$$$$

 OpenBabel03262523233D

 36 39  0  0  1  0  0  0  0  0999 V2000
   37.1240   27.6430   33.4360 C   0  0  0  0  0  0  0  0  0  0  0  0
   37.5230   27.5100   34.7900 C   0  0  0  0  0  0  0  0  0  0  0  0
   37.7810   26.2260   35.2900 C   0  0  0  0  0  0  0  0  0  0  0  0
   37.6270   25.1880   34.4340 N   0  0  0  0  0  0  0  0  0  0  0  0
   37.2510   25.3290   33.1600 C   0  0  0  0  0  0  0  0  0  0  0  0
   36.9930   26.5570   32.6440 N   0  0  0  0  0  0  0  0  0  0  0  0
   37.1240   24.1860   32.3110 N   0  0  0  0  0  0  0  0  0  0  0  0
   35.9580   24.0320   31.4530 C   0  0  0  0  0  0  0  0  0  0  0  0
   35.5240   22.6110   31.2390 C   0  0  0  0  0  0  0  0  0  0  0  0
   36.1130   21.7730   32.3450 C   0  0  0  0  0  0  0  0  0  0  0  0
   37.6180   21.7780   32.1050 C   0  0  0  0  0  0  0  0  0  0  0  0
   38.1340   23.1740   32.2810 C   0  0  2  0  0  0  0  0  0  0  0  0
   36.9150   28.6320   33.0130 H   0  0  0  0  0  0  0  0  0  0  0  0
   37.6140   28.3950   35.3790 H   0  0  0  0  0  0  0  0  0  0  0  0
   38.0840   26.1020   36.3090 H   0  0  0  0  0  0  0  0  0  0  0  0
   35.1330   24.6760   31.8190 H   0  0  0  0  0  0  0  0  0  0  0  0
   36.2780   24.4300   30.4540 H   0  0  0  0  0  0  0  0  0  0  0  0
   35.8370   22.2050   30.2400 H   0  0  0  0  0  0  0  0  0  0  0  0
   34.4250   22.5860   31.3300 H   0  0  0  0  0  0  0  0  0  0  0  0
   35.9410   22.3270   33.2960 H   0  0  0  0  0  0  0  0  0  0  0  0
   35.7010   20.7520   32.3810 H   0  0  0  0  0  0  0  0  0  0  0  0
   38.1590   20.9850   32.6040 H   0  0  0  0  0  0  0  0  0  0  0  0
   37.7020   21.5300   30.9990 H   0  0  0  0  0  0  0  0  0  0  0  0
   38.7330   23.4510   31.3210 H   0  0  0  0  0  0  0  0  0  0  0  0
   40.3630   23.9210   33.3910 C   0  0  0  0  0  3  0  0  0  0  0  0
   39.1660   23.2440   33.3260 C   0  0  0  0  0  0  0  0  0  0  0  0
   38.9060   22.5360   34.5120 C   0  0  0  0  0  0  0  0  0  0  0  0
   37.9770   21.9500   34.5920 H   0  0  0  0  0  0  0  0  0  0  0  0
   39.7230   22.5010   35.6220 C   0  0  0  0  0  0  0  0  0  0  0  0
   39.6150   21.8840   36.8060 N   0  0  0  0  0  0  0  0  0  0  0  0
   38.8090   21.2650   37.1120 H   0  0  0  0  0  0  0  0  0  0  0  0
   40.7110   22.1990   37.5200 C   0  0  0  0  0  0  0  0  0  0  0  0
   40.9140   21.8520   38.5180 H   0  0  0  0  0  0  0  0  0  0  0  0
   41.5340   23.0240   36.7950 C   0  0  0  0  0  3  0  0  0  0  0  0
   40.9030   23.2160   35.5850 C   0  0  0  0  0  0  0  0  0  0  0  0
   41.2000   23.9160   34.4600 C   0  0  0  0  0  3  0  0  0  0  0  0
  1  2  1  0  0  0  0
  2  3  2  0  0  0  0
  2 14  1  0  0  0  0
  3 15  1  0  0  0  0
  4  3  1  0  0  0  0
  5  4  2  0  0  0  0
  6  5  1  0  0  0  0
  6  1  2  0  0  0  0
  7  5  1  0  0  0  0
  8 16  1  0  0  0  0
  8  7  1  0  0  0  0
  9 19  1  0  0  0  0
  9  8  1  0  0  0  0
  9 10  1  0  0  0  0
 10 21  1  0  0  0  0
 10 20  1  0  0  0  0
 11 12  1  0  0  0  0
 11 10  1  0  0  0  0
 11 22  1  0  0  0  0
 12 24  1  6  0  0  0
 12  7  1  0  0  0  0
 12 26  1  0  0  0  0
 13  1  1  0  0  0  0
 17  8  1  0  0  0  0
 18  9  1  0  0  0  0
 23 11  1  0  0  0  0
 25 36  1  0  0  0  0
 26 25  2  0  0  0  0
 26 27  1  0  0  0  0
 27 28  1  0  0  0  0
 27 29  2  0  0  0  0
 29 30  1  0  0  0  0
 30 31  1  0  0  0  0
 30 32  1  0  0  0  0
 32 33  1  0  0  0  0
 34 32  2  0  0  0  0
 35 29  1  0  0  0  0
 35 34  1  0  0  0  0
 36 35  2  0  0  0  0
M  END
>  <minimizedAffinity>
-5.51392651

$$$$

 OpenBabel03262523233D

 36 39  0  0  1  0  0  0  0  0999 V2000
   36.7810   22.5770   31.7060 C   0  0  0  0  0  0  0  0  0  0  0  0
   35.8060   23.3260   31.0000 C   0  0  0  0  0  0  0  0  0  0  0  0
   35.6610   24.6890   31.2980 C   0  0  0  0  0  0  0  0  0  0  0  0
   36.4720   25.2010   32.2540 N   0  0  0  0  0  0  0  0  0  0  0  0
   37.3870   24.4820   32.9110 C   0  0  0  0  0  0  0  0  0  0  0  0
   37.5530   23.1610   32.6470 N   0  0  0  0  0  0  0  0  0  0  0  0
   38.2180   25.0950   33.8990 N   0  0  0  0  0  0  0  0  0  0  0  0
   38.4370   24.4470   35.1840 C   0  0  0  0  0  0  0  0  0  0  0  0
   38.6060   25.3910   36.3390 C   0  0  0  0  0  0  0  0  0  0  0  0
   38.0310   26.7250   35.9380 C   0  0  0  0  0  0  0  0  0  0  0  0
   38.9490   27.2540   34.8430 C   0  0  0  0  0  0  0  0  0  0  0  0
   38.8550   26.3520   33.6500 C   0  0  2  0  0  0  0  0  0  0  0  0
   36.9200   21.5100   31.4970 H   0  0  0  0  0  0  0  0  0  0  0  0
   35.2190   22.8240   30.2650 H   0  0  0  0  0  0  0  0  0  0  0  0
   34.9320   25.2740   30.7770 H   0  0  0  0  0  0  0  0  0  0  0  0
   37.6440   23.6940   35.3660 H   0  0  0  0  0  0  0  0  0  0  0  0
   39.4060   23.8930   35.0690 H   0  0  0  0  0  0  0  0  0  0  0  0
   39.6790   25.5120   36.6490 H   0  0  0  0  0  0  0  0  0  0  0  0
   38.0120   24.9920   37.1780 H   0  0  0  0  0  0  0  0  0  0  0  0
   37.0470   26.5200   35.4560 H   0  0  0  0  0  0  0  0  0  0  0  0
   37.9400   27.4280   36.7800 H   0  0  0  0  0  0  0  0  0  0  0  0
   38.8740   28.3190   34.6630 H   0  0  0  0  0  0  0  0  0  0  0  0
   39.9860   27.1110   35.2860 H   0  0  0  0  0  0  0  0  0  0  0  0
   39.9370   26.0280   33.3670 H   0  0  0  0  0  0  0  0  0  0  0  0
   37.4040   27.9880   32.2430 C   0  0  0  0  0  3  0  0  0  0  0  0
   38.4210   27.0820   32.4500 C   0  0  0  0  0  0  0  0  0  0  0  0
   39.1790   26.8810   31.2840 C   0  0  0  0  0  0  0  0  0  0  0  0
   40.0270   26.1770   31.3120 H   0  0  0  0  0  0  0  0  0  0  0  0
   38.9630   27.4940   30.0680 C   0  0  0  0  0  0  0  0  0  0  0  0
   39.5880   27.4070   28.8870 N   0  0  0  0  0  0  0  0  0  0  0  0
   40.4290   26.7960   28.6730 H   0  0  0  0  0  0  0  0  0  0  0  0
   38.9500   28.2330   28.0380 C   0  0  0  0  0  0  0  0  0  0  0  0
   39.2200   28.3820   27.0070 H   0  0  0  0  0  0  0  0  0  0  0  0
   37.9060   28.8590   28.6730 C   0  0  0  0  0  3  0  0  0  0  0  0
   37.9160   28.3870   29.9670 C   0  0  0  0  0  0  0  0  0  0  0  0
   37.1520   28.6150   31.0670 C   0  0  0  0  0  3  0  0  0  0  0  0
  1  6  1  0  0  0  0
  2  3  1  0  0  0  0
  2  1  2  0  0  0  0
  3  4  2  0  0  0  0
  4  5  1  0  0  0  0
  5  7  1  0  0  0  0
  6  5  2  0  0  0  0
  7  8  1  0  0  0  0
  8 16  1  0  0  0  0
  8  9  1  0  0  0  0
  9 18  1  0  0  0  0
  9 19  1  0  0  0  0
 10  9  1  0  0  0  0
 10 21  1  0  0  0  0
 11 23  1  0  0  0  0
 11 10  1  0  0  0  0
 12 24  1  6  0  0  0
 12  7  1  0  0  0  0
 12 11  1  0  0  0  0
 13  1  1  0  0  0  0
 14  2  1  0  0  0  0
 15  3  1  0  0  0  0
 17  8  1  0  0  0  0
 20 10  1  0  0  0  0
 22 11  1  0  0  0  0
 25 26  1  0  0  0  0
 26 12  1  0  0  0  0
 27 28  1  0  0  0  0
 27 26  2  0  0  0  0
 29 27  1  0  0  0  0
 30 29  1  0  0  0  0
 31 30  1  0  0  0  0
 32 34  2  0  0  0  0
 32 30  1  0  0  0  0
 33 32  1  0  0  0  0
 34 35  1  0  0  0  0
 35 29  2  0  0  0  0
 35 36  1  0  0  0  0
 36 25  2  0  0  0  0
M  END
>  <minimizedAffinity>
-5.51246595

$$$$

 OpenBabel03262523233D

 36 39  0  0  1  0  0  0  0  0999 V2000
   36.5990   22.3220   32.0420 C   0  0  0  0  0  0  0  0  0  0  0  0
   35.8250   23.0970   31.1420 C   0  0  0  0  0  0  0  0  0  0  0  0
   35.8730   24.4950   31.2480 C   0  0  0  0  0  0  0  0  0  0  0  0
   36.6640   25.0130   32.2170 N   0  0  0  0  0  0  0  0  0  0  0  0
   37.3880   24.2700   33.0570 C   0  0  0  0  0  0  0  0  0  0  0  0
   37.3640   22.9140   32.9830 N   0  0  0  0  0  0  0  0  0  0  0  0
   38.2120   24.8890   34.0470 N   0  0  0  0  0  0  0  0  0  0  0  0
   38.2060   24.4050   35.4200 C   0  0  0  0  0  0  0  0  0  0  0  0
   38.4170   25.4680   36.4580 C   0  0  0  0  0  0  0  0  0  0  0  0
   38.1010   26.8010   35.8300 C   0  0  0  0  0  0  0  0  0  0  0  0
   39.1890   27.0300   34.7870 C   0  0  0  0  0  0  0  0  0  0  0  0
   39.0620   25.9910   33.7150 C   0  0  2  0  0  0  0  0  0  0  0  0
   36.5840   21.2280   31.9870 H   0  0  0  0  0  0  0  0  0  0  0  0
   35.2350   22.5870   30.4140 H   0  0  0  0  0  0  0  0  0  0  0  0
   35.2970   25.1000   30.5780 H   0  0  0  0  0  0  0  0  0  0  0  0
   37.2900   23.8090   35.6050 H   0  0  0  0  0  0  0  0  0  0  0  0
   39.0800   23.7050   35.4860 H   0  0  0  0  0  0  0  0  0  0  0  0
   39.4620   25.4750   36.8700 H   0  0  0  0  0  0  0  0  0  0  0  0
   37.6930   25.2840   37.2690 H   0  0  0  0  0  0  0  0  0  0  0  0
   37.1460   26.6760   35.2700 H   0  0  0  0  0  0  0  0  0  0  0  0
   38.0470   27.6220   36.5620 H   0  0  0  0  0  0  0  0  0  0  0  0
   39.3010   28.0580   34.4680 H   0  0  0  0  0  0  0  0  0  0  0  0
   40.1440   26.8010   35.3590 H   0  0  0  0  0  0  0  0  0  0  0  0
   40.1000   25.4760   33.5990 H   0  0  0  0  0  0  0  0  0  0  0  0
   39.3330   26.2570   31.1430 C   0  0  0  0  0  3  0  0  0  0  0  0
   38.8620   26.5990   32.3910 C   0  0  0  0  0  0  0  0  0  0  0  0
   38.0070   27.7120   32.3350 C   0  0  0  0  0  0  0  0  0  0  0  0
   37.5590   28.0910   33.2670 H   0  0  0  0  0  0  0  0  0  0  0  0
   37.6600   28.4020   31.1920 C   0  0  0  0  0  0  0  0  0  0  0  0
   36.8720   29.4640   30.9800 N   0  0  0  0  0  0  0  0  0  0  0  0
   36.3350   29.9970   31.7250 H   0  0  0  0  0  0  0  0  0  0  0  0
   36.8920   29.7180   29.6600 C   0  0  0  0  0  0  0  0  0  0  0  0
   36.3530   30.5150   29.1800 H   0  0  0  0  0  0  0  0  0  0  0  0
   37.6990   28.8160   29.0120 C   0  0  0  0  0  3  0  0  0  0  0  0
   38.1880   27.9780   29.9900 C   0  0  0  0  0  0  0  0  0  0  0  0
   39.0210   26.9050   29.9920 C   0  0  0  0  0  3  0  0  0  0  0  0
  1  6  1  0  0  0  0
  2  3  1  0  0  0  0
  2  1  2  0  0  0  0
  3  4  2  0  0  0  0
  4  5  1  0  0  0  0
  5  7  1  0  0  0  0
  6  5  2  0  0  0  0
  7  8  1  0  0  0  0
  8 17  1  0  0  0  0
  8 16  1  0  0  0  0
  8  9  1  0  0  0  0
  9 18  1  0  0  0  0
  9 19  1  0  0  0  0
 10  9  1  0  0  0  0
 10 21  1  0  0  0  0
 11 23  1  0  0  0  0
 11 10  1  0  0  0  0
 12 24  1  6  0  0  0
 12  7  1  0  0  0  0
 12 11  1  0  0  0  0
 13  1  1  0  0  0  0
 14  2  1  0  0  0  0
 15  3  1  0  0  0  0
 20 10  1  0  0  0  0
 22 11  1  0  0  0  0
 25 26  1  0  0  0  0
 26 12  1  0  0  0  0
 27 26  2  0  0  0  0
 27 28  1  0  0  0  0
 29 27  1  0  0  0  0
 30 29  1  0  0  0  0
 30 31  1  0  0  0  0
 32 30  1  0  0  0  0
 33 32  1  0  0  0  0
 34 32  2  0  0  0  0
 34 35  1  0  0  0  0
 35 36  1  0  0  0  0
 35 29  2  0  0  0  0
 36 25  2  0  0  0  0
M  END
>  <minimizedAffinity>
-5.49255657

$$$$

 OpenBabel03262523233D

 36 39  0  0  1  0  0  0  0  0999 V2000
   35.5940   22.5890   31.9070 C   0  0  0  0  0  0  0  0  0  0  0  0
   36.4710   21.5690   32.3560 C   0  0  0  0  0  0  0  0  0  0  0  0
   37.7710   21.9250   32.7430 C   0  0  0  0  0  0  0  0  0  0  0  0
   38.1020   23.2360   32.6590 N   0  0  0  0  0  0  0  0  0  0  0  0
   37.2640   24.1850   32.2340 C   0  0  0  0  0  0  0  0  0  0  0  0
   35.9990   23.8750   31.8510 N   0  0  0  0  0  0  0  0  0  0  0  0
   37.6810   25.5510   32.1860 N   0  0  0  0  0  0  0  0  0  0  0  0
   37.3970   26.3680   31.0140 C   0  0  0  0  0  0  0  0  0  0  0  0
   38.4430   27.3990   30.7040 C   0  0  0  0  0  0  0  0  0  0  0  0
   39.7170   26.9930   31.3980 C   0  0  0  0  0  0  0  0  0  0  0  0
   39.4350   27.1370   32.8890 C   0  0  0  0  0  0  0  0  0  0  0  0
   38.3790   26.1480   33.2820 C   0  0  2  0  0  0  0  0  0  0  0  0
   34.5710   22.3440   31.5970 H   0  0  0  0  0  0  0  0  0  0  0  0
   36.1080   20.5660   32.3830 H   0  0  0  0  0  0  0  0  0  0  0  0
   38.4500   21.1720   33.0860 H   0  0  0  0  0  0  0  0  0  0  0  0
   37.1760   25.7150   30.1450 H   0  0  0  0  0  0  0  0  0  0  0  0
   36.4550   26.9220   31.2670 H   0  0  0  0  0  0  0  0  0  0  0  0
   38.1430   28.4340   31.0240 H   0  0  0  0  0  0  0  0  0  0  0  0
   38.6150   27.3750   29.6150 H   0  0  0  0  0  0  0  0  0  0  0  0
   39.8580   25.9050   31.2050 H   0  0  0  0  0  0  0  0  0  0  0  0
   40.5900   27.5860   31.0820 H   0  0  0  0  0  0  0  0  0  0  0  0
   40.3160   27.1920   33.5140 H   0  0  0  0  0  0  0  0  0  0  0  0
   38.9650   28.1700   32.9630 H   0  0  0  0  0  0  0  0  0  0  0  0
   37.5320   26.7350   33.8250 H   0  0  0  0  0  0  0  0  0  0  0  0
   40.0000   24.4800   34.4440 C   0  0  0  0  0  3  0  0  0  0  0  0
   38.8540   25.2370   34.3330 C   0  0  0  0  0  0  0  0  0  0  0  0
   38.0410   25.1140   35.4730 C   0  0  0  0  0  0  0  0  0  0  0  0
   37.0900   25.6700   35.5130 H   0  0  0  0  0  0  0  0  0  0  0  0
   38.3210   24.3440   36.5810 C   0  0  0  0  0  0  0  0  0  0  0  0
   37.6570   24.1280   37.7240 N   0  0  0  0  0  0  0  0  0  0  0  0
   36.7210   24.5530   37.9880 H   0  0  0  0  0  0  0  0  0  0  0  0
   38.3970   23.2790   38.4600 C   0  0  0  0  0  0  0  0  0  0  0  0
   38.1250   22.9150   39.4350 H   0  0  0  0  0  0  0  0  0  0  0  0
   39.5470   22.9430   37.7900 C   0  0  0  0  0  3  0  0  0  0  0  0
   39.4970   23.6220   36.5920 C   0  0  0  0  0  0  0  0  0  0  0  0
   40.3180   23.7070   35.5140 C   0  0  0  0  0  3  0  0  0  0  0  0
  1  2  1  0  0  0  0
  2 14  1  0  0  0  0
  2  3  2  0  0  0  0
  3 15  1  0  0  0  0
  4  3  1  0  0  0  0
  5  4  2  0  0  0  0
  6  1  2  0  0  0  0
  6  5  1  0  0  0  0
  7  5  1  0  0  0  0
  7 12  1  0  0  0  0
  8 17  1  0  0  0  0
  8  7  1  0  0  0  0
  9  8  1  0  0  0  0
  9 18  1  0  0  0  0
  9 10  1  0  0  0  0
 10 11  1  0  0  0  0
 11 23  1  0  0  0  0
 11 12  1  0  0  0  0
 11 22  1  0  0  0  0
 12 24  1  1  0  0  0
 12 26  1  0  0  0  0
 13  1  1  0  0  0  0
 16  8  1  0  0  0  0
 19  9  1  0  0  0  0
 20 10  1  0  0  0  0
 21 10  1  0  0  0  0
 25 36  1  0  0  0  0
 26 25  2  0  0  0  0
 26 27  1  0  0  0  0
 27 28  1  0  0  0  0
 27 29  2  0  0  0  0
 29 35  1  0  0  0  0
 29 30  1  0  0  0  0
 30 31  1  0  0  0  0
 30 32  1  0  0  0  0
 32 33  1  0  0  0  0
 34 32  2  0  0  0  0
 35 34  1  0  0  0  0
 36 35  2  0  0  0  0
M  END
>  <minimizedAffinity>
-5.48209906

$$$$

 OpenBabel03262523233D

 36 39  0  0  1  0  0  0  0  0999 V2000
   35.7080   23.7470   31.5300 C   0  0  0  0  0  0  0  0  0  0  0  0
   36.1070   22.5870   32.2420 C   0  0  0  0  0  0  0  0  0  0  0  0
   37.3070   22.6240   32.9650 C   0  0  0  0  0  0  0  0  0  0  0  0
   38.0120   23.7800   32.9320 N   0  0  0  0  0  0  0  0  0  0  0  0
   37.6220   24.8650   32.2580 C   0  0  0  0  0  0  0  0  0  0  0  0
   36.4660   24.8630   31.5460 N   0  0  0  0  0  0  0  0  0  0  0  0
   38.4120   26.0560   32.2810 N   0  0  0  0  0  0  0  0  0  0  0  0
   38.6890   26.7810   31.0490 C   0  0  0  0  0  0  0  0  0  0  0  0
   40.0300   27.4540   31.0090 C   0  0  0  0  0  0  0  0  0  0  0  0
   40.9090   26.8040   32.0470 C   0  0  0  0  0  0  0  0  0  0  0  0
   40.3030   27.1840   33.3920 C   0  0  0  0  0  0  0  0  0  0  0  0
   38.9440   26.5640   33.5080 C   0  0  2  0  0  0  0  0  0  0  0  0
   34.7750   23.7500   30.9540 H   0  0  0  0  0  0  0  0  0  0  0  0
   35.4770   21.7270   32.2010 H   0  0  0  0  0  0  0  0  0  0  0  0
   37.6280   21.7610   33.5100 H   0  0  0  0  0  0  0  0  0  0  0  0
   38.5220   26.1180   30.1760 H   0  0  0  0  0  0  0  0  0  0  0  0
   37.9140   27.5920   31.0080 H   0  0  0  0  0  0  0  0  0  0  0  0
   39.9680   28.5610   31.1960 H   0  0  0  0  0  0  0  0  0  0  0  0
   40.4640   27.2630   30.0140 H   0  0  0  0  0  0  0  0  0  0  0  0
   40.7750   25.7030   31.9380 H   0  0  0  0  0  0  0  0  0  0  0  0
   41.9660   27.1020   31.9670 H   0  0  0  0  0  0  0  0  0  0  0  0
   40.9700   27.0720   34.2370 H   0  0  0  0  0  0  0  0  0  0  0  0
   40.1480   28.3060   33.2960 H   0  0  0  0  0  0  0  0  0  0  0  0
   38.1910   27.4130   33.7700 H   0  0  0  0  0  0  0  0  0  0  0  0
   37.8350   25.4750   35.5920 C   0  0  0  0  0  3  0  0  0  0  0  0
   38.8470   25.6830   34.6810 C   0  0  0  0  0  0  0  0  0  0  0  0
   39.9510   24.8520   34.9340 C   0  0  0  0  0  0  0  0  0  0  0  0
   40.8320   24.9180   34.2770 H   0  0  0  0  0  0  0  0  0  0  0  0
   40.0470   23.9310   35.9570 C   0  0  0  0  0  0  0  0  0  0  0  0
   41.0150   23.0820   36.3220 N   0  0  0  0  0  0  0  0  0  0  0  0
   41.9540   22.9670   35.8400 H   0  0  0  0  0  0  0  0  0  0  0  0
   40.5720   22.4140   37.4010 C   0  0  0  0  0  0  0  0  0  0  0  0
   41.1290   21.6580   37.9270 H   0  0  0  0  0  0  0  0  0  0  0  0
   39.3090   22.8330   37.7390 C   0  0  0  0  0  3  0  0  0  0  0  0
   38.9760   23.8010   36.8170 C   0  0  0  0  0  0  0  0  0  0  0  0
   37.8840   24.5820   36.6140 C   0  0  0  0  0  3  0  0  0  0  0  0
  1  6  2  0  0  0  0
  1  2  1  0  0  0  0
  2  3  2  0  0  0  0
  3 15  1  0  0  0  0
  4  3  1  0  0  0  0
  5  7  1  0  0  0  0
  5  4  2  0  0  0  0
  6  5  1  0  0  0  0
  7 12  1  0  0  0  0
  8  7  1  0  0  0  0
  9  8  1  0  0  0  0
  9 18  1  0  0  0  0
  9 10  1  0  0  0  0
 10 11  1  0  0  0  0
 11 12  1  0  0  0  0
 11 22  1  0  0  0  0
 12 24  1  1  0  0  0
 12 26  1  0  0  0  0
 13  1  1  0  0  0  0
 14  2  1  0  0  0  0
 16  8  1  0  0  0  0
 17  8  1  0  0  0  0
 19  9  1  0  0  0  0
 20 10  1  0  0  0  0
 21 10  1  0  0  0  0
 23 11  1  0  0  0  0
 25 36  1  0  0  0  0
 26 27  1  0  0  0  0
 26 25  2  0  0  0  0
 27 29  2  0  0  0  0
 28 27  1  0  0  0  0
 29 30  1  0  0  0  0
 29 35  1  0  0  0  0
 30 32  1  0  0  0  0
 31 30  1  0  0  0  0
 32 34  2  0  0  0  0
 32 33  1  0  0  0  0
 35 34  1  0  0  0  0
 36 35  2  0  0  0  0
M  END
>  <minimizedAffinity>
-5.4582696

$$$$

 OpenBabel03262523233D

 36 39  0  0  1  0  0  0  0  0999 V2000
   36.3850   21.7220   31.5900 C   0  0  0  0  0  0  0  0  0  0  0  0
   37.7160   21.2340   31.5620 C   0  0  0  0  0  0  0  0  0  0  0  0
   38.7620   22.1190   31.8600 C   0  0  0  0  0  0  0  0  0  0  0  0
   38.4230   23.3970   32.1540 N   0  0  0  0  0  0  0  0  0  0  0  0
   37.1640   23.8430   32.1770 C   0  0  0  0  0  0  0  0  0  0  0  0
   36.1280   23.0120   31.8930 N   0  0  0  0  0  0  0  0  0  0  0  0
   36.8820   25.2030   32.5110 N   0  0  0  0  0  0  0  0  0  0  0  0
   35.9430   25.9790   31.7140 C   0  0  0  0  0  0  0  0  0  0  0  0
   36.2720   27.4400   31.6090 C   0  0  0  0  0  0  0  0  0  0  0  0
   37.7290   27.6160   31.9530 C   0  0  0  0  0  0  0  0  0  0  0  0
   37.8420   27.2790   33.4350 C   0  0  0  0  0  0  0  0  0  0  0  0
   37.5090   25.8320   33.6330 C   0  0  2  0  0  0  0  0  0  0  0  0
   35.5450   21.0560   31.3620 H   0  0  0  0  0  0  0  0  0  0  0  0
   37.8730   20.2080   31.3170 H   0  0  0  0  0  0  0  0  0  0  0  0
   39.7740   21.7730   31.8460 H   0  0  0  0  0  0  0  0  0  0  0  0
   35.8090   25.5030   30.7210 H   0  0  0  0  0  0  0  0  0  0  0  0
   34.9650   25.9010   32.2580 H   0  0  0  0  0  0  0  0  0  0  0  0
   35.6370   28.0790   32.2810 H   0  0  0  0  0  0  0  0  0  0  0  0
   36.1240   27.7350   30.5560 H   0  0  0  0  0  0  0  0  0  0  0  0
   38.2870   26.8240   31.4050 H   0  0  0  0  0  0  0  0  0  0  0  0
   38.1090   28.6240   31.7250 H   0  0  0  0  0  0  0  0  0  0  0  0
   38.7370   27.6500   33.9170 H   0  0  0  0  0  0  0  0  0  0  0  0
   36.9960   27.8800   33.9000 H   0  0  0  0  0  0  0  0  0  0  0  0
   36.6780   25.7690   34.4470 H   0  0  0  0  0  0  0  0  0  0  0  0
   39.9680   25.0670   33.9870 C   0  0  0  0  0  3  0  0  0  0  0  0
   38.6190   25.1000   34.2610 C   0  0  0  0  0  0  0  0  0  0  0  0
   38.2970   24.3060   35.3750 C   0  0  0  0  0  0  0  0  0  0  0  0
   37.2470   24.2440   35.7020 H   0  0  0  0  0  0  0  0  0  0  0  0
   39.1920   23.5730   36.1250 C   0  0  0  0  0  0  0  0  0  0  0  0
   39.0420   22.7810   37.1940 N   0  0  0  0  0  0  0  0  0  0  0  0
   38.1250   22.5700   37.6860 H   0  0  0  0  0  0  0  0  0  0  0  0
   40.2610   22.3150   37.5190 C   0  0  0  0  0  0  0  0  0  0  0  0
   40.4650   21.6500   38.3400 H   0  0  0  0  0  0  0  0  0  0  0  0
   41.2070   22.8060   36.6540 C   0  0  0  0  0  3  0  0  0  0  0  0
   40.5240   23.6080   35.7660 C   0  0  0  0  0  0  0  0  0  0  0  0
   40.8860   24.3610   34.6950 C   0  0  0  0  0  3  0  0  0  0  0  0
  1  6  1  0  0  0  0
  2  1  2  0  0  0  0
  2  3  1  0  0  0  0
  3  4  2  0  0  0  0
  4  5  1  0  0  0  0
  5  7  1  0  0  0  0
  6  5  2  0  0  0  0
  7 12  1  0  0  0  0
  8 17  1  0  0  0  0
  8  7  1  0  0  0  0
  9  8  1  0  0  0  0
  9 10  1  0  0  0  0
  9 18  1  0  0  0  0
 10 11  1  0  0  0  0
 11 12  1  0  0  0  0
 11 23  1  0  0  0  0
 11 22  1  0  0  0  0
 12 26  1  0  0  0  0
 12 24  1  1  0  0  0
 13  1  1  0  0  0  0
 14  2  1  0  0  0  0
 15  3  1  0  0  0  0
 16  8  1  0  0  0  0
 19  9  1  0  0  0  0
 20 10  1  0  0  0  0
 21 10  1  0  0  0  0
 25 26  2  0  0  0  0
 25 36  1  0  0  0  0
 26 27  1  0  0  0  0
 27 28  1  0  0  0  0
 27 29  2  0  0  0  0
 29 30  1  0  0  0  0
 30 32  1  0  0  0  0
 30 31  1  0  0  0  0
 32 33  1  0  0  0  0
 34 32  2  0  0  0  0
 35 29  1  0  0  0  0
 35 34  1  0  0  0  0
 36 35  2  0  0  0  0
M  END
>  <minimizedAffinity>
-5.36966705

$$$$
