
 OpenBabel03272510193D

 39 43  0  0  0  0  0  0  0  0999 V2000
   32.8790   29.5070   46.7260 C   0  0  0  0  0  0  0  0  0  0  0  0
   31.9670   28.5010   46.5290 C   0  0  0  0  0  0  0  0  0  0  0  0
   30.9400   28.5930   45.6030 C   0  0  0  0  0  0  0  0  0  0  0  0
   30.8150   29.6970   44.8600 N   0  0  0  0  0  0  0  0  0  0  0  0
   31.6980   30.6860   45.0400 C   0  0  0  0  0  0  0  0  0  0  0  0
   32.6810   30.5780   45.9400 N   0  0  0  0  0  0  0  0  0  0  0  0
   32.0580   27.5900   47.1320 H   0  0  0  0  0  0  0  0  0  0  0  0
   30.2410   27.7570   45.4890 H   0  0  0  0  0  0  0  0  0  0  0  0
   31.5540   33.1720   44.8590 C   0  0  0  0  0  3  0  0  0  0  0  0
   31.6350   31.9280   44.2720 C   0  0  0  0  0  0  0  0  0  0  0  0
   31.6530   31.9490   42.8750 C   0  0  0  0  0  0  0  0  0  0  0  0
   31.7180   30.9590   42.4030 H   0  0  0  0  0  0  0  0  0  0  0  0
   31.5940   33.1140   42.1450 C   0  0  0  0  0  0  0  0  0  0  0  0
   31.6060   33.2370   40.8130 N   0  0  0  0  0  0  0  0  0  0  0  0
   31.6610   32.4630   40.0950 H   0  0  0  0  0  0  0  0  0  0  0  0
   31.5310   34.5480   40.5690 C   0  0  0  0  0  0  0  0  0  0  0  0
   31.5200   34.9860   39.5820 H   0  0  0  0  0  0  0  0  0  0  0  0
   31.4730   35.2660   41.7680 C   0  0  0  0  0  3  0  0  0  0  0  0
   31.5150   34.3250   42.7850 C   0  0  0  0  0  0  0  0  0  0  0  0
   31.4930   34.3610   44.1650 C   0  0  0  0  0  3  0  0  0  0  0  0
   37.4250   29.1680   50.8330 Br  0  0  0  0  0  0  0  0  0  0  0  0
   36.0340   29.3110   49.5390 C   0  0  0  0  0  0  0  0  0  0  0  0
   36.0320   30.3470   48.6070 C   0  0  0  0  0  0  0  0  0  0  0  0
   34.9990   30.3910   47.7050 C   0  0  0  0  0  0  0  0  0  0  0  0
   33.9710   29.4560   47.6850 C   0  0  0  0  0  0  0  0  0  0  0  0
   34.0030   28.4550   48.6110 C   0  0  0  0  0  0  0  0  0  0  0  0
   35.0310   28.3980   49.5210 C   0  0  0  0  0  0  0  0  0  0  0  0
   34.9320   31.1780   46.9410 H   0  0  0  0  0  0  0  0  0  0  0  0
   33.2370   27.6890   48.6590 H   0  0  0  0  0  0  0  0  0  0  0  0
   35.0490   27.6070   50.2470 H   0  0  0  0  0  0  0  0  0  0  0  0
   38.0190   33.2510   49.5870 C   0  0  0  0  0  0  0  0  0  0  0  0
   39.0800   33.2610   48.6340 C   0  0  0  0  0  0  0  0  0  0  0  0
   39.0870   32.2660   47.6760 C   0  0  0  0  0  0  0  0  0  0  0  0
   38.0880   31.3320   47.6870 N   0  0  0  0  0  0  0  0  0  0  0  0
   37.0910   31.3420   48.6000 C   0  0  0  0  0  0  0  0  0  0  0  0
   37.0740   32.3110   49.5430 N   0  0  0  0  0  0  0  0  0  0  0  0
   38.0570   34.0480   50.3160 H   0  0  0  0  0  0  0  0  0  0  0  0
   39.8780   33.9750   48.5950 H   0  0  0  0  0  0  0  0  0  0  0  0
   39.8270   32.1570   46.9010 H   0  0  0  0  0  0  0  0  0  0  0  0
  1 25  1  0  0  0  0
  2  1  1  0  0  0  0
  2  7  1  0  0  0  0
  3  2  2  0  0  0  0
  4  5  2  0  0  0  0
  4  3  1  0  0  0  0
  5  6  1  0  0  0  0
  6  1  2  0  0  0  0
  8  3  1  0  0  0  0
 10  9  1  0  0  0  0
 10  5  1  0  0  0  0
 11 10  2  0  0  0  0
 12 11  1  0  0  0  0
 13 19  2  0  0  0  0
 13 11  1  0  0  0  0
 14 13  1  0  0  0  0
 15 14  1  0  0  0  0
 16 14  1  0  0  0  0
 16 18  2  0  0  0  0
 17 16  1  0  0  0  0
 18 19  1  0  0  0  0
 19 20  1  0  0  0  0
 20  9  2  0  0  0  0
 22 21  1  0  0  0  0
 23 22  2  0  0  0  0
 24 23  1  0  0  0  0
 25 24  2  0  0  0  0
 25 26  1  0  0  0  0
 26 29  1  0  0  0  0
 26 27  2  0  0  0  0
 27 22  1  0  0  0  0
 27 30  1  0  0  0  0
 28 24  1  0  0  0  0
 31 37  1  0  0  0  0
 32 31  2  0  0  0  0
 33 34  2  0  0  0  0
 33 32  1  0  0  0  0
 34 35  1  0  0  0  0
 35 23  1  0  0  0  0
 35 36  2  0  0  0  0
 36 31  1  0  0  0  0
 38 32  1  0  0  0  0
 39 33  1  0  0  0  0
M  END
>  <minimizedAffinity>
-7.0407896

>  <minimizedRMSD>
0.69136256

$$$$
