
 OpenBabel03272510193D

 39 43  0  0  0  0  0  0  0  0999 V2000
   32.7670   29.2100   46.9810 C   0  0  0  0  0  0  0  0  0  0  0  0
   31.8530   28.1920   46.8920 C   0  0  0  0  0  0  0  0  0  0  0  0
   30.7950   28.2110   45.9970 C   0  0  0  0  0  0  0  0  0  0  0  0
   30.6400   29.2560   45.1780 N   0  0  0  0  0  0  0  0  0  0  0  0
   31.5250   30.2570   45.2520 C   0  0  0  0  0  0  0  0  0  0  0  0
   32.5390   30.2180   46.1230 N   0  0  0  0  0  0  0  0  0  0  0  0
   31.9680   27.3290   47.5580 H   0  0  0  0  0  0  0  0  0  0  0  0
   30.0950   27.3690   45.9710 H   0  0  0  0  0  0  0  0  0  0  0  0
   30.3360   31.7070   43.6030 C   0  0  0  0  0  3  0  0  0  0  0  0
   31.4310   31.4370   44.3950 C   0  0  0  0  0  0  0  0  0  0  0  0
   32.4510   32.3870   44.3100 C   0  0  0  0  0  0  0  0  0  0  0  0
   33.3260   32.1770   44.9390 H   0  0  0  0  0  0  0  0  0  0  0  0
   32.3700   33.5000   43.5050 C   0  0  0  0  0  0  0  0  0  0  0  0
   33.2880   34.4620   43.3560 N   0  0  0  0  0  0  0  0  0  0  0  0
   34.2300   34.5320   43.8290 H   0  0  0  0  0  0  0  0  0  0  0  0
   32.7700   35.3260   42.4790 C   0  0  0  0  0  0  0  0  0  0  0  0
   33.2650   36.2240   42.1390 H   0  0  0  0  0  0  0  0  0  0  0  0
   31.5020   34.9020   42.0650 C   0  0  0  0  0  3  0  0  0  0  0  0
   31.2520   33.7150   42.7390 C   0  0  0  0  0  0  0  0  0  0  0  0
   30.2140   32.8060   42.7840 C   0  0  0  0  0  3  0  0  0  0  0  0
   37.4530   29.1870   50.9410 Br  0  0  0  0  0  0  0  0  0  0  0  0
   36.0180   29.2310   49.6900 C   0  0  0  0  0  0  0  0  0  0  0  0
   35.9800   30.1940   48.6830 C   0  0  0  0  0  0  0  0  0  0  0  0
   34.9170   30.1680   47.8160 C   0  0  0  0  0  0  0  0  0  0  0  0
   33.8920   29.2330   47.9020 C   0  0  0  0  0  0  0  0  0  0  0  0
   33.9590   28.3050   48.8990 C   0  0  0  0  0  0  0  0  0  0  0  0
   35.0180   28.3180   49.7760 C   0  0  0  0  0  0  0  0  0  0  0  0
   34.8210   30.8940   46.9970 H   0  0  0  0  0  0  0  0  0  0  0  0
   33.1980   27.5440   49.0320 H   0  0  0  0  0  0  0  0  0  0  0  0
   35.0640   27.5850   50.5580 H   0  0  0  0  0  0  0  0  0  0  0  0
   38.0070   33.1490   49.3890 C   0  0  0  0  0  0  0  0  0  0  0  0
   39.0180   33.1020   48.3840 C   0  0  0  0  0  0  0  0  0  0  0  0
   38.9790   32.0530   47.4870 C   0  0  0  0  0  0  0  0  0  0  0  0
   37.9850   31.1220   47.6030 N   0  0  0  0  0  0  0  0  0  0  0  0
   37.0360   31.1850   48.5630 C   0  0  0  0  0  0  0  0  0  0  0  0
   37.0630   32.2080   49.4480 N   0  0  0  0  0  0  0  0  0  0  0  0
   38.0800   33.9870   50.0670 H   0  0  0  0  0  0  0  0  0  0  0  0
   39.8110   33.8130   48.2630 H   0  0  0  0  0  0  0  0  0  0  0  0
   39.6800   31.8990   46.6830 H   0  0  0  0  0  0  0  0  0  0  0  0
  1 25  1  0  0  0  0
  2  1  1  0  0  0  0
  2  7  1  0  0  0  0
  3  2  2  0  0  0  0
  4  5  2  0  0  0  0
  4  3  1  0  0  0  0
  5  6  1  0  0  0  0
  6  1  2  0  0  0  0
  8  3  1  0  0  0  0
  9 10  1  0  0  0  0
 10  5  1  0  0  0  0
 11 10  2  0  0  0  0
 11 12  1  0  0  0  0
 13 11  1  0  0  0  0
 14 13  1  0  0  0  0
 14 15  1  0  0  0  0
 16 14  1  0  0  0  0
 17 16  1  0  0  0  0
 18 16  2  0  0  0  0
 18 19  1  0  0  0  0
 19 20  1  0  0  0  0
 19 13  2  0  0  0  0
 20  9  2  0  0  0  0
 22 27  1  0  0  0  0
 22 21  1  0  0  0  0
 23 22  2  0  0  0  0
 24 25  2  0  0  0  0
 24 23  1  0  0  0  0
 25 26  1  0  0  0  0
 26 29  1  0  0  0  0
 26 27  2  0  0  0  0
 27 30  1  0  0  0  0
 28 24  1  0  0  0  0
 31 36  1  0  0  0  0
 31 37  1  0  0  0  0
 32 31  2  0  0  0  0
 33 34  2  0  0  0  0
 33 32  1  0  0  0  0
 34 35  1  0  0  0  0
 35 23  1  0  0  0  0
 35 36  2  0  0  0  0
 38 32  1  0  0  0  0
 39 33  1  0  0  0  0
M  END
>  <minimizedAffinity>
-6.78090191

>  <minimizedRMSD>
0.686883092

$$$$
