
 OpenBabel03272509493D

 36 39  0  0  0  0  0  0  0  0999 V2000
   37.3430   30.2040   51.4580 C   0  0  0  0  0  0  0  0  0  0  0  0
   37.9520   30.7740   50.3290 C   0  0  0  0  0  0  0  0  0  0  0  0
   37.4470   30.4860   49.0810 C   0  0  0  0  0  0  0  0  0  0  0  0
   36.3660   29.6500   49.0150 N   0  0  0  0  0  0  0  0  0  0  0  0
   35.7960   29.1120   50.1110 C   0  0  0  0  0  0  0  0  0  0  0  0
   36.2970   29.4000   51.3330 N   0  0  0  0  0  0  0  0  0  0  0  0
   37.7260   30.4210   52.4390 H   0  0  0  0  0  0  0  0  0  0  0  0
   38.7870   31.4170   50.4260 H   0  0  0  0  0  0  0  0  0  0  0  0
   37.7230   30.3190   46.6830 C   0  0  0  0  0  3  0  0  0  0  0  0
   37.9940   31.0170   47.8360 C   0  0  0  0  0  0  0  0  0  0  0  0
   38.7370   32.1470   47.8120 C   0  0  0  0  0  0  0  0  0  0  0  0
   38.9700   32.7140   48.6780 H   0  0  0  0  0  0  0  0  0  0  0  0
   39.2500   32.6430   46.6390 C   0  0  0  0  0  0  0  0  0  0  0  0
   40.0050   33.7190   46.3240 N   0  0  0  0  0  0  0  0  0  0  0  0
   40.3480   34.4130   47.0180 H   0  0  0  0  0  0  0  0  0  0  0  0
   40.2580   33.7810   45.0070 C   0  0  0  0  0  0  0  0  0  0  0  0
   40.8410   34.5570   44.5370 H   0  0  0  0  0  0  0  0  0  0  0  0
   39.6350   32.6900   44.4360 C   0  0  0  0  0  3  0  0  0  0  0  0
   39.0110   31.9810   45.4390 C   0  0  0  0  0  0  0  0  0  0  0  0
   38.2420   30.8210   45.4940 C   0  0  0  0  0  3  0  0  0  0  0  0
   34.7270   28.3020   49.8350 O   0  0  0  0  0  0  0  0  0  0  0  0
   33.8860   28.6660   48.7390 C   0  0  0  0  0  0  0  0  0  0  0  0
   34.5380   29.0560   47.9490 H   0  0  0  0  0  0  0  0  0  0  0  0
   33.1880   29.4760   49.0870 H   0  0  0  0  0  0  0  0  0  0  0  0
   33.0310   27.4980   48.3290 C   0  0  0  0  0  0  0  0  0  0  0  0
   33.1200   26.6390   49.0130 H   0  0  0  0  0  0  0  0  0  0  0  0
   33.3960   27.1930   47.3190 H   0  0  0  0  0  0  0  0  0  0  0  0
   31.6010   27.8770   48.1650 C   0  0  0  0  0  0  0  0  0  0  0  0
   30.7610   27.6280   49.2210 C   0  0  0  0  0  0  0  0  0  0  0  0
   29.4180   27.9410   49.1730 C   0  0  0  0  0  0  0  0  0  0  0  0
   28.9150   28.5020   48.0720 N   0  0  0  0  0  0  0  0  0  0  0  0
   29.7410   28.7450   47.0370 C   0  0  0  0  0  0  0  0  0  0  0  0
   31.0530   28.4500   47.0570 N   0  0  0  0  0  0  0  0  0  0  0  0
   31.0860   27.1800   50.1420 H   0  0  0  0  0  0  0  0  0  0  0  0
   28.7490   27.7400   50.0220 H   0  0  0  0  0  0  0  0  0  0  0  0
   29.3100   29.1990   46.1560 H   0  0  0  0  0  0  0  0  0  0  0  0
  1  7  1  0  0  0  0
  2  8  1  0  0  0  0
  2  1  2  0  0  0  0
  3  2  1  0  0  0  0
  4  3  2  0  0  0  0
  4  5  1  0  0  0  0
  5  6  2  0  0  0  0
  6  1  1  0  0  0  0
  9 10  1  0  0  0  0
 10  3  1  0  0  0  0
 11 10  2  0  0  0  0
 11 12  1  0  0  0  0
 13 11  1  0  0  0  0
 14 13  1  0  0  0  0
 14 15  1  0  0  0  0
 16 14  1  0  0  0  0
 17 16  1  0  0  0  0
 18 16  2  0  0  0  0
 18 19  1  0  0  0  0
 19 20  1  0  0  0  0
 19 13  2  0  0  0  0
 20  9  2  0  0  0  0
 21  5  1  0  0  0  0
 22 24  1  0  0  0  0
 22 21  1  0  0  0  0
 23 22  1  0  0  0  0
 25 22  1  0  0  0  0
 25 26  1  0  0  0  0
 27 25  1  0  0  0  0
 28 25  1  0  0  0  0
 28 29  1  0  0  0  0
 29 34  1  0  0  0  0
 30 29  2  0  0  0  0
 30 35  1  0  0  0  0
 31 30  1  0  0  0  0
 32 33  1  0  0  0  0
 32 31  2  0  0  0  0
 33 28  2  0  0  0  0
 36 32  1  0  0  0  0
M  END
>  <minimizedAffinity>
-6.73795748

>  <minimizedRMSD>
0.802706778

$$$$
