
 OpenBabel03262521543D

 42 45  0  0  1  0  0  0  0  0999 V2000
   32.8800   27.1220   48.0720 C   0  0  1  0  0  0  0  0  0  0  0  0
   33.5340   28.4600   48.2660 C   0  0  2  0  0  0  0  0  0  0  0  0
   33.9620   28.9520   46.9200 C   0  0  0  0  0  0  0  0  0  0  0  0
   33.6720   28.0740   45.8910 O   0  0  0  0  0  0  0  0  0  0  0  0
   32.3010   27.8120   45.8070 C   0  0  0  0  0  0  0  0  0  0  0  0
   31.7180   27.3210   47.1050 C   0  0  2  0  0  0  0  0  0  0  0  0
   32.4930   26.6920   49.0040 H   0  0  0  0  0  0  0  0  0  0  0  0
   32.7540   29.1390   48.6800 H   0  0  0  0  0  0  0  0  0  0  0  0
   35.0800   29.0510   46.9190 H   0  0  0  0  0  0  0  0  0  0  0  0
   33.5880   29.9400   46.6380 H   0  0  0  0  0  0  0  0  0  0  0  0
   31.8320   28.7470   45.4560 H   0  0  0  0  0  0  0  0  0  0  0  0
   32.1450   27.0210   45.0540 H   0  0  0  0  0  0  0  0  0  0  0  0
   31.1220   26.4040   46.9890 H   0  0  0  0  0  0  0  0  0  0  0  0
   33.7530   26.2100   47.4650 O   0  0  0  0  0  0  0  0  0  0  0  0
   34.5690   26.1670   48.0480 H   0  0  0  0  0  0  0  0  0  0  0  0
   34.9240   28.3790   49.4130 S   0  0  0  0  0  0  0  0  0  0  0  0
   35.2470   30.0090   50.1200 C   0  0  0  0  0  0  0  0  0  0  0  0
   34.6230   30.1110   51.0170 H   0  0  0  0  0  0  0  0  0  0  0  0
   34.9140   30.7700   49.3770 H   0  0  0  0  0  0  0  0  0  0  0  0
   36.9590   30.2750   50.5670 S   0  0  0  0  0  0  0  0  0  0  0  0
   37.7920   31.0720   49.2180 C   0  0  0  0  0  0  0  0  0  0  0  0
   38.2400   32.3540   49.4740 C   0  0  0  0  0  0  0  0  0  0  0  0
   38.9070   33.0550   48.4650 C   0  0  0  0  0  0  0  0  0  0  0  0
   39.0810   32.4200   47.2560 N   0  0  0  0  0  0  0  0  0  0  0  0
   38.6190   31.1610   47.0630 C   0  0  0  0  0  0  0  0  0  0  0  0
   37.9930   30.5030   48.0110 N   0  0  0  0  0  0  0  0  0  0  0  0
   38.1000   32.8500   50.4330 H   0  0  0  0  0  0  0  0  0  0  0  0
   39.2680   34.0610   48.6460 H   0  0  0  0  0  0  0  0  0  0  0  0
   38.8330   30.8010   46.0640 H   0  0  0  0  0  0  0  0  0  0  0  0
   30.9390   28.3160   47.6760 O   0  0  0  0  0  0  0  0  0  0  0  0
   28.6580   28.6830   48.0540 C   0  0  0  0  0  0  0  0  0  0  0  0
   29.8720   28.1780   48.5300 C   0  0  0  0  0  0  0  0  0  0  0  0
   29.8510   27.6070   49.7850 C   0  0  0  0  0  0  0  0  0  0  0  0
   30.7960   27.2210   50.1380 H   0  0  0  0  0  0  0  0  0  0  0  0
   28.6870   27.5410   50.5280 C   0  0  0  0  0  0  0  0  0  0  0  0
   28.4750   27.0280   51.7610 N   0  0  0  0  0  0  0  0  0  0  0  0
   29.1840   26.5740   52.3820 H   0  0  0  0  0  0  0  0  0  0  0  0
   27.1560   27.2080   52.0470 C   0  0  0  0  0  0  0  0  0  0  0  0
   26.7020   26.8870   52.9840 H   0  0  0  0  0  0  0  0  0  0  0  0
   26.5100   27.8390   51.0060 C   0  0  0  0  0  0  0  0  0  0  0  0
   27.4830   28.0460   50.0500 C   0  0  0  0  0  0  0  0  0  0  0  0
   27.4950   28.6200   48.7940 C   0  0  0  0  0  0  0  0  0  0  0  0
  1  2  1  0  0  0  0
  1  7  1  1  0  0  0
  2  8  1  1  0  0  0
  2 16  1  0  0  0  0
  3  2  1  0  0  0  0
  4  3  1  0  0  0  0
  5  4  1  0  0  0  0
  5  6  1  0  0  0  0
  6 13  1  6  0  0  0
  6 30  1  0  0  0  0
  6  1  1  0  0  0  0
  9  3  1  0  0  0  0
 10  3  1  0  0  0  0
 11  5  1  0  0  0  0
 12  5  1  0  0  0  0
 14 15  1  0  0  0  0
 14  1  1  0  0  0  0
 16 17  1  0  0  0  0
 17 20  1  0  0  0  0
 17 18  1  0  0  0  0
 19 17  1  0  0  0  0
 21 22  1  0  0  0  0
 21 20  1  0  0  0  0
 22 27  1  0  0  0  0
 23 28  1  0  0  0  0
 23 22  2  0  0  0  0
 24 23  1  0  0  0  0
 25 24  2  0  0  0  0
 25 26  1  0  0  0  0
 26 21  2  0  0  0  0
 29 25  1  0  0  0  0
 30 32  1  0  0  0  0
 31 32  2  0  0  0  0
 31 42  1  0  0  0  0
 32 33  1  0  0  0  0
 33 34  1  0  0  0  0
 33 35  2  0  0  0  0
 35 36  1  0  0  0  0
 36 38  1  0  0  0  0
 36 37  1  0  0  0  0
 38 39  1  0  0  0  0
 40 38  2  0  0  0  0
 41 35  1  0  0  0  0
 41 40  1  0  0  0  0
 42 41  2  0  0  0  0
M  END
>  <minimizedAffinity>
-6.27254105

>  <minimizedRMSD>
0.564763546

$$$$
