
 OpenBabel03272510193D

 39 43  0  0  0  0  0  0  0  0999 V2000
   32.8210   29.4290   46.7210 C   0  0  0  0  0  0  0  0  0  0  0  0
   31.9500   28.3930   46.4970 C   0  0  0  0  0  0  0  0  0  0  0  0
   30.9170   28.4690   45.5770 C   0  0  0  0  0  0  0  0  0  0  0  0
   30.7430   29.5880   44.8670 N   0  0  0  0  0  0  0  0  0  0  0  0
   31.5860   30.6060   45.0730 C   0  0  0  0  0  0  0  0  0  0  0  0
   32.5760   30.5130   45.9670 N   0  0  0  0  0  0  0  0  0  0  0  0
   32.0810   27.4690   47.0730 H   0  0  0  0  0  0  0  0  0  0  0  0
   30.2520   27.6090   45.4410 H   0  0  0  0  0  0  0  0  0  0  0  0
   31.6420   33.0990   44.9330 C   0  0  0  0  0  3  0  0  0  0  0  0
   31.4690   31.8670   44.3420 C   0  0  0  0  0  0  0  0  0  0  0  0
   31.1700   31.9190   42.9780 C   0  0  0  0  0  0  0  0  0  0  0  0
   31.0310   30.9380   42.5020 H   0  0  0  0  0  0  0  0  0  0  0  0
   31.0590   33.1010   42.2820 C   0  0  0  0  0  0  0  0  0  0  0  0
   30.7780   33.2530   40.9840 N   0  0  0  0  0  0  0  0  0  0  0  0
   30.5940   32.4950   40.2710 H   0  0  0  0  0  0  0  0  0  0  0  0
   30.7750   34.5720   40.7640 C   0  0  0  0  0  0  0  0  0  0  0  0
   30.5820   35.0320   39.8070 H   0  0  0  0  0  0  0  0  0  0  0  0
   31.0600   35.2630   41.9460 C   0  0  0  0  0  3  0  0  0  0  0  0
   31.2430   34.2980   42.9260 C   0  0  0  0  0  0  0  0  0  0  0  0
   31.5390   34.3050   44.2740 C   0  0  0  0  0  3  0  0  0  0  0  0
   37.3890   29.1640   50.8080 Br  0  0  0  0  0  0  0  0  0  0  0  0
   35.9910   29.2840   49.5200 C   0  0  0  0  0  0  0  0  0  0  0  0
   35.9890   30.2970   48.5630 C   0  0  0  0  0  0  0  0  0  0  0  0
   34.9520   30.3250   47.6660 C   0  0  0  0  0  0  0  0  0  0  0  0
   33.9190   29.3950   47.6740 C   0  0  0  0  0  0  0  0  0  0  0  0
   33.9510   28.4160   48.6230 C   0  0  0  0  0  0  0  0  0  0  0  0
   34.9830   28.3750   49.5290 C   0  0  0  0  0  0  0  0  0  0  0  0
   34.8840   31.0930   46.8840 H   0  0  0  0  0  0  0  0  0  0  0  0
   33.1810   27.6550   48.6940 H   0  0  0  0  0  0  0  0  0  0  0  0
   35.0020   27.6020   50.2730 H   0  0  0  0  0  0  0  0  0  0  0  0
   38.0220   33.1880   49.4890 C   0  0  0  0  0  0  0  0  0  0  0  0
   39.0530   33.1930   48.5040 C   0  0  0  0  0  0  0  0  0  0  0  0
   39.0260   32.2000   47.5440 C   0  0  0  0  0  0  0  0  0  0  0  0
   38.0230   31.2730   47.5830 N   0  0  0  0  0  0  0  0  0  0  0  0
   37.0540   31.2850   48.5260 C   0  0  0  0  0  0  0  0  0  0  0  0
   37.0700   32.2530   49.4720 N   0  0  0  0  0  0  0  0  0  0  0  0
   38.0860   33.9820   50.2170 H   0  0  0  0  0  0  0  0  0  0  0  0
   39.8540   33.9030   48.4420 H   0  0  0  0  0  0  0  0  0  0  0  0
   39.7420   32.0900   46.7470 H   0  0  0  0  0  0  0  0  0  0  0  0
  1 25  1  0  0  0  0
  2  1  1  0  0  0  0
  2  7  1  0  0  0  0
  3  2  2  0  0  0  0
  4  5  2  0  0  0  0
  4  3  1  0  0  0  0
  5  6  1  0  0  0  0
  6  1  2  0  0  0  0
  8  3  1  0  0  0  0
 10  9  1  0  0  0  0
 10  5  1  0  0  0  0
 11 10  2  0  0  0  0
 12 11  1  0  0  0  0
 13 19  2  0  0  0  0
 13 11  1  0  0  0  0
 14 13  1  0  0  0  0
 15 14  1  0  0  0  0
 16 14  1  0  0  0  0
 16 18  2  0  0  0  0
 17 16  1  0  0  0  0
 18 19  1  0  0  0  0
 19 20  1  0  0  0  0
 20  9  2  0  0  0  0
 22 27  1  0  0  0  0
 22 21  1  0  0  0  0
 23 22  2  0  0  0  0
 24 25  2  0  0  0  0
 24 23  1  0  0  0  0
 25 26  1  0  0  0  0
 26 29  1  0  0  0  0
 26 27  2  0  0  0  0
 27 30  1  0  0  0  0
 28 24  1  0  0  0  0
 31 37  1  0  0  0  0
 32 31  2  0  0  0  0
 33 34  2  0  0  0  0
 33 32  1  0  0  0  0
 34 35  1  0  0  0  0
 35 23  1  0  0  0  0
 35 36  2  0  0  0  0
 36 31  1  0  0  0  0
 38 32  1  0  0  0  0
 39 33  1  0  0  0  0
M  END
>  <minimizedAffinity>
-7.08873224

>  <minimizedRMSD>
0.728609443

$$$$
