
 OpenBabel03272502513D

 30 33  0  0  0  0  0  0  0  0999 V2000
   35.9770   30.2850   48.5570 C   0  0  0  0  0  0  0  0  0  0  0  0
   36.0340   29.2730   49.4980 C   0  0  0  0  0  0  0  0  0  0  0  0
   35.0540   28.3020   49.5620 C   0  0  0  0  0  0  0  0  0  0  0  0
   34.0370   28.4060   48.6450 C   0  0  0  0  0  0  0  0  0  0  0  0
   33.9600   29.4090   47.6940 C   0  0  0  0  0  0  0  0  0  0  0  0
   34.9590   30.3550   47.6680 N   0  0  0  0  0  0  0  0  0  0  0  0
   36.8490   29.1940   50.2290 H   0  0  0  0  0  0  0  0  0  0  0  0
   35.1100   27.5220   50.2970 H   0  0  0  0  0  0  0  0  0  0  0  0
   33.2680   27.6490   48.6910 H   0  0  0  0  0  0  0  0  0  0  0  0
   32.0520   28.4650   46.3970 C   0  0  0  0  0  0  0  0  0  0  0  0
   32.8790   29.5180   46.7210 C   0  0  0  0  0  0  0  0  0  0  0  0
   32.6360   30.6870   46.0770 C   0  0  0  0  0  0  0  0  0  0  0  0
   33.2740   31.5470   46.3090 H   0  0  0  0  0  0  0  0  0  0  0  0
   31.6370   30.8740   45.1450 C   0  0  0  0  0  0  0  0  0  0  0  0
   31.2610   31.9520   44.4220 N   0  0  0  0  0  0  0  0  0  0  0  0
   31.7370   32.9000   44.4800 H   0  0  0  0  0  0  0  0  0  0  0  0
   30.2230   31.5960   43.6560 C   0  0  0  0  0  0  0  0  0  0  0  0
   29.7040   32.2570   42.9630 H   0  0  0  0  0  0  0  0  0  0  0  0
   29.9400   30.2660   43.9060 C   0  0  0  0  0  0  0  0  0  0  0  0
   30.8360   29.7890   44.8560 C   0  0  0  0  0  0  0  0  0  0  0  0
   31.0210   28.5710   45.4680 C   0  0  0  0  0  0  0  0  0  0  0  0
   38.1160   33.0910   49.5190 C   0  0  0  0  0  0  0  0  0  0  0  0
   38.9970   33.2250   48.4480 C   0  0  0  0  0  0  0  0  0  0  0  0
   38.8380   32.3320   47.3960 C   0  0  0  0  0  0  0  0  0  0  0  0
   37.8400   31.3860   47.4690 N   0  0  0  0  0  0  0  0  0  0  0  0
   37.0210   31.2990   48.5150 C   0  0  0  0  0  0  0  0  0  0  0  0
   37.1650   32.1610   49.5460 N   0  0  0  0  0  0  0  0  0  0  0  0
   38.2810   33.8130   50.3180 H   0  0  0  0  0  0  0  0  0  0  0  0
   39.7900   33.9270   48.3190 H   0  0  0  0  0  0  0  0  0  0  0  0
   39.4620   32.3390   46.5140 H   0  0  0  0  0  0  0  0  0  0  0  0
  1  2  1  0  0  0  0
  2  3  2  0  0  0  0
  2  7  1  0  0  0  0
  3  8  1  0  0  0  0
  4  9  1  0  0  0  0
  4  3  1  0  0  0  0
  5  4  2  0  0  0  0
  6  5  1  0  0  0  0
  6  1  2  0  0  0  0
 10 11  1  0  0  0  0
 11  5  1  0  0  0  0
 12 13  1  0  0  0  0
 12 11  2  0  0  0  0
 14 12  1  0  0  0  0
 15 16  1  0  0  0  0
 15 14  1  0  0  0  0
 17 19  2  0  0  0  0
 17 15  1  0  0  0  0
 18 17  1  0  0  0  0
 19 20  1  0  0  0  0
 20 14  2  0  0  0  0
 20 21  1  0  0  0  0
 21 10  2  0  0  0  0
 22 27  1  0  0  0  0
 22 28  1  0  0  0  0
 23 22  2  0  0  0  0
 24 25  2  0  0  0  0
 24 23  1  0  0  0  0
 25 26  1  0  0  0  0
 26  1  1  0  0  0  0
 26 27  2  0  0  0  0
 29 23  1  0  0  0  0
 30 24  1  0  0  0  0
M  END
>  <minimizedAffinity>
-5.62494183

>  <minimizedRMSD>
0.655960202

$$$$
