
 OpenBabel03272509493D

 36 39  0  0  0  0  0  0  0  0999 V2000
   37.3050   30.1520   51.4110 C   0  0  0  0  0  0  0  0  0  0  0  0
   37.8370   30.7600   50.2630 C   0  0  0  0  0  0  0  0  0  0  0  0
   37.2280   30.5380   49.0470 C   0  0  0  0  0  0  0  0  0  0  0  0
   36.1250   29.7290   49.0320 N   0  0  0  0  0  0  0  0  0  0  0  0
   35.6310   29.1550   50.1460 C   0  0  0  0  0  0  0  0  0  0  0  0
   36.2340   29.3770   51.3350 N   0  0  0  0  0  0  0  0  0  0  0  0
   37.7700   30.3170   52.3660 H   0  0  0  0  0  0  0  0  0  0  0  0
   38.6930   31.3800   50.3200 H   0  0  0  0  0  0  0  0  0  0  0  0
   37.0650   30.6890   46.6380 C   0  0  0  0  0  3  0  0  0  0  0  0
   37.6880   31.1130   47.7870 C   0  0  0  0  0  0  0  0  0  0  0  0
   38.6860   32.0260   47.7460 C   0  0  0  0  0  0  0  0  0  0  0  0
   39.1930   32.3810   48.6070 H   0  0  0  0  0  0  0  0  0  0  0  0
   39.1150   32.5630   46.5580 C   0  0  0  0  0  0  0  0  0  0  0  0
   40.0640   33.4680   46.2230 N   0  0  0  0  0  0  0  0  0  0  0  0
   40.6810   33.9450   46.9110 H   0  0  0  0  0  0  0  0  0  0  0  0
   40.1100   33.6740   44.8980 C   0  0  0  0  0  0  0  0  0  0  0  0
   40.7920   34.3540   44.4120 H   0  0  0  0  0  0  0  0  0  0  0  0
   39.1430   32.8630   44.3410 C   0  0  0  0  0  3  0  0  0  0  0  0
   38.5240   32.1730   45.3610 C   0  0  0  0  0  0  0  0  0  0  0  0
   37.5000   31.2330   45.4360 C   0  0  0  0  0  3  0  0  0  0  0  0
   34.5240   28.3810   49.9210 O   0  0  0  0  0  0  0  0  0  0  0  0
   33.7740   28.6270   48.7310 C   0  0  0  0  0  0  0  0  0  0  0  0
   34.4950   28.8580   47.9390 H   0  0  0  0  0  0  0  0  0  0  0  0
   33.1120   29.5180   48.9110 H   0  0  0  0  0  0  0  0  0  0  0  0
   32.8680   27.4620   48.4370 C   0  0  0  0  0  0  0  0  0  0  0  0
   32.9760   26.6390   49.1610 H   0  0  0  0  0  0  0  0  0  0  0  0
   33.1660   27.0920   47.4260 H   0  0  0  0  0  0  0  0  0  0  0  0
   31.4410   27.8710   48.3330 C   0  0  0  0  0  0  0  0  0  0  0  0
   30.6650   27.7280   49.4550 C   0  0  0  0  0  0  0  0  0  0  0  0
   29.3290   28.0770   49.4680 C   0  0  0  0  0  0  0  0  0  0  0  0
   28.7710   28.5680   48.3590 N   0  0  0  0  0  0  0  0  0  0  0  0
   29.5350   28.7070   47.2600 C   0  0  0  0  0  0  0  0  0  0  0  0
   30.8370   28.3750   47.2200 N   0  0  0  0  0  0  0  0  0  0  0  0
   31.0370   27.3420   50.3860 H   0  0  0  0  0  0  0  0  0  0  0  0
   28.7110   27.9610   50.3690 H   0  0  0  0  0  0  0  0  0  0  0  0
   29.0600   29.1070   46.3750 H   0  0  0  0  0  0  0  0  0  0  0  0
  1  7  1  0  0  0  0
  2  8  1  0  0  0  0
  2  1  2  0  0  0  0
  3  2  1  0  0  0  0
  4  3  2  0  0  0  0
  4  5  1  0  0  0  0
  5  6  2  0  0  0  0
  6  1  1  0  0  0  0
  9 10  1  0  0  0  0
 10  3  1  0  0  0  0
 11 10  2  0  0  0  0
 11 12  1  0  0  0  0
 13 11  1  0  0  0  0
 14 13  1  0  0  0  0
 14 15  1  0  0  0  0
 16 14  1  0  0  0  0
 17 16  1  0  0  0  0
 18 16  2  0  0  0  0
 18 19  1  0  0  0  0
 19 20  1  0  0  0  0
 19 13  2  0  0  0  0
 20  9  2  0  0  0  0
 21  5  1  0  0  0  0
 22 24  1  0  0  0  0
 22 21  1  0  0  0  0
 23 22  1  0  0  0  0
 25 22  1  0  0  0  0
 25 26  1  0  0  0  0
 27 25  1  0  0  0  0
 28 25  1  0  0  0  0
 28 29  1  0  0  0  0
 29 30  2  0  0  0  0
 29 34  1  0  0  0  0
 30 35  1  0  0  0  0
 31 30  1  0  0  0  0
 32 31  2  0  0  0  0
 33 32  1  0  0  0  0
 33 28  2  0  0  0  0
 36 32  1  0  0  0  0
M  END
>  <minimizedAffinity>
-6.88905001

>  <minimizedRMSD>
0.686455071

$$$$
