
 OpenBabel03272510193D

 39 43  0  0  0  0  0  0  0  0999 V2000
   32.8180   29.2970   46.7980 C   0  0  0  0  0  0  0  0  0  0  0  0
   31.9360   28.2590   46.6340 C   0  0  0  0  0  0  0  0  0  0  0  0
   30.8960   28.2970   45.7190 C   0  0  0  0  0  0  0  0  0  0  0  0
   30.7270   29.3800   44.9540 N   0  0  0  0  0  0  0  0  0  0  0  0
   31.5800   30.4000   45.1010 C   0  0  0  0  0  0  0  0  0  0  0  0
   32.5770   30.3430   45.9900 N   0  0  0  0  0  0  0  0  0  0  0  0
   32.0640   27.3650   47.2560 H   0  0  0  0  0  0  0  0  0  0  0  0
   30.2230   27.4380   45.6330 H   0  0  0  0  0  0  0  0  0  0  0  0
   30.2630   32.2230   44.0170 C   0  0  0  0  0  3  0  0  0  0  0  0
   31.4680   31.6220   44.3060 C   0  0  0  0  0  0  0  0  0  0  0  0
   32.5820   32.2770   43.7740 C   0  0  0  0  0  0  0  0  0  0  0  0
   33.5450   31.8000   44.0020 H   0  0  0  0  0  0  0  0  0  0  0  0
   32.4840   33.4270   43.0250 C   0  0  0  0  0  0  0  0  0  0  0  0
   33.4860   34.1230   42.4760 N   0  0  0  0  0  0  0  0  0  0  0  0
   34.5200   33.9100   42.5230 H   0  0  0  0  0  0  0  0  0  0  0  0
   32.9110   35.1530   41.8490 C   0  0  0  0  0  0  0  0  0  0  0  0
   33.4480   35.9130   41.3000 H   0  0  0  0  0  0  0  0  0  0  0  0
   31.5210   35.1060   42.0050 C   0  0  0  0  0  3  0  0  0  0  0  0
   31.2550   33.9810   42.7710 C   0  0  0  0  0  0  0  0  0  0  0  0
   30.1210   33.3740   43.2720 C   0  0  0  0  0  3  0  0  0  0  0  0
   37.4190   29.1980   50.8550 Br  0  0  0  0  0  0  0  0  0  0  0  0
   36.0100   29.2660   49.5750 C   0  0  0  0  0  0  0  0  0  0  0  0
   35.9890   30.2530   48.5910 C   0  0  0  0  0  0  0  0  0  0  0  0
   34.9450   30.2440   47.7020 C   0  0  0  0  0  0  0  0  0  0  0  0
   33.9230   29.3020   47.7430 C   0  0  0  0  0  0  0  0  0  0  0  0
   33.9740   28.3510   48.7180 C   0  0  0  0  0  0  0  0  0  0  0  0
   35.0130   28.3460   49.6170 C   0  0  0  0  0  0  0  0  0  0  0  0
   34.8620   30.9890   46.8990 H   0  0  0  0  0  0  0  0  0  0  0  0
   33.2140   27.5830   48.8160 H   0  0  0  0  0  0  0  0  0  0  0  0
   35.0460   27.5950   50.3820 H   0  0  0  0  0  0  0  0  0  0  0  0
   38.0090   33.1760   49.4370 C   0  0  0  0  0  0  0  0  0  0  0  0
   39.0190   33.1810   48.4300 C   0  0  0  0  0  0  0  0  0  0  0  0
   38.9820   32.1760   47.4830 C   0  0  0  0  0  0  0  0  0  0  0  0
   37.9900   31.2380   47.5550 N   0  0  0  0  0  0  0  0  0  0  0  0
   37.0420   31.2520   48.5190 C   0  0  0  0  0  0  0  0  0  0  0  0
   37.0680   32.2310   49.4520 N   0  0  0  0  0  0  0  0  0  0  0  0
   38.0810   33.9810   50.1540 H   0  0  0  0  0  0  0  0  0  0  0  0
   39.8100   33.8990   48.3420 H   0  0  0  0  0  0  0  0  0  0  0  0
   39.6820   32.0630   46.6720 H   0  0  0  0  0  0  0  0  0  0  0  0
  1 25  1  0  0  0  0
  2  1  1  0  0  0  0
  2  7  1  0  0  0  0
  3  2  2  0  0  0  0
  4  5  2  0  0  0  0
  4  3  1  0  0  0  0
  5  6  1  0  0  0  0
  6  1  2  0  0  0  0
  8  3  1  0  0  0  0
  9 10  1  0  0  0  0
 10  5  1  0  0  0  0
 11 12  1  0  0  0  0
 11 10  2  0  0  0  0
 13 11  1  0  0  0  0
 14 15  1  0  0  0  0
 14 13  1  0  0  0  0
 16 18  2  0  0  0  0
 16 14  1  0  0  0  0
 17 16  1  0  0  0  0
 18 19  1  0  0  0  0
 19 13  2  0  0  0  0
 19 20  1  0  0  0  0
 20  9  2  0  0  0  0
 22 27  1  0  0  0  0
 22 21  1  0  0  0  0
 23 22  2  0  0  0  0
 24 25  2  0  0  0  0
 24 23  1  0  0  0  0
 25 26  1  0  0  0  0
 26 29  1  0  0  0  0
 26 27  2  0  0  0  0
 27 30  1  0  0  0  0
 28 24  1  0  0  0  0
 31 36  1  0  0  0  0
 31 37  1  0  0  0  0
 32 31  2  0  0  0  0
 33 34  2  0  0  0  0
 33 32  1  0  0  0  0
 34 35  1  0  0  0  0
 35 23  1  0  0  0  0
 35 36  2  0  0  0  0
 38 32  1  0  0  0  0
 39 33  1  0  0  0  0
M  END
>  <minimizedAffinity>
-6.96159124

>  <minimizedRMSD>
0.613471508

$$$$
