
 OpenBabel03262522383D

 30 33  0  0  0  0  0  0  0  0999 V2000
   35.9520   29.1010   34.0810 C   0  0  0  0  0  0  0  0  0  0  0  0
   36.0340   29.1780   32.7190 C   0  0  0  0  0  0  0  0  0  0  0  0
   36.6800   28.2390   31.9450 C   0  0  0  0  0  0  0  0  0  0  0  0
   37.2810   27.1630   32.5360 C   0  0  0  0  0  0  0  0  0  0  0  0
   37.1840   27.1120   33.9020 C   0  0  0  0  0  0  0  0  0  0  0  0
   36.5570   28.0240   34.6450 N   0  0  0  0  0  0  0  0  0  0  0  0
   35.5600   30.0300   32.2210 H   0  0  0  0  0  0  0  0  0  0  0  0
   36.7110   28.3540   30.8650 H   0  0  0  0  0  0  0  0  0  0  0  0
   37.7780   26.4470   31.9010 H   0  0  0  0  0  0  0  0  0  0  0  0
   38.6170   25.0430   34.0500 C   0  0  0  0  0  3  0  0  0  0  0  0
   37.7980   25.9970   34.6140 C   0  0  0  0  0  0  0  0  0  0  0  0
   37.6020   25.7920   35.9730 C   0  0  0  0  0  0  0  0  0  0  0  0
   36.9720   26.4820   36.5290 H   0  0  0  0  0  0  0  0  0  0  0  0
   38.1360   24.7720   36.7250 C   0  0  0  0  0  0  0  0  0  0  0  0
   38.0570   24.4270   38.0180 N   0  0  0  0  0  0  0  0  0  0  0  0
   37.5120   24.9310   38.7620 H   0  0  0  0  0  0  0  0  0  0  0  0
   38.8010   23.3160   38.1990 C   0  0  0  0  0  0  0  0  0  0  0  0
   38.9010   22.8320   39.1610 H   0  0  0  0  0  0  0  0  0  0  0  0
   39.3740   22.9290   37.0040 C   0  0  0  0  0  3  0  0  0  0  0  0
   38.9440   23.8630   36.0840 C   0  0  0  0  0  0  0  0  0  0  0  0
   39.1870   23.9950   34.7400 C   0  0  0  0  0  3  0  0  0  0  0  0
   35.1790   31.9520   36.4280 C   0  0  0  0  0  0  0  0  0  0  0  0
   35.9500   31.0510   35.6750 C   0  0  0  0  0  0  0  0  0  0  0  0
   35.2720   30.0920   34.9070 C   0  0  0  0  0  0  0  0  0  0  0  0
   33.9270   30.0950   34.9400 N   0  0  0  0  0  0  0  0  0  0  0  0
   33.2030   30.9770   35.6760 C   0  0  0  0  0  0  0  0  0  0  0  0
   33.8350   31.8900   36.4080 N   0  0  0  0  0  0  0  0  0  0  0  0
   35.7700   32.6550   36.9900 H   0  0  0  0  0  0  0  0  0  0  0  0
   37.0260   31.0470   35.6470 H   0  0  0  0  0  0  0  0  0  0  0  0
   32.1250   30.9520   35.6800 H   0  0  0  0  0  0  0  0  0  0  0  0
  1  6  1  0  0  0  0
  1 24  1  0  0  0  0
  2  1  2  0  0  0  0
  3  4  2  0  0  0  0
  3  2  1  0  0  0  0
  4  5  1  0  0  0  0
  5 11  1  0  0  0  0
  5  6  2  0  0  0  0
  7  2  1  0  0  0  0
  8  3  1  0  0  0  0
  9  4  1  0  0  0  0
 10 11  2  0  0  0  0
 10 21  1  0  0  0  0
 11 12  1  0  0  0  0
 12 13  1  0  0  0  0
 12 14  2  0  0  0  0
 14 15  1  0  0  0  0
 15 17  1  0  0  0  0
 15 16  1  0  0  0  0
 17 18  1  0  0  0  0
 19 17  2  0  0  0  0
 20 14  1  0  0  0  0
 20 19  1  0  0  0  0
 21 20  2  0  0  0  0
 22 28  1  0  0  0  0
 23 22  2  0  0  0  0
 24 25  2  0  0  0  0
 24 23  1  0  0  0  0
 25 26  1  0  0  0  0
 26 30  1  0  0  0  0
 26 27  2  0  0  0  0
 27 22  1  0  0  0  0
 29 23  1  0  0  0  0
M  END
>  <minimizedAffinity>
-5.85710287

$$$$

 OpenBabel03262522383D

 30 33  0  0  0  0  0  0  0  0999 V2000
   39.9890   22.9250   36.7970 C   0  0  0  0  0  0  0  0  0  0  0  0
   39.4600   22.9060   38.0570 C   0  0  0  0  0  0  0  0  0  0  0  0
   38.4430   23.7420   38.4620 C   0  0  0  0  0  0  0  0  0  0  0  0
   37.9130   24.6480   37.5870 C   0  0  0  0  0  0  0  0  0  0  0  0
   38.4640   24.6450   36.3320 C   0  0  0  0  0  0  0  0  0  0  0  0
   39.4480   23.8330   35.9460 N   0  0  0  0  0  0  0  0  0  0  0  0
   39.8670   22.1890   38.7760 H   0  0  0  0  0  0  0  0  0  0  0  0
   38.0620   23.6800   39.4780 H   0  0  0  0  0  0  0  0  0  0  0  0
   37.1180   25.2880   37.9370 H   0  0  0  0  0  0  0  0  0  0  0  0
   37.6910   26.9150   35.5540 C   0  0  0  0  0  3  0  0  0  0  0  0
   37.9570   25.5820   35.3350 C   0  0  0  0  0  0  0  0  0  0  0  0
   37.6890   25.1940   34.0300 C   0  0  0  0  0  0  0  0  0  0  0  0
   37.8600   24.1620   33.7360 H   0  0  0  0  0  0  0  0  0  0  0  0
   37.2110   26.0030   33.0250 C   0  0  0  0  0  0  0  0  0  0  0  0
   36.9010   25.8040   31.7360 N   0  0  0  0  0  0  0  0  0  0  0  0
   36.9780   24.8970   31.2120 H   0  0  0  0  0  0  0  0  0  0  0  0
   36.4710   26.9770   31.2260 C   0  0  0  0  0  0  0  0  0  0  0  0
   36.1580   27.0850   30.1960 H   0  0  0  0  0  0  0  0  0  0  0  0
   36.5010   27.9570   32.1970 C   0  0  0  0  0  3  0  0  0  0  0  0
   36.9720   27.3230   33.3280 C   0  0  0  0  0  0  0  0  0  0  0  0
   37.2120   27.7840   34.5980 C   0  0  0  0  0  3  0  0  0  0  0  0
   42.8410   20.4560   36.6980 C   0  0  0  0  0  0  0  0  0  0  0  0
   41.8290   21.2640   37.2430 C   0  0  0  0  0  0  0  0  0  0  0  0
   41.0680   22.0450   36.3610 C   0  0  0  0  0  0  0  0  0  0  0  0
   41.3530   21.9710   35.0480 N   0  0  0  0  0  0  0  0  0  0  0  0
   42.3370   21.1820   34.5440 C   0  0  0  0  0  0  0  0  0  0  0  0
   43.0650   20.4370   35.3700 N   0  0  0  0  0  0  0  0  0  0  0  0
   43.3810   19.8890   37.4360 H   0  0  0  0  0  0  0  0  0  0  0  0
   41.6000   21.3240   38.2930 H   0  0  0  0  0  0  0  0  0  0  0  0
   42.5390   21.1460   33.4850 H   0  0  0  0  0  0  0  0  0  0  0  0
  1  2  1  0  0  0  0
  2  3  2  0  0  0  0
  2  7  1  0  0  0  0
  3  8  1  0  0  0  0
  4  9  1  0  0  0  0
  4  3  1  0  0  0  0
  5  4  2  0  0  0  0
  6  5  1  0  0  0  0
  6  1  2  0  0  0  0
 11 10  1  0  0  0  0
 11  5  1  0  0  0  0
 12 11  2  0  0  0  0
 13 12  1  0  0  0  0
 14 20  2  0  0  0  0
 14 12  1  0  0  0  0
 15 14  1  0  0  0  0
 16 15  1  0  0  0  0
 17 15  1  0  0  0  0
 17 19  2  0  0  0  0
 18 17  1  0  0  0  0
 19 20  1  0  0  0  0
 20 21  1  0  0  0  0
 21 10  2  0  0  0  0
 22 23  1  0  0  0  0
 22 28  1  0  0  0  0
 23 29  1  0  0  0  0
 24  1  1  0  0  0  0
 24 23  2  0  0  0  0
 25 24  1  0  0  0  0
 26 25  2  0  0  0  0
 26 27  1  0  0  0  0
 27 22  2  0  0  0  0
 30 26  1  0  0  0  0
M  END
>  <minimizedAffinity>
-5.84954739

$$$$

 OpenBabel03262522383D

 30 33  0  0  0  0  0  0  0  0999 V2000
   37.0500   27.1210   33.8030 C   0  0  0  0  0  0  0  0  0  0  0  0
   37.1060   27.3340   32.4540 C   0  0  0  0  0  0  0  0  0  0  0  0
   36.5910   28.4560   31.8430 C   0  0  0  0  0  0  0  0  0  0  0  0
   35.9860   29.4250   32.5930 C   0  0  0  0  0  0  0  0  0  0  0  0
   35.9430   29.1850   33.9410 C   0  0  0  0  0  0  0  0  0  0  0  0
   36.4440   28.0970   34.5260 N   0  0  0  0  0  0  0  0  0  0  0  0
   37.5860   26.5720   31.8310 H   0  0  0  0  0  0  0  0  0  0  0  0
   36.6660   28.5700   30.7650 H   0  0  0  0  0  0  0  0  0  0  0  0
   35.5930   30.2910   32.0830 H   0  0  0  0  0  0  0  0  0  0  0  0
   35.9830   31.0810   35.6020 C   0  0  0  0  0  3  0  0  0  0  0  0
   35.3150   30.1690   34.8160 C   0  0  0  0  0  0  0  0  0  0  0  0
   33.9360   30.2740   34.9360 C   0  0  0  0  0  0  0  0  0  0  0  0
   33.2990   29.6050   34.3630 H   0  0  0  0  0  0  0  0  0  0  0  0
   33.2570   31.1660   35.7330 C   0  0  0  0  0  0  0  0  0  0  0  0
   31.9590   31.4050   35.9680 N   0  0  0  0  0  0  0  0  0  0  0  0
   31.1460   30.8960   35.5390 H   0  0  0  0  0  0  0  0  0  0  0  0
   31.8770   32.4170   36.8570 C   0  0  0  0  0  0  0  0  0  0  0  0
   30.9310   32.8030   37.2150 H   0  0  0  0  0  0  0  0  0  0  0  0
   33.1410   32.8460   37.2070 C   0  0  0  0  0  3  0  0  0  0  0  0
   34.0010   32.0440   36.4850 C   0  0  0  0  0  0  0  0  0  0  0  0
   35.3710   32.0030   36.4220 C   0  0  0  0  0  3  0  0  0  0  0  0
   38.3990   24.6730   36.3370 C   0  0  0  0  0  0  0  0  0  0  0  0
   37.8820   25.8760   35.8280 C   0  0  0  0  0  0  0  0  0  0  0  0
   37.5910   25.9350   34.4560 C   0  0  0  0  0  0  0  0  0  0  0  0
   37.8260   24.8380   33.7140 N   0  0  0  0  0  0  0  0  0  0  0  0
   38.3280   23.6850   34.2300 C   0  0  0  0  0  0  0  0  0  0  0  0
   38.6060   23.6170   35.5280 N   0  0  0  0  0  0  0  0  0  0  0  0
   38.5970   24.7060   37.3940 H   0  0  0  0  0  0  0  0  0  0  0  0
   37.6930   26.7550   36.4200 H   0  0  0  0  0  0  0  0  0  0  0  0
   38.5040   22.8220   33.6070 H   0  0  0  0  0  0  0  0  0  0  0  0
  1 24  1  0  0  0  0
  1  6  1  0  0  0  0
  2  1  2  0  0  0  0
  3  2  1  0  0  0  0
  3  4  2  0  0  0  0
  4  5  1  0  0  0  0
  5  6  2  0  0  0  0
  5 11  1  0  0  0  0
  7  2  1  0  0  0  0
  8  3  1  0  0  0  0
  9  4  1  0  0  0  0
 10 21  1  0  0  0  0
 11 12  1  0  0  0  0
 11 10  2  0  0  0  0
 12 14  2  0  0  0  0
 13 12  1  0  0  0  0
 14 15  1  0  0  0  0
 14 20  1  0  0  0  0
 15 17  1  0  0  0  0
 16 15  1  0  0  0  0
 17 19  2  0  0  0  0
 17 18  1  0  0  0  0
 20 19  1  0  0  0  0
 21 20  2  0  0  0  0
 22 28  1  0  0  0  0
 23 22  1  0  0  0  0
 23 29  1  0  0  0  0
 24 23  2  0  0  0  0
 25 26  2  0  0  0  0
 25 24  1  0  0  0  0
 26 27  1  0  0  0  0
 27 22  2  0  0  0  0
 30 26  1  0  0  0  0
M  END
>  <minimizedAffinity>
-5.83212328

$$$$

 OpenBabel03262522383D

 30 33  0  0  0  0  0  0  0  0999 V2000
   37.1910   27.0600   33.7750 C   0  0  0  0  0  0  0  0  0  0  0  0
   37.4850   27.3650   32.4750 C   0  0  0  0  0  0  0  0  0  0  0  0
   36.9950   28.4790   31.8300 C   0  0  0  0  0  0  0  0  0  0  0  0
   36.1700   29.3450   32.4920 C   0  0  0  0  0  0  0  0  0  0  0  0
   35.8920   29.0140   33.7920 C   0  0  0  0  0  0  0  0  0  0  0  0
   36.3700   27.9340   34.4110 N   0  0  0  0  0  0  0  0  0  0  0  0
   38.1450   26.6880   31.9230 H   0  0  0  0  0  0  0  0  0  0  0  0
   37.2650   28.6690   30.7950 H   0  0  0  0  0  0  0  0  0  0  0  0
   35.8040   30.2070   31.9580 H   0  0  0  0  0  0  0  0  0  0  0  0
   33.6430   29.9020   34.5050 C   0  0  0  0  0  3  0  0  0  0  0  0
   35.0190   29.8830   34.5730 C   0  0  0  0  0  0  0  0  0  0  0  0
   35.5180   30.8020   35.4850 C   0  0  0  0  0  0  0  0  0  0  0  0
   36.5930   30.8800   35.6270 H   0  0  0  0  0  0  0  0  0  0  0  0
   34.7750   31.6600   36.2620 C   0  0  0  0  0  0  0  0  0  0  0  0
   35.0810   32.5920   37.1760 N   0  0  0  0  0  0  0  0  0  0  0  0
   36.0470   32.8580   37.4910 H   0  0  0  0  0  0  0  0  0  0  0  0
   33.9280   33.1320   37.6220 C   0  0  0  0  0  0  0  0  0  0  0  0
   33.9010   33.9140   38.3690 H   0  0  0  0  0  0  0  0  0  0  0  0
   32.8520   32.5430   36.9890 C   0  0  0  0  0  3  0  0  0  0  0  0
   33.4070   31.6140   36.1330 C   0  0  0  0  0  0  0  0  0  0  0  0
   32.8350   30.7330   35.2510 C   0  0  0  0  0  3  0  0  0  0  0  0
   38.4090   24.6330   36.3940 C   0  0  0  0  0  0  0  0  0  0  0  0
   37.9100   25.8280   35.8510 C   0  0  0  0  0  0  0  0  0  0  0  0
   37.7050   25.8820   34.4640 C   0  0  0  0  0  0  0  0  0  0  0  0
   37.9980   24.7860   33.7410 N   0  0  0  0  0  0  0  0  0  0  0  0
   38.4800   23.6410   34.2890 C   0  0  0  0  0  0  0  0  0  0  0  0
   38.6780   23.5780   35.6020 N   0  0  0  0  0  0  0  0  0  0  0  0
   38.5400   24.6700   37.4620 H   0  0  0  0  0  0  0  0  0  0  0  0
   37.6740   26.7060   36.4280 H   0  0  0  0  0  0  0  0  0  0  0  0
   38.7050   22.7790   33.6810 H   0  0  0  0  0  0  0  0  0  0  0  0
  1  6  1  0  0  0  0
  1 24  1  0  0  0  0
  2  1  2  0  0  0  0
  3  2  1  0  0  0  0
  3  4  2  0  0  0  0
  4  5  1  0  0  0  0
  5  6  2  0  0  0  0
  5 11  1  0  0  0  0
  7  2  1  0  0  0  0
  8  3  1  0  0  0  0
  9  4  1  0  0  0  0
 10 11  2  0  0  0  0
 10 21  1  0  0  0  0
 11 12  1  0  0  0  0
 12 13  1  0  0  0  0
 12 14  2  0  0  0  0
 14 15  1  0  0  0  0
 15 16  1  0  0  0  0
 15 17  1  0  0  0  0
 17 18  1  0  0  0  0
 19 17  2  0  0  0  0
 20 14  1  0  0  0  0
 20 19  1  0  0  0  0
 21 20  2  0  0  0  0
 22 28  1  0  0  0  0
 23 22  1  0  0  0  0
 23 29  1  0  0  0  0
 24 23  2  0  0  0  0
 25 26  2  0  0  0  0
 25 24  1  0  0  0  0
 26 27  1  0  0  0  0
 27 22  2  0  0  0  0
 30 26  1  0  0  0  0
M  END
>  <minimizedAffinity>
-5.77299309

$$$$

 OpenBabel03262522383D

 30 33  0  0  0  0  0  0  0  0999 V2000
   38.1710   24.5960   34.7070 C   0  0  0  0  0  0  0  0  0  0  0  0
   38.4100   23.8740   33.5720 C   0  0  0  0  0  0  0  0  0  0  0  0
   38.1040   24.3280   32.3080 C   0  0  0  0  0  0  0  0  0  0  0  0
   37.5300   25.5570   32.1430 C   0  0  0  0  0  0  0  0  0  0  0  0
   37.2990   26.2580   33.2980 C   0  0  0  0  0  0  0  0  0  0  0  0
   37.5990   25.8130   34.5190 N   0  0  0  0  0  0  0  0  0  0  0  0
   38.8710   22.8870   33.6760 H   0  0  0  0  0  0  0  0  0  0  0  0
   38.3200   23.7080   31.4420 H   0  0  0  0  0  0  0  0  0  0  0  0
   37.3020   25.8820   31.1400 H   0  0  0  0  0  0  0  0  0  0  0  0
   36.3190   28.3590   34.2880 C   0  0  0  0  0  3  0  0  0  0  0  0
   36.6890   27.5800   33.2140 C   0  0  0  0  0  0  0  0  0  0  0  0
   36.4170   28.1900   31.9970 C   0  0  0  0  0  0  0  0  0  0  0  0
   36.6650   27.6710   31.0750 H   0  0  0  0  0  0  0  0  0  0  0  0
   35.8450   29.4280   31.8210 C   0  0  0  0  0  0  0  0  0  0  0  0
   35.5170   30.1580   30.7460 N   0  0  0  0  0  0  0  0  0  0  0  0
   35.6530   29.8810   29.7410 H   0  0  0  0  0  0  0  0  0  0  0  0
   34.9770   31.3170   31.1780 C   0  0  0  0  0  0  0  0  0  0  0  0
   34.6260   32.0850   30.5020 H   0  0  0  0  0  0  0  0  0  0  0  0
   34.9530   31.3430   32.5580 C   0  0  0  0  0  3  0  0  0  0  0  0
   35.5060   30.1410   32.9470 C   0  0  0  0  0  0  0  0  0  0  0  0
   35.7430   29.6060   34.1880 C   0  0  0  0  0  3  0  0  0  0  0  0
   39.7680   22.8790   37.6630 C   0  0  0  0  0  0  0  0  0  0  0  0
   39.5650   23.2640   36.3270 C   0  0  0  0  0  0  0  0  0  0  0  0
   38.4900   24.1220   36.0490 C   0  0  0  0  0  0  0  0  0  0  0  0
   37.7210   24.5220   37.0770 N   0  0  0  0  0  0  0  0  0  0  0  0
   37.9370   24.1360   38.3610 C   0  0  0  0  0  0  0  0  0  0  0  0
   38.9530   23.3230   38.6370 N   0  0  0  0  0  0  0  0  0  0  0  0
   40.6090   22.2200   37.7950 H   0  0  0  0  0  0  0  0  0  0  0  0
   40.1790   22.9440   35.5020 H   0  0  0  0  0  0  0  0  0  0  0  0
   37.3020   24.4760   39.1640 H   0  0  0  0  0  0  0  0  0  0  0  0
  1 24  1  0  0  0  0
  2  7  1  0  0  0  0
  2  1  2  0  0  0  0
  3  2  1  0  0  0  0
  4  3  2  0  0  0  0
  4  5  1  0  0  0  0
  5  6  2  0  0  0  0
  6  1  1  0  0  0  0
  8  3  1  0  0  0  0
  9  4  1  0  0  0  0
 11  5  1  0  0  0  0
 11 10  2  0  0  0  0
 12 11  1  0  0  0  0
 13 12  1  0  0  0  0
 14 12  2  0  0  0  0
 14 20  1  0  0  0  0
 15 17  1  0  0  0  0
 15 14  1  0  0  0  0
 16 15  1  0  0  0  0
 17 19  2  0  0  0  0
 18 17  1  0  0  0  0
 19 20  1  0  0  0  0
 20 21  2  0  0  0  0
 21 10  1  0  0  0  0
 22 28  1  0  0  0  0
 22 27  1  0  0  0  0
 23 22  2  0  0  0  0
 24 23  1  0  0  0  0
 24 25  2  0  0  0  0
 25 26  1  0  0  0  0
 26 27  2  0  0  0  0
 26 30  1  0  0  0  0
 29 23  1  0  0  0  0
M  END
>  <minimizedAffinity>
-5.71879673

$$$$

 OpenBabel03262522383D

 30 33  0  0  0  0  0  0  0  0999 V2000
   36.2500   27.5150   31.7000 C   0  0  0  0  0  0  0  0  0  0  0  0
   36.6710   28.2530   30.6280 C   0  0  0  0  0  0  0  0  0  0  0  0
   36.6400   29.6290   30.5990 C   0  0  0  0  0  0  0  0  0  0  0  0
   36.1710   30.3260   31.6760 C   0  0  0  0  0  0  0  0  0  0  0  0
   35.7540   29.5610   32.7340 C   0  0  0  0  0  0  0  0  0  0  0  0
   35.7870   28.2290   32.7570 N   0  0  0  0  0  0  0  0  0  0  0  0
   37.0530   27.7180   29.7530 H   0  0  0  0  0  0  0  0  0  0  0  0
   36.9900   30.1610   29.7180 H   0  0  0  0  0  0  0  0  0  0  0  0
   36.1600   31.4030   31.6200 H   0  0  0  0  0  0  0  0  0  0  0  0
   35.9350   31.1190   34.7090 C   0  0  0  0  0  3  0  0  0  0  0  0
   35.2370   30.2240   33.9270 C   0  0  0  0  0  0  0  0  0  0  0  0
   33.9490   30.0030   34.3940 C   0  0  0  0  0  0  0  0  0  0  0  0
   33.3000   29.3150   33.8580 H   0  0  0  0  0  0  0  0  0  0  0  0
   33.3780   30.5800   35.5040 C   0  0  0  0  0  0  0  0  0  0  0  0
   32.1760   30.4850   36.0900 N   0  0  0  0  0  0  0  0  0  0  0  0
   31.3740   29.8880   35.7670 H   0  0  0  0  0  0  0  0  0  0  0  0
   32.1750   31.2930   37.1710 C   0  0  0  0  0  0  0  0  0  0  0  0
   31.3160   31.3970   37.8200 H   0  0  0  0  0  0  0  0  0  0  0  0
   33.3960   31.9250   37.2920 C   0  0  0  0  0  3  0  0  0  0  0  0
   34.1440   31.4620   36.2290 C   0  0  0  0  0  0  0  0  0  0  0  0
   35.4280   31.7350   35.8330 C   0  0  0  0  0  3  0  0  0  0  0  0
   35.4990   23.8580   31.1570 C   0  0  0  0  0  0  0  0  0  0  0  0
   35.3660   25.2510   31.0390 C   0  0  0  0  0  0  0  0  0  0  0  0
   36.2780   26.0580   31.7380 C   0  0  0  0  0  0  0  0  0  0  0  0
   37.2210   25.4470   32.4770 N   0  0  0  0  0  0  0  0  0  0  0  0
   37.3300   24.0970   32.5760 C   0  0  0  0  0  0  0  0  0  0  0  0
   36.4720   23.3220   31.9180 N   0  0  0  0  0  0  0  0  0  0  0  0
   34.7650   23.3080   30.5940 H   0  0  0  0  0  0  0  0  0  0  0  0
   34.6120   25.7420   30.4480 H   0  0  0  0  0  0  0  0  0  0  0  0
   38.0990   23.6390   33.1770 H   0  0  0  0  0  0  0  0  0  0  0  0
  1 24  1  0  0  0  0
  1  6  1  0  0  0  0
  2  1  2  0  0  0  0
  3  2  1  0  0  0  0
  3  4  2  0  0  0  0
  4  5  1  0  0  0  0
  5  6  2  0  0  0  0
  5 11  1  0  0  0  0
  7  2  1  0  0  0  0
  8  3  1  0  0  0  0
  9  4  1  0  0  0  0
 10 21  1  0  0  0  0
 11 12  1  0  0  0  0
 11 10  2  0  0  0  0
 12 14  2  0  0  0  0
 13 12  1  0  0  0  0
 14 15  1  0  0  0  0
 14 20  1  0  0  0  0
 15 17  1  0  0  0  0
 16 15  1  0  0  0  0
 17 19  2  0  0  0  0
 17 18  1  0  0  0  0
 20 19  1  0  0  0  0
 21 20  2  0  0  0  0
 22 27  1  0  0  0  0
 23 22  2  0  0  0  0
 23 24  1  0  0  0  0
 24 25  2  0  0  0  0
 25 26  1  0  0  0  0
 26 30  1  0  0  0  0
 27 26  2  0  0  0  0
 28 22  1  0  0  0  0
 29 23  1  0  0  0  0
M  END
>  <minimizedAffinity>
-5.70065069

$$$$

 OpenBabel03262522383D

 30 33  0  0  0  0  0  0  0  0999 V2000
   37.5660   27.8920   31.7410 C   0  0  0  0  0  0  0  0  0  0  0  0
   36.5970   28.7200   32.2370 C   0  0  0  0  0  0  0  0  0  0  0  0
   36.1160   28.6340   33.5240 C   0  0  0  0  0  0  0  0  0  0  0  0
   36.6070   27.6860   34.3760 C   0  0  0  0  0  0  0  0  0  0  0  0
   37.5750   26.8690   33.8520 C   0  0  0  0  0  0  0  0  0  0  0  0
   38.0380   26.9580   32.6050 N   0  0  0  0  0  0  0  0  0  0  0  0
   36.1880   29.4890   31.5740 H   0  0  0  0  0  0  0  0  0  0  0  0
   35.3450   29.3220   33.8620 H   0  0  0  0  0  0  0  0  0  0  0  0
   36.2080   27.6460   35.3780 H   0  0  0  0  0  0  0  0  0  0  0  0
   39.1550   24.9600   34.3150 C   0  0  0  0  0  3  0  0  0  0  0  0
   38.1550   25.8280   34.6930 C   0  0  0  0  0  0  0  0  0  0  0  0
   37.7330   25.6150   35.9980 C   0  0  0  0  0  0  0  0  0  0  0  0
   36.9450   26.2400   36.4110 H   0  0  0  0  0  0  0  0  0  0  0  0
   38.2180   24.6610   36.8630 C   0  0  0  0  0  0  0  0  0  0  0  0
   37.9360   24.3200   38.1280 N   0  0  0  0  0  0  0  0  0  0  0  0
   37.2150   24.7700   38.7460 H   0  0  0  0  0  0  0  0  0  0  0  0
   38.7400   23.2920   38.4710 C   0  0  0  0  0  0  0  0  0  0  0  0
   38.7090   22.8290   39.4480 H   0  0  0  0  0  0  0  0  0  0  0  0
   39.5610   22.9580   37.4130 C   0  0  0  0  0  3  0  0  0  0  0  0
   39.2170   23.8350   36.4050 C   0  0  0  0  0  0  0  0  0  0  0  0
   39.6890   23.9820   35.1250 C   0  0  0  0  0  3  0  0  0  0  0  0
   38.2170   28.9060   28.1650 C   0  0  0  0  0  0  0  0  0  0  0  0
   37.6430   28.9310   29.4480 C   0  0  0  0  0  0  0  0  0  0  0  0
   38.0790   27.9750   30.3780 C   0  0  0  0  0  0  0  0  0  0  0  0
   39.0180   27.0950   29.9850 N   0  0  0  0  0  0  0  0  0  0  0  0
   39.5570   27.0910   28.7390 C   0  0  0  0  0  0  0  0  0  0  0  0
   39.1530   27.9920   27.8490 N   0  0  0  0  0  0  0  0  0  0  0  0
   37.8310   29.6680   27.5090 H   0  0  0  0  0  0  0  0  0  0  0  0
   36.8920   29.6340   29.7640 H   0  0  0  0  0  0  0  0  0  0  0  0
   40.3100   26.3720   28.4560 H   0  0  0  0  0  0  0  0  0  0  0  0
  1  2  2  0  0  0  0
  1  6  1  0  0  0  0
  2  3  1  0  0  0  0
  3  8  1  0  0  0  0
  3  4  2  0  0  0  0
  4  9  1  0  0  0  0
  5  4  1  0  0  0  0
  5 11  1  0  0  0  0
  6  5  2  0  0  0  0
  7  2  1  0  0  0  0
 10 11  2  0  0  0  0
 10 21  1  0  0  0  0
 11 12  1  0  0  0  0
 12 13  1  0  0  0  0
 12 14  2  0  0  0  0
 14 15  1  0  0  0  0
 15 17  1  0  0  0  0
 15 16  1  0  0  0  0
 17 18  1  0  0  0  0
 19 17  2  0  0  0  0
 20 14  1  0  0  0  0
 20 19  1  0  0  0  0
 21 20  2  0  0  0  0
 22 23  1  0  0  0  0
 23 29  1  0  0  0  0
 23 24  2  0  0  0  0
 24  1  1  0  0  0  0
 25 24  1  0  0  0  0
 26 25  2  0  0  0  0
 27 22  2  0  0  0  0
 27 26  1  0  0  0  0
 28 22  1  0  0  0  0
 30 26  1  0  0  0  0
M  END
>  <minimizedAffinity>
-5.59696674

$$$$

 OpenBabel03262522383D

 30 33  0  0  0  0  0  0  0  0999 V2000
   38.0960   24.5700   34.7140 C   0  0  0  0  0  0  0  0  0  0  0  0
   38.2950   23.8120   33.5940 C   0  0  0  0  0  0  0  0  0  0  0  0
   37.9810   24.2430   32.3240 C   0  0  0  0  0  0  0  0  0  0  0  0
   37.4430   25.4850   32.1370 C   0  0  0  0  0  0  0  0  0  0  0  0
   37.2530   26.2220   33.2770 C   0  0  0  0  0  0  0  0  0  0  0  0
   37.5600   25.7990   34.5040 N   0  0  0  0  0  0  0  0  0  0  0  0
   38.7260   22.8140   33.7170 H   0  0  0  0  0  0  0  0  0  0  0  0
   38.1630   23.5950   31.4710 H   0  0  0  0  0  0  0  0  0  0  0  0
   37.2080   25.7910   31.1290 H   0  0  0  0  0  0  0  0  0  0  0  0
   36.3800   28.2060   31.9890 C   0  0  0  0  0  3  0  0  0  0  0  0
   36.6820   27.5600   33.1680 C   0  0  0  0  0  0  0  0  0  0  0  0
   36.3840   28.3270   34.2850 C   0  0  0  0  0  0  0  0  0  0  0  0
   36.5790   27.9230   35.2750 H   0  0  0  0  0  0  0  0  0  0  0  0
   35.8470   29.5930   34.2810 C   0  0  0  0  0  0  0  0  0  0  0  0
   35.5010   30.4620   35.2400 N   0  0  0  0  0  0  0  0  0  0  0  0
   35.5900   30.3110   36.2770 H   0  0  0  0  0  0  0  0  0  0  0  0
   35.0160   31.5710   34.6430 C   0  0  0  0  0  0  0  0  0  0  0  0
   34.6660   32.4290   35.2020 H   0  0  0  0  0  0  0  0  0  0  0  0
   35.0460   31.4220   33.2710 C   0  0  0  0  0  3  0  0  0  0  0  0
   35.5740   30.1650   33.0610 C   0  0  0  0  0  0  0  0  0  0  0  0
   35.8410   29.4710   31.9080 C   0  0  0  0  0  3  0  0  0  0  0  0
   39.6930   22.8840   37.6880 C   0  0  0  0  0  0  0  0  0  0  0  0
   39.4800   23.2410   36.3460 C   0  0  0  0  0  0  0  0  0  0  0  0
   38.4240   24.1200   36.0620 C   0  0  0  0  0  0  0  0  0  0  0  0
   37.6810   24.5660   37.0910 N   0  0  0  0  0  0  0  0  0  0  0  0
   37.9060   24.2050   38.3810 C   0  0  0  0  0  0  0  0  0  0  0  0
   38.9040   23.3730   38.6630 N   0  0  0  0  0  0  0  0  0  0  0  0
   40.5190   22.2070   37.8250 H   0  0  0  0  0  0  0  0  0  0  0  0
   40.0730   22.8860   35.5210 H   0  0  0  0  0  0  0  0  0  0  0  0
   37.2910   24.5820   39.1840 H   0  0  0  0  0  0  0  0  0  0  0  0
  1 24  1  0  0  0  0
  2  7  1  0  0  0  0
  2  1  2  0  0  0  0
  3  2  1  0  0  0  0
  4  3  2  0  0  0  0
  4  5  1  0  0  0  0
  5  6  2  0  0  0  0
  6  1  1  0  0  0  0
  8  3  1  0  0  0  0
  9  4  1  0  0  0  0
 10 11  1  0  0  0  0
 11  5  1  0  0  0  0
 11 12  2  0  0  0  0
 12 13  1  0  0  0  0
 14 12  1  0  0  0  0
 14 15  1  0  0  0  0
 15 16  1  0  0  0  0
 17 18  1  0  0  0  0
 17 15  1  0  0  0  0
 19 17  2  0  0  0  0
 20 19  1  0  0  0  0
 20 14  2  0  0  0  0
 21 10  2  0  0  0  0
 21 20  1  0  0  0  0
 22 28  1  0  0  0  0
 22 27  1  0  0  0  0
 23 22  2  0  0  0  0
 24 23  1  0  0  0  0
 24 25  2  0  0  0  0
 25 26  1  0  0  0  0
 26 27  2  0  0  0  0
 26 30  1  0  0  0  0
 29 23  1  0  0  0  0
M  END
>  <minimizedAffinity>
-5.55615759

$$$$

 OpenBabel03262522383D

 30 33  0  0  0  0  0  0  0  0999 V2000
   35.6130   29.8270   34.2290 C   0  0  0  0  0  0  0  0  0  0  0  0
   35.6840   30.1120   32.8930 C   0  0  0  0  0  0  0  0  0  0  0  0
   36.2920   29.2850   31.9750 C   0  0  0  0  0  0  0  0  0  0  0  0
   36.8640   28.1130   32.3840 C   0  0  0  0  0  0  0  0  0  0  0  0
   36.7790   27.8540   33.7270 C   0  0  0  0  0  0  0  0  0  0  0  0
   36.1880   28.6590   34.6110 N   0  0  0  0  0  0  0  0  0  0  0  0
   35.2330   31.0450   32.5400 H   0  0  0  0  0  0  0  0  0  0  0  0
   36.3160   29.5650   30.9250 H   0  0  0  0  0  0  0  0  0  0  0  0
   37.3320   27.4890   31.6390 H   0  0  0  0  0  0  0  0  0  0  0  0
   37.8150   26.4380   35.5370 C   0  0  0  0  0  3  0  0  0  0  0  0
   37.3630   26.6240   34.2490 C   0  0  0  0  0  0  0  0  0  0  0  0
   37.5200   25.4910   33.4630 C   0  0  0  0  0  0  0  0  0  0  0  0
   37.1990   25.5150   32.4240 H   0  0  0  0  0  0  0  0  0  0  0  0
   38.0590   24.2910   33.8660 C   0  0  0  0  0  0  0  0  0  0  0  0
   38.2830   23.1180   33.2570 N   0  0  0  0  0  0  0  0  0  0  0  0
   38.0620   22.8860   32.2560 H   0  0  0  0  0  0  0  0  0  0  0  0
   38.8440   22.2830   34.1560 C   0  0  0  0  0  0  0  0  0  0  0  0
   39.1240   21.2670   33.9130 H   0  0  0  0  0  0  0  0  0  0  0  0
   38.9880   22.9220   35.3720 C   0  0  0  0  0  3  0  0  0  0  0  0
   38.4850   24.1900   35.1690 C   0  0  0  0  0  0  0  0  0  0  0  0
   38.3650   25.2670   36.0110 C   0  0  0  0  0  3  0  0  0  0  0  0
   34.9480   32.3900   36.9170 C   0  0  0  0  0  0  0  0  0  0  0  0
   35.6820   31.6040   36.0120 C   0  0  0  0  0  0  0  0  0  0  0  0
   34.9730   30.6990   35.2070 C   0  0  0  0  0  0  0  0  0  0  0  0
   33.6370   30.6390   35.3520 N   0  0  0  0  0  0  0  0  0  0  0  0
   32.9500   31.4090   36.2350 C   0  0  0  0  0  0  0  0  0  0  0  0
   33.6100   32.2710   37.0020 N   0  0  0  0  0  0  0  0  0  0  0  0
   35.5600   33.0580   37.4980 H   0  0  0  0  0  0  0  0  0  0  0  0
   36.7510   31.6510   35.8940 H   0  0  0  0  0  0  0  0  0  0  0  0
   31.8770   31.3370   36.3250 H   0  0  0  0  0  0  0  0  0  0  0  0
  1  6  1  0  0  0  0
  1 24  1  0  0  0  0
  2  1  2  0  0  0  0
  3  4  2  0  0  0  0
  3  2  1  0  0  0  0
  4  5  1  0  0  0  0
  5 11  1  0  0  0  0
  5  6  2  0  0  0  0
  7  2  1  0  0  0  0
  8  3  1  0  0  0  0
  9  4  1  0  0  0  0
 10 21  1  0  0  0  0
 11 10  2  0  0  0  0
 12 14  2  0  0  0  0
 12 11  1  0  0  0  0
 13 12  1  0  0  0  0
 14 20  1  0  0  0  0
 15 14  1  0  0  0  0
 15 17  1  0  0  0  0
 16 15  1  0  0  0  0
 17 19  2  0  0  0  0
 18 17  1  0  0  0  0
 20 19  1  0  0  0  0
 20 21  2  0  0  0  0
 22 27  1  0  0  0  0
 22 28  1  0  0  0  0
 23 22  2  0  0  0  0
 24 25  2  0  0  0  0
 24 23  1  0  0  0  0
 25 26  1  0  0  0  0
 26 30  1  0  0  0  0
 26 27  2  0  0  0  0
 29 23  1  0  0  0  0
M  END
>  <minimizedAffinity>
-5.54347563

$$$$
