
 OpenBabel03272510193D

 39 43  0  0  0  0  0  0  0  0999 V2000
   32.8690   29.0990   46.9800 C   0  0  0  0  0  0  0  0  0  0  0  0
   31.9790   28.0580   46.9030 C   0  0  0  0  0  0  0  0  0  0  0  0
   30.9620   28.0100   45.9640 C   0  0  0  0  0  0  0  0  0  0  0  0
   30.8230   29.0090   45.0860 N   0  0  0  0  0  0  0  0  0  0  0  0
   31.6840   30.0310   45.1480 C   0  0  0  0  0  0  0  0  0  0  0  0
   32.6590   30.0580   46.0630 N   0  0  0  0  0  0  0  0  0  0  0  0
   32.0820   27.2320   47.6170 H   0  0  0  0  0  0  0  0  0  0  0  0
   30.2810   27.1520   45.9500 H   0  0  0  0  0  0  0  0  0  0  0  0
   30.5560   31.3530   43.3550 C   0  0  0  0  0  3  0  0  0  0  0  0
   31.6060   31.1640   44.2280 C   0  0  0  0  0  0  0  0  0  0  0  0
   32.5940   32.1490   44.1620 C   0  0  0  0  0  0  0  0  0  0  0  0
   33.4320   32.0040   44.8570 H   0  0  0  0  0  0  0  0  0  0  0  0
   32.5260   33.2190   43.2990 C   0  0  0  0  0  0  0  0  0  0  0  0
   33.4170   34.2070   43.1620 N   0  0  0  0  0  0  0  0  0  0  0  0
   34.3210   34.3370   43.6930 H   0  0  0  0  0  0  0  0  0  0  0  0
   32.9280   35.0070   42.2110 C   0  0  0  0  0  0  0  0  0  0  0  0
   33.4120   35.9070   41.8590 H   0  0  0  0  0  0  0  0  0  0  0  0
   31.7070   34.5150   41.7380 C   0  0  0  0  0  3  0  0  0  0  0  0
   31.4550   33.3530   42.4520 C   0  0  0  0  0  0  0  0  0  0  0  0
   30.4500   32.4070   42.4750 C   0  0  0  0  0  3  0  0  0  0  0  0
   37.3720   29.3790   51.1380 Br  0  0  0  0  0  0  0  0  0  0  0  0
   35.9940   29.3270   49.8240 C   0  0  0  0  0  0  0  0  0  0  0  0
   35.9940   30.2240   48.7570 C   0  0  0  0  0  0  0  0  0  0  0  0
   34.9710   30.1310   47.8470 C   0  0  0  0  0  0  0  0  0  0  0  0
   33.9510   29.1930   47.9470 C   0  0  0  0  0  0  0  0  0  0  0  0
   33.9800   28.3310   49.0040 C   0  0  0  0  0  0  0  0  0  0  0  0
   34.9980   28.4110   49.9240 C   0  0  0  0  0  0  0  0  0  0  0  0
   34.9060   30.8030   46.9800 H   0  0  0  0  0  0  0  0  0  0  0  0
   33.2200   27.5710   49.1510 H   0  0  0  0  0  0  0  0  0  0  0  0
   35.0150   27.7290   50.7520 H   0  0  0  0  0  0  0  0  0  0  0  0
   38.0080   33.2000   49.4130 C   0  0  0  0  0  0  0  0  0  0  0  0
   39.0200   33.1390   48.4110 C   0  0  0  0  0  0  0  0  0  0  0  0
   38.9870   32.0740   47.5330 C   0  0  0  0  0  0  0  0  0  0  0  0
   37.9960   31.1410   47.6640 N   0  0  0  0  0  0  0  0  0  0  0  0
   37.0450   31.2170   48.6210 C   0  0  0  0  0  0  0  0  0  0  0  0
   37.0670   32.2560   49.4880 N   0  0  0  0  0  0  0  0  0  0  0  0
   38.0760   34.0490   50.0760 H   0  0  0  0  0  0  0  0  0  0  0  0
   39.8110   33.8500   48.2780 H   0  0  0  0  0  0  0  0  0  0  0  0
   39.6900   31.9080   46.7320 H   0  0  0  0  0  0  0  0  0  0  0  0
  1 25  1  0  0  0  0
  2  1  1  0  0  0  0
  2  7  1  0  0  0  0
  3  2  2  0  0  0  0
  4  5  2  0  0  0  0
  4  3  1  0  0  0  0
  5  6  1  0  0  0  0
  6  1  2  0  0  0  0
  8  3  1  0  0  0  0
  9 10  1  0  0  0  0
 10  5  1  0  0  0  0
 11 10  2  0  0  0  0
 11 12  1  0  0  0  0
 13 11  1  0  0  0  0
 14 13  1  0  0  0  0
 14 15  1  0  0  0  0
 16 14  1  0  0  0  0
 17 16  1  0  0  0  0
 18 16  2  0  0  0  0
 18 19  1  0  0  0  0
 19 20  1  0  0  0  0
 19 13  2  0  0  0  0
 20  9  2  0  0  0  0
 22 27  1  0  0  0  0
 22 21  1  0  0  0  0
 23 22  2  0  0  0  0
 24 25  2  0  0  0  0
 24 23  1  0  0  0  0
 25 26  1  0  0  0  0
 26 29  1  0  0  0  0
 26 27  2  0  0  0  0
 27 30  1  0  0  0  0
 28 24  1  0  0  0  0
 31 36  1  0  0  0  0
 31 37  1  0  0  0  0
 32 31  2  0  0  0  0
 33 34  2  0  0  0  0
 33 32  1  0  0  0  0
 34 35  1  0  0  0  0
 35 23  1  0  0  0  0
 35 36  2  0  0  0  0
 38 32  1  0  0  0  0
 39 33  1  0  0  0  0
M  END
>  <minimizedAffinity>
-6.77407217

>  <minimizedRMSD>
0.994873822

$$$$
