
 OpenBabel03272510193D

 39 43  0  0  0  0  0  0  0  0999 V2000
   32.8770   29.0850   47.0030 C   0  0  0  0  0  0  0  0  0  0  0  0
   31.9800   28.0490   46.9400 C   0  0  0  0  0  0  0  0  0  0  0  0
   30.9620   27.9950   46.0010 C   0  0  0  0  0  0  0  0  0  0  0  0
   30.8310   28.9830   45.1100 N   0  0  0  0  0  0  0  0  0  0  0  0
   31.7000   30.0000   45.1580 C   0  0  0  0  0  0  0  0  0  0  0  0
   32.6740   30.0330   46.0730 N   0  0  0  0  0  0  0  0  0  0  0  0
   32.0760   27.2320   47.6650 H   0  0  0  0  0  0  0  0  0  0  0  0
   30.2750   27.1430   45.9990 H   0  0  0  0  0  0  0  0  0  0  0  0
   30.7450   31.1660   43.1670 C   0  0  0  0  0  3  0  0  0  0  0  0
   31.6290   31.1220   44.2230 C   0  0  0  0  0  0  0  0  0  0  0  0
   32.4580   32.2410   44.3280 C   0  0  0  0  0  0  0  0  0  0  0  0
   33.1640   32.2100   45.1680 H   0  0  0  0  0  0  0  0  0  0  0  0
   32.3970   33.3000   43.4510 C   0  0  0  0  0  0  0  0  0  0  0  0
   33.1440   34.4090   43.4680 N   0  0  0  0  0  0  0  0  0  0  0  0
   33.9050   34.6640   44.1550 H   0  0  0  0  0  0  0  0  0  0  0  0
   32.7290   35.1420   42.4300 C   0  0  0  0  0  0  0  0  0  0  0  0
   33.1340   36.1070   42.1620 H   0  0  0  0  0  0  0  0  0  0  0  0
   31.7020   34.4830   41.7460 C   0  0  0  0  0  3  0  0  0  0  0  0
   31.4950   33.2870   42.4180 C   0  0  0  0  0  0  0  0  0  0  0  0
   30.6510   32.2040   42.2680 C   0  0  0  0  0  3  0  0  0  0  0  0
   37.3810   29.3870   51.1580 Br  0  0  0  0  0  0  0  0  0  0  0  0
   36.0020   29.3280   49.8450 C   0  0  0  0  0  0  0  0  0  0  0  0
   36.0000   30.2220   48.7750 C   0  0  0  0  0  0  0  0  0  0  0  0
   34.9770   30.1240   47.8660 C   0  0  0  0  0  0  0  0  0  0  0  0
   33.9590   29.1840   47.9700 C   0  0  0  0  0  0  0  0  0  0  0  0
   33.9910   28.3250   49.0290 C   0  0  0  0  0  0  0  0  0  0  0  0
   35.0090   28.4100   49.9480 C   0  0  0  0  0  0  0  0  0  0  0  0
   34.9100   30.7930   46.9970 H   0  0  0  0  0  0  0  0  0  0  0  0
   33.2320   27.5640   49.1780 H   0  0  0  0  0  0  0  0  0  0  0  0
   35.0270   27.7310   50.7780 H   0  0  0  0  0  0  0  0  0  0  0  0
   38.0080   33.2040   49.4210 C   0  0  0  0  0  0  0  0  0  0  0  0
   39.0200   33.1420   48.4190 C   0  0  0  0  0  0  0  0  0  0  0  0
   38.9890   32.0740   47.5440 C   0  0  0  0  0  0  0  0  0  0  0  0
   38.0010   31.1390   47.6780 N   0  0  0  0  0  0  0  0  0  0  0  0
   37.0490   31.2170   48.6360 C   0  0  0  0  0  0  0  0  0  0  0  0
   37.0690   32.2580   49.4990 N   0  0  0  0  0  0  0  0  0  0  0  0
   38.0740   34.0560   50.0810 H   0  0  0  0  0  0  0  0  0  0  0  0
   39.8090   33.8550   48.2830 H   0  0  0  0  0  0  0  0  0  0  0  0
   39.6920   31.9070   46.7440 H   0  0  0  0  0  0  0  0  0  0  0  0
  1 25  1  0  0  0  0
  2  1  1  0  0  0  0
  2  7  1  0  0  0  0
  3  2  2  0  0  0  0
  4  5  2  0  0  0  0
  4  3  1  0  0  0  0
  5  6  1  0  0  0  0
  6  1  2  0  0  0  0
  8  3  1  0  0  0  0
  9 10  1  0  0  0  0
 10 11  2  0  0  0  0
 10  5  1  0  0  0  0
 11 12  1  0  0  0  0
 13 14  1  0  0  0  0
 13 11  1  0  0  0  0
 14 15  1  0  0  0  0
 16 14  1  0  0  0  0
 17 16  1  0  0  0  0
 18 19  1  0  0  0  0
 18 16  2  0  0  0  0
 19 13  2  0  0  0  0
 20 19  1  0  0  0  0
 20  9  2  0  0  0  0
 22 27  1  0  0  0  0
 22 21  1  0  0  0  0
 23 22  2  0  0  0  0
 24 25  2  0  0  0  0
 24 23  1  0  0  0  0
 25 26  1  0  0  0  0
 26 29  1  0  0  0  0
 26 27  2  0  0  0  0
 27 30  1  0  0  0  0
 28 24  1  0  0  0  0
 31 36  1  0  0  0  0
 31 37  1  0  0  0  0
 32 31  2  0  0  0  0
 33 34  2  0  0  0  0
 33 32  1  0  0  0  0
 34 35  1  0  0  0  0
 35 23  1  0  0  0  0
 35 36  2  0  0  0  0
 38 32  1  0  0  0  0
 39 33  1  0  0  0  0
M  END
>  <minimizedAffinity>
-6.82188606

>  <minimizedRMSD>
1.0427289

$$$$
