
 OpenBabel03272507583D

 29 31  0  0  0  0  0  0  0  0999 V2000
   37.0240   31.3340   48.5740 C   0  0  0  0  0  0  0  0  0  0  0  0
   37.1980   32.2850   49.5750 C   0  0  0  0  0  0  0  0  0  0  0  0
   38.1410   33.2810   49.4080 C   0  0  0  0  0  0  0  0  0  0  0  0
   38.9060   33.3520   48.2780 C   0  0  0  0  0  0  0  0  0  0  0  0
   38.7110   32.4000   47.3100 C   0  0  0  0  0  0  0  0  0  0  0  0
   37.7900   31.4160   47.4590 N   0  0  0  0  0  0  0  0  0  0  0  0
   36.6780   32.3710   50.5210 H   0  0  0  0  0  0  0  0  0  0  0  0
   38.3440   34.0570   50.1280 H   0  0  0  0  0  0  0  0  0  0  0  0
   39.6720   34.0440   47.9830 H   0  0  0  0  0  0  0  0  0  0  0  0
   35.1610   28.5510   50.2500 C   0  0  0  0  0  0  0  0  0  0  0  0
   36.1840   29.5030   49.9620 C   0  0  0  0  0  0  0  0  0  0  0  0
   36.0030   30.3570   48.8910 C   0  0  0  0  0  0  0  0  0  0  0  0
   34.8580   30.2490   48.1630 N   0  0  0  0  0  0  0  0  0  0  0  0
   33.9040   29.3250   48.4710 C   0  0  0  0  0  0  0  0  0  0  0  0
   34.0460   28.4880   49.4950 N   0  0  0  0  0  0  0  0  0  0  0  0
   32.7980   29.4100   47.5590 N   0  0  0  0  0  0  0  0  0  0  0  0
   35.2580   27.8640   51.0760 H   0  0  0  0  0  0  0  0  0  0  0  0
   32.9560   28.9790   46.6080 H   0  0  0  0  0  0  0  0  0  0  0  0
   32.0700   29.9110   48.0990 H   0  0  0  0  0  0  0  0  0  0  0  0
   37.3960   29.5240   50.8330 C   0  0  0  0  0  0  0  0  0  0  0  0
   38.5360   29.8100   50.0900 F   0  0  0  0  0  0  0  0  0  0  0  0
   37.2270   30.4950   51.7780 F   0  0  0  0  0  0  0  0  0  0  0  0
   37.6160   28.3260   51.4790 F   0  0  0  0  0  0  0  0  0  0  0  0
   39.3710   32.2010   45.9870 C   0  0  0  0  0  0  0  0  0  0  0  0
   39.4980   30.9620   45.5390 C   0  0  0  0  0  0  0  0  0  0  0  0
   39.2070   29.9790   45.9480 H   0  0  0  0  0  0  0  0  0  0  0  0
   40.0560   30.5520   44.3810 C   0  0  0  0  0  3  0  0  0  0  0  0
   40.5280   31.7290   43.6470 C   0  0  0  0  0  3  0  0  0  0  0  0
   40.0660   33.2060   44.7890 S   0  0  0  0  0  0  0  0  0  0  0  0
  1 12  1  0  0  0  0
  1  2  1  0  0  0  0
  2  7  1  0  0  0  0
  3  2  2  0  0  0  0
  3  8  1  0  0  0  0
  4  3  1  0  0  0  0
  5  6  1  0  0  0  0
  5  4  2  0  0  0  0
  6  1  2  0  0  0  0
  9  4  1  0  0  0  0
 10 17  1  0  0  0  0
 11 10  1  0  0  0  0
 11 20  1  0  0  0  0
 12 11  2  0  0  0  0
 13 14  2  0  0  0  0
 13 12  1  0  0  0  0
 14 15  1  0  0  0  0
 15 10  2  0  0  0  0
 16 19  1  0  0  0  0
 16 14  1  0  0  0  0
 18 16  1  0  0  0  0
 20 23  1  0  0  0  0
 20 22  1  0  0  0  0
 21 20  1  0  0  0  0
 24  5  1  0  0  0  0
 25 26  1  0  0  0  0
 25 24  2  0  0  0  0
 27 25  1  0  0  0  0
 28 27  2  0  0  0  0
 28 29  1  0  0  0  0
 29 24  1  0  0  0  0
M  END
>  <minimizedAffinity>
-7.05458164

>  <minimizedRMSD>
0.599695802

$$$$
