
 OpenBabel03272508353D

 28 30  0  0  0  0  0  0  0  0999 V2000
   37.7070   31.0950   48.1120 C   0  0  0  0  0  0  0  0  0  0  0  0
   37.0680   30.9330   46.9100 C   0  0  0  0  0  0  0  0  0  0  0  0
   37.7850   31.5960   45.9270 C   0  0  0  0  0  0  0  0  0  0  0  0
   38.8460   32.1420   46.5720 N   0  0  0  0  0  0  0  0  0  0  0  0
   38.8050   31.8470   47.8750 N   0  0  0  0  0  0  0  0  0  0  0  0
   36.1520   30.3930   46.6850 H   0  0  0  0  0  0  0  0  0  0  0  0
   37.5350   31.6510   44.8830 H   0  0  0  0  0  0  0  0  0  0  0  0
   37.3220   30.0480   51.7050 C   0  0  0  0  0  0  0  0  0  0  0  0
   37.8720   30.6290   50.5710 C   0  0  0  0  0  0  0  0  0  0  0  0
   37.2010   30.5170   49.3430 C   0  0  0  0  0  0  0  0  0  0  0  0
   36.0280   29.8300   49.3400 N   0  0  0  0  0  0  0  0  0  0  0  0
   35.5170   29.2710   50.4680 C   0  0  0  0  0  0  0  0  0  0  0  0
   36.1650   29.3840   51.6330 N   0  0  0  0  0  0  0  0  0  0  0  0
   37.9540   30.2240   52.5590 H   0  0  0  0  0  0  0  0  0  0  0  0
   38.8020   31.1880   50.5150 H   0  0  0  0  0  0  0  0  0  0  0  0
   34.5670   28.7210   50.4360 H   0  0  0  0  0  0  0  0  0  0  0  0
   39.8750   32.9430   45.8850 C   0  0  0  0  0  0  0  0  0  0  0  0
   40.4260   33.5820   46.5900 H   0  0  0  0  0  0  0  0  0  0  0  0
   39.3990   33.5660   45.1010 H   0  0  0  0  0  0  0  0  0  0  0  0
   40.8560   32.0140   45.2080 C   0  0  0  0  0  0  0  0  0  0  0  0
   41.8470   32.5070   45.0820 H   0  0  0  0  0  0  0  0  0  0  0  0
   40.9530   31.0430   45.6870 H   0  0  0  0  0  0  0  0  0  0  0  0
   40.3620   31.7700   43.8320 C   0  0  0  0  0  0  0  0  0  0  0  0
   39.6630   32.7050   43.0030 C   0  0  0  0  0  0  0  0  0  0  0  0
   39.4640   33.6910   43.3990 H   0  0  0  0  0  0  0  0  0  0  0  0
   39.3100   32.2330   41.7620 C   0  0  0  0  0  0  0  0  0  0  0  0
   39.6260   30.9740   41.4000 C   0  0  0  0  0  0  0  0  0  0  0  0
   40.4980   30.2740   42.8410 S   0  0  0  0  0  0  0  0  0  0  0  0
  1 10  1  0  0  0  0
  2  1  1  0  0  0  0
  3  4  1  0  0  0  0
  3  2  2  0  0  0  0
  4  5  1  0  0  0  0
  5  1  2  0  0  0  0
  6  2  1  0  0  0  0
  7  3  1  0  0  0  0
  8 14  1  0  0  0  0
  9  8  2  0  0  0  0
 10  9  1  0  0  0  0
 11 10  2  0  0  0  0
 11 12  1  0  0  0  0
 12 13  2  0  0  0  0
 13  8  1  0  0  0  0
 15  9  1  0  0  0  0
 16 12  1  0  0  0  0
 17  4  1  0  0  0  0
 17 18  1  0  0  0  0
 19 17  1  0  0  0  0
 20 22  1  0  0  0  0
 20 17  1  0  0  0  0
 21 20  1  0  0  0  0
 23 20  1  0  0  0  0
 24 25  1  0  0  0  0
 24 23  2  0  0  0  0
 26 24  1  0  0  0  0
 27 26  2  0  0  0  0
 27 28  1  0  0  0  0
 28 23  1  0  0  0  0
M  END
>  <minimizedAffinity>
-5.33695745

>  <minimizedRMSD>
2.49143314

$$$$
