
 OpenBabel03262520323D

 20 21  0  0  0  0  0  0  0  0999 V2000
   32.5040   27.7880   48.9630 C   0  0  0  0  0  3  0  0  0  0  0  0
   31.5240   27.7340   48.1180 C   0  0  0  0  0  3  0  0  0  0  0  0
   35.8540   29.2590   48.9750 C   0  0  0  0  0  0  0  0  0  0  0  0
   35.8370   30.0690   47.8290 C   0  0  0  0  0  0  0  0  0  0  0  0
   34.6580   30.0900   47.0720 C   0  0  0  0  0  0  0  0  0  0  0  0
   33.6030   29.3190   47.4990 N   0  0  0  0  0  0  0  0  0  0  0  0
   33.6770   28.5630   48.6030 C   0  0  0  0  0  0  0  0  0  0  0  0
   34.7950   28.5400   49.3250 N   0  0  0  0  0  0  0  0  0  0  0  0
   36.7990   29.3050   49.4940 H   0  0  0  0  0  0  0  0  0  0  0  0
   36.5990   30.6930   47.4270 H   0  0  0  0  0  0  0  0  0  0  0  0
   34.4780   30.6580   46.1650 H   0  0  0  0  0  0  0  0  0  0  0  0
   30.2300   27.0040   48.2740 C   0  0  0  0  0  0  0  0  0  0  0  0
   30.4670   26.0230   48.7310 H   0  0  0  0  0  0  0  0  0  0  0  0
   29.6190   27.5480   49.0280 H   0  0  0  0  0  0  0  0  0  0  0  0
   29.5930   26.8180   46.9950 C   0  0  0  0  0  0  0  0  0  0  0  0
   28.5800   26.0220   46.5130 C   0  0  0  0  0  0  0  0  0  0  0  0
   28.1530   25.3770   47.2670 H   0  0  0  0  0  0  0  0  0  0  0  0
   28.1920   26.0760   45.2130 C   0  0  0  0  0  3  0  0  0  0  0  0
   28.8520   26.9670   44.3730 C   0  0  0  0  0  3  0  0  0  0  0  0
   30.1070   27.7630   45.5570 S   0  0  0  0  0  0  0  0  0  0  0  0
  2 12  1  0  0  0  0
  2  1  2  0  0  0  0
  3  8  1  0  0  0  0
  3  9  1  0  0  0  0
  4  3  2  0  0  0  0
  5  6  2  0  0  0  0
  5  4  1  0  0  0  0
  6  7  1  0  0  0  0
  7  1  1  0  0  0  0
  7  8  2  0  0  0  0
 10  4  1  0  0  0  0
 11  5  1  0  0  0  0
 12 13  1  0  0  0  0
 12 14  1  0  0  0  0
 15 12  1  0  0  0  0
 16 15  2  0  0  0  0
 16 17  1  0  0  0  0
 18 16  1  0  0  0  0
 19 18  2  0  0  0  0
 19 20  1  0  0  0  0
 20 15  1  0  0  0  0
M  END
>  <minimizedAffinity>
-3.1474216

>  <minimizedRMSD>
4.2710762

$$$$
