
 OpenBabel03272509433D

 35 37  0  0  1  0  0  0  0  0999 V2000
   37.0440   30.9260   49.0210 C   0  0  0  0  0  0  0  0  0  0  0  0
   36.7760   31.8190   50.0580 C   0  0  0  0  0  0  0  0  0  0  0  0
   37.3730   33.0700   50.1220 C   0  0  0  0  0  0  0  0  0  0  0  0
   38.2710   33.4550   49.1190 C   0  0  0  0  0  0  0  0  0  0  0  0
   38.5230   32.5690   48.1090 C   0  0  0  0  0  0  0  0  0  0  0  0
   37.9080   31.3290   48.0830 C   0  0  0  0  0  0  0  0  0  0  0  0
   36.0810   31.5300   50.8400 H   0  0  0  0  0  0  0  0  0  0  0  0
   37.1150   33.6940   50.9510 H   0  0  0  0  0  0  0  0  0  0  0  0
   38.6730   34.4280   49.2560 H   0  0  0  0  0  0  0  0  0  0  0  0
   39.2370   33.0100   47.4140 H   0  0  0  0  0  0  0  0  0  0  0  0
   36.4480   29.6090   48.9730 C   0  0  2  0  0  0  0  0  0  0  0  0
   36.9700   29.0730   48.0900 H   0  0  0  0  0  0  0  0  0  0  0  0
   33.5750   30.1090   46.8040 C   0  0  0  0  0  0  0  0  0  0  0  0
   32.8850   28.9150   46.8810 C   0  0  0  0  0  0  0  0  0  0  0  0
   33.3660   27.9400   47.7340 C   0  0  0  0  0  0  0  0  0  0  0  0
   34.5060   28.1850   48.4690 N   0  0  0  0  0  0  0  0  0  0  0  0
   35.1210   29.3440   48.3480 C   0  0  0  0  0  0  0  0  0  0  0  0
   34.6630   30.3110   47.5210 N   0  0  0  0  0  0  0  0  0  0  0  0
   33.2250   30.9020   46.1410 H   0  0  0  0  0  0  0  0  0  0  0  0
   32.0060   28.8310   46.2590 H   0  0  0  0  0  0  0  0  0  0  0  0
   32.8240   27.0070   47.7950 H   0  0  0  0  0  0  0  0  0  0  0  0
   36.8870   28.8370   49.9030 O   0  0  0  0  0  0  0  0  0  0  0  0
   36.4300   28.6870   50.7480 H   0  0  0  0  0  0  0  0  0  0  0  0
   38.2950   30.4820   46.9790 C   0  0  0  0  0  3  0  0  0  0  0  0
   38.9900   30.9050   45.9190 C   0  0  0  0  0  3  0  0  0  0  0  0
   39.4800   30.1210   44.7620 C   0  0  0  0  0  0  0  0  0  0  0  0
   39.0550   29.0890   44.7830 H   0  0  0  0  0  0  0  0  0  0  0  0
   40.5990   30.0660   44.8050 H   0  0  0  0  0  0  0  0  0  0  0  0
   39.0510   30.9640   43.2360 S   0  0  0  0  0  0  0  0  0  0  0  0
   37.2940   31.2350   43.1570 C   0  0  0  0  0  0  0  0  0  0  0  0
   36.4880   30.1070   43.4700 C   0  0  0  0  0  0  0  0  0  0  0  0
   36.7060   29.0910   43.7540 H   0  0  0  0  0  0  0  0  0  0  0  0
   35.1320   30.1130   43.4660 C   0  0  0  0  0  3  0  0  0  0  0  0
   34.5200   31.3730   43.1150 C   0  0  0  0  0  3  0  0  0  0  0  0
   35.9860   32.5370   42.7930 S   0  0  0  0  0  0  0  0  0  0  0  0
  1  2  1  0  0  0  0
  2  3  2  0  0  0  0
  2  7  1  0  0  0  0
  3  8  1  0  0  0  0
  4  9  1  0  0  0  0
  4  3  1  0  0  0  0
  5  4  2  0  0  0  0
  6  5  1  0  0  0  0
  6  1  2  0  0  0  0
 10  5  1  0  0  0  0
 11 12  1  6  0  0  0
 11  1  1  0  0  0  0
 11 22  1  0  0  0  0
 13 14  2  0  0  0  0
 13 18  1  0  0  0  0
 14 15  1  0  0  0  0
 15 21  1  0  0  0  0
 15 16  2  0  0  0  0
 17 16  1  0  0  0  0
 17 11  1  0  0  0  0
 18 17  2  0  0  0  0
 19 13  1  0  0  0  0
 20 14  1  0  0  0  0
 22 23  1  0  0  0  0
 24  6  1  0  0  0  0
 25 24  2  0  0  0  0
 26 27  1  0  0  0  0
 26 28  1  0  0  0  0
 26 25  1  0  0  0  0
 29 26  1  0  0  0  0
 30 29  1  0  0  0  0
 30 31  2  0  0  0  0
 31 32  1  0  0  0  0
 33 31  1  0  0  0  0
 34 33  2  0  0  0  0
 35 34  1  0  0  0  0
 35 30  1  0  0  0  0
M  END
>  <minimizedAffinity>
-5.42847824

>  <minimizedRMSD>
0.362738818

$$$$
