
 OpenBabel03272502323D

 24 25  0  0  1  0  0  0  0  0999 V2000
   39.2160   22.5260   36.1700 C   0  0  2  0  0  0  0  0  0  0  0  0
   38.9490   21.6390   36.8580 H   0  0  0  0  0  0  0  0  0  0  0  0
   40.6270   22.6650   36.1900 C   0  0  0  0  0  0  0  0  0  0  0  0
   41.8180   22.1820   36.7800 C   0  0  0  0  0  0  0  0  0  0  0  0
   41.5650   21.4290   37.4940 H   0  0  0  0  0  0  0  0  0  0  0  0
   43.0160   22.7120   36.3730 C   0  0  0  0  0  3  0  0  0  0  0  0
   42.9680   23.7200   35.3730 C   0  0  0  0  0  3  0  0  0  0  0  0
   41.2100   23.8900   35.0420 S   0  0  0  0  0  0  0  0  0  0  0  0
   37.4360   21.8210   34.7420 C   0  0  0  0  0  3  0  0  0  0  0  0
   38.6770   22.1890   34.8120 C   0  0  0  0  0  3  0  0  0  0  0  0
   35.0450   20.2400   32.3510 C   0  0  0  0  0  0  0  0  0  0  0  0
   35.6930   20.6290   33.5270 C   0  0  0  0  0  0  0  0  0  0  0  0
   36.8150   21.4480   33.5040 C   0  0  0  0  0  0  0  0  0  0  0  0
   37.2420   21.8430   32.2940 N   0  0  0  0  0  0  0  0  0  0  0  0
   36.6300   21.4770   31.1680 C   0  0  0  0  0  0  0  0  0  0  0  0
   35.5420   20.6840   31.1750 N   0  0  0  0  0  0  0  0  0  0  0  0
   34.1740   19.6100   32.3810 H   0  0  0  0  0  0  0  0  0  0  0  0
   35.2370   20.2470   34.4240 H   0  0  0  0  0  0  0  0  0  0  0  0
   37.0510   21.8320   30.2500 H   0  0  0  0  0  0  0  0  0  0  0  0
   38.3270   23.9680   36.7890 S   0  0  0  0  0  0  0  0  0  0  0  0
   38.1180   23.8890   38.5680 C   0  0  0  0  0  0  0  0  0  0  0  0
   37.7410   25.1100   39.1150 F   0  0  0  0  0  0  0  0  0  0  0  0
   37.2900   22.8560   38.9620 F   0  0  0  0  0  0  0  0  0  0  0  0
   39.3870   23.5690   39.1140 F   0  0  0  0  0  0  0  0  0  0  0  0
  1  3  1  0  0  0  0
  1 20  1  0  0  0  0
  1  2  1  1  0  0  0
  3  4  2  0  0  0  0
  4  5  1  0  0  0  0
  6  4  1  0  0  0  0
  7  6  2  0  0  0  0
  8  7  1  0  0  0  0
  8  3  1  0  0  0  0
  9 10  2  0  0  0  0
 10  1  1  0  0  0  0
 11 17  1  0  0  0  0
 11 12  1  0  0  0  0
 12 18  1  0  0  0  0
 13 12  2  0  0  0  0
 13  9  1  0  0  0  0
 14 13  1  0  0  0  0
 15 16  1  0  0  0  0
 15 14  2  0  0  0  0
 16 11  2  0  0  0  0
 19 15  1  0  0  0  0
 20 21  1  0  0  0  0
 21 23  1  0  0  0  0
 21 24  1  0  0  0  0
 21 22  1  0  0  0  0
M  END
>  <minimizedAffinity>
-4.97144032

$$$$

 OpenBabel03272502323D

 24 25  0  0  1  0  0  0  0  0999 V2000
   38.7760   23.3630   35.4900 C   0  0  2  0  0  0  0  0  0  0  0  0
   39.7390   22.8050   35.7950 H   0  0  0  0  0  0  0  0  0  0  0  0
   39.1190   24.7270   35.3100 C   0  0  0  0  0  0  0  0  0  0  0  0
   38.7010   26.0560   35.5560 C   0  0  0  0  0  0  0  0  0  0  0  0
   37.7600   26.0310   36.0620 H   0  0  0  0  0  0  0  0  0  0  0  0
   39.5050   27.0860   35.1410 C   0  0  0  0  0  3  0  0  0  0  0  0
   40.7160   26.7350   34.4880 C   0  0  0  0  0  3  0  0  0  0  0  0
   40.6740   24.9380   34.4780 S   0  0  0  0  0  0  0  0  0  0  0  0
   37.3520   21.8150   34.3590 C   0  0  0  0  0  3  0  0  0  0  0  0
   38.2830   22.7100   34.2350 C   0  0  0  0  0  3  0  0  0  0  0  0
   35.0640   19.6850   32.3200 C   0  0  0  0  0  0  0  0  0  0  0  0
   35.6320   20.3930   33.3830 C   0  0  0  0  0  0  0  0  0  0  0  0
   36.8170   21.1020   33.2350 C   0  0  0  0  0  0  0  0  0  0  0  0
   37.3860   21.0700   32.0200 N   0  0  0  0  0  0  0  0  0  0  0  0
   36.8510   20.3980   31.0000 C   0  0  0  0  0  0  0  0  0  0  0  0
   35.7030   19.7060   31.1290 N   0  0  0  0  0  0  0  0  0  0  0  0
   34.1430   19.1440   32.4440 H   0  0  0  0  0  0  0  0  0  0  0  0
   35.0650   20.3390   34.2960 H   0  0  0  0  0  0  0  0  0  0  0  0
   37.3840   20.4200   30.0730 H   0  0  0  0  0  0  0  0  0  0  0  0
   37.5610   23.0770   36.7920 S   0  0  0  0  0  0  0  0  0  0  0  0
   38.2370   23.4580   38.4090 C   0  0  0  0  0  0  0  0  0  0  0  0
   38.0820   24.7960   38.7480 F   0  0  0  0  0  0  0  0  0  0  0  0
   37.7740   22.6070   39.3930 F   0  0  0  0  0  0  0  0  0  0  0  0
   39.6300   23.2110   38.3360 F   0  0  0  0  0  0  0  0  0  0  0  0
  1  2  1  1  0  0  0
  1 20  1  0  0  0  0
  3  1  1  0  0  0  0
  3  4  2  0  0  0  0
  4  5  1  0  0  0  0
  6  4  1  0  0  0  0
  7  6  2  0  0  0  0
  8  7  1  0  0  0  0
  8  3  1  0  0  0  0
 10  9  2  0  0  0  0
 10  1  1  0  0  0  0
 11 17  1  0  0  0  0
 11 12  1  0  0  0  0
 12 18  1  0  0  0  0
 13 12  2  0  0  0  0
 13  9  1  0  0  0  0
 14 13  1  0  0  0  0
 15 16  1  0  0  0  0
 15 14  2  0  0  0  0
 16 11  2  0  0  0  0
 19 15  1  0  0  0  0
 20 21  1  0  0  0  0
 21 22  1  0  0  0  0
 21 23  1  0  0  0  0
 24 21  1  0  0  0  0
M  END
>  <minimizedAffinity>
-4.91802073

$$$$

 OpenBabel03272502323D

 24 25  0  0  1  0  0  0  0  0999 V2000
   37.6700   22.5450   32.1560 C   0  0  2  0  0  0  0  0  0  0  0  0
   38.6250   21.9940   31.8150 H   0  0  0  0  0  0  0  0  0  0  0  0
   36.6060   21.6080   32.1150 C   0  0  0  0  0  0  0  0  0  0  0  0
   35.2300   21.4240   32.3870 C   0  0  0  0  0  0  0  0  0  0  0  0
   34.8360   22.3320   32.7900 H   0  0  0  0  0  0  0  0  0  0  0  0
   34.6620   20.2070   32.1120 C   0  0  0  0  0  3  0  0  0  0  0  0
   35.5110   19.2090   31.5640 C   0  0  0  0  0  3  0  0  0  0  0  0
   37.1040   20.0340   31.4600 S   0  0  0  0  0  0  0  0  0  0  0  0
   38.2320   22.1890   34.4490 C   0  0  0  0  0  3  0  0  0  0  0  0
   37.9450   23.0620   33.5350 C   0  0  0  0  0  3  0  0  0  0  0  0
   40.0530   22.6760   37.6710 C   0  0  0  0  0  0  0  0  0  0  0  0
   39.7480   22.3300   36.3510 C   0  0  0  0  0  0  0  0  0  0  0  0
   38.4880   22.5580   35.8110 C   0  0  0  0  0  0  0  0  0  0  0  0
   37.5840   23.1260   36.6240 N   0  0  0  0  0  0  0  0  0  0  0  0
   37.8660   23.4590   37.8840 C   0  0  0  0  0  0  0  0  0  0  0  0
   39.0820   23.2440   38.4200 N   0  0  0  0  0  0  0  0  0  0  0  0
   41.0340   22.4990   38.0770 H   0  0  0  0  0  0  0  0  0  0  0  0
   40.5700   21.8920   35.8130 H   0  0  0  0  0  0  0  0  0  0  0  0
   37.0760   23.8950   38.4590 H   0  0  0  0  0  0  0  0  0  0  0  0
   37.4480   23.9560   31.0550 S   0  0  0  0  0  0  0  0  0  0  0  0
   36.1510   25.0440   31.6460 C   0  0  0  0  0  0  0  0  0  0  0  0
   34.9070   24.4250   31.6690 F   0  0  0  0  0  0  0  0  0  0  0  0
   36.4650   25.6430   32.8500 F   0  0  0  0  0  0  0  0  0  0  0  0
   36.0610   26.1120   30.7190 F   0  0  0  0  0  0  0  0  0  0  0  0
  1  2  1  6  0  0  0
  1 10  1  0  0  0  0
  3  1  1  0  0  0  0
  3  4  2  0  0  0  0
  4  5  1  0  0  0  0
  6  4  1  0  0  0  0
  7  6  2  0  0  0  0
  8  7  1  0  0  0  0
  8  3  1  0  0  0  0
  9 13  1  0  0  0  0
 10  9  2  0  0  0  0
 11 17  1  0  0  0  0
 11 16  1  0  0  0  0
 12 11  2  0  0  0  0
 13 12  1  0  0  0  0
 13 14  2  0  0  0  0
 14 15  1  0  0  0  0
 15 16  2  0  0  0  0
 15 19  1  0  0  0  0
 18 12  1  0  0  0  0
 20 21  1  0  0  0  0
 20  1  1  0  0  0  0
 21 22  1  0  0  0  0
 21 23  1  0  0  0  0
 24 21  1  0  0  0  0
M  END
>  <minimizedAffinity>
-4.7911849

$$$$

 OpenBabel03272502323D

 24 25  0  0  1  0  0  0  0  0999 V2000
   39.7140   23.5680   35.1250 C   0  0  2  0  0  0  0  0  0  0  0  0
   39.7560   22.9920   34.1250 H   0  0  0  0  0  0  0  0  0  0  0  0
   41.0450   23.6810   35.6020 C   0  0  0  0  0  0  0  0  0  0  0  0
   42.0150   23.0880   36.4430 C   0  0  0  0  0  0  0  0  0  0  0  0
   41.5840   22.2300   36.9110 H   0  0  0  0  0  0  0  0  0  0  0  0
   43.2590   23.6610   36.5180 C   0  0  0  0  0  3  0  0  0  0  0  0
   43.4820   24.8230   35.7330 C   0  0  0  0  0  3  0  0  0  0  0  0
   41.9050   25.0720   34.9080 S   0  0  0  0  0  0  0  0  0  0  0  0
   37.9920   24.8850   34.1230 C   0  0  0  0  0  3  0  0  0  0  0  0
   39.0810   24.8930   34.8280 C   0  0  0  0  0  3  0  0  0  0  0  0
   36.4390   28.2680   34.4020 C   0  0  0  0  0  0  0  0  0  0  0  0
   37.0960   27.0720   34.7110 C   0  0  0  0  0  0  0  0  0  0  0  0
   37.3090   26.0900   33.7520 C   0  0  0  0  0  0  0  0  0  0  0  0
   36.8510   26.3500   32.5170 N   0  0  0  0  0  0  0  0  0  0  0  0
   36.2250   27.4870   32.2140 C   0  0  0  0  0  0  0  0  0  0  0  0
   36.0110   28.4480   33.1330 N   0  0  0  0  0  0  0  0  0  0  0  0
   36.2840   29.0240   35.1510 H   0  0  0  0  0  0  0  0  0  0  0  0
   37.4160   27.0020   35.7360 H   0  0  0  0  0  0  0  0  0  0  0  0
   35.8840   27.5990   31.2060 H   0  0  0  0  0  0  0  0  0  0  0  0
   38.6170   22.6490   36.2230 S   0  0  0  0  0  0  0  0  0  0  0  0
   38.3960   23.5010   37.7850 C   0  0  0  0  0  0  0  0  0  0  0  0
   38.2740   24.8760   37.6280 F   0  0  0  0  0  0  0  0  0  0  0  0
   37.3760   22.9630   38.5440 F   0  0  0  0  0  0  0  0  0  0  0  0
   39.5730   23.2770   38.5410 F   0  0  0  0  0  0  0  0  0  0  0  0
  1  2  1  6  0  0  0
  1  3  1  0  0  0  0
  1 20  1  0  0  0  0
  3  4  2  0  0  0  0
  4  6  1  0  0  0  0
  4  5  1  0  0  0  0
  7  6  2  0  0  0  0
  8  3  1  0  0  0  0
  8  7  1  0  0  0  0
  9 10  2  0  0  0  0
 10  1  1  0  0  0  0
 11 12  1  0  0  0  0
 11 17  1  0  0  0  0
 12 18  1  0  0  0  0
 13  9  1  0  0  0  0
 13 12  2  0  0  0  0
 14 13  1  0  0  0  0
 15 14  2  0  0  0  0
 15 16  1  0  0  0  0
 16 11  2  0  0  0  0
 19 15  1  0  0  0  0
 20 21  1  0  0  0  0
 21 24  1  0  0  0  0
 21 23  1  0  0  0  0
 22 21  1  0  0  0  0
M  END
>  <minimizedAffinity>
-4.69891357

$$$$

 OpenBabel03272502323D

 24 25  0  0  1  0  0  0  0  0999 V2000
   38.4700   22.6700   36.5300 C   0  0  2  0  0  0  0  0  0  0  0  0
   37.9190   21.8430   37.1170 H   0  0  0  0  0  0  0  0  0  0  0  0
   39.8560   22.3800   36.5940 C   0  0  0  0  0  0  0  0  0  0  0  0
   40.9160   22.0320   37.4640 C   0  0  0  0  0  0  0  0  0  0  0  0
   40.5350   21.9750   38.4610 H   0  0  0  0  0  0  0  0  0  0  0  0
   42.1650   21.8370   36.9340 C   0  0  0  0  0  3  0  0  0  0  0  0
   42.3020   21.9990   35.5300 C   0  0  0  0  0  3  0  0  0  0  0  0
   40.6410   22.4320   35.0000 S   0  0  0  0  0  0  0  0  0  0  0  0
   37.1690   21.6340   34.8160 C   0  0  0  0  0  3  0  0  0  0  0  0
   37.9260   22.6380   35.1340 C   0  0  0  0  0  3  0  0  0  0  0  0
   34.9160   20.4750   32.0750 C   0  0  0  0  0  0  0  0  0  0  0  0
   35.5020   20.6590   33.3310 C   0  0  0  0  0  0  0  0  0  0  0  0
   36.6110   21.4770   33.5040 C   0  0  0  0  0  0  0  0  0  0  0  0
   37.0870   22.0800   32.4030 N   0  0  0  0  0  0  0  0  0  0  0  0
   36.5340   21.9110   31.2020 C   0  0  0  0  0  0  0  0  0  0  0  0
   35.4590   21.1200   31.0190 N   0  0  0  0  0  0  0  0  0  0  0  0
   34.0540   19.8430   31.9540 H   0  0  0  0  0  0  0  0  0  0  0  0
   35.0120   20.1230   34.1250 H   0  0  0  0  0  0  0  0  0  0  0  0
   36.9920   22.4220   30.3810 H   0  0  0  0  0  0  0  0  0  0  0  0
   38.0150   24.2470   37.2780 S   0  0  0  0  0  0  0  0  0  0  0  0
   38.2870   25.6080   36.1430 C   0  0  0  0  0  0  0  0  0  0  0  0
   39.5200   25.5320   35.5070 F   0  0  0  0  0  0  0  0  0  0  0  0
   37.2440   25.7760   35.2540 F   0  0  0  0  0  0  0  0  0  0  0  0
   38.2990   26.7930   36.9220 F   0  0  0  0  0  0  0  0  0  0  0  0
  1  3  1  0  0  0  0
  1  2  1  1  0  0  0
  1 20  1  0  0  0  0
  3  4  2  0  0  0  0
  4  5  1  0  0  0  0
  6  4  1  0  0  0  0
  7  6  2  0  0  0  0
  8  7  1  0  0  0  0
  8  3  1  0  0  0  0
  9 10  2  0  0  0  0
 10  1  1  0  0  0  0
 11 12  1  0  0  0  0
 12 13  2  0  0  0  0
 12 18  1  0  0  0  0
 13  9  1  0  0  0  0
 14 13  1  0  0  0  0
 15 14  2  0  0  0  0
 16 15  1  0  0  0  0
 16 11  2  0  0  0  0
 17 11  1  0  0  0  0
 19 15  1  0  0  0  0
 21 24  1  0  0  0  0
 21 20  1  0  0  0  0
 22 21  1  0  0  0  0
 23 21  1  0  0  0  0
M  END
>  <minimizedAffinity>
-4.62872601

$$$$

 OpenBabel03272502323D

 24 25  0  0  1  0  0  0  0  0999 V2000
   37.0350   22.2530   32.3070 C   0  0  2  0  0  0  0  0  0  0  0  0
   35.9470   22.6080   32.1580 H   0  0  0  0  0  0  0  0  0  0  0  0
   37.7920   22.7420   31.2120 C   0  0  0  0  0  0  0  0  0  0  0  0
   38.1070   23.8990   30.4620 C   0  0  0  0  0  0  0  0  0  0  0  0
   37.5600   24.7250   30.8600 H   0  0  0  0  0  0  0  0  0  0  0  0
   38.9960   23.7870   29.4240 C   0  0  0  0  0  3  0  0  0  0  0  0
   39.5430   22.5000   29.1780 C   0  0  0  0  0  3  0  0  0  0  0  0
   38.7680   21.4760   30.4360 S   0  0  0  0  0  0  0  0  0  0  0  0
   38.0900   21.9870   34.4330 C   0  0  0  0  0  3  0  0  0  0  0  0
   37.4870   22.8030   33.6260 C   0  0  0  0  0  3  0  0  0  0  0  0
   40.3480   22.4780   37.3640 C   0  0  0  0  0  0  0  0  0  0  0  0
   39.8520   22.1050   36.1110 C   0  0  0  0  0  0  0  0  0  0  0  0
   38.5450   22.3880   35.7330 C   0  0  0  0  0  0  0  0  0  0  0  0
   37.7890   23.0350   36.6320 N   0  0  0  0  0  0  0  0  0  0  0  0
   38.2540   23.3950   37.8290 C   0  0  0  0  0  0  0  0  0  0  0  0
   39.5180   23.1270   38.2100 N   0  0  0  0  0  0  0  0  0  0  0  0
   41.3630   22.2580   37.6450 H   0  0  0  0  0  0  0  0  0  0  0  0
   40.5700   21.6010   35.4890 H   0  0  0  0  0  0  0  0  0  0  0  0
   37.5720   23.8960   38.4840 H   0  0  0  0  0  0  0  0  0  0  0  0
   36.9970   20.4540   32.4280 S   0  0  0  0  0  0  0  0  0  0  0  0
   35.4660   19.8830   33.1660 C   0  0  0  0  0  0  0  0  0  0  0  0
   35.3390   18.5000   33.1270 F   0  0  0  0  0  0  0  0  0  0  0  0
   35.2620   20.3960   34.4320 F   0  0  0  0  0  0  0  0  0  0  0  0
   34.4120   20.4150   32.3820 F   0  0  0  0  0  0  0  0  0  0  0  0
  1  2  1  6  0  0  0
  1 20  1  0  0  0  0
  1 10  1  0  0  0  0
  3  1  1  0  0  0  0
  4  5  1  0  0  0  0
  4  3  2  0  0  0  0
  6  4  1  0  0  0  0
  7  6  2  0  0  0  0
  7  8  1  0  0  0  0
  8  3  1  0  0  0  0
  9 13  1  0  0  0  0
 10  9  2  0  0  0  0
 11 17  1  0  0  0  0
 11 16  1  0  0  0  0
 12 11  2  0  0  0  0
 13 12  1  0  0  0  0
 13 14  2  0  0  0  0
 14 15  1  0  0  0  0
 15 16  2  0  0  0  0
 15 19  1  0  0  0  0
 18 12  1  0  0  0  0
 20 21  1  0  0  0  0
 21 23  1  0  0  0  0
 22 21  1  0  0  0  0
 24 21  1  0  0  0  0
M  END
>  <minimizedAffinity>
-4.54311371

$$$$

 OpenBabel03272502323D

 24 25  0  0  1  0  0  0  0  0999 V2000
   37.2190   26.7760   33.3980 C   0  0  2  0  0  0  0  0  0  0  0  0
   36.9990   26.3740   34.4570 H   0  0  0  0  0  0  0  0  0  0  0  0
   36.6100   25.8870   32.4760 C   0  0  0  0  0  0  0  0  0  0  0  0
   35.6210   25.7790   31.4700 C   0  0  0  0  0  0  0  0  0  0  0  0
   35.1330   26.7230   31.3670 H   0  0  0  0  0  0  0  0  0  0  0  0
   35.4590   24.5750   30.8340 C   0  0  0  0  0  3  0  0  0  0  0  0
   36.3100   23.5130   31.2380 C   0  0  0  0  0  3  0  0  0  0  0  0
   37.3210   24.2590   32.5230 S   0  0  0  0  0  0  0  0  0  0  0  0
   36.1230   28.6310   34.4270 C   0  0  0  0  0  3  0  0  0  0  0  0
   36.6530   28.1620   33.3400 C   0  0  0  0  0  3  0  0  0  0  0  0
   35.4200   32.1200   35.5520 C   0  0  0  0  0  0  0  0  0  0  0  0
   35.9640   30.8360   35.4500 C   0  0  0  0  0  0  0  0  0  0  0  0
   35.5250   29.9340   34.4890 C   0  0  0  0  0  0  0  0  0  0  0  0
   34.5520   30.3600   33.6680 N   0  0  0  0  0  0  0  0  0  0  0  0
   34.0280   31.5820   33.7580 C   0  0  0  0  0  0  0  0  0  0  0  0
   34.4430   32.4680   34.6840 N   0  0  0  0  0  0  0  0  0  0  0  0
   35.7710   32.8130   36.2960 H   0  0  0  0  0  0  0  0  0  0  0  0
   36.7410   30.6330   36.1660 H   0  0  0  0  0  0  0  0  0  0  0  0
   33.2480   31.8270   33.0680 H   0  0  0  0  0  0  0  0  0  0  0  0
   39.0110   26.8890   33.2330 S   0  0  0  0  0  0  0  0  0  0  0  0
   39.8270   26.6580   34.8130 C   0  0  0  0  0  0  0  0  0  0  0  0
   39.6860   25.3640   35.3000 F   0  0  0  0  0  0  0  0  0  0  0  0
   41.1420   27.0770   34.8000 F   0  0  0  0  0  0  0  0  0  0  0  0
   39.1780   27.5160   35.7360 F   0  0  0  0  0  0  0  0  0  0  0  0
  1  2  1  1  0  0  0
  3  8  1  0  0  0  0
  3  1  1  0  0  0  0
  4  3  2  0  0  0  0
  5  4  1  0  0  0  0
  6  7  2  0  0  0  0
  6  4  1  0  0  0  0
  7  8  1  0  0  0  0
  9 13  1  0  0  0  0
 10  1  1  0  0  0  0
 10  9  2  0  0  0  0
 11 17  1  0  0  0  0
 12 11  1  0  0  0  0
 12 18  1  0  0  0  0
 13 12  2  0  0  0  0
 14 15  2  0  0  0  0
 14 13  1  0  0  0  0
 15 16  1  0  0  0  0
 16 11  2  0  0  0  0
 19 15  1  0  0  0  0
 20  1  1  0  0  0  0
 20 21  1  0  0  0  0
 21 22  1  0  0  0  0
 21 24  1  0  0  0  0
 23 21  1  0  0  0  0
M  END
>  <minimizedAffinity>
-4.4986043

$$$$

 OpenBabel03272502323D

 24 25  0  0  1  0  0  0  0  0999 V2000
   35.0480   29.3860   34.1270 C   0  0  2  0  0  0  0  0  0  0  0  0
   34.4770   28.8660   34.9850 H   0  0  0  0  0  0  0  0  0  0  0  0
   35.5060   30.6340   34.6210 C   0  0  0  0  0  0  0  0  0  0  0  0
   35.9560   31.3140   35.7770 C   0  0  0  0  0  0  0  0  0  0  0  0
   35.9360   30.6360   36.6030 H   0  0  0  0  0  0  0  0  0  0  0  0
   36.3200   32.6310   35.6660 C   0  0  0  0  0  3  0  0  0  0  0  0
   36.2180   33.2210   34.3780 C   0  0  0  0  0  3  0  0  0  0  0  0
   35.5980   31.8780   33.3570 S   0  0  0  0  0  0  0  0  0  0  0  0
   36.7820   27.8440   34.6910 C   0  0  0  0  0  3  0  0  0  0  0  0
   36.1630   28.4640   33.7360 C   0  0  0  0  0  3  0  0  0  0  0  0
   40.1840   26.3230   34.9160 C   0  0  0  0  0  0  0  0  0  0  0  0
   39.0820   27.1610   35.1150 C   0  0  0  0  0  0  0  0  0  0  0  0
   37.8820   26.9560   34.4450 C   0  0  0  0  0  0  0  0  0  0  0  0
   37.8390   25.9150   33.5990 N   0  0  0  0  0  0  0  0  0  0  0  0
   38.8850   25.1120   33.4040 C   0  0  0  0  0  0  0  0  0  0  0  0
   40.0540   25.2970   34.0460 N   0  0  0  0  0  0  0  0  0  0  0  0
   41.1060   26.4870   35.4440 H   0  0  0  0  0  0  0  0  0  0  0  0
   39.2550   27.9490   35.8270 H   0  0  0  0  0  0  0  0  0  0  0  0
   38.7600   24.3160   32.7000 H   0  0  0  0  0  0  0  0  0  0  0  0
   33.9100   29.5210   32.7340 S   0  0  0  0  0  0  0  0  0  0  0  0
   32.2330   29.1150   33.2220 C   0  0  0  0  0  0  0  0  0  0  0  0
   31.7940   27.9180   32.6710 F   0  0  0  0  0  0  0  0  0  0  0  0
   32.0500   29.1650   34.5900 F   0  0  0  0  0  0  0  0  0  0  0  0
   31.3990   30.1370   32.7040 F   0  0  0  0  0  0  0  0  0  0  0  0
  1  3  1  0  0  0  0
  1  2  1  1  0  0  0
  3  4  2  0  0  0  0
  4  5  1  0  0  0  0
  6  4  1  0  0  0  0
  7  6  2  0  0  0  0
  8  7  1  0  0  0  0
  8  3  1  0  0  0  0
 10  1  1  0  0  0  0
 10  9  2  0  0  0  0
 11 12  1  0  0  0  0
 11 17  1  0  0  0  0
 12 18  1  0  0  0  0
 13  9  1  0  0  0  0
 13 12  2  0  0  0  0
 14 13  1  0  0  0  0
 15 14  2  0  0  0  0
 15 16  1  0  0  0  0
 16 11  2  0  0  0  0
 19 15  1  0  0  0  0
 20 21  1  0  0  0  0
 20  1  1  0  0  0  0
 21 23  1  0  0  0  0
 22 21  1  0  0  0  0
 24 21  1  0  0  0  0
M  END
>  <minimizedAffinity>
-4.48913336

$$$$

 OpenBabel03272502323D

 24 25  0  0  1  0  0  0  0  0999 V2000
   38.1830   23.8070   34.9270 C   0  0  2  0  0  0  0  0  0  0  0  0
   37.2090   23.9210   35.5350 H   0  0  0  0  0  0  0  0  0  0  0  0
   39.1890   23.3600   35.8210 C   0  0  0  0  0  0  0  0  0  0  0  0
   39.4350   22.9170   37.1420 C   0  0  0  0  0  0  0  0  0  0  0  0
   38.5150   22.9320   37.6840 H   0  0  0  0  0  0  0  0  0  0  0  0
   40.7130   22.5630   37.4900 C   0  0  0  0  0  3  0  0  0  0  0  0
   41.7080   22.6690   36.4820 C   0  0  0  0  0  3  0  0  0  0  0  0
   40.7930   23.2770   35.0600 S   0  0  0  0  0  0  0  0  0  0  0  0
   37.1180   21.8260   34.1240 C   0  0  0  0  0  3  0  0  0  0  0  0
   37.8910   22.8250   33.8330 C   0  0  0  0  0  3  0  0  0  0  0  0
   35.2210   19.1070   32.4090 C   0  0  0  0  0  0  0  0  0  0  0  0
   35.5960   20.1060   33.3130 C   0  0  0  0  0  0  0  0  0  0  0  0
   36.7860   20.8070   33.1700 C   0  0  0  0  0  0  0  0  0  0  0  0
   37.5550   20.4740   32.1220 N   0  0  0  0  0  0  0  0  0  0  0  0
   37.2060   19.5230   31.2550 C   0  0  0  0  0  0  0  0  0  0  0  0
   36.0550   18.8350   31.3800 N   0  0  0  0  0  0  0  0  0  0  0  0
   34.2940   18.5740   32.5250 H   0  0  0  0  0  0  0  0  0  0  0  0
   34.8800   20.2740   34.0990 H   0  0  0  0  0  0  0  0  0  0  0  0
   37.8900   19.3190   30.4580 H   0  0  0  0  0  0  0  0  0  0  0  0
   38.5310   25.4080   34.1730 S   0  0  0  0  0  0  0  0  0  0  0  0
   38.6560   26.6980   35.4120 C   0  0  0  0  0  0  0  0  0  0  0  0
   39.9700   27.0810   35.6500 F   0  0  0  0  0  0  0  0  0  0  0  0
   37.8330   27.7740   35.1460 F   0  0  0  0  0  0  0  0  0  0  0  0
   38.1630   26.1490   36.6220 F   0  0  0  0  0  0  0  0  0  0  0  0
  1  2  1  1  0  0  0
  1  3  1  0  0  0  0
  3  4  2  0  0  0  0
  4  6  1  0  0  0  0
  4  5  1  0  0  0  0
  7  6  2  0  0  0  0
  8  3  1  0  0  0  0
  8  7  1  0  0  0  0
 10  9  2  0  0  0  0
 10  1  1  0  0  0  0
 11 17  1  0  0  0  0
 11 12  1  0  0  0  0
 12 18  1  0  0  0  0
 13 12  2  0  0  0  0
 13  9  1  0  0  0  0
 14 13  1  0  0  0  0
 15 16  1  0  0  0  0
 15 14  2  0  0  0  0
 16 11  2  0  0  0  0
 19 15  1  0  0  0  0
 20  1  1  0  0  0  0
 20 21  1  0  0  0  0
 21 22  1  0  0  0  0
 21 24  1  0  0  0  0
 23 21  1  0  0  0  0
M  END
>  <minimizedAffinity>
-4.45967722

$$$$
