
 OpenBabel03272509463D

 22 23  0  0  0  0  0  0  0  0999 V2000
   33.7570   28.7120   49.5640 C   0  0  0  0  0  0  0  0  0  0  0  0
   33.3880   28.4910   50.5830 H   0  0  0  0  0  0  0  0  0  0  0  0
   33.7260   29.8150   49.4430 H   0  0  0  0  0  0  0  0  0  0  0  0
   32.9490   28.0050   48.5030 C   0  0  0  0  0  0  0  0  0  0  0  0
   31.8960   28.3830   48.6480 H   0  0  0  0  0  0  0  0  0  0  0  0
   32.9180   26.9260   48.6290 H   0  0  0  0  0  0  0  0  0  0  0  0
   33.4720   28.4120   47.1710 C   0  0  0  0  0  0  0  0  0  0  0  0
   33.8470   27.7240   46.0650 C   0  0  0  0  0  0  0  0  0  0  0  0
   33.7500   26.6360   46.1620 H   0  0  0  0  0  0  0  0  0  0  0  0
   34.2950   28.3650   44.9650 C   0  0  0  0  0  3  0  0  0  0  0  0
   34.3470   29.7370   45.0350 C   0  0  0  0  0  3  0  0  0  0  0  0
   33.7120   30.1010   46.7840 S   0  0  0  0  0  0  0  0  0  0  0  0
   35.0970   28.2270   49.5430 O   0  0  0  0  0  0  0  0  0  0  0  0
   37.4440   30.3150   51.3650 C   0  0  0  0  0  0  0  0  0  0  0  0
   38.1510   30.8780   50.3070 C   0  0  0  0  0  0  0  0  0  0  0  0
   37.7940   30.5160   49.0130 C   0  0  0  0  0  0  0  0  0  0  0  0
   36.7590   29.6230   48.8810 N   0  0  0  0  0  0  0  0  0  0  0  0
   36.0970   29.1010   49.9350 C   0  0  0  0  0  0  0  0  0  0  0  0
   36.4560   29.4610   51.1740 N   0  0  0  0  0  0  0  0  0  0  0  0
   37.7390   30.6130   52.3770 H   0  0  0  0  0  0  0  0  0  0  0  0
   38.9660   31.5800   50.4020 H   0  0  0  0  0  0  0  0  0  0  0  0
   38.2980   30.9100   48.1430 H   0  0  0  0  0  0  0  0  0  0  0  0
  1  2  1  0  0  0  0
  3  1  1  0  0  0  0
  4  6  1  0  0  0  0
  4  5  1  0  0  0  0
  4  1  1  0  0  0  0
  7  4  1  0  0  0  0
  8  9  1  0  0  0  0
  8  7  2  0  0  0  0
 10 11  2  0  0  0  0
 10  8  1  0  0  0  0
 11 12  1  0  0  0  0
 12  7  1  0  0  0  0
 13  1  1  0  0  0  0
 13 18  1  0  0  0  0
 14 20  1  0  0  0  0
 15 21  1  0  0  0  0
 15 14  2  0  0  0  0
 16 15  1  0  0  0  0
 17 16  2  0  0  0  0
 17 18  1  0  0  0  0
 18 19  2  0  0  0  0
 19 14  1  0  0  0  0
 22 16  1  0  0  0  0
M  END
>  <minimizedAffinity>
-3.89897513

>  <minimizedRMSD>
1.35854042

$$$$
