
 OpenBabel03272509563D

 40 43  0  0  0  0  0  0  0  0999 V2000
   36.8930   26.8550   33.5330 O   0  0  0  0  0  0  0  0  0  0  0  0
   36.3330   29.9000   31.6840 C   0  0  0  0  0  0  0  0  0  0  0  0
   35.6880   30.6800   32.6750 C   0  0  0  0  0  0  0  0  0  0  0  0
   35.4900   30.1000   33.9170 C   0  0  0  0  0  0  0  0  0  0  0  0
   35.9390   28.8150   34.0740 N   0  0  0  0  0  0  0  0  0  0  0  0
   36.5470   28.0970   33.1230 C   0  0  0  0  0  0  0  0  0  0  0  0
   36.7390   28.6600   31.9150 N   0  0  0  0  0  0  0  0  0  0  0  0
   36.4700   30.3890   30.7260 H   0  0  0  0  0  0  0  0  0  0  0  0
   35.3360   31.6850   32.5540 H   0  0  0  0  0  0  0  0  0  0  0  0
   36.6890   31.8450   35.8860 F   0  0  0  0  0  0  0  0  0  0  0  0
   35.4060   31.5470   35.9770 C   0  0  0  0  0  0  0  0  0  0  0  0
   34.8560   30.7280   35.0490 C   0  0  0  0  0  0  0  0  0  0  0  0
   33.5070   30.4840   35.2420 C   0  0  0  0  0  0  0  0  0  0  0  0
   32.7830   31.0230   36.2840 C   0  0  0  0  0  0  0  0  0  0  0  0
   33.3810   31.8500   37.2060 C   0  0  0  0  0  0  0  0  0  0  0  0
   34.7190   32.1120   37.0400 C   0  0  0  0  0  0  0  0  0  0  0  0
   32.9180   29.8520   34.5900 H   0  0  0  0  0  0  0  0  0  0  0  0
   31.7280   30.8320   36.4350 H   0  0  0  0  0  0  0  0  0  0  0  0
   32.8360   32.2820   38.0270 H   0  0  0  0  0  0  0  0  0  0  0  0
   35.2040   32.7550   37.7480 H   0  0  0  0  0  0  0  0  0  0  0  0
   38.2520   26.4540   33.4580 C   0  0  0  0  0  0  0  0  0  0  0  0
   38.7580   27.0900   32.6980 H   0  0  0  0  0  0  0  0  0  0  0  0
   38.3140   25.3990   33.1280 H   0  0  0  0  0  0  0  0  0  0  0  0
   38.9180   26.6070   34.7860 C   0  0  0  0  0  0  0  0  0  0  0  0
   39.9850   26.9310   34.7020 H   0  0  0  0  0  0  0  0  0  0  0  0
   38.4100   27.3810   35.3750 H   0  0  0  0  0  0  0  0  0  0  0  0
   38.9410   25.3460   35.5660 C   0  0  0  0  0  0  0  0  0  0  0  0
   37.8650   25.0540   36.4060 C   0  0  0  0  0  0  0  0  0  0  0  0
   37.7940   23.9250   37.1610 C   0  0  0  0  0  0  0  0  0  0  0  0
   38.8070   23.0600   37.0870 N   0  0  0  0  0  0  0  0  0  0  0  0
   39.8610   23.3330   36.2730 C   0  0  0  0  0  0  0  0  0  0  0  0
   39.9590   24.4390   35.5160 N   0  0  0  0  0  0  0  0  0  0  0  0
   37.0580   25.7770   36.4430 H   0  0  0  0  0  0  0  0  0  0  0  0
   36.9210   23.7880   37.7800 H   0  0  0  0  0  0  0  0  0  0  0  0
   40.9040   22.3440   36.2610 C   0  0  0  0  0  0  0  0  0  0  0  0
   41.4540   21.5760   37.2920 C   0  0  0  0  0  0  0  0  0  0  0  0
   41.0270   21.7500   38.2680 H   0  0  0  0  0  0  0  0  0  0  0  0
   42.4570   20.6850   37.0280 C   0  0  0  0  0  3  0  0  0  0  0  0
   42.9060   20.5760   35.6930 C   0  0  0  0  0  3  0  0  0  0  0  0
   41.8960   21.7610   34.7470 S   0  0  0  0  0  0  0  0  0  0  0  0
  2  7  2  0  0  0  0
  2  3  1  0  0  0  0
  3  4  2  0  0  0  0
  4  5  1  0  0  0  0
  4 12  1  0  0  0  0
  6  1  1  0  0  0  0
  6  5  2  0  0  0  0
  7  6  1  0  0  0  0
  8  2  1  0  0  0  0
  9  3  1  0  0  0  0
 10 11  1  0  0  0  0
 11 16  1  0  0  0  0
 12 13  1  0  0  0  0
 12 11  2  0  0  0  0
 13 14  2  0  0  0  0
 14 18  1  0  0  0  0
 14 15  1  0  0  0  0
 15 19  1  0  0  0  0
 16 15  2  0  0  0  0
 16 20  1  0  0  0  0
 17 13  1  0  0  0  0
 21  1  1  0  0  0  0
 21 24  1  0  0  0  0
 22 21  1  0  0  0  0
 23 21  1  0  0  0  0
 24 26  1  0  0  0  0
 24 27  1  0  0  0  0
 25 24  1  0  0  0  0
 27 28  1  0  0  0  0
 28 33  1  0  0  0  0
 28 29  2  0  0  0  0
 29 34  1  0  0  0  0
 30 29  1  0  0  0  0
 31 30  2  0  0  0  0
 32 27  2  0  0  0  0
 32 31  1  0  0  0  0
 35 31  1  0  0  0  0
 35 36  2  0  0  0  0
 36 37  1  0  0  0  0
 38 36  1  0  0  0  0
 39 38  2  0  0  0  0
 40 39  1  0  0  0  0
 40 35  1  0  0  0  0
M  END
>  <minimizedAffinity>
-6.31117344

$$$$

 OpenBabel03272509563D

 40 43  0  0  0  0  0  0  0  0999 V2000
   38.7790   25.7070   33.4080 O   0  0  0  0  0  0  0  0  0  0  0  0
   35.7910   26.0680   31.4230 C   0  0  0  0  0  0  0  0  0  0  0  0
   35.4810   24.7070   31.1870 C   0  0  0  0  0  0  0  0  0  0  0  0
   36.3270   23.7540   31.7300 C   0  0  0  0  0  0  0  0  0  0  0  0
   37.3940   24.2200   32.4520 N   0  0  0  0  0  0  0  0  0  0  0  0
   37.6670   25.5130   32.6630 C   0  0  0  0  0  0  0  0  0  0  0  0
   36.8460   26.4390   32.1350 N   0  0  0  0  0  0  0  0  0  0  0  0
   35.1050   26.7830   30.9830 H   0  0  0  0  0  0  0  0  0  0  0  0
   34.6470   24.3400   30.6220 H   0  0  0  0  0  0  0  0  0  0  0  0
   38.0150   21.9170   30.2680 F   0  0  0  0  0  0  0  0  0  0  0  0
   36.9640   21.4560   30.9200 C   0  0  0  0  0  0  0  0  0  0  0  0
   36.1810   22.3260   31.6010 C   0  0  0  0  0  0  0  0  0  0  0  0
   35.1090   21.7330   32.2470 C   0  0  0  0  0  0  0  0  0  0  0  0
   34.8570   20.3790   32.2040 C   0  0  0  0  0  0  0  0  0  0  0  0
   35.6780   19.5290   31.5000 C   0  0  0  0  0  0  0  0  0  0  0  0
   36.7500   20.0880   30.8480 C   0  0  0  0  0  0  0  0  0  0  0  0
   34.3890   22.2870   32.8350 H   0  0  0  0  0  0  0  0  0  0  0  0
   34.0190   19.9150   32.7090 H   0  0  0  0  0  0  0  0  0  0  0  0
   35.4990   18.4690   31.4520 H   0  0  0  0  0  0  0  0  0  0  0  0
   37.4020   19.4430   30.2940 H   0  0  0  0  0  0  0  0  0  0  0  0
   38.6780   26.4210   34.6310 C   0  0  0  0  0  0  0  0  0  0  0  0
   38.3350   27.4550   34.4000 H   0  0  0  0  0  0  0  0  0  0  0  0
   39.6730   26.4840   35.1120 H   0  0  0  0  0  0  0  0  0  0  0  0
   37.7140   25.7500   35.5530 C   0  0  0  0  0  0  0  0  0  0  0  0
   37.2140   26.4650   36.2530 H   0  0  0  0  0  0  0  0  0  0  0  0
   36.9110   25.2760   34.9750 H   0  0  0  0  0  0  0  0  0  0  0  0
   38.3580   24.7290   36.4130 C   0  0  0  0  0  0  0  0  0  0  0  0
   37.9020   24.5670   37.7230 C   0  0  0  0  0  0  0  0  0  0  0  0
   38.4270   23.6590   38.5880 C   0  0  0  0  0  0  0  0  0  0  0  0
   39.4260   22.8890   38.1540 N   0  0  0  0  0  0  0  0  0  0  0  0
   39.8800   23.0360   36.8810 C   0  0  0  0  0  0  0  0  0  0  0  0
   39.3810   23.9250   36.0040 N   0  0  0  0  0  0  0  0  0  0  0  0
   37.0880   25.2090   38.0450 H   0  0  0  0  0  0  0  0  0  0  0  0
   38.0070   23.6090   39.5810 H   0  0  0  0  0  0  0  0  0  0  0  0
   40.9580   22.1640   36.5040 C   0  0  0  0  0  0  0  0  0  0  0  0
   41.7810   21.3350   37.2740 C   0  0  0  0  0  0  0  0  0  0  0  0
   41.5770   21.3460   38.3340 H   0  0  0  0  0  0  0  0  0  0  0  0
   42.7560   20.5870   36.6770 C   0  0  0  0  0  3  0  0  0  0  0  0
   42.8960   20.6850   35.2740 C   0  0  0  0  0  3  0  0  0  0  0  0
   41.6170   21.8700   34.7450 S   0  0  0  0  0  0  0  0  0  0  0  0
  1 21  1  0  0  0  0
  2  7  1  0  0  0  0
  3  2  2  0  0  0  0
  3  4  1  0  0  0  0
  4  5  2  0  0  0  0
  5  6  1  0  0  0  0
  6  1  1  0  0  0  0
  7  6  2  0  0  0  0
  8  2  1  0  0  0  0
  9  3  1  0  0  0  0
 10 11  1  0  0  0  0
 11 12  1  0  0  0  0
 12  4  1  0  0  0  0
 12 13  2  0  0  0  0
 13 17  1  0  0  0  0
 14 13  1  0  0  0  0
 14 18  1  0  0  0  0
 15 14  2  0  0  0  0
 16 11  2  0  0  0  0
 16 15  1  0  0  0  0
 19 15  1  0  0  0  0
 20 16  1  0  0  0  0
 21 23  1  0  0  0  0
 21 24  1  0  0  0  0
 22 21  1  0  0  0  0
 24 25  1  0  0  0  0
 24 27  1  0  0  0  0
 26 24  1  0  0  0  0
 27 28  1  0  0  0  0
 28 33  1  0  0  0  0
 28 29  2  0  0  0  0
 29 34  1  0  0  0  0
 30 29  1  0  0  0  0
 31 30  2  0  0  0  0
 32 27  2  0  0  0  0
 32 31  1  0  0  0  0
 35 31  1  0  0  0  0
 35 36  2  0  0  0  0
 36 37  1  0  0  0  0
 38 36  1  0  0  0  0
 39 38  2  0  0  0  0
 40 39  1  0  0  0  0
 40 35  1  0  0  0  0
M  END
>  <minimizedAffinity>
-6.27170563

$$$$

 OpenBabel03272509563D

 40 43  0  0  0  0  0  0  0  0999 V2000
   37.1740   26.8210   34.3830 O   0  0  0  0  0  0  0  0  0  0  0  0
   36.1950   29.3440   32.0000 C   0  0  0  0  0  0  0  0  0  0  0  0
   35.5420   30.2610   32.8590 C   0  0  0  0  0  0  0  0  0  0  0  0
   35.4830   29.9440   34.2060 C   0  0  0  0  0  0  0  0  0  0  0  0
   36.0670   28.7650   34.5870 N   0  0  0  0  0  0  0  0  0  0  0  0
   36.6800   27.9140   33.7570 C   0  0  0  0  0  0  0  0  0  0  0  0
   36.7370   28.2200   32.4470 N   0  0  0  0  0  0  0  0  0  0  0  0
   36.2210   29.6270   30.9530 H   0  0  0  0  0  0  0  0  0  0  0  0
   35.0840   31.1840   32.5630 H   0  0  0  0  0  0  0  0  0  0  0  0
   36.7380   31.8700   35.9600 F   0  0  0  0  0  0  0  0  0  0  0  0
   35.4400   31.6490   36.0600 C   0  0  0  0  0  0  0  0  0  0  0  0
   34.8640   30.7440   35.2330 C   0  0  0  0  0  0  0  0  0  0  0  0
   33.5010   30.5930   35.4260 C   0  0  0  0  0  0  0  0  0  0  0  0
   32.7890   31.2970   36.3730 C   0  0  0  0  0  0  0  0  0  0  0  0
   33.4140   32.2080   37.1940 C   0  0  0  0  0  0  0  0  0  0  0  0
   34.7670   32.3800   37.0260 C   0  0  0  0  0  0  0  0  0  0  0  0
   32.8910   29.9120   34.8480 H   0  0  0  0  0  0  0  0  0  0  0  0
   31.7240   31.1790   36.5250 H   0  0  0  0  0  0  0  0  0  0  0  0
   32.8790   32.7680   37.9400 H   0  0  0  0  0  0  0  0  0  0  0  0
   35.2720   33.0850   37.6560 H   0  0  0  0  0  0  0  0  0  0  0  0
   38.4840   26.8670   34.9270 C   0  0  0  0  0  0  0  0  0  0  0  0
   38.4030   26.7420   36.0310 H   0  0  0  0  0  0  0  0  0  0  0  0
   38.9420   27.8530   34.7210 H   0  0  0  0  0  0  0  0  0  0  0  0
   39.3320   25.7840   34.3450 C   0  0  0  0  0  0  0  0  0  0  0  0
   39.3520   25.8020   33.2270 H   0  0  0  0  0  0  0  0  0  0  0  0
   40.3730   25.9050   34.6720 H   0  0  0  0  0  0  0  0  0  0  0  0
   38.8650   24.4270   34.7170 C   0  0  0  0  0  0  0  0  0  0  0  0
   39.1900   23.9250   35.9790 C   0  0  0  0  0  0  0  0  0  0  0  0
   38.8100   22.6930   36.4120 C   0  0  0  0  0  0  0  0  0  0  0  0
   38.0910   21.9360   35.5830 N   0  0  0  0  0  0  0  0  0  0  0  0
   37.7680   22.4120   34.3510 C   0  0  0  0  0  0  0  0  0  0  0  0
   38.1300   23.6230   33.8960 N   0  0  0  0  0  0  0  0  0  0  0  0
   39.7760   24.5660   36.6290 H   0  0  0  0  0  0  0  0  0  0  0  0
   39.1100   22.3940   37.4040 H   0  0  0  0  0  0  0  0  0  0  0  0
   36.9930   21.5240   33.5290 C   0  0  0  0  0  0  0  0  0  0  0  0
   35.8920   20.7160   33.8330 C   0  0  0  0  0  0  0  0  0  0  0  0
   35.5610   20.7620   34.8590 H   0  0  0  0  0  0  0  0  0  0  0  0
   35.3150   19.9450   32.8620 C   0  0  0  0  0  3  0  0  0  0  0  0
   35.8690   19.9970   31.5640 C   0  0  0  0  0  3  0  0  0  0  0  0
   37.2580   21.1700   31.6800 S   0  0  0  0  0  0  0  0  0  0  0  0
  1 21  1  0  0  0  0
  2  7  2  0  0  0  0
  2  3  1  0  0  0  0
  3  4  2  0  0  0  0
  4  5  1  0  0  0  0
  4 12  1  0  0  0  0
  6  1  1  0  0  0  0
  6  5  2  0  0  0  0
  7  6  1  0  0  0  0
  8  2  1  0  0  0  0
  9  3  1  0  0  0  0
 10 11  1  0  0  0  0
 11 16  1  0  0  0  0
 12 13  1  0  0  0  0
 12 11  2  0  0  0  0
 13 14  2  0  0  0  0
 14 18  1  0  0  0  0
 14 15  1  0  0  0  0
 15 19  1  0  0  0  0
 16 15  2  0  0  0  0
 16 20  1  0  0  0  0
 17 13  1  0  0  0  0
 21 22  1  0  0  0  0
 23 21  1  0  0  0  0
 24 26  1  0  0  0  0
 24 27  1  0  0  0  0
 24 21  1  0  0  0  0
 25 24  1  0  0  0  0
 27 28  1  0  0  0  0
 28 29  2  0  0  0  0
 28 33  1  0  0  0  0
 29 34  1  0  0  0  0
 30 29  1  0  0  0  0
 31 30  2  0  0  0  0
 32 31  1  0  0  0  0
 32 27  2  0  0  0  0
 35 36  2  0  0  0  0
 35 31  1  0  0  0  0
 36 37  1  0  0  0  0
 38 36  1  0  0  0  0
 39 40  1  0  0  0  0
 39 38  2  0  0  0  0
 40 35  1  0  0  0  0
M  END
>  <minimizedAffinity>
-6.20077944

$$$$

 OpenBabel03272509563D

 40 43  0  0  0  0  0  0  0  0999 V2000
   38.3540   25.5850   31.9520 O   0  0  0  0  0  0  0  0  0  0  0  0
   37.2320   22.2080   32.5340 C   0  0  0  0  0  0  0  0  0  0  0  0
   37.5310   22.0780   33.9120 C   0  0  0  0  0  0  0  0  0  0  0  0
   38.1020   23.1680   34.5480 C   0  0  0  0  0  0  0  0  0  0  0  0
   38.3260   24.2800   33.7800 N   0  0  0  0  0  0  0  0  0  0  0  0
   38.0340   24.3810   32.4790 C   0  0  0  0  0  0  0  0  0  0  0  0
   37.4800   23.3210   31.8590 N   0  0  0  0  0  0  0  0  0  0  0  0
   36.7860   21.3340   32.0720 H   0  0  0  0  0  0  0  0  0  0  0  0
   37.3580   21.2090   34.5150 H   0  0  0  0  0  0  0  0  0  0  0  0
   40.4080   21.9790   35.8250 F   0  0  0  0  0  0  0  0  0  0  0  0
   39.5540   22.6790   36.5470 C   0  0  0  0  0  0  0  0  0  0  0  0
   38.4780   23.2310   35.9380 C   0  0  0  0  0  0  0  0  0  0  0  0
   37.6500   23.9420   36.7920 C   0  0  0  0  0  0  0  0  0  0  0  0
   37.8950   24.0790   38.1410 C   0  0  0  0  0  0  0  0  0  0  0  0
   39.0010   23.5020   38.7210 C   0  0  0  0  0  0  0  0  0  0  0  0
   39.8410   22.7900   37.8990 C   0  0  0  0  0  0  0  0  0  0  0  0
   36.7500   24.4440   36.4640 H   0  0  0  0  0  0  0  0  0  0  0  0
   37.2490   24.6350   38.8080 H   0  0  0  0  0  0  0  0  0  0  0  0
   39.2120   23.5950   39.7710 H   0  0  0  0  0  0  0  0  0  0  0  0
   40.7090   22.3320   38.3320 H   0  0  0  0  0  0  0  0  0  0  0  0
   38.0500   26.7640   32.6830 C   0  0  0  0  0  0  0  0  0  0  0  0
   38.5820   27.6150   32.2000 H   0  0  0  0  0  0  0  0  0  0  0  0
   38.4190   26.6660   33.7210 H   0  0  0  0  0  0  0  0  0  0  0  0
   36.5780   27.0120   32.6910 C   0  0  0  0  0  0  0  0  0  0  0  0
   36.0750   26.6730   31.7510 H   0  0  0  0  0  0  0  0  0  0  0  0
   36.1070   26.4530   33.5090 H   0  0  0  0  0  0  0  0  0  0  0  0
   36.2390   28.4490   32.8310 C   0  0  0  0  0  0  0  0  0  0  0  0
   36.4670   29.3030   31.7510 C   0  0  0  0  0  0  0  0  0  0  0  0
   36.1910   30.6340   31.7830 C   0  0  0  0  0  0  0  0  0  0  0  0
   35.6750   31.1380   32.9050 N   0  0  0  0  0  0  0  0  0  0  0  0
   35.4480   30.3170   33.9650 C   0  0  0  0  0  0  0  0  0  0  0  0
   35.7120   28.9990   33.9630 N   0  0  0  0  0  0  0  0  0  0  0  0
   36.8870   28.8630   30.8540 H   0  0  0  0  0  0  0  0  0  0  0  0
   36.4020   31.2140   30.8970 H   0  0  0  0  0  0  0  0  0  0  0  0
   34.8930   30.9500   35.1290 C   0  0  0  0  0  0  0  0  0  0  0  0
   35.4830   31.7630   36.1030 C   0  0  0  0  0  0  0  0  0  0  0  0
   36.5370   31.9520   35.9620 H   0  0  0  0  0  0  0  0  0  0  0  0
   34.7350   32.2550   37.1360 C   0  0  0  0  0  3  0  0  0  0  0  0
   33.3650   31.9130   37.1770 C   0  0  0  0  0  3  0  0  0  0  0  0
   33.0870   30.8580   35.7170 S   0  0  0  0  0  0  0  0  0  0  0  0
  1  6  1  0  0  0  0
  1 21  1  0  0  0  0
  2  3  1  0  0  0  0
  3  9  1  0  0  0  0
  3  4  2  0  0  0  0
  4 12  1  0  0  0  0
  5  4  1  0  0  0  0
  6  5  2  0  0  0  0
  7  6  1  0  0  0  0
  7  2  2  0  0  0  0
  8  2  1  0  0  0  0
 10 11  1  0  0  0  0
 11 16  1  0  0  0  0
 12 11  2  0  0  0  0
 12 13  1  0  0  0  0
 13 14  2  0  0  0  0
 14 15  1  0  0  0  0
 14 18  1  0  0  0  0
 15 19  1  0  0  0  0
 16 20  1  0  0  0  0
 16 15  2  0  0  0  0
 17 13  1  0  0  0  0
 21 24  1  0  0  0  0
 21 23  1  0  0  0  0
 22 21  1  0  0  0  0
 24 27  1  0  0  0  0
 24 26  1  0  0  0  0
 25 24  1  0  0  0  0
 27 32  1  0  0  0  0
 28 29  1  0  0  0  0
 28 27  2  0  0  0  0
 29 30  2  0  0  0  0
 30 31  1  0  0  0  0
 31 35  1  0  0  0  0
 32 31  2  0  0  0  0
 33 28  1  0  0  0  0
 34 29  1  0  0  0  0
 35 40  1  0  0  0  0
 35 36  2  0  0  0  0
 36 38  1  0  0  0  0
 37 36  1  0  0  0  0
 38 39  2  0  0  0  0
 40 39  1  0  0  0  0
M  END
>  <minimizedAffinity>
-6.03027391

$$$$

 OpenBabel03272509563D

 40 43  0  0  0  0  0  0  0  0999 V2000
   36.6610   27.0390   32.8490 O   0  0  0  0  0  0  0  0  0  0  0  0
   36.3500   30.3580   31.4740 C   0  0  0  0  0  0  0  0  0  0  0  0
   35.7350   31.0240   32.5620 C   0  0  0  0  0  0  0  0  0  0  0  0
   35.4690   30.2800   33.7000 C   0  0  0  0  0  0  0  0  0  0  0  0
   35.8280   28.9580   33.6670 N   0  0  0  0  0  0  0  0  0  0  0  0
   36.4090   28.3500   32.6270 C   0  0  0  0  0  0  0  0  0  0  0  0
   36.6670   29.0720   31.5210 N   0  0  0  0  0  0  0  0  0  0  0  0
   36.5420   30.9740   30.6020 H   0  0  0  0  0  0  0  0  0  0  0  0
   35.4530   32.0580   32.5890 H   0  0  0  0  0  0  0  0  0  0  0  0
   36.6550   31.9240   35.7610 F   0  0  0  0  0  0  0  0  0  0  0  0
   35.3960   31.5440   35.8760 C   0  0  0  0  0  0  0  0  0  0  0  0
   34.8520   30.7740   34.9040 C   0  0  0  0  0  0  0  0  0  0  0  0
   33.5270   30.4370   35.1280 C   0  0  0  0  0  0  0  0  0  0  0  0
   32.8210   30.8450   36.2390 C   0  0  0  0  0  0  0  0  0  0  0  0
   33.4130   31.6270   37.2040 C   0  0  0  0  0  0  0  0  0  0  0  0
   34.7260   31.9780   37.0100 C   0  0  0  0  0  0  0  0  0  0  0  0
   32.9460   29.8280   34.4480 H   0  0  0  0  0  0  0  0  0  0  0  0
   31.7860   30.5810   36.4150 H   0  0  0  0  0  0  0  0  0  0  0  0
   32.8810   31.9560   38.0800 H   0  0  0  0  0  0  0  0  0  0  0  0
   35.2050   32.5880   37.7510 H   0  0  0  0  0  0  0  0  0  0  0  0
   37.4140   26.3070   31.8950 C   0  0  0  0  0  0  0  0  0  0  0  0
   38.3720   26.0010   32.3720 H   0  0  0  0  0  0  0  0  0  0  0  0
   37.6480   26.9520   31.0270 H   0  0  0  0  0  0  0  0  0  0  0  0
   36.6560   25.1030   31.4400 C   0  0  0  0  0  0  0  0  0  0  0  0
   35.5480   25.2460   31.4810 H   0  0  0  0  0  0  0  0  0  0  0  0
   36.8970   24.8810   30.3930 H   0  0  0  0  0  0  0  0  0  0  0  0
   36.9370   23.9030   32.2640 C   0  0  0  0  0  0  0  0  0  0  0  0
   36.4180   22.6720   31.8590 C   0  0  0  0  0  0  0  0  0  0  0  0
   36.6190   21.5160   32.5470 C   0  0  0  0  0  0  0  0  0  0  0  0
   37.3490   21.5720   33.6610 N   0  0  0  0  0  0  0  0  0  0  0  0
   37.8600   22.7650   34.0670 C   0  0  0  0  0  0  0  0  0  0  0  0
   37.6780   23.9220   33.4090 N   0  0  0  0  0  0  0  0  0  0  0  0
   35.8280   22.6600   30.9480 H   0  0  0  0  0  0  0  0  0  0  0  0
   36.1770   20.6130   32.1540 H   0  0  0  0  0  0  0  0  0  0  0  0
   38.6310   22.7260   35.2790 C   0  0  0  0  0  0  0  0  0  0  0  0
   39.9120   22.2250   35.5380 C   0  0  0  0  0  0  0  0  0  0  0  0
   40.4120   21.7900   34.6860 H   0  0  0  0  0  0  0  0  0  0  0  0
   40.4410   22.3050   36.7960 C   0  0  0  0  0  3  0  0  0  0  0  0
   39.6550   22.9050   37.8040 C   0  0  0  0  0  3  0  0  0  0  0  0
   38.1020   23.3870   36.9820 S   0  0  0  0  0  0  0  0  0  0  0  0
  2  7  2  0  0  0  0
  2  3  1  0  0  0  0
  3  9  1  0  0  0  0
  3  4  2  0  0  0  0
  4 12  1  0  0  0  0
  5  4  1  0  0  0  0
  6  1  1  0  0  0  0
  6  5  2  0  0  0  0
  7  6  1  0  0  0  0
  8  2  1  0  0  0  0
 10 11  1  0  0  0  0
 11 16  1  0  0  0  0
 12 13  1  0  0  0  0
 12 11  2  0  0  0  0
 13 14  2  0  0  0  0
 14 18  1  0  0  0  0
 14 15  1  0  0  0  0
 15 19  1  0  0  0  0
 16 15  2  0  0  0  0
 16 20  1  0  0  0  0
 17 13  1  0  0  0  0
 21 22  1  0  0  0  0
 21  1  1  0  0  0  0
 23 21  1  0  0  0  0
 24 25  1  0  0  0  0
 24 21  1  0  0  0  0
 24 27  1  0  0  0  0
 26 24  1  0  0  0  0
 27 32  1  0  0  0  0
 28 27  2  0  0  0  0
 28 29  1  0  0  0  0
 29 30  2  0  0  0  0
 30 31  1  0  0  0  0
 31 35  1  0  0  0  0
 32 31  2  0  0  0  0
 33 28  1  0  0  0  0
 34 29  1  0  0  0  0
 35 36  2  0  0  0  0
 35 40  1  0  0  0  0
 36 38  1  0  0  0  0
 37 36  1  0  0  0  0
 38 39  2  0  0  0  0
 40 39  1  0  0  0  0
M  END
>  <minimizedAffinity>
-6.01543856

$$$$

 OpenBabel03272509563D

 40 43  0  0  0  0  0  0  0  0999 V2000
   36.2070   27.3840   32.4700 O   0  0  0  0  0  0  0  0  0  0  0  0
   36.3740   30.8430   31.4640 C   0  0  0  0  0  0  0  0  0  0  0  0
   35.8090   31.4630   32.6050 C   0  0  0  0  0  0  0  0  0  0  0  0
   35.4080   30.6430   33.6470 C   0  0  0  0  0  0  0  0  0  0  0  0
   35.5960   29.2970   33.4760 N   0  0  0  0  0  0  0  0  0  0  0  0
   36.1330   28.7320   32.3890 C   0  0  0  0  0  0  0  0  0  0  0  0
   36.5220   29.5290   31.3750 N   0  0  0  0  0  0  0  0  0  0  0  0
   36.6760   31.5180   30.6710 H   0  0  0  0  0  0  0  0  0  0  0  0
   35.6610   32.5160   32.7410 H   0  0  0  0  0  0  0  0  0  0  0  0
   36.6960   31.9880   35.8590 F   0  0  0  0  0  0  0  0  0  0  0  0
   35.4070   31.7130   35.9270 C   0  0  0  0  0  0  0  0  0  0  0  0
   34.8150   31.0820   34.8850 C   0  0  0  0  0  0  0  0  0  0  0  0
   33.4620   30.8440   35.0650 C   0  0  0  0  0  0  0  0  0  0  0  0
   32.7750   31.2140   36.2000 C   0  0  0  0  0  0  0  0  0  0  0  0
   33.4150   31.8520   37.2370 C   0  0  0  0  0  0  0  0  0  0  0  0
   34.7570   32.1030   37.0880 C   0  0  0  0  0  0  0  0  0  0  0  0
   32.8430   30.3510   34.3270 H   0  0  0  0  0  0  0  0  0  0  0  0
   31.7180   31.0270   36.3410 H   0  0  0  0  0  0  0  0  0  0  0  0
   32.8980   32.1490   38.1330 H   0  0  0  0  0  0  0  0  0  0  0  0
   35.2740   32.6000   37.8850 H   0  0  0  0  0  0  0  0  0  0  0  0
   36.3730   26.6260   31.2810 C   0  0  0  0  0  0  0  0  0  0  0  0
   36.3760   27.3320   30.4200 H   0  0  0  0  0  0  0  0  0  0  0  0
   35.5220   25.9300   31.1580 H   0  0  0  0  0  0  0  0  0  0  0  0
   37.6520   25.8570   31.3230 C   0  0  0  0  0  0  0  0  0  0  0  0
   37.5040   24.7590   31.1740 H   0  0  0  0  0  0  0  0  0  0  0  0
   38.3170   26.1880   30.5150 H   0  0  0  0  0  0  0  0  0  0  0  0
   38.3630   25.9940   32.6170 C   0  0  0  0  0  0  0  0  0  0  0  0
   39.4460   26.8700   32.7010 C   0  0  0  0  0  0  0  0  0  0  0  0
   40.1610   27.0650   33.8420 C   0  0  0  0  0  0  0  0  0  0  0  0
   39.8000   26.3810   34.9280 N   0  0  0  0  0  0  0  0  0  0  0  0
   38.7470   25.5230   34.8600 C   0  0  0  0  0  0  0  0  0  0  0  0
   38.0230   25.3110   33.7480 N   0  0  0  0  0  0  0  0  0  0  0  0
   39.7140   27.4120   31.8000 H   0  0  0  0  0  0  0  0  0  0  0  0
   40.9830   27.7640   33.8070 H   0  0  0  0  0  0  0  0  0  0  0  0
   38.4340   24.8300   36.0790 C   0  0  0  0  0  0  0  0  0  0  0  0
   38.1580   25.3100   37.3640 C   0  0  0  0  0  0  0  0  0  0  0  0
   38.1810   26.3840   37.4650 H   0  0  0  0  0  0  0  0  0  0  0  0
   37.8840   24.4370   38.3800 C   0  0  0  0  0  3  0  0  0  0  0  0
   37.8930   23.0570   38.0840 C   0  0  0  0  0  3  0  0  0  0  0  0
   38.2990   22.9480   36.3110 S   0  0  0  0  0  0  0  0  0  0  0  0
  2  3  1  0  0  0  0
  3  9  1  0  0  0  0
  3  4  2  0  0  0  0
  4 12  1  0  0  0  0
  5  4  1  0  0  0  0
  6  1  1  0  0  0  0
  6  5  2  0  0  0  0
  7  2  2  0  0  0  0
  7  6  1  0  0  0  0
  8  2  1  0  0  0  0
 10 11  1  0  0  0  0
 11 16  1  0  0  0  0
 12 13  1  0  0  0  0
 12 11  2  0  0  0  0
 13 14  2  0  0  0  0
 14 18  1  0  0  0  0
 14 15  1  0  0  0  0
 15 19  1  0  0  0  0
 16 15  2  0  0  0  0
 16 20  1  0  0  0  0
 17 13  1  0  0  0  0
 21 24  1  0  0  0  0
 21  1  1  0  0  0  0
 22 21  1  0  0  0  0
 23 21  1  0  0  0  0
 24 27  1  0  0  0  0
 25 24  1  0  0  0  0
 26 24  1  0  0  0  0
 27 28  2  0  0  0  0
 27 32  1  0  0  0  0
 28 29  1  0  0  0  0
 29 30  2  0  0  0  0
 31 30  1  0  0  0  0
 31 35  1  0  0  0  0
 32 31  2  0  0  0  0
 33 28  1  0  0  0  0
 34 29  1  0  0  0  0
 35 40  1  0  0  0  0
 35 36  2  0  0  0  0
 36 37  1  0  0  0  0
 36 38  1  0  0  0  0
 39 38  2  0  0  0  0
 40 39  1  0  0  0  0
M  END
>  <minimizedAffinity>
-5.88536882

$$$$

 OpenBabel03272509563D

 40 43  0  0  0  0  0  0  0  0999 V2000
   37.2180   22.8220   31.4640 O   0  0  0  0  0  0  0  0  0  0  0  0
   35.5650   20.5620   33.7360 C   0  0  0  0  0  0  0  0  0  0  0  0
   36.2270   20.8920   34.9440 C   0  0  0  0  0  0  0  0  0  0  0  0
   37.2020   21.8750   34.8910 C   0  0  0  0  0  0  0  0  0  0  0  0
   37.4380   22.4420   33.6670 N   0  0  0  0  0  0  0  0  0  0  0  0
   36.7990   22.1140   32.5380 C   0  0  0  0  0  0  0  0  0  0  0  0
   35.8520   21.1580   32.5880 N   0  0  0  0  0  0  0  0  0  0  0  0
   34.8090   19.7890   33.8180 H   0  0  0  0  0  0  0  0  0  0  0  0
   36.0440   20.4490   35.9030 H   0  0  0  0  0  0  0  0  0  0  0  0
   40.0690   21.7450   35.2410 F   0  0  0  0  0  0  0  0  0  0  0  0
   39.3240   22.2930   36.1820 C   0  0  0  0  0  0  0  0  0  0  0  0
   37.9820   22.3470   36.0070 C   0  0  0  0  0  0  0  0  0  0  0  0
   37.3010   22.9430   37.0560 C   0  0  0  0  0  0  0  0  0  0  0  0
   37.9270   23.4360   38.1800 C   0  0  0  0  0  0  0  0  0  0  0  0
   39.2940   23.3600   38.3180 C   0  0  0  0  0  0  0  0  0  0  0  0
   39.9980   22.7750   37.2940 C   0  0  0  0  0  0  0  0  0  0  0  0
   36.2260   23.0660   37.0730 H   0  0  0  0  0  0  0  0  0  0  0  0
   37.3950   23.9010   39.0000 H   0  0  0  0  0  0  0  0  0  0  0  0
   39.8040   23.7390   39.1870 H   0  0  0  0  0  0  0  0  0  0  0  0
   41.0640   22.7060   37.3820 H   0  0  0  0  0  0  0  0  0  0  0  0
   36.6680   24.1080   31.2240 C   0  0  0  0  0  0  0  0  0  0  0  0
   35.8250   24.2610   31.9350 H   0  0  0  0  0  0  0  0  0  0  0  0
   36.2690   24.1590   30.1930 H   0  0  0  0  0  0  0  0  0  0  0  0
   37.7040   25.1660   31.4160 C   0  0  0  0  0  0  0  0  0  0  0  0
   38.7350   24.7490   31.5370 H   0  0  0  0  0  0  0  0  0  0  0  0
   37.7410   25.8210   30.5360 H   0  0  0  0  0  0  0  0  0  0  0  0
   37.4630   25.9940   32.6220 C   0  0  0  0  0  0  0  0  0  0  0  0
   38.0590   25.6180   33.8270 C   0  0  0  0  0  0  0  0  0  0  0  0
   37.8970   26.3110   34.9860 C   0  0  0  0  0  0  0  0  0  0  0  0
   37.1310   27.4010   34.9600 N   0  0  0  0  0  0  0  0  0  0  0  0
   36.5430   27.7780   33.7930 C   0  0  0  0  0  0  0  0  0  0  0  0
   36.6840   27.1140   32.6330 N   0  0  0  0  0  0  0  0  0  0  0  0
   38.6770   24.7270   33.8150 H   0  0  0  0  0  0  0  0  0  0  0  0
   38.4000   25.9410   35.8670 H   0  0  0  0  0  0  0  0  0  0  0  0
   35.7340   28.9640   33.8630 C   0  0  0  0  0  0  0  0  0  0  0  0
   35.7640   30.0450   34.7500 C   0  0  0  0  0  0  0  0  0  0  0  0
   36.5210   29.9860   35.5170 H   0  0  0  0  0  0  0  0  0  0  0  0
   34.8750   31.0750   34.6100 C   0  0  0  0  0  3  0  0  0  0  0  0
   33.9430   31.0010   33.5510 C   0  0  0  0  0  3  0  0  0  0  0  0
   34.3060   29.4330   32.6990 S   0  0  0  0  0  0  0  0  0  0  0  0
  1  6  1  0  0  0  0
  2  8  1  0  0  0  0
  2  3  1  0  0  0  0
  3  9  1  0  0  0  0
  4  3  2  0  0  0  0
  4 12  1  0  0  0  0
  5  4  1  0  0  0  0
  6  7  1  0  0  0  0
  6  5  2  0  0  0  0
  7  2  2  0  0  0  0
 10 11  1  0  0  0  0
 11 16  1  0  0  0  0
 12 11  2  0  0  0  0
 12 13  1  0  0  0  0
 13 17  1  0  0  0  0
 13 14  2  0  0  0  0
 14 15  1  0  0  0  0
 14 18  1  0  0  0  0
 15 19  1  0  0  0  0
 16 20  1  0  0  0  0
 16 15  2  0  0  0  0
 21 24  1  0  0  0  0
 21  1  1  0  0  0  0
 21 22  1  0  0  0  0
 23 21  1  0  0  0  0
 24 25  1  0  0  0  0
 24 27  1  0  0  0  0
 26 24  1  0  0  0  0
 27 32  2  0  0  0  0
 27 28  1  0  0  0  0
 28 29  2  0  0  0  0
 29 34  1  0  0  0  0
 30 29  1  0  0  0  0
 31 35  1  0  0  0  0
 31 30  2  0  0  0  0
 32 31  1  0  0  0  0
 33 28  1  0  0  0  0
 35 36  2  0  0  0  0
 36 37  1  0  0  0  0
 38 36  1  0  0  0  0
 39 38  2  0  0  0  0
 40 39  1  0  0  0  0
 40 35  1  0  0  0  0
M  END
>  <minimizedAffinity>
-5.73957157

$$$$

 OpenBabel03272509563D

 40 43  0  0  0  0  0  0  0  0999 V2000
   37.8900   27.1270   32.6420 O   0  0  0  0  0  0  0  0  0  0  0  0
   39.9770   24.2270   32.1490 C   0  0  0  0  0  0  0  0  0  0  0  0
   39.9840   23.6970   33.4620 C   0  0  0  0  0  0  0  0  0  0  0  0
   39.2660   24.3780   34.4310 C   0  0  0  0  0  0  0  0  0  0  0  0
   38.6100   25.5110   34.0270 N   0  0  0  0  0  0  0  0  0  0  0  0
   38.6170   25.9940   32.7790 C   0  0  0  0  0  0  0  0  0  0  0  0
   39.3150   25.3330   31.8370 N   0  0  0  0  0  0  0  0  0  0  0  0
   40.5500   23.6660   31.4190 H   0  0  0  0  0  0  0  0  0  0  0  0
   40.4960   22.8110   33.7800 H   0  0  0  0  0  0  0  0  0  0  0  0
   41.0530   22.7100   35.9740 F   0  0  0  0  0  0  0  0  0  0  0  0
   39.9810   23.2200   36.5500 C   0  0  0  0  0  0  0  0  0  0  0  0
   39.1510   24.0000   35.8160 C   0  0  0  0  0  0  0  0  0  0  0  0
   38.0600   24.4800   36.5220 C   0  0  0  0  0  0  0  0  0  0  0  0
   37.8330   24.1930   37.8500 C   0  0  0  0  0  0  0  0  0  0  0  0
   38.7020   23.3950   38.5590 C   0  0  0  0  0  0  0  0  0  0  0  0
   39.7940   22.9040   37.8870 C   0  0  0  0  0  0  0  0  0  0  0  0
   37.3030   25.1170   36.0830 H   0  0  0  0  0  0  0  0  0  0  0  0
   36.9800   24.5680   38.4020 H   0  0  0  0  0  0  0  0  0  0  0  0
   38.5450   23.1580   39.5970 H   0  0  0  0  0  0  0  0  0  0  0  0
   40.4830   22.2810   38.4210 H   0  0  0  0  0  0  0  0  0  0  0  0
   36.5100   27.0310   32.3240 C   0  0  0  0  0  0  0  0  0  0  0  0
   35.9300   27.1680   33.2640 H   0  0  0  0  0  0  0  0  0  0  0  0
   36.2870   26.0250   31.9210 H   0  0  0  0  0  0  0  0  0  0  0  0
   36.1280   28.0720   31.3240 C   0  0  0  0  0  0  0  0  0  0  0  0
   36.8560   28.1500   30.4780 H   0  0  0  0  0  0  0  0  0  0  0  0
   35.1600   27.8210   30.8720 H   0  0  0  0  0  0  0  0  0  0  0  0
   36.0480   29.4310   31.9120 C   0  0  0  0  0  0  0  0  0  0  0  0
   36.5440   30.5110   31.1800 C   0  0  0  0  0  0  0  0  0  0  0  0
   36.5170   31.7930   31.6330 C   0  0  0  0  0  0  0  0  0  0  0  0
   35.9870   32.0190   32.8360 N   0  0  0  0  0  0  0  0  0  0  0  0
   35.5010   30.9750   33.5600 C   0  0  0  0  0  0  0  0  0  0  0  0
   35.5150   29.6990   33.1390 N   0  0  0  0  0  0  0  0  0  0  0  0
   36.9680   30.2940   30.2060 H   0  0  0  0  0  0  0  0  0  0  0  0
   36.9250   32.5610   30.9940 H   0  0  0  0  0  0  0  0  0  0  0  0
   34.9530   31.3160   34.8430 C   0  0  0  0  0  0  0  0  0  0  0  0
   35.5260   31.9560   35.9470 C   0  0  0  0  0  0  0  0  0  0  0  0
   36.5570   32.2470   35.8210 H   0  0  0  0  0  0  0  0  0  0  0  0
   34.7880   32.1710   37.0780 C   0  0  0  0  0  3  0  0  0  0  0  0
   33.4470   31.7270   37.0840 C   0  0  0  0  0  3  0  0  0  0  0  0
   33.1820   30.9730   35.4470 S   0  0  0  0  0  0  0  0  0  0  0  0
  1  6  1  0  0  0  0
  2  3  1  0  0  0  0
  3  9  1  0  0  0  0
  3  4  2  0  0  0  0
  4 12  1  0  0  0  0
  5  4  1  0  0  0  0
  6  5  2  0  0  0  0
  7  2  2  0  0  0  0
  7  6  1  0  0  0  0
  8  2  1  0  0  0  0
 10 11  1  0  0  0  0
 11 16  1  0  0  0  0
 12 13  1  0  0  0  0
 12 11  2  0  0  0  0
 13 14  2  0  0  0  0
 14 18  1  0  0  0  0
 14 15  1  0  0  0  0
 15 19  1  0  0  0  0
 16 20  1  0  0  0  0
 16 15  2  0  0  0  0
 17 13  1  0  0  0  0
 21  1  1  0  0  0  0
 21 22  1  0  0  0  0
 23 21  1  0  0  0  0
 24 27  1  0  0  0  0
 24 21  1  0  0  0  0
 25 24  1  0  0  0  0
 26 24  1  0  0  0  0
 27 32  1  0  0  0  0
 28 29  1  0  0  0  0
 28 27  2  0  0  0  0
 29 30  2  0  0  0  0
 30 31  1  0  0  0  0
 31 35  1  0  0  0  0
 32 31  2  0  0  0  0
 33 28  1  0  0  0  0
 34 29  1  0  0  0  0
 35 40  1  0  0  0  0
 35 36  2  0  0  0  0
 36 38  1  0  0  0  0
 37 36  1  0  0  0  0
 38 39  2  0  0  0  0
 40 39  1  0  0  0  0
M  END
>  <minimizedAffinity>
-5.73024035

$$$$

 OpenBabel03272509563D

 40 43  0  0  0  0  0  0  0  0999 V2000
   37.9480   25.5260   32.5800 O   0  0  0  0  0  0  0  0  0  0  0  0
   38.6820   23.3370   35.3490 C   0  0  0  0  0  0  0  0  0  0  0  0
   38.0660   22.1450   34.8970 C   0  0  0  0  0  0  0  0  0  0  0  0
   37.4370   22.1780   33.6630 C   0  0  0  0  0  0  0  0  0  0  0  0
   37.4690   23.3700   32.9890 N   0  0  0  0  0  0  0  0  0  0  0  0
   38.0590   24.4850   33.4360 C   0  0  0  0  0  0  0  0  0  0  0  0
   38.6690   24.4530   34.6360 N   0  0  0  0  0  0  0  0  0  0  0  0
   39.1640   23.2700   36.3190 H   0  0  0  0  0  0  0  0  0  0  0  0
   38.0390   21.2110   35.4230 H   0  0  0  0  0  0  0  0  0  0  0  0
   35.2910   20.5650   34.7350 F   0  0  0  0  0  0  0  0  0  0  0  0
   35.7520   20.3120   33.5240 C   0  0  0  0  0  0  0  0  0  0  0  0
   36.7580   21.0740   33.0340 C   0  0  0  0  0  0  0  0  0  0  0  0
   37.1620   20.7190   31.7570 C   0  0  0  0  0  0  0  0  0  0  0  0
   36.5950   19.6850   31.0450 C   0  0  0  0  0  0  0  0  0  0  0  0
   35.5750   18.9340   31.5810 C   0  0  0  0  0  0  0  0  0  0  0  0
   35.1520   19.2610   32.8470 C   0  0  0  0  0  0  0  0  0  0  0  0
   37.9520   21.2280   31.2210 H   0  0  0  0  0  0  0  0  0  0  0  0
   36.9110   19.4070   30.0470 H   0  0  0  0  0  0  0  0  0  0  0  0
   35.1180   18.1210   31.0440 H   0  0  0  0  0  0  0  0  0  0  0  0
   34.3570   18.6880   33.2830 H   0  0  0  0  0  0  0  0  0  0  0  0
   36.8280   26.3920   32.6830 C   0  0  0  0  0  0  0  0  0  0  0  0
   35.9810   25.8110   33.1120 H   0  0  0  0  0  0  0  0  0  0  0  0
   36.5330   26.7450   31.6760 H   0  0  0  0  0  0  0  0  0  0  0  0
   37.1460   27.5620   33.5550 C   0  0  0  0  0  0  0  0  0  0  0  0
   37.2640   27.2820   34.6320 H   0  0  0  0  0  0  0  0  0  0  0  0
   38.1000   28.0100   33.2500 H   0  0  0  0  0  0  0  0  0  0  0  0
   36.0920   28.6040   33.5250 C   0  0  0  0  0  0  0  0  0  0  0  0
   35.3210   28.7480   32.3700 C   0  0  0  0  0  0  0  0  0  0  0  0
   34.3330   29.6740   32.2460 C   0  0  0  0  0  0  0  0  0  0  0  0
   34.0960   30.4780   33.2830 N   0  0  0  0  0  0  0  0  0  0  0  0
   34.8400   30.3490   34.4130 C   0  0  0  0  0  0  0  0  0  0  0  0
   35.8230   29.4440   34.5650 N   0  0  0  0  0  0  0  0  0  0  0  0
   35.5380   28.0790   31.5450 H   0  0  0  0  0  0  0  0  0  0  0  0
   33.7910   29.7090   31.3130 H   0  0  0  0  0  0  0  0  0  0  0  0
   34.5140   31.2590   35.4760 C   0  0  0  0  0  0  0  0  0  0  0  0
   33.4440   31.2740   36.3770 C   0  0  0  0  0  0  0  0  0  0  0  0
   32.7380   30.4670   36.2600 H   0  0  0  0  0  0  0  0  0  0  0  0
   33.3490   32.2630   37.3160 C   0  0  0  0  0  3  0  0  0  0  0  0
   34.3580   33.2510   37.3370 C   0  0  0  0  0  3  0  0  0  0  0  0
   35.5030   32.7980   35.9940 S   0  0  0  0  0  0  0  0  0  0  0  0
  1 21  1  0  0  0  0
  1  6  1  0  0  0  0
  2  8  1  0  0  0  0
  3  2  1  0  0  0  0
  3  9  1  0  0  0  0
  4  3  2  0  0  0  0
  5  6  2  0  0  0  0
  5  4  1  0  0  0  0
  6  7  1  0  0  0  0
  7  2  2  0  0  0  0
 11 10  1  0  0  0  0
 12 11  1  0  0  0  0
 12  4  1  0  0  0  0
 13 12  2  0  0  0  0
 14 15  2  0  0  0  0
 14 13  1  0  0  0  0
 15 16  1  0  0  0  0
 16 20  1  0  0  0  0
 16 11  2  0  0  0  0
 17 13  1  0  0  0  0
 18 14  1  0  0  0  0
 19 15  1  0  0  0  0
 21 22  1  0  0  0  0
 21 24  1  0  0  0  0
 23 21  1  0  0  0  0
 24 25  1  0  0  0  0
 26 24  1  0  0  0  0
 27 24  1  0  0  0  0
 27 32  1  0  0  0  0
 28 27  2  0  0  0  0
 29 28  1  0  0  0  0
 29 30  2  0  0  0  0
 30 31  1  0  0  0  0
 31 32  2  0  0  0  0
 31 35  1  0  0  0  0
 33 28  1  0  0  0  0
 34 29  1  0  0  0  0
 35 40  1  0  0  0  0
 35 36  2  0  0  0  0
 36 38  1  0  0  0  0
 37 36  1  0  0  0  0
 38 39  2  0  0  0  0
 40 39  1  0  0  0  0
M  END
>  <minimizedAffinity>
-5.71632624

$$$$
