
 OpenBabel03272510013D

 18 19  0  0  0  0  0  0  0  0999 V2000
   38.2870   32.8060   49.5340 C   0  0  0  0  0  0  0  0  0  0  0  0
   38.8290   32.8590   48.2320 C   0  0  0  0  0  0  0  0  0  0  0  0
   38.2800   32.0020   47.2930 C   0  0  0  0  0  0  0  0  0  0  0  0
   37.2730   31.1690   47.6460 N   0  0  0  0  0  0  0  0  0  0  0  0
   36.7800   31.1480   48.9060 C   0  0  0  0  0  0  0  0  0  0  0  0
   37.2970   31.9690   49.8290 N   0  0  0  0  0  0  0  0  0  0  0  0
   38.6990   33.4690   50.2920 H   0  0  0  0  0  0  0  0  0  0  0  0
   39.6170   33.5410   48.0400 H   0  0  0  0  0  0  0  0  0  0  0  0
   38.7880   32.0050   45.9400 C   0  0  0  0  0  0  0  0  0  0  0  0
   38.3410   32.4560   44.7500 C   0  0  0  0  0  0  0  0  0  0  0  0
   37.3610   32.9350   44.8130 H   0  0  0  0  0  0  0  0  0  0  0  0
   39.0670   32.3060   43.6260 C   0  0  0  0  0  3  0  0  0  0  0  0
   40.2880   31.6660   43.7620 C   0  0  0  0  0  3  0  0  0  0  0  0
   40.3600   31.2830   45.5860 S   0  0  0  0  0  0  0  0  0  0  0  0
   35.6800   30.2090   49.2160 C   0  0  0  0  0  0  0  0  0  0  0  0
   35.5080   30.0110   50.5760 F   0  0  0  0  0  0  0  0  0  0  0  0
   34.4680   30.6740   48.7320 F   0  0  0  0  0  0  0  0  0  0  0  0
   35.8540   28.9700   48.6330 F   0  0  0  0  0  0  0  0  0  0  0  0
  1  6  1  0  0  0  0
  1  7  1  0  0  0  0
  2  1  2  0  0  0  0
  3  4  2  0  0  0  0
  3  2  1  0  0  0  0
  4  5  1  0  0  0  0
  5 15  1  0  0  0  0
  5  6  2  0  0  0  0
  8  2  1  0  0  0  0
  9  3  1  0  0  0  0
 10 11  1  0  0  0  0
 10  9  2  0  0  0  0
 12 13  2  0  0  0  0
 12 10  1  0  0  0  0
 13 14  1  0  0  0  0
 14  9  1  0  0  0  0
 15 16  1  0  0  0  0
 17 15  1  0  0  0  0
 18 15  1  0  0  0  0
M  END
>  <minimizedAffinity>
-5.10975266

>  <minimizedRMSD>
1.89509451

$$$$
