
 OpenBabel03272507583D

 29 31  0  0  0  0  0  0  0  0999 V2000
   37.0600   31.1920   48.5250 C   0  0  0  0  0  0  0  0  0  0  0  0
   37.2170   32.2390   49.4280 C   0  0  0  0  0  0  0  0  0  0  0  0
   38.1900   33.1930   49.2000 C   0  0  0  0  0  0  0  0  0  0  0  0
   39.0030   33.1290   48.1040 C   0  0  0  0  0  0  0  0  0  0  0  0
   38.8240   32.0850   47.2320 C   0  0  0  0  0  0  0  0  0  0  0  0
   37.8740   31.1410   47.4420 N   0  0  0  0  0  0  0  0  0  0  0  0
   36.6600   32.4340   50.3370 H   0  0  0  0  0  0  0  0  0  0  0  0
   38.3820   34.0350   49.8440 H   0  0  0  0  0  0  0  0  0  0  0  0
   39.7970   33.7700   47.7730 H   0  0  0  0  0  0  0  0  0  0  0  0
   35.0890   28.5920   50.3630 C   0  0  0  0  0  0  0  0  0  0  0  0
   36.1470   29.4860   50.0220 C   0  0  0  0  0  0  0  0  0  0  0  0
   36.0040   30.2740   48.8960 C   0  0  0  0  0  0  0  0  0  0  0  0
   34.8590   30.1600   48.1680 N   0  0  0  0  0  0  0  0  0  0  0  0
   33.8710   29.2920   48.5280 C   0  0  0  0  0  0  0  0  0  0  0  0
   33.9770   28.5200   49.6040 N   0  0  0  0  0  0  0  0  0  0  0  0
   32.7740   29.3580   47.6030 N   0  0  0  0  0  0  0  0  0  0  0  0
   35.1570   27.9570   51.2330 H   0  0  0  0  0  0  0  0  0  0  0  0
   32.9220   28.8600   46.6840 H   0  0  0  0  0  0  0  0  0  0  0  0
   32.0620   29.9180   48.1040 H   0  0  0  0  0  0  0  0  0  0  0  0
   37.3550   29.5210   50.9000 C   0  0  0  0  0  0  0  0  0  0  0  0
   38.5040   29.7550   50.1520 F   0  0  0  0  0  0  0  0  0  0  0  0
   37.1980   30.5330   51.8020 F   0  0  0  0  0  0  0  0  0  0  0  0
   37.5490   28.3460   51.5950 F   0  0  0  0  0  0  0  0  0  0  0  0
   39.5330   31.7360   45.9670 C   0  0  0  0  0  0  0  0  0  0  0  0
   39.1190   30.6710   45.3000 C   0  0  0  0  0  0  0  0  0  0  0  0
   38.3160   29.9340   45.4780 H   0  0  0  0  0  0  0  0  0  0  0  0
   39.6080   30.1730   44.1430 C   0  0  0  0  0  3  0  0  0  0  0  0
   40.7200   31.0200   43.7050 C   0  0  0  0  0  3  0  0  0  0  0  0
   40.8370   32.3780   45.0630 S   0  0  0  0  0  0  0  0  0  0  0  0
  1 12  1  0  0  0  0
  1  2  1  0  0  0  0
  2  7  1  0  0  0  0
  3  2  2  0  0  0  0
  3  8  1  0  0  0  0
  4  3  1  0  0  0  0
  5  6  1  0  0  0  0
  5  4  2  0  0  0  0
  6  1  2  0  0  0  0
  9  4  1  0  0  0  0
 10 17  1  0  0  0  0
 11 10  1  0  0  0  0
 11 20  1  0  0  0  0
 12 11  2  0  0  0  0
 13 14  2  0  0  0  0
 13 12  1  0  0  0  0
 14 15  1  0  0  0  0
 15 10  2  0  0  0  0
 16 19  1  0  0  0  0
 16 14  1  0  0  0  0
 18 16  1  0  0  0  0
 20 23  1  0  0  0  0
 20 22  1  0  0  0  0
 21 20  1  0  0  0  0
 24  5  1  0  0  0  0
 25 26  1  0  0  0  0
 25 24  2  0  0  0  0
 27 25  1  0  0  0  0
 28 27  2  0  0  0  0
 28 29  1  0  0  0  0
 29 24  1  0  0  0  0
M  END
>  <minimizedAffinity>
-6.98362684

>  <minimizedRMSD>
0.577003956

$$$$
