
 OpenBabel03272510343D

 25 27  0  0  0  0  0  0  0  0999 V2000
   35.9350   30.0740   47.7500 C   0  0  0  0  0  0  0  0  0  0  0  0
   35.2300   30.0580   46.5660 C   0  0  0  0  0  0  0  0  0  0  0  0
   34.1790   29.1830   46.3760 C   0  0  0  0  0  0  0  0  0  0  0  0
   33.8470   28.3230   47.3960 C   0  0  0  0  0  0  0  0  0  0  0  0
   34.5350   28.3180   48.5900 C   0  0  0  0  0  0  0  0  0  0  0  0
   35.5850   29.1990   48.7680 C   0  0  0  0  0  0  0  0  0  0  0  0
   35.4930   30.7430   45.7460 H   0  0  0  0  0  0  0  0  0  0  0  0
   33.6250   29.1690   45.4450 H   0  0  0  0  0  0  0  0  0  0  0  0
   33.0320   27.6060   47.3280 H   0  0  0  0  0  0  0  0  0  0  0  0
   34.3410   27.6740   49.4470 H   0  0  0  0  0  0  0  0  0  0  0  0
   37.9120   32.8270   49.0530 C   0  0  0  0  0  0  0  0  0  0  0  0
   39.0140   32.9060   48.2020 C   0  0  0  0  0  0  0  0  0  0  0  0
   39.0630   31.9730   47.1500 C   0  0  0  0  0  0  0  0  0  0  0  0
   38.0620   31.0670   47.0190 N   0  0  0  0  0  0  0  0  0  0  0  0
   37.0220   31.0270   47.8610 C   0  0  0  0  0  0  0  0  0  0  0  0
   36.9520   31.9180   48.8860 N   0  0  0  0  0  0  0  0  0  0  0  0
   37.8700   33.5540   49.8760 H   0  0  0  0  0  0  0  0  0  0  0  0
   39.7740   33.6680   48.3820 H   0  0  0  0  0  0  0  0  0  0  0  0
   39.9170   32.0380   46.4960 H   0  0  0  0  0  0  0  0  0  0  0  0
   36.3590   29.2390   50.0210 C   0  0  0  0  0  0  0  0  0  0  0  0
   35.8040   29.6690   51.2690 C   0  0  0  0  0  0  0  0  0  0  0  0
   34.7770   29.9870   51.3350 H   0  0  0  0  0  0  0  0  0  0  0  0
   36.6260   29.6600   52.3610 C   0  0  0  0  0  3  0  0  0  0  0  0
   37.9720   29.2300   52.2040 C   0  0  0  0  0  3  0  0  0  0  0  0
   38.1200   28.8100   50.4460 S   0  0  0  0  0  0  0  0  0  0  0  0
  1 15  1  0  0  0  0
  1  6  1  0  0  0  0
  2  1  2  0  0  0  0
  3  2  1  0  0  0  0
  3  4  2  0  0  0  0
  4  5  1  0  0  0  0
  5  6  2  0  0  0  0
  5 10  1  0  0  0  0
  6 20  1  0  0  0  0
  7  2  1  0  0  0  0
  8  3  1  0  0  0  0
  9  4  1  0  0  0  0
 11 17  1  0  0  0  0
 12 18  1  0  0  0  0
 12 11  2  0  0  0  0
 13 12  1  0  0  0  0
 14 13  2  0  0  0  0
 14 15  1  0  0  0  0
 15 16  2  0  0  0  0
 16 11  1  0  0  0  0
 19 13  1  0  0  0  0
 20 25  1  0  0  0  0
 20 21  2  0  0  0  0
 21 22  1  0  0  0  0
 21 23  1  0  0  0  0
 24 23  2  0  0  0  0
 25 24  1  0  0  0  0
M  END
>  <minimizedAffinity>
-3.59518409

>  <minimizedRMSD>
0.943016887

$$$$
