
 OpenBabel03272500243D

 28 30  0  0  0  0  0  0  0  0999 V2000
   38.7060   25.9470   34.2390 C   0  0  0  0  0  0  0  0  0  0  0  0
   39.4790   26.4320   34.9030 H   0  0  0  0  0  0  0  0  0  0  0  0
   39.3270   25.7940   33.2910 H   0  0  0  0  0  0  0  0  0  0  0  0
   37.7250   27.0170   34.0590 C   0  0  0  0  0  0  0  0  0  0  0  0
   37.2850   27.3410   32.7950 C   0  0  0  0  0  0  0  0  0  0  0  0
   36.4100   28.3920   32.8890 C   0  0  0  0  0  0  0  0  0  0  0  0
   36.3250   28.6940   34.1840 N   0  0  0  0  0  0  0  0  0  0  0  0
   37.1200   27.8570   34.8730 N   0  0  0  0  0  0  0  0  0  0  0  0
   37.5220   26.9090   31.8210 H   0  0  0  0  0  0  0  0  0  0  0  0
   35.8680   28.9130   32.1120 H   0  0  0  0  0  0  0  0  0  0  0  0
   35.5070   29.7560   34.7780 C   0  0  0  0  0  0  0  0  0  0  0  0
   36.0270   30.7760   35.5430 C   0  0  0  0  0  0  0  0  0  0  0  0
   37.0830   30.8590   35.7560 H   0  0  0  0  0  0  0  0  0  0  0  0
   35.2230   31.7240   36.0620 C   0  0  0  0  0  3  0  0  0  0  0  0
   33.8050   31.6710   35.8140 C   0  0  0  0  0  3  0  0  0  0  0  0
   33.7030   30.0930   34.7350 S   0  0  0  0  0  0  0  0  0  0  0  0
   38.1710   24.6560   34.6680 C   0  0  0  0  0  0  0  0  0  0  0  0
   38.4690   23.8350   33.9460 H   0  0  0  0  0  0  0  0  0  0  0  0
   37.0440   24.6700   34.5470 H   0  0  0  0  0  0  0  0  0  0  0  0
   38.4680   24.1730   35.9880 C   0  0  0  0  0  0  0  0  0  0  0  0
   37.7520   24.5650   37.0800 C   0  0  0  0  0  0  0  0  0  0  0  0
   38.0420   24.0940   38.3680 C   0  0  0  0  0  0  0  0  0  0  0  0
   39.1030   23.2090   38.4290 N   0  0  0  0  0  0  0  0  0  0  0  0
   39.8060   22.8290   37.3390 C   0  0  0  0  0  0  0  0  0  0  0  0
   39.4730   23.3250   36.1090 N   0  0  0  0  0  0  0  0  0  0  0  0
   36.9150   25.2390   37.1550 H   0  0  0  0  0  0  0  0  0  0  0  0
   37.5460   24.3360   39.2870 H   0  0  0  0  0  0  0  0  0  0  0  0
   40.6150   22.1380   37.4720 H   0  0  0  0  0  0  0  0  0  0  0  0
  1 17  1  0  0  0  0
  1  2  1  0  0  0  0
  3  1  1  0  0  0  0
  4  1  1  0  0  0  0
  4  8  2  0  0  0  0
  5  6  2  0  0  0  0
  5  4  1  0  0  0  0
  6  7  1  0  0  0  0
  7 11  1  0  0  0  0
  7  8  1  0  0  0  0
  9  5  1  0  0  0  0
 10  6  1  0  0  0  0
 11 12  2  0  0  0  0
 12 13  1  0  0  0  0
 12 14  1  0  0  0  0
 15 14  2  0  0  0  0
 16 11  1  0  0  0  0
 16 15  1  0  0  0  0
 17 20  1  0  0  0  0
 18 17  1  0  0  0  0
 19 17  1  0  0  0  0
 20 25  2  0  0  0  0
 20 21  1  0  0  0  0
 21 26  1  0  0  0  0
 21 22  2  0  0  0  0
 22 23  1  0  0  0  0
 22 27  1  0  0  0  0
 24 28  1  0  0  0  0
 24 23  2  0  0  0  0
 25 24  1  0  0  0  0
M  END
>  <minimizedAffinity>
-4.65310478

$$$$

 OpenBabel03272500243D

 28 30  0  0  0  0  0  0  0  0999 V2000
   38.1870   26.7850   35.4580 C   0  0  0  0  0  0  0  0  0  0  0  0
   37.9370   27.6450   36.1430 H   0  0  0  0  0  0  0  0  0  0  0  0
   39.3200   26.7330   35.6090 H   0  0  0  0  0  0  0  0  0  0  0  0
   37.8570   27.3250   34.1380 C   0  0  0  0  0  0  0  0  0  0  0  0
   36.6490   27.9540   33.9350 C   0  0  0  0  0  0  0  0  0  0  0  0
   36.5650   28.3300   32.6190 C   0  0  0  0  0  0  0  0  0  0  0  0
   37.6990   27.9350   32.0430 N   0  0  0  0  0  0  0  0  0  0  0  0
   38.4650   27.3350   32.9710 N   0  0  0  0  0  0  0  0  0  0  0  0
   35.8290   28.1690   34.6210 H   0  0  0  0  0  0  0  0  0  0  0  0
   35.7690   28.8420   32.0960 H   0  0  0  0  0  0  0  0  0  0  0  0
   38.0690   28.1170   30.6360 C   0  0  0  0  0  0  0  0  0  0  0  0
   37.3980   28.9600   29.7780 C   0  0  0  0  0  0  0  0  0  0  0  0
   36.5470   29.5470   30.0920 H   0  0  0  0  0  0  0  0  0  0  0  0
   37.7860   29.0840   28.4940 C   0  0  0  0  0  3  0  0  0  0  0  0
   38.9140   28.3290   28.0130 C   0  0  0  0  0  3  0  0  0  0  0  0
   39.4010   27.3840   29.6060 S   0  0  0  0  0  0  0  0  0  0  0  0
   37.6060   25.4820   35.7780 C   0  0  0  0  0  0  0  0  0  0  0  0
   37.2830   24.9420   34.8360 H   0  0  0  0  0  0  0  0  0  0  0  0
   36.6150   25.6440   36.3010 H   0  0  0  0  0  0  0  0  0  0  0  0
   38.3680   24.5430   36.5530 C   0  0  0  0  0  0  0  0  0  0  0  0
   38.0590   24.2540   37.8490 C   0  0  0  0  0  0  0  0  0  0  0  0
   38.8010   23.3370   38.6050 C   0  0  0  0  0  0  0  0  0  0  0  0
   39.8610   22.7610   37.9260 N   0  0  0  0  0  0  0  0  0  0  0  0
   40.1580   23.0550   36.6420 C   0  0  0  0  0  0  0  0  0  0  0  0
   39.3930   23.9600   35.9580 N   0  0  0  0  0  0  0  0  0  0  0  0
   37.2680   24.6340   38.4740 H   0  0  0  0  0  0  0  0  0  0  0  0
   38.6460   23.0400   39.6230 H   0  0  0  0  0  0  0  0  0  0  0  0
   40.9960   22.5640   36.1890 H   0  0  0  0  0  0  0  0  0  0  0  0
  1  3  1  0  0  0  0
  1 17  1  0  0  0  0
  1  2  1  0  0  0  0
  4  1  1  0  0  0  0
  5  4  1  0  0  0  0
  5  9  1  0  0  0  0
  6  5  2  0  0  0  0
  7  6  1  0  0  0  0
  7  8  1  0  0  0  0
  8  4  2  0  0  0  0
 10  6  1  0  0  0  0
 11  7  1  0  0  0  0
 12 13  1  0  0  0  0
 12 11  2  0  0  0  0
 14 12  1  0  0  0  0
 15 14  2  0  0  0  0
 15 16  1  0  0  0  0
 16 11  1  0  0  0  0
 17 19  1  0  0  0  0
 17 20  1  0  0  0  0
 18 17  1  0  0  0  0
 20 21  1  0  0  0  0
 21 26  1  0  0  0  0
 21 22  2  0  0  0  0
 22 27  1  0  0  0  0
 23 22  1  0  0  0  0
 24 23  2  0  0  0  0
 25 20  2  0  0  0  0
 25 24  1  0  0  0  0
 28 24  1  0  0  0  0
M  END
>  <minimizedAffinity>
-4.63031816

$$$$

 OpenBabel03272500243D

 28 30  0  0  0  0  0  0  0  0999 V2000
   36.7750   26.0930   31.7880 C   0  0  0  0  0  0  0  0  0  0  0  0
   37.7580   26.2690   31.2640 H   0  0  0  0  0  0  0  0  0  0  0  0
   36.2910   27.1200   31.6510 H   0  0  0  0  0  0  0  0  0  0  0  0
   37.1870   25.8850   33.1760 C   0  0  0  0  0  0  0  0  0  0  0  0
   36.9950   26.8820   34.1070 C   0  0  0  0  0  0  0  0  0  0  0  0
   37.4970   26.4620   35.3110 C   0  0  0  0  0  0  0  0  0  0  0  0
   37.9810   25.2370   35.1090 N   0  0  0  0  0  0  0  0  0  0  0  0
   37.7840   24.9060   33.8210 N   0  0  0  0  0  0  0  0  0  0  0  0
   36.5380   27.8680   34.0160 H   0  0  0  0  0  0  0  0  0  0  0  0
   37.5250   26.9720   36.2650 H   0  0  0  0  0  0  0  0  0  0  0  0
   38.6220   24.3790   36.1110 C   0  0  0  0  0  0  0  0  0  0  0  0
   38.1220   24.1910   37.3800 C   0  0  0  0  0  0  0  0  0  0  0  0
   37.2150   24.6680   37.7220 H   0  0  0  0  0  0  0  0  0  0  0  0
   38.7580   23.3890   38.2570 C   0  0  0  0  0  3  0  0  0  0  0  0
   39.9720   22.7220   37.8630 C   0  0  0  0  0  3  0  0  0  0  0  0
   40.1450   23.3550   36.0640 S   0  0  0  0  0  0  0  0  0  0  0  0
   35.8890   25.0740   31.2260 C   0  0  0  0  0  0  0  0  0  0  0  0
   35.5170   25.3850   30.2020 H   0  0  0  0  0  0  0  0  0  0  0  0
   34.9280   25.0560   31.8240 H   0  0  0  0  0  0  0  0  0  0  0  0
   36.3590   23.7220   31.1030 C   0  0  0  0  0  0  0  0  0  0  0  0
   35.6060   22.6560   31.4950 C   0  0  0  0  0  0  0  0  0  0  0  0
   36.0640   21.3370   31.3740 C   0  0  0  0  0  0  0  0  0  0  0  0
   37.3310   21.2180   30.8310 N   0  0  0  0  0  0  0  0  0  0  0  0
   38.0680   22.2830   30.4470 C   0  0  0  0  0  0  0  0  0  0  0  0
   37.5630   23.5460   30.5910 N   0  0  0  0  0  0  0  0  0  0  0  0
   34.6180   22.6250   31.9250 H   0  0  0  0  0  0  0  0  0  0  0  0
   35.5580   20.4330   31.6490 H   0  0  0  0  0  0  0  0  0  0  0  0
   39.0420   22.1050   30.0350 H   0  0  0  0  0  0  0  0  0  0  0  0
  1  4  1  0  0  0  0
  2  1  1  0  0  0  0
  3  1  1  0  0  0  0
  4  8  2  0  0  0  0
  4  5  1  0  0  0  0
  5  6  2  0  0  0  0
  6 10  1  0  0  0  0
  7  6  1  0  0  0  0
  7 11  1  0  0  0  0
  8  7  1  0  0  0  0
  9  5  1  0  0  0  0
 11 12  2  0  0  0  0
 12 13  1  0  0  0  0
 12 14  1  0  0  0  0
 15 14  2  0  0  0  0
 16 11  1  0  0  0  0
 16 15  1  0  0  0  0
 17  1  1  0  0  0  0
 17 19  1  0  0  0  0
 18 17  1  0  0  0  0
 20 17  1  0  0  0  0
 20 21  1  0  0  0  0
 21 26  1  0  0  0  0
 22 21  2  0  0  0  0
 22 27  1  0  0  0  0
 23 22  1  0  0  0  0
 24 25  1  0  0  0  0
 24 23  2  0  0  0  0
 25 20  2  0  0  0  0
 28 24  1  0  0  0  0
M  END
>  <minimizedAffinity>
-4.62583208

$$$$

 OpenBabel03272500243D

 28 30  0  0  0  0  0  0  0  0999 V2000
   36.2130   26.9490   31.0960 C   0  0  0  0  0  0  0  0  0  0  0  0
   37.3210   26.8700   30.8990 H   0  0  0  0  0  0  0  0  0  0  0  0
   35.9000   27.6010   30.2110 H   0  0  0  0  0  0  0  0  0  0  0  0
   36.1670   27.7050   32.3480 C   0  0  0  0  0  0  0  0  0  0  0  0
   36.8830   27.2710   33.4410 C   0  0  0  0  0  0  0  0  0  0  0  0
   36.6440   28.1200   34.4900 C   0  0  0  0  0  0  0  0  0  0  0  0
   35.8010   29.0470   34.0370 N   0  0  0  0  0  0  0  0  0  0  0  0
   35.5260   28.7840   32.7480 N   0  0  0  0  0  0  0  0  0  0  0  0
   37.5520   26.4180   33.5660 H   0  0  0  0  0  0  0  0  0  0  0  0
   37.0280   28.0970   35.5010 H   0  0  0  0  0  0  0  0  0  0  0  0
   35.2540   30.1730   34.8010 C   0  0  0  0  0  0  0  0  0  0  0  0
   36.0220   30.9930   35.5980 C   0  0  0  0  0  0  0  0  0  0  0  0
   37.0880   30.8570   35.7120 H   0  0  0  0  0  0  0  0  0  0  0  0
   35.4610   32.0130   36.2760 C   0  0  0  0  0  3  0  0  0  0  0  0
   34.0450   32.2490   36.1670 C   0  0  0  0  0  3  0  0  0  0  0  0
   33.5520   30.8400   34.9680 S   0  0  0  0  0  0  0  0  0  0  0  0
   35.4370   25.7100   31.0700 C   0  0  0  0  0  0  0  0  0  0  0  0
   34.7150   25.7050   30.1970 H   0  0  0  0  0  0  0  0  0  0  0  0
   34.7280   25.7050   31.9540 H   0  0  0  0  0  0  0  0  0  0  0  0
   36.1240   24.4490   31.0470 C   0  0  0  0  0  0  0  0  0  0  0  0
   35.5150   23.2850   31.4110 C   0  0  0  0  0  0  0  0  0  0  0  0
   36.1850   22.0550   31.3880 C   0  0  0  0  0  0  0  0  0  0  0  0
   37.5020   22.1280   30.9690 N   0  0  0  0  0  0  0  0  0  0  0  0
   38.0950   23.2880   30.6120 C   0  0  0  0  0  0  0  0  0  0  0  0
   37.3850   24.4570   30.6560 N   0  0  0  0  0  0  0  0  0  0  0  0
   34.5070   23.1070   31.7490 H   0  0  0  0  0  0  0  0  0  0  0  0
   35.8030   21.0890   31.6510 H   0  0  0  0  0  0  0  0  0  0  0  0
   39.1200   23.2580   30.2990 H   0  0  0  0  0  0  0  0  0  0  0  0
  1  4  1  0  0  0  0
  2  1  1  0  0  0  0
  3  1  1  0  0  0  0
  4  8  2  0  0  0  0
  4  5  1  0  0  0  0
  5  9  1  0  0  0  0
  5  6  2  0  0  0  0
  6 10  1  0  0  0  0
  7  6  1  0  0  0  0
  7 11  1  0  0  0  0
  8  7  1  0  0  0  0
 11 16  1  0  0  0  0
 11 12  2  0  0  0  0
 12 13  1  0  0  0  0
 12 14  1  0  0  0  0
 15 14  2  0  0  0  0
 16 15  1  0  0  0  0
 17  1  1  0  0  0  0
 17 19  1  0  0  0  0
 18 17  1  0  0  0  0
 20 17  1  0  0  0  0
 20 21  1  0  0  0  0
 21 26  1  0  0  0  0
 22 21  2  0  0  0  0
 22 27  1  0  0  0  0
 23 22  1  0  0  0  0
 24 25  1  0  0  0  0
 24 23  2  0  0  0  0
 25 20  2  0  0  0  0
 28 24  1  0  0  0  0
M  END
>  <minimizedAffinity>
-4.55986214

$$$$

 OpenBabel03272500243D

 28 30  0  0  0  0  0  0  0  0999 V2000
   38.0860   25.9060   33.8680 C   0  0  0  0  0  0  0  0  0  0  0  0
   37.2470   26.3560   34.4730 H   0  0  0  0  0  0  0  0  0  0  0  0
   38.3880   26.8150   33.2430 H   0  0  0  0  0  0  0  0  0  0  0  0
   37.3890   24.9140   33.0490 C   0  0  0  0  0  0  0  0  0  0  0  0
   36.5150   25.3230   32.0670 C   0  0  0  0  0  0  0  0  0  0  0  0
   35.9670   24.2140   31.4760 C   0  0  0  0  0  0  0  0  0  0  0  0
   36.5000   23.1590   32.0900 N   0  0  0  0  0  0  0  0  0  0  0  0
   37.3540   23.5980   33.0310 N   0  0  0  0  0  0  0  0  0  0  0  0
   36.2310   26.3210   31.7320 H   0  0  0  0  0  0  0  0  0  0  0  0
   35.2450   24.1430   30.6740 H   0  0  0  0  0  0  0  0  0  0  0  0
   36.2170   21.7490   31.8010 C   0  0  0  0  0  0  0  0  0  0  0  0
   35.1340   21.0720   32.3160 C   0  0  0  0  0  0  0  0  0  0  0  0
   34.4160   21.5430   32.9720 H   0  0  0  0  0  0  0  0  0  0  0  0
   34.9270   19.7760   32.0130 C   0  0  0  0  0  3  0  0  0  0  0  0
   35.8470   19.0910   31.1430 C   0  0  0  0  0  3  0  0  0  0  0  0
   37.0870   20.5030   30.7720 S   0  0  0  0  0  0  0  0  0  0  0  0
   39.2560   25.4230   34.5990 C   0  0  0  0  0  0  0  0  0  0  0  0
   39.9570   26.2770   34.8480 H   0  0  0  0  0  0  0  0  0  0  0  0
   39.8920   24.8010   33.8980 H   0  0  0  0  0  0  0  0  0  0  0  0
   39.0690   24.6730   35.8100 C   0  0  0  0  0  0  0  0  0  0  0  0
   38.0800   24.9690   36.7000 C   0  0  0  0  0  0  0  0  0  0  0  0
   37.8980   24.2370   37.8810 C   0  0  0  0  0  0  0  0  0  0  0  0
   38.7990   23.2030   38.0590 N   0  0  0  0  0  0  0  0  0  0  0  0
   39.7760   22.9200   37.1700 C   0  0  0  0  0  0  0  0  0  0  0  0
   39.9010   23.6730   36.0350 N   0  0  0  0  0  0  0  0  0  0  0  0
   37.3280   25.7400   36.6690 H   0  0  0  0  0  0  0  0  0  0  0  0
   37.1580   24.3850   38.6430 H   0  0  0  0  0  0  0  0  0  0  0  0
   40.4340   22.1000   37.3830 H   0  0  0  0  0  0  0  0  0  0  0  0
  1  2  1  0  0  0  0
  1 17  1  0  0  0  0
  3  1  1  0  0  0  0
  4  1  1  0  0  0  0
  5  4  1  0  0  0  0
  6  5  2  0  0  0  0
  6  7  1  0  0  0  0
  7  8  1  0  0  0  0
  8  4  2  0  0  0  0
  9  5  1  0  0  0  0
 10  6  1  0  0  0  0
 11  7  1  0  0  0  0
 11 12  2  0  0  0  0
 12 13  1  0  0  0  0
 14 12  1  0  0  0  0
 15 14  2  0  0  0  0
 16 15  1  0  0  0  0
 16 11  1  0  0  0  0
 17 18  1  0  0  0  0
 17 20  1  0  0  0  0
 19 17  1  0  0  0  0
 20 25  2  0  0  0  0
 20 21  1  0  0  0  0
 21 22  2  0  0  0  0
 22 23  1  0  0  0  0
 22 27  1  0  0  0  0
 24 28  1  0  0  0  0
 24 23  2  0  0  0  0
 25 24  1  0  0  0  0
 26 21  1  0  0  0  0
M  END
>  <minimizedAffinity>
-4.55382586

$$$$

 OpenBabel03272500243D

 28 30  0  0  0  0  0  0  0  0999 V2000
   38.0970   26.3600   33.5400 C   0  0  0  0  0  0  0  0  0  0  0  0
   38.7030   26.6120   32.6220 H   0  0  0  0  0  0  0  0  0  0  0  0
   37.5620   25.4190   33.1720 H   0  0  0  0  0  0  0  0  0  0  0  0
   37.1710   27.4900   33.6270 C   0  0  0  0  0  0  0  0  0  0  0  0
   36.5660   27.9740   32.4890 C   0  0  0  0  0  0  0  0  0  0  0  0
   35.7850   29.0480   32.8280 C   0  0  0  0  0  0  0  0  0  0  0  0
   35.9170   29.2070   34.1450 N   0  0  0  0  0  0  0  0  0  0  0  0
   36.7520   28.2610   34.6090 N   0  0  0  0  0  0  0  0  0  0  0  0
   36.6240   27.6430   31.4510 H   0  0  0  0  0  0  0  0  0  0  0  0
   35.1660   29.6790   32.2040 H   0  0  0  0  0  0  0  0  0  0  0  0
   35.2680   30.2340   34.9660 C   0  0  0  0  0  0  0  0  0  0  0  0
   35.9630   31.1440   35.7320 C   0  0  0  0  0  0  0  0  0  0  0  0
   37.0430   31.1580   35.7750 H   0  0  0  0  0  0  0  0  0  0  0  0
   35.3100   32.0650   36.4660 C   0  0  0  0  0  3  0  0  0  0  0  0
   33.8700   32.0990   36.4510 C   0  0  0  0  0  3  0  0  0  0  0  0
   33.5040   30.6500   35.2540 S   0  0  0  0  0  0  0  0  0  0  0  0
   38.8320   26.0410   34.7620 C   0  0  0  0  0  0  0  0  0  0  0  0
   38.8840   26.9420   35.4480 H   0  0  0  0  0  0  0  0  0  0  0  0
   39.9240   25.8880   34.5020 H   0  0  0  0  0  0  0  0  0  0  0  0
   38.4090   24.9300   35.5690 C   0  0  0  0  0  0  0  0  0  0  0  0
   38.2920   23.6700   35.0610 C   0  0  0  0  0  0  0  0  0  0  0  0
   37.8810   22.5860   35.8480 C   0  0  0  0  0  0  0  0  0  0  0  0
   37.6070   22.9060   37.1660 N   0  0  0  0  0  0  0  0  0  0  0  0
   37.7260   24.1590   37.6570 C   0  0  0  0  0  0  0  0  0  0  0  0
   38.1330   25.1750   36.8360 N   0  0  0  0  0  0  0  0  0  0  0  0
   38.4760   23.3050   34.0640 H   0  0  0  0  0  0  0  0  0  0  0  0
   37.7570   21.5630   35.5520 H   0  0  0  0  0  0  0  0  0  0  0  0
   37.4950   24.3230   38.6910 H   0  0  0  0  0  0  0  0  0  0  0  0
  1  4  1  0  0  0  0
  1 17  1  0  0  0  0
  2  1  1  0  0  0  0
  3  1  1  0  0  0  0
  4  8  2  0  0  0  0
  5  6  2  0  0  0  0
  5  4  1  0  0  0  0
  6  7  1  0  0  0  0
  7  8  1  0  0  0  0
  7 11  1  0  0  0  0
  9  5  1  0  0  0  0
 10  6  1  0  0  0  0
 11 16  1  0  0  0  0
 11 12  2  0  0  0  0
 12 13  1  0  0  0  0
 12 14  1  0  0  0  0
 15 14  2  0  0  0  0
 16 15  1  0  0  0  0
 17 18  1  0  0  0  0
 17 20  1  0  0  0  0
 19 17  1  0  0  0  0
 20 25  1  0  0  0  0
 21 20  2  0  0  0  0
 21 22  1  0  0  0  0
 22 23  2  0  0  0  0
 23 24  1  0  0  0  0
 24 28  1  0  0  0  0
 25 24  2  0  0  0  0
 26 21  1  0  0  0  0
 27 22  1  0  0  0  0
M  END
>  <minimizedAffinity>
-4.54550028

$$$$

 OpenBabel03272500243D

 28 30  0  0  0  0  0  0  0  0999 V2000
   36.3550   28.7150   33.2080 C   0  0  0  0  0  0  0  0  0  0  0  0
   36.5440   28.7400   32.0960 H   0  0  0  0  0  0  0  0  0  0  0  0
   37.0450   29.5620   33.5460 H   0  0  0  0  0  0  0  0  0  0  0  0
   36.8960   27.4110   33.5930 C   0  0  0  0  0  0  0  0  0  0  0  0
   36.9590   26.3920   32.6690 C   0  0  0  0  0  0  0  0  0  0  0  0
   37.4620   25.2740   33.2810 C   0  0  0  0  0  0  0  0  0  0  0  0
   37.6970   25.6130   34.5480 N   0  0  0  0  0  0  0  0  0  0  0  0
   37.3530   26.9010   34.7170 N   0  0  0  0  0  0  0  0  0  0  0  0
   36.6850   26.3650   31.6140 H   0  0  0  0  0  0  0  0  0  0  0  0
   37.6520   24.2890   32.8750 H   0  0  0  0  0  0  0  0  0  0  0  0
   38.2400   24.7420   35.5950 C   0  0  0  0  0  0  0  0  0  0  0  0
   37.6680   24.6050   36.8410 C   0  0  0  0  0  0  0  0  0  0  0  0
   36.7720   25.1370   37.1270 H   0  0  0  0  0  0  0  0  0  0  0  0
   38.2150   23.7880   37.7620 C   0  0  0  0  0  3  0  0  0  0  0  0
   39.4090   23.0500   37.4420 C   0  0  0  0  0  3  0  0  0  0  0  0
   39.7060   23.6380   35.6440 S   0  0  0  0  0  0  0  0  0  0  0  0
   34.9950   29.0010   33.6630 C   0  0  0  0  0  0  0  0  0  0  0  0
   34.4780   28.0530   34.0070 H   0  0  0  0  0  0  0  0  0  0  0  0
   34.3650   29.2940   32.7680 H   0  0  0  0  0  0  0  0  0  0  0  0
   34.7880   29.9830   34.6900 C   0  0  0  0  0  0  0  0  0  0  0  0
   35.8090   30.7370   35.1880 C   0  0  0  0  0  0  0  0  0  0  0  0
   35.6060   31.6960   36.1900 C   0  0  0  0  0  0  0  0  0  0  0  0
   34.2960   31.8060   36.6210 N   0  0  0  0  0  0  0  0  0  0  0  0
   33.2930   31.0530   36.1200 C   0  0  0  0  0  0  0  0  0  0  0  0
   33.5560   30.1330   35.1420 N   0  0  0  0  0  0  0  0  0  0  0  0
   36.8560   30.7400   34.9330 H   0  0  0  0  0  0  0  0  0  0  0  0
   36.3330   32.3370   36.6480 H   0  0  0  0  0  0  0  0  0  0  0  0
   32.3040   31.2000   36.5080 H   0  0  0  0  0  0  0  0  0  0  0  0
  1  3  1  0  0  0  0
  1  4  1  0  0  0  0
  1 17  1  0  0  0  0
  2  1  1  0  0  0  0
  4  8  2  0  0  0  0
  5  6  2  0  0  0  0
  5  4  1  0  0  0  0
  6  7  1  0  0  0  0
  7  8  1  0  0  0  0
  7 11  1  0  0  0  0
  9  5  1  0  0  0  0
 10  6  1  0  0  0  0
 11 16  1  0  0  0  0
 11 12  2  0  0  0  0
 12 13  1  0  0  0  0
 12 14  1  0  0  0  0
 15 14  2  0  0  0  0
 16 15  1  0  0  0  0
 17 18  1  0  0  0  0
 17 20  1  0  0  0  0
 19 17  1  0  0  0  0
 20 25  2  0  0  0  0
 20 21  1  0  0  0  0
 21 22  2  0  0  0  0
 22 23  1  0  0  0  0
 22 27  1  0  0  0  0
 24 28  1  0  0  0  0
 24 23  2  0  0  0  0
 25 24  1  0  0  0  0
 26 21  1  0  0  0  0
M  END
>  <minimizedAffinity>
-4.53041029

$$$$

 OpenBabel03272500243D

 28 30  0  0  0  0  0  0  0  0999 V2000
   37.5790   26.1650   35.6570 C   0  0  0  0  0  0  0  0  0  0  0  0
   37.6020   26.8600   36.5450 H   0  0  0  0  0  0  0  0  0  0  0  0
   36.4570   25.9500   35.6010 H   0  0  0  0  0  0  0  0  0  0  0  0
   38.3140   24.9980   36.1480 C   0  0  0  0  0  0  0  0  0  0  0  0
   37.9460   24.4040   37.3340 C   0  0  0  0  0  0  0  0  0  0  0  0
   38.8050   23.3670   37.5920 C   0  0  0  0  0  0  0  0  0  0  0  0
   39.6730   23.3390   36.5810 N   0  0  0  0  0  0  0  0  0  0  0  0
   39.3610   24.3250   35.7220 N   0  0  0  0  0  0  0  0  0  0  0  0
   37.1360   24.6310   38.0280 H   0  0  0  0  0  0  0  0  0  0  0  0
   38.8290   22.6790   38.4260 H   0  0  0  0  0  0  0  0  0  0  0  0
   40.7860   22.3990   36.4150 C   0  0  0  0  0  0  0  0  0  0  0  0
   41.3120   21.6570   37.4500 C   0  0  0  0  0  0  0  0  0  0  0  0
   40.9340   21.7220   38.4600 H   0  0  0  0  0  0  0  0  0  0  0  0
   42.3360   20.8080   37.2350 C   0  0  0  0  0  3  0  0  0  0  0  0
   42.8860   20.6750   35.9110 C   0  0  0  0  0  3  0  0  0  0  0  0
   41.7790   21.9090   34.9520 S   0  0  0  0  0  0  0  0  0  0  0  0
   38.0240   26.7040   34.3730 C   0  0  0  0  0  0  0  0  0  0  0  0
   39.0570   26.3210   34.1100 H   0  0  0  0  0  0  0  0  0  0  0  0
   38.2140   27.8150   34.4900 H   0  0  0  0  0  0  0  0  0  0  0  0
   37.2040   26.5160   33.2080 C   0  0  0  0  0  0  0  0  0  0  0  0
   37.0070   25.2870   32.6520 C   0  0  0  0  0  0  0  0  0  0  0  0
   36.2070   25.1040   31.5160 C   0  0  0  0  0  0  0  0  0  0  0  0
   35.6450   26.2660   31.0180 N   0  0  0  0  0  0  0  0  0  0  0  0
   35.8480   27.4780   31.5780 C   0  0  0  0  0  0  0  0  0  0  0  0
   36.6410   27.5910   32.6870 N   0  0  0  0  0  0  0  0  0  0  0  0
   37.3870   24.3230   32.9480 H   0  0  0  0  0  0  0  0  0  0  0  0
   35.9880   24.1890   31.0030 H   0  0  0  0  0  0  0  0  0  0  0  0
   35.3750   28.3300   31.1300 H   0  0  0  0  0  0  0  0  0  0  0  0
  1  4  1  0  0  0  0
  1  2  1  0  0  0  0
  3  1  1  0  0  0  0
  4  5  1  0  0  0  0
  5  6  2  0  0  0  0
  5  9  1  0  0  0  0
  6 10  1  0  0  0  0
  7  6  1  0  0  0  0
  8  4  2  0  0  0  0
  8  7  1  0  0  0  0
 11  7  1  0  0  0  0
 11 12  2  0  0  0  0
 12 13  1  0  0  0  0
 14 12  1  0  0  0  0
 15 14  2  0  0  0  0
 16 15  1  0  0  0  0
 16 11  1  0  0  0  0
 17 19  1  0  0  0  0
 17  1  1  0  0  0  0
 18 17  1  0  0  0  0
 20 17  1  0  0  0  0
 21 26  1  0  0  0  0
 21 20  2  0  0  0  0
 22 21  1  0  0  0  0
 23 22  2  0  0  0  0
 23 24  1  0  0  0  0
 24 25  2  0  0  0  0
 25 20  1  0  0  0  0
 27 22  1  0  0  0  0
 28 24  1  0  0  0  0
M  END
>  <minimizedAffinity>
-4.52459621

$$$$

 OpenBabel03272500243D

 28 30  0  0  0  0  0  0  0  0999 V2000
   38.0240   27.3700   35.7040 C   0  0  0  0  0  0  0  0  0  0  0  0
   37.2710   27.2650   36.5380 H   0  0  0  0  0  0  0  0  0  0  0  0
   38.6430   28.2440   36.1050 H   0  0  0  0  0  0  0  0  0  0  0  0
   37.1910   27.7910   34.5770 C   0  0  0  0  0  0  0  0  0  0  0  0
   37.4750   27.3430   33.3060 C   0  0  0  0  0  0  0  0  0  0  0  0
   36.5830   27.9060   32.4310 C   0  0  0  0  0  0  0  0  0  0  0  0
   35.7770   28.6770   33.1600 N   0  0  0  0  0  0  0  0  0  0  0  0
   36.1560   28.5940   34.4480 N   0  0  0  0  0  0  0  0  0  0  0  0
   38.2470   26.6630   32.9420 H   0  0  0  0  0  0  0  0  0  0  0  0
   36.4980   27.7900   31.3590 H   0  0  0  0  0  0  0  0  0  0  0  0
   34.6600   29.4850   32.6610 C   0  0  0  0  0  0  0  0  0  0  0  0
   34.8110   30.5050   31.7480 C   0  0  0  0  0  0  0  0  0  0  0  0
   35.7730   30.7770   31.3370 H   0  0  0  0  0  0  0  0  0  0  0  0
   33.7450   31.2130   31.3270 C   0  0  0  0  0  3  0  0  0  0  0  0
   32.4350   30.9010   31.8360 C   0  0  0  0  0  3  0  0  0  0  0  0
   32.8600   29.4540   33.0160 S   0  0  0  0  0  0  0  0  0  0  0  0
   38.9110   26.2360   35.4540 C   0  0  0  0  0  0  0  0  0  0  0  0
   39.8930   26.3630   36.0040 H   0  0  0  0  0  0  0  0  0  0  0  0
   39.2470   26.2670   34.3730 H   0  0  0  0  0  0  0  0  0  0  0  0
   38.4480   24.9050   35.7340 C   0  0  0  0  0  0  0  0  0  0  0  0
   38.0060   24.5380   36.9700 C   0  0  0  0  0  0  0  0  0  0  0  0
   37.5540   23.2400   37.2440 C   0  0  0  0  0  0  0  0  0  0  0  0
   37.5980   22.3780   36.1620 N   0  0  0  0  0  0  0  0  0  0  0  0
   38.0390   22.7540   34.9420 C   0  0  0  0  0  0  0  0  0  0  0  0
   38.4680   24.0370   34.7390 N   0  0  0  0  0  0  0  0  0  0  0  0
   37.9250   25.1140   37.8770 H   0  0  0  0  0  0  0  0  0  0  0  0
   37.1880   22.8490   38.1720 H   0  0  0  0  0  0  0  0  0  0  0  0
   38.0410   22.0250   34.1560 H   0  0  0  0  0  0  0  0  0  0  0  0
  1  3  1  0  0  0  0
  1  2  1  0  0  0  0
  4  1  1  0  0  0  0
  5  4  1  0  0  0  0
  6  7  1  0  0  0  0
  6  5  2  0  0  0  0
  7  8  1  0  0  0  0
  8  4  2  0  0  0  0
  9  5  1  0  0  0  0
 10  6  1  0  0  0  0
 11 16  1  0  0  0  0
 11  7  1  0  0  0  0
 12 11  2  0  0  0  0
 13 12  1  0  0  0  0
 14 12  1  0  0  0  0
 14 15  2  0  0  0  0
 15 16  1  0  0  0  0
 17  1  1  0  0  0  0
 17 20  1  0  0  0  0
 17 18  1  0  0  0  0
 19 17  1  0  0  0  0
 20 21  1  0  0  0  0
 21 22  2  0  0  0  0
 21 26  1  0  0  0  0
 22 27  1  0  0  0  0
 23 22  1  0  0  0  0
 24 23  2  0  0  0  0
 25 24  1  0  0  0  0
 25 20  2  0  0  0  0
 28 24  1  0  0  0  0
M  END
>  <minimizedAffinity>
-4.52129555

$$$$
