
 OpenBabel03262522573D

 22 24  0  0  0  0  0  0  0  0999 V2000
   35.2990   29.5930   48.6420 C   0  0  0  0  0  0  0  0  0  0  0  0
   36.1480   29.0080   49.5720 C   0  0  0  0  0  0  0  0  0  0  0  0
   37.2450   29.7980   49.7340 C   0  0  0  0  0  0  0  0  0  0  0  0
   37.0610   30.8710   48.8960 N   0  0  0  0  0  0  0  0  0  0  0  0
   35.8980   30.7080   48.2710 N   0  0  0  0  0  0  0  0  0  0  0  0
   35.9510   28.0650   50.0800 H   0  0  0  0  0  0  0  0  0  0  0  0
   38.0980   29.6480   50.3730 H   0  0  0  0  0  0  0  0  0  0  0  0
   32.3720   28.8790   46.5580 C   0  0  0  0  0  0  0  0  0  0  0  0
   31.6160   28.0060   47.4010 C   0  0  0  0  0  0  0  0  0  0  0  0
   32.1300   27.6820   48.6670 C   0  0  0  0  0  0  0  0  0  0  0  0
   33.3200   28.2260   49.0060 N   0  0  0  0  0  0  0  0  0  0  0  0
   34.0280   29.0510   48.2030 C   0  0  0  0  0  0  0  0  0  0  0  0
   33.5390   29.3540   47.0070 N   0  0  0  0  0  0  0  0  0  0  0  0
   31.9280   29.0900   45.6010 H   0  0  0  0  0  0  0  0  0  0  0  0
   30.6630   27.5620   47.1480 H   0  0  0  0  0  0  0  0  0  0  0  0
   31.6210   27.0370   49.3500 H   0  0  0  0  0  0  0  0  0  0  0  0
   37.9800   31.9910   48.7260 C   0  0  0  0  0  0  0  0  0  0  0  0
   38.3250   32.9840   49.5510 C   0  0  0  0  0  0  0  0  0  0  0  0
   37.8370   32.9730   50.5450 H   0  0  0  0  0  0  0  0  0  0  0  0
   39.2050   33.9150   49.1710 C   0  0  0  0  0  0  0  0  0  0  0  0
   39.6810   33.7580   47.9430 C   0  0  0  0  0  0  0  0  0  0  0  0
   38.9440   32.3480   47.2870 S   0  0  0  0  0  0  0  0  0  0  0  0
  1  2  1  0  0  0  0
  2  3  2  0  0  0  0
  2  6  1  0  0  0  0
  3  7  1  0  0  0  0
  4  3  1  0  0  0  0
  5  1  2  0  0  0  0
  5  4  1  0  0  0  0
  8 13  2  0  0  0  0
  8  9  1  0  0  0  0
  9 10  2  0  0  0  0
 10 11  1  0  0  0  0
 10 16  1  0  0  0  0
 12  1  1  0  0  0  0
 12 11  2  0  0  0  0
 13 12  1  0  0  0  0
 14  8  1  0  0  0  0
 15  9  1  0  0  0  0
 17  4  1  0  0  0  0
 17 18  2  0  0  0  0
 18 19  1  0  0  0  0
 20 18  1  0  0  0  0
 21 20  2  0  0  0  0
 22 21  1  0  0  0  0
 22 17  1  0  0  0  0
M  END
>  <minimizedAffinity>
-4.91729021

>  <minimizedRMSD>
6.62080145

$$$$
