
 OpenBabel03272508053D

 32 35  0  0  0  0  0  0  0  0999 V2000
   38.8750   30.8830   45.7980 C   0  0  0  0  0  0  0  0  0  0  0  0
   40.0580   31.5570   46.0660 C   0  0  0  0  0  0  0  0  0  0  0  0
   40.8970   31.4950   44.9650 C   0  0  0  0  0  0  0  0  0  0  0  0
   40.1770   30.7740   44.0580 N   0  0  0  0  0  0  0  0  0  0  0  0
   38.9960   30.4120   44.5350 N   0  0  0  0  0  0  0  0  0  0  0  0
   40.3160   32.0630   46.9810 H   0  0  0  0  0  0  0  0  0  0  0  0
   41.8820   31.8950   44.8040 H   0  0  0  0  0  0  0  0  0  0  0  0
   37.7490   30.7280   46.6980 C   0  0  0  0  0  0  0  0  0  0  0  0
   37.9550   30.9280   48.0850 C   0  0  0  0  0  0  0  0  0  0  0  0
   36.8550   30.7740   48.9270 C   0  0  0  0  0  0  0  0  0  0  0  0
   35.6560   30.4440   48.3760 N   0  0  0  0  0  0  0  0  0  0  0  0
   35.4830   30.2570   47.0440 C   0  0  0  0  0  0  0  0  0  0  0  0
   36.5380   30.4010   46.2170 N   0  0  0  0  0  0  0  0  0  0  0  0
   38.9330   31.1900   48.4670 H   0  0  0  0  0  0  0  0  0  0  0  0
   34.4900   29.9960   46.7060 H   0  0  0  0  0  0  0  0  0  0  0  0
   37.0560   30.9830   50.3950 C   0  0  0  0  0  0  0  0  0  0  0  0
   36.5570   32.2390   50.6490 F   0  0  0  0  0  0  0  0  0  0  0  0
   36.3460   30.0660   51.1570 F   0  0  0  0  0  0  0  0  0  0  0  0
   38.3920   30.9640   50.7440 F   0  0  0  0  0  0  0  0  0  0  0  0
   40.5680   30.4020   42.7090 C   0  0  0  0  0  0  0  0  0  0  0  0
   40.2110   31.1880   41.6000 C   0  0  0  0  0  0  0  0  0  0  0  0
   40.6060   30.8180   40.3550 C   0  0  0  0  0  0  0  0  0  0  0  0
   41.3730   29.6370   40.2010 C   0  0  0  0  0  0  0  0  0  0  0  0
   41.5190   29.0510   41.9520 S   0  0  0  0  0  0  0  0  0  0  0  0
   39.6150   32.1090   41.6950 H   0  0  0  0  0  0  0  0  0  0  0  0
   40.4110   31.3150   39.4190 H   0  0  0  0  0  0  0  0  0  0  0  0
   41.9310   28.9600   39.1860 C   0  0  0  0  0  0  0  0  0  0  0  0
   41.7640   27.7170   38.6550 C   0  0  0  0  0  0  0  0  0  0  0  0
   41.0280   27.0770   39.1100 H   0  0  0  0  0  0  0  0  0  0  0  0
   42.5260   27.3500   37.5930 C   0  0  0  0  0  0  0  0  0  0  0  0
   43.4930   28.2680   37.0410 C   0  0  0  0  0  0  0  0  0  0  0  0
   43.2470   29.7450   38.1690 S   0  0  0  0  0  0  0  0  0  0  0  0
  1  2  1  0  0  0  0
  1  8  1  0  0  0  0
  2  6  1  0  0  0  0
  3  2  2  0  0  0  0
  4  5  1  0  0  0  0
  4  3  1  0  0  0  0
  5  1  2  0  0  0  0
  7  3  1  0  0  0  0
  8  9  1  0  0  0  0
  9 14  1  0  0  0  0
  9 10  2  0  0  0  0
 10 16  1  0  0  0  0
 11 10  1  0  0  0  0
 12 11  2  0  0  0  0
 13  8  2  0  0  0  0
 13 12  1  0  0  0  0
 15 12  1  0  0  0  0
 16 17  1  0  0  0  0
 16 19  1  0  0  0  0
 16 18  1  0  0  0  0
 20  4  1  0  0  0  0
 21 25  1  0  0  0  0
 21 20  2  0  0  0  0
 22 21  1  0  0  0  0
 23 22  2  0  0  0  0
 23 24  1  0  0  0  0
 24 20  1  0  0  0  0
 26 22  1  0  0  0  0
 27 23  1  0  0  0  0
 28 29  1  0  0  0  0
 28 27  2  0  0  0  0
 30 28  1  0  0  0  0
 31 30  2  0  0  0  0
 31 32  1  0  0  0  0
 32 27  1  0  0  0  0
M  END
>  <minimizedAffinity>
-6.26697206

>  <minimizedRMSD>
0.210643172

$$$$
