
 OpenBabel03272509253D

 21 22  0  0  0  0  0  0  0  0999 V2000
   37.7510   25.7120   35.7190 C   0  0  0  0  0  0  0  0  0  0  0  0
   37.5910   25.2820   34.7090 H   0  0  0  0  0  0  0  0  0  0  0  0
   36.7800   25.9350   36.2230 H   0  0  0  0  0  0  0  0  0  0  0  0
   38.7210   23.3860   38.5050 C   0  0  0  0  0  0  0  0  0  0  0  0
   38.0170   24.3950   37.8200 C   0  0  0  0  0  0  0  0  0  0  0  0
   38.4150   24.6620   36.5220 C   0  0  0  0  0  0  0  0  0  0  0  0
   39.4510   23.9420   35.9850 N   0  0  0  0  0  0  0  0  0  0  0  0
   40.0990   22.9870   36.6700 C   0  0  0  0  0  0  0  0  0  0  0  0
   39.7380   22.7020   37.9350 N   0  0  0  0  0  0  0  0  0  0  0  0
   38.4220   23.1670   39.5210 H   0  0  0  0  0  0  0  0  0  0  0  0
   37.2150   24.9270   38.2870 H   0  0  0  0  0  0  0  0  0  0  0  0
   40.8850   22.5260   36.0900 H   0  0  0  0  0  0  0  0  0  0  0  0
   38.5610   26.9830   35.6710 C   0  0  0  0  0  0  0  0  0  0  0  0
   37.9400   27.8940   35.7810 H   0  0  0  0  0  0  0  0  0  0  0  0
   39.1540   26.9680   36.6280 H   0  0  0  0  0  0  0  0  0  0  0  0
   39.4730   27.0440   34.5190 C   0  0  0  0  0  0  0  0  0  0  0  0
   40.7970   27.0910   34.2680 C   0  0  0  0  0  0  0  0  0  0  0  0
   41.4630   27.0880   35.1180 H   0  0  0  0  0  0  0  0  0  0  0  0
   41.2450   27.1360   32.9780 C   0  0  0  0  0  3  0  0  0  0  0  0
   40.3110   27.1330   31.9520 C   0  0  0  0  0  3  0  0  0  0  0  0
   38.7290   27.0640   32.8060 S   0  0  0  0  0  0  0  0  0  0  0  0
  1  3  1  0  0  0  0
  1  6  1  0  0  0  0
  2  1  1  0  0  0  0
  4 10  1  0  0  0  0
  5 11  1  0  0  0  0
  5  4  2  0  0  0  0
  6  5  1  0  0  0  0
  7  6  2  0  0  0  0
  7  8  1  0  0  0  0
  8  9  2  0  0  0  0
  9  4  1  0  0  0  0
 12  8  1  0  0  0  0
 13  1  1  0  0  0  0
 13 14  1  0  0  0  0
 13 15  1  0  0  0  0
 16 13  1  0  0  0  0
 17 16  2  0  0  0  0
 17 18  1  0  0  0  0
 19 17  1  0  0  0  0
 20 21  1  0  0  0  0
 20 19  2  0  0  0  0
 21 16  1  0  0  0  0
M  END
>  <minimizedAffinity>
-3.99293542

$$$$

 OpenBabel03272509253D

 21 22  0  0  0  0  0  0  0  0999 V2000
   38.7140   27.0060   35.6360 C   0  0  0  0  0  0  0  0  0  0  0  0
   39.4940   27.0020   36.4270 H   0  0  0  0  0  0  0  0  0  0  0  0
   38.0850   27.9250   35.6920 H   0  0  0  0  0  0  0  0  0  0  0  0
   41.3960   27.0840   33.0080 C   0  0  0  0  0  0  0  0  0  0  0  0
   40.8100   27.0160   34.2860 C   0  0  0  0  0  0  0  0  0  0  0  0
   39.4290   27.0570   34.3430 C   0  0  0  0  0  0  0  0  0  0  0  0
   38.7210   27.1590   33.1720 N   0  0  0  0  0  0  0  0  0  0  0  0
   39.3150   27.2220   31.9710 C   0  0  0  0  0  0  0  0  0  0  0  0
   40.6580   27.1850   31.8800 N   0  0  0  0  0  0  0  0  0  0  0  0
   42.4760   27.0540   32.9470 H   0  0  0  0  0  0  0  0  0  0  0  0
   41.4110   26.9370   35.1680 H   0  0  0  0  0  0  0  0  0  0  0  0
   38.6020   27.2990   31.1620 H   0  0  0  0  0  0  0  0  0  0  0  0
   37.8060   25.8050   35.7330 C   0  0  0  0  0  0  0  0  0  0  0  0
   36.7450   26.0800   35.8940 H   0  0  0  0  0  0  0  0  0  0  0  0
   37.7990   25.3810   34.6910 H   0  0  0  0  0  0  0  0  0  0  0  0
   38.2880   24.7900   36.6820 C   0  0  0  0  0  0  0  0  0  0  0  0
   38.0420   24.3730   37.9400 C   0  0  0  0  0  0  0  0  0  0  0  0
   37.2700   24.8890   38.4920 H   0  0  0  0  0  0  0  0  0  0  0  0
   38.7570   23.3340   38.4660 C   0  0  0  0  0  3  0  0  0  0  0  0
   39.7280   22.7320   37.6780 C   0  0  0  0  0  3  0  0  0  0  0  0
   39.6550   23.6440   36.1290 S   0  0  0  0  0  0  0  0  0  0  0  0
  1  3  1  0  0  0  0
  1 13  1  0  0  0  0
  1  2  1  0  0  0  0
  4  5  1  0  0  0  0
  5  6  2  0  0  0  0
  5 11  1  0  0  0  0
  6  1  1  0  0  0  0
  7  6  1  0  0  0  0
  8  7  2  0  0  0  0
  9  8  1  0  0  0  0
  9  4  2  0  0  0  0
 10  4  1  0  0  0  0
 12  8  1  0  0  0  0
 13 14  1  0  0  0  0
 13 16  1  0  0  0  0
 15 13  1  0  0  0  0
 16 17  2  0  0  0  0
 17 19  1  0  0  0  0
 17 18  1  0  0  0  0
 20 19  2  0  0  0  0
 21 16  1  0  0  0  0
 21 20  1  0  0  0  0
M  END
>  <minimizedAffinity>
-3.92963195

$$$$

 OpenBabel03272509253D

 21 22  0  0  0  0  0  0  0  0999 V2000
   38.2760   25.4810   35.0230 C   0  0  0  0  0  0  0  0  0  0  0  0
   39.1770   25.4640   34.3760 H   0  0  0  0  0  0  0  0  0  0  0  0
   37.4000   25.0150   34.5120 H   0  0  0  0  0  0  0  0  0  0  0  0
   39.7720   22.8880   37.2930 C   0  0  0  0  0  0  0  0  0  0  0  0
   39.5610   23.6530   36.1300 C   0  0  0  0  0  0  0  0  0  0  0  0
   38.5850   24.6320   36.1940 C   0  0  0  0  0  0  0  0  0  0  0  0
   37.8920   24.7990   37.3650 N   0  0  0  0  0  0  0  0  0  0  0  0
   38.1200   24.0500   38.4540 C   0  0  0  0  0  0  0  0  0  0  0  0
   39.0630   23.0900   38.4270 N   0  0  0  0  0  0  0  0  0  0  0  0
   40.5310   22.1190   37.2590 H   0  0  0  0  0  0  0  0  0  0  0  0
   40.1310   23.4800   35.2420 H   0  0  0  0  0  0  0  0  0  0  0  0
   37.4810   24.3230   39.2830 H   0  0  0  0  0  0  0  0  0  0  0  0
   37.8950   26.8830   35.4280 C   0  0  0  0  0  0  0  0  0  0  0  0
   37.5080   26.9420   36.4650 H   0  0  0  0  0  0  0  0  0  0  0  0
   38.8780   27.4270   35.4970 H   0  0  0  0  0  0  0  0  0  0  0  0
   37.0230   27.5510   34.4490 C   0  0  0  0  0  0  0  0  0  0  0  0
   36.1980   28.6150   34.3770 C   0  0  0  0  0  0  0  0  0  0  0  0
   36.0840   29.2150   35.2680 H   0  0  0  0  0  0  0  0  0  0  0  0
   35.5500   28.8970   33.2080 C   0  0  0  0  0  3  0  0  0  0  0  0
   35.7620   28.0680   32.1160 C   0  0  0  0  0  3  0  0  0  0  0  0
   36.9180   26.8330   32.7280 S   0  0  0  0  0  0  0  0  0  0  0  0
  1 13  1  0  0  0  0
  1  6  1  0  0  0  0
  2  1  1  0  0  0  0
  3  1  1  0  0  0  0
  4  9  1  0  0  0  0
  5  6  1  0  0  0  0
  5  4  2  0  0  0  0
  6  7  2  0  0  0  0
  7  8  1  0  0  0  0
  8 12  1  0  0  0  0
  9  8  2  0  0  0  0
 10  4  1  0  0  0  0
 11  5  1  0  0  0  0
 13 15  1  0  0  0  0
 13 14  1  0  0  0  0
 16 13  1  0  0  0  0
 17 16  2  0  0  0  0
 17 18  1  0  0  0  0
 19 17  1  0  0  0  0
 20 21  1  0  0  0  0
 20 19  2  0  0  0  0
 21 16  1  0  0  0  0
M  END
>  <minimizedAffinity>
-3.862643

$$$$

 OpenBabel03272509253D

 21 22  0  0  0  0  0  0  0  0999 V2000
   38.2520   25.9520   36.2010 C   0  0  0  0  0  0  0  0  0  0  0  0
   39.3500   26.0400   36.0610 H   0  0  0  0  0  0  0  0  0  0  0  0
   37.8890   26.6380   37.0030 H   0  0  0  0  0  0  0  0  0  0  0  0
   36.5480   28.0230   33.5720 C   0  0  0  0  0  0  0  0  0  0  0  0
   37.1320   27.6910   34.8090 C   0  0  0  0  0  0  0  0  0  0  0  0
   37.6310   26.4070   34.9390 C   0  0  0  0  0  0  0  0  0  0  0  0
   37.5310   25.5470   33.8750 N   0  0  0  0  0  0  0  0  0  0  0  0
   36.9660   25.9000   32.7110 C   0  0  0  0  0  0  0  0  0  0  0  0
   36.4710   27.1410   32.5500 N   0  0  0  0  0  0  0  0  0  0  0  0
   36.1530   29.0230   33.4550 H   0  0  0  0  0  0  0  0  0  0  0  0
   37.1840   28.4010   35.6060 H   0  0  0  0  0  0  0  0  0  0  0  0
   36.9750   25.0950   31.9880 H   0  0  0  0  0  0  0  0  0  0  0  0
   37.8380   24.5460   36.5600 C   0  0  0  0  0  0  0  0  0  0  0  0
   37.0910   24.5130   37.3780 H   0  0  0  0  0  0  0  0  0  0  0  0
   37.2480   24.1960   35.6680 H   0  0  0  0  0  0  0  0  0  0  0  0
   38.9810   23.6470   36.7870 C   0  0  0  0  0  0  0  0  0  0  0  0
   39.5430   22.9470   37.7920 C   0  0  0  0  0  0  0  0  0  0  0  0
   39.0750   23.0120   38.7640 H   0  0  0  0  0  0  0  0  0  0  0  0
   40.6590   22.1940   37.5580 C   0  0  0  0  0  3  0  0  0  0  0  0
   41.1860   22.1720   36.2740 C   0  0  0  0  0  3  0  0  0  0  0  0
   40.0880   23.2460   35.3370 S   0  0  0  0  0  0  0  0  0  0  0  0
  1 13  1  0  0  0  0
  1  3  1  0  0  0  0
  2  1  1  0  0  0  0
  4  5  1  0  0  0  0
  5  6  2  0  0  0  0
  5 11  1  0  0  0  0
  6  1  1  0  0  0  0
  7  6  1  0  0  0  0
  8  7  2  0  0  0  0
  9  8  1  0  0  0  0
  9  4  2  0  0  0  0
 10  4  1  0  0  0  0
 12  8  1  0  0  0  0
 13 16  1  0  0  0  0
 13 14  1  0  0  0  0
 15 13  1  0  0  0  0
 16 17  2  0  0  0  0
 17 18  1  0  0  0  0
 19 17  1  0  0  0  0
 20 19  2  0  0  0  0
 21 20  1  0  0  0  0
 21 16  1  0  0  0  0
M  END
>  <minimizedAffinity>
-3.82720351

$$$$

 OpenBabel03272509253D

 21 22  0  0  0  0  0  0  0  0999 V2000
   37.7190   21.9760   34.5860 C   0  0  0  0  0  0  0  0  0  0  0  0
   37.9460   20.8930   34.4990 H   0  0  0  0  0  0  0  0  0  0  0  0
   36.6180   22.1580   34.6110 H   0  0  0  0  0  0  0  0  0  0  0  0
   39.9970   22.6940   37.4840 C   0  0  0  0  0  0  0  0  0  0  0  0
   39.5900   22.2590   36.2090 C   0  0  0  0  0  0  0  0  0  0  0  0
   38.2520   22.4130   35.8940 C   0  0  0  0  0  0  0  0  0  0  0  0
   37.4130   22.9700   36.8250 N   0  0  0  0  0  0  0  0  0  0  0  0
   37.8370   23.3730   38.0320 C   0  0  0  0  0  0  0  0  0  0  0  0
   39.1330   23.2390   38.3710 N   0  0  0  0  0  0  0  0  0  0  0  0
   41.0410   22.5810   37.7450 H   0  0  0  0  0  0  0  0  0  0  0  0
   40.2880   21.8310   35.5200 H   0  0  0  0  0  0  0  0  0  0  0  0
   37.0390   23.7870   38.6320 H   0  0  0  0  0  0  0  0  0  0  0  0
   38.3030   22.7700   33.4440 C   0  0  0  0  0  0  0  0  0  0  0  0
   39.0970   23.4700   33.7700 H   0  0  0  0  0  0  0  0  0  0  0  0
   38.8720   22.0090   32.8420 H   0  0  0  0  0  0  0  0  0  0  0  0
   37.2800   23.4100   32.6020 C   0  0  0  0  0  0  0  0  0  0  0  0
   36.2810   23.0600   31.7680 C   0  0  0  0  0  0  0  0  0  0  0  0
   36.1130   22.0040   31.6120 H   0  0  0  0  0  0  0  0  0  0  0  0
   35.5290   24.0260   31.1620 C   0  0  0  0  0  3  0  0  0  0  0  0
   35.8200   25.3560   31.4270 C   0  0  0  0  0  3  0  0  0  0  0  0
   37.2040   25.2760   32.5730 S   0  0  0  0  0  0  0  0  0  0  0  0
  1  3  1  0  0  0  0
  1  6  1  0  0  0  0
  2  1  1  0  0  0  0
  4 10  1  0  0  0  0
  4  9  1  0  0  0  0
  5  4  2  0  0  0  0
  6  5  1  0  0  0  0
  6  7  2  0  0  0  0
  7  8  1  0  0  0  0
  8  9  2  0  0  0  0
  8 12  1  0  0  0  0
 11  5  1  0  0  0  0
 13 14  1  0  0  0  0
 13  1  1  0  0  0  0
 15 13  1  0  0  0  0
 16 13  1  0  0  0  0
 17 16  2  0  0  0  0
 18 17  1  0  0  0  0
 19 20  2  0  0  0  0
 19 17  1  0  0  0  0
 20 21  1  0  0  0  0
 21 16  1  0  0  0  0
M  END
>  <minimizedAffinity>
-3.79755211

$$$$

 OpenBabel03272509253D

 21 22  0  0  0  0  0  0  0  0999 V2000
   37.6750   27.5370   35.2730 C   0  0  0  0  0  0  0  0  0  0  0  0
   37.8780   28.6120   35.4650 H   0  0  0  0  0  0  0  0  0  0  0  0
   36.9860   27.1110   36.0390 H   0  0  0  0  0  0  0  0  0  0  0  0
   35.5250   28.3490   32.3010 C   0  0  0  0  0  0  0  0  0  0  0  0
   36.1700   28.5150   33.5410 C   0  0  0  0  0  0  0  0  0  0  0  0
   36.9650   27.4700   33.9770 C   0  0  0  0  0  0  0  0  0  0  0  0
   37.0780   26.3520   33.1910 N   0  0  0  0  0  0  0  0  0  0  0  0
   36.4470   26.2290   32.0140 C   0  0  0  0  0  0  0  0  0  0  0  0
   35.6660   27.2270   31.5590 N   0  0  0  0  0  0  0  0  0  0  0  0
   34.9010   29.1570   31.9470 H   0  0  0  0  0  0  0  0  0  0  0  0
   36.0480   29.4100   34.1150 H   0  0  0  0  0  0  0  0  0  0  0  0
   36.6520   25.2820   31.5340 H   0  0  0  0  0  0  0  0  0  0  0  0
   38.9400   26.7150   35.2670 C   0  0  0  0  0  0  0  0  0  0  0  0
   39.3960   26.6350   34.2600 H   0  0  0  0  0  0  0  0  0  0  0  0
   39.6830   27.3480   35.8270 H   0  0  0  0  0  0  0  0  0  0  0  0
   38.7870   25.4140   35.9350 C   0  0  0  0  0  0  0  0  0  0  0  0
   38.0320   24.8440   36.8960 C   0  0  0  0  0  0  0  0  0  0  0  0
   37.2870   25.4640   37.3740 H   0  0  0  0  0  0  0  0  0  0  0  0
   38.2240   23.5320   37.2250 C   0  0  0  0  0  3  0  0  0  0  0  0
   39.2040   22.8170   36.5520 C   0  0  0  0  0  3  0  0  0  0  0  0
   39.9000   24.0120   35.4020 S   0  0  0  0  0  0  0  0  0  0  0  0
  1  2  1  0  0  0  0
  1  3  1  0  0  0  0
  4  5  1  0  0  0  0
  5  6  2  0  0  0  0
  5 11  1  0  0  0  0
  6  1  1  0  0  0  0
  7  6  1  0  0  0  0
  8  7  2  0  0  0  0
  9  8  1  0  0  0  0
  9  4  2  0  0  0  0
 10  4  1  0  0  0  0
 12  8  1  0  0  0  0
 13  1  1  0  0  0  0
 13 15  1  0  0  0  0
 13 16  1  0  0  0  0
 14 13  1  0  0  0  0
 16 17  2  0  0  0  0
 17 19  1  0  0  0  0
 17 18  1  0  0  0  0
 20 19  2  0  0  0  0
 21 16  1  0  0  0  0
 21 20  1  0  0  0  0
M  END
>  <minimizedAffinity>
-3.77450013

$$$$

 OpenBabel03272509253D

 21 22  0  0  0  0  0  0  0  0999 V2000
   37.8450   27.5650   35.5430 C   0  0  0  0  0  0  0  0  0  0  0  0
   38.3470   28.5270   35.7740 H   0  0  0  0  0  0  0  0  0  0  0  0
   37.1680   27.2500   36.3710 H   0  0  0  0  0  0  0  0  0  0  0  0
   36.2760   27.3850   32.1350 C   0  0  0  0  0  0  0  0  0  0  0  0
   37.1310   27.0650   33.2070 C   0  0  0  0  0  0  0  0  0  0  0  0
   36.9880   27.8110   34.3630 C   0  0  0  0  0  0  0  0  0  0  0  0
   36.0400   28.8010   34.3990 N   0  0  0  0  0  0  0  0  0  0  0  0
   35.2440   29.0780   33.3560 C   0  0  0  0  0  0  0  0  0  0  0  0
   35.3550   28.3720   32.2160 N   0  0  0  0  0  0  0  0  0  0  0  0
   36.3760   26.8110   31.2240 H   0  0  0  0  0  0  0  0  0  0  0  0
   37.8540   26.2810   33.1250 H   0  0  0  0  0  0  0  0  0  0  0  0
   34.5590   29.8880   33.5640 H   0  0  0  0  0  0  0  0  0  0  0  0
   38.8380   26.4550   35.2980 C   0  0  0  0  0  0  0  0  0  0  0  0
   39.1280   26.3650   34.2330 H   0  0  0  0  0  0  0  0  0  0  0  0
   39.7840   26.8190   35.7850 H   0  0  0  0  0  0  0  0  0  0  0  0
   38.4300   25.1730   35.8940 C   0  0  0  0  0  0  0  0  0  0  0  0
   38.0380   24.6830   37.0880 C   0  0  0  0  0  0  0  0  0  0  0  0
   37.9800   25.3760   37.9140 H   0  0  0  0  0  0  0  0  0  0  0  0
   37.7310   23.3570   37.2120 C   0  0  0  0  0  3  0  0  0  0  0  0
   37.8330   22.5450   36.0920 C   0  0  0  0  0  3  0  0  0  0  0  0
   38.3820   23.6650   34.7940 S   0  0  0  0  0  0  0  0  0  0  0  0
  1  2  1  0  0  0  0
  1  3  1  0  0  0  0
  4  9  2  0  0  0  0
  4  5  1  0  0  0  0
  5  6  2  0  0  0  0
  6  7  1  0  0  0  0
  6  1  1  0  0  0  0
  8 12  1  0  0  0  0
  8  7  2  0  0  0  0
  9  8  1  0  0  0  0
 10  4  1  0  0  0  0
 11  5  1  0  0  0  0
 13  1  1  0  0  0  0
 13 15  1  0  0  0  0
 13 16  1  0  0  0  0
 14 13  1  0  0  0  0
 16 17  2  0  0  0  0
 17 19  1  0  0  0  0
 17 18  1  0  0  0  0
 20 19  2  0  0  0  0
 21 16  1  0  0  0  0
 21 20  1  0  0  0  0
M  END
>  <minimizedAffinity>
-3.75707912

$$$$

 OpenBabel03272509253D

 21 22  0  0  0  0  0  0  0  0999 V2000
   38.3970   25.2340   33.5640 C   0  0  0  0  0  0  0  0  0  0  0  0
   39.3030   25.5090   32.9850 H   0  0  0  0  0  0  0  0  0  0  0  0
   38.1980   25.9690   34.3790 H   0  0  0  0  0  0  0  0  0  0  0  0
   35.5930   24.3670   31.2200 C   0  0  0  0  0  0  0  0  0  0  0  0
   36.6620   24.1790   32.1160 C   0  0  0  0  0  0  0  0  0  0  0  0
   37.2570   25.3200   32.6260 C   0  0  0  0  0  0  0  0  0  0  0  0
   36.7790   26.5450   32.2380 N   0  0  0  0  0  0  0  0  0  0  0  0
   35.7570   26.6850   31.3810 C   0  0  0  0  0  0  0  0  0  0  0  0
   35.1550   25.5960   30.8660 N   0  0  0  0  0  0  0  0  0  0  0  0
   35.1180   23.4850   30.8130 H   0  0  0  0  0  0  0  0  0  0  0  0
   36.9950   23.1990   32.3850 H   0  0  0  0  0  0  0  0  0  0  0  0
   35.5170   27.7220   31.1910 H   0  0  0  0  0  0  0  0  0  0  0  0
   38.5170   23.8630   34.1830 C   0  0  0  0  0  0  0  0  0  0  0  0
   37.8400   23.1200   33.7170 H   0  0  0  0  0  0  0  0  0  0  0  0
   39.5360   23.5060   33.8680 H   0  0  0  0  0  0  0  0  0  0  0  0
   38.4270   23.8830   35.6520 C   0  0  0  0  0  0  0  0  0  0  0  0
   37.7280   24.5050   36.6220 C   0  0  0  0  0  0  0  0  0  0  0  0
   36.9870   25.2280   36.3140 H   0  0  0  0  0  0  0  0  0  0  0  0
   37.9700   24.2080   37.9340 C   0  0  0  0  0  3  0  0  0  0  0  0
   38.9410   23.2620   38.2310 C   0  0  0  0  0  3  0  0  0  0  0  0
   39.5560   22.7520   36.6190 S   0  0  0  0  0  0  0  0  0  0  0  0
  1 13  1  0  0  0  0
  1  3  1  0  0  0  0
  2  1  1  0  0  0  0
  4  5  1  0  0  0  0
  5 11  1  0  0  0  0
  5  6  2  0  0  0  0
  6  1  1  0  0  0  0
  7  6  1  0  0  0  0
  8  7  2  0  0  0  0
  9  4  2  0  0  0  0
  9  8  1  0  0  0  0
 10  4  1  0  0  0  0
 12  8  1  0  0  0  0
 13 16  1  0  0  0  0
 14 13  1  0  0  0  0
 15 13  1  0  0  0  0
 16 21  1  0  0  0  0
 16 17  2  0  0  0  0
 17 19  1  0  0  0  0
 18 17  1  0  0  0  0
 19 20  2  0  0  0  0
 21 20  1  0  0  0  0
M  END
>  <minimizedAffinity>
-3.71561384

$$$$

 OpenBabel03272509253D

 21 22  0  0  0  0  0  0  0  0999 V2000
   38.2310   24.1800   34.4600 C   0  0  0  0  0  0  0  0  0  0  0  0
   37.1810   24.5340   34.4060 H   0  0  0  0  0  0  0  0  0  0  0  0
   38.9460   24.9870   34.1720 H   0  0  0  0  0  0  0  0  0  0  0  0
   38.0360   24.0240   38.2080 C   0  0  0  0  0  0  0  0  0  0  0  0
   37.6940   24.3720   36.8870 C   0  0  0  0  0  0  0  0  0  0  0  0
   38.4960   23.8640   35.8800 C   0  0  0  0  0  0  0  0  0  0  0  0
   39.5580   23.0660   36.2190 N   0  0  0  0  0  0  0  0  0  0  0  0
   39.8540   22.7570   37.4900 C   0  0  0  0  0  0  0  0  0  0  0  0
   39.0940   23.2330   38.4940 N   0  0  0  0  0  0  0  0  0  0  0  0
   37.4190   24.4130   39.0060 H   0  0  0  0  0  0  0  0  0  0  0  0
   36.8530   24.9990   36.6790 H   0  0  0  0  0  0  0  0  0  0  0  0
   40.7230   22.1180   37.5670 H   0  0  0  0  0  0  0  0  0  0  0  0
   38.4740   22.9920   33.5630 C   0  0  0  0  0  0  0  0  0  0  0  0
   38.9340   23.2720   32.5940 H   0  0  0  0  0  0  0  0  0  0  0  0
   39.2980   22.4230   34.0760 H   0  0  0  0  0  0  0  0  0  0  0  0
   37.2920   22.1300   33.4120 C   0  0  0  0  0  0  0  0  0  0  0  0
   36.6320   21.1750   34.0970 C   0  0  0  0  0  0  0  0  0  0  0  0
   37.0280   20.8950   35.0620 H   0  0  0  0  0  0  0  0  0  0  0  0
   35.5100   20.6060   33.5640 C   0  0  0  0  0  3  0  0  0  0  0  0
   35.0770   21.0340   32.3180 C   0  0  0  0  0  3  0  0  0  0  0  0
   36.2790   22.2900   31.8510 S   0  0  0  0  0  0  0  0  0  0  0  0
  1  6  1  0  0  0  0
  2  1  1  0  0  0  0
  3  1  1  0  0  0  0
  4  9  1  0  0  0  0
  4 10  1  0  0  0  0
  5  4  2  0  0  0  0
  6  7  2  0  0  0  0
  6  5  1  0  0  0  0
  7  8  1  0  0  0  0
  8 12  1  0  0  0  0
  8  9  2  0  0  0  0
 11  5  1  0  0  0  0
 13 15  1  0  0  0  0
 13  1  1  0  0  0  0
 14 13  1  0  0  0  0
 16 13  1  0  0  0  0
 16 17  2  0  0  0  0
 17 18  1  0  0  0  0
 19 17  1  0  0  0  0
 20 19  2  0  0  0  0
 21 20  1  0  0  0  0
 21 16  1  0  0  0  0
M  END
>  <minimizedAffinity>
-3.70039725

$$$$
