
 OpenBabel03272510013D

 18 19  0  0  0  0  0  0  0  0999 V2000
   38.2880   31.2760   50.1170 C   0  0  0  0  0  0  0  0  0  0  0  0
   38.3850   31.4790   48.7240 C   0  0  0  0  0  0  0  0  0  0  0  0
   37.3670   30.9520   47.9450 C   0  0  0  0  0  0  0  0  0  0  0  0
   36.3470   30.2830   48.5300 N   0  0  0  0  0  0  0  0  0  0  0  0
   36.2900   30.1100   49.8710 C   0  0  0  0  0  0  0  0  0  0  0  0
   37.2640   30.6110   50.6410 N   0  0  0  0  0  0  0  0  0  0  0  0
   39.0740   31.6800   50.7520 H   0  0  0  0  0  0  0  0  0  0  0  0
   39.2180   32.0150   48.3470 H   0  0  0  0  0  0  0  0  0  0  0  0
   37.4040   31.1240   46.5110 C   0  0  0  0  0  0  0  0  0  0  0  0
   36.7300   30.5990   45.4670 C   0  0  0  0  0  0  0  0  0  0  0  0
   35.9740   29.8680   45.7650 H   0  0  0  0  0  0  0  0  0  0  0  0
   37.0000   30.9700   44.2000 C   0  0  0  0  0  3  0  0  0  0  0  0
   38.0000   31.9140   44.0350 C   0  0  0  0  0  3  0  0  0  0  0  0
   38.5480   32.2560   45.7850 S   0  0  0  0  0  0  0  0  0  0  0  0
   35.1440   29.3660   50.4370 C   0  0  0  0  0  0  0  0  0  0  0  0
   35.2770   29.1240   51.7940 F   0  0  0  0  0  0  0  0  0  0  0  0
   33.9590   30.0660   50.2790 F   0  0  0  0  0  0  0  0  0  0  0  0
   34.9350   28.1510   49.8160 F   0  0  0  0  0  0  0  0  0  0  0  0
  1  6  1  0  0  0  0
  1  7  1  0  0  0  0
  2  1  2  0  0  0  0
  3  4  2  0  0  0  0
  3  2  1  0  0  0  0
  4  5  1  0  0  0  0
  5 15  1  0  0  0  0
  5  6  2  0  0  0  0
  8  2  1  0  0  0  0
  9  3  1  0  0  0  0
 10 11  1  0  0  0  0
 10  9  2  0  0  0  0
 12 10  1  0  0  0  0
 13 12  2  0  0  0  0
 13 14  1  0  0  0  0
 14  9  1  0  0  0  0
 15 16  1  0  0  0  0
 17 15  1  0  0  0  0
 18 15  1  0  0  0  0
M  END
>  <minimizedAffinity>
-5.12042761

>  <minimizedRMSD>
0.45504719

$$$$
