
 OpenBabel03262520323D

 20 21  0  0  0  0  0  0  0  0999 V2000
   34.8290   28.3310   49.7210 C   0  0  0  0  0  3  0  0  0  0  0  0
   34.3890   28.2260   48.5070 C   0  0  0  0  0  3  0  0  0  0  0  0
   37.4190   30.3100   51.3830 C   0  0  0  0  0  0  0  0  0  0  0  0
   38.1600   30.8120   50.3030 C   0  0  0  0  0  0  0  0  0  0  0  0
   37.7450   30.4550   49.0130 C   0  0  0  0  0  0  0  0  0  0  0  0
   36.6450   29.6380   48.8930 N   0  0  0  0  0  0  0  0  0  0  0  0
   35.9750   29.1870   49.9620 C   0  0  0  0  0  0  0  0  0  0  0  0
   36.3660   29.5250   51.1890 N   0  0  0  0  0  0  0  0  0  0  0  0
   37.8090   30.6360   52.3340 H   0  0  0  0  0  0  0  0  0  0  0  0
   39.0160   31.4440   50.3030 H   0  0  0  0  0  0  0  0  0  0  0  0
   38.2030   30.7540   48.0770 H   0  0  0  0  0  0  0  0  0  0  0  0
   33.2320   27.4100   48.0280 C   0  0  0  0  0  0  0  0  0  0  0  0
   32.8300   26.8740   48.9100 H   0  0  0  0  0  0  0  0  0  0  0  0
   32.4290   28.1090   47.7080 H   0  0  0  0  0  0  0  0  0  0  0  0
   33.6560   26.4690   47.0220 C   0  0  0  0  0  0  0  0  0  0  0  0
   34.0290   25.1460   47.0160 C   0  0  0  0  0  0  0  0  0  0  0  0
   34.0020   24.6930   47.9970 H   0  0  0  0  0  0  0  0  0  0  0  0
   34.3860   24.5140   45.8690 C   0  0  0  0  0  3  0  0  0  0  0  0
   34.3650   25.2480   44.6870 C   0  0  0  0  0  3  0  0  0  0  0  0
   33.7910   26.9530   45.2980 S   0  0  0  0  0  0  0  0  0  0  0  0
  1  7  1  0  0  0  0
  2  1  2  0  0  0  0
  3  9  1  0  0  0  0
  4  3  2  0  0  0  0
  5  4  1  0  0  0  0
  6  5  2  0  0  0  0
  6  7  1  0  0  0  0
  7  8  2  0  0  0  0
  8  3  1  0  0  0  0
 10  4  1  0  0  0  0
 11  5  1  0  0  0  0
 12  2  1  0  0  0  0
 12 13  1  0  0  0  0
 14 12  1  0  0  0  0
 15 12  1  0  0  0  0
 16 15  2  0  0  0  0
 16 17  1  0  0  0  0
 18 16  1  0  0  0  0
 19 20  1  0  0  0  0
 19 18  2  0  0  0  0
 20 15  1  0  0  0  0
M  END
>  <minimizedAffinity>
-4.27676487

>  <minimizedRMSD>
0.804534018

$$$$
