
 OpenBabel03272510113D

 32 35  0  0  0  0  0  0  0  0999 V2000
   33.2460   28.3380   48.9210 C   0  0  0  0  0  0  0  0  0  0  0  0
   33.5200   28.9170   50.1120 C   0  0  0  0  0  0  0  0  0  0  0  0
   34.7530   29.4360   50.4700 C   0  0  0  0  0  0  0  0  0  0  0  0
   35.7910   29.3810   49.5910 C   0  0  0  0  0  0  0  0  0  0  0  0
   35.5150   28.7830   48.3550 C   0  0  0  0  0  0  0  0  0  0  0  0
   34.2970   28.2930   48.0570 N   0  0  0  0  0  0  0  0  0  0  0  0
   32.7580   29.0040   50.8750 H   0  0  0  0  0  0  0  0  0  0  0  0
   34.9710   29.8980   51.4230 H   0  0  0  0  0  0  0  0  0  0  0  0
   36.2600   28.6800   47.5680 H   0  0  0  0  0  0  0  0  0  0  0  0
   30.8500   27.7810   49.4120 C   0  0  0  0  0  0  0  0  0  0  0  0
   31.9660   27.8010   48.5570 C   0  0  0  0  0  0  0  0  0  0  0  0
   31.7860   27.2630   47.2900 C   0  0  0  0  0  0  0  0  0  0  0  0
   30.5820   26.7510   46.9310 N   0  0  0  0  0  0  0  0  0  0  0  0
   29.5410   26.7590   47.7990 C   0  0  0  0  0  0  0  0  0  0  0  0
   29.6690   27.2670   49.0270 N   0  0  0  0  0  0  0  0  0  0  0  0
   30.9550   28.1870   50.3950 H   0  0  0  0  0  0  0  0  0  0  0  0
   32.6230   27.2500   46.5750 H   0  0  0  0  0  0  0  0  0  0  0  0
   28.6010   26.3330   47.4470 H   0  0  0  0  0  0  0  0  0  0  0  0
   37.0950   29.8510   49.7760 O   0  0  0  0  0  0  0  0  0  0  0  0
   37.6840   30.7350   48.8870 C   0  0  0  0  0  0  0  0  0  0  0  0
   38.2170   31.8840   49.4860 C   0  0  0  0  0  0  0  0  0  0  0  0
   38.7760   32.6900   48.5160 C   0  0  0  0  0  0  0  0  0  0  0  0
   38.5690   32.0190   47.3750 N   0  0  0  0  0  0  0  0  0  0  0  0
   37.9380   30.8870   47.5810 N   0  0  0  0  0  0  0  0  0  0  0  0
   38.2740   32.2500   50.5260 H   0  0  0  0  0  0  0  0  0  0  0  0
   39.2800   33.6500   48.5760 H   0  0  0  0  0  0  0  0  0  0  0  0
   38.9300   32.3670   46.0220 C   0  0  0  0  0  0  0  0  0  0  0  0
   37.9870   32.3120   45.0350 C   0  0  0  0  0  0  0  0  0  0  0  0
   36.9450   32.0340   45.0910 H   0  0  0  0  0  0  0  0  0  0  0  0
   38.1880   32.6080   43.7470 C   0  0  0  0  0  3  0  0  0  0  0  0
   39.5500   33.0170   43.4310 C   0  0  0  0  0  3  0  0  0  0  0  0
   40.4520   32.9270   45.1300 S   0  0  0  0  0  0  0  0  0  0  0  0
  1  2  1  0  0  0  0
  2  3  2  0  0  0  0
  2  7  1  0  0  0  0
  3  8  1  0  0  0  0
  4 19  1  0  0  0  0
  4  3  1  0  0  0  0
  5  4  2  0  0  0  0
  6  5  1  0  0  0  0
  6  1  2  0  0  0  0
  9  5  1  0  0  0  0
 10 16  1  0  0  0  0
 11  1  1  0  0  0  0
 11 10  2  0  0  0  0
 12 11  1  0  0  0  0
 13 12  2  0  0  0  0
 13 14  1  0  0  0  0
 14 15  2  0  0  0  0
 15 10  1  0  0  0  0
 17 12  1  0  0  0  0
 18 14  1  0  0  0  0
 20 21  1  0  0  0  0
 20 19  1  0  0  0  0
 21 25  1  0  0  0  0
 22 26  1  0  0  0  0
 22 21  2  0  0  0  0
 23 24  1  0  0  0  0
 23 22  1  0  0  0  0
 24 20  2  0  0  0  0
 27 23  1  0  0  0  0
 28 29  1  0  0  0  0
 28 27  2  0  0  0  0
 30 28  1  0  0  0  0
 31 30  2  0  0  0  0
 31 32  1  0  0  0  0
 32 27  1  0  0  0  0
M  END
>  <minimizedAffinity>
-5.61866283

>  <minimizedRMSD>
1.71767473

$$$$
