
 OpenBabel03272510343D

 25 27  0  0  0  0  0  0  0  0999 V2000
   35.9510   30.1070   46.7640 C   0  0  0  0  0  0  0  0  0  0  0  0
   35.3750   30.1010   45.5120 C   0  0  0  0  0  0  0  0  0  0  0  0
   34.1870   29.4370   45.2780 C   0  0  0  0  0  0  0  0  0  0  0  0
   33.5860   28.7780   46.3240 C   0  0  0  0  0  0  0  0  0  0  0  0
   34.1390   28.7680   47.5860 C   0  0  0  0  0  0  0  0  0  0  0  0
   35.3280   29.4360   47.8080 C   0  0  0  0  0  0  0  0  0  0  0  0
   35.8540   30.6260   44.6720 H   0  0  0  0  0  0  0  0  0  0  0  0
   33.7350   29.4310   44.2930 H   0  0  0  0  0  0  0  0  0  0  0  0
   32.6490   28.2340   46.2240 H   0  0  0  0  0  0  0  0  0  0  0  0
   33.7320   28.2730   48.4680 H   0  0  0  0  0  0  0  0  0  0  0  0
   38.2970   32.6040   47.9680 C   0  0  0  0  0  0  0  0  0  0  0  0
   39.4930   32.3110   47.3130 C   0  0  0  0  0  0  0  0  0  0  0  0
   39.4740   31.2130   46.4330 C   0  0  0  0  0  0  0  0  0  0  0  0
   38.3240   30.5130   46.2680 N   0  0  0  0  0  0  0  0  0  0  0  0
   37.1970   30.8310   46.9180 C   0  0  0  0  0  0  0  0  0  0  0  0
   37.1900   31.8870   47.7740 N   0  0  0  0  0  0  0  0  0  0  0  0
   38.3070   33.4600   48.6560 H   0  0  0  0  0  0  0  0  0  0  0  0
   40.3720   32.9270   47.5060 H   0  0  0  0  0  0  0  0  0  0  0  0
   40.4010   30.9910   45.9300 H   0  0  0  0  0  0  0  0  0  0  0  0
   35.9690   29.4600   49.1350 C   0  0  0  0  0  0  0  0  0  0  0  0
   35.2340   29.5910   50.3550 C   0  0  0  0  0  0  0  0  0  0  0  0
   34.1590   29.6800   50.3460 H   0  0  0  0  0  0  0  0  0  0  0  0
   35.9450   29.6000   51.5230 C   0  0  0  0  0  3  0  0  0  0  0  0
   37.3590   29.4790   51.4650 C   0  0  0  0  0  3  0  0  0  0  0  0
   37.7390   29.3450   49.6970 S   0  0  0  0  0  0  0  0  0  0  0  0
  1 15  1  0  0  0  0
  1  6  1  0  0  0  0
  2  1  2  0  0  0  0
  3  2  1  0  0  0  0
  3  4  2  0  0  0  0
  4  5  1  0  0  0  0
  5  6  2  0  0  0  0
  5 10  1  0  0  0  0
  6 20  1  0  0  0  0
  7  2  1  0  0  0  0
  8  3  1  0  0  0  0
  9  4  1  0  0  0  0
 11 17  1  0  0  0  0
 12 18  1  0  0  0  0
 12 11  2  0  0  0  0
 13 12  1  0  0  0  0
 14 13  2  0  0  0  0
 14 15  1  0  0  0  0
 15 16  2  0  0  0  0
 16 11  1  0  0  0  0
 19 13  1  0  0  0  0
 20 25  1  0  0  0  0
 20 21  2  0  0  0  0
 21 23  1  0  0  0  0
 22 21  1  0  0  0  0
 24 23  2  0  0  0  0
 25 24  1  0  0  0  0
M  END
>  <minimizedAffinity>
-4.20351028

>  <minimizedRMSD>
1.95672369

$$$$
