
 OpenBabel03272505523D

 41 44  0  0  1  0  0  0  0  0999 V2000
   37.2690   29.2680   50.5530 C   0  0  0  0  0  0  0  0  0  0  0  0
   37.4100   30.6450   50.8420 C   0  0  0  0  0  0  0  0  0  0  0  0
   36.6510   31.5290   50.0880 C   0  0  0  0  0  0  0  0  0  0  0  0
   35.8280   31.0220   49.1290 N   0  0  0  0  0  0  0  0  0  0  0  0
   35.7280   29.7170   48.8920 C   0  0  0  0  0  0  0  0  0  0  0  0
   36.4430   28.8460   49.5990 N   0  0  0  0  0  0  0  0  0  0  0  0
   34.8500   29.2570   47.8780 N   0  0  0  0  0  0  0  0  0  0  0  0
   34.2320   27.9400   47.9460 C   0  0  0  0  0  0  0  0  0  0  0  0
   32.7520   28.0590   47.8020 C   0  0  0  0  0  0  0  0  0  0  0  0
   32.2700   29.2660   47.3330 N   0  0  0  0  0  0  0  0  0  0  0  0
   33.0860   30.1370   46.5310 C   0  0  0  0  0  0  0  0  0  0  0  0
   34.5230   30.0730   46.7220 C   0  0  2  0  0  0  0  0  0  0  0  0
   37.8640   28.5710   51.1450 H   0  0  0  0  0  0  0  0  0  0  0  0
   38.0710   30.9790   51.6050 H   0  0  0  0  0  0  0  0  0  0  0  0
   36.7100   32.6020   50.2560 H   0  0  0  0  0  0  0  0  0  0  0  0
   34.4410   27.5590   48.9950 H   0  0  0  0  0  0  0  0  0  0  0  0
   34.7190   27.2040   47.2970 H   0  0  0  0  0  0  0  0  0  0  0  0
   32.2250   27.7620   48.7310 H   0  0  0  0  0  0  0  0  0  0  0  0
   32.4580   27.2450   47.0730 H   0  0  0  0  0  0  0  0  0  0  0  0
   31.6120   29.7170   47.9770 H   0  0  0  0  0  0  0  0  0  0  0  0
   32.6250   30.1260   45.5540 H   0  0  0  0  0  0  0  0  0  0  0  0
   32.7720   31.1690   46.9090 H   0  0  0  0  0  0  0  0  0  0  0  0
   34.9960   31.0850   46.9090 H   0  0  0  0  0  0  0  0  0  0  0  0
   35.2570   29.5190   45.5950 N   0  0  2  0  0  0  0  0  0  0  0  0
   36.4060   30.3580   45.2490 C   0  0  0  0  0  0  0  0  0  0  0  0
   36.5460   30.3020   43.7400 C   0  0  0  0  0  0  0  0  0  0  0  0
   35.5730   29.2510   43.3490 C   0  0  0  0  0  0  0  0  0  0  0  0
   34.4730   29.3700   44.4260 C   0  0  1  0  0  0  0  0  0  0  0  0
   37.3010   29.9780   45.7390 H   0  0  0  0  0  0  0  0  0  0  0  0
   36.1560   31.4060   45.5650 H   0  0  0  0  0  0  0  0  0  0  0  0
   36.2220   31.2730   43.3100 H   0  0  0  0  0  0  0  0  0  0  0  0
   37.6000   30.0850   43.4700 H   0  0  0  0  0  0  0  0  0  0  0  0
   36.0350   28.2460   43.3900 H   0  0  0  0  0  0  0  0  0  0  0  0
   35.1870   29.4010   42.3400 H   0  0  0  0  0  0  0  0  0  0  0  0
   33.9390   30.2240   44.0290 H   0  0  0  0  0  0  0  0  0  0  0  0
   33.7690   28.0830   44.2810 C   0  0  0  0  0  0  0  0  0  0  0  0
   34.3340   26.8400   44.4940 C   0  0  0  0  0  0  0  0  0  0  0  0
   35.3640   26.7130   44.7990 H   0  0  0  0  0  0  0  0  0  0  0  0
   33.5190   25.7550   44.3000 C   0  0  0  0  0  0  0  0  0  0  0  0
   32.1980   25.9340   43.9070 C   0  0  0  0  0  0  0  0  0  0  0  0
   32.1130   27.7790   43.8090 S   0  0  0  0  0  0  0  0  0  0  0  0
  1  2  1  0  0  0  0
  1 13  1  0  0  0  0
  2 14  1  0  0  0  0
  3 15  1  0  0  0  0
  3  2  2  0  0  0  0
  4  3  1  0  0  0  0
  5  4  2  0  0  0  0
  5  6  1  0  0  0  0
  6  1  2  0  0  0  0
  7  8  1  0  0  0  0
  7  5  1  0  0  0  0
  8 16  1  0  0  0  0
  9  8  1  0  0  0  0
  9 18  1  0  0  0  0
 10  9  1  0  0  0  0
 10 20  1  0  0  0  0
 11 12  1  0  0  0  0
 11 22  1  0  0  0  0
 11 10  1  0  0  0  0
 12 23  1  1  0  0  0
 12  7  1  0  0  0  0
 17  8  1  0  0  0  0
 19  9  1  0  0  0  0
 21 11  1  0  0  0  0
 24 25  1  6  0  0  0
 24 12  1  0  0  0  0
 25 30  1  0  0  0  0
 25 29  1  0  0  0  0
 26 25  1  0  0  0  0
 27 33  1  0  0  0  0
 27 26  1  0  0  0  0
 27 28  1  0  0  0  0
 28 35  1  6  0  0  0
 28 24  1  0  0  0  0
 31 26  1  0  0  0  0
 32 26  1  0  0  0  0
 34 27  1  0  0  0  0
 36 28  1  0  0  0  0
 36 37  2  0  0  0  0
 37 38  1  0  0  0  0
 39 37  1  0  0  0  0
 40 39  2  0  0  0  0
 41 40  1  0  0  0  0
 41 36  1  0  0  0  0
M  END
>  <minimizedAffinity>
-4.64807749

>  <minimizedRMSD>
0.223790154

$$$$
