
 OpenBabel03272510023D

 18 19  0  0  0  0  0  0  0  0999 V2000
   38.2640   31.3160   50.1970 C   0  0  0  0  0  0  0  0  0  0  0  0
   38.4480   31.4270   48.8030 C   0  0  0  0  0  0  0  0  0  0  0  0
   37.4960   30.8230   47.9980 C   0  0  0  0  0  0  0  0  0  0  0  0
   36.4520   30.1700   48.5610 N   0  0  0  0  0  0  0  0  0  0  0  0
   36.3100   30.0880   49.9040 C   0  0  0  0  0  0  0  0  0  0  0  0
   37.2210   30.6630   50.6990 N   0  0  0  0  0  0  0  0  0  0  0  0
   38.9970   31.7810   50.8530 H   0  0  0  0  0  0  0  0  0  0  0  0
   39.2940   31.9560   48.4450 H   0  0  0  0  0  0  0  0  0  0  0  0
   37.6240   30.8980   46.5610 C   0  0  0  0  0  0  0  0  0  0  0  0
   36.8130   30.6440   45.5130 C   0  0  0  0  0  0  0  0  0  0  0  0
   35.8200   30.2990   45.8110 H   0  0  0  0  0  0  0  0  0  0  0  0
   37.2340   30.8150   44.2440 C   0  0  0  0  0  3  0  0  0  0  0  0
   38.5350   31.2610   44.0810 C   0  0  0  0  0  3  0  0  0  0  0  0
   39.1430   31.4320   45.8360 S   0  0  0  0  0  0  0  0  0  0  0  0
   35.1440   29.3560   50.4440 C   0  0  0  0  0  0  0  0  0  0  0  0
   35.2450   29.1100   51.8040 F   0  0  0  0  0  0  0  0  0  0  0  0
   33.9700   30.0690   50.2620 F   0  0  0  0  0  0  0  0  0  0  0  0
   34.9350   28.1440   49.8170 F   0  0  0  0  0  0  0  0  0  0  0  0
  1  6  1  0  0  0  0
  1  7  1  0  0  0  0
  2  1  2  0  0  0  0
  3  4  2  0  0  0  0
  3  2  1  0  0  0  0
  4  5  1  0  0  0  0
  5 15  1  0  0  0  0
  5  6  2  0  0  0  0
  8  2  1  0  0  0  0
  9  3  1  0  0  0  0
 10 11  1  0  0  0  0
 10  9  2  0  0  0  0
 12 10  1  0  0  0  0
 13 12  2  0  0  0  0
 13 14  1  0  0  0  0
 14  9  1  0  0  0  0
 15 16  1  0  0  0  0
 17 15  1  0  0  0  0
 18 15  1  0  0  0  0
M  END
>  <minimizedAffinity>
-5.00367594

>  <minimizedRMSD>
0.707117975

$$$$
