
 OpenBabel03272510133D

 38 41  0  0  0  0  0  0  0  0999 V2000
   37.4990   30.7140   49.7290 O   0  0  0  0  0  0  0  0  0  0  0  0
   33.9730   28.8490   48.3830 C   0  0  0  0  0  0  0  0  0  0  0  0
   34.7220   28.3060   49.3850 C   0  0  0  0  0  0  0  0  0  0  0  0
   35.8770   28.8560   49.8720 C   0  0  0  0  0  0  0  0  0  0  0  0
   36.3550   30.0250   49.3570 C   0  0  0  0  0  0  0  0  0  0  0  0
   35.5980   30.5930   48.3290 C   0  0  0  0  0  0  0  0  0  0  0  0
   34.4660   30.0240   47.8740 N   0  0  0  0  0  0  0  0  0  0  0  0
   34.4060   27.3810   49.8430 H   0  0  0  0  0  0  0  0  0  0  0  0
   36.4660   28.4180   50.6680 H   0  0  0  0  0  0  0  0  0  0  0  0
   35.9060   31.5210   47.8640 H   0  0  0  0  0  0  0  0  0  0  0  0
   31.9490   27.4130   48.5940 C   0  0  0  0  0  0  0  0  0  0  0  0
   32.7660   28.2880   47.8610 C   0  0  0  0  0  0  0  0  0  0  0  0
   32.3570   28.5980   46.5890 C   0  0  0  0  0  0  0  0  0  0  0  0
   31.2030   28.0590   46.0910 N   0  0  0  0  0  0  0  0  0  0  0  0
   30.4480   27.2110   46.8510 C   0  0  0  0  0  0  0  0  0  0  0  0
   30.8130   26.8820   48.1060 N   0  0  0  0  0  0  0  0  0  0  0  0
   32.2250   27.1400   49.5970 H   0  0  0  0  0  0  0  0  0  0  0  0
   32.9660   29.2720   45.9930 H   0  0  0  0  0  0  0  0  0  0  0  0
   29.5310   26.7770   46.4710 H   0  0  0  0  0  0  0  0  0  0  0  0
   38.1900   31.5250   48.8610 C   0  0  0  0  0  0  0  0  0  0  0  0
   38.3990   32.8040   49.3270 C   0  0  0  0  0  0  0  0  0  0  0  0
   39.1080   33.4990   48.3430 C   0  0  0  0  0  0  0  0  0  0  0  0
   39.3020   32.6490   47.3420 N   0  0  0  0  0  0  0  0  0  0  0  0
   38.7670   31.5090   47.6510 N   0  0  0  0  0  0  0  0  0  0  0  0
   38.1550   33.3710   50.2290 H   0  0  0  0  0  0  0  0  0  0  0  0
   39.4670   34.5230   48.3150 H   0  0  0  0  0  0  0  0  0  0  0  0
   39.9950   32.9150   46.0990 C   0  0  0  0  0  0  0  0  0  0  0  0
   40.4340   33.9270   46.1010 H   0  0  0  0  0  0  0  0  0  0  0  0
   40.8010   32.1450   45.9940 H   0  0  0  0  0  0  0  0  0  0  0  0
   39.0150   32.8650   44.9720 C   0  0  0  0  0  0  0  0  0  0  0  0
   38.0320   33.2560   45.3780 H   0  0  0  0  0  0  0  0  0  0  0  0
   39.3020   33.6720   44.2360 H   0  0  0  0  0  0  0  0  0  0  0  0
   38.8420   31.5780   44.3230 C   0  0  0  0  0  0  0  0  0  0  0  0
   37.8190   30.5540   43.9810 C   0  0  0  0  0  0  0  0  0  0  0  0
   36.8680   30.8680   44.3460 H   0  0  0  0  0  0  0  0  0  0  0  0
   38.3140   29.4840   43.2980 C   0  0  0  0  0  3  0  0  0  0  0  0
   39.6420   29.3410   42.9440 C   0  0  0  0  0  3  0  0  0  0  0  0
   40.4230   30.8310   43.5880 S   0  0  0  0  0  0  0  0  0  0  0  0
  2  3  1  0  0  0  0
  3  8  1  0  0  0  0
  3  4  2  0  0  0  0
  4  9  1  0  0  0  0
  5  1  1  0  0  0  0
  5  4  1  0  0  0  0
  6  5  2  0  0  0  0
  7  6  1  0  0  0  0
  7  2  2  0  0  0  0
 10  6  1  0  0  0  0
 11 17  1  0  0  0  0
 12  2  1  0  0  0  0
 12 11  2  0  0  0  0
 13 12  1  0  0  0  0
 14 13  2  0  0  0  0
 14 15  1  0  0  0  0
 15 16  2  0  0  0  0
 16 11  1  0  0  0  0
 18 13  1  0  0  0  0
 19 15  1  0  0  0  0
 20 21  1  0  0  0  0
 20  1  1  0  0  0  0
 21 25  1  0  0  0  0
 22 21  2  0  0  0  0
 23 24  1  0  0  0  0
 23 22  1  0  0  0  0
 24 20  2  0  0  0  0
 26 22  1  0  0  0  0
 27 28  1  0  0  0  0
 27 23  1  0  0  0  0
 29 27  1  0  0  0  0
 30 31  1  0  0  0  0
 30 27  1  0  0  0  0
 32 30  1  0  0  0  0
 33 30  1  0  0  0  0
 34 33  2  0  0  0  0
 34 35  1  0  0  0  0
 36 34  1  0  0  0  0
 37 36  2  0  0  0  0
 37 38  1  0  0  0  0
 38 33  1  0  0  0  0
M  END
>  <minimizedAffinity>
-5.80004311

>  <minimizedRMSD>
2.46106553

$$$$
