
 OpenBabel03272502303D

 21 22  0  0  0  0  0  0  0  0999 V2000
   38.1970   30.9120   47.8090 C   0  0  0  0  0  3  0  0  0  0  0  0
   38.8170   32.0780   47.8310 C   0  0  0  0  0  3  0  0  0  0  0  0
   37.3730   30.2200   51.3800 C   0  0  0  0  0  0  0  0  0  0  0  0
   38.0020   30.7200   50.2380 C   0  0  0  0  0  0  0  0  0  0  0  0
   37.5350   30.3870   48.9720 C   0  0  0  0  0  0  0  0  0  0  0  0
   36.4530   29.5620   48.8910 N   0  0  0  0  0  0  0  0  0  0  0  0
   35.8730   29.1000   50.0010 C   0  0  0  0  0  0  0  0  0  0  0  0
   36.3180   29.4180   51.2270 N   0  0  0  0  0  0  0  0  0  0  0  0
   37.6750   30.4340   52.3910 H   0  0  0  0  0  0  0  0  0  0  0  0
   38.8490   31.3640   50.4200 H   0  0  0  0  0  0  0  0  0  0  0  0
   35.0070   28.4420   49.8470 H   0  0  0  0  0  0  0  0  0  0  0  0
   39.4730   32.5220   46.5500 C   0  0  0  0  0  0  0  0  0  0  0  0
   39.7410   33.5910   46.6420 H   0  0  0  0  0  0  0  0  0  0  0  0
   40.3520   31.8750   46.3160 H   0  0  0  0  0  0  0  0  0  0  0  0
   38.2630   32.3160   45.2020 S   0  0  0  0  0  0  0  0  0  0  0  0
   38.9700   31.9000   43.6960 C   0  0  0  0  0  0  0  0  0  0  0  0
   38.7020   32.4140   42.3850 C   0  0  0  0  0  0  0  0  0  0  0  0
   37.9460   33.1780   42.2990 H   0  0  0  0  0  0  0  0  0  0  0  0
   39.4220   31.8990   41.3360 C   0  0  0  0  0  3  0  0  0  0  0  0
   40.3750   30.9060   41.6020 C   0  0  0  0  0  3  0  0  0  0  0  0
   40.2890   30.6510   43.4030 S   0  0  0  0  0  0  0  0  0  0  0  0
  1  2  2  0  0  0  0
  1  5  1  0  0  0  0
  3  9  1  0  0  0  0
  4 10  1  0  0  0  0
  4  3  2  0  0  0  0
  5  4  1  0  0  0  0
  6  5  2  0  0  0  0
  6  7  1  0  0  0  0
  7  8  2  0  0  0  0
  8  3  1  0  0  0  0
 11  7  1  0  0  0  0
 12 13  1  0  0  0  0
 12  2  1  0  0  0  0
 14 12  1  0  0  0  0
 15 12  1  0  0  0  0
 16 15  1  0  0  0  0
 17 16  2  0  0  0  0
 18 17  1  0  0  0  0
 19 20  2  0  0  0  0
 19 17  1  0  0  0  0
 20 21  1  0  0  0  0
 21 16  1  0  0  0  0
M  END
>  <minimizedAffinity>
-4.66086626

>  <minimizedRMSD>
1.09171271

$$$$
