
 OpenBabel03272508353D

 28 30  0  0  0  0  0  0  0  0999 V2000
   38.0820   24.0250   34.6420 C   0  0  0  0  0  0  0  0  0  0  0  0
   37.9940   25.2960   34.1350 C   0  0  0  0  0  0  0  0  0  0  0  0
   37.6450   25.2210   32.7970 C   0  0  0  0  0  0  0  0  0  0  0  0
   37.5310   23.8950   32.5340 N   0  0  0  0  0  0  0  0  0  0  0  0
   37.7910   23.1770   33.6310 N   0  0  0  0  0  0  0  0  0  0  0  0
   38.1560   26.2480   34.6330 H   0  0  0  0  0  0  0  0  0  0  0  0
   37.5000   26.0510   32.1290 H   0  0  0  0  0  0  0  0  0  0  0  0
   39.8330   22.8210   37.7480 C   0  0  0  0  0  0  0  0  0  0  0  0
   39.5660   23.0260   36.4010 C   0  0  0  0  0  0  0  0  0  0  0  0
   38.4330   23.7660   36.0260 C   0  0  0  0  0  0  0  0  0  0  0  0
   37.6500   24.2460   37.0280 N   0  0  0  0  0  0  0  0  0  0  0  0
   37.9390   24.0270   38.3380 C   0  0  0  0  0  0  0  0  0  0  0  0
   39.0210   23.3210   38.6830 N   0  0  0  0  0  0  0  0  0  0  0  0
   40.7310   22.2390   37.8650 H   0  0  0  0  0  0  0  0  0  0  0  0
   40.1540   22.6670   35.5610 H   0  0  0  0  0  0  0  0  0  0  0  0
   37.2880   24.4280   39.1260 H   0  0  0  0  0  0  0  0  0  0  0  0
   37.1680   23.3700   31.2050 C   0  0  0  0  0  0  0  0  0  0  0  0
   37.7950   22.5100   30.9270 H   0  0  0  0  0  0  0  0  0  0  0  0
   37.2690   24.1740   30.4480 H   0  0  0  0  0  0  0  0  0  0  0  0
   35.7230   22.9280   31.2250 C   0  0  0  0  0  0  0  0  0  0  0  0
   35.1980   23.3270   32.1230 H   0  0  0  0  0  0  0  0  0  0  0  0
   35.1760   23.1540   30.3120 H   0  0  0  0  0  0  0  0  0  0  0  0
   35.7090   21.4550   31.3840 C   0  0  0  0  0  0  0  0  0  0  0  0
   34.7640   20.6930   32.1420 C   0  0  0  0  0  0  0  0  0  0  0  0
   33.9750   21.2210   32.6580 H   0  0  0  0  0  0  0  0  0  0  0  0
   34.9700   19.3340   32.1330 C   0  0  0  0  0  3  0  0  0  0  0  0
   36.0020   18.8090   31.4420 C   0  0  0  0  0  3  0  0  0  0  0  0
   36.8430   20.2420   30.6900 S   0  0  0  0  0  0  0  0  0  0  0  0
  1 10  1  0  0  0  0
  2  6  1  0  0  0  0
  2  1  1  0  0  0  0
  3  2  2  0  0  0  0
  4  3  1  0  0  0  0
  4  5  1  0  0  0  0
  5  1  2  0  0  0  0
  7  3  1  0  0  0  0
  8 14  1  0  0  0  0
  8 13  1  0  0  0  0
  9  8  2  0  0  0  0
 10  9  1  0  0  0  0
 10 11  2  0  0  0  0
 11 12  1  0  0  0  0
 12 13  2  0  0  0  0
 12 16  1  0  0  0  0
 15  9  1  0  0  0  0
 17 20  1  0  0  0  0
 17  4  1  0  0  0  0
 18 17  1  0  0  0  0
 19 17  1  0  0  0  0
 20 23  1  0  0  0  0
 20 21  1  0  0  0  0
 22 20  1  0  0  0  0
 23 24  2  0  0  0  0
 24 25  1  0  0  0  0
 26 24  1  0  0  0  0
 27 26  2  0  0  0  0
 28 23  1  0  0  0  0
 28 27  1  0  0  0  0
M  END
>  <minimizedAffinity>
-4.79042101

$$$$

 OpenBabel03272508353D

 28 30  0  0  0  0  0  0  0  0999 V2000
   36.3070   23.3350   31.2720 C   0  0  0  0  0  0  0  0  0  0  0  0
   35.3180   24.2820   31.2050 C   0  0  0  0  0  0  0  0  0  0  0  0
   35.9020   25.5340   31.1120 C   0  0  0  0  0  0  0  0  0  0  0  0
   37.2390   25.3030   31.1240 N   0  0  0  0  0  0  0  0  0  0  0  0
   37.4860   23.9930   31.2200 N   0  0  0  0  0  0  0  0  0  0  0  0
   34.2390   24.1510   31.2180 H   0  0  0  0  0  0  0  0  0  0  0  0
   35.3850   26.4740   31.0440 H   0  0  0  0  0  0  0  0  0  0  0  0
   34.7770   20.0360   32.2390 C   0  0  0  0  0  0  0  0  0  0  0  0
   34.9930   21.4060   32.1920 C   0  0  0  0  0  0  0  0  0  0  0  0
   36.0170   21.9170   31.3780 C   0  0  0  0  0  0  0  0  0  0  0  0
   36.7510   21.0170   30.6710 N   0  0  0  0  0  0  0  0  0  0  0  0
   36.5150   19.6800   30.7400 C   0  0  0  0  0  0  0  0  0  0  0  0
   35.5360   19.2050   31.5190 N   0  0  0  0  0  0  0  0  0  0  0  0
   33.9620   19.8090   32.9050 H   0  0  0  0  0  0  0  0  0  0  0  0
   34.4400   22.1690   32.7330 H   0  0  0  0  0  0  0  0  0  0  0  0
   37.1230   18.9770   30.1570 H   0  0  0  0  0  0  0  0  0  0  0  0
   38.2390   26.3830   31.0410 C   0  0  0  0  0  0  0  0  0  0  0  0
   38.3890   26.7140   30.0030 H   0  0  0  0  0  0  0  0  0  0  0  0
   39.1990   26.0340   31.4710 H   0  0  0  0  0  0  0  0  0  0  0  0
   37.7640   27.5620   31.8600 C   0  0  0  0  0  0  0  0  0  0  0  0
   38.2870   28.4960   31.5510 H   0  0  0  0  0  0  0  0  0  0  0  0
   36.6850   27.6930   31.8670 H   0  0  0  0  0  0  0  0  0  0  0  0
   38.1800   27.3260   33.2630 C   0  0  0  0  0  0  0  0  0  0  0  0
   39.5040   27.0220   33.7160 C   0  0  0  0  0  0  0  0  0  0  0  0
   40.2940   26.9510   32.9810 H   0  0  0  0  0  0  0  0  0  0  0  0
   39.6300   26.8470   35.0730 C   0  0  0  0  0  3  0  0  0  0  0  0
   38.5530   26.9660   35.8750 C   0  0  0  0  0  3  0  0  0  0  0  0
   37.1700   27.3560   34.7510 S   0  0  0  0  0  0  0  0  0  0  0  0
  1 10  1  0  0  0  0
  2  6  1  0  0  0  0
  2  1  1  0  0  0  0
  3  4  1  0  0  0  0
  3  2  2  0  0  0  0
  4  5  1  0  0  0  0
  5  1  2  0  0  0  0
  7  3  1  0  0  0  0
  8 14  1  0  0  0  0
  9  8  1  0  0  0  0
  9 15  1  0  0  0  0
 10  9  2  0  0  0  0
 11 12  2  0  0  0  0
 11 10  1  0  0  0  0
 12 13  1  0  0  0  0
 13  8  2  0  0  0  0
 16 12  1  0  0  0  0
 17  4  1  0  0  0  0
 17 19  1  0  0  0  0
 17 20  1  0  0  0  0
 18 17  1  0  0  0  0
 20 22  1  0  0  0  0
 20 23  1  0  0  0  0
 21 20  1  0  0  0  0
 23 24  2  0  0  0  0
 23 28  1  0  0  0  0
 24 26  1  0  0  0  0
 25 24  1  0  0  0  0
 26 27  2  0  0  0  0
 28 27  1  0  0  0  0
M  END
>  <minimizedAffinity>
-4.70099258

$$$$

 OpenBabel03272508353D

 28 30  0  0  0  0  0  0  0  0999 V2000
   38.0260   25.2590   35.0990 C   0  0  0  0  0  0  0  0  0  0  0  0
   37.4230   26.4750   35.2890 C   0  0  0  0  0  0  0  0  0  0  0  0
   37.0580   26.9920   34.0570 C   0  0  0  0  0  0  0  0  0  0  0  0
   37.4550   26.0630   33.1520 N   0  0  0  0  0  0  0  0  0  0  0  0
   38.0340   25.0270   33.7680 N   0  0  0  0  0  0  0  0  0  0  0  0
   37.2280   27.0090   36.2160 H   0  0  0  0  0  0  0  0  0  0  0  0
   36.5650   27.9310   33.8810 H   0  0  0  0  0  0  0  0  0  0  0  0
   38.4720   23.6750   38.4830 C   0  0  0  0  0  0  0  0  0  0  0  0
   37.9350   24.4670   37.4780 C   0  0  0  0  0  0  0  0  0  0  0  0
   38.5250   24.4600   36.2040 C   0  0  0  0  0  0  0  0  0  0  0  0
   39.6100   23.6600   36.0290 N   0  0  0  0  0  0  0  0  0  0  0  0
   40.1110   22.8950   37.0350 C   0  0  0  0  0  0  0  0  0  0  0  0
   39.5410   22.9100   38.2450 N   0  0  0  0  0  0  0  0  0  0  0  0
   37.9080   23.7930   39.3930 H   0  0  0  0  0  0  0  0  0  0  0  0
   37.0740   25.1240   37.5600 H   0  0  0  0  0  0  0  0  0  0  0  0
   40.9890   22.2570   36.8650 H   0  0  0  0  0  0  0  0  0  0  0  0
   37.2530   26.2210   31.7010 C   0  0  0  0  0  0  0  0  0  0  0  0
   38.1130   25.8400   31.1300 H   0  0  0  0  0  0  0  0  0  0  0  0
   37.0860   27.2910   31.4630 H   0  0  0  0  0  0  0  0  0  0  0  0
   36.0190   25.4540   31.2850 C   0  0  0  0  0  0  0  0  0  0  0  0
   35.2460   25.4820   32.0860 H   0  0  0  0  0  0  0  0  0  0  0  0
   35.6090   25.7580   30.3250 H   0  0  0  0  0  0  0  0  0  0  0  0
   36.4020   24.0280   31.1590 C   0  0  0  0  0  0  0  0  0  0  0  0
   35.5920   22.8990   31.5020 C   0  0  0  0  0  0  0  0  0  0  0  0
   34.6000   23.0790   31.8930 H   0  0  0  0  0  0  0  0  0  0  0  0
   36.1790   21.6750   31.2920 C   0  0  0  0  0  3  0  0  0  0  0  0
   37.4300   21.5990   30.7960 C   0  0  0  0  0  3  0  0  0  0  0  0
   37.9480   23.3310   30.5580 S   0  0  0  0  0  0  0  0  0  0  0  0
  1  2  1  0  0  0  0
  1 10  1  0  0  0  0
  2  6  1  0  0  0  0
  3  2  2  0  0  0  0
  4  5  1  0  0  0  0
  4  3  1  0  0  0  0
  5  1  2  0  0  0  0
  7  3  1  0  0  0  0
  8 14  1  0  0  0  0
  9 15  1  0  0  0  0
  9  8  2  0  0  0  0
 10  9  1  0  0  0  0
 11 10  2  0  0  0  0
 11 12  1  0  0  0  0
 12 13  2  0  0  0  0
 13  8  1  0  0  0  0
 16 12  1  0  0  0  0
 17  4  1  0  0  0  0
 18 17  1  0  0  0  0
 19 17  1  0  0  0  0
 20 17  1  0  0  0  0
 20 21  1  0  0  0  0
 22 20  1  0  0  0  0
 23 20  1  0  0  0  0
 23 24  2  0  0  0  0
 24 25  1  0  0  0  0
 26 24  1  0  0  0  0
 27 26  2  0  0  0  0
 28 27  1  0  0  0  0
 28 23  1  0  0  0  0
M  END
>  <minimizedAffinity>
-4.62627792

$$$$

 OpenBabel03272508353D

 28 30  0  0  0  0  0  0  0  0999 V2000
   37.9980   25.6080   35.2690 C   0  0  0  0  0  0  0  0  0  0  0  0
   37.8040   26.9180   35.6250 C   0  0  0  0  0  0  0  0  0  0  0  0
   37.2310   27.5930   34.5590 C   0  0  0  0  0  0  0  0  0  0  0  0
   37.0940   26.6600   33.5840 N   0  0  0  0  0  0  0  0  0  0  0  0
   37.5500   25.4750   34.0010 N   0  0  0  0  0  0  0  0  0  0  0  0
   38.0350   27.4170   36.5620 H   0  0  0  0  0  0  0  0  0  0  0  0
   36.9610   28.6330   34.5350 H   0  0  0  0  0  0  0  0  0  0  0  0
   38.6800   23.4250   38.2570 C   0  0  0  0  0  0  0  0  0  0  0  0
   38.0600   24.3680   37.4490 C   0  0  0  0  0  0  0  0  0  0  0  0
   38.5850   24.6380   36.1740 C   0  0  0  0  0  0  0  0  0  0  0  0
   39.6920   23.9430   35.8020 N   0  0  0  0  0  0  0  0  0  0  0  0
   40.2760   23.0250   36.6170 C   0  0  0  0  0  0  0  0  0  0  0  0
   39.7670   22.7770   37.8290 N   0  0  0  0  0  0  0  0  0  0  0  0
   38.1590   23.3360   39.1940 H   0  0  0  0  0  0  0  0  0  0  0  0
   37.1770   24.9520   37.6930 H   0  0  0  0  0  0  0  0  0  0  0  0
   41.1690   22.4780   36.2900 H   0  0  0  0  0  0  0  0  0  0  0  0
   36.5160   26.9640   32.2620 C   0  0  0  0  0  0  0  0  0  0  0  0
   35.7740   26.2080   31.9630 H   0  0  0  0  0  0  0  0  0  0  0  0
   37.3250   27.0200   31.5060 H   0  0  0  0  0  0  0  0  0  0  0  0
   35.8350   28.3120   32.3160 C   0  0  0  0  0  0  0  0  0  0  0  0
   34.7430   28.2140   32.1240 H   0  0  0  0  0  0  0  0  0  0  0  0
   36.0300   28.8730   33.2280 H   0  0  0  0  0  0  0  0  0  0  0  0
   36.3600   29.1220   31.1910 C   0  0  0  0  0  0  0  0  0  0  0  0
   36.2930   30.5470   31.0670 C   0  0  0  0  0  0  0  0  0  0  0  0
   35.8160   31.1080   31.8590 H   0  0  0  0  0  0  0  0  0  0  0  0
   36.8550   31.0590   29.9230 C   0  0  0  0  0  3  0  0  0  0  0  0
   37.4180   30.2360   29.0170 C   0  0  0  0  0  3  0  0  0  0  0  0
   37.2070   28.5610   29.7060 S   0  0  0  0  0  0  0  0  0  0  0  0
  1  2  1  0  0  0  0
  1 10  1  0  0  0  0
  2  6  1  0  0  0  0
  3  2  2  0  0  0  0
  4  5  1  0  0  0  0
  4  3  1  0  0  0  0
  5  1  2  0  0  0  0
  7  3  1  0  0  0  0
  8 14  1  0  0  0  0
  9 15  1  0  0  0  0
  9  8  2  0  0  0  0
 10  9  1  0  0  0  0
 11 10  2  0  0  0  0
 11 12  1  0  0  0  0
 12 13  2  0  0  0  0
 13  8  1  0  0  0  0
 16 12  1  0  0  0  0
 17 20  1  0  0  0  0
 17  4  1  0  0  0  0
 18 17  1  0  0  0  0
 19 17  1  0  0  0  0
 20 22  1  0  0  0  0
 21 20  1  0  0  0  0
 23 20  1  0  0  0  0
 24 23  2  0  0  0  0
 24 25  1  0  0  0  0
 26 24  1  0  0  0  0
 27 28  1  0  0  0  0
 27 26  2  0  0  0  0
 28 23  1  0  0  0  0
M  END
>  <minimizedAffinity>
-4.5637579

$$$$

 OpenBabel03272508353D

 28 30  0  0  0  0  0  0  0  0999 V2000
   37.8220   25.7060   34.7880 C   0  0  0  0  0  0  0  0  0  0  0  0
   38.1570   25.5270   33.4710 C   0  0  0  0  0  0  0  0  0  0  0  0
   37.5830   26.5400   32.7200 C   0  0  0  0  0  0  0  0  0  0  0  0
   36.9140   27.3080   33.6160 N   0  0  0  0  0  0  0  0  0  0  0  0
   37.0520   26.8150   34.8510 N   0  0  0  0  0  0  0  0  0  0  0  0
   38.7630   24.7490   33.0150 H   0  0  0  0  0  0  0  0  0  0  0  0
   37.6660   26.6700   31.6560 H   0  0  0  0  0  0  0  0  0  0  0  0
   39.6640   23.0290   36.6850 C   0  0  0  0  0  0  0  0  0  0  0  0
   39.2900   23.8570   35.6350 C   0  0  0  0  0  0  0  0  0  0  0  0
   38.2710   24.8040   35.8320 C   0  0  0  0  0  0  0  0  0  0  0  0
   37.7010   24.8520   37.0650 N   0  0  0  0  0  0  0  0  0  0  0  0
   38.0900   24.0250   38.0720 C   0  0  0  0  0  0  0  0  0  0  0  0
   39.0620   23.1270   37.8730 N   0  0  0  0  0  0  0  0  0  0  0  0
   40.4520   22.3650   36.3730 H   0  0  0  0  0  0  0  0  0  0  0  0
   39.7090   23.8630   34.6330 H   0  0  0  0  0  0  0  0  0  0  0  0
   37.6120   24.0860   39.0580 H   0  0  0  0  0  0  0  0  0  0  0  0
   36.1530   28.5100   33.2300 C   0  0  0  0  0  0  0  0  0  0  0  0
   35.4420   28.2940   32.4190 H   0  0  0  0  0  0  0  0  0  0  0  0
   36.8550   29.3090   32.9150 H   0  0  0  0  0  0  0  0  0  0  0  0
   35.3810   29.0150   34.4270 C   0  0  0  0  0  0  0  0  0  0  0  0
   34.2840   28.9280   34.2570 H   0  0  0  0  0  0  0  0  0  0  0  0
   35.6740   28.5600   35.3700 H   0  0  0  0  0  0  0  0  0  0  0  0
   35.6450   30.4680   34.5480 C   0  0  0  0  0  0  0  0  0  0  0  0
   36.0000   31.1690   35.7440 C   0  0  0  0  0  0  0  0  0  0  0  0
   36.0900   30.6050   36.6620 H   0  0  0  0  0  0  0  0  0  0  0  0
   36.1930   32.5210   35.5920 C   0  0  0  0  0  3  0  0  0  0  0  0
   36.0460   33.0950   34.3810 C   0  0  0  0  0  3  0  0  0  0  0  0
   35.5960   31.7260   33.2630 S   0  0  0  0  0  0  0  0  0  0  0  0
  1  5  2  0  0  0  0
  1 10  1  0  0  0  0
  2  1  1  0  0  0  0
  3  2  2  0  0  0  0
  3  4  1  0  0  0  0
  4  5  1  0  0  0  0
  6  2  1  0  0  0  0
  7  3  1  0  0  0  0
  8 13  1  0  0  0  0
  9 10  1  0  0  0  0
  9  8  2  0  0  0  0
 10 11  2  0  0  0  0
 11 12  1  0  0  0  0
 12 16  1  0  0  0  0
 13 12  2  0  0  0  0
 14  8  1  0  0  0  0
 15  9  1  0  0  0  0
 17  4  1  0  0  0  0
 17 20  1  0  0  0  0
 18 17  1  0  0  0  0
 19 17  1  0  0  0  0
 20 23  1  0  0  0  0
 20 22  1  0  0  0  0
 21 20  1  0  0  0  0
 23 24  2  0  0  0  0
 24 25  1  0  0  0  0
 26 24  1  0  0  0  0
 27 26  2  0  0  0  0
 28 27  1  0  0  0  0
 28 23  1  0  0  0  0
M  END
>  <minimizedAffinity>
-4.51637745

$$$$

 OpenBabel03272508353D

 28 30  0  0  0  0  0  0  0  0999 V2000
   35.7090   29.3520   34.1260 C   0  0  0  0  0  0  0  0  0  0  0  0
   35.5680   29.4140   32.7640 C   0  0  0  0  0  0  0  0  0  0  0  0
   36.2390   28.3430   32.1950 C   0  0  0  0  0  0  0  0  0  0  0  0
   36.7690   27.6620   33.2420 N   0  0  0  0  0  0  0  0  0  0  0  0
   36.4560   28.2590   34.3960 N   0  0  0  0  0  0  0  0  0  0  0  0
   35.0380   30.1440   32.1600 H   0  0  0  0  0  0  0  0  0  0  0  0
   36.3100   28.1210   31.1460 H   0  0  0  0  0  0  0  0  0  0  0  0
   35.2410   32.1870   36.5560 C   0  0  0  0  0  0  0  0  0  0  0  0
   35.8810   31.2750   35.7290 C   0  0  0  0  0  0  0  0  0  0  0  0
   35.1180   30.3390   35.0120 C   0  0  0  0  0  0  0  0  0  0  0  0
   33.7700   30.3840   35.1760 N   0  0  0  0  0  0  0  0  0  0  0  0
   33.1730   31.2900   35.9950 C   0  0  0  0  0  0  0  0  0  0  0  0
   33.9100   32.1770   36.6730 N   0  0  0  0  0  0  0  0  0  0  0  0
   35.9610   32.8310   37.0300 H   0  0  0  0  0  0  0  0  0  0  0  0
   36.9510   31.1930   35.5600 H   0  0  0  0  0  0  0  0  0  0  0  0
   32.0810   31.3040   36.1090 H   0  0  0  0  0  0  0  0  0  0  0  0
   37.5720   26.4370   33.0750 C   0  0  0  0  0  0  0  0  0  0  0  0
   38.0170   26.3800   32.0710 H   0  0  0  0  0  0  0  0  0  0  0  0
   36.9360   25.5480   33.2590 H   0  0  0  0  0  0  0  0  0  0  0  0
   38.6860   26.4310   34.0970 C   0  0  0  0  0  0  0  0  0  0  0  0
   39.6620   26.1910   33.6180 H   0  0  0  0  0  0  0  0  0  0  0  0
   38.7470   27.3380   34.6930 H   0  0  0  0  0  0  0  0  0  0  0  0
   38.4240   25.3130   35.0350 C   0  0  0  0  0  0  0  0  0  0  0  0
   38.1520   25.4280   36.4360 C   0  0  0  0  0  0  0  0  0  0  0  0
   38.1300   26.4160   36.8750 H   0  0  0  0  0  0  0  0  0  0  0  0
   37.9420   24.2370   37.0880 C   0  0  0  0  0  3  0  0  0  0  0  0
   37.9990   23.0730   36.4100 C   0  0  0  0  0  3  0  0  0  0  0  0
   38.3740   23.5490   34.6890 S   0  0  0  0  0  0  0  0  0  0  0  0
  1  5  2  0  0  0  0
  1 10  1  0  0  0  0
  2  1  1  0  0  0  0
  3  2  2  0  0  0  0
  3  4  1  0  0  0  0
  4  5  1  0  0  0  0
  6  2  1  0  0  0  0
  7  3  1  0  0  0  0
  8 13  1  0  0  0  0
  8 14  1  0  0  0  0
  9  8  2  0  0  0  0
 10 11  2  0  0  0  0
 10  9  1  0  0  0  0
 11 12  1  0  0  0  0
 12 16  1  0  0  0  0
 12 13  2  0  0  0  0
 15  9  1  0  0  0  0
 17  4  1  0  0  0  0
 17 19  1  0  0  0  0
 17 20  1  0  0  0  0
 18 17  1  0  0  0  0
 20 22  1  0  0  0  0
 20 23  1  0  0  0  0
 21 20  1  0  0  0  0
 23 24  2  0  0  0  0
 24 25  1  0  0  0  0
 24 26  1  0  0  0  0
 27 26  2  0  0  0  0
 28 23  1  0  0  0  0
 28 27  1  0  0  0  0
M  END
>  <minimizedAffinity>
-4.43470716

$$$$

 OpenBabel03272508353D

 28 30  0  0  0  0  0  0  0  0999 V2000
   38.0500   25.7450   35.4350 C   0  0  0  0  0  0  0  0  0  0  0  0
   38.0410   27.0680   35.7940 C   0  0  0  0  0  0  0  0  0  0  0  0
   37.4340   27.8020   34.7880 C   0  0  0  0  0  0  0  0  0  0  0  0
   37.0910   26.8900   33.8440 N   0  0  0  0  0  0  0  0  0  0  0  0
   37.4570   25.6620   34.2250 N   0  0  0  0  0  0  0  0  0  0  0  0
   38.4240   27.5390   36.6950 H   0  0  0  0  0  0  0  0  0  0  0  0
   37.2780   28.8650   34.7800 H   0  0  0  0  0  0  0  0  0  0  0  0
   38.6980   23.3870   38.2950 C   0  0  0  0  0  0  0  0  0  0  0  0
   38.0930   24.3840   37.5420 C   0  0  0  0  0  0  0  0  0  0  0  0
   38.6220   24.7160   36.2840 C   0  0  0  0  0  0  0  0  0  0  0  0
   39.7180   24.0260   35.8720 N   0  0  0  0  0  0  0  0  0  0  0  0
   40.2870   23.0540   36.6350 C   0  0  0  0  0  0  0  0  0  0  0  0
   39.7740   22.7460   37.8310 N   0  0  0  0  0  0  0  0  0  0  0  0
   38.1750   23.2540   39.2270 H   0  0  0  0  0  0  0  0  0  0  0  0
   37.2190   24.9660   37.8200 H   0  0  0  0  0  0  0  0  0  0  0  0
   41.1720   22.5120   36.2760 H   0  0  0  0  0  0  0  0  0  0  0  0
   36.4110   27.2550   32.5880 C   0  0  0  0  0  0  0  0  0  0  0  0
   35.3190   27.1590   32.6780 H   0  0  0  0  0  0  0  0  0  0  0  0
   36.7800   26.6120   31.7640 H   0  0  0  0  0  0  0  0  0  0  0  0
   36.7420   28.6880   32.2430 C   0  0  0  0  0  0  0  0  0  0  0  0
   37.3080   29.1750   33.0700 H   0  0  0  0  0  0  0  0  0  0  0  0
   37.2490   28.8110   31.2890 H   0  0  0  0  0  0  0  0  0  0  0  0
   35.4630   29.4320   32.1520 C   0  0  0  0  0  0  0  0  0  0  0  0
   34.2490   29.1200   32.8430 C   0  0  0  0  0  0  0  0  0  0  0  0
   34.2400   28.2620   33.5010 H   0  0  0  0  0  0  0  0  0  0  0  0
   33.1990   29.9680   32.5870 C   0  0  0  0  0  3  0  0  0  0  0  0
   33.3540   31.0040   31.7390 C   0  0  0  0  0  3  0  0  0  0  0  0
   35.0860   30.8960   31.1760 S   0  0  0  0  0  0  0  0  0  0  0  0
  1  2  1  0  0  0  0
  1 10  1  0  0  0  0
  2  6  1  0  0  0  0
  3  2  2  0  0  0  0
  4  5  1  0  0  0  0
  4  3  1  0  0  0  0
  5  1  2  0  0  0  0
  7  3  1  0  0  0  0
  8 14  1  0  0  0  0
  9 15  1  0  0  0  0
  9  8  2  0  0  0  0
 10  9  1  0  0  0  0
 11 10  2  0  0  0  0
 11 12  1  0  0  0  0
 12 13  2  0  0  0  0
 13  8  1  0  0  0  0
 16 12  1  0  0  0  0
 17 18  1  0  0  0  0
 17  4  1  0  0  0  0
 19 17  1  0  0  0  0
 20 17  1  0  0  0  0
 20 21  1  0  0  0  0
 22 20  1  0  0  0  0
 23 20  1  0  0  0  0
 23 24  2  0  0  0  0
 24 25  1  0  0  0  0
 26 24  1  0  0  0  0
 27 26  2  0  0  0  0
 28 27  1  0  0  0  0
 28 23  1  0  0  0  0
M  END
>  <minimizedAffinity>
-4.41708374

$$$$

 OpenBabel03272508353D

 28 30  0  0  0  0  0  0  0  0999 V2000
   37.8730   25.5740   35.0350 C   0  0  0  0  0  0  0  0  0  0  0  0
   37.6310   26.8880   35.3430 C   0  0  0  0  0  0  0  0  0  0  0  0
   37.0600   27.5080   34.2440 C   0  0  0  0  0  0  0  0  0  0  0  0
   36.9720   26.5390   33.2980 N   0  0  0  0  0  0  0  0  0  0  0  0
   37.4560   25.3840   33.7640 N   0  0  0  0  0  0  0  0  0  0  0  0
   37.8270   27.4260   36.2670 H   0  0  0  0  0  0  0  0  0  0  0  0
   36.7570   28.5370   34.1780 H   0  0  0  0  0  0  0  0  0  0  0  0
   40.1260   23.0310   36.6540 C   0  0  0  0  0  0  0  0  0  0  0  0
   39.6140   23.8900   35.6910 C   0  0  0  0  0  0  0  0  0  0  0  0
   38.4720   24.6540   35.9850 C   0  0  0  0  0  0  0  0  0  0  0  0
   37.9270   24.5010   37.2200 N   0  0  0  0  0  0  0  0  0  0  0  0
   38.4530   23.6500   38.1410 C   0  0  0  0  0  0  0  0  0  0  0  0
   39.5410   22.9280   37.8500 N   0  0  0  0  0  0  0  0  0  0  0  0
   40.9960   22.5230   36.2740 H   0  0  0  0  0  0  0  0  0  0  0  0
   40.0060   24.0520   34.6910 H   0  0  0  0  0  0  0  0  0  0  0  0
   37.9920   23.5470   39.1320 H   0  0  0  0  0  0  0  0  0  0  0  0
   36.4120   26.7800   31.9550 C   0  0  0  0  0  0  0  0  0  0  0  0
   35.7660   27.6700   31.9410 H   0  0  0  0  0  0  0  0  0  0  0  0
   35.8380   25.8900   31.6270 H   0  0  0  0  0  0  0  0  0  0  0  0
   37.5440   26.9900   30.9760 C   0  0  0  0  0  0  0  0  0  0  0  0
   38.5260   27.0100   31.5030 H   0  0  0  0  0  0  0  0  0  0  0  0
   37.5520   26.2860   30.1470 H   0  0  0  0  0  0  0  0  0  0  0  0
   37.3850   28.3430   30.3940 C   0  0  0  0  0  0  0  0  0  0  0  0
   36.7950   29.4790   31.0350 C   0  0  0  0  0  0  0  0  0  0  0  0
   36.4220   29.3620   32.0440 H   0  0  0  0  0  0  0  0  0  0  0  0
   36.7650   30.6260   30.2790 C   0  0  0  0  0  3  0  0  0  0  0  0
   37.2700   30.6270   29.0290 C   0  0  0  0  0  3  0  0  0  0  0  0
   37.8730   28.9260   28.7630 S   0  0  0  0  0  0  0  0  0  0  0  0
  1  2  1  0  0  0  0
  1 10  1  0  0  0  0
  2  6  1  0  0  0  0
  3  2  2  0  0  0  0
  4  5  1  0  0  0  0
  4  3  1  0  0  0  0
  5  1  2  0  0  0  0
  7  3  1  0  0  0  0
  8 13  1  0  0  0  0
  9 10  1  0  0  0  0
  9  8  2  0  0  0  0
 10 11  2  0  0  0  0
 11 12  1  0  0  0  0
 12 16  1  0  0  0  0
 13 12  2  0  0  0  0
 14  8  1  0  0  0  0
 15  9  1  0  0  0  0
 17  4  1  0  0  0  0
 18 17  1  0  0  0  0
 19 17  1  0  0  0  0
 20 21  1  0  0  0  0
 20 17  1  0  0  0  0
 22 20  1  0  0  0  0
 23 20  1  0  0  0  0
 23 24  2  0  0  0  0
 24 25  1  0  0  0  0
 26 24  1  0  0  0  0
 27 26  2  0  0  0  0
 28 27  1  0  0  0  0
 28 23  1  0  0  0  0
M  END
>  <minimizedAffinity>
-4.4062047

$$$$

 OpenBabel03272508353D

 28 30  0  0  0  0  0  0  0  0999 V2000
   36.0040   27.3260   31.4710 C   0  0  0  0  0  0  0  0  0  0  0  0
   36.6580   28.0220   30.4870 C   0  0  0  0  0  0  0  0  0  0  0  0
   36.2950   29.3570   30.5650 C   0  0  0  0  0  0  0  0  0  0  0  0
   35.4260   29.4260   31.6050 N   0  0  0  0  0  0  0  0  0  0  0  0
   35.2490   28.2180   32.1490 N   0  0  0  0  0  0  0  0  0  0  0  0
   37.3550   27.6600   29.7360 H   0  0  0  0  0  0  0  0  0  0  0  0
   36.6420   30.1500   29.9280 H   0  0  0  0  0  0  0  0  0  0  0  0
   35.5530   23.5950   31.2840 C   0  0  0  0  0  0  0  0  0  0  0  0
   35.3250   24.9460   31.0620 C   0  0  0  0  0  0  0  0  0  0  0  0
   36.1740   25.8960   31.6520 C   0  0  0  0  0  0  0  0  0  0  0  0
   37.1900   25.4240   32.4220 N   0  0  0  0  0  0  0  0  0  0  0  0
   37.3860   24.0930   32.6200 C   0  0  0  0  0  0  0  0  0  0  0  0
   36.5710   23.1970   32.0520 N   0  0  0  0  0  0  0  0  0  0  0  0
   34.8190   23.0030   30.7640 H   0  0  0  0  0  0  0  0  0  0  0  0
   34.5320   25.3800   30.4590 H   0  0  0  0  0  0  0  0  0  0  0  0
   38.2150   23.7400   33.2470 H   0  0  0  0  0  0  0  0  0  0  0  0
   34.7920   30.6860   32.0350 C   0  0  0  0  0  0  0  0  0  0  0  0
   33.8900   30.4990   32.6350 H   0  0  0  0  0  0  0  0  0  0  0  0
   34.5360   31.2960   31.1460 H   0  0  0  0  0  0  0  0  0  0  0  0
   35.7730   31.4740   32.8720 C   0  0  0  0  0  0  0  0  0  0  0  0
   36.7380   30.9270   32.9740 H   0  0  0  0  0  0  0  0  0  0  0  0
   35.9290   32.4950   32.5320 H   0  0  0  0  0  0  0  0  0  0  0  0
   35.2230   31.5560   34.2460 C   0  0  0  0  0  0  0  0  0  0  0  0
   35.9570   31.8550   35.4380 C   0  0  0  0  0  0  0  0  0  0  0  0
   37.0180   32.0420   35.3530 H   0  0  0  0  0  0  0  0  0  0  0  0
   35.2120   31.8700   36.5930 C   0  0  0  0  0  3  0  0  0  0  0  0
   33.8890   31.6160   36.5500 C   0  0  0  0  0  3  0  0  0  0  0  0
   33.5250   31.3100   34.7890 S   0  0  0  0  0  0  0  0  0  0  0  0
  1 10  1  0  0  0  0
  1  5  2  0  0  0  0
  2  3  2  0  0  0  0
  2  1  1  0  0  0  0
  3  4  1  0  0  0  0
  4 17  1  0  0  0  0
  4  5  1  0  0  0  0
  6  2  1  0  0  0  0
  7  3  1  0  0  0  0
  8 13  1  0  0  0  0
  9  8  2  0  0  0  0
  9 10  1  0  0  0  0
 10 11  2  0  0  0  0
 11 12  1  0  0  0  0
 12 16  1  0  0  0  0
 13 12  2  0  0  0  0
 14  8  1  0  0  0  0
 15  9  1  0  0  0  0
 17 18  1  0  0  0  0
 17 20  1  0  0  0  0
 19 17  1  0  0  0  0
 20 21  1  0  0  0  0
 20 23  1  0  0  0  0
 22 20  1  0  0  0  0
 23 28  1  0  0  0  0
 23 24  2  0  0  0  0
 24 26  1  0  0  0  0
 25 24  1  0  0  0  0
 27 26  2  0  0  0  0
 28 27  1  0  0  0  0
M  END
>  <minimizedAffinity>
-4.40457773

$$$$
