
 OpenBabel03272510263D

 42 46  0  0  1  0  0  0  0  0999 V2000
   35.9980   30.2540   46.9100 C   0  0  0  0  0  0  0  0  0  0  0  0
   37.0390   30.4550   47.7830 C   0  0  0  0  0  0  0  0  0  0  0  0
   38.2760   30.9520   47.3400 C   0  0  0  0  0  0  0  0  0  0  0  0
   38.3680   31.2220   45.9730 C   0  0  0  0  0  0  0  0  0  0  0  0
   39.4610   31.7130   45.2990 N   0  0  0  0  0  0  0  0  0  0  0  0
   39.0890   31.8140   44.0130 C   0  0  0  0  0  0  0  0  0  0  0  0
   37.8410   31.4110   43.8800 N   0  0  0  0  0  0  0  0  0  0  0  0
   37.3560   31.0350   45.0740 C   0  0  0  0  0  0  0  0  0  0  0  0
   36.1420   30.5370   45.5630 C   0  0  0  0  0  0  0  0  0  0  0  0
   35.0390   29.8690   47.2470 H   0  0  0  0  0  0  0  0  0  0  0  0
   39.1150   31.1210   48.0040 H   0  0  0  0  0  0  0  0  0  0  0  0
   40.3920   31.9570   45.7120 H   0  0  0  0  0  0  0  0  0  0  0  0
   35.3330   30.3860   44.8560 H   0  0  0  0  0  0  0  0  0  0  0  0
   37.4010   30.0470   51.5110 C   0  0  0  0  0  0  0  0  0  0  0  0
   37.7460   30.4070   50.2090 C   0  0  0  0  0  0  0  0  0  0  0  0
   36.8630   30.1550   49.1930 C   0  0  0  0  0  0  0  0  0  0  0  0
   35.6700   29.5510   49.5330 N   0  0  0  0  0  0  0  0  0  0  0  0
   35.3440   29.2060   50.7950 C   0  0  0  0  0  0  0  0  0  0  0  0
   36.1980   29.4530   51.7620 N   0  0  0  0  0  0  0  0  0  0  0  0
   38.1250   30.2620   52.2890 H   0  0  0  0  0  0  0  0  0  0  0  0
   38.6760   30.8800   49.9260 H   0  0  0  0  0  0  0  0  0  0  0  0
   34.3790   28.7370   50.9510 H   0  0  0  0  0  0  0  0  0  0  0  0
   39.9500   32.2840   43.0200 O   0  0  0  0  0  0  0  0  0  0  0  0
   39.4770   30.3980   41.7800 N   0  0  0  0  0  0  0  0  0  0  0  0
   39.6700   31.8370   41.7040 C   0  0  1  0  0  0  0  0  0  0  0  0
   38.4780   32.4830   41.1780 C   0  0  0  0  0  0  0  0  0  0  0  0
   38.2540   32.0330   39.8670 O   0  0  0  0  0  0  0  0  0  0  0  0
   38.1760   30.6770   39.7250 C   0  0  0  0  0  0  0  0  0  0  0  0
   39.3160   29.9670   40.4000 C   0  0  1  0  0  0  0  0  0  0  0  0
   38.6660   30.0510   42.2630 H   0  0  0  0  0  0  0  0  0  0  0  0
   40.5290   31.9780   41.0260 H   0  0  0  0  0  0  0  0  0  0  0  0
   37.5180   32.4540   41.6170 H   0  0  0  0  0  0  0  0  0  0  0  0
   38.7290   33.5800   41.0330 H   0  0  0  0  0  0  0  0  0  0  0  0
   37.2450   30.2760   40.1710 H   0  0  0  0  0  0  0  0  0  0  0  0
   38.2340   30.4600   38.6390 H   0  0  0  0  0  0  0  0  0  0  0  0
   39.0800   28.8820   40.3390 H   0  0  0  0  0  0  0  0  0  0  0  0
   40.5570   30.3130   39.6790 C   0  0  0  0  0  0  0  0  0  0  0  0
   41.8320   30.1490   40.0190 C   0  0  0  0  0  0  0  0  0  0  0  0
   42.0600   29.6840   40.9860 H   0  0  0  0  0  0  0  0  0  0  0  0
   42.8600   30.5410   39.2000 C   0  0  0  0  0  3  0  0  0  0  0  0
   42.4150   31.1350   37.9640 C   0  0  0  0  0  3  0  0  0  0  0  0
   40.6140   31.0900   38.0600 S   0  0  0  0  0  0  0  0  0  0  0  0
  1 10  1  0  0  0  0
  1  2  1  0  0  0  0
  2 16  1  0  0  0  0
  3  2  2  0  0  0  0
  3 11  1  0  0  0  0
  4  3  1  0  0  0  0
  5 12  1  0  0  0  0
  5  4  1  0  0  0  0
  6  5  1  0  0  0  0
  7  6  2  0  0  0  0
  7  8  1  0  0  0  0
  8  9  1  0  0  0  0
  8  4  2  0  0  0  0
  9  1  2  0  0  0  0
 13  9  1  0  0  0  0
 14 19  1  0  0  0  0
 14 20  1  0  0  0  0
 15 14  2  0  0  0  0
 16 17  2  0  0  0  0
 16 15  1  0  0  0  0
 17 18  1  0  0  0  0
 18 22  1  0  0  0  0
 18 19  2  0  0  0  0
 21 15  1  0  0  0  0
 23  6  1  0  0  0  0
 24 30  1  0  0  0  0
 25 31  1  6  0  0  0
 25 24  1  0  0  0  0
 25 23  1  0  0  0  0
 26 32  1  0  0  0  0
 26 25  1  0  0  0  0
 27 26  1  0  0  0  0
 28 27  1  0  0  0  0
 28 34  1  0  0  0  0
 28 29  1  0  0  0  0
 29 36  1  6  0  0  0
 29 24  1  0  0  0  0
 33 26  1  0  0  0  0
 35 28  1  0  0  0  0
 37 38  2  0  0  0  0
 37 29  1  0  0  0  0
 38 39  1  0  0  0  0
 40 38  1  0  0  0  0
 41 42  1  0  0  0  0
 41 40  2  0  0  0  0
 42 37  1  0  0  0  0
M  END
>  <minimizedAffinity>
-5.6154542

>  <minimizedRMSD>
1.47049224

$$$$
