
 OpenBabel03272508273D

 35 38  0  0  1  0  0  0  0  0999 V2000
   33.8130   28.8350   47.2740 C   0  0  2  0  0  0  0  0  0  0  0  0
   34.5460   28.1070   48.3880 C   0  0  2  0  0  0  0  0  0  0  0  0
   33.6230   27.9600   49.3900 O   0  0  0  0  0  0  0  0  0  0  0  0
   32.3630   28.0160   48.8890 C   0  0  0  0  0  0  0  0  0  0  0  0
   32.4550   28.1550   47.3990 C   0  0  1  0  0  0  0  0  0  0  0  0
   33.6810   29.9040   47.4550 H   0  0  0  0  0  0  0  0  0  0  0  0
   34.8570   27.1180   48.0000 H   0  0  0  0  0  0  0  0  0  0  0  0
   31.8890   28.9550   49.2930 H   0  0  0  0  0  0  0  0  0  0  0  0
   31.6990   27.1840   49.1990 H   0  0  0  0  0  0  0  0  0  0  0  0
   32.4860   27.1560   46.8820 H   0  0  0  0  0  0  0  0  0  0  0  0
   35.6140   30.3640   49.0430 C   0  0  1  0  0  0  0  0  0  0  0  0
   35.7060   28.9350   48.8270 C   0  0  1  0  0  0  0  0  0  0  0  0
   35.8520   29.4240   50.2310 C   0  0  0  0  0  0  0  0  0  0  0  0
   34.6860   30.9520   49.2270 H   0  0  0  0  0  0  0  0  0  0  0  0
   36.6810   28.5950   48.3620 H   0  0  0  0  0  0  0  0  0  0  0  0
   36.8250   29.4400   50.7190 H   0  0  0  0  0  0  0  0  0  0  0  0
   35.0040   29.1890   50.9070 H   0  0  0  0  0  0  0  0  0  0  0  0
   36.7820   31.2780   48.7890 C   0  0  0  0  0  0  0  0  0  0  0  0
   37.0470   32.2830   49.7200 C   0  0  0  0  0  0  0  0  0  0  0  0
   38.1080   33.1110   49.4400 C   0  0  0  0  0  0  0  0  0  0  0  0
   38.8500   32.9390   48.2980 N   0  0  0  0  0  0  0  0  0  0  0  0
   38.5610   31.9470   47.4140 C   0  0  0  0  0  0  0  0  0  0  0  0
   37.5220   31.1090   47.6540 N   0  0  0  0  0  0  0  0  0  0  0  0
   36.4700   32.4300   50.6180 H   0  0  0  0  0  0  0  0  0  0  0  0
   38.3920   33.9280   50.1170 H   0  0  0  0  0  0  0  0  0  0  0  0
   39.1320   31.7810   46.4960 H   0  0  0  0  0  0  0  0  0  0  0  0
   34.3650   28.6160   46.0250 O   0  0  0  0  0  0  0  0  0  0  0  0
   34.9290   27.7770   46.0570 H   0  0  0  0  0  0  0  0  0  0  0  0
   31.4460   28.9260   46.8530 O   0  0  0  0  0  0  0  0  0  0  0  0
   30.0360   28.4480   47.5440 C   0  0  0  0  0  0  0  0  0  0  0  0
   29.8440   27.4570   46.3900 C   0  0  0  0  0  0  0  0  0  0  0  0
   30.2670   27.0560   45.4380 H   0  0  0  0  0  0  0  0  0  0  0  0
   28.7440   26.6680   46.3720 C   0  0  0  0  0  3  0  0  0  0  0  0
   27.7890   26.7940   47.4500 C   0  0  0  0  0  3  0  0  0  0  0  0
   28.5980   28.1550   48.5160 S   0  0  0  0  0  0  0  0  0  0  0  0
  1  5  1  0  0  0  0
  1  6  1  1  0  0  0
  1  2  1  0  0  0  0
  2  7  1  6  0  0  0
  2 12  1  0  0  0  0
  2  3  1  0  0  0  0
  4  9  1  0  0  0  0
  4  8  1  0  0  0  0
  4  3  1  0  0  0  0
  5 10  1  6  0  0  0
  5  4  1  0  0  0  0
 11 14  1  6  0  0  0
 11 13  1  0  0  0  0
 12 15  1  6  0  0  0
 12 11  1  0  0  0  0
 12 13  1  0  0  0  0
 13 16  1  0  0  0  0
 13 17  1  0  0  0  0
 18 11  1  0  0  0  0
 18 19  1  0  0  0  0
 19 24  1  0  0  0  0
 20 19  2  0  0  0  0
 20 25  1  0  0  0  0
 21 20  1  0  0  0  0
 22 23  1  0  0  0  0
 22 21  2  0  0  0  0
 23 18  2  0  0  0  0
 26 22  1  0  0  0  0
 27 28  1  0  0  0  0
 27  1  1  0  0  0  0
 29  5  1  0  0  0  0
 29 30  1  0  0  0  0
 30 35  1  0  0  0  0
 31 30  2  0  0  0  0
 32 31  1  0  0  0  0
 33 31  1  0  0  0  0
 33 34  2  0  0  0  0
 34 35  1  0  0  0  0
M  END
>  <minimizedAffinity>
-5.21563625

>  <minimizedRMSD>
1.99310136

$$$$
