
 OpenBabel03272509413D

 32 34  0  0  1  0  0  0  0  0999 V2000
   36.6400   28.5420   32.4120 C   0  0  0  0  0  0  0  0  0  0  0  0
   36.1620   29.6100   31.6270 C   0  0  0  0  0  0  0  0  0  0  0  0
   35.4460   30.6680   32.1710 C   0  0  0  0  0  0  0  0  0  0  0  0
   35.1800   30.6930   33.5330 C   0  0  0  0  0  0  0  0  0  0  0  0
   35.6540   29.6410   34.2850 C   0  0  0  0  0  0  0  0  0  0  0  0
   36.3610   28.6040   33.7290 C   0  0  0  0  0  0  0  0  0  0  0  0
   36.3450   29.6370   30.5560 H   0  0  0  0  0  0  0  0  0  0  0  0
   35.1070   31.4580   31.5140 H   0  0  0  0  0  0  0  0  0  0  0  0
   34.6180   31.5310   33.9290 H   0  0  0  0  0  0  0  0  0  0  0  0
   35.4060   29.7310   35.3440 H   0  0  0  0  0  0  0  0  0  0  0  0
   37.3770   27.4840   31.7560 C   0  0  1  0  0  3  0  0  0  0  0  0
   38.5670   27.8180   31.3990 O   0  0  0  0  0  1  0  0  0  0  0  0
   34.9480   24.9070   31.0140 C   0  0  0  0  0  0  0  0  0  0  0  0
   35.6980   23.7310   30.9950 C   0  0  0  0  0  0  0  0  0  0  0  0
   37.0450   23.8280   31.2400 C   0  0  0  0  0  0  0  0  0  0  0  0
   37.5990   25.0380   31.4870 N   0  0  0  0  0  0  0  0  0  0  0  0
   36.8660   26.1420   31.5000 C   0  0  0  0  0  0  0  0  0  0  0  0
   35.5510   26.0610   31.2630 N   0  0  0  0  0  0  0  0  0  0  0  0
   33.8710   24.9020   30.8270 H   0  0  0  0  0  0  0  0  0  0  0  0
   35.1070   22.8430   30.7820 H   0  0  0  0  0  0  0  0  0  0  0  0
   37.5870   22.9070   31.2170 H   0  0  0  0  0  0  0  0  0  0  0  0
   36.7800   27.5910   34.6630 C   0  0  0  0  0  3  0  0  0  0  0  0
   37.8960   27.5740   35.3900 C   0  0  0  0  0  3  0  0  0  0  0  0
   38.4340   26.6230   36.3590 C   0  0  0  0  0  0  0  0  0  0  0  0
   37.9370   26.7800   37.3600 H   0  0  0  0  0  0  0  0  0  0  0  0
   39.5090   26.8790   36.5720 H   0  0  0  0  0  0  0  0  0  0  0  0
   38.3290   25.2460   36.0180 C   0  0  0  0  0  0  0  0  0  0  0  0
   38.6680   24.5630   34.8460 C   0  0  0  0  0  0  0  0  0  0  0  0
   39.0850   25.1330   34.0330 H   0  0  0  0  0  0  0  0  0  0  0  0
   38.4710   23.2130   34.7510 C   0  0  0  0  0  3  0  0  0  0  0  0
   37.8940   22.5530   35.9350 C   0  0  0  0  0  3  0  0  0  0  0  0
   37.6980   24.0400   37.0990 S   0  0  0  0  0  0  0  0  0  0  0  0
  1  6  1  0  0  0  0
  2  3  1  0  0  0  0
  2  1  2  0  0  0  0
  3  4  2  0  0  0  0
  4  9  1  0  0  0  0
  4  5  1  0  0  0  0
  5 10  1  0  0  0  0
  6  5  2  0  0  0  0
  6 22  1  0  0  0  0
  7  2  1  0  0  0  0
  8  3  1  0  0  0  0
 11 12  1  1  0  0  0
 11  1  1  0  0  0  0
 13 18  1  0  0  0  0
 14 13  2  0  0  0  0
 14 15  1  0  0  0  0
 15 16  2  0  0  0  0
 16 17  1  0  0  0  0
 17 11  1  0  0  0  0
 18 17  2  0  0  0  0
 19 13  1  0  0  0  0
 20 14  1  0  0  0  0
 21 15  1  0  0  0  0
 22 23  2  0  0  0  0
 23 24  1  0  0  0  0
 24 26  1  0  0  0  0
 24 25  1  0  0  0  0
 27 24  1  0  0  0  0
 27 32  1  0  0  0  0
 28 27  2  0  0  0  0
 29 28  1  0  0  0  0
 30 28  1  0  0  0  0
 30 31  2  0  0  0  0
 31 32  1  0  0  0  0
M  END
>  <minimizedAffinity>
-5.54072666

$$$$

 OpenBabel03272509413D

 32 34  0  0  1  0  0  0  0  0999 V2000
   36.1830   28.9220   32.1770 C   0  0  0  0  0  0  0  0  0  0  0  0
   36.2510   29.2500   30.8080 C   0  0  0  0  0  0  0  0  0  0  0  0
   37.1300   28.6210   29.9370 C   0  0  0  0  0  0  0  0  0  0  0  0
   37.9800   27.6310   30.4120 C   0  0  0  0  0  0  0  0  0  0  0  0
   37.9010   27.3240   31.7520 C   0  0  0  0  0  0  0  0  0  0  0  0
   37.0250   27.9580   32.5980 C   0  0  0  0  0  0  0  0  0  0  0  0
   35.6050   30.0170   30.3880 H   0  0  0  0  0  0  0  0  0  0  0  0
   37.1320   28.9170   28.8970 H   0  0  0  0  0  0  0  0  0  0  0  0
   38.6560   27.1570   29.7090 H   0  0  0  0  0  0  0  0  0  0  0  0
   38.5990   26.5400   32.0500 H   0  0  0  0  0  0  0  0  0  0  0  0
   35.2350   29.6340   33.0070 C   0  0  1  0  0  3  0  0  0  0  0  0
   34.0250   29.2110   32.9010 O   0  0  0  0  0  1  0  0  0  0  0  0
   36.1750   32.9870   33.9910 C   0  0  0  0  0  0  0  0  0  0  0  0
   36.2170   32.9300   35.3840 C   0  0  0  0  0  0  0  0  0  0  0  0
   35.9210   31.7320   35.9850 C   0  0  0  0  0  0  0  0  0  0  0  0
   35.6020   30.6590   35.2240 N   0  0  0  0  0  0  0  0  0  0  0  0
   35.5680   30.7360   33.9020 C   0  0  0  0  0  0  0  0  0  0  0  0
   35.8550   31.8990   33.3040 N   0  0  0  0  0  0  0  0  0  0  0  0
   36.4000   33.9090   33.4480 H   0  0  0  0  0  0  0  0  0  0  0  0
   36.4900   33.8750   35.8480 H   0  0  0  0  0  0  0  0  0  0  0  0
   35.9640   31.7270   37.0530 H   0  0  0  0  0  0  0  0  0  0  0  0
   37.0770   27.5110   33.9650 C   0  0  0  0  0  3  0  0  0  0  0  0
   38.1640   27.2150   34.6770 C   0  0  0  0  0  3  0  0  0  0  0  0
   38.3540   26.7570   36.0510 C   0  0  0  0  0  0  0  0  0  0  0  0
   37.6140   27.2740   36.7280 H   0  0  0  0  0  0  0  0  0  0  0  0
   39.3440   27.1340   36.4320 H   0  0  0  0  0  0  0  0  0  0  0  0
   38.2590   25.3550   36.2690 C   0  0  0  0  0  0  0  0  0  0  0  0
   37.9170   24.6260   37.4120 C   0  0  0  0  0  0  0  0  0  0  0  0
   37.6760   25.1750   38.3060 H   0  0  0  0  0  0  0  0  0  0  0  0
   37.8940   23.2590   37.3790 C   0  0  0  0  0  3  0  0  0  0  0  0
   38.2440   22.6320   36.0920 C   0  0  0  0  0  3  0  0  0  0  0  0
   38.5800   24.1730   35.0350 S   0  0  0  0  0  0  0  0  0  0  0  0
  1  6  1  0  0  0  0
  1 11  1  0  0  0  0
  2  1  2  0  0  0  0
  3  4  2  0  0  0  0
  3  2  1  0  0  0  0
  4  5  1  0  0  0  0
  5 10  1  0  0  0  0
  5  6  2  0  0  0  0
  6 22  1  0  0  0  0
  7  2  1  0  0  0  0
  8  3  1  0  0  0  0
  9  4  1  0  0  0  0
 11 12  1  1  0  0  0
 11 17  1  0  0  0  0
 13 14  1  0  0  0  0
 14 20  1  0  0  0  0
 14 15  2  0  0  0  0
 15 21  1  0  0  0  0
 16 15  1  0  0  0  0
 17 16  2  0  0  0  0
 18 17  1  0  0  0  0
 18 13  2  0  0  0  0
 19 13  1  0  0  0  0
 22 23  2  0  0  0  0
 23 24  1  0  0  0  0
 24 27  1  0  0  0  0
 24 26  1  0  0  0  0
 24 25  1  0  0  0  0
 27 28  2  0  0  0  0
 28 29  1  0  0  0  0
 30 28  1  0  0  0  0
 31 30  2  0  0  0  0
 32 31  1  0  0  0  0
 32 27  1  0  0  0  0
M  END
>  <minimizedAffinity>
-5.51905632

$$$$

 OpenBabel03272509413D

 32 34  0  0  1  0  0  0  0  0999 V2000
   38.2150   25.0390   35.5130 C   0  0  0  0  0  0  0  0  0  0  0  0
   38.2200   26.2740   36.1900 C   0  0  0  0  0  0  0  0  0  0  0  0
   37.9610   27.4750   35.5440 C   0  0  0  0  0  0  0  0  0  0  0  0
   37.6840   27.4800   34.1830 C   0  0  0  0  0  0  0  0  0  0  0  0
   37.6830   26.2640   33.5380 C   0  0  0  0  0  0  0  0  0  0  0  0
   37.9420   25.0860   34.1950 C   0  0  0  0  0  0  0  0  0  0  0  0
   38.4320   26.3230   37.2550 H   0  0  0  0  0  0  0  0  0  0  0  0
   37.9800   28.3900   36.1200 H   0  0  0  0  0  0  0  0  0  0  0  0
   37.4850   28.4320   33.7050 H   0  0  0  0  0  0  0  0  0  0  0  0
   37.4580   26.3480   32.4730 H   0  0  0  0  0  0  0  0  0  0  0  0
   38.4980   23.8390   36.2720 C   0  0  1  0  0  3  0  0  0  0  0  0
   37.4610   23.3060   36.8150 O   0  0  0  0  0  1  0  0  0  0  0  0
   42.0450   23.3540   35.7450 C   0  0  0  0  0  0  0  0  0  0  0  0
   42.3690   22.2900   36.5870 C   0  0  0  0  0  0  0  0  0  0  0  0
   41.3600   21.7390   37.3380 C   0  0  0  0  0  0  0  0  0  0  0  0
   40.1040   22.2330   37.2440 N   0  0  0  0  0  0  0  0  0  0  0  0
   39.8190   23.2450   36.4360 C   0  0  0  0  0  0  0  0  0  0  0  0
   40.7940   23.7910   35.6980 N   0  0  0  0  0  0  0  0  0  0  0  0
   42.7990   23.8390   35.1190 H   0  0  0  0  0  0  0  0  0  0  0  0
   43.4190   22.0110   36.5490 H   0  0  0  0  0  0  0  0  0  0  0  0
   41.6460   20.9270   37.9710 H   0  0  0  0  0  0  0  0  0  0  0  0
   37.8990   23.9100   33.3640 C   0  0  0  0  0  3  0  0  0  0  0  0
   37.4800   23.8290   32.1020 C   0  0  0  0  0  3  0  0  0  0  0  0
   37.3840   22.7170   31.1600 C   0  0  0  0  0  0  0  0  0  0  0  0
   38.4210   22.3650   30.8830 H   0  0  0  0  0  0  0  0  0  0  0  0
   36.9800   23.0950   30.1800 H   0  0  0  0  0  0  0  0  0  0  0  0
   36.6280   21.5900   31.5860 C   0  0  0  0  0  0  0  0  0  0  0  0
   35.2660   21.4550   31.8710 C   0  0  0  0  0  0  0  0  0  0  0  0
   34.6400   22.3240   31.7640 H   0  0  0  0  0  0  0  0  0  0  0  0
   34.7600   20.2490   32.2730 C   0  0  0  0  0  3  0  0  0  0  0  0
   35.7250   19.1400   32.3780 C   0  0  0  0  0  3  0  0  0  0  0  0
   37.3240   20.0210   31.8590 S   0  0  0  0  0  0  0  0  0  0  0  0
  1  2  1  0  0  0  0
  1 11  1  0  0  0  0
  2  7  1  0  0  0  0
  3  8  1  0  0  0  0
  3  2  2  0  0  0  0
  4  3  1  0  0  0  0
  5  4  2  0  0  0  0
  5  6  1  0  0  0  0
  6  1  2  0  0  0  0
  9  4  1  0  0  0  0
 10  5  1  0  0  0  0
 11 17  1  0  0  0  0
 11 12  1  6  0  0  0
 13 14  1  0  0  0  0
 14 15  2  0  0  0  0
 15 21  1  0  0  0  0
 16 15  1  0  0  0  0
 17 16  2  0  0  0  0
 18 13  2  0  0  0  0
 18 17  1  0  0  0  0
 19 13  1  0  0  0  0
 20 14  1  0  0  0  0
 22  6  1  0  0  0  0
 23 22  2  0  0  0  0
 24 27  1  0  0  0  0
 24 23  1  0  0  0  0
 25 24  1  0  0  0  0
 26 24  1  0  0  0  0
 27 32  1  0  0  0  0
 27 28  2  0  0  0  0
 28 30  1  0  0  0  0
 29 28  1  0  0  0  0
 30 31  2  0  0  0  0
 32 31  1  0  0  0  0
M  END
>  <minimizedAffinity>
-5.32002068

$$$$

 OpenBabel03272509413D

 32 34  0  0  1  0  0  0  0  0999 V2000
   35.7200   28.4890   32.4500 C   0  0  0  0  0  0  0  0  0  0  0  0
   34.7610   29.4810   32.1660 C   0  0  0  0  0  0  0  0  0  0  0  0
   34.3600   30.4160   33.1100 C   0  0  0  0  0  0  0  0  0  0  0  0
   34.9100   30.3900   34.3840 C   0  0  0  0  0  0  0  0  0  0  0  0
   35.8460   29.4130   34.6440 C   0  0  0  0  0  0  0  0  0  0  0  0
   36.2300   28.4970   33.6970 C   0  0  0  0  0  0  0  0  0  0  0  0
   34.3010   29.5440   31.1830 H   0  0  0  0  0  0  0  0  0  0  0  0
   33.6200   31.1530   32.8290 H   0  0  0  0  0  0  0  0  0  0  0  0
   34.5780   31.1320   35.1000 H   0  0  0  0  0  0  0  0  0  0  0  0
   36.2320   29.4560   35.6640 H   0  0  0  0  0  0  0  0  0  0  0  0
   36.0760   27.5570   31.4010 C   0  0  1  0  0  3  0  0  0  0  0  0
   35.3230   26.5150   31.3480 O   0  0  0  0  0  1  0  0  0  0  0  0
   37.8770   28.8920   28.5610 C   0  0  0  0  0  0  0  0  0  0  0  0
   39.1020   28.2250   28.5940 C   0  0  0  0  0  0  0  0  0  0  0  0
   39.3050   27.3130   29.5990 C   0  0  0  0  0  0  0  0  0  0  0  0
   38.3320   27.0890   30.5130 N   0  0  0  0  0  0  0  0  0  0  0  0
   37.1770   27.7340   30.4610 C   0  0  0  0  0  0  0  0  0  0  0  0
   36.9650   28.6270   29.4860 N   0  0  0  0  0  0  0  0  0  0  0  0
   37.6480   29.6310   27.7880 H   0  0  0  0  0  0  0  0  0  0  0  0
   39.7760   28.5160   27.7920 H   0  0  0  0  0  0  0  0  0  0  0  0
   40.2550   26.8220   29.5920 H   0  0  0  0  0  0  0  0  0  0  0  0
   37.2190   27.5490   34.1410 C   0  0  0  0  0  3  0  0  0  0  0  0
   37.8200   27.5070   35.3300 C   0  0  0  0  0  3  0  0  0  0  0  0
   38.8240   26.6130   35.9010 C   0  0  0  0  0  0  0  0  0  0  0  0
   39.1760   27.0240   36.8920 H   0  0  0  0  0  0  0  0  0  0  0  0
   39.7550   26.6520   35.2700 H   0  0  0  0  0  0  0  0  0  0  0  0
   38.4310   25.2600   36.0910 C   0  0  0  0  0  0  0  0  0  0  0  0
   37.8990   24.6070   37.2070 C   0  0  0  0  0  0  0  0  0  0  0  0
   37.7410   25.1860   38.1010 H   0  0  0  0  0  0  0  0  0  0  0  0
   37.5950   23.2750   37.1490 C   0  0  0  0  0  3  0  0  0  0  0  0
   37.8590   22.6010   35.8660 C   0  0  0  0  0  3  0  0  0  0  0  0
   38.5500   24.0480   34.8500 S   0  0  0  0  0  0  0  0  0  0  0  0
  1  6  1  0  0  0  0
  2  1  2  0  0  0  0
  2  3  1  0  0  0  0
  3  4  2  0  0  0  0
  4  5  1  0  0  0  0
  4  9  1  0  0  0  0
  5 10  1  0  0  0  0
  6 22  1  0  0  0  0
  6  5  2  0  0  0  0
  7  2  1  0  0  0  0
  8  3  1  0  0  0  0
 11 12  1  6  0  0  0
 11  1  1  0  0  0  0
 13 14  2  0  0  0  0
 13 18  1  0  0  0  0
 14 15  1  0  0  0  0
 15 16  2  0  0  0  0
 17 16  1  0  0  0  0
 17 11  1  0  0  0  0
 18 17  2  0  0  0  0
 19 13  1  0  0  0  0
 20 14  1  0  0  0  0
 21 15  1  0  0  0  0
 22 23  2  0  0  0  0
 23 24  1  0  0  0  0
 24 27  1  0  0  0  0
 24 25  1  0  0  0  0
 26 24  1  0  0  0  0
 27 28  2  0  0  0  0
 28 29  1  0  0  0  0
 30 28  1  0  0  0  0
 31 30  2  0  0  0  0
 32 31  1  0  0  0  0
 32 27  1  0  0  0  0
M  END
>  <minimizedAffinity>
-5.31047392

$$$$

 OpenBabel03272509413D

 32 34  0  0  1  0  0  0  0  0999 V2000
   38.8880   23.5860   35.6370 C   0  0  0  0  0  0  0  0  0  0  0  0
   39.6480   22.6750   36.3970 C   0  0  0  0  0  0  0  0  0  0  0  0
   39.6560   22.6910   37.7850 C   0  0  0  0  0  0  0  0  0  0  0  0
   38.8940   23.6310   38.4670 C   0  0  0  0  0  0  0  0  0  0  0  0
   38.1580   24.5130   37.7090 C   0  0  0  0  0  0  0  0  0  0  0  0
   38.1640   24.4810   36.3360 C   0  0  0  0  0  0  0  0  0  0  0  0
   40.2600   21.9200   35.9100 H   0  0  0  0  0  0  0  0  0  0  0  0
   40.2600   21.9650   38.3100 H   0  0  0  0  0  0  0  0  0  0  0  0
   38.9200   23.6210   39.5510 H   0  0  0  0  0  0  0  0  0  0  0  0
   37.5870   25.2200   38.3140 H   0  0  0  0  0  0  0  0  0  0  0  0
   38.9450   23.4910   34.1940 C   0  0  1  0  0  3  0  0  0  0  0  0
   40.0730   23.8450   33.6890 O   0  0  0  0  0  1  0  0  0  0  0  0
   36.3240   21.3140   32.9730 C   0  0  0  0  0  0  0  0  0  0  0  0
   35.7940   22.0030   31.8820 C   0  0  0  0  0  0  0  0  0  0  0  0
   36.3430   23.2210   31.5670 C   0  0  0  0  0  0  0  0  0  0  0  0
   37.3630   23.7120   32.3090 N   0  0  0  0  0  0  0  0  0  0  0  0
   37.8500   23.0400   33.3420 C   0  0  0  0  0  0  0  0  0  0  0  0
   37.3240   21.8500   33.6590 N   0  0  0  0  0  0  0  0  0  0  0  0
   35.9350   20.3400   33.2790 H   0  0  0  0  0  0  0  0  0  0  0  0
   34.9790   21.4760   31.3910 H   0  0  0  0  0  0  0  0  0  0  0  0
   35.9120   23.7190   30.7260 H   0  0  0  0  0  0  0  0  0  0  0  0
   37.3360   25.4770   35.7060 C   0  0  0  0  0  3  0  0  0  0  0  0
   37.6940   26.7050   35.3320 C   0  0  0  0  0  3  0  0  0  0  0  0
   36.9650   27.7980   34.6940 C   0  0  0  0  0  0  0  0  0  0  0  0
   37.3560   28.7860   35.0730 H   0  0  0  0  0  0  0  0  0  0  0  0
   35.9000   27.7950   35.0580 H   0  0  0  0  0  0  0  0  0  0  0  0
   36.9840   27.8240   33.2720 C   0  0  0  0  0  0  0  0  0  0  0  0
   37.8770   27.2590   32.3560 C   0  0  0  0  0  0  0  0  0  0  0  0
   38.7090   26.6970   32.7450 H   0  0  0  0  0  0  0  0  0  0  0  0
   37.6850   27.4240   31.0120 C   0  0  0  0  0  3  0  0  0  0  0  0
   36.5070   28.2140   30.6140 C   0  0  0  0  0  3  0  0  0  0  0  0
   35.7860   28.6430   32.3160 S   0  0  0  0  0  0  0  0  0  0  0  0
  1  6  2  0  0  0  0
  1  2  1  0  0  0  0
  2  3  2  0  0  0  0
  3  8  1  0  0  0  0
  3  4  1  0  0  0  0
  4  9  1  0  0  0  0
  5 10  1  0  0  0  0
  5  4  2  0  0  0  0
  6  5  1  0  0  0  0
  7  2  1  0  0  0  0
 11 12  1  1  0  0  0
 11  1  1  0  0  0  0
 13 19  1  0  0  0  0
 13 18  1  0  0  0  0
 14 13  2  0  0  0  0
 15 14  1  0  0  0  0
 15 16  2  0  0  0  0
 16 17  1  0  0  0  0
 17 18  2  0  0  0  0
 17 11  1  0  0  0  0
 20 14  1  0  0  0  0
 21 15  1  0  0  0  0
 22  6  1  0  0  0  0
 23 22  2  0  0  0  0
 24 26  1  0  0  0  0
 24 25  1  0  0  0  0
 24 23  1  0  0  0  0
 27 24  1  0  0  0  0
 28 29  1  0  0  0  0
 28 27  2  0  0  0  0
 30 28  1  0  0  0  0
 31 30  2  0  0  0  0
 31 32  1  0  0  0  0
 32 27  1  0  0  0  0
M  END
>  <minimizedAffinity>
-5.25882769

$$$$

 OpenBabel03272509413D

 32 34  0  0  1  0  0  0  0  0999 V2000
   38.7440   25.9320   33.8300 C   0  0  0  0  0  0  0  0  0  0  0  0
   39.8010   26.8630   33.7970 C   0  0  0  0  0  0  0  0  0  0  0  0
   40.5030   27.1480   32.6340 C   0  0  0  0  0  0  0  0  0  0  0  0
   40.1660   26.5050   31.4510 C   0  0  0  0  0  0  0  0  0  0  0  0
   39.1300   25.5990   31.5010 C   0  0  0  0  0  0  0  0  0  0  0  0
   38.4480   25.3300   32.6620 C   0  0  0  0  0  0  0  0  0  0  0  0
   40.1030   27.3920   34.6970 H   0  0  0  0  0  0  0  0  0  0  0  0
   41.3040   27.8730   32.6750 H   0  0  0  0  0  0  0  0  0  0  0  0
   40.7310   26.7470   30.5580 H   0  0  0  0  0  0  0  0  0  0  0  0
   38.9250   25.1350   30.5340 H   0  0  0  0  0  0  0  0  0  0  0  0
   38.0710   25.7010   35.0910 C   0  0  1  0  0  3  0  0  0  0  0  0
   37.0210   26.4220   35.2650 O   0  0  0  0  0  1  0  0  0  0  0  0
   38.1320   24.0040   38.2860 C   0  0  0  0  0  0  0  0  0  0  0  0
   39.1440   23.0550   38.1450 C   0  0  0  0  0  0  0  0  0  0  0  0
   39.8070   23.0010   36.9450 C   0  0  0  0  0  0  0  0  0  0  0  0
   39.4680   23.8530   35.9490 N   0  0  0  0  0  0  0  0  0  0  0  0
   38.5020   24.7460   36.1060 C   0  0  0  0  0  0  0  0  0  0  0  0
   37.8480   24.8100   37.2720 N   0  0  0  0  0  0  0  0  0  0  0  0
   37.5640   24.1010   39.2150 H   0  0  0  0  0  0  0  0  0  0  0  0
   39.2950   22.4470   39.0340 H   0  0  0  0  0  0  0  0  0  0  0  0
   40.5760   22.2610   36.8740 H   0  0  0  0  0  0  0  0  0  0  0  0
   37.3950   24.3560   32.5310 C   0  0  0  0  0  3  0  0  0  0  0  0
   36.6710   24.0920   31.4440 C   0  0  0  0  0  3  0  0  0  0  0  0
   35.5900   23.1450   31.1800 C   0  0  0  0  0  0  0  0  0  0  0  0
   35.3870   23.1020   30.0700 H   0  0  0  0  0  0  0  0  0  0  0  0
   34.6280   23.5580   31.5930 H   0  0  0  0  0  0  0  0  0  0  0  0
   35.7830   21.8180   31.6520 C   0  0  0  0  0  0  0  0  0  0  0  0
   35.1930   21.1270   32.7150 C   0  0  0  0  0  0  0  0  0  0  0  0
   34.4610   21.6470   33.3080 H   0  0  0  0  0  0  0  0  0  0  0  0
   35.5470   19.8330   32.9800 C   0  0  0  0  0  3  0  0  0  0  0  0
   36.5610   19.2390   32.0910 C   0  0  0  0  0  3  0  0  0  0  0  0
   36.8960   20.6980   30.9240 S   0  0  0  0  0  0  0  0  0  0  0  0
  1 11  1  0  0  0  0
  2  1  1  0  0  0  0
  2  7  1  0  0  0  0
  3  8  1  0  0  0  0
  3  2  2  0  0  0  0
  4  5  2  0  0  0  0
  4  3  1  0  0  0  0
  5  6  1  0  0  0  0
  6  1  2  0  0  0  0
  9  4  1  0  0  0  0
 10  5  1  0  0  0  0
 11 12  1  6  0  0  0
 11 17  1  0  0  0  0
 13 19  1  0  0  0  0
 14 13  1  0  0  0  0
 14 20  1  0  0  0  0
 15 14  2  0  0  0  0
 16 17  2  0  0  0  0
 16 15  1  0  0  0  0
 17 18  1  0  0  0  0
 18 13  2  0  0  0  0
 21 15  1  0  0  0  0
 22  6  1  0  0  0  0
 23 22  2  0  0  0  0
 24 23  1  0  0  0  0
 24 26  1  0  0  0  0
 24 27  1  0  0  0  0
 25 24  1  0  0  0  0
 27 28  2  0  0  0  0
 28 30  1  0  0  0  0
 28 29  1  0  0  0  0
 31 30  2  0  0  0  0
 32 27  1  0  0  0  0
 32 31  1  0  0  0  0
M  END
>  <minimizedAffinity>
-5.23686123

$$$$

 OpenBabel03272509413D

 32 34  0  0  1  0  0  0  0  0999 V2000
   37.5510   22.1190   33.4430 C   0  0  0  0  0  0  0  0  0  0  0  0
   36.7620   20.9530   33.4970 C   0  0  0  0  0  0  0  0  0  0  0  0
   35.6240   20.7910   32.7190 C   0  0  0  0  0  0  0  0  0  0  0  0
   35.2320   21.8020   31.8510 C   0  0  0  0  0  0  0  0  0  0  0  0
   36.0150   22.9340   31.8120 C   0  0  0  0  0  0  0  0  0  0  0  0
   37.1380   23.0750   32.5890 C   0  0  0  0  0  0  0  0  0  0  0  0
   37.0270   20.1330   34.1600 H   0  0  0  0  0  0  0  0  0  0  0  0
   35.0620   19.8720   32.8060 H   0  0  0  0  0  0  0  0  0  0  0  0
   34.3400   21.6480   31.2570 H   0  0  0  0  0  0  0  0  0  0  0  0
   35.6440   23.6820   31.1080 H   0  0  0  0  0  0  0  0  0  0  0  0
   38.7210   22.1970   34.2930 C   0  0  2  0  0  3  0  0  0  0  0  0
   39.8150   21.8580   33.7090 O   0  0  0  0  0  1  0  0  0  0  0  0
   39.9790   22.7000   37.6480 C   0  0  0  0  0  0  0  0  0  0  0  0
   38.9210   23.3170   38.3160 C   0  0  0  0  0  0  0  0  0  0  0  0
   37.7710   23.5580   37.6070 C   0  0  0  0  0  0  0  0  0  0  0  0
   37.6960   23.2000   36.3040 N   0  0  0  0  0  0  0  0  0  0  0  0
   38.7140   22.6150   35.6900 C   0  0  0  0  0  0  0  0  0  0  0  0
   39.8410   22.3740   36.3700 N   0  0  0  0  0  0  0  0  0  0  0  0
   40.9230   22.4780   38.1530 H   0  0  0  0  0  0  0  0  0  0  0  0
   39.1380   23.5420   39.3580 H   0  0  0  0  0  0  0  0  0  0  0  0
   36.9820   24.0320   38.1520 H   0  0  0  0  0  0  0  0  0  0  0  0
   37.8360   24.3240   32.4190 C   0  0  0  0  0  3  0  0  0  0  0  0
   37.5750   25.4830   33.0230 C   0  0  0  0  0  3  0  0  0  0  0  0
   38.1940   26.8030   32.9420 C   0  0  0  0  0  0  0  0  0  0  0  0
   39.3110   26.6910   32.8280 H   0  0  0  0  0  0  0  0  0  0  0  0
   38.0960   27.3190   33.9370 H   0  0  0  0  0  0  0  0  0  0  0  0
   37.7220   27.6600   31.9100 C   0  0  0  0  0  0  0  0  0  0  0  0
   36.7560   28.6710   31.9270 C   0  0  0  0  0  0  0  0  0  0  0  0
   36.2550   28.8730   32.8590 H   0  0  0  0  0  0  0  0  0  0  0  0
   36.4680   29.3720   30.7880 C   0  0  0  0  0  3  0  0  0  0  0  0
   37.2270   28.9960   29.5830 C   0  0  0  0  0  3  0  0  0  0  0  0
   38.3170   27.6060   30.2780 S   0  0  0  0  0  0  0  0  0  0  0  0
  1  2  1  0  0  0  0
  1 11  1  0  0  0  0
  2  7  1  0  0  0  0
  3  8  1  0  0  0  0
  3  2  2  0  0  0  0
  4  3  1  0  0  0  0
  5  4  2  0  0  0  0
  5  6  1  0  0  0  0
  6  1  2  0  0  0  0
  9  4  1  0  0  0  0
 10  5  1  0  0  0  0
 11 12  1  1  0  0  0
 11 17  1  0  0  0  0
 13 19  1  0  0  0  0
 13 14  1  0  0  0  0
 14 20  1  0  0  0  0
 15 21  1  0  0  0  0
 15 14  2  0  0  0  0
 16 15  1  0  0  0  0
 17 16  2  0  0  0  0
 17 18  1  0  0  0  0
 18 13  2  0  0  0  0
 22  6  1  0  0  0  0
 22 23  2  0  0  0  0
 24 23  1  0  0  0  0
 24 26  1  0  0  0  0
 25 24  1  0  0  0  0
 27 28  2  0  0  0  0
 27 24  1  0  0  0  0
 28 29  1  0  0  0  0
 30 28  1  0  0  0  0
 31 32  1  0  0  0  0
 31 30  2  0  0  0  0
 32 27  1  0  0  0  0
M  END
>  <minimizedAffinity>
-5.21058846

$$$$

 OpenBabel03272509413D

 32 34  0  0  1  0  0  0  0  0999 V2000
   36.9980   21.6550   33.2670 C   0  0  0  0  0  0  0  0  0  0  0  0
   36.3670   20.4440   33.6180 C   0  0  0  0  0  0  0  0  0  0  0  0
   35.2700   19.9520   32.9240 C   0  0  0  0  0  0  0  0  0  0  0  0
   34.7620   20.6610   31.8450 C   0  0  0  0  0  0  0  0  0  0  0  0
   35.3900   21.8410   31.5160 C   0  0  0  0  0  0  0  0  0  0  0  0
   36.4750   22.3120   32.2140 C   0  0  0  0  0  0  0  0  0  0  0  0
   36.7280   19.8520   34.4550 H   0  0  0  0  0  0  0  0  0  0  0  0
   34.8320   19.0160   33.2430 H   0  0  0  0  0  0  0  0  0  0  0  0
   33.9050   20.2530   31.3220 H   0  0  0  0  0  0  0  0  0  0  0  0
   34.9350   22.3410   30.6590 H   0  0  0  0  0  0  0  0  0  0  0  0
   38.1360   22.0880   34.0500 C   0  0  1  0  0  3  0  0  0  0  0  0
   39.2690   21.6790   33.5980 O   0  0  0  0  0  1  0  0  0  0  0  0
   38.4350   25.0530   36.1020 C   0  0  0  0  0  0  0  0  0  0  0  0
   38.0020   24.6370   37.3610 C   0  0  0  0  0  0  0  0  0  0  0  0
   37.6070   23.3300   37.5020 C   0  0  0  0  0  0  0  0  0  0  0  0
   37.6470   22.4970   36.4360 N   0  0  0  0  0  0  0  0  0  0  0  0
   38.0610   22.9140   35.2490 C   0  0  0  0  0  0  0  0  0  0  0  0
   38.4490   24.1870   35.0980 N   0  0  0  0  0  0  0  0  0  0  0  0
   38.7630   26.0800   35.9200 H   0  0  0  0  0  0  0  0  0  0  0  0
   38.0300   25.4250   38.1110 H   0  0  0  0  0  0  0  0  0  0  0  0
   37.2830   23.0480   38.4800 H   0  0  0  0  0  0  0  0  0  0  0  0
   37.0060   23.5610   31.7330 C   0  0  0  0  0  3  0  0  0  0  0  0
   36.5840   24.7880   32.0360 C   0  0  0  0  0  3  0  0  0  0  0  0
   37.0260   26.1180   31.6240 C   0  0  0  0  0  0  0  0  0  0  0  0
   36.6750   26.3250   30.5720 H   0  0  0  0  0  0  0  0  0  0  0  0
   38.1460   26.1190   31.5170 H   0  0  0  0  0  0  0  0  0  0  0  0
   36.6230   27.2020   32.4520 C   0  0  0  0  0  0  0  0  0  0  0  0
   36.8330   27.4440   33.8130 C   0  0  0  0  0  0  0  0  0  0  0  0
   37.3890   26.7130   34.3750 H   0  0  0  0  0  0  0  0  0  0  0  0
   36.3400   28.5780   34.3980 C   0  0  0  0  0  3  0  0  0  0  0  0
   35.5970   29.4960   33.5160 C   0  0  0  0  0  3  0  0  0  0  0  0
   35.7080   28.5600   31.8680 S   0  0  0  0  0  0  0  0  0  0  0  0
  1  2  1  0  0  0  0
  1 11  1  0  0  0  0
  2  7  1  0  0  0  0
  3  8  1  0  0  0  0
  3  2  2  0  0  0  0
  4  3  1  0  0  0  0
  5  4  2  0  0  0  0
  5  6  1  0  0  0  0
  6  1  2  0  0  0  0
  9  4  1  0  0  0  0
 10  5  1  0  0  0  0
 11 12  1  6  0  0  0
 11 17  1  0  0  0  0
 13 14  1  0  0  0  0
 14 15  2  0  0  0  0
 14 20  1  0  0  0  0
 15 21  1  0  0  0  0
 16 15  1  0  0  0  0
 17 16  2  0  0  0  0
 18 17  1  0  0  0  0
 18 13  2  0  0  0  0
 19 13  1  0  0  0  0
 22 23  2  0  0  0  0
 22  6  1  0  0  0  0
 24 23  1  0  0  0  0
 24 27  1  0  0  0  0
 25 24  1  0  0  0  0
 26 24  1  0  0  0  0
 27 28  2  0  0  0  0
 28 29  1  0  0  0  0
 28 30  1  0  0  0  0
 31 30  2  0  0  0  0
 32 27  1  0  0  0  0
 32 31  1  0  0  0  0
M  END
>  <minimizedAffinity>
-5.20216179

$$$$

 OpenBabel03272509413D

 32 34  0  0  1  0  0  0  0  0999 V2000
   37.5130   22.0390   33.4680 C   0  0  0  0  0  0  0  0  0  0  0  0
   36.7360   20.8640   33.4670 C   0  0  0  0  0  0  0  0  0  0  0  0
   35.6030   20.7250   32.6770 C   0  0  0  0  0  0  0  0  0  0  0  0
   35.2050   21.7680   31.8520 C   0  0  0  0  0  0  0  0  0  0  0  0
   35.9760   22.9090   31.8650 C   0  0  0  0  0  0  0  0  0  0  0  0
   37.0940   23.0280   32.6540 C   0  0  0  0  0  0  0  0  0  0  0  0
   37.0060   20.0190   34.0950 H   0  0  0  0  0  0  0  0  0  0  0  0
   35.0500   19.7970   32.7220 H   0  0  0  0  0  0  0  0  0  0  0  0
   34.3170   21.6310   31.2470 H   0  0  0  0  0  0  0  0  0  0  0  0
   35.6010   23.6830   31.1930 H   0  0  0  0  0  0  0  0  0  0  0  0
   38.6780   22.0920   34.3260 C   0  0  1  0  0  3  0  0  0  0  0  0
   39.7640   21.7030   33.7580 O   0  0  0  0  0  1  0  0  0  0  0  0
   39.9560   22.6890   37.6580 C   0  0  0  0  0  0  0  0  0  0  0  0
   38.8910   23.2960   38.3240 C   0  0  0  0  0  0  0  0  0  0  0  0
   37.7300   23.5000   37.6210 C   0  0  0  0  0  0  0  0  0  0  0  0
   37.6500   23.1140   36.3260 N   0  0  0  0  0  0  0  0  0  0  0  0
   38.6750   22.5380   35.7140 C   0  0  0  0  0  0  0  0  0  0  0  0
   39.8130   22.3340   36.3880 N   0  0  0  0  0  0  0  0  0  0  0  0
   40.9090   22.4970   38.1580 H   0  0  0  0  0  0  0  0  0  0  0  0
   39.1130   23.5460   39.3590 H   0  0  0  0  0  0  0  0  0  0  0  0
   36.9370   23.9670   38.1640 H   0  0  0  0  0  0  0  0  0  0  0  0
   37.7790   24.2890   32.5420 C   0  0  0  0  0  3  0  0  0  0  0  0
   37.2630   25.5060   32.7080 C   0  0  0  0  0  3  0  0  0  0  0  0
   37.8370   26.8460   32.6240 C   0  0  0  0  0  0  0  0  0  0  0  0
   37.2820   27.5410   33.3190 H   0  0  0  0  0  0  0  0  0  0  0  0
   37.6170   27.2810   31.6090 H   0  0  0  0  0  0  0  0  0  0  0  0
   39.2280   26.9560   32.8990 C   0  0  0  0  0  0  0  0  0  0  0  0
   39.9300   26.9130   34.1080 C   0  0  0  0  0  0  0  0  0  0  0  0
   39.3650   26.7750   35.0140 H   0  0  0  0  0  0  0  0  0  0  0  0
   41.2920   27.0440   34.1220 C   0  0  0  0  0  3  0  0  0  0  0  0
   41.9420   27.2260   32.8120 C   0  0  0  0  0  3  0  0  0  0  0  0
   40.4310   27.1840   31.6650 S   0  0  0  0  0  0  0  0  0  0  0  0
  1 11  1  0  0  0  0
  2  1  1  0  0  0  0
  2  7  1  0  0  0  0
  3  8  1  0  0  0  0
  3  2  2  0  0  0  0
  4  5  2  0  0  0  0
  4  3  1  0  0  0  0
  5  6  1  0  0  0  0
  6  1  2  0  0  0  0
  9  4  1  0  0  0  0
 10  5  1  0  0  0  0
 11 12  1  6  0  0  0
 11 17  1  0  0  0  0
 13 19  1  0  0  0  0
 13 14  1  0  0  0  0
 14 20  1  0  0  0  0
 15 21  1  0  0  0  0
 15 14  2  0  0  0  0
 16 15  1  0  0  0  0
 17 16  2  0  0  0  0
 17 18  1  0  0  0  0
 18 13  2  0  0  0  0
 22  6  1  0  0  0  0
 22 23  2  0  0  0  0
 24 23  1  0  0  0  0
 24 27  1  0  0  0  0
 24 25  1  0  0  0  0
 26 24  1  0  0  0  0
 27 28  2  0  0  0  0
 28 30  1  0  0  0  0
 28 29  1  0  0  0  0
 31 30  2  0  0  0  0
 32 31  1  0  0  0  0
 32 27  1  0  0  0  0
M  END
>  <minimizedAffinity>
-5.18330145

$$$$
