
 OpenBabel03272508063D

 32 35  0  0  0  0  0  0  0  0999 V2000
   38.8740   30.9840   45.7460 C   0  0  0  0  0  0  0  0  0  0  0  0
   40.0020   31.7650   45.9540 C   0  0  0  0  0  0  0  0  0  0  0  0
   40.8310   31.7030   44.8450 C   0  0  0  0  0  0  0  0  0  0  0  0
   40.1600   30.8720   43.9950 N   0  0  0  0  0  0  0  0  0  0  0  0
   39.0170   30.4480   44.5120 N   0  0  0  0  0  0  0  0  0  0  0  0
   40.2280   32.3450   46.8330 H   0  0  0  0  0  0  0  0  0  0  0  0
   41.7780   32.1700   44.6440 H   0  0  0  0  0  0  0  0  0  0  0  0
   37.7740   30.7960   46.6720 C   0  0  0  0  0  0  0  0  0  0  0  0
   38.0030   31.0160   48.0520 C   0  0  0  0  0  0  0  0  0  0  0  0
   36.9280   30.8290   48.9200 C   0  0  0  0  0  0  0  0  0  0  0  0
   35.7300   30.4500   48.3980 N   0  0  0  0  0  0  0  0  0  0  0  0
   35.5350   30.2450   47.0710 C   0  0  0  0  0  0  0  0  0  0  0  0
   36.5650   30.4210   46.2200 N   0  0  0  0  0  0  0  0  0  0  0  0
   38.9780   31.3170   48.4110 H   0  0  0  0  0  0  0  0  0  0  0  0
   34.5450   29.9450   46.7580 H   0  0  0  0  0  0  0  0  0  0  0  0
   37.1520   31.0580   50.3800 C   0  0  0  0  0  0  0  0  0  0  0  0
   36.6240   32.3030   50.6330 F   0  0  0  0  0  0  0  0  0  0  0  0
   36.4830   30.1300   51.1660 F   0  0  0  0  0  0  0  0  0  0  0  0
   38.4950   31.0790   50.7020 F   0  0  0  0  0  0  0  0  0  0  0  0
   40.5650   30.4500   42.6640 C   0  0  0  0  0  0  0  0  0  0  0  0
   40.2320   31.2020   41.5250 C   0  0  0  0  0  0  0  0  0  0  0  0
   40.6380   30.7860   40.2980 C   0  0  0  0  0  0  0  0  0  0  0  0
   41.3930   29.5920   40.1950 C   0  0  0  0  0  0  0  0  0  0  0  0
   41.5100   29.0650   41.9660 S   0  0  0  0  0  0  0  0  0  0  0  0
   39.6440   32.1330   41.5810 H   0  0  0  0  0  0  0  0  0  0  0  0
   40.4610   31.2530   39.3440 H   0  0  0  0  0  0  0  0  0  0  0  0
   41.9570   28.8750   39.2110 C   0  0  0  0  0  0  0  0  0  0  0  0
   41.7430   27.6390   38.6820 C   0  0  0  0  0  0  0  0  0  0  0  0
   40.9520   27.0450   39.1060 H   0  0  0  0  0  0  0  0  0  0  0  0
   42.5300   27.2190   37.6560 C   0  0  0  0  0  3  0  0  0  0  0  0
   43.5720   28.0760   37.1440 C   0  0  0  0  0  3  0  0  0  0  0  0
   43.3590   29.5760   38.2500 S   0  0  0  0  0  0  0  0  0  0  0  0
  1  2  1  0  0  0  0
  1  8  1  0  0  0  0
  2  6  1  0  0  0  0
  3  2  2  0  0  0  0
  4  5  1  0  0  0  0
  4  3  1  0  0  0  0
  5  1  2  0  0  0  0
  7  3  1  0  0  0  0
  8  9  1  0  0  0  0
  9 14  1  0  0  0  0
  9 10  2  0  0  0  0
 10 16  1  0  0  0  0
 11 10  1  0  0  0  0
 12 11  2  0  0  0  0
 13  8  2  0  0  0  0
 13 12  1  0  0  0  0
 15 12  1  0  0  0  0
 16 17  1  0  0  0  0
 16 19  1  0  0  0  0
 16 18  1  0  0  0  0
 20  4  1  0  0  0  0
 21 25  1  0  0  0  0
 21 20  2  0  0  0  0
 22 21  1  0  0  0  0
 23 22  2  0  0  0  0
 23 24  1  0  0  0  0
 24 20  1  0  0  0  0
 26 22  1  0  0  0  0
 27 23  1  0  0  0  0
 28 29  1  0  0  0  0
 28 27  2  0  0  0  0
 30 28  1  0  0  0  0
 31 30  2  0  0  0  0
 31 32  1  0  0  0  0
 32 27  1  0  0  0  0
M  END
>  <minimizedAffinity>
-6.25454712

>  <minimizedRMSD>
0.388660252

$$$$
