
 OpenBabel03272510273D

 42 46  0  0  1  0  0  0  0  0999 V2000
   36.0880   30.2580   46.7530 C   0  0  0  0  0  0  0  0  0  0  0  0
   37.0910   30.6120   47.6230 C   0  0  0  0  0  0  0  0  0  0  0  0
   38.2370   31.2910   47.1770 C   0  0  0  0  0  0  0  0  0  0  0  0
   38.2820   31.5760   45.8110 C   0  0  0  0  0  0  0  0  0  0  0  0
   39.2860   32.2280   45.1350 N   0  0  0  0  0  0  0  0  0  0  0  0
   38.8980   32.2760   43.8510 C   0  0  0  0  0  0  0  0  0  0  0  0
   37.7240   31.6900   43.7210 N   0  0  0  0  0  0  0  0  0  0  0  0
   37.3060   31.2410   44.9150 C   0  0  0  0  0  0  0  0  0  0  0  0
   36.1830   30.5650   45.4060 C   0  0  0  0  0  0  0  0  0  0  0  0
   35.2000   29.7330   47.0910 H   0  0  0  0  0  0  0  0  0  0  0  0
   39.0440   31.5820   47.8390 H   0  0  0  0  0  0  0  0  0  0  0  0
   40.1710   32.6080   45.5460 H   0  0  0  0  0  0  0  0  0  0  0  0
   35.4040   30.2960   44.7010 H   0  0  0  0  0  0  0  0  0  0  0  0
   37.5860   30.1420   51.3280 C   0  0  0  0  0  0  0  0  0  0  0  0
   37.8820   30.5310   50.0220 C   0  0  0  0  0  0  0  0  0  0  0  0
   36.9680   30.2840   49.0320 C   0  0  0  0  0  0  0  0  0  0  0  0
   35.7950   29.6570   49.4020 N   0  0  0  0  0  0  0  0  0  0  0  0
   35.5190   29.2850   50.6670 C   0  0  0  0  0  0  0  0  0  0  0  0
   36.4020   29.5270   51.6090 N   0  0  0  0  0  0  0  0  0  0  0  0
   38.3340   30.3550   52.0850 H   0  0  0  0  0  0  0  0  0  0  0  0
   38.7940   31.0220   49.7160 H   0  0  0  0  0  0  0  0  0  0  0  0
   34.5660   28.7980   50.8470 H   0  0  0  0  0  0  0  0  0  0  0  0
   39.6740   32.8730   42.8570 O   0  0  0  0  0  0  0  0  0  0  0  0
   38.6470   31.3990   41.4110 N   0  0  0  0  0  0  0  0  0  0  0  0
   39.1810   32.7460   41.5330 C   0  0  1  0  0  0  0  0  0  0  0  0
   38.1430   33.7300   41.2690 C   0  0  0  0  0  0  0  0  0  0  0  0
   37.7030   33.5860   39.9430 O   0  0  0  0  0  0  0  0  0  0  0  0
   37.2820   32.3320   39.6050 C   0  0  0  0  0  0  0  0  0  0  0  0
   38.2660   31.2710   40.0130 C   0  0  1  0  0  0  0  0  0  0  0  0
   37.8210   31.1650   41.9330 H   0  0  0  0  0  0  0  0  0  0  0  0
   39.9860   32.8080   40.7820 H   0  0  0  0  0  0  0  0  0  0  0  0
   37.2470   33.8410   41.8170 H   0  0  0  0  0  0  0  0  0  0  0  0
   38.6430   34.7480   41.2640 H   0  0  0  0  0  0  0  0  0  0  0  0
   36.3230   32.0790   40.0990 H   0  0  0  0  0  0  0  0  0  0  0  0
   37.1910   32.3060   38.5000 H   0  0  0  0  0  0  0  0  0  0  0  0
   37.7670   30.2970   39.8160 H   0  0  0  0  0  0  0  0  0  0  0  0
   39.4870   31.4500   39.2020 C   0  0  0  0  0  0  0  0  0  0  0  0
   40.7010   30.9240   39.3350 C   0  0  0  0  0  0  0  0  0  0  0  0
   40.8850   30.2350   40.1690 H   0  0  0  0  0  0  0  0  0  0  0  0
   41.7210   31.2160   38.4660 C   0  0  0  0  0  3  0  0  0  0  0  0
   41.3390   32.1330   37.4210 C   0  0  0  0  0  3  0  0  0  0  0  0
   39.6030   32.4980   37.7470 S   0  0  0  0  0  0  0  0  0  0  0  0
  1 10  1  0  0  0  0
  1  2  1  0  0  0  0
  2 16  1  0  0  0  0
  3  2  2  0  0  0  0
  3 11  1  0  0  0  0
  4  3  1  0  0  0  0
  5 12  1  0  0  0  0
  5  4  1  0  0  0  0
  6  5  1  0  0  0  0
  7  6  2  0  0  0  0
  7  8  1  0  0  0  0
  8  9  1  0  0  0  0
  8  4  2  0  0  0  0
  9  1  2  0  0  0  0
 13  9  1  0  0  0  0
 14 19  1  0  0  0  0
 14 20  1  0  0  0  0
 15 14  2  0  0  0  0
 16 17  2  0  0  0  0
 16 15  1  0  0  0  0
 17 18  1  0  0  0  0
 18 22  1  0  0  0  0
 18 19  2  0  0  0  0
 21 15  1  0  0  0  0
 23  6  1  0  0  0  0
 24 25  1  0  0  0  0
 24 30  1  0  0  0  0
 25 31  1  6  0  0  0
 25 23  1  0  0  0  0
 26 25  1  0  0  0  0
 26 32  1  0  0  0  0
 27 26  1  0  0  0  0
 28 27  1  0  0  0  0
 28 29  1  0  0  0  0
 28 34  1  0  0  0  0
 29 36  1  6  0  0  0
 29 24  1  0  0  0  0
 33 26  1  0  0  0  0
 35 28  1  0  0  0  0
 37 38  2  0  0  0  0
 37 29  1  0  0  0  0
 38 39  1  0  0  0  0
 40 38  1  0  0  0  0
 41 42  1  0  0  0  0
 41 40  2  0  0  0  0
 42 37  1  0  0  0  0
M  END
>  <minimizedAffinity>
-5.32001495

>  <minimizedRMSD>
0.979251623

$$$$
