
 OpenBabel03272507283D

 38 40  0  0  1  0  0  0  0  0999 V2000
   37.9730   30.4600   48.7520 C   0  0  0  0  0  0  0  0  0  0  0  0
   38.0420   30.8460   47.3970 C   0  0  0  0  0  0  0  0  0  0  0  0
   36.8870   30.6870   46.6330 C   0  0  0  0  0  0  0  0  0  0  0  0
   35.7830   30.1830   47.2130 N   0  0  0  0  0  0  0  0  0  0  0  0
   35.7520   29.8250   48.5120 C   0  0  0  0  0  0  0  0  0  0  0  0
   36.8370   29.9620   49.2730 N   0  0  0  0  0  0  0  0  0  0  0  0
   36.8680   31.0470   45.2900 N   0  0  0  0  0  0  0  0  0  0  0  0
   37.6520   32.1550   44.6790 C   0  0  0  0  0  0  0  0  0  0  0  0
   37.1700   32.3500   43.3030 C   0  0  0  0  0  0  0  0  0  0  0  0
   35.8560   31.6970   43.3050 C   0  0  0  0  0  0  0  0  0  0  0  0
   36.1340   30.5300   44.1810 C   0  0  2  0  0  0  0  0  0  0  0  0
   38.9360   30.6300   49.2480 H   0  0  0  0  0  0  0  0  0  0  0  0
   38.8950   31.2500   46.8950 H   0  0  0  0  0  0  0  0  0  0  0  0
   34.9090   29.4160   49.0450 H   0  0  0  0  0  0  0  0  0  0  0  0
   37.2100   33.0320   45.3330 H   0  0  0  0  0  0  0  0  0  0  0  0
   38.6770   32.2140   44.9430 H   0  0  0  0  0  0  0  0  0  0  0  0
   36.8750   33.4880   43.2720 H   0  0  0  0  0  0  0  0  0  0  0  0
   37.8220   32.3190   42.4660 H   0  0  0  0  0  0  0  0  0  0  0  0
   35.0420   32.2960   43.7220 H   0  0  0  0  0  0  0  0  0  0  0  0
   35.5500   31.3800   42.2720 H   0  0  0  0  0  0  0  0  0  0  0  0
   34.8320   29.8220   44.5530 C   0  0  0  0  0  0  0  0  0  0  0  0
   34.2060   30.5680   45.5350 F   0  0  0  0  0  0  0  0  0  0  0  0
   34.9710   28.5600   45.0500 F   0  0  0  0  0  0  0  0  0  0  0  0
   34.0170   29.8860   43.4450 F   0  0  0  0  0  0  0  0  0  0  0  0
   36.9620   29.5440   43.5340 C   0  0  2  0  0  0  0  0  0  0  0  0
   37.3140   28.7990   44.2360 H   0  0  0  0  0  0  0  0  0  0  0  0
   38.3620   29.9760   43.0200 C   0  0  0  0  0  0  0  0  0  0  0  0
   39.6570   29.8450   43.6280 C   0  0  0  0  0  0  0  0  0  0  0  0
   39.5670   29.4780   44.6310 H   0  0  0  0  0  0  0  0  0  0  0  0
   40.7300   30.1850   42.8890 C   0  0  0  0  0  3  0  0  0  0  0  0
   40.5440   30.6540   41.5500 C   0  0  0  0  0  3  0  0  0  0  0  0
   38.7930   30.6390   41.2610 S   0  0  0  0  0  0  0  0  0  0  0  0
   36.4190   29.2420   42.4420 O   0  0  0  0  0  0  0  0  0  0  0  0
   36.2460   28.1900   41.6250 C   0  0  0  0  0  0  0  0  0  0  0  0
   35.1290   28.1900   41.0990 O   0  0  0  0  0  0  0  0  0  0  0  0
   36.7910   27.0100   41.0480 N   0  0  0  0  0  0  0  0  0  0  0  0
   36.5960   26.0430   41.4310 H   0  0  0  0  0  0  0  0  0  0  0  0
   37.3840   27.2420   40.2280 H   0  0  0  0  0  0  0  0  0  0  0  0
  1 12  1  0  0  0  0
  1  6  1  0  0  0  0
  2  1  2  0  0  0  0
  3  4  2  0  0  0  0
  3  2  1  0  0  0  0
  4  5  1  0  0  0  0
  5 14  1  0  0  0  0
  5  6  2  0  0  0  0
  7  3  1  0  0  0  0
  8 16  1  0  0  0  0
  8  7  1  0  0  0  0
  8 15  1  0  0  0  0
  9 10  1  0  0  0  0
  9  8  1  0  0  0  0
 10 19  1  0  0  0  0
 10 11  1  0  0  0  0
 11 21  1  1  0  0  0
 11  7  1  0  0  0  0
 13  2  1  0  0  0  0
 17  9  1  0  0  0  0
 18  9  1  0  0  0  0
 20 10  1  0  0  0  0
 21 23  1  0  0  0  0
 21 22  1  0  0  0  0
 24 21  1  0  0  0  0
 25 11  1  0  0  0  0
 25 26  1  1  0  0  0
 27 25  1  0  0  0  0
 27 28  2  0  0  0  0
 28 29  1  0  0  0  0
 30 28  1  0  0  0  0
 31 30  2  0  0  0  0
 32 31  1  0  0  0  0
 32 27  1  0  0  0  0
 33 25  1  0  0  0  0
 34 33  1  0  0  0  0
 35 34  2  0  0  0  0
 36 37  1  0  0  0  0
 36 34  1  0  0  0  0
 38 36  1  0  0  0  0
M  END
>  <minimizedAffinity>
-3.9991498

>  <minimizedRMSD>
3.69885826

$$$$
