
 OpenBabel03272508533D

 35 38  0  0  1  0  0  0  0  0999 V2000
   38.3350   31.8920   44.5230 C   0  0  0  0  0  0  0  0  0  0  0  0
   37.1610   32.3440   44.4150 O   0  0  0  0  0  0  0  0  0  0  0  0
   38.9390   31.7430   45.8150 N   0  0  0  0  0  0  0  0  0  0  0  0
   39.9430   31.5660   45.9430 H   0  0  0  0  0  0  0  0  0  0  0  0
   39.1110   31.5060   43.3270 C   0  0  0  0  0  0  0  0  0  0  0  0
   40.1040   30.5740   43.4750 C   0  0  0  0  0  0  0  0  0  0  0  0
   40.8240   30.2260   42.3400 C   0  0  0  0  0  0  0  0  0  0  0  0
   40.5090   30.8190   41.1580 C   0  0  0  0  0  0  0  0  0  0  0  0
   39.5080   31.7590   41.0120 C   0  0  0  0  0  0  0  0  0  0  0  0
   38.8450   32.0600   42.1290 N   0  0  0  0  0  0  0  0  0  0  0  0
   40.3700   30.0890   44.4100 H   0  0  0  0  0  0  0  0  0  0  0  0
   41.6090   29.4970   42.4310 H   0  0  0  0  0  0  0  0  0  0  0  0
   41.1240   30.4930   40.3040 H   0  0  0  0  0  0  0  0  0  0  0  0
   39.2180   32.3540   39.7440 C   0  0  0  0  0  0  0  0  0  0  0  0
   38.7330   33.5420   39.3810 C   0  0  0  0  0  0  0  0  0  0  0  0
   38.4930   34.2340   40.1750 H   0  0  0  0  0  0  0  0  0  0  0  0
   38.5420   33.8790   38.0750 C   0  0  0  0  0  3  0  0  0  0  0  0
   38.9140   32.8330   37.1070 C   0  0  0  0  0  3  0  0  0  0  0  0
   39.5110   31.4470   38.2350 S   0  0  0  0  0  0  0  0  0  0  0  0
   38.4460   31.1780   48.1950 C   0  0  2  0  0  0  0  0  0  0  0  0
   38.7430   32.6200   48.1520 C   0  0  0  0  0  0  0  0  0  0  0  0
   38.0760   31.8540   46.9780 C   0  0  1  0  0  0  0  0  0  0  0  0
   39.3690   30.5410   48.2300 H   0  0  0  0  0  0  0  0  0  0  0  0
   38.0790   33.3660   48.6240 H   0  0  0  0  0  0  0  0  0  0  0  0
   39.7760   32.9590   48.0160 H   0  0  0  0  0  0  0  0  0  0  0  0
   37.0090   32.1100   46.7940 H   0  0  0  0  0  0  0  0  0  0  0  0
   35.1210   30.2440   49.5060 C   0  0  0  0  0  0  0  0  0  0  0  0
   35.4500   29.5590   50.7190 C   0  0  0  0  0  0  0  0  0  0  0  0
   36.8510   29.4440   51.0550 C   0  0  0  0  0  0  0  0  0  0  0  0
   37.7790   29.9820   50.2210 N   0  0  0  0  0  0  0  0  0  0  0  0
   37.3900   30.6210   49.0830 C   0  0  0  0  0  0  0  0  0  0  0  0
   36.0720   30.7660   48.7020 N   0  0  0  0  0  0  0  0  0  0  0  0
   34.0590   30.2920   49.3160 H   0  0  0  0  0  0  0  0  0  0  0  0
   34.6850   29.1520   51.3430 H   0  0  0  0  0  0  0  0  0  0  0  0
   37.1090   28.9280   51.9690 H   0  0  0  0  0  0  0  0  0  0  0  0
  1  3  1  0  0  0  0
  2  1  2  0  0  0  0
  3  4  1  0  0  0  0
  3 22  1  0  0  0  0
  5  6  1  0  0  0  0
  5  1  1  0  0  0  0
  6 11  1  0  0  0  0
  7 12  1  0  0  0  0
  7  6  2  0  0  0  0
  8  7  1  0  0  0  0
  9  8  2  0  0  0  0
  9 10  1  0  0  0  0
 10  5  2  0  0  0  0
 13  8  1  0  0  0  0
 14  9  1  0  0  0  0
 15 14  2  0  0  0  0
 15 16  1  0  0  0  0
 17 15  1  0  0  0  0
 18 17  2  0  0  0  0
 18 19  1  0  0  0  0
 19 14  1  0  0  0  0
 20 23  1  6  0  0  0
 20 31  1  0  0  0  0
 21 20  1  0  0  0  0
 21 24  1  0  0  0  0
 22 26  1  6  0  0  0
 22 21  1  0  0  0  0
 22 20  1  0  0  0  0
 25 21  1  0  0  0  0
 27 28  1  0  0  0  0
 28 29  2  0  0  0  0
 28 34  1  0  0  0  0
 29 35  1  0  0  0  0
 30 29  1  0  0  0  0
 31 30  2  0  0  0  0
 32 31  1  0  0  0  0
 32 27  2  0  0  0  0
 33 27  1  0  0  0  0
M  END
>  <minimizedAffinity>
-5.13813829

>  <minimizedRMSD>
0.345043451

$$$$
