
 OpenBabel03272509423D

 35 37  0  0  1  0  0  0  0  0999 V2000
   37.0340   30.9240   49.0280 C   0  0  0  0  0  0  0  0  0  0  0  0
   36.7510   31.8050   50.0730 C   0  0  0  0  0  0  0  0  0  0  0  0
   37.3360   33.0590   50.1540 C   0  0  0  0  0  0  0  0  0  0  0  0
   38.2400   33.4610   49.1640 C   0  0  0  0  0  0  0  0  0  0  0  0
   38.5090   32.5880   48.1470 C   0  0  0  0  0  0  0  0  0  0  0  0
   37.9040   31.3440   48.1030 C   0  0  0  0  0  0  0  0  0  0  0  0
   36.0510   31.5020   50.8450 H   0  0  0  0  0  0  0  0  0  0  0  0
   37.0660   33.6730   50.9870 H   0  0  0  0  0  0  0  0  0  0  0  0
   38.6340   34.4360   49.3150 H   0  0  0  0  0  0  0  0  0  0  0  0
   39.2250   33.0420   47.4630 H   0  0  0  0  0  0  0  0  0  0  0  0
   36.4490   29.6030   48.9620 C   0  0  2  0  0  0  0  0  0  0  0  0
   36.9800   29.0830   48.0740 H   0  0  0  0  0  0  0  0  0  0  0  0
   33.5580   30.1340   46.8250 C   0  0  0  0  0  0  0  0  0  0  0  0
   32.8990   28.9210   46.8450 C   0  0  0  0  0  0  0  0  0  0  0  0
   33.4070   27.9180   47.6480 C   0  0  0  0  0  0  0  0  0  0  0  0
   34.5420   28.1560   48.3920 N   0  0  0  0  0  0  0  0  0  0  0  0
   35.1280   29.3350   48.3270 C   0  0  0  0  0  0  0  0  0  0  0  0
   34.6430   30.3300   47.5490 N   0  0  0  0  0  0  0  0  0  0  0  0
   33.1850   30.9500   46.2020 H   0  0  0  0  0  0  0  0  0  0  0  0
   32.0200   28.8450   46.2220 H   0  0  0  0  0  0  0  0  0  0  0  0
   32.8890   26.9700   47.6650 H   0  0  0  0  0  0  0  0  0  0  0  0
   36.8910   28.8230   49.8840 O   0  0  0  0  0  0  0  0  0  0  0  0
   36.4310   28.6590   50.7250 H   0  0  0  0  0  0  0  0  0  0  0  0
   38.3080   30.5110   46.9930 C   0  0  0  0  0  3  0  0  0  0  0  0
   39.0440   30.9410   45.9650 C   0  0  0  0  0  3  0  0  0  0  0  0
   39.5540   30.1700   44.8070 C   0  0  0  0  0  0  0  0  0  0  0  0
   39.2330   29.1040   44.8780 H   0  0  0  0  0  0  0  0  0  0  0  0
   40.6740   30.2250   44.7960 H   0  0  0  0  0  0  0  0  0  0  0  0
   38.9730   30.9180   43.2820 S   0  0  0  0  0  0  0  0  0  0  0  0
   37.1950   30.8970   43.2250 C   0  0  0  0  0  0  0  0  0  0  0  0
   36.5870   29.6670   43.5920 C   0  0  0  0  0  0  0  0  0  0  0  0
   36.9710   28.7100   43.9070 H   0  0  0  0  0  0  0  0  0  0  0  0
   35.2490   29.4510   43.6120 C   0  0  0  0  0  3  0  0  0  0  0  0
   34.4360   30.5810   43.2280 C   0  0  0  0  0  3  0  0  0  0  0  0
   35.6880   31.9550   42.8390 S   0  0  0  0  0  0  0  0  0  0  0  0
  1  2  1  0  0  0  0
  2  3  2  0  0  0  0
  2  7  1  0  0  0  0
  3  8  1  0  0  0  0
  4  9  1  0  0  0  0
  4  3  1  0  0  0  0
  5  4  2  0  0  0  0
  6  5  1  0  0  0  0
  6  1  2  0  0  0  0
 10  5  1  0  0  0  0
 11 12  1  6  0  0  0
 11  1  1  0  0  0  0
 11 22  1  0  0  0  0
 13 14  2  0  0  0  0
 13 18  1  0  0  0  0
 14 15  1  0  0  0  0
 15 21  1  0  0  0  0
 15 16  2  0  0  0  0
 17 16  1  0  0  0  0
 17 11  1  0  0  0  0
 18 17  2  0  0  0  0
 19 13  1  0  0  0  0
 20 14  1  0  0  0  0
 22 23  1  0  0  0  0
 24  6  1  0  0  0  0
 25 24  2  0  0  0  0
 26 27  1  0  0  0  0
 26 25  1  0  0  0  0
 28 26  1  0  0  0  0
 29 26  1  0  0  0  0
 30 29  1  0  0  0  0
 30 31  2  0  0  0  0
 31 33  1  0  0  0  0
 31 32  1  0  0  0  0
 34 33  2  0  0  0  0
 35 30  1  0  0  0  0
 35 34  1  0  0  0  0
M  END
>  <minimizedAffinity>
-5.36935234

>  <minimizedRMSD>
0.612623751

$$$$
