
 OpenBabel03272509463D

 22 23  0  0  0  0  0  0  0  0999 V2000
   34.1750   28.4270   48.4880 C   0  0  0  0  0  0  0  0  0  0  0  0
   33.2720   29.0530   48.6180 H   0  0  0  0  0  0  0  0  0  0  0  0
   34.8580   28.9830   47.8130 H   0  0  0  0  0  0  0  0  0  0  0  0
   33.8420   27.0560   47.9510 C   0  0  0  0  0  0  0  0  0  0  0  0
   33.0340   26.6700   48.6370 H   0  0  0  0  0  0  0  0  0  0  0  0
   34.6700   26.3540   48.0110 H   0  0  0  0  0  0  0  0  0  0  0  0
   33.3220   27.2110   46.5660 C   0  0  0  0  0  0  0  0  0  0  0  0
   33.8920   27.5620   45.3870 C   0  0  0  0  0  0  0  0  0  0  0  0
   34.9640   27.7810   45.4580 H   0  0  0  0  0  0  0  0  0  0  0  0
   33.1630   27.6220   44.2530 C   0  0  0  0  0  3  0  0  0  0  0  0
   31.8290   27.3110   44.3640 C   0  0  0  0  0  3  0  0  0  0  0  0
   31.6350   26.9140   46.2070 S   0  0  0  0  0  0  0  0  0  0  0  0
   34.7290   28.3030   49.7960 O   0  0  0  0  0  0  0  0  0  0  0  0
   37.3490   30.2340   51.4070 C   0  0  0  0  0  0  0  0  0  0  0  0
   38.0610   30.6670   50.2920 C   0  0  0  0  0  0  0  0  0  0  0  0
   37.6120   30.2780   49.0350 C   0  0  0  0  0  0  0  0  0  0  0  0
   36.4890   29.4890   48.9930 N   0  0  0  0  0  0  0  0  0  0  0  0
   35.8270   29.0910   50.0990 C   0  0  0  0  0  0  0  0  0  0  0  0
   36.2740   29.4750   51.3020 N   0  0  0  0  0  0  0  0  0  0  0  0
   37.7170   30.5510   52.3880 H   0  0  0  0  0  0  0  0  0  0  0  0
   38.9450   31.2880   50.3170 H   0  0  0  0  0  0  0  0  0  0  0  0
   38.1130   30.5750   48.1260 H   0  0  0  0  0  0  0  0  0  0  0  0
  1  2  1  0  0  0  0
  1 13  1  0  0  0  0
  3  1  1  0  0  0  0
  4  6  1  0  0  0  0
  4  1  1  0  0  0  0
  4  5  1  0  0  0  0
  7  4  1  0  0  0  0
  8  9  1  0  0  0  0
  8  7  2  0  0  0  0
 10 11  2  0  0  0  0
 10  8  1  0  0  0  0
 11 12  1  0  0  0  0
 12  7  1  0  0  0  0
 13 18  1  0  0  0  0
 14 20  1  0  0  0  0
 15 21  1  0  0  0  0
 15 14  2  0  0  0  0
 16 15  1  0  0  0  0
 17 16  2  0  0  0  0
 17 18  1  0  0  0  0
 18 19  2  0  0  0  0
 19 14  1  0  0  0  0
 22 16  1  0  0  0  0
M  END
>  <minimizedAffinity>
-3.60873485

>  <minimizedRMSD>
0.125281572

$$$$
