
 OpenBabel03272510273D

 42 46  0  0  1  0  0  0  0  0999 V2000
   35.5200   29.8590   46.6780 C   0  0  0  0  0  0  0  0  0  0  0  0
   36.6450   30.5570   47.0430 C   0  0  0  0  0  0  0  0  0  0  0  0
   37.3460   31.3460   46.1170 C   0  0  0  0  0  0  0  0  0  0  0  0
   36.8260   31.3690   44.8210 C   0  0  0  0  0  0  0  0  0  0  0  0
   37.3240   32.0610   43.7430 N   0  0  0  0  0  0  0  0  0  0  0  0
   36.5030   31.7880   42.7160 C   0  0  0  0  0  0  0  0  0  0  0  0
   35.5470   30.9740   43.1180 N   0  0  0  0  0  0  0  0  0  0  0  0
   35.7120   30.6890   44.4190 C   0  0  0  0  0  0  0  0  0  0  0  0
   35.0460   29.9160   45.3780 C   0  0  0  0  0  0  0  0  0  0  0  0
   34.9730   29.2470   47.3900 H   0  0  0  0  0  0  0  0  0  0  0  0
   38.2360   31.9080   46.3750 H   0  0  0  0  0  0  0  0  0  0  0  0
   38.1720   32.6760   43.7320 H   0  0  0  0  0  0  0  0  0  0  0  0
   34.1600   29.3730   45.0670 H   0  0  0  0  0  0  0  0  0  0  0  0
   38.3460   31.1050   50.3600 C   0  0  0  0  0  0  0  0  0  0  0  0
   38.0070   31.3320   49.0270 C   0  0  0  0  0  0  0  0  0  0  0  0
   37.1210   30.4860   48.4130 C   0  0  0  0  0  0  0  0  0  0  0  0
   36.6150   29.4490   49.1710 N   0  0  0  0  0  0  0  0  0  0  0  0
   36.9490   29.2380   50.4600 C   0  0  0  0  0  0  0  0  0  0  0  0
   37.8000   30.0550   51.0380 N   0  0  0  0  0  0  0  0  0  0  0  0
   39.0510   31.7960   50.8110 H   0  0  0  0  0  0  0  0  0  0  0  0
   38.3930   32.1380   48.4200 H   0  0  0  0  0  0  0  0  0  0  0  0
   36.4920   28.3920   50.9620 H   0  0  0  0  0  0  0  0  0  0  0  0
   36.6960   32.3230   41.4420 O   0  0  0  0  0  0  0  0  0  0  0  0
   35.3080   34.0140   42.1740 N   0  0  0  0  0  0  0  0  0  0  0  0
   35.7090   33.2450   41.0070 C   0  0  1  0  0  0  0  0  0  0  0  0
   36.2380   34.1240   39.9760 C   0  0  0  0  0  0  0  0  0  0  0  0
   35.2230   35.0000   39.5570 O   0  0  0  0  0  0  0  0  0  0  0  0
   34.6300   35.7200   40.5540 C   0  0  0  0  0  0  0  0  0  0  0  0
   34.2160   34.8550   41.7120 C   0  0  1  0  0  0  0  0  0  0  0  0
   35.9760   34.6450   42.5810 H   0  0  0  0  0  0  0  0  0  0  0  0
   34.7910   32.7390   40.6640 H   0  0  0  0  0  0  0  0  0  0  0  0
   37.0810   34.7520   40.0760 H   0  0  0  0  0  0  0  0  0  0  0  0
   36.4220   33.4860   39.0560 H   0  0  0  0  0  0  0  0  0  0  0  0
   35.3170   36.4870   40.9630 H   0  0  0  0  0  0  0  0  0  0  0  0
   33.7160   36.1780   40.1260 H   0  0  0  0  0  0  0  0  0  0  0  0
   33.8760   35.5530   42.5100 H   0  0  0  0  0  0  0  0  0  0  0  0
   33.1340   33.9650   41.2480 C   0  0  0  0  0  0  0  0  0  0  0  0
   32.7170   32.7900   41.7130 C   0  0  0  0  0  0  0  0  0  0  0  0
   33.2260   32.3640   42.5870 H   0  0  0  0  0  0  0  0  0  0  0  0
   31.6790   32.1050   41.1370 C   0  0  0  0  0  3  0  0  0  0  0  0
   31.1050   32.7820   40.0000 C   0  0  0  0  0  3  0  0  0  0  0  0
   32.0640   34.3030   39.8450 S   0  0  0  0  0  0  0  0  0  0  0  0
  1  2  1  0  0  0  0
  1 10  1  0  0  0  0
  2 16  1  0  0  0  0
  3 11  1  0  0  0  0
  3  2  2  0  0  0  0
  4  3  1  0  0  0  0
  5  4  1  0  0  0  0
  6  7  2  0  0  0  0
  6  5  1  0  0  0  0
  7  8  1  0  0  0  0
  8  4  2  0  0  0  0
  8  9  1  0  0  0  0
  9  1  2  0  0  0  0
 12  5  1  0  0  0  0
 13  9  1  0  0  0  0
 14 20  1  0  0  0  0
 14 19  1  0  0  0  0
 15 14  2  0  0  0  0
 16 15  1  0  0  0  0
 16 17  2  0  0  0  0
 17 18  1  0  0  0  0
 18 22  1  0  0  0  0
 18 19  2  0  0  0  0
 21 15  1  0  0  0  0
 23  6  1  0  0  0  0
 24 30  1  0  0  0  0
 25 31  1  6  0  0  0
 25 23  1  0  0  0  0
 25 24  1  0  0  0  0
 26 32  1  0  0  0  0
 26 25  1  0  0  0  0
 27 26  1  0  0  0  0
 27 28  1  0  0  0  0
 28 34  1  0  0  0  0
 28 29  1  0  0  0  0
 29 24  1  0  0  0  0
 29 36  1  1  0  0  0
 33 26  1  0  0  0  0
 35 28  1  0  0  0  0
 37 29  1  0  0  0  0
 37 38  2  0  0  0  0
 38 39  1  0  0  0  0
 40 38  1  0  0  0  0
 41 40  2  0  0  0  0
 42 41  1  0  0  0  0
 42 37  1  0  0  0  0
M  END
>  <minimizedAffinity>
-4.78713751

>  <minimizedRMSD>
4.80776787

$$$$
