
 OpenBabel03272508273D

 35 38  0  0  1  0  0  0  0  0999 V2000
   33.8660   29.0030   47.2820 C   0  0  2  0  0  0  0  0  0  0  0  0
   34.6330   28.2090   48.3270 C   0  0  2  0  0  0  0  0  0  0  0  0
   33.7350   27.9800   49.3350 O   0  0  0  0  0  0  0  0  0  0  0  0
   32.4630   28.0530   48.8660 C   0  0  0  0  0  0  0  0  0  0  0  0
   32.5200   28.2970   47.3880 C   0  0  1  0  0  0  0  0  0  0  0  0
   33.7260   30.0550   47.5400 H   0  0  0  0  0  0  0  0  0  0  0  0
   34.9480   27.2540   47.8640 H   0  0  0  0  0  0  0  0  0  0  0  0
   31.9860   28.9550   49.3450 H   0  0  0  0  0  0  0  0  0  0  0  0
   31.8160   27.1920   49.1310 H   0  0  0  0  0  0  0  0  0  0  0  0
   32.5520   27.3370   46.8020 H   0  0  0  0  0  0  0  0  0  0  0  0
   35.7140   30.4510   49.0120 C   0  0  1  0  0  0  0  0  0  0  0  0
   35.7920   29.0210   48.7970 C   0  0  1  0  0  0  0  0  0  0  0  0
   35.9070   29.5060   50.2050 C   0  0  0  0  0  0  0  0  0  0  0  0
   34.7900   31.0520   49.1720 H   0  0  0  0  0  0  0  0  0  0  0  0
   36.7750   28.6680   48.3580 H   0  0  0  0  0  0  0  0  0  0  0  0
   36.8670   29.5080   50.7190 H   0  0  0  0  0  0  0  0  0  0  0  0
   35.0380   29.2820   50.8580 H   0  0  0  0  0  0  0  0  0  0  0  0
   36.9010   31.3490   48.7900 C   0  0  0  0  0  0  0  0  0  0  0  0
   37.1110   32.3970   49.6880 C   0  0  0  0  0  0  0  0  0  0  0  0
   38.1920   33.2080   49.4370 C   0  0  0  0  0  0  0  0  0  0  0  0
   39.0050   32.9790   48.3550 N   0  0  0  0  0  0  0  0  0  0  0  0
   38.7690   31.9460   47.5030 C   0  0  0  0  0  0  0  0  0  0  0  0
   37.7110   31.1230   47.7160 N   0  0  0  0  0  0  0  0  0  0  0  0
   36.4780   32.5890   50.5380 H   0  0  0  0  0  0  0  0  0  0  0  0
   38.4360   34.0560   50.0910 H   0  0  0  0  0  0  0  0  0  0  0  0
   39.3970   31.7340   46.6340 H   0  0  0  0  0  0  0  0  0  0  0  0
   34.3930   28.8790   46.0090 O   0  0  0  0  0  0  0  0  0  0  0  0
   34.9680   28.0480   45.9700 H   0  0  0  0  0  0  0  0  0  0  0  0
   31.4890   29.0900   46.9190 O   0  0  0  0  0  0  0  0  0  0  0  0
   30.9310   28.4010   45.5380 C   0  0  0  0  0  0  0  0  0  0  0  0
   30.4910   29.7900   45.0600 C   0  0  0  0  0  0  0  0  0  0  0  0
   30.4400   30.8770   45.3070 H   0  0  0  0  0  0  0  0  0  0  0  0
   29.8950   29.9160   43.8510 C   0  0  0  0  0  3  0  0  0  0  0  0
   29.6960   28.7260   43.0560 C   0  0  0  0  0  3  0  0  0  0  0  0
   30.4410   27.3830   44.1890 S   0  0  0  0  0  0  0  0  0  0  0  0
  1  5  1  0  0  0  0
  1  6  1  1  0  0  0
  1  2  1  0  0  0  0
  2  7  1  6  0  0  0
  2 12  1  0  0  0  0
  2  3  1  0  0  0  0
  4  9  1  0  0  0  0
  4  3  1  0  0  0  0
  4  8  1  0  0  0  0
  5 10  1  6  0  0  0
  5  4  1  0  0  0  0
 11 14  1  6  0  0  0
 11 13  1  0  0  0  0
 12 15  1  6  0  0  0
 12 11  1  0  0  0  0
 12 13  1  0  0  0  0
 13 16  1  0  0  0  0
 13 17  1  0  0  0  0
 18 11  1  0  0  0  0
 18 19  1  0  0  0  0
 19 24  1  0  0  0  0
 20 19  2  0  0  0  0
 20 25  1  0  0  0  0
 21 20  1  0  0  0  0
 22 23  1  0  0  0  0
 22 21  2  0  0  0  0
 23 18  2  0  0  0  0
 26 22  1  0  0  0  0
 27  1  1  0  0  0  0
 28 27  1  0  0  0  0
 29  5  1  0  0  0  0
 30 29  1  0  0  0  0
 31 32  1  0  0  0  0
 31 30  2  0  0  0  0
 33 31  1  0  0  0  0
 34 33  2  0  0  0  0
 34 35  1  0  0  0  0
 35 30  1  0  0  0  0
M  END
>  <minimizedAffinity>
-4.68111467

>  <minimizedRMSD>
0.172088698

$$$$
