
 OpenBabel03272509463D

 22 23  0  0  0  0  0  0  0  0999 V2000
   34.0630   28.4790   48.6630 C   0  0  0  0  0  0  0  0  0  0  0  0
   33.1180   28.9750   48.9570 H   0  0  0  0  0  0  0  0  0  0  0  0
   34.6070   29.1870   48.0050 H   0  0  0  0  0  0  0  0  0  0  0  0
   33.8200   27.1520   47.9860 C   0  0  0  0  0  0  0  0  0  0  0  0
   33.0410   26.6440   48.6260 H   0  0  0  0  0  0  0  0  0  0  0  0
   34.6920   26.5030   47.9780 H   0  0  0  0  0  0  0  0  0  0  0  0
   33.2870   27.4140   46.6230 C   0  0  0  0  0  0  0  0  0  0  0  0
   32.4670   26.7240   45.7910 C   0  0  0  0  0  0  0  0  0  0  0  0
   32.1170   25.7690   46.2010 H   0  0  0  0  0  0  0  0  0  0  0  0
   32.1400   27.2120   44.5770 C   0  0  0  0  0  3  0  0  0  0  0  0
   32.6780   28.4300   44.2390 C   0  0  0  0  0  3  0  0  0  0  0  0
   33.7080   28.8800   45.7660 S   0  0  0  0  0  0  0  0  0  0  0  0
   34.7640   28.2670   49.8870 O   0  0  0  0  0  0  0  0  0  0  0  0
   37.3930   30.2740   51.3860 C   0  0  0  0  0  0  0  0  0  0  0  0
   38.0650   30.6980   50.2430 C   0  0  0  0  0  0  0  0  0  0  0  0
   37.5890   30.2770   49.0070 C   0  0  0  0  0  0  0  0  0  0  0  0
   36.4790   29.4670   49.0120 N   0  0  0  0  0  0  0  0  0  0  0  0
   35.8550   29.0790   50.1440 C   0  0  0  0  0  0  0  0  0  0  0  0
   36.3290   29.4950   51.3260 N   0  0  0  0  0  0  0  0  0  0  0  0
   37.7830   30.6170   52.3500 H   0  0  0  0  0  0  0  0  0  0  0  0
   38.9380   31.3340   50.2310 H   0  0  0  0  0  0  0  0  0  0  0  0
   38.0590   30.5640   48.0790 H   0  0  0  0  0  0  0  0  0  0  0  0
  1  2  1  0  0  0  0
  1 13  1  0  0  0  0
  3  1  1  0  0  0  0
  4  5  1  0  0  0  0
  4  1  1  0  0  0  0
  6  4  1  0  0  0  0
  7  4  1  0  0  0  0
  8  9  1  0  0  0  0
  8  7  2  0  0  0  0
 10  8  1  0  0  0  0
 11 10  2  0  0  0  0
 11 12  1  0  0  0  0
 12  7  1  0  0  0  0
 13 18  1  0  0  0  0
 14 20  1  0  0  0  0
 15 14  2  0  0  0  0
 16 17  2  0  0  0  0
 16 15  1  0  0  0  0
 17 18  1  0  0  0  0
 18 19  2  0  0  0  0
 19 14  1  0  0  0  0
 21 15  1  0  0  0  0
 22 16  1  0  0  0  0
M  END
>  <minimizedAffinity>
-3.57367706

>  <minimizedRMSD>
0.208656281

$$$$
