
 OpenBabel03272509463D

 22 23  0  0  0  0  0  0  0  0999 V2000
   34.1100   28.4720   48.5680 C   0  0  0  0  0  0  0  0  0  0  0  0
   33.1810   29.0350   48.7780 H   0  0  0  0  0  0  0  0  0  0  0  0
   34.7280   29.1080   47.9010 H   0  0  0  0  0  0  0  0  0  0  0  0
   33.8290   27.1200   47.9570 C   0  0  0  0  0  0  0  0  0  0  0  0
   33.0270   26.6730   48.6130 H   0  0  0  0  0  0  0  0  0  0  0  0
   34.6780   26.4430   47.9920 H   0  0  0  0  0  0  0  0  0  0  0  0
   33.3180   27.3300   46.5760 C   0  0  0  0  0  0  0  0  0  0  0  0
   33.8600   27.1670   45.3440 C   0  0  0  0  0  0  0  0  0  0  0  0
   34.8960   26.8060   45.3560 H   0  0  0  0  0  0  0  0  0  0  0  0
   33.1490   27.4390   44.2300 C   0  0  0  0  0  3  0  0  0  0  0  0
   31.8630   27.8840   44.4180 C   0  0  0  0  0  3  0  0  0  0  0  0
   31.6870   27.9030   46.3060 S   0  0  0  0  0  0  0  0  0  0  0  0
   34.7320   28.2980   49.8390 O   0  0  0  0  0  0  0  0  0  0  0  0
   37.3670   30.2480   51.4030 C   0  0  0  0  0  0  0  0  0  0  0  0
   38.0640   30.6740   50.2770 C   0  0  0  0  0  0  0  0  0  0  0  0
   37.6020   30.2740   49.0280 C   0  0  0  0  0  0  0  0  0  0  0  0
   36.4800   29.4820   49.0060 N   0  0  0  0  0  0  0  0  0  0  0  0
   35.8310   29.0910   50.1230 C   0  0  0  0  0  0  0  0  0  0  0  0
   36.2930   29.4860   51.3180 N   0  0  0  0  0  0  0  0  0  0  0  0
   37.7460   30.5740   52.3770 H   0  0  0  0  0  0  0  0  0  0  0  0
   38.9470   31.2960   50.2860 H   0  0  0  0  0  0  0  0  0  0  0  0
   38.0910   30.5640   48.1110 H   0  0  0  0  0  0  0  0  0  0  0  0
  1  2  1  0  0  0  0
  1 13  1  0  0  0  0
  3  1  1  0  0  0  0
  4  6  1  0  0  0  0
  4  1  1  0  0  0  0
  4  5  1  0  0  0  0
  7  4  1  0  0  0  0
  8  9  1  0  0  0  0
  8  7  2  0  0  0  0
 10 11  2  0  0  0  0
 10  8  1  0  0  0  0
 11 12  1  0  0  0  0
 12  7  1  0  0  0  0
 13 18  1  0  0  0  0
 14 20  1  0  0  0  0
 15 21  1  0  0  0  0
 15 14  2  0  0  0  0
 16 15  1  0  0  0  0
 17 16  2  0  0  0  0
 17 18  1  0  0  0  0
 18 19  2  0  0  0  0
 19 14  1  0  0  0  0
 22 16  1  0  0  0  0
M  END
>  <minimizedAffinity>
-3.64980435

>  <minimizedRMSD>
0.177560583

$$$$
