
 OpenBabel03272510343D

 25 27  0  0  0  0  0  0  0  0999 V2000
   37.2720   30.8650   47.0240 C   0  0  0  0  0  0  0  0  0  0  0  0
   37.5340   30.9580   48.3740 C   0  0  0  0  0  0  0  0  0  0  0  0
   36.6290   30.4910   49.3070 C   0  0  0  0  0  0  0  0  0  0  0  0
   35.4560   29.9290   48.8620 C   0  0  0  0  0  0  0  0  0  0  0  0
   35.1700   29.8230   47.5180 C   0  0  0  0  0  0  0  0  0  0  0  0
   36.0830   30.2940   46.5940 C   0  0  0  0  0  0  0  0  0  0  0  0
   38.4710   31.4070   48.7350 H   0  0  0  0  0  0  0  0  0  0  0  0
   36.8330   30.5650   50.3690 H   0  0  0  0  0  0  0  0  0  0  0  0
   34.6940   29.5370   49.5310 H   0  0  0  0  0  0  0  0  0  0  0  0
   34.2690   29.3950   47.0800 H   0  0  0  0  0  0  0  0  0  0  0  0
   40.3700   31.0280   45.1350 C   0  0  0  0  0  0  0  0  0  0  0  0
   40.2900   32.2250   44.4260 C   0  0  0  0  0  0  0  0  0  0  0  0
   39.1240   32.9900   44.6150 C   0  0  0  0  0  0  0  0  0  0  0  0
   38.1610   32.5360   45.4560 N   0  0  0  0  0  0  0  0  0  0  0  0
   38.2800   31.3790   46.1170 C   0  0  0  0  0  0  0  0  0  0  0  0
   39.3980   30.6220   45.9520 N   0  0  0  0  0  0  0  0  0  0  0  0
   41.2790   30.4280   44.9910 H   0  0  0  0  0  0  0  0  0  0  0  0
   41.1120   32.5130   43.7700 H   0  0  0  0  0  0  0  0  0  0  0  0
   39.0660   33.9140   44.0630 H   0  0  0  0  0  0  0  0  0  0  0  0
   35.8320   30.2100   45.1440 C   0  0  0  0  0  0  0  0  0  0  0  0
   34.6500   30.7280   44.5240 C   0  0  0  0  0  0  0  0  0  0  0  0
   33.8850   31.2080   45.1100 H   0  0  0  0  0  0  0  0  0  0  0  0
   34.5350   30.5870   43.1690 C   0  0  0  0  0  3  0  0  0  0  0  0
   35.5810   29.9420   42.4560 C   0  0  0  0  0  3  0  0  0  0  0  0
   36.8010   29.5010   43.7230 S   0  0  0  0  0  0  0  0  0  0  0  0
  1  2  1  0  0  0  0
  2  7  1  0  0  0  0
  2  3  2  0  0  0  0
  3  8  1  0  0  0  0
  4  3  1  0  0  0  0
  4  9  1  0  0  0  0
  5  4  2  0  0  0  0
  6  1  2  0  0  0  0
  6  5  1  0  0  0  0
 10  5  1  0  0  0  0
 11 16  1  0  0  0  0
 12 13  1  0  0  0  0
 12 11  2  0  0  0  0
 13 14  2  0  0  0  0
 14 15  1  0  0  0  0
 15  1  1  0  0  0  0
 16 15  2  0  0  0  0
 17 11  1  0  0  0  0
 18 12  1  0  0  0  0
 19 13  1  0  0  0  0
 20  6  1  0  0  0  0
 21 22  1  0  0  0  0
 21 20  2  0  0  0  0
 23 21  1  0  0  0  0
 24 23  2  0  0  0  0
 24 25  1  0  0  0  0
 25 20  1  0  0  0  0
M  END
>  <minimizedAffinity>
-4.44524574

>  <minimizedRMSD>
5.55033398

$$$$
