
 OpenBabel03272510033D

 18 19  0  0  0  0  0  0  0  0999 V2000
   38.9330   22.9650   34.9150 C   0  0  0  0  0  0  0  0  0  0  0  0
   38.4230   24.0860   34.2270 C   0  0  0  0  0  0  0  0  0  0  0  0
   37.8650   25.0910   35.0000 C   0  0  0  0  0  0  0  0  0  0  0  0
   37.8300   24.9660   36.3470 N   0  0  0  0  0  0  0  0  0  0  0  0
   38.3310   23.8740   36.9700 C   0  0  0  0  0  0  0  0  0  0  0  0
   38.8740   22.8910   36.2410 N   0  0  0  0  0  0  0  0  0  0  0  0
   39.3770   22.1600   34.3320 H   0  0  0  0  0  0  0  0  0  0  0  0
   38.4900   24.1040   33.1690 H   0  0  0  0  0  0  0  0  0  0  0  0
   37.3240   26.2680   34.3590 C   0  0  0  0  0  0  0  0  0  0  0  0
   36.9060   27.4790   34.7780 C   0  0  0  0  0  0  0  0  0  0  0  0
   36.9920   27.6130   35.8600 H   0  0  0  0  0  0  0  0  0  0  0  0
   36.4370   28.3980   33.9120 C   0  0  0  0  0  3  0  0  0  0  0  0
   36.4110   28.0290   32.5770 C   0  0  0  0  0  3  0  0  0  0  0  0
   37.0920   26.2920   32.6090 S   0  0  0  0  0  0  0  0  0  0  0  0
   38.2550   23.8090   38.4460 C   0  0  0  0  0  0  0  0  0  0  0  0
   37.3580   22.8550   38.8970 F   0  0  0  0  0  0  0  0  0  0  0  0
   39.4820   23.4850   39.0010 F   0  0  0  0  0  0  0  0  0  0  0  0
   37.9030   25.0150   39.0170 F   0  0  0  0  0  0  0  0  0  0  0  0
  1  6  1  0  0  0  0
  2  1  2  0  0  0  0
  2  3  1  0  0  0  0
  3  4  2  0  0  0  0
  4  5  1  0  0  0  0
  5 15  1  0  0  0  0
  6  5  2  0  0  0  0
  7  1  1  0  0  0  0
  8  2  1  0  0  0  0
  9 10  2  0  0  0  0
  9  3  1  0  0  0  0
 10 11  1  0  0  0  0
 12 10  1  0  0  0  0
 13 14  1  0  0  0  0
 13 12  2  0  0  0  0
 14  9  1  0  0  0  0
 15 16  1  0  0  0  0
 15 17  1  0  0  0  0
 15 18  1  0  0  0  0
M  END
>  <minimizedAffinity>
-4.88840961

$$$$

 OpenBabel03272510033D

 18 19  0  0  0  0  0  0  0  0999 V2000
   39.3280   24.3630   34.7320 C   0  0  0  0  0  0  0  0  0  0  0  0
   38.6200   23.3920   33.9920 C   0  0  0  0  0  0  0  0  0  0  0  0
   37.8140   22.5250   34.7110 C   0  0  0  0  0  0  0  0  0  0  0  0
   37.7340   22.6370   36.0570 N   0  0  0  0  0  0  0  0  0  0  0  0
   38.4290   23.5820   36.7310 C   0  0  0  0  0  0  0  0  0  0  0  0
   39.2150   24.4290   36.0550 N   0  0  0  0  0  0  0  0  0  0  0  0
   39.9690   25.0570   34.1930 H   0  0  0  0  0  0  0  0  0  0  0  0
   38.7400   23.3730   32.9390 H   0  0  0  0  0  0  0  0  0  0  0  0
   37.0610   21.5070   34.0140 C   0  0  0  0  0  0  0  0  0  0  0  0
   35.9320   20.8140   34.2620 C   0  0  0  0  0  0  0  0  0  0  0  0
   35.4660   21.0770   35.2160 H   0  0  0  0  0  0  0  0  0  0  0  0
   35.4640   19.8990   33.3910 C   0  0  0  0  0  3  0  0  0  0  0  0
   36.2050   19.7150   32.2350 C   0  0  0  0  0  3  0  0  0  0  0  0
   37.6160   20.9160   32.4450 S   0  0  0  0  0  0  0  0  0  0  0  0
   38.2910   23.6410   38.2030 C   0  0  0  0  0  0  0  0  0  0  0  0
   39.4600   23.3060   38.8660 F   0  0  0  0  0  0  0  0  0  0  0  0
   37.9510   24.9150   38.6280 F   0  0  0  0  0  0  0  0  0  0  0  0
   37.2910   22.8180   38.6800 F   0  0  0  0  0  0  0  0  0  0  0  0
  1  6  1  0  0  0  0
  2  3  1  0  0  0  0
  2  1  2  0  0  0  0
  3  4  2  0  0  0  0
  4  5  1  0  0  0  0
  5 15  1  0  0  0  0
  6  5  2  0  0  0  0
  7  1  1  0  0  0  0
  8  2  1  0  0  0  0
  9 10  2  0  0  0  0
  9  3  1  0  0  0  0
 10 11  1  0  0  0  0
 12 10  1  0  0  0  0
 13 14  1  0  0  0  0
 13 12  2  0  0  0  0
 14  9  1  0  0  0  0
 15 17  1  0  0  0  0
 15 18  1  0  0  0  0
 15 16  1  0  0  0  0
M  END
>  <minimizedAffinity>
-4.6897831

$$$$

 OpenBabel03272510033D

 18 19  0  0  0  0  0  0  0  0999 V2000
   38.3150   23.6610   38.5250 C   0  0  0  0  0  0  0  0  0  0  0  0
   37.7890   24.4620   37.4900 C   0  0  0  0  0  0  0  0  0  0  0  0
   38.4830   24.4670   36.2910 C   0  0  0  0  0  0  0  0  0  0  0  0
   39.6070   23.7240   36.1590 N   0  0  0  0  0  0  0  0  0  0  0  0
   40.0790   22.9680   37.1770 C   0  0  0  0  0  0  0  0  0  0  0  0
   39.4240   22.9510   38.3440 N   0  0  0  0  0  0  0  0  0  0  0  0
   37.7900   23.6390   39.4780 H   0  0  0  0  0  0  0  0  0  0  0  0
   36.9030   25.0140   37.6770 H   0  0  0  0  0  0  0  0  0  0  0  0
   37.9990   25.2650   35.1880 C   0  0  0  0  0  0  0  0  0  0  0  0
   37.4760   26.5010   35.0590 C   0  0  0  0  0  0  0  0  0  0  0  0
   37.3930   27.0350   36.0100 H   0  0  0  0  0  0  0  0  0  0  0  0
   37.1070   26.9850   33.8570 C   0  0  0  0  0  3  0  0  0  0  0  0
   37.2960   26.1460   32.7710 C   0  0  0  0  0  3  0  0  0  0  0  0
   38.0310   24.6170   33.5460 S   0  0  0  0  0  0  0  0  0  0  0  0
   41.3150   22.1840   36.9560 C   0  0  0  0  0  0  0  0  0  0  0  0
   41.5230   21.2230   37.9320 F   0  0  0  0  0  0  0  0  0  0  0  0
   41.2780   21.5120   35.7460 F   0  0  0  0  0  0  0  0  0  0  0  0
   42.4460   22.9730   36.9010 F   0  0  0  0  0  0  0  0  0  0  0  0
  1  7  1  0  0  0  0
  2  8  1  0  0  0  0
  2  1  2  0  0  0  0
  3  2  1  0  0  0  0
  4  3  2  0  0  0  0
  4  5  1  0  0  0  0
  5  6  2  0  0  0  0
  6  1  1  0  0  0  0
  9  3  1  0  0  0  0
 10  9  2  0  0  0  0
 10 11  1  0  0  0  0
 12 10  1  0  0  0  0
 13 14  1  0  0  0  0
 13 12  2  0  0  0  0
 14  9  1  0  0  0  0
 15  5  1  0  0  0  0
 15 16  1  0  0  0  0
 17 15  1  0  0  0  0
 18 15  1  0  0  0  0
M  END
>  <minimizedAffinity>
-4.48009396

$$$$

 OpenBabel03272510033D

 18 19  0  0  0  0  0  0  0  0999 V2000
   37.3960   23.5070   32.4010 C   0  0  0  0  0  0  0  0  0  0  0  0
   38.0550   23.6690   33.6380 C   0  0  0  0  0  0  0  0  0  0  0  0
   37.8680   22.6700   34.5790 C   0  0  0  0  0  0  0  0  0  0  0  0
   37.0850   21.6050   34.2870 N   0  0  0  0  0  0  0  0  0  0  0  0
   36.4710   21.4860   33.0870 C   0  0  0  0  0  0  0  0  0  0  0  0
   36.6380   22.4410   32.1650 N   0  0  0  0  0  0  0  0  0  0  0  0
   37.5250   24.2770   31.6430 H   0  0  0  0  0  0  0  0  0  0  0  0
   38.6490   24.5340   33.7850 H   0  0  0  0  0  0  0  0  0  0  0  0
   38.5140   22.7730   35.8680 C   0  0  0  0  0  0  0  0  0  0  0  0
   39.7130   22.4130   36.3690 C   0  0  0  0  0  0  0  0  0  0  0  0
   40.3580   21.9250   35.6330 H   0  0  0  0  0  0  0  0  0  0  0  0
   40.0360   22.6530   37.6550 C   0  0  0  0  0  3  0  0  0  0  0  0
   39.0740   23.2860   38.4240 C   0  0  0  0  0  3  0  0  0  0  0  0
   37.6680   23.5280   37.2220 S   0  0  0  0  0  0  0  0  0  0  0  0
   35.6300   20.2940   32.8430 C   0  0  0  0  0  0  0  0  0  0  0  0
   34.3790   20.6120   32.3420 F   0  0  0  0  0  0  0  0  0  0  0  0
   36.2160   19.4430   31.9200 F   0  0  0  0  0  0  0  0  0  0  0  0
   35.4430   19.5290   33.9770 F   0  0  0  0  0  0  0  0  0  0  0  0
  1  2  1  0  0  0  0
  2  8  1  0  0  0  0
  2  3  2  0  0  0  0
  3  9  1  0  0  0  0
  4  3  1  0  0  0  0
  5  4  2  0  0  0  0
  6  1  2  0  0  0  0
  6  5  1  0  0  0  0
  7  1  1  0  0  0  0
  9 10  2  0  0  0  0
  9 14  1  0  0  0  0
 10 12  1  0  0  0  0
 11 10  1  0  0  0  0
 12 13  2  0  0  0  0
 14 13  1  0  0  0  0
 15  5  1  0  0  0  0
 15 18  1  0  0  0  0
 16 15  1  0  0  0  0
 17 15  1  0  0  0  0
M  END
>  <minimizedAffinity>
-4.39263678

$$$$

 OpenBabel03272510033D

 18 19  0  0  0  0  0  0  0  0999 V2000
   38.2870   27.4180   35.6160 C   0  0  0  0  0  0  0  0  0  0  0  0
   38.0650   26.9540   34.3020 C   0  0  0  0  0  0  0  0  0  0  0  0
   37.8760   25.5900   34.1460 C   0  0  0  0  0  0  0  0  0  0  0  0
   37.9080   24.7760   35.2270 N   0  0  0  0  0  0  0  0  0  0  0  0
   38.1230   25.2610   36.4720 C   0  0  0  0  0  0  0  0  0  0  0  0
   38.3090   26.5750   36.6440 N   0  0  0  0  0  0  0  0  0  0  0  0
   38.4380   28.4840   35.7680 H   0  0  0  0  0  0  0  0  0  0  0  0
   38.0560   27.6590   33.5110 H   0  0  0  0  0  0  0  0  0  0  0  0
   37.6450   25.0480   32.8270 C   0  0  0  0  0  0  0  0  0  0  0  0
   36.5630   24.8650   32.0440 C   0  0  0  0  0  0  0  0  0  0  0  0
   35.6320   25.2040   32.5090 H   0  0  0  0  0  0  0  0  0  0  0  0
   36.6680   24.3150   30.8190 C   0  0  0  0  0  3  0  0  0  0  0  0
   37.9420   23.9530   30.4130 C   0  0  0  0  0  3  0  0  0  0  0  0
   38.9990   24.4350   31.8730 S   0  0  0  0  0  0  0  0  0  0  0  0
   38.1450   24.3080   37.6030 C   0  0  0  0  0  0  0  0  0  0  0  0
   37.1310   23.3670   37.5350 F   0  0  0  0  0  0  0  0  0  0  0  0
   39.3340   23.5990   37.6440 F   0  0  0  0  0  0  0  0  0  0  0  0
   38.0510   24.9330   38.8310 F   0  0  0  0  0  0  0  0  0  0  0  0
  1  7  1  0  0  0  0
  1  6  1  0  0  0  0
  2  1  2  0  0  0  0
  3  2  1  0  0  0  0
  3  4  2  0  0  0  0
  4  5  1  0  0  0  0
  5  6  2  0  0  0  0
  5 15  1  0  0  0  0
  8  2  1  0  0  0  0
  9  3  1  0  0  0  0
 10 11  1  0  0  0  0
 10  9  2  0  0  0  0
 12 10  1  0  0  0  0
 13 12  2  0  0  0  0
 13 14  1  0  0  0  0
 14  9  1  0  0  0  0
 15 17  1  0  0  0  0
 15 18  1  0  0  0  0
 16 15  1  0  0  0  0
M  END
>  <minimizedAffinity>
-4.355196

$$$$

 OpenBabel03272510033D

 18 19  0  0  0  0  0  0  0  0999 V2000
   36.1970   27.6520   31.8840 C   0  0  0  0  0  0  0  0  0  0  0  0
   36.0900   26.3190   31.4330 C   0  0  0  0  0  0  0  0  0  0  0  0
   36.6400   25.3400   32.2440 C   0  0  0  0  0  0  0  0  0  0  0  0
   37.2420   25.6860   33.4060 N   0  0  0  0  0  0  0  0  0  0  0  0
   37.3230   26.9760   33.8040 C   0  0  0  0  0  0  0  0  0  0  0  0
   36.7980   27.9380   33.0340 N   0  0  0  0  0  0  0  0  0  0  0  0
   35.7730   28.4410   31.2660 H   0  0  0  0  0  0  0  0  0  0  0  0
   35.6030   26.1350   30.5090 H   0  0  0  0  0  0  0  0  0  0  0  0
   36.5660   23.9540   31.8410 C   0  0  0  0  0  0  0  0  0  0  0  0
   35.5710   23.1030   31.5200 C   0  0  0  0  0  0  0  0  0  0  0  0
   34.5790   23.5600   31.5740 H   0  0  0  0  0  0  0  0  0  0  0  0
   35.8240   21.8260   31.1740 C   0  0  0  0  0  3  0  0  0  0  0  0
   37.1550   21.4430   31.1660 C   0  0  0  0  0  3  0  0  0  0  0  0
   38.0430   23.0000   31.6810 S   0  0  0  0  0  0  0  0  0  0  0  0
   37.9970   27.2760   35.0870 C   0  0  0  0  0  0  0  0  0  0  0  0
   39.3650   27.4410   34.9500 F   0  0  0  0  0  0  0  0  0  0  0  0
   37.5160   28.4470   35.6490 F   0  0  0  0  0  0  0  0  0  0  0  0
   37.7890   26.3010   36.0410 F   0  0  0  0  0  0  0  0  0  0  0  0
  1  6  1  0  0  0  0
  2  1  2  0  0  0  0
  2  3  1  0  0  0  0
  3  4  2  0  0  0  0
  4  5  1  0  0  0  0
  5 15  1  0  0  0  0
  6  5  2  0  0  0  0
  7  1  1  0  0  0  0
  8  2  1  0  0  0  0
  9  3  1  0  0  0  0
 10 11  1  0  0  0  0
 10  9  2  0  0  0  0
 12 10  1  0  0  0  0
 13 12  2  0  0  0  0
 13 14  1  0  0  0  0
 14  9  1  0  0  0  0
 15 17  1  0  0  0  0
 15 18  1  0  0  0  0
 16 15  1  0  0  0  0
M  END
>  <minimizedAffinity>
-4.23595667

$$$$

 OpenBabel03272510033D

 18 19  0  0  0  0  0  0  0  0999 V2000
   37.2620   27.5390   34.4880 C   0  0  0  0  0  0  0  0  0  0  0  0
   37.7740   26.7460   35.5370 C   0  0  0  0  0  0  0  0  0  0  0  0
   37.9520   25.3980   35.2680 C   0  0  0  0  0  0  0  0  0  0  0  0
   37.6400   24.9060   34.0470 N   0  0  0  0  0  0  0  0  0  0  0  0
   37.1520   25.7010   33.0670 C   0  0  0  0  0  0  0  0  0  0  0  0
   36.9710   27.0060   33.3060 N   0  0  0  0  0  0  0  0  0  0  0  0
   37.1120   28.6010   34.6710 H   0  0  0  0  0  0  0  0  0  0  0  0
   37.9920   27.2110   36.4640 H   0  0  0  0  0  0  0  0  0  0  0  0
   38.4730   24.5280   36.2980 C   0  0  0  0  0  0  0  0  0  0  0  0
   38.1470   24.2580   37.5780 C   0  0  0  0  0  0  0  0  0  0  0  0
   37.2830   24.8280   37.9320 H   0  0  0  0  0  0  0  0  0  0  0  0
   38.8460   23.3660   38.3070 C   0  0  0  0  0  3  0  0  0  0  0  0
   39.9090   22.7480   37.6700 C   0  0  0  0  0  3  0  0  0  0  0  0
   39.8710   23.5030   35.9640 S   0  0  0  0  0  0  0  0  0  0  0  0
   36.8330   25.0890   31.7580 C   0  0  0  0  0  0  0  0  0  0  0  0
   36.9380   23.7080   31.7700 F   0  0  0  0  0  0  0  0  0  0  0  0
   35.5360   25.3790   31.3670 F   0  0  0  0  0  0  0  0  0  0  0  0
   37.6360   25.5590   30.7380 F   0  0  0  0  0  0  0  0  0  0  0  0
  1  7  1  0  0  0  0
  1  2  1  0  0  0  0
  2  8  1  0  0  0  0
  3  2  2  0  0  0  0
  3  9  1  0  0  0  0
  4  3  1  0  0  0  0
  5  6  1  0  0  0  0
  5  4  2  0  0  0  0
  6  1  2  0  0  0  0
  9 10  2  0  0  0  0
 10 11  1  0  0  0  0
 10 12  1  0  0  0  0
 13 12  2  0  0  0  0
 14  9  1  0  0  0  0
 14 13  1  0  0  0  0
 15 16  1  0  0  0  0
 15  5  1  0  0  0  0
 17 15  1  0  0  0  0
 18 15  1  0  0  0  0
M  END
>  <minimizedAffinity>
-4.2303791

$$$$

 OpenBabel03272510033D

 18 19  0  0  0  0  0  0  0  0999 V2000
   36.0450   29.6630   31.8490 C   0  0  0  0  0  0  0  0  0  0  0  0
   35.5280   30.5110   32.8520 C   0  0  0  0  0  0  0  0  0  0  0  0
   35.5750   30.0380   34.1530 C   0  0  0  0  0  0  0  0  0  0  0  0
   36.1010   28.8170   34.4100 N   0  0  0  0  0  0  0  0  0  0  0  0
   36.5880   28.0350   33.4190 C   0  0  0  0  0  0  0  0  0  0  0  0
   36.5510   28.4730   32.1550 N   0  0  0  0  0  0  0  0  0  0  0  0
   36.0210   30.0100   30.8180 H   0  0  0  0  0  0  0  0  0  0  0  0
   35.1330   31.4520   32.5650 H   0  0  0  0  0  0  0  0  0  0  0  0
   35.0620   30.8550   35.2290 C   0  0  0  0  0  0  0  0  0  0  0  0
   35.5960   31.7270   36.1070 C   0  0  0  0  0  0  0  0  0  0  0  0
   36.6760   31.8530   35.9860 H   0  0  0  0  0  0  0  0  0  0  0  0
   34.8350   32.3550   37.0240 C   0  0  0  0  0  3  0  0  0  0  0  0
   33.4830   32.0560   37.0110 C   0  0  0  0  0  3  0  0  0  0  0  0
   33.3400   30.8240   35.6180 S   0  0  0  0  0  0  0  0  0  0  0  0
   37.1470   26.7120   33.7780 C   0  0  0  0  0  0  0  0  0  0  0  0
   38.5280   26.6690   33.6860 F   0  0  0  0  0  0  0  0  0  0  0  0
   36.8300   26.3670   35.0810 F   0  0  0  0  0  0  0  0  0  0  0  0
   36.6450   25.6900   32.9970 F   0  0  0  0  0  0  0  0  0  0  0  0
  1  6  2  0  0  0  0
  1  2  1  0  0  0  0
  2  3  2  0  0  0  0
  3  4  1  0  0  0  0
  3  9  1  0  0  0  0
  5 15  1  0  0  0  0
  5  4  2  0  0  0  0
  6  5  1  0  0  0  0
  7  1  1  0  0  0  0
  8  2  1  0  0  0  0
  9 14  1  0  0  0  0
  9 10  2  0  0  0  0
 10 12  1  0  0  0  0
 11 10  1  0  0  0  0
 13 12  2  0  0  0  0
 14 13  1  0  0  0  0
 15 17  1  0  0  0  0
 16 15  1  0  0  0  0
 18 15  1  0  0  0  0
M  END
>  <minimizedAffinity>
-4.13275385

$$$$

 OpenBabel03272510033D

 18 19  0  0  0  0  0  0  0  0999 V2000
   37.7170   27.2140   31.6190 C   0  0  0  0  0  0  0  0  0  0  0  0
   37.2640   25.9090   31.3290 C   0  0  0  0  0  0  0  0  0  0  0  0
   37.1680   25.0310   32.3960 C   0  0  0  0  0  0  0  0  0  0  0  0
   37.5000   25.4430   33.6420 N   0  0  0  0  0  0  0  0  0  0  0  0
   37.9290   26.7040   33.8790 C   0  0  0  0  0  0  0  0  0  0  0  0
   38.0310   27.5680   32.8610 N   0  0  0  0  0  0  0  0  0  0  0  0
   37.8020   27.9240   30.7990 H   0  0  0  0  0  0  0  0  0  0  0  0
   37.0250   25.6680   30.3250 H   0  0  0  0  0  0  0  0  0  0  0  0
   36.7110   23.6790   32.1690 C   0  0  0  0  0  0  0  0  0  0  0  0
   35.7810   23.1030   31.3820 C   0  0  0  0  0  0  0  0  0  0  0  0
   35.2360   23.8210   30.7630 H   0  0  0  0  0  0  0  0  0  0  0  0
   35.5800   21.7710   31.3920 C   0  0  0  0  0  3  0  0  0  0  0  0
   36.3790   21.0340   32.2510 C   0  0  0  0  0  3  0  0  0  0  0  0
   37.4430   22.3390   33.0560 S   0  0  0  0  0  0  0  0  0  0  0  0
   38.2750   27.0810   35.2670 C   0  0  0  0  0  0  0  0  0  0  0  0
   37.6590   28.2520   35.6760 F   0  0  0  0  0  0  0  0  0  0  0  0
   37.8890   26.1010   36.1670 F   0  0  0  0  0  0  0  0  0  0  0  0
   39.6330   27.2360   35.4570 F   0  0  0  0  0  0  0  0  0  0  0  0
  1  6  1  0  0  0  0
  2  1  2  0  0  0  0
  2  3  1  0  0  0  0
  3  4  2  0  0  0  0
  4  5  1  0  0  0  0
  5 15  1  0  0  0  0
  6  5  2  0  0  0  0
  7  1  1  0  0  0  0
  8  2  1  0  0  0  0
  9  3  1  0  0  0  0
  9 14  1  0  0  0  0
 10 12  1  0  0  0  0
 10  9  2  0  0  0  0
 11 10  1  0  0  0  0
 12 13  2  0  0  0  0
 13 14  1  0  0  0  0
 15 18  1  0  0  0  0
 15 16  1  0  0  0  0
 15 17  1  0  0  0  0
M  END
>  <minimizedAffinity>
-4.10703564

$$$$
