
 OpenBabel03272508273D

 35 38  0  0  1  0  0  0  0  0999 V2000
   33.5820   28.8160   47.1790 C   0  0  2  0  0  0  0  0  0  0  0  0
   34.3510   28.0130   48.2160 C   0  0  2  0  0  0  0  0  0  0  0  0
   33.4470   27.7510   49.2110 O   0  0  0  0  0  0  0  0  0  0  0  0
   32.1790   27.8140   48.7310 C   0  0  0  0  0  0  0  0  0  0  0  0
   32.2460   28.0880   47.2590 C   0  0  1  0  0  0  0  0  0  0  0  0
   33.4230   29.8600   47.4570 H   0  0  0  0  0  0  0  0  0  0  0  0
   34.6850   27.0730   47.7370 H   0  0  0  0  0  0  0  0  0  0  0  0
   31.6840   28.6990   49.2230 H   0  0  0  0  0  0  0  0  0  0  0  0
   31.5430   26.9380   48.9730 H   0  0  0  0  0  0  0  0  0  0  0  0
   32.2980   27.1400   46.6550 H   0  0  0  0  0  0  0  0  0  0  0  0
   35.4040   30.2640   48.9160 C   0  0  1  0  0  0  0  0  0  0  0  0
   35.4940   28.8330   48.7130 C   0  0  1  0  0  0  0  0  0  0  0  0
   35.5670   29.3280   50.1210 C   0  0  0  0  0  0  0  0  0  0  0  0
   34.4730   30.8620   49.0460 H   0  0  0  0  0  0  0  0  0  0  0  0
   36.4900   28.4810   48.3040 H   0  0  0  0  0  0  0  0  0  0  0  0
   36.5120   29.3370   50.6610 H   0  0  0  0  0  0  0  0  0  0  0  0
   34.6810   29.1050   50.7500 H   0  0  0  0  0  0  0  0  0  0  0  0
   36.5930   31.1660   48.7220 C   0  0  0  0  0  0  0  0  0  0  0  0
   36.8890   32.0910   49.7250 C   0  0  0  0  0  0  0  0  0  0  0  0
   37.9680   32.9110   49.4990 C   0  0  0  0  0  0  0  0  0  0  0  0
   38.6980   32.8070   48.3410 N   0  0  0  0  0  0  0  0  0  0  0  0
   38.3790   31.8930   47.3870 C   0  0  0  0  0  0  0  0  0  0  0  0
   37.3210   31.0650   47.5720 N   0  0  0  0  0  0  0  0  0  0  0  0
   36.3210   32.1840   50.6350 H   0  0  0  0  0  0  0  0  0  0  0  0
   38.2770   33.6670   50.2330 H   0  0  0  0  0  0  0  0  0  0  0  0
   38.9400   31.7820   46.4550 H   0  0  0  0  0  0  0  0  0  0  0  0
   34.1230   28.7250   45.9090 O   0  0  0  0  0  0  0  0  0  0  0  0
   34.7110   27.9040   45.8590 H   0  0  0  0  0  0  0  0  0  0  0  0
   31.2080   28.8740   46.7950 O   0  0  0  0  0  0  0  0  0  0  0  0
   29.8370   27.9750   46.8800 C   0  0  0  0  0  0  0  0  0  0  0  0
   29.0730   29.2370   47.2970 C   0  0  0  0  0  0  0  0  0  0  0  0
   29.1460   30.3290   47.5170 H   0  0  0  0  0  0  0  0  0  0  0  0
   27.7440   29.1560   47.5430 C   0  0  0  0  0  3  0  0  0  0  0  0
   27.0970   27.8710   47.4020 C   0  0  0  0  0  3  0  0  0  0  0  0
   28.5610   26.7640   46.8790 S   0  0  0  0  0  0  0  0  0  0  0  0
  1  5  1  0  0  0  0
  1  6  1  1  0  0  0
  1  2  1  0  0  0  0
  2  7  1  6  0  0  0
  2 12  1  0  0  0  0
  2  3  1  0  0  0  0
  4  9  1  0  0  0  0
  4  3  1  0  0  0  0
  4  8  1  0  0  0  0
  5 10  1  6  0  0  0
  5  4  1  0  0  0  0
 11 14  1  6  0  0  0
 11 13  1  0  0  0  0
 12 15  1  6  0  0  0
 12 11  1  0  0  0  0
 12 13  1  0  0  0  0
 13 16  1  0  0  0  0
 13 17  1  0  0  0  0
 18 11  1  0  0  0  0
 18 19  1  0  0  0  0
 19 24  1  0  0  0  0
 20 19  2  0  0  0  0
 20 25  1  0  0  0  0
 21 20  1  0  0  0  0
 22 23  1  0  0  0  0
 22 21  2  0  0  0  0
 23 18  2  0  0  0  0
 26 22  1  0  0  0  0
 27  1  1  0  0  0  0
 28 27  1  0  0  0  0
 29 30  1  0  0  0  0
 29  5  1  0  0  0  0
 30 31  2  0  0  0  0
 31 32  1  0  0  0  0
 31 33  1  0  0  0  0
 34 33  2  0  0  0  0
 35 30  1  0  0  0  0
 35 34  1  0  0  0  0
M  END
>  <minimizedAffinity>
-5.33550739

>  <minimizedRMSD>
1.37918389

$$$$
