
 OpenBabel03272508273D

 35 38  0  0  1  0  0  0  0  0999 V2000
   33.7490   28.8440   47.2370 C   0  0  2  0  0  0  0  0  0  0  0  0
   34.4870   28.0890   48.3310 C   0  0  2  0  0  0  0  0  0  0  0  0
   33.5540   27.8720   49.3100 O   0  0  0  0  0  0  0  0  0  0  0  0
   32.3000   27.9130   48.7910 C   0  0  0  0  0  0  0  0  0  0  0  0
   32.4110   28.1200   47.3110 C   0  0  1  0  0  0  0  0  0  0  0  0
   33.5830   29.9000   47.4620 H   0  0  0  0  0  0  0  0  0  0  0  0
   34.8340   27.1280   47.9060 H   0  0  0  0  0  0  0  0  0  0  0  0
   31.7920   28.8190   49.2280 H   0  0  0  0  0  0  0  0  0  0  0  0
   31.6570   27.0490   49.0540 H   0  0  0  0  0  0  0  0  0  0  0  0
   32.4790   27.1460   46.7520 H   0  0  0  0  0  0  0  0  0  0  0  0
   35.5300   30.3730   48.9320 C   0  0  1  0  0  0  0  0  0  0  0  0
   35.6150   28.9310   48.8230 C   0  0  1  0  0  0  0  0  0  0  0  0
   35.6340   29.5140   50.1990 C   0  0  0  0  0  0  0  0  0  0  0  0
   34.6000   30.9840   48.9850 H   0  0  0  0  0  0  0  0  0  0  0  0
   36.6240   28.5480   48.4800 H   0  0  0  0  0  0  0  0  0  0  0  0
   36.5560   29.5510   50.7780 H   0  0  0  0  0  0  0  0  0  0  0  0
   34.7200   29.3370   50.8030 H   0  0  0  0  0  0  0  0  0  0  0  0
   36.7350   31.2520   48.7320 C   0  0  0  0  0  0  0  0  0  0  0  0
   37.0070   32.2260   49.6950 C   0  0  0  0  0  0  0  0  0  0  0  0
   38.1020   33.0240   49.4630 C   0  0  0  0  0  0  0  0  0  0  0  0
   38.8700   32.8520   48.3380 N   0  0  0  0  0  0  0  0  0  0  0  0
   38.5730   31.8920   47.4240 C   0  0  0  0  0  0  0  0  0  0  0  0
   37.5000   31.0840   47.6150 N   0  0  0  0  0  0  0  0  0  0  0  0
   36.4090   32.3720   50.5790 H   0  0  0  0  0  0  0  0  0  0  0  0
   38.3940   33.8150   50.1670 H   0  0  0  0  0  0  0  0  0  0  0  0
   39.1640   31.7270   46.5190 H   0  0  0  0  0  0  0  0  0  0  0  0
   34.3260   28.6950   45.9890 O   0  0  0  0  0  0  0  0  0  0  0  0
   34.9150   27.8730   45.9940 H   0  0  0  0  0  0  0  0  0  0  0  0
   31.3870   28.8830   46.7820 O   0  0  0  0  0  0  0  0  0  0  0  0
   29.9770   28.1140   47.1190 C   0  0  0  0  0  0  0  0  0  0  0  0
   29.2310   29.4230   46.8330 C   0  0  0  0  0  0  0  0  0  0  0  0
   29.3290   30.4940   46.5370 H   0  0  0  0  0  0  0  0  0  0  0  0
   27.8820   29.4530   46.9450 C   0  0  0  0  0  3  0  0  0  0  0  0
   27.1970   28.2420   47.3350 C   0  0  0  0  0  3  0  0  0  0  0  0
   28.6560   27.0270   47.5330 S   0  0  0  0  0  0  0  0  0  0  0  0
  1  5  1  0  0  0  0
  1  6  1  1  0  0  0
  1  2  1  0  0  0  0
  2  7  1  6  0  0  0
  2 12  1  0  0  0  0
  2  3  1  0  0  0  0
  4  9  1  0  0  0  0
  4  8  1  0  0  0  0
  4  3  1  0  0  0  0
  5 10  1  6  0  0  0
  5  4  1  0  0  0  0
 11 14  1  6  0  0  0
 11 13  1  0  0  0  0
 12 15  1  6  0  0  0
 12 11  1  0  0  0  0
 12 13  1  0  0  0  0
 13 16  1  0  0  0  0
 13 17  1  0  0  0  0
 18 11  1  0  0  0  0
 18 19  1  0  0  0  0
 19 24  1  0  0  0  0
 20 19  2  0  0  0  0
 20 25  1  0  0  0  0
 21 20  1  0  0  0  0
 22 23  1  0  0  0  0
 22 21  2  0  0  0  0
 23 18  2  0  0  0  0
 26 22  1  0  0  0  0
 27 28  1  0  0  0  0
 27  1  1  0  0  0  0
 29 30  1  0  0  0  0
 29  5  1  0  0  0  0
 30 35  1  0  0  0  0
 31 33  1  0  0  0  0
 31 30  2  0  0  0  0
 32 31  1  0  0  0  0
 33 34  2  0  0  0  0
 34 35  1  0  0  0  0
M  END
>  <minimizedAffinity>
-5.3216157

>  <minimizedRMSD>
1.46145844

$$$$
