
 OpenBabel03272504223D

 36 38  0  0  1  0  0  0  0  0999 V2000
   36.8320   31.5870   48.6790 O   0  0  0  0  0  0  0  0  0  0  0  0
   38.8430   32.4150   47.8390 C   0  0  2  0  0  0  0  0  0  0  0  0
   38.1940   31.3910   48.7430 C   0  0  1  0  0  0  0  0  0  0  0  0
   38.7250   31.9140   50.0800 C   0  0  0  0  0  0  0  0  0  0  0  0
   38.3870   33.2610   49.9850 O   0  0  0  0  0  0  0  0  0  0  0  0
   38.6460   33.6640   48.6970 C   0  0  0  0  0  0  0  0  0  0  0  0
   39.9020   32.1780   47.7020 H   0  0  0  0  0  0  0  0  0  0  0  0
   38.5220   30.3560   48.5550 H   0  0  0  0  0  0  0  0  0  0  0  0
   39.8030   31.7360   50.1450 H   0  0  0  0  0  0  0  0  0  0  0  0
   38.1280   31.4260   50.8580 H   0  0  0  0  0  0  0  0  0  0  0  0
   39.5760   34.2770   48.6210 H   0  0  0  0  0  0  0  0  0  0  0  0
   37.8340   34.3100   48.2810 H   0  0  0  0  0  0  0  0  0  0  0  0
   38.1130   32.4650   46.6550 O   0  0  0  0  0  0  0  0  0  0  0  0
   38.7920   32.0060   45.5010 C   0  0  0  0  0  0  0  0  0  0  0  0
   39.3990   32.8080   44.5310 C   0  0  0  0  0  0  0  0  0  0  0  0
   39.3650   33.8790   44.6410 H   0  0  0  0  0  0  0  0  0  0  0  0
   40.0190   32.2150   43.4710 C   0  0  0  0  0  3  0  0  0  0  0  0
   40.0230   30.7730   43.3910 C   0  0  0  0  0  3  0  0  0  0  0  0
   39.1420   30.2610   44.8340 S   0  0  0  0  0  0  0  0  0  0  0  0
   35.9260   29.8490   46.9700 O   0  0  0  0  0  0  0  0  0  0  0  0
   35.9700   30.1660   48.4460 P   0  0  1  0  0  0  0  0  0  0  0  0
   36.7520   28.8710   49.2390 O   0  0  0  0  0  0  0  0  0  0  0  0
   37.4410   29.1780   49.8770 H   0  0  0  0  0  0  0  0  0  0  0  0
   34.3920   30.3310   49.0590 O   0  0  0  0  0  0  0  0  0  0  0  0
   34.1240   29.1900   49.7890 C   0  0  0  0  0  0  0  0  0  0  0  0
   33.6110   29.4590   50.7560 H   0  0  0  0  0  0  0  0  0  0  0  0
   35.0350   28.6490   50.1120 H   0  0  0  0  0  0  0  0  0  0  0  0
   33.2640   28.2190   49.0790 C   0  0  0  0  0  0  0  0  0  0  0  0
   33.8950   27.3300   48.2420 C   0  0  0  0  0  0  0  0  0  0  0  0
   33.1390   26.3880   47.5420 C   0  0  0  0  0  0  0  0  0  0  0  0
   31.7890   26.4100   47.7360 N   0  0  0  0  0  0  0  0  0  0  0  0
   31.1940   27.2910   48.5610 C   0  0  0  0  0  0  0  0  0  0  0  0
   31.9290   28.2040   49.2390 N   0  0  0  0  0  0  0  0  0  0  0  0
   34.9450   27.2350   48.0240 H   0  0  0  0  0  0  0  0  0  0  0  0
   33.5340   25.6570   46.8710 H   0  0  0  0  0  0  0  0  0  0  0  0
   30.1210   27.2200   48.6420 H   0  0  0  0  0  0  0  0  0  0  0  0
  1  3  1  0  0  0  0
  2  7  1  6  0  0  0
  2  6  1  0  0  0  0
  2  3  1  0  0  0  0
  3  8  1  6  0  0  0
  3  4  1  0  0  0  0
  4  9  1  0  0  0  0
  4 10  1  0  0  0  0
  5  4  1  0  0  0  0
  6  5  1  0  0  0  0
 11  6  1  0  0  0  0
 12  6  1  0  0  0  0
 13  2  1  0  0  0  0
 14 13  1  0  0  0  0
 15 16  1  0  0  0  0
 15 14  2  0  0  0  0
 17 15  1  0  0  0  0
 18 17  2  0  0  0  0
 18 19  1  0  0  0  0
 19 14  1  0  0  0  0
 21 20  2  6  0  0  0
 21  1  1  0  0  0  0
 21 24  1  0  0  0  0
 21 22  1  0  0  0  0
 22 23  1  0  0  0  0
 24 25  1  0  0  0  0
 25 27  1  0  0  0  0
 25 26  1  0  0  0  0
 28 33  1  0  0  0  0
 28 25  1  0  0  0  0
 29 28  2  0  0  0  0
 30 31  2  0  0  0  0
 30 29  1  0  0  0  0
 31 32  1  0  0  0  0
 32 36  1  0  0  0  0
 32 33  2  0  0  0  0
 34 29  1  0  0  0  0
 35 30  1  0  0  0  0
M  END
>  <minimizedAffinity>
-4.59305954

>  <minimizedRMSD>
0.286129564

$$$$
