
 OpenBabel03272510263D

 42 46  0  0  1  0  0  0  0  0999 V2000
   36.0750   30.2390   46.8320 C   0  0  0  0  0  0  0  0  0  0  0  0
   37.0320   30.6870   47.7100 C   0  0  0  0  0  0  0  0  0  0  0  0
   38.1080   31.4780   47.2740 C   0  0  0  0  0  0  0  0  0  0  0  0
   38.1340   31.7710   45.9090 C   0  0  0  0  0  0  0  0  0  0  0  0
   39.0730   32.5220   45.2420 N   0  0  0  0  0  0  0  0  0  0  0  0
   38.6910   32.5350   43.9560 C   0  0  0  0  0  0  0  0  0  0  0  0
   37.5820   31.8360   43.8150 N   0  0  0  0  0  0  0  0  0  0  0  0
   37.2020   31.3440   45.0050 C   0  0  0  0  0  0  0  0  0  0  0  0
   36.1490   30.5580   45.4860 C   0  0  0  0  0  0  0  0  0  0  0  0
   35.2410   29.6270   47.1620 H   0  0  0  0  0  0  0  0  0  0  0  0
   38.8770   31.8460   47.9420 H   0  0  0  0  0  0  0  0  0  0  0  0
   39.9130   32.9860   45.6610 H   0  0  0  0  0  0  0  0  0  0  0  0
   35.4040   30.2150   44.7750 H   0  0  0  0  0  0  0  0  0  0  0  0
   37.5730   30.2090   51.4070 C   0  0  0  0  0  0  0  0  0  0  0  0
   37.8430   30.6190   50.1030 C   0  0  0  0  0  0  0  0  0  0  0  0
   36.9320   30.3430   49.1170 C   0  0  0  0  0  0  0  0  0  0  0  0
   35.7880   29.6670   49.4900 N   0  0  0  0  0  0  0  0  0  0  0  0
   35.5360   29.2750   50.7550 C   0  0  0  0  0  0  0  0  0  0  0  0
   36.4160   29.5440   51.6920 N   0  0  0  0  0  0  0  0  0  0  0  0
   38.3170   30.4450   52.1610 H   0  0  0  0  0  0  0  0  0  0  0  0
   38.7330   31.1480   49.7940 H   0  0  0  0  0  0  0  0  0  0  0  0
   34.6050   28.7500   50.9370 H   0  0  0  0  0  0  0  0  0  0  0  0
   39.4100   33.2100   42.9690 O   0  0  0  0  0  0  0  0  0  0  0  0
   38.5520   31.4860   41.7000 N   0  0  0  0  0  0  0  0  0  0  0  0
   39.1440   32.8120   41.6340 C   0  0  1  0  0  0  0  0  0  0  0  0
   38.2330   33.7430   40.9860 C   0  0  0  0  0  0  0  0  0  0  0  0
   38.0170   33.3270   39.6630 O   0  0  0  0  0  0  0  0  0  0  0  0
   37.5800   32.0410   39.5230 C   0  0  0  0  0  0  0  0  0  0  0  0
   38.4090   31.0680   40.3150 C   0  0  1  0  0  0  0  0  0  0  0  0
   37.6360   31.3920   42.1020 H   0  0  0  0  0  0  0  0  0  0  0  0
   40.0680   32.6880   41.0450 H   0  0  0  0  0  0  0  0  0  0  0  0
   37.2650   33.9940   41.3280 H   0  0  0  0  0  0  0  0  0  0  0  0
   38.7910   34.7220   40.8600 H   0  0  0  0  0  0  0  0  0  0  0  0
   36.5370   31.9270   39.8770 H   0  0  0  0  0  0  0  0  0  0  0  0
   37.6780   31.7790   38.4500 H   0  0  0  0  0  0  0  0  0  0  0  0
   37.8890   30.0880   40.2380 H   0  0  0  0  0  0  0  0  0  0  0  0
   39.7600   31.0340   39.7190 C   0  0  0  0  0  0  0  0  0  0  0  0
   40.2150   31.5310   38.5730 C   0  0  0  0  0  0  0  0  0  0  0  0
   39.5150   32.0660   37.9190 H   0  0  0  0  0  0  0  0  0  0  0  0
   41.5240   31.3940   38.1890 C   0  0  0  0  0  3  0  0  0  0  0  0
   42.3300   30.6700   39.1400 C   0  0  0  0  0  3  0  0  0  0  0  0
   41.1890   30.2530   40.4750 S   0  0  0  0  0  0  0  0  0  0  0  0
  1 10  1  0  0  0  0
  1  2  1  0  0  0  0
  2 16  1  0  0  0  0
  3  2  2  0  0  0  0
  3 11  1  0  0  0  0
  4  3  1  0  0  0  0
  5 12  1  0  0  0  0
  5  4  1  0  0  0  0
  6  5  1  0  0  0  0
  7  6  2  0  0  0  0
  7  8  1  0  0  0  0
  8  9  1  0  0  0  0
  8  4  2  0  0  0  0
  9  1  2  0  0  0  0
 13  9  1  0  0  0  0
 14 19  1  0  0  0  0
 14 20  1  0  0  0  0
 15 14  2  0  0  0  0
 16 17  2  0  0  0  0
 16 15  1  0  0  0  0
 17 18  1  0  0  0  0
 18 22  1  0  0  0  0
 18 19  2  0  0  0  0
 21 15  1  0  0  0  0
 23  6  1  0  0  0  0
 24 30  1  0  0  0  0
 25 31  1  6  0  0  0
 25 24  1  0  0  0  0
 25 23  1  0  0  0  0
 26 32  1  0  0  0  0
 26 25  1  0  0  0  0
 27 26  1  0  0  0  0
 28 27  1  0  0  0  0
 28 34  1  0  0  0  0
 28 29  1  0  0  0  0
 29 36  1  6  0  0  0
 29 24  1  0  0  0  0
 33 26  1  0  0  0  0
 35 28  1  0  0  0  0
 37 29  1  0  0  0  0
 37 42  1  0  0  0  0
 38 37  2  0  0  0  0
 39 38  1  0  0  0  0
 40 38  1  0  0  0  0
 40 41  2  0  0  0  0
 41 42  1  0  0  0  0
M  END
>  <minimizedAffinity>
-5.65388632

>  <minimizedRMSD>
1.16263282

$$$$
