
 OpenBabel03272510013D

 18 19  0  0  0  0  0  0  0  0999 V2000
   38.1790   31.5500   50.1570 C   0  0  0  0  0  0  0  0  0  0  0  0
   38.5100   31.5090   48.7860 C   0  0  0  0  0  0  0  0  0  0  0  0
   37.7060   30.7250   47.9740 C   0  0  0  0  0  0  0  0  0  0  0  0
   36.6630   30.0480   48.5080 N   0  0  0  0  0  0  0  0  0  0  0  0
   36.3780   30.1150   49.8290 C   0  0  0  0  0  0  0  0  0  0  0  0
   37.1430   30.8660   50.6310 N   0  0  0  0  0  0  0  0  0  0  0  0
   38.7930   32.1590   50.8180 H   0  0  0  0  0  0  0  0  0  0  0  0
   39.3440   32.0690   48.4500 H   0  0  0  0  0  0  0  0  0  0  0  0
   37.9890   30.6380   46.5600 C   0  0  0  0  0  0  0  0  0  0  0  0
   39.1080   30.5960   45.8080 C   0  0  0  0  0  0  0  0  0  0  0  0
   40.0260   30.6360   46.3990 H   0  0  0  0  0  0  0  0  0  0  0  0
   39.0470   30.5110   44.4650 C   0  0  0  0  0  3  0  0  0  0  0  0
   37.7800   30.4710   43.9070 C   0  0  0  0  0  3  0  0  0  0  0  0
   36.6620   30.5590   45.3970 S   0  0  0  0  0  0  0  0  0  0  0  0
   35.2210   29.3450   50.3390 C   0  0  0  0  0  0  0  0  0  0  0  0
   35.3020   29.0910   51.6980 F   0  0  0  0  0  0  0  0  0  0  0  0
   34.0320   30.0270   50.1380 F   0  0  0  0  0  0  0  0  0  0  0  0
   35.0600   28.1340   49.6980 F   0  0  0  0  0  0  0  0  0  0  0  0
  1  6  1  0  0  0  0
  1  7  1  0  0  0  0
  2  1  2  0  0  0  0
  3  4  2  0  0  0  0
  3  2  1  0  0  0  0
  4  5  1  0  0  0  0
  5 15  1  0  0  0  0
  5  6  2  0  0  0  0
  8  2  1  0  0  0  0
  9  3  1  0  0  0  0
 10 11  1  0  0  0  0
 10  9  2  0  0  0  0
 12 10  1  0  0  0  0
 13 12  2  0  0  0  0
 13 14  1  0  0  0  0
 14  9  1  0  0  0  0
 15 16  1  0  0  0  0
 17 15  1  0  0  0  0
 18 15  1  0  0  0  0
M  END
>  <minimizedAffinity>
-4.97918701

>  <minimizedRMSD>
1.11490095

$$$$
