
 OpenBabel03272501053D

 27 29  0  0  1  0  0  0  0  0999 V2000
   38.6000   31.4600   47.7830 C   0  0  2  0  0  0  0  0  0  0  0  0
   37.6050   32.1230   48.7790 C   0  0  2  0  0  0  0  0  0  0  0  0
   38.5060   33.0970   49.4140 C   0  0  0  0  0  0  0  0  0  0  0  0
   39.3340   33.5970   48.4100 O   0  0  0  0  0  0  0  0  0  0  0  0
   39.2820   32.7580   47.3320 C   0  0  0  0  0  0  0  0  0  0  0  0
   39.3080   30.8230   48.3400 H   0  0  0  0  0  0  0  0  0  0  0  0
   36.8880   32.6490   48.1010 H   0  0  0  0  0  0  0  0  0  0  0  0
   39.1480   32.5910   50.1940 H   0  0  0  0  0  0  0  0  0  0  0  0
   37.9630   33.9040   49.9320 H   0  0  0  0  0  0  0  0  0  0  0  0
   40.2550   32.5600   46.8520 H   0  0  0  0  0  0  0  0  0  0  0  0
   38.5610   33.2100   46.6060 H   0  0  0  0  0  0  0  0  0  0  0  0
   36.9510   29.6650   51.5690 C   0  0  0  0  0  0  0  0  0  0  0  0
   37.6260   30.6270   50.7710 C   0  0  0  0  0  0  0  0  0  0  0  0
   36.9660   31.1550   49.6330 C   0  0  0  0  0  0  0  0  0  0  0  0
   35.6970   30.6950   49.3700 N   0  0  0  0  0  0  0  0  0  0  0  0
   35.0920   29.7880   50.1410 C   0  0  0  0  0  0  0  0  0  0  0  0
   35.6980   29.2680   51.2330 N   0  0  0  0  0  0  0  0  0  0  0  0
   37.4250   29.2430   52.4430 H   0  0  0  0  0  0  0  0  0  0  0  0
   38.6260   30.9410   51.0410 H   0  0  0  0  0  0  0  0  0  0  0  0
   34.0860   29.5160   49.8090 H   0  0  0  0  0  0  0  0  0  0  0  0
   37.9350   30.8890   46.7300 O   0  0  0  0  0  0  0  0  0  0  0  0
   38.2260   30.7030   45.4780 C   0  0  0  0  0  0  0  0  0  0  0  0
   37.0150   30.4900   44.6660 C   0  0  0  0  0  0  0  0  0  0  0  0
   35.9630   30.4560   44.8770 H   0  0  0  0  0  0  0  0  0  0  0  0
   37.2230   30.2880   43.3440 C   0  0  0  0  0  0  0  0  0  0  0  0
   38.5340   30.2710   42.7120 C   0  0  0  0  0  0  0  0  0  0  0  0
   39.6220   30.5870   44.2040 S   0  0  0  0  0  0  0  0  0  0  0  0
  1  6  1  1  0  0  0
  1  2  1  0  0  0  0
  2  7  1  6  0  0  0
  2  3  1  0  0  0  0
  2 14  1  0  0  0  0
  3  9  1  0  0  0  0
  3  8  1  0  0  0  0
  4  3  1  0  0  0  0
  5  1  1  0  0  0  0
  5  4  1  0  0  0  0
 10  5  1  0  0  0  0
 11  5  1  0  0  0  0
 12 18  1  0  0  0  0
 13 19  1  0  0  0  0
 13 12  2  0  0  0  0
 14 13  1  0  0  0  0
 15 14  2  0  0  0  0
 15 16  1  0  0  0  0
 16 17  2  0  0  0  0
 17 12  1  0  0  0  0
 20 16  1  0  0  0  0
 21  1  1  0  0  0  0
 22 21  1  0  0  0  0
 23 24  1  0  0  0  0
 23 22  2  0  0  0  0
 25 23  1  0  0  0  0
 26 25  2  0  0  0  0
 26 27  1  0  0  0  0
 27 22  1  0  0  0  0
M  END
>  <minimizedAffinity>
-5.03804493

>  <minimizedRMSD>
2.56632423

$$$$
