
 OpenBabel03272502303D

 21 22  0  0  0  0  0  0  0  0999 V2000
   38.2490   30.9900   47.8720 C   0  0  0  0  0  0  0  0  0  0  0  0
   38.7710   32.2030   47.9010 C   0  0  0  0  0  0  0  0  0  0  0  0
   37.3460   30.2230   51.4080 C   0  0  0  0  0  0  0  0  0  0  0  0
   37.9950   30.7530   50.2910 C   0  0  0  0  0  0  0  0  0  0  0  0
   37.5670   30.4340   49.0080 C   0  0  0  0  0  0  0  0  0  0  0  0
   36.5010   29.5930   48.8850 N   0  0  0  0  0  0  0  0  0  0  0  0
   35.9010   29.1030   49.9720 C   0  0  0  0  0  0  0  0  0  0  0  0
   36.3090   29.4060   51.2150 N   0  0  0  0  0  0  0  0  0  0  0  0
   37.6190   30.4240   52.4300 H   0  0  0  0  0  0  0  0  0  0  0  0
   38.8270   31.4070   50.5050 H   0  0  0  0  0  0  0  0  0  0  0  0
   35.0500   28.4330   49.7850 H   0  0  0  0  0  0  0  0  0  0  0  0
   39.4600   32.6750   46.6480 C   0  0  0  0  0  0  0  0  0  0  0  0
   39.5590   33.7760   46.6920 H   0  0  0  0  0  0  0  0  0  0  0  0
   40.4420   32.1590   46.5230 H   0  0  0  0  0  0  0  0  0  0  0  0
   38.4130   32.2180   45.2270 S   0  0  0  0  0  0  0  0  0  0  0  0
   39.1420   31.0840   44.1680 C   0  0  0  0  0  0  0  0  0  0  0  0
   40.3990   31.1460   43.4820 C   0  0  0  0  0  0  0  0  0  0  0  0
   41.0010   32.0280   43.6340 H   0  0  0  0  0  0  0  0  0  0  0  0
   40.7460   30.0850   42.6830 C   0  0  0  0  0  0  0  0  0  0  0  0
   39.8600   29.0050   42.5820 C   0  0  0  0  0  0  0  0  0  0  0  0
   38.4520   29.4590   43.6470 S   0  0  0  0  0  0  0  0  0  0  0  0
  1  2  2  0  0  0  0
  1  5  1  0  0  0  0
  3  9  1  0  0  0  0
  4 10  1  0  0  0  0
  4  3  2  0  0  0  0
  5  4  1  0  0  0  0
  6  5  2  0  0  0  0
  6  7  1  0  0  0  0
  7  8  2  0  0  0  0
  8  3  1  0  0  0  0
 11  7  1  0  0  0  0
 12 13  1  0  0  0  0
 12  2  1  0  0  0  0
 14 12  1  0  0  0  0
 15 12  1  0  0  0  0
 16 15  1  0  0  0  0
 17 18  1  0  0  0  0
 17 16  2  0  0  0  0
 19 17  1  0  0  0  0
 20 19  2  0  0  0  0
 20 21  1  0  0  0  0
 21 16  1  0  0  0  0
M  END
>  <minimizedAffinity>
-4.77476788

>  <minimizedRMSD>
1.93210423

$$$$
