
 OpenBabel03272504223D

 36 38  0  0  1  0  0  0  0  0999 V2000
   36.8330   31.5850   48.6340 O   0  0  0  0  0  0  0  0  0  0  0  0
   38.8750   32.3880   47.8430 C   0  0  2  0  0  0  0  0  0  0  0  0
   38.1920   31.3840   48.7440 C   0  0  1  0  0  0  0  0  0  0  0  0
   38.6830   31.9290   50.0870 C   0  0  0  0  0  0  0  0  0  0  0  0
   38.3560   33.2750   49.9570 O   0  0  0  0  0  0  0  0  0  0  0  0
   38.6580   33.6530   48.6720 C   0  0  0  0  0  0  0  0  0  0  0  0
   39.9360   32.1430   47.7440 H   0  0  0  0  0  0  0  0  0  0  0  0
   38.5200   30.3440   48.5860 H   0  0  0  0  0  0  0  0  0  0  0  0
   39.7570   31.7460   50.1900 H   0  0  0  0  0  0  0  0  0  0  0  0
   38.0590   31.4580   50.8550 H   0  0  0  0  0  0  0  0  0  0  0  0
   39.5930   34.2600   48.6130 H   0  0  0  0  0  0  0  0  0  0  0  0
   37.8630   34.2950   48.2180 H   0  0  0  0  0  0  0  0  0  0  0  0
   38.1820   32.4190   46.6360 O   0  0  0  0  0  0  0  0  0  0  0  0
   38.8430   31.8150   45.5390 C   0  0  0  0  0  0  0  0  0  0  0  0
   38.2370   31.0790   44.5170 C   0  0  0  0  0  0  0  0  0  0  0  0
   37.1700   30.9410   44.5350 H   0  0  0  0  0  0  0  0  0  0  0  0
   39.0130   30.5580   43.5240 C   0  0  0  0  0  3  0  0  0  0  0  0
   40.4370   30.7880   43.5680 C   0  0  0  0  0  3  0  0  0  0  0  0
   40.6730   31.7500   45.0300 S   0  0  0  0  0  0  0  0  0  0  0  0
   35.9130   29.8310   46.9510 O   0  0  0  0  0  0  0  0  0  0  0  0
   35.9690   30.1620   48.4230 P   0  0  1  0  0  0  0  0  0  0  0  0
   36.7560   28.8760   49.2230 O   0  0  0  0  0  0  0  0  0  0  0  0
   37.4510   29.1890   49.8520 H   0  0  0  0  0  0  0  0  0  0  0  0
   34.3960   30.3350   49.0460 O   0  0  0  0  0  0  0  0  0  0  0  0
   34.1290   29.1970   49.7820 C   0  0  0  0  0  0  0  0  0  0  0  0
   33.6190   29.4710   50.7490 H   0  0  0  0  0  0  0  0  0  0  0  0
   35.0400   28.6580   50.1050 H   0  0  0  0  0  0  0  0  0  0  0  0
   33.2670   28.2240   49.0780 C   0  0  0  0  0  0  0  0  0  0  0  0
   33.8950   27.3300   48.2450 C   0  0  0  0  0  0  0  0  0  0  0  0
   33.1370   26.3850   47.5510 C   0  0  0  0  0  0  0  0  0  0  0  0
   31.7870   26.4090   47.7470 N   0  0  0  0  0  0  0  0  0  0  0  0
   31.1950   27.2950   48.5700 C   0  0  0  0  0  0  0  0  0  0  0  0
   31.9320   28.2100   49.2410 N   0  0  0  0  0  0  0  0  0  0  0  0
   34.9450   27.2330   48.0250 H   0  0  0  0  0  0  0  0  0  0  0  0
   33.5300   25.6510   46.8820 H   0  0  0  0  0  0  0  0  0  0  0  0
   30.1220   27.2260   48.6520 H   0  0  0  0  0  0  0  0  0  0  0  0
  1  3  1  0  0  0  0
  2  7  1  6  0  0  0
  2  6  1  0  0  0  0
  2  3  1  0  0  0  0
  3  8  1  6  0  0  0
  3  4  1  0  0  0  0
  4  9  1  0  0  0  0
  4 10  1  0  0  0  0
  5  4  1  0  0  0  0
  6  5  1  0  0  0  0
 11  6  1  0  0  0  0
 12  6  1  0  0  0  0
 13  2  1  0  0  0  0
 14 13  1  0  0  0  0
 15 16  1  0  0  0  0
 15 14  2  0  0  0  0
 17 18  2  0  0  0  0
 17 15  1  0  0  0  0
 18 19  1  0  0  0  0
 19 14  1  0  0  0  0
 21 20  2  6  0  0  0
 21  1  1  0  0  0  0
 21 24  1  0  0  0  0
 21 22  1  0  0  0  0
 22 23  1  0  0  0  0
 24 25  1  0  0  0  0
 25 27  1  0  0  0  0
 25 26  1  0  0  0  0
 28 33  1  0  0  0  0
 28 25  1  0  0  0  0
 29 28  2  0  0  0  0
 30 31  2  0  0  0  0
 30 29  1  0  0  0  0
 31 32  1  0  0  0  0
 32 36  1  0  0  0  0
 32 33  2  0  0  0  0
 34 29  1  0  0  0  0
 35 30  1  0  0  0  0
M  END
>  <minimizedAffinity>
-4.53272867

>  <minimizedRMSD>
0.373088747

$$$$
