
 OpenBabel03272508453D

 24 26  0  0  0  0  0  0  0  0999 V2000
   35.8230   30.1960   50.0400 C   0  0  0  0  0  0  0  0  0  0  0  0
   36.7270   29.8110   50.9990 C   0  0  0  0  0  0  0  0  0  0  0  0
   37.8480   30.5810   50.7210 C   0  0  0  0  0  0  0  0  0  0  0  0
   37.5750   31.3750   49.6350 C   0  0  0  0  0  0  0  0  0  0  0  0
   36.3600   31.1150   49.2590 O   0  0  0  0  0  0  0  0  0  0  0  0
   36.6550   29.1030   51.7910 H   0  0  0  0  0  0  0  0  0  0  0  0
   38.8160   30.6300   51.2050 H   0  0  0  0  0  0  0  0  0  0  0  0
   38.3970   32.3370   48.9640 C   0  0  0  0  0  0  0  0  0  0  0  0
   38.9040   33.5150   49.4480 C   0  0  0  0  0  0  0  0  0  0  0  0
   38.6850   33.8060   50.4650 H   0  0  0  0  0  0  0  0  0  0  0  0
   39.6780   34.3380   48.6880 C   0  0  0  0  0  3  0  0  0  0  0  0
   39.9370   33.8760   47.3090 C   0  0  0  0  0  3  0  0  0  0  0  0
   39.0000   32.2460   47.2550 S   0  0  0  0  0  0  0  0  0  0  0  0
   34.4580   29.6580   49.9070 C   0  0  0  0  0  0  0  0  0  0  0  0
   33.6670   29.8430   50.8600 O   0  0  0  0  0  0  0  0  0  0  0  0
   32.9470   27.1490   47.7680 C   0  0  0  0  0  0  0  0  0  0  0  0
   33.3120   27.5430   46.4800 C   0  0  0  0  0  0  0  0  0  0  0  0
   34.0850   28.6840   46.3370 C   0  0  0  0  0  0  0  0  0  0  0  0
   34.4490   29.3590   47.4590 N   0  0  0  0  0  0  0  0  0  0  0  0
   34.0740   28.9430   48.6940 C   0  0  0  0  0  0  0  0  0  0  0  0
   33.3200   27.8340   48.8470 N   0  0  0  0  0  0  0  0  0  0  0  0
   32.3460   26.2610   47.8650 H   0  0  0  0  0  0  0  0  0  0  0  0
   33.0160   26.9950   45.5850 H   0  0  0  0  0  0  0  0  0  0  0  0
   34.4170   29.0680   45.3740 H   0  0  0  0  0  0  0  0  0  0  0  0
  1  2  2  0  0  0  0
  2  6  1  0  0  0  0
  3  2  1  0  0  0  0
  3  7  1  0  0  0  0
  4  3  2  0  0  0  0
  5  4  1  0  0  0  0
  5  1  1  0  0  0  0
  8  9  2  0  0  0  0
  8  4  1  0  0  0  0
  9 10  1  0  0  0  0
 11  9  1  0  0  0  0
 12 11  2  0  0  0  0
 13 12  1  0  0  0  0
 13  8  1  0  0  0  0
 14  1  1  0  0  0  0
 14 15  2  0  0  0  0
 16 22  1  0  0  0  0
 16 21  1  0  0  0  0
 17 16  2  0  0  0  0
 18 17  1  0  0  0  0
 18 19  2  0  0  0  0
 19 20  1  0  0  0  0
 20 21  2  0  0  0  0
 20 14  1  0  0  0  0
 23 17  1  0  0  0  0
 24 18  1  0  0  0  0
M  END
>  <minimizedAffinity>
-5.31213093

>  <minimizedRMSD>
1.92361534

$$$$
