
 OpenBabel03272510133D

 38 41  0  0  0  0  0  0  0  0999 V2000
   37.5690   30.7600   49.7470 O   0  0  0  0  0  0  0  0  0  0  0  0
   34.0650   28.8790   48.3670 C   0  0  0  0  0  0  0  0  0  0  0  0
   34.8040   28.3420   49.3790 C   0  0  0  0  0  0  0  0  0  0  0  0
   35.9510   28.8980   49.8780 C   0  0  0  0  0  0  0  0  0  0  0  0
   36.4320   30.0660   49.3630 C   0  0  0  0  0  0  0  0  0  0  0  0
   35.6850   30.6270   48.3250 C   0  0  0  0  0  0  0  0  0  0  0  0
   34.5610   30.0530   47.8590 N   0  0  0  0  0  0  0  0  0  0  0  0
   34.4850   27.4180   49.8380 H   0  0  0  0  0  0  0  0  0  0  0  0
   36.5330   28.4650   50.6830 H   0  0  0  0  0  0  0  0  0  0  0  0
   35.9960   31.5550   47.8600 H   0  0  0  0  0  0  0  0  0  0  0  0
   32.1540   27.2840   48.4720 C   0  0  0  0  0  0  0  0  0  0  0  0
   32.8660   28.3130   47.8330 C   0  0  0  0  0  0  0  0  0  0  0  0
   32.3590   28.7690   46.6440 C   0  0  0  0  0  0  0  0  0  0  0  0
   31.2130   28.2250   46.1340 N   0  0  0  0  0  0  0  0  0  0  0  0
   30.5630   27.2250   46.8010 C   0  0  0  0  0  0  0  0  0  0  0  0
   31.0260   26.7480   47.9720 N   0  0  0  0  0  0  0  0  0  0  0  0
   32.5100   26.8920   49.4080 H   0  0  0  0  0  0  0  0  0  0  0  0
   32.8840   29.5650   46.1210 H   0  0  0  0  0  0  0  0  0  0  0  0
   29.6530   26.7840   46.4090 H   0  0  0  0  0  0  0  0  0  0  0  0
   38.2460   31.6000   48.8950 C   0  0  0  0  0  0  0  0  0  0  0  0
   38.4620   32.8630   49.3980 C   0  0  0  0  0  0  0  0  0  0  0  0
   39.1550   33.5900   48.4260 C   0  0  0  0  0  0  0  0  0  0  0  0
   39.3340   32.7740   47.3950 N   0  0  0  0  0  0  0  0  0  0  0  0
   38.8040   31.6230   47.6750 N   0  0  0  0  0  0  0  0  0  0  0  0
   38.2330   33.3990   50.3220 H   0  0  0  0  0  0  0  0  0  0  0  0
   39.5140   34.6140   48.4260 H   0  0  0  0  0  0  0  0  0  0  0  0
   40.0070   33.0800   46.1500 C   0  0  0  0  0  0  0  0  0  0  0  0
   40.2500   34.1540   46.0880 H   0  0  0  0  0  0  0  0  0  0  0  0
   40.9440   32.4690   46.1180 H   0  0  0  0  0  0  0  0  0  0  0  0
   39.0900   32.7710   45.0110 C   0  0  0  0  0  0  0  0  0  0  0  0
   38.0510   32.6680   45.4480 H   0  0  0  0  0  0  0  0  0  0  0  0
   38.9920   33.7110   44.3910 H   0  0  0  0  0  0  0  0  0  0  0  0
   39.4360   31.6200   44.1960 C   0  0  0  0  0  0  0  0  0  0  0  0
   40.4540   31.1150   43.2370 C   0  0  0  0  0  0  0  0  0  0  0  0
   41.1980   31.8640   43.0810 H   0  0  0  0  0  0  0  0  0  0  0  0
   40.2150   29.8490   42.7920 C   0  0  0  0  0  3  0  0  0  0  0  0
   39.1320   29.0850   43.1830 C   0  0  0  0  0  3  0  0  0  0  0  0
   38.2410   30.1550   44.3280 S   0  0  0  0  0  0  0  0  0  0  0  0
  2  3  1  0  0  0  0
  3  8  1  0  0  0  0
  3  4  2  0  0  0  0
  4  9  1  0  0  0  0
  5  1  1  0  0  0  0
  5  4  1  0  0  0  0
  6  5  2  0  0  0  0
  7  6  1  0  0  0  0
  7  2  2  0  0  0  0
 10  6  1  0  0  0  0
 11 17  1  0  0  0  0
 12  2  1  0  0  0  0
 12 11  2  0  0  0  0
 13 12  1  0  0  0  0
 14 13  2  0  0  0  0
 14 15  1  0  0  0  0
 15 16  2  0  0  0  0
 16 11  1  0  0  0  0
 18 13  1  0  0  0  0
 19 15  1  0  0  0  0
 20 21  1  0  0  0  0
 20  1  1  0  0  0  0
 21 25  1  0  0  0  0
 22 21  2  0  0  0  0
 23 24  1  0  0  0  0
 23 22  1  0  0  0  0
 24 20  2  0  0  0  0
 26 22  1  0  0  0  0
 27 23  1  0  0  0  0
 28 27  1  0  0  0  0
 29 27  1  0  0  0  0
 30 31  1  0  0  0  0
 30 27  1  0  0  0  0
 32 30  1  0  0  0  0
 33 38  1  0  0  0  0
 33 30  1  0  0  0  0
 34 33  2  0  0  0  0
 35 34  1  0  0  0  0
 36 37  2  0  0  0  0
 36 34  1  0  0  0  0
 37 38  1  0  0  0  0
M  END
>  <minimizedAffinity>
-5.8836298

>  <minimizedRMSD>
2.1710279

$$$$
