
 OpenBabel03272504213D

 36 38  0  0  1  0  0  0  0  0999 V2000
   36.8150   31.5810   48.6170 O   0  0  0  0  0  0  0  0  0  0  0  0
   38.8810   32.3480   47.8540 C   0  0  2  0  0  0  0  0  0  0  0  0
   38.1690   31.3660   48.7580 C   0  0  1  0  0  0  0  0  0  0  0  0
   38.6410   31.9270   50.1020 C   0  0  0  0  0  0  0  0  0  0  0  0
   38.3320   33.2750   49.9450 O   0  0  0  0  0  0  0  0  0  0  0  0
   38.6630   33.6290   48.6590 C   0  0  0  0  0  0  0  0  0  0  0  0
   39.9410   32.0900   47.7800 H   0  0  0  0  0  0  0  0  0  0  0  0
   38.4880   30.3210   48.6210 H   0  0  0  0  0  0  0  0  0  0  0  0
   39.7100   31.7330   50.2280 H   0  0  0  0  0  0  0  0  0  0  0  0
   37.9960   31.4750   50.8640 H   0  0  0  0  0  0  0  0  0  0  0  0
   39.6060   34.2240   48.6100 H   0  0  0  0  0  0  0  0  0  0  0  0
   37.8840   34.2730   48.1800 H   0  0  0  0  0  0  0  0  0  0  0  0
   38.2120   32.3690   46.6340 O   0  0  0  0  0  0  0  0  0  0  0  0
   38.8810   31.7280   45.5630 C   0  0  0  0  0  0  0  0  0  0  0  0
   38.6720   30.4160   45.1280 C   0  0  0  0  0  0  0  0  0  0  0  0
   37.9410   29.8090   45.6340 H   0  0  0  0  0  0  0  0  0  0  0  0
   39.3990   29.9420   44.0770 C   0  0  0  0  0  3  0  0  0  0  0  0
   40.3600   30.8160   43.4500 C   0  0  0  0  0  3  0  0  0  0  0  0
   40.2300   32.3240   44.3620 S   0  0  0  0  0  0  0  0  0  0  0  0
   35.8100   29.8290   46.9810 O   0  0  0  0  0  0  0  0  0  0  0  0
   35.9350   30.1630   48.4480 P   0  0  1  0  0  0  0  0  0  0  0  0
   36.7500   28.8730   49.2150 O   0  0  0  0  0  0  0  0  0  0  0  0
   37.4750   29.1830   49.8110 H   0  0  0  0  0  0  0  0  0  0  0  0
   34.3930   30.3450   49.1420 O   0  0  0  0  0  0  0  0  0  0  0  0
   34.1310   29.1870   49.8470 C   0  0  0  0  0  0  0  0  0  0  0  0
   33.6280   29.4330   50.8260 H   0  0  0  0  0  0  0  0  0  0  0  0
   35.0430   28.6370   50.1470 H   0  0  0  0  0  0  0  0  0  0  0  0
   33.2610   28.2350   49.1220 C   0  0  0  0  0  0  0  0  0  0  0  0
   33.8860   27.3360   48.2910 C   0  0  0  0  0  0  0  0  0  0  0  0
   33.1210   26.4110   47.5780 C   0  0  0  0  0  0  0  0  0  0  0  0
   31.7700   26.4580   47.7540 N   0  0  0  0  0  0  0  0  0  0  0  0
   31.1810   27.3490   48.5740 C   0  0  0  0  0  0  0  0  0  0  0  0
   31.9240   28.2450   49.2640 N   0  0  0  0  0  0  0  0  0  0  0  0
   34.9370   27.2210   48.0870 H   0  0  0  0  0  0  0  0  0  0  0  0
   33.5110   25.6740   46.9100 H   0  0  0  0  0  0  0  0  0  0  0  0
   30.1060   27.2990   48.6400 H   0  0  0  0  0  0  0  0  0  0  0  0
  1  3  1  0  0  0  0
  2  7  1  6  0  0  0
  2  6  1  0  0  0  0
  2  3  1  0  0  0  0
  3  8  1  6  0  0  0
  3  4  1  0  0  0  0
  4  9  1  0  0  0  0
  4 10  1  0  0  0  0
  5  4  1  0  0  0  0
  6  5  1  0  0  0  0
 11  6  1  0  0  0  0
 12  6  1  0  0  0  0
 13  2  1  0  0  0  0
 14 13  1  0  0  0  0
 15 14  2  0  0  0  0
 15 16  1  0  0  0  0
 17 15  1  0  0  0  0
 18 17  2  0  0  0  0
 18 19  1  0  0  0  0
 19 14  1  0  0  0  0
 21 20  2  6  0  0  0
 21  1  1  0  0  0  0
 21 24  1  0  0  0  0
 21 22  1  0  0  0  0
 22 23  1  0  0  0  0
 24 25  1  0  0  0  0
 25 27  1  0  0  0  0
 25 26  1  0  0  0  0
 28 33  1  0  0  0  0
 28 25  1  0  0  0  0
 29 28  2  0  0  0  0
 30 31  2  0  0  0  0
 30 29  1  0  0  0  0
 31 32  1  0  0  0  0
 32 36  1  0  0  0  0
 32 33  2  0  0  0  0
 34 29  1  0  0  0  0
 35 30  1  0  0  0  0
M  END
>  <minimizedAffinity>
-4.60916948

>  <minimizedRMSD>
0.46663022

$$$$
