
 OpenBabel03272509463D

 22 23  0  0  0  0  0  0  0  0999 V2000
   34.2100   28.4190   48.4600 C   0  0  0  0  0  0  0  0  0  0  0  0
   33.3430   29.0980   48.5590 H   0  0  0  0  0  0  0  0  0  0  0  0
   34.9310   28.9130   47.7770 H   0  0  0  0  0  0  0  0  0  0  0  0
   33.8060   27.0520   47.9610 C   0  0  0  0  0  0  0  0  0  0  0  0
   33.3840   26.5310   48.8690 H   0  0  0  0  0  0  0  0  0  0  0  0
   34.6440   26.4520   47.6150 H   0  0  0  0  0  0  0  0  0  0  0  0
   32.7570   27.2260   46.9220 C   0  0  0  0  0  0  0  0  0  0  0  0
   31.4010   27.2330   46.9560 C   0  0  0  0  0  0  0  0  0  0  0  0
   30.9790   27.0780   47.9560 H   0  0  0  0  0  0  0  0  0  0  0  0
   30.6790   27.4160   45.8310 C   0  0  0  0  0  3  0  0  0  0  0  0
   31.3910   27.5930   44.6680 C   0  0  0  0  0  3  0  0  0  0  0  0
   33.1920   27.4850   45.2480 S   0  0  0  0  0  0  0  0  0  0  0  0
   34.7420   28.3050   49.7780 O   0  0  0  0  0  0  0  0  0  0  0  0
   37.3480   30.2330   51.4160 C   0  0  0  0  0  0  0  0  0  0  0  0
   38.0670   30.6720   50.3080 C   0  0  0  0  0  0  0  0  0  0  0  0
   37.6270   30.2880   49.0460 C   0  0  0  0  0  0  0  0  0  0  0  0
   36.5060   29.4970   48.9930 N   0  0  0  0  0  0  0  0  0  0  0  0
   35.8360   29.0930   50.0930 C   0  0  0  0  0  0  0  0  0  0  0  0
   36.2750   29.4730   51.3000 N   0  0  0  0  0  0  0  0  0  0  0  0
   37.7090   30.5460   52.4010 H   0  0  0  0  0  0  0  0  0  0  0  0
   38.9490   31.2940   50.3420 H   0  0  0  0  0  0  0  0  0  0  0  0
   38.1340   30.5890   48.1420 H   0  0  0  0  0  0  0  0  0  0  0  0
  1  2  1  0  0  0  0
  1 13  1  0  0  0  0
  3  1  1  0  0  0  0
  4  1  1  0  0  0  0
  4  5  1  0  0  0  0
  6  4  1  0  0  0  0
  7  8  2  0  0  0  0
  7  4  1  0  0  0  0
  8  9  1  0  0  0  0
 10  8  1  0  0  0  0
 11 12  1  0  0  0  0
 11 10  2  0  0  0  0
 12  7  1  0  0  0  0
 13 18  1  0  0  0  0
 14 20  1  0  0  0  0
 15 21  1  0  0  0  0
 15 14  2  0  0  0  0
 16 15  1  0  0  0  0
 17 16  2  0  0  0  0
 17 18  1  0  0  0  0
 18 19  2  0  0  0  0
 19 14  1  0  0  0  0
 22 16  1  0  0  0  0
M  END
>  <minimizedAffinity>
-3.61488366

>  <minimizedRMSD>
0.738579154

$$$$
