
 OpenBabel03272502313D

 24 25  0  0  1  0  0  0  0  0999 V2000
   37.9390   30.8770   47.9980 C   0  0  2  0  0  0  0  0  0  0  0  0
   38.5880   30.0370   48.4510 H   0  0  0  0  0  0  0  0  0  0  0  0
   38.5110   32.1120   48.3940 C   0  0  0  0  0  0  0  0  0  0  0  0
   38.6150   33.0380   49.4590 C   0  0  0  0  0  0  0  0  0  0  0  0
   38.0310   32.6830   50.2800 H   0  0  0  0  0  0  0  0  0  0  0  0
   39.3880   34.1570   49.2840 C   0  0  0  0  0  0  0  0  0  0  0  0
   40.0370   34.3030   48.0290 C   0  0  0  0  0  0  0  0  0  0  0  0
   39.5220   32.8370   47.1260 S   0  0  0  0  0  0  0  0  0  0  0  0
   36.8030   30.6300   45.9110 C   0  0  0  0  0  0  0  0  0  0  0  0
   37.9510   30.6720   46.5130 C   0  0  0  0  0  0  0  0  0  0  0  0
   37.6700   29.5810   42.4360 C   0  0  0  0  0  0  0  0  0  0  0  0
   37.7360   29.8200   43.8120 C   0  0  0  0  0  0  0  0  0  0  0  0
   36.6840   30.4130   44.4990 C   0  0  0  0  0  0  0  0  0  0  0  0
   35.6060   30.7440   43.7710 N   0  0  0  0  0  0  0  0  0  0  0  0
   35.5340   30.5190   42.4590 C   0  0  0  0  0  0  0  0  0  0  0  0
   36.5460   29.9450   41.7800 N   0  0  0  0  0  0  0  0  0  0  0  0
   38.4880   29.1160   41.9150 H   0  0  0  0  0  0  0  0  0  0  0  0
   38.6550   29.4960   44.2680 H   0  0  0  0  0  0  0  0  0  0  0  0
   34.6390   30.8290   41.9620 H   0  0  0  0  0  0  0  0  0  0  0  0
   36.2530   30.6250   48.5890 S   0  0  0  0  0  0  0  0  0  0  0  0
   36.2410   29.9220   50.2390 C   0  0  0  0  0  0  0  0  0  0  0  0
   36.9130   30.7150   51.1600 F   0  0  0  0  0  0  0  0  0  0  0  0
   34.9710   29.5820   50.6620 F   0  0  0  0  0  0  0  0  0  0  0  0
   36.9430   28.6930   50.1630 F   0  0  0  0  0  0  0  0  0  0  0  0
  1  3  1  0  0  0  0
  1  2  1  1  0  0  0
  1 20  1  0  0  0  0
  3  4  2  0  0  0  0
  4  5  1  0  0  0  0
  6  4  1  0  0  0  0
  7  6  2  0  0  0  0
  8  7  1  0  0  0  0
  8  3  1  0  0  0  0
  9 10  2  0  0  0  0
 10  1  1  0  0  0  0
 11 12  1  0  0  0  0
 12 18  1  0  0  0  0
 12 13  2  0  0  0  0
 13  9  1  0  0  0  0
 14 13  1  0  0  0  0
 15 14  2  0  0  0  0
 16 11  2  0  0  0  0
 16 15  1  0  0  0  0
 17 11  1  0  0  0  0
 19 15  1  0  0  0  0
 20 21  1  0  0  0  0
 21 23  1  0  0  0  0
 21 22  1  0  0  0  0
 24 21  1  0  0  0  0
M  END
>  <minimizedAffinity>
-4.7760787

>  <minimizedRMSD>
3.44835258

$$$$
