
 OpenBabel03272505263D

 28 30  0  0  0  0  0  0  0  0999 V2000
   37.4180   31.0840   47.1010 N   0  0  0  0  0  0  0  0  0  0  0  0
   36.8090   30.7350   45.9330 C   0  0  0  0  0  0  0  0  0  0  0  0
   37.2670   31.2090   44.7120 C   0  0  0  0  0  0  0  0  0  0  0  0
   38.3740   32.0600   44.7140 C   0  0  0  0  0  0  0  0  0  0  0  0
   38.8220   32.5130   43.6250 O   0  0  0  0  0  0  0  0  0  0  0  0
   38.9740   32.4020   45.8800 N   0  0  0  0  0  0  0  0  0  0  0  0
   38.4570   31.8910   47.0120 C   0  0  0  0  0  0  0  0  0  0  0  0
   39.0340   32.2290   48.0640 O   0  0  0  0  0  0  0  0  0  0  0  0
   35.9490   30.0730   45.9430 H   0  0  0  0  0  0  0  0  0  0  0  0
   37.3140   29.5740   50.4950 C   0  0  0  0  0  0  0  0  0  0  0  0
   37.7950   30.0440   49.2610 C   0  0  0  0  0  0  0  0  0  0  0  0
   36.9550   30.6090   48.3320 C   0  0  0  0  0  0  0  0  0  0  0  0
   35.6300   30.6950   48.6550 N   0  0  0  0  0  0  0  0  0  0  0  0
   35.1390   30.2490   49.8420 C   0  0  0  0  0  0  0  0  0  0  0  0
   35.9760   29.6950   50.7500 N   0  0  0  0  0  0  0  0  0  0  0  0
   37.9020   29.1290   51.2590 H   0  0  0  0  0  0  0  0  0  0  0  0
   38.8490   29.8800   49.1870 H   0  0  0  0  0  0  0  0  0  0  0  0
   34.0780   30.3420   50.0480 H   0  0  0  0  0  0  0  0  0  0  0  0
   36.6910   30.8920   43.4750 C   0  0  0  0  0  0  0  0  0  0  0  0
   35.5940   31.5900   42.9140 C   0  0  0  0  0  0  0  0  0  0  0  0
   35.1100   32.4250   43.3940 H   0  0  0  0  0  0  0  0  0  0  0  0
   35.1110   31.1970   41.7020 C   0  0  0  0  0  0  0  0  0  0  0  0
   35.8240   30.0200   41.0680 C   0  0  0  0  0  0  0  0  0  0  0  0
   37.1420   29.6400   42.3750 S   0  0  0  0  0  0  0  0  0  0  0  0
   40.1240   33.2820   45.8860 C   0  0  0  0  0  0  0  0  0  0  0  0
   39.9890   34.2440   44.9390 F   0  0  0  0  0  0  0  0  0  0  0  0
   41.3130   32.6220   45.6200 F   0  0  0  0  0  0  0  0  0  0  0  0
   40.2090   33.9180   47.1330 F   0  0  0  0  0  0  0  0  0  0  0  0
  1 12  1  0  0  0  0
  2  9  1  0  0  0  0
  2  1  1  0  0  0  0
  3  4  1  0  0  0  0
  3  2  2  0  0  0  0
  4  6  1  0  0  0  0
  5  4  2  0  0  0  0
  6 25  1  0  0  0  0
  6  7  1  0  0  0  0
  7  1  1  0  0  0  0
  7  8  2  0  0  0  0
 10 15  1  0  0  0  0
 10 16  1  0  0  0  0
 11 10  2  0  0  0  0
 12 13  2  0  0  0  0
 12 11  1  0  0  0  0
 13 14  1  0  0  0  0
 14 18  1  0  0  0  0
 14 15  2  0  0  0  0
 17 11  1  0  0  0  0
 19  3  1  0  0  0  0
 20 21  1  0  0  0  0
 20 19  2  0  0  0  0
 22 20  1  0  0  0  0
 23 22  2  0  0  0  0
 23 24  1  0  0  0  0
 24 19  1  0  0  0  0
 25 28  1  0  0  0  0
 26 25  1  0  0  0  0
 27 25  1  0  0  0  0
M  END
>  <minimizedAffinity>
-6.02178717

>  <minimizedRMSD>
0.312161177

$$$$
