
 OpenBabel03272505533D

 41 44  0  0  1  0  0  0  0  0999 V2000
   35.3020   19.6130   33.3710 C   0  0  0  0  0  0  0  0  0  0  0  0
   35.2800   19.0380   32.0800 C   0  0  0  0  0  0  0  0  0  0  0  0
   36.0170   19.6770   31.0910 C   0  0  0  0  0  0  0  0  0  0  0  0
   36.7050   20.8050   31.4230 N   0  0  0  0  0  0  0  0  0  0  0  0
   36.6960   21.3090   32.6540 C   0  0  0  0  0  0  0  0  0  0  0  0
   35.9990   20.7180   33.6210 N   0  0  0  0  0  0  0  0  0  0  0  0
   37.4360   22.4860   32.9320 N   0  0  0  0  0  0  0  0  0  0  0  0
   37.9700   22.7550   34.2590 C   0  0  0  0  0  0  0  0  0  0  0  0
   39.4340   23.0350   34.1780 C   0  0  0  0  0  0  0  0  0  0  0  0
   39.9440   23.3010   32.9210 N   0  0  0  0  0  0  0  0  0  0  0  0
   39.1110   23.8150   31.8680 C   0  0  0  0  0  0  0  0  0  0  0  0
   37.6990   23.4830   31.9070 C   0  0  2  0  0  0  0  0  0  0  0  0
   34.7240   19.1120   34.1500 H   0  0  0  0  0  0  0  0  0  0  0  0
   34.7220   18.1550   31.8830 H   0  0  0  0  0  0  0  0  0  0  0  0
   36.0450   19.2910   30.0750 H   0  0  0  0  0  0  0  0  0  0  0  0
   37.8430   21.7880   34.8410 H   0  0  0  0  0  0  0  0  0  0  0  0
   37.3750   23.4810   34.8220 H   0  0  0  0  0  0  0  0  0  0  0  0
   40.0300   22.2490   34.6840 H   0  0  0  0  0  0  0  0  0  0  0  0
   39.6000   23.9410   34.8340 H   0  0  0  0  0  0  0  0  0  0  0  0
   40.6920   22.6560   32.6430 H   0  0  0  0  0  0  0  0  0  0  0  0
   39.4710   24.8190   31.6960 H   0  0  0  0  0  0  0  0  0  0  0  0
   39.5280   23.2730   30.9520 H   0  0  0  0  0  0  0  0  0  0  0  0
   37.3140   23.0440   30.9370 H   0  0  0  0  0  0  0  0  0  0  0  0
   36.8220   24.6100   32.1830 N   0  0  2  0  0  0  0  0  0  0  0  0
   35.7200   24.6690   31.2210 C   0  0  0  0  0  0  0  0  0  0  0  0
   35.4390   26.1380   30.9720 C   0  0  0  0  0  0  0  0  0  0  0  0
   36.2810   26.8200   31.9860 C   0  0  0  0  0  0  0  0  0  0  0  0
   37.4820   25.8630   32.1500 C   0  0  1  0  0  0  0  0  0  0  0  0
   34.8450   24.1680   31.6320 H   0  0  0  0  0  0  0  0  0  0  0  0
   36.0830   24.1900   30.2730 H   0  0  0  0  0  0  0  0  0  0  0  0
   35.8020   26.4100   29.9580 H   0  0  0  0  0  0  0  0  0  0  0  0
   34.3500   26.3310   31.0650 H   0  0  0  0  0  0  0  0  0  0  0  0
   35.7430   26.9210   32.9480 H   0  0  0  0  0  0  0  0  0  0  0  0
   36.5850   27.8180   31.6670 H   0  0  0  0  0  0  0  0  0  0  0  0
   38.0450   26.1460   31.2710 H   0  0  0  0  0  0  0  0  0  0  0  0
   38.0600   26.3200   33.4260 C   0  0  0  0  0  0  0  0  0  0  0  0
   39.3600   26.7540   33.5990 C   0  0  0  0  0  0  0  0  0  0  0  0
   40.0730   26.7980   32.7860 H   0  0  0  0  0  0  0  0  0  0  0  0
   39.7170   27.1330   34.8680 C   0  0  0  0  0  3  0  0  0  0  0  0
   38.7910   27.0700   35.9020 C   0  0  0  0  0  3  0  0  0  0  0  0
   37.3090   26.4260   35.0020 S   0  0  0  0  0  0  0  0  0  0  0  0
  1  6  1  0  0  0  0
  1 13  1  0  0  0  0
  2  1  2  0  0  0  0
  3  4  2  0  0  0  0
  3  2  1  0  0  0  0
  4  5  1  0  0  0  0
  5  7  1  0  0  0  0
  5  6  2  0  0  0  0
  7  8  1  0  0  0  0
  8 17  1  0  0  0  0
  8 16  1  0  0  0  0
  9  8  1  0  0  0  0
  9 18  1  0  0  0  0
  9 19  1  0  0  0  0
 10  9  1  0  0  0  0
 11 12  1  0  0  0  0
 11 10  1  0  0  0  0
 12 23  1  6  0  0  0
 12 24  1  0  0  0  0
 12  7  1  0  0  0  0
 14  2  1  0  0  0  0
 15  3  1  0  0  0  0
 20 10  1  0  0  0  0
 21 11  1  0  0  0  0
 22 11  1  0  0  0  0
 24 25  1  6  0  0  0
 25 29  1  0  0  0  0
 26 32  1  0  0  0  0
 26 25  1  0  0  0  0
 26 27  1  0  0  0  0
 27 28  1  0  0  0  0
 27 33  1  0  0  0  0
 28 35  1  6  0  0  0
 28 24  1  0  0  0  0
 28 36  1  0  0  0  0
 30 25  1  0  0  0  0
 31 26  1  0  0  0  0
 34 27  1  0  0  0  0
 36 37  2  0  0  0  0
 36 41  1  0  0  0  0
 37 39  1  0  0  0  0
 38 37  1  0  0  0  0
 39 40  2  0  0  0  0
 41 40  1  0  0  0  0
M  END
>  <minimizedAffinity>
-5.23924828

$$$$

 OpenBabel03272505533D

 41 44  0  0  1  0  0  0  0  0999 V2000
   37.7770   27.8490   35.2920 C   0  0  0  0  0  0  0  0  0  0  0  0
   37.2020   27.8890   34.0010 C   0  0  0  0  0  0  0  0  0  0  0  0
   36.9890   26.6720   33.3670 C   0  0  0  0  0  0  0  0  0  0  0  0
   37.3450   25.5310   34.0190 N   0  0  0  0  0  0  0  0  0  0  0  0
   37.8840   25.5420   35.2350 C   0  0  0  0  0  0  0  0  0  0  0  0
   38.0990   26.6930   35.8670 N   0  0  0  0  0  0  0  0  0  0  0  0
   38.2300   24.3160   35.8570 N   0  0  0  0  0  0  0  0  0  0  0  0
   38.2380   24.1730   37.3060 C   0  0  0  0  0  0  0  0  0  0  0  0
   37.3980   23.0090   37.7130 C   0  0  0  0  0  0  0  0  0  0  0  0
   37.0440   22.1220   36.7130 N   0  0  0  0  0  0  0  0  0  0  0  0
   37.8320   21.9860   35.5180 C   0  0  0  0  0  0  0  0  0  0  0  0
   38.5930   23.1420   35.0830 C   0  0  2  0  0  0  0  0  0  0  0  0
   37.9450   28.8040   35.7930 H   0  0  0  0  0  0  0  0  0  0  0  0
   36.9460   28.8140   33.5440 H   0  0  0  0  0  0  0  0  0  0  0  0
   36.5510   26.6280   32.3730 H   0  0  0  0  0  0  0  0  0  0  0  0
   37.7350   25.1090   37.7080 H   0  0  0  0  0  0  0  0  0  0  0  0
   39.2440   24.2100   37.7350 H   0  0  0  0  0  0  0  0  0  0  0  0
   36.5050   23.3280   38.2870 H   0  0  0  0  0  0  0  0  0  0  0  0
   38.0110   22.4550   38.4850 H   0  0  0  0  0  0  0  0  0  0  0  0
   36.0290   22.0140   36.6090 H   0  0  0  0  0  0  0  0  0  0  0  0
   38.2580   20.9950   35.5790 H   0  0  0  0  0  0  0  0  0  0  0  0
   37.0280   21.8310   34.7210 H   0  0  0  0  0  0  0  0  0  0  0  0
   38.4140   23.4140   33.9980 H   0  0  0  0  0  0  0  0  0  0  0  0
   40.0360   22.9930   35.1980 N   0  0  2  0  0  0  0  0  0  0  0  0
   40.3850   21.9810   36.1960 C   0  0  0  0  0  0  0  0  0  0  0  0
   41.6500   22.4610   36.8800 C   0  0  0  0  0  0  0  0  0  0  0  0
   42.0500   23.6340   36.0630 C   0  0  0  0  0  0  0  0  0  0  0  0
   40.7010   24.1910   35.5590 C   0  0  1  0  0  0  0  0  0  0  0  0
   40.5440   21.0210   35.7070 H   0  0  0  0  0  0  0  0  0  0  0  0
   39.5450   21.9480   36.9410 H   0  0  0  0  0  0  0  0  0  0  0  0
   41.4000   22.8030   37.9060 H   0  0  0  0  0  0  0  0  0  0  0  0
   42.3940   21.6380   36.9090 H   0  0  0  0  0  0  0  0  0  0  0  0
   42.6770   23.3270   35.2050 H   0  0  0  0  0  0  0  0  0  0  0  0
   42.6120   24.3680   36.6430 H   0  0  0  0  0  0  0  0  0  0  0  0
   40.3940   24.7240   36.4490 H   0  0  0  0  0  0  0  0  0  0  0  0
   41.1280   25.0520   34.4420 C   0  0  0  0  0  0  0  0  0  0  0  0
   41.4260   26.3970   34.5440 C   0  0  0  0  0  0  0  0  0  0  0  0
   41.3710   26.9360   35.4810 H   0  0  0  0  0  0  0  0  0  0  0  0
   41.7980   27.0330   33.3880 C   0  0  0  0  0  3  0  0  0  0  0  0
   41.8620   26.3280   32.1930 C   0  0  0  0  0  3  0  0  0  0  0  0
   41.3560   24.6410   32.7570 S   0  0  0  0  0  0  0  0  0  0  0  0
  1 13  1  0  0  0  0
  1  6  1  0  0  0  0
  2  1  2  0  0  0  0
  3  2  1  0  0  0  0
  3  4  2  0  0  0  0
  4  5  1  0  0  0  0
  5  7  1  0  0  0  0
  5  6  2  0  0  0  0
  7  8  1  0  0  0  0
  8 16  1  0  0  0  0
  8  9  1  0  0  0  0
  8 17  1  0  0  0  0
  9 18  1  0  0  0  0
  9 19  1  0  0  0  0
 10  9  1  0  0  0  0
 11 21  1  0  0  0  0
 11 10  1  0  0  0  0
 12 23  1  6  0  0  0
 12 24  1  0  0  0  0
 12 11  1  0  0  0  0
 12  7  1  0  0  0  0
 14  2  1  0  0  0  0
 15  3  1  0  0  0  0
 20 10  1  0  0  0  0
 22 11  1  0  0  0  0
 24 28  1  0  0  0  0
 24 25  1  1  0  0  0
 25 26  1  0  0  0  0
 25 30  1  0  0  0  0
 26 32  1  0  0  0  0
 26 31  1  0  0  0  0
 27 34  1  0  0  0  0
 27 26  1  0  0  0  0
 28 27  1  0  0  0  0
 28 35  1  1  0  0  0
 29 25  1  0  0  0  0
 33 27  1  0  0  0  0
 36 37  2  0  0  0  0
 36 28  1  0  0  0  0
 37 38  1  0  0  0  0
 39 37  1  0  0  0  0
 40 41  1  0  0  0  0
 40 39  2  0  0  0  0
 41 36  1  0  0  0  0
M  END
>  <minimizedAffinity>
-5.21441078

$$$$

 OpenBabel03272505533D

 41 44  0  0  1  0  0  0  0  0999 V2000
   39.7350   22.7100   37.8560 C   0  0  0  0  0  0  0  0  0  0  0  0
   38.7960   23.3850   38.6690 C   0  0  0  0  0  0  0  0  0  0  0  0
   37.8350   24.1500   38.0220 C   0  0  0  0  0  0  0  0  0  0  0  0
   37.8570   24.2040   36.6620 N   0  0  0  0  0  0  0  0  0  0  0  0
   38.7620   23.5510   35.9370 C   0  0  0  0  0  0  0  0  0  0  0  0
   39.6940   22.8100   36.5300 N   0  0  0  0  0  0  0  0  0  0  0  0
   38.7270   23.6490   34.5230 N   0  0  0  0  0  0  0  0  0  0  0  0
   39.2220   22.5750   33.6730 C   0  0  0  0  0  0  0  0  0  0  0  0
   38.1750   22.1750   32.6880 C   0  0  0  0  0  0  0  0  0  0  0  0
   37.1090   23.0410   32.5320 N   0  0  0  0  0  0  0  0  0  0  0  0
   37.2280   24.4400   32.8410 C   0  0  0  0  0  0  0  0  0  0  0  0
   38.1960   24.8230   33.8510 C   0  0  2  0  0  0  0  0  0  0  0  0
   40.4910   22.1080   38.3620 H   0  0  0  0  0  0  0  0  0  0  0  0
   38.8300   23.3040   39.7290 H   0  0  0  0  0  0  0  0  0  0  0  0
   37.0810   24.6960   38.5850 H   0  0  0  0  0  0  0  0  0  0  0  0
   39.3900   21.6910   34.3650 H   0  0  0  0  0  0  0  0  0  0  0  0
   40.2150   22.7790   33.2600 H   0  0  0  0  0  0  0  0  0  0  0  0
   37.8170   21.1420   32.8670 H   0  0  0  0  0  0  0  0  0  0  0  0
   38.7160   22.0880   31.6980 H   0  0  0  0  0  0  0  0  0  0  0  0
   36.2010   22.6040   32.7240 H   0  0  0  0  0  0  0  0  0  0  0  0
   37.1490   24.9420   31.8870 H   0  0  0  0  0  0  0  0  0  0  0  0
   36.2050   24.6700   33.2950 H   0  0  0  0  0  0  0  0  0  0  0  0
   37.7610   25.4790   34.6650 H   0  0  0  0  0  0  0  0  0  0  0  0
   39.3380   25.5660   33.3430 N   0  0  2  0  0  0  0  0  0  0  0  0
   40.5240   25.3470   34.1720 C   0  0  0  0  0  0  0  0  0  0  0  0
   41.2870   26.6570   34.1970 C   0  0  0  0  0  0  0  0  0  0  0  0
   40.5720   27.4830   33.1920 C   0  0  0  0  0  0  0  0  0  0  0  0
   39.1200   26.9640   33.2770 C   0  0  1  0  0  0  0  0  0  0  0  0
   41.1300   24.5490   33.7450 H   0  0  0  0  0  0  0  0  0  0  0  0
   40.1630   25.1030   35.2070 H   0  0  0  0  0  0  0  0  0  0  0  0
   41.1720   27.1240   35.1970 H   0  0  0  0  0  0  0  0  0  0  0  0
   42.3570   26.4700   33.9700 H   0  0  0  0  0  0  0  0  0  0  0  0
   40.9760   27.3120   32.1760 H   0  0  0  0  0  0  0  0  0  0  0  0
   40.6470   28.5500   33.4060 H   0  0  0  0  0  0  0  0  0  0  0  0
   38.8020   27.4970   34.1630 H   0  0  0  0  0  0  0  0  0  0  0  0
   38.5460   27.4690   32.0170 C   0  0  0  0  0  0  0  0  0  0  0  0
   39.1960   27.4850   30.7970 C   0  0  0  0  0  0  0  0  0  0  0  0
   40.2040   27.1120   30.6700 H   0  0  0  0  0  0  0  0  0  0  0  0
   38.4980   28.0030   29.7370 C   0  0  0  0  0  3  0  0  0  0  0  0
   37.2050   28.4790   29.9170 C   0  0  0  0  0  3  0  0  0  0  0  0
   36.9680   28.1650   31.7250 S   0  0  0  0  0  0  0  0  0  0  0  0
  1 13  1  0  0  0  0
  1  2  1  0  0  0  0
  2 14  1  0  0  0  0
  3 15  1  0  0  0  0
  3  2  2  0  0  0  0
  4  3  1  0  0  0  0
  5  6  1  0  0  0  0
  5  4  2  0  0  0  0
  6  1  2  0  0  0  0
  7  5  1  0  0  0  0
  8 16  1  0  0  0  0
  8  7  1  0  0  0  0
  9 18  1  0  0  0  0
  9  8  1  0  0  0  0
 10  9  1  0  0  0  0
 10 20  1  0  0  0  0
 10 11  1  0  0  0  0
 11 22  1  0  0  0  0
 11 12  1  0  0  0  0
 12  7  1  0  0  0  0
 12 23  1  1  0  0  0
 17  8  1  0  0  0  0
 19  9  1  0  0  0  0
 21 11  1  0  0  0  0
 24 12  1  0  0  0  0
 24 25  1  1  0  0  0
 25 26  1  0  0  0  0
 25 30  1  0  0  0  0
 26 31  1  0  0  0  0
 27 28  1  0  0  0  0
 27 34  1  0  0  0  0
 27 26  1  0  0  0  0
 28 24  1  0  0  0  0
 28 35  1  1  0  0  0
 29 25  1  0  0  0  0
 32 26  1  0  0  0  0
 33 27  1  0  0  0  0
 36 28  1  0  0  0  0
 37 36  2  0  0  0  0
 38 37  1  0  0  0  0
 39 40  2  0  0  0  0
 39 37  1  0  0  0  0
 40 41  1  0  0  0  0
 41 36  1  0  0  0  0
M  END
>  <minimizedAffinity>
-5.17047644

$$$$

 OpenBabel03272505533D

 41 44  0  0  1  0  0  0  0  0999 V2000
   37.8620   22.7240   31.4620 C   0  0  0  0  0  0  0  0  0  0  0  0
   36.5120   22.3060   31.4410 C   0  0  0  0  0  0  0  0  0  0  0  0
   35.5470   23.2950   31.2940 C   0  0  0  0  0  0  0  0  0  0  0  0
   35.9580   24.5880   31.1820 N   0  0  0  0  0  0  0  0  0  0  0  0
   37.2420   24.9340   31.2070 C   0  0  0  0  0  0  0  0  0  0  0  0
   38.1880   24.0090   31.3460 N   0  0  0  0  0  0  0  0  0  0  0  0
   37.6000   26.3000   31.0840 N   0  0  0  0  0  0  0  0  0  0  0  0
   38.8760   26.7050   30.5110 C   0  0  0  0  0  0  0  0  0  0  0  0
   38.6560   27.6800   29.4030 C   0  0  0  0  0  0  0  0  0  0  0  0
   37.4010   28.2520   29.3220 N   0  0  0  0  0  0  0  0  0  0  0  0
   36.5490   28.3560   30.4750 C   0  0  0  0  0  0  0  0  0  0  0  0
   36.7130   27.3650   31.5220 C   0  0  2  0  0  0  0  0  0  0  0  0
   38.6220   21.9490   31.5760 H   0  0  0  0  0  0  0  0  0  0  0  0
   36.2550   21.2790   31.5330 H   0  0  0  0  0  0  0  0  0  0  0  0
   34.4890   23.0450   31.2700 H   0  0  0  0  0  0  0  0  0  0  0  0
   39.3160   25.7650   30.0520 H   0  0  0  0  0  0  0  0  0  0  0  0
   39.6110   26.9980   31.2670 H   0  0  0  0  0  0  0  0  0  0  0  0
   38.9600   27.2610   28.4230 H   0  0  0  0  0  0  0  0  0  0  0  0
   39.4170   28.5010   29.5750 H   0  0  0  0  0  0  0  0  0  0  0  0
   36.9380   28.0850   28.4220 H   0  0  0  0  0  0  0  0  0  0  0  0
   36.4870   29.4160   30.6790 H   0  0  0  0  0  0  0  0  0  0  0  0
   35.5170   28.1590   30.0250 H   0  0  0  0  0  0  0  0  0  0  0  0
   35.7430   26.8620   31.8200 H   0  0  0  0  0  0  0  0  0  0  0  0
   37.2630   27.8840   32.7640 N   0  0  2  0  0  0  0  0  0  0  0  0
   38.4180   27.0980   33.2000 C   0  0  0  0  0  0  0  0  0  0  0  0
   38.3690   27.0540   34.7150 C   0  0  0  0  0  0  0  0  0  0  0  0
   37.2820   28.0110   35.0450 C   0  0  0  0  0  0  0  0  0  0  0  0
   36.3330   27.8980   33.8320 C   0  0  1  0  0  0  0  0  0  0  0  0
   39.3360   27.5690   32.8520 H   0  0  0  0  0  0  0  0  0  0  0  0
   38.2860   26.0610   32.7900 H   0  0  0  0  0  0  0  0  0  0  0  0
   38.0660   26.0360   35.0380 H   0  0  0  0  0  0  0  0  0  0  0  0
   39.3640   27.3190   35.1290 H   0  0  0  0  0  0  0  0  0  0  0  0
   37.6720   29.0430   35.1260 H   0  0  0  0  0  0  0  0  0  0  0  0
   36.7870   27.7640   35.9860 H   0  0  0  0  0  0  0  0  0  0  0  0
   35.8180   26.9860   34.1040 H   0  0  0  0  0  0  0  0  0  0  0  0
   35.5250   29.1240   33.9680 C   0  0  0  0  0  0  0  0  0  0  0  0
   35.8220   30.1830   34.8030 C   0  0  0  0  0  0  0  0  0  0  0  0
   36.7000   30.1980   35.4360 H   0  0  0  0  0  0  0  0  0  0  0  0
   34.9430   31.2350   34.7970 C   0  0  0  0  0  3  0  0  0  0  0  0
   33.8200   31.2010   33.9800 C   0  0  0  0  0  3  0  0  0  0  0  0
   34.0340   29.5560   33.1630 S   0  0  0  0  0  0  0  0  0  0  0  0
  1 13  1  0  0  0  0
  2  1  1  0  0  0  0
  2 14  1  0  0  0  0
  3  2  2  0  0  0  0
  4  5  2  0  0  0  0
  4  3  1  0  0  0  0
  5  6  1  0  0  0  0
  6  1  2  0  0  0  0
  7  5  1  0  0  0  0
  7 12  1  0  0  0  0
  8  7  1  0  0  0  0
  8 17  1  0  0  0  0
  9 19  1  0  0  0  0
  9  8  1  0  0  0  0
 10  9  1  0  0  0  0
 10 11  1  0  0  0  0
 11 21  1  0  0  0  0
 11 12  1  0  0  0  0
 12 23  1  1  0  0  0
 12 24  1  0  0  0  0
 15  3  1  0  0  0  0
 16  8  1  0  0  0  0
 18  9  1  0  0  0  0
 20 10  1  0  0  0  0
 22 11  1  0  0  0  0
 24 25  1  1  0  0  0
 24 28  1  0  0  0  0
 25 26  1  0  0  0  0
 26 31  1  0  0  0  0
 26 27  1  0  0  0  0
 26 32  1  0  0  0  0
 27 33  1  0  0  0  0
 27 34  1  0  0  0  0
 28 36  1  0  0  0  0
 28 35  1  1  0  0  0
 28 27  1  0  0  0  0
 29 25  1  0  0  0  0
 30 25  1  0  0  0  0
 36 37  2  0  0  0  0
 37 38  1  0  0  0  0
 39 37  1  0  0  0  0
 40 39  2  0  0  0  0
 41 36  1  0  0  0  0
 41 40  1  0  0  0  0
M  END
>  <minimizedAffinity>
-5.16639757

$$$$

 OpenBabel03272505533D

 41 44  0  0  1  0  0  0  0  0999 V2000
   42.1030   21.3260   36.9420 C   0  0  0  0  0  0  0  0  0  0  0  0
   43.2110   22.0250   36.4100 C   0  0  0  0  0  0  0  0  0  0  0  0
   42.9400   23.1580   35.6550 C   0  0  0  0  0  0  0  0  0  0  0  0
   41.6390   23.5200   35.4740 N   0  0  0  0  0  0  0  0  0  0  0  0
   40.6280   22.8300   35.9950 C   0  0  0  0  0  0  0  0  0  0  0  0
   40.8580   21.7410   36.7230 N   0  0  0  0  0  0  0  0  0  0  0  0
   39.2970   23.2640   35.7680 N   0  0  0  0  0  0  0  0  0  0  0  0
   38.2320   22.9860   36.7220 C   0  0  0  0  0  0  0  0  0  0  0  0
   37.5360   24.2510   37.0990 C   0  0  0  0  0  0  0  0  0  0  0  0
   37.7740   25.3510   36.2960 N   0  0  0  0  0  0  0  0  0  0  0  0
   38.1880   25.2040   34.9270 C   0  0  0  0  0  0  0  0  0  0  0  0
   38.9280   24.0070   34.5750 C   0  0  2  0  0  0  0  0  0  0  0  0
   42.3130   20.4350   37.5360 H   0  0  0  0  0  0  0  0  0  0  0  0
   44.2050   21.6910   36.5870 H   0  0  0  0  0  0  0  0  0  0  0  0
   43.7430   23.7440   35.2150 H   0  0  0  0  0  0  0  0  0  0  0  0
   38.7520   22.5960   37.6540 H   0  0  0  0  0  0  0  0  0  0  0  0
   37.5870   22.1580   36.4150 H   0  0  0  0  0  0  0  0  0  0  0  0
   37.6950   24.5040   38.1670 H   0  0  0  0  0  0  0  0  0  0  0  0
   36.4330   24.0060   37.0580 H   0  0  0  0  0  0  0  0  0  0  0  0
   38.1600   26.1500   36.8100 H   0  0  0  0  0  0  0  0  0  0  0  0
   37.3520   25.5660   34.3450 H   0  0  0  0  0  0  0  0  0  0  0  0
   38.9270   26.0670   34.8090 H   0  0  0  0  0  0  0  0  0  0  0  0
   39.8950   24.2220   34.0280 H   0  0  0  0  0  0  0  0  0  0  0  0
   38.2080   23.0830   33.7130 N   0  0  2  0  0  0  0  0  0  0  0  0
   38.7180   21.7180   33.8560 C   0  0  0  0  0  0  0  0  0  0  0  0
   38.6390   21.0770   32.4850 C   0  0  0  0  0  0  0  0  0  0  0  0
   37.8830   22.0760   31.6890 C   0  0  0  0  0  0  0  0  0  0  0  0
   38.2790   23.4200   32.3390 C   0  0  1  0  0  0  0  0  0  0  0  0
   38.1130   21.1730   34.5790 H   0  0  0  0  0  0  0  0  0  0  0  0
   39.7930   21.7990   34.1720 H   0  0  0  0  0  0  0  0  0  0  0  0
   39.6640   20.9830   32.0690 H   0  0  0  0  0  0  0  0  0  0  0  0
   38.1540   20.0820   32.5650 H   0  0  0  0  0  0  0  0  0  0  0  0
   36.7910   21.9170   31.7830 H   0  0  0  0  0  0  0  0  0  0  0  0
   38.1360   22.0360   30.6280 H   0  0  0  0  0  0  0  0  0  0  0  0
   39.2450   23.5550   31.8710 H   0  0  0  0  0  0  0  0  0  0  0  0
   37.2220   24.3190   31.8400 C   0  0  0  0  0  0  0  0  0  0  0  0
   35.9240   23.9400   31.5570 C   0  0  0  0  0  0  0  0  0  0  0  0
   35.5710   22.9250   31.6890 H   0  0  0  0  0  0  0  0  0  0  0  0
   35.0860   24.9200   31.0920 C   0  0  0  0  0  3  0  0  0  0  0  0
   35.5550   26.2180   30.9260 C   0  0  0  0  0  3  0  0  0  0  0  0
   37.3110   26.0260   31.4710 S   0  0  0  0  0  0  0  0  0  0  0  0
  1 13  1  0  0  0  0
  2 14  1  0  0  0  0
  2  1  2  0  0  0  0
  3  2  1  0  0  0  0
  4  3  2  0  0  0  0
  4  5  1  0  0  0  0
  5  6  2  0  0  0  0
  6  1  1  0  0  0  0
  7  5  1  0  0  0  0
  7  8  1  0  0  0  0
  8  9  1  0  0  0  0
  8 16  1  0  0  0  0
  9 18  1  0  0  0  0
 10 20  1  0  0  0  0
 10  9  1  0  0  0  0
 11 10  1  0  0  0  0
 12 23  1  6  0  0  0
 12 11  1  0  0  0  0
 12  7  1  0  0  0  0
 15  3  1  0  0  0  0
 17  8  1  0  0  0  0
 19  9  1  0  0  0  0
 21 11  1  0  0  0  0
 22 11  1  0  0  0  0
 24 25  1  6  0  0  0
 24 12  1  0  0  0  0
 25 30  1  0  0  0  0
 25 29  1  0  0  0  0
 26 32  1  0  0  0  0
 26 25  1  0  0  0  0
 27 33  1  0  0  0  0
 27 28  1  0  0  0  0
 27 26  1  0  0  0  0
 28 35  1  6  0  0  0
 28 24  1  0  0  0  0
 31 26  1  0  0  0  0
 34 27  1  0  0  0  0
 36 28  1  0  0  0  0
 37 38  1  0  0  0  0
 37 36  2  0  0  0  0
 39 37  1  0  0  0  0
 40 39  2  0  0  0  0
 40 41  1  0  0  0  0
 41 36  1  0  0  0  0
M  END
>  <minimizedAffinity>
-5.12903452

$$$$

 OpenBabel03272505533D

 41 44  0  0  1  0  0  0  0  0999 V2000
   38.0070   24.3580   38.2220 C   0  0  0  0  0  0  0  0  0  0  0  0
   38.8150   23.2270   38.4810 C   0  0  0  0  0  0  0  0  0  0  0  0
   39.6100   22.7660   37.4390 C   0  0  0  0  0  0  0  0  0  0  0  0
   39.5610   23.4240   36.2480 N   0  0  0  0  0  0  0  0  0  0  0  0
   38.7840   24.4860   36.0510 C   0  0  0  0  0  0  0  0  0  0  0  0
   38.0130   24.9490   37.0300 N   0  0  0  0  0  0  0  0  0  0  0  0
   38.7830   25.1250   34.7850 N   0  0  0  0  0  0  0  0  0  0  0  0
   38.4860   26.5440   34.6480 C   0  0  0  0  0  0  0  0  0  0  0  0
   39.5770   27.2280   33.8940 C   0  0  0  0  0  0  0  0  0  0  0  0
   40.4620   26.4140   33.2120 N   0  0  0  0  0  0  0  0  0  0  0  0
   40.0890   25.0930   32.7860 C   0  0  0  0  0  0  0  0  0  0  0  0
   39.0790   24.3980   33.5620 C   0  0  2  0  0  0  0  0  0  0  0  0
   37.3820   24.7210   39.0390 H   0  0  0  0  0  0  0  0  0  0  0  0
   38.8090   22.7560   39.4340 H   0  0  0  0  0  0  0  0  0  0  0  0
   40.2560   21.9010   37.5680 H   0  0  0  0  0  0  0  0  0  0  0  0
   38.4920   26.9600   35.7040 H   0  0  0  0  0  0  0  0  0  0  0  0
   37.4670   26.7360   34.2960 H   0  0  0  0  0  0  0  0  0  0  0  0
   40.1220   27.9530   34.5310 H   0  0  0  0  0  0  0  0  0  0  0  0
   39.0490   27.8930   33.1460 H   0  0  0  0  0  0  0  0  0  0  0  0
   41.4370   26.5460   33.5010 H   0  0  0  0  0  0  0  0  0  0  0  0
   40.0620   25.1470   31.7070 H   0  0  0  0  0  0  0  0  0  0  0  0
   41.0580   24.5090   32.9510 H   0  0  0  0  0  0  0  0  0  0  0  0
   39.3950   23.3600   33.8830 H   0  0  0  0  0  0  0  0  0  0  0  0
   37.8130   24.2070   32.8720 N   0  0  2  0  0  0  0  0  0  0  0  0
   37.3830   22.8090   32.9330 C   0  0  0  0  0  0  0  0  0  0  0  0
   36.7010   22.5050   31.6140 C   0  0  0  0  0  0  0  0  0  0  0  0
   36.6090   23.8370   30.9670 C   0  0  0  0  0  0  0  0  0  0  0  0
   37.8510   24.5790   31.5060 C   0  0  1  0  0  0  0  0  0  0  0  0
   36.6990   22.6700   33.7690 H   0  0  0  0  0  0  0  0  0  0  0  0
   38.3100   22.1830   33.0300 H   0  0  0  0  0  0  0  0  0  0  0  0
   37.3620   21.8520   31.0060 H   0  0  0  0  0  0  0  0  0  0  0  0
   35.7260   22.0100   31.8030 H   0  0  0  0  0  0  0  0  0  0  0  0
   35.6870   24.3670   31.2760 H   0  0  0  0  0  0  0  0  0  0  0  0
   36.6050   23.7680   29.8770 H   0  0  0  0  0  0  0  0  0  0  0  0
   38.6010   24.1480   30.8550 H   0  0  0  0  0  0  0  0  0  0  0  0
   37.5150   25.9840   31.2100 C   0  0  0  0  0  0  0  0  0  0  0  0
   36.3930   26.6460   31.6690 C   0  0  0  0  0  0  0  0  0  0  0  0
   35.6550   26.1720   32.3030 H   0  0  0  0  0  0  0  0  0  0  0  0
   36.2480   27.9520   31.2790 C   0  0  0  0  0  3  0  0  0  0  0  0
   37.2040   28.5460   30.4630 C   0  0  0  0  0  3  0  0  0  0  0  0
   38.3890   27.1450   30.2370 S   0  0  0  0  0  0  0  0  0  0  0  0
  1  2  1  0  0  0  0
  1 13  1  0  0  0  0
  2 14  1  0  0  0  0
  3 15  1  0  0  0  0
  3  2  2  0  0  0  0
  4  3  1  0  0  0  0
  5  4  2  0  0  0  0
  5  6  1  0  0  0  0
  6  1  2  0  0  0  0
  7  5  1  0  0  0  0
  8  7  1  0  0  0  0
  8 16  1  0  0  0  0
  9 18  1  0  0  0  0
  9  8  1  0  0  0  0
 10 20  1  0  0  0  0
 10  9  1  0  0  0  0
 11 22  1  0  0  0  0
 11 10  1  0  0  0  0
 11 12  1  0  0  0  0
 12 23  1  1  0  0  0
 12  7  1  0  0  0  0
 17  8  1  0  0  0  0
 19  9  1  0  0  0  0
 21 11  1  0  0  0  0
 24 25  1  6  0  0  0
 24 12  1  0  0  0  0
 25 30  1  0  0  0  0
 25 29  1  0  0  0  0
 26 32  1  0  0  0  0
 26 25  1  0  0  0  0
 27 33  1  0  0  0  0
 27 28  1  0  0  0  0
 27 26  1  0  0  0  0
 28 35  1  6  0  0  0
 28 24  1  0  0  0  0
 31 26  1  0  0  0  0
 34 27  1  0  0  0  0
 36 28  1  0  0  0  0
 36 37  2  0  0  0  0
 37 38  1  0  0  0  0
 39 37  1  0  0  0  0
 40 39  2  0  0  0  0
 41 40  1  0  0  0  0
 41 36  1  0  0  0  0
M  END
>  <minimizedAffinity>
-5.09039593

$$$$

 OpenBabel03272505533D

 41 44  0  0  1  0  0  0  0  0999 V2000
   39.7120   27.0870   35.0710 C   0  0  0  0  0  0  0  0  0  0  0  0
   38.8830   26.7090   36.1520 C   0  0  0  0  0  0  0  0  0  0  0  0
   37.6120   26.2460   35.8420 C   0  0  0  0  0  0  0  0  0  0  0  0
   37.2460   26.1870   34.5310 N   0  0  0  0  0  0  0  0  0  0  0  0
   38.0610   26.5540   33.5460 C   0  0  0  0  0  0  0  0  0  0  0  0
   39.2850   27.0020   33.8140 N   0  0  0  0  0  0  0  0  0  0  0  0
   37.6170   26.4660   32.2020 N   0  0  0  0  0  0  0  0  0  0  0  0
   38.5490   26.2550   31.1040 C   0  0  0  0  0  0  0  0  0  0  0  0
   38.1250   25.0800   30.2870 C   0  0  0  0  0  0  0  0  0  0  0  0
   36.8380   24.6200   30.4880 N   0  0  0  0  0  0  0  0  0  0  0  0
   35.8050   25.4800   31.0000 C   0  0  0  0  0  0  0  0  0  0  0  0
   36.2110   26.5800   31.8530 C   0  0  2  0  0  0  0  0  0  0  0  0
   40.7120   27.4520   35.3130 H   0  0  0  0  0  0  0  0  0  0  0  0
   39.2270   26.7790   37.1560 H   0  0  0  0  0  0  0  0  0  0  0  0
   36.9210   25.9390   36.6230 H   0  0  0  0  0  0  0  0  0  0  0  0
   39.5390   25.9870   31.5910 H   0  0  0  0  0  0  0  0  0  0  0  0
   38.7690   27.1710   30.5470 H   0  0  0  0  0  0  0  0  0  0  0  0
   38.8540   24.2480   30.3560 H   0  0  0  0  0  0  0  0  0  0  0  0
   38.2240   25.4160   29.2110 H   0  0  0  0  0  0  0  0  0  0  0  0
   36.8010   23.6360   30.7760 H   0  0  0  0  0  0  0  0  0  0  0  0
   35.1140   25.6020   30.1770 H   0  0  0  0  0  0  0  0  0  0  0  0
   35.2180   24.7690   31.6750 H   0  0  0  0  0  0  0  0  0  0  0  0
   35.6470   26.6190   32.8340 H   0  0  0  0  0  0  0  0  0  0  0  0
   36.0310   27.8990   31.2650 N   0  0  2  0  0  0  0  0  0  0  0  0
   36.7870   28.0290   30.0180 C   0  0  0  0  0  0  0  0  0  0  0  0
   37.2840   29.4600   29.9590 C   0  0  0  0  0  0  0  0  0  0  0  0
   36.5880   30.1070   31.0990 C   0  0  0  0  0  0  0  0  0  0  0  0
   36.4320   28.9570   32.1170 C   0  0  1  0  0  0  0  0  0  0  0  0
   36.1410   27.8030   29.1710 H   0  0  0  0  0  0  0  0  0  0  0  0
   37.6630   27.3300   30.0880 H   0  0  0  0  0  0  0  0  0  0  0  0
   38.3780   29.4720   30.1480 H   0  0  0  0  0  0  0  0  0  0  0  0
   37.0530   29.8940   28.9640 H   0  0  0  0  0  0  0  0  0  0  0  0
   35.5920   30.4820   30.7960 H   0  0  0  0  0  0  0  0  0  0  0  0
   37.1530   30.9490   31.5030 H   0  0  0  0  0  0  0  0  0  0  0  0
   37.4320   28.9600   32.5300 H   0  0  0  0  0  0  0  0  0  0  0  0
   35.3930   29.4900   33.0170 C   0  0  0  0  0  0  0  0  0  0  0  0
   35.6130   29.9480   34.3010 C   0  0  0  0  0  0  0  0  0  0  0  0
   36.5950   29.9570   34.7570 H   0  0  0  0  0  0  0  0  0  0  0  0
   34.5160   30.3980   34.9880 C   0  0  0  0  0  3  0  0  0  0  0  0
   33.2610   30.3800   34.3910 C   0  0  0  0  0  3  0  0  0  0  0  0
   33.6770   29.6700   32.7340 S   0  0  0  0  0  0  0  0  0  0  0  0
  1 13  1  0  0  0  0
  1  2  1  0  0  0  0
  2 14  1  0  0  0  0
  3  2  2  0  0  0  0
  3 15  1  0  0  0  0
  4  3  1  0  0  0  0
  5  6  1  0  0  0  0
  5  4  2  0  0  0  0
  6  1  2  0  0  0  0
  7  5  1  0  0  0  0
  8 16  1  0  0  0  0
  8  7  1  0  0  0  0
  9 18  1  0  0  0  0
  9 10  1  0  0  0  0
  9  8  1  0  0  0  0
 10 20  1  0  0  0  0
 10 11  1  0  0  0  0
 11 22  1  0  0  0  0
 11 12  1  0  0  0  0
 12  7  1  0  0  0  0
 12 23  1  1  0  0  0
 17  8  1  0  0  0  0
 19  9  1  0  0  0  0
 21 11  1  0  0  0  0
 24 25  1  6  0  0  0
 24 12  1  0  0  0  0
 24 28  1  0  0  0  0
 25 30  1  0  0  0  0
 26 25  1  0  0  0  0
 26 31  1  0  0  0  0
 26 27  1  0  0  0  0
 27 34  1  0  0  0  0
 27 28  1  0  0  0  0
 28 35  1  1  0  0  0
 28 36  1  0  0  0  0
 29 25  1  0  0  0  0
 32 26  1  0  0  0  0
 33 27  1  0  0  0  0
 36 37  2  0  0  0  0
 37 38  1  0  0  0  0
 37 39  1  0  0  0  0
 40 39  2  0  0  0  0
 41 36  1  0  0  0  0
 41 40  1  0  0  0  0
M  END
>  <minimizedAffinity>
-5.08706474

$$$$

 OpenBabel03272505533D

 41 44  0  0  1  0  0  0  0  0999 V2000
   37.4470   27.1170   35.2080 C   0  0  0  0  0  0  0  0  0  0  0  0
   38.7620   27.5360   35.5120 C   0  0  0  0  0  0  0  0  0  0  0  0
   39.8010   26.8620   34.8840 C   0  0  0  0  0  0  0  0  0  0  0  0
   39.4920   25.8520   34.0260 N   0  0  0  0  0  0  0  0  0  0  0  0
   38.2370   25.4920   33.7700 C   0  0  0  0  0  0  0  0  0  0  0  0
   37.2220   26.1200   34.3570 N   0  0  0  0  0  0  0  0  0  0  0  0
   37.9860   24.4310   32.8640 N   0  0  0  0  0  0  0  0  0  0  0  0
   36.7570   24.3670   32.0860 C   0  0  0  0  0  0  0  0  0  0  0  0
   37.0720   24.2220   30.6350 C   0  0  0  0  0  0  0  0  0  0  0  0
   38.3690   23.8650   30.3170 N   0  0  0  0  0  0  0  0  0  0  0  0
   39.2020   23.1570   31.2510 C   0  0  0  0  0  0  0  0  0  0  0  0
   38.9410   23.3540   32.6640 C   0  0  2  0  0  0  0  0  0  0  0  0
   36.6290   27.6450   35.7000 H   0  0  0  0  0  0  0  0  0  0  0  0
   38.9390   28.3340   36.1930 H   0  0  0  0  0  0  0  0  0  0  0  0
   40.8380   27.1320   35.0720 H   0  0  0  0  0  0  0  0  0  0  0  0
   36.2570   25.3780   32.2240 H   0  0  0  0  0  0  0  0  0  0  0  0
   36.0290   23.6570   32.4910 H   0  0  0  0  0  0  0  0  0  0  0  0
   36.7590   25.1140   30.0560 H   0  0  0  0  0  0  0  0  0  0  0  0
   36.3730   23.4170   30.2580 H   0  0  0  0  0  0  0  0  0  0  0  0
   38.8370   24.5420   29.7050 H   0  0  0  0  0  0  0  0  0  0  0  0
   39.3390   22.1780   30.8130 H   0  0  0  0  0  0  0  0  0  0  0  0
   40.2250   23.6280   31.0590 H   0  0  0  0  0  0  0  0  0  0  0  0
   39.8640   23.6400   33.2550 H   0  0  0  0  0  0  0  0  0  0  0  0
   38.4060   22.1870   33.3480 N   0  0  2  0  0  0  0  0  0  0  0  0
   37.6170   21.3560   32.4370 C   0  0  0  0  0  0  0  0  0  0  0  0
   36.4700   20.7880   33.2490 C   0  0  0  0  0  0  0  0  0  0  0  0
   36.8140   21.1800   34.6390 C   0  0  0  0  0  0  0  0  0  0  0  0
   37.5790   22.5080   34.4520 C   0  0  1  0  0  0  0  0  0  0  0  0
   38.2410   20.5610   32.0310 H   0  0  0  0  0  0  0  0  0  0  0  0
   37.2120   22.0330   31.6380 H   0  0  0  0  0  0  0  0  0  0  0  0
   35.5280   21.2960   32.9520 H   0  0  0  0  0  0  0  0  0  0  0  0
   36.3970   19.6930   33.0780 H   0  0  0  0  0  0  0  0  0  0  0  0
   37.4710   20.4270   35.1140 H   0  0  0  0  0  0  0  0  0  0  0  0
   35.9280   21.2950   35.2660 H   0  0  0  0  0  0  0  0  0  0  0  0
   36.7360   23.1710   34.3130 H   0  0  0  0  0  0  0  0  0  0  0  0
   38.2630   22.6470   35.7510 C   0  0  0  0  0  0  0  0  0  0  0  0
   39.5310   22.1790   36.0350 C   0  0  0  0  0  0  0  0  0  0  0  0
   40.1400   21.6640   35.3030 H   0  0  0  0  0  0  0  0  0  0  0  0
   39.9950   22.3960   37.3070 C   0  0  0  0  0  3  0  0  0  0  0  0
   39.2000   23.0570   38.2360 C   0  0  0  0  0  3  0  0  0  0  0  0
   37.6880   23.3910   37.2250 S   0  0  0  0  0  0  0  0  0  0  0  0
  1  2  1  0  0  0  0
  1 13  1  0  0  0  0
  2 14  1  0  0  0  0
  3 15  1  0  0  0  0
  3  2  2  0  0  0  0
  4  3  1  0  0  0  0
  5  4  2  0  0  0  0
  5  6  1  0  0  0  0
  6  1  2  0  0  0  0
  7  5  1  0  0  0  0
  8 16  1  0  0  0  0
  8 17  1  0  0  0  0
  8  7  1  0  0  0  0
  9  8  1  0  0  0  0
 10  9  1  0  0  0  0
 10 11  1  0  0  0  0
 11 12  1  0  0  0  0
 12  7  1  0  0  0  0
 12 23  1  1  0  0  0
 12 24  1  0  0  0  0
 18  9  1  0  0  0  0
 19  9  1  0  0  0  0
 20 10  1  0  0  0  0
 21 11  1  0  0  0  0
 22 11  1  0  0  0  0
 24 25  1  6  0  0  0
 24 28  1  0  0  0  0
 25 26  1  0  0  0  0
 26 27  1  0  0  0  0
 27 33  1  0  0  0  0
 27 34  1  0  0  0  0
 28 35  1  6  0  0  0
 28 27  1  0  0  0  0
 28 36  1  0  0  0  0
 29 25  1  0  0  0  0
 30 25  1  0  0  0  0
 31 26  1  0  0  0  0
 32 26  1  0  0  0  0
 36 37  2  0  0  0  0
 36 41  1  0  0  0  0
 37 39  1  0  0  0  0
 38 37  1  0  0  0  0
 39 40  2  0  0  0  0
 41 40  1  0  0  0  0
M  END
>  <minimizedAffinity>
-5.0504775

$$$$

 OpenBabel03272505533D

 41 44  0  0  1  0  0  0  0  0999 V2000
   34.6050   29.5080   32.1540 C   0  0  0  0  0  0  0  0  0  0  0  0
   35.2920   30.5820   31.5460 C   0  0  0  0  0  0  0  0  0  0  0  0
   36.5690   30.3240   31.0650 C   0  0  0  0  0  0  0  0  0  0  0  0
   37.0740   29.0670   31.2090 N   0  0  0  0  0  0  0  0  0  0  0  0
   36.3880   28.0860   31.7900 C   0  0  0  0  0  0  0  0  0  0  0  0
   35.1630   28.3050   32.2600 N   0  0  0  0  0  0  0  0  0  0  0  0
   36.9730   26.8000   31.9070 N   0  0  0  0  0  0  0  0  0  0  0  0
   36.1590   25.5930   31.9460 C   0  0  0  0  0  0  0  0  0  0  0  0
   36.6190   24.6280   30.9060 C   0  0  0  0  0  0  0  0  0  0  0  0
   37.8550   24.8720   30.3390 N   0  0  0  0  0  0  0  0  0  0  0  0
   38.8620   25.6300   31.0330 C   0  0  0  0  0  0  0  0  0  0  0  0
   38.4130   26.6200   31.9930 C   0  0  2  0  0  0  0  0  0  0  0  0
   33.6010   29.7090   32.5330 H   0  0  0  0  0  0  0  0  0  0  0  0
   34.8440   31.5430   31.4630 H   0  0  0  0  0  0  0  0  0  0  0  0
   37.1560   31.1040   30.5850 H   0  0  0  0  0  0  0  0  0  0  0  0
   35.1110   25.9240   31.6610 H   0  0  0  0  0  0  0  0  0  0  0  0
   36.0410   25.1890   32.9570 H   0  0  0  0  0  0  0  0  0  0  0  0
   35.8520   24.4740   30.1210 H   0  0  0  0  0  0  0  0  0  0  0  0
   36.6530   23.6240   31.4270 H   0  0  0  0  0  0  0  0  0  0  0  0
   37.8180   24.9830   29.3200 H   0  0  0  0  0  0  0  0  0  0  0  0
   39.6430   24.9160   31.2520 H   0  0  0  0  0  0  0  0  0  0  0  0
   39.3400   26.2230   30.1810 H   0  0  0  0  0  0  0  0  0  0  0  0
   38.8670   27.6440   31.8270 H   0  0  0  0  0  0  0  0  0  0  0  0
   38.7130   26.2970   33.3790 N   0  0  2  0  0  0  0  0  0  0  0  0
   37.4940   26.2620   34.1890 C   0  0  0  0  0  0  0  0  0  0  0  0
   37.8650   26.8010   35.5570 C   0  0  0  0  0  0  0  0  0  0  0  0
   39.3430   26.9140   35.4850 C   0  0  0  0  0  0  0  0  0  0  0  0
   39.6040   27.2100   33.9930 C   0  0  1  0  0  0  0  0  0  0  0  0
   37.1270   25.2390   34.2580 H   0  0  0  0  0  0  0  0  0  0  0  0
   36.7530   26.9510   33.7020 H   0  0  0  0  0  0  0  0  0  0  0  0
   37.4300   27.8160   35.6760 H   0  0  0  0  0  0  0  0  0  0  0  0
   37.4870   26.1160   36.3440 H   0  0  0  0  0  0  0  0  0  0  0  0
   39.8290   25.9620   35.7730 H   0  0  0  0  0  0  0  0  0  0  0  0
   39.7300   27.6970   36.1400 H   0  0  0  0  0  0  0  0  0  0  0  0
   39.3720   28.2680   33.9880 H   0  0  0  0  0  0  0  0  0  0  0  0
   41.0380   26.8940   33.8690 C   0  0  0  0  0  0  0  0  0  0  0  0
   41.9370   27.5810   33.0760 C   0  0  0  0  0  0  0  0  0  0  0  0
   41.6500   28.4320   32.4720 H   0  0  0  0  0  0  0  0  0  0  0  0
   43.2320   27.1310   33.0850 C   0  0  0  0  0  3  0  0  0  0  0  0
   43.5850   26.0360   33.8640 C   0  0  0  0  0  3  0  0  0  0  0  0
   41.9570   25.6200   34.6370 S   0  0  0  0  0  0  0  0  0  0  0  0
  1  6  1  0  0  0  0
  1 13  1  0  0  0  0
  2  1  2  0  0  0  0
  3  4  2  0  0  0  0
  3  2  1  0  0  0  0
  4  5  1  0  0  0  0
  5  7  1  0  0  0  0
  5  6  2  0  0  0  0
  7  8  1  0  0  0  0
  7 12  1  0  0  0  0
  8 17  1  0  0  0  0
  9 19  1  0  0  0  0
  9  8  1  0  0  0  0
 10  9  1  0  0  0  0
 10 11  1  0  0  0  0
 11 21  1  0  0  0  0
 11 12  1  0  0  0  0
 12 23  1  6  0  0  0
 12 24  1  0  0  0  0
 14  2  1  0  0  0  0
 15  3  1  0  0  0  0
 16  8  1  0  0  0  0
 18  9  1  0  0  0  0
 20 10  1  0  0  0  0
 22 11  1  0  0  0  0
 24 28  1  0  0  0  0
 24 25  1  1  0  0  0
 25 29  1  0  0  0  0
 25 26  1  0  0  0  0
 26 31  1  0  0  0  0
 26 32  1  0  0  0  0
 27 26  1  0  0  0  0
 27 33  1  0  0  0  0
 27 34  1  0  0  0  0
 28 35  1  6  0  0  0
 28 27  1  0  0  0  0
 30 25  1  0  0  0  0
 36 28  1  0  0  0  0
 36 41  1  0  0  0  0
 37 39  1  0  0  0  0
 37 36  2  0  0  0  0
 38 37  1  0  0  0  0
 39 40  2  0  0  0  0
 40 41  1  0  0  0  0
M  END
>  <minimizedAffinity>
-5.03128672

$$$$
