
 OpenBabel03262522293D

 43 46  0  0  0  0  0  0  0  0999 V2000
   35.1210   29.0090   32.3640 C   0  0  0  0  0  0  0  0  0  0  0  0
   35.2950   30.3870   32.2730 C   0  0  0  0  0  0  0  0  0  0  0  0
   36.3590   30.8520   31.5300 C   0  0  0  0  0  0  0  0  0  0  0  0
   37.1640   29.9240   30.9370 N   0  0  0  0  0  0  0  0  0  0  0  0
   36.9750   28.6460   31.0400 C   0  0  0  0  0  0  0  0  0  0  0  0
   35.9310   28.1230   31.7670 N   0  0  0  0  0  0  0  0  0  0  0  0
   34.3130   28.5690   32.9260 H   0  0  0  0  0  0  0  0  0  0  0  0
   36.5110   31.9220   31.4480 H   0  0  0  0  0  0  0  0  0  0  0  0
   34.4070   31.1930   32.9230 O   0  0  0  0  0  0  0  0  0  0  0  0
   34.6330   31.5310   34.2380 C   0  0  0  0  0  0  0  0  0  0  0  0
   35.7220   32.1790   34.7840 C   0  0  0  0  0  0  0  0  0  0  0  0
   35.7680   32.4250   36.1000 C   0  0  0  0  0  0  0  0  0  0  0  0
   34.7230   32.0250   36.8900 C   0  0  0  0  0  0  0  0  0  0  0  0
   33.6290   31.3740   36.3410 C   0  0  0  0  0  0  0  0  0  0  0  0
   33.6010   31.1350   35.0090 N   0  0  0  0  0  0  0  0  0  0  0  0
   36.4790   32.4430   34.0580 H   0  0  0  0  0  0  0  0  0  0  0  0
   36.6200   32.9320   36.5250 H   0  0  0  0  0  0  0  0  0  0  0  0
   34.6880   32.1870   37.9520 H   0  0  0  0  0  0  0  0  0  0  0  0
   32.4720   30.9330   37.2220 C   0  0  0  0  0  0  0  0  0  0  0  0
   32.3750   31.7560   37.9750 H   0  0  0  0  0  0  0  0  0  0  0  0
   31.5480   30.8670   36.6180 H   0  0  0  0  0  0  0  0  0  0  0  0
   32.7300   30.0180   37.7560 H   0  0  0  0  0  0  0  0  0  0  0  0
   38.2100   27.6820   30.1400 S   0  0  0  0  0  0  0  0  0  0  0  0
   38.2520   26.0690   31.0040 C   0  0  0  0  0  0  0  0  0  0  0  0
   38.9360   25.3880   30.4890 H   0  0  0  0  0  0  0  0  0  0  0  0
   37.2030   25.7180   31.0090 H   0  0  0  0  0  0  0  0  0  0  0  0
   36.7610   25.1540   33.1230 F   0  0  0  0  0  0  0  0  0  0  0  0
   37.9310   25.8300   33.3800 C   0  0  0  0  0  0  0  0  0  0  0  0
   38.7650   26.3420   32.3850 C   0  0  0  0  0  0  0  0  0  0  0  0
   39.9100   27.0090   32.6910 C   0  0  0  0  0  0  0  0  0  0  0  0
   40.2900   27.2050   34.0270 C   0  0  0  0  0  0  0  0  0  0  0  0
   39.4750   26.7050   35.0240 C   0  0  0  0  0  0  0  0  0  0  0  0
   38.3220   26.0330   34.7020 C   0  0  0  0  0  0  0  0  0  0  0  0
   40.4650   27.3540   31.8300 H   0  0  0  0  0  0  0  0  0  0  0  0
   41.1990   27.7370   34.2100 H   0  0  0  0  0  0  0  0  0  0  0  0
   39.7590   26.8510   36.0680 H   0  0  0  0  0  0  0  0  0  0  0  0
   37.5590   25.5630   35.7480 O   0  0  0  0  0  0  0  0  0  0  0  0
   38.1500   24.6810   36.6400 C   0  0  0  0  0  0  0  0  0  0  0  0
   38.0780   24.4640   37.9670 C   0  0  0  0  0  0  0  0  0  0  0  0
   37.4030   25.1180   38.4950 H   0  0  0  0  0  0  0  0  0  0  0  0
   38.8140   23.4800   38.5650 C   0  0  0  0  0  3  0  0  0  0  0  0
   39.6470   22.7210   37.6710 C   0  0  0  0  0  3  0  0  0  0  0  0
   39.2920   23.5050   36.0170 S   0  0  0  0  0  0  0  0  0  0  0  0
  1  7  1  0  0  0  0
  2  1  1  0  0  0  0
  2  9  1  0  0  0  0
  3  2  2  0  0  0  0
  4  5  2  0  0  0  0
  4  3  1  0  0  0  0
  5  6  1  0  0  0  0
  6  1  2  0  0  0  0
  8  3  1  0  0  0  0
  9 10  1  0  0  0  0
 10 11  2  0  0  0  0
 10 15  1  0  0  0  0
 11 12  1  0  0  0  0
 12 17  1  0  0  0  0
 12 13  2  0  0  0  0
 13 18  1  0  0  0  0
 14 13  1  0  0  0  0
 14 19  1  0  0  0  0
 15 14  2  0  0  0  0
 16 11  1  0  0  0  0
 19 22  1  0  0  0  0
 19 20  1  0  0  0  0
 21 19  1  0  0  0  0
 23 24  1  0  0  0  0
 23  5  1  0  0  0  0
 24 26  1  0  0  0  0
 24 29  1  0  0  0  0
 25 24  1  0  0  0  0
 27 28  1  0  0  0  0
 28 33  1  0  0  0  0
 29 30  1  0  0  0  0
 29 28  2  0  0  0  0
 30 31  2  0  0  0  0
 31 35  1  0  0  0  0
 31 32  1  0  0  0  0
 32 36  1  0  0  0  0
 33 32  2  0  0  0  0
 33 37  1  0  0  0  0
 34 30  1  0  0  0  0
 37 38  1  0  0  0  0
 38 39  2  0  0  0  0
 39 40  1  0  0  0  0
 39 41  1  0  0  0  0
 42 41  2  0  0  0  0
 43 38  1  0  0  0  0
 43 42  1  0  0  0  0
M  END
>  <minimizedAffinity>
-6.12524462

$$$$

 OpenBabel03262522293D

 43 46  0  0  0  0  0  0  0  0999 V2000
   37.5400   25.1900   31.0530 C   0  0  0  0  0  0  0  0  0  0  0  0
   36.4670   26.0770   31.0500 C   0  0  0  0  0  0  0  0  0  0  0  0
   35.1960   25.5470   31.0880 C   0  0  0  0  0  0  0  0  0  0  0  0
   35.0830   24.1880   31.1250 N   0  0  0  0  0  0  0  0  0  0  0  0
   36.1020   23.3870   31.1260 C   0  0  0  0  0  0  0  0  0  0  0  0
   37.3940   23.8570   31.0900 N   0  0  0  0  0  0  0  0  0  0  0  0
   38.5640   25.5270   31.0250 H   0  0  0  0  0  0  0  0  0  0  0  0
   34.3480   26.2220   31.0860 H   0  0  0  0  0  0  0  0  0  0  0  0
   36.7380   27.4130   31.0100 O   0  0  0  0  0  0  0  0  0  0  0  0
   36.2970   28.2250   32.0310 C   0  0  0  0  0  0  0  0  0  0  0  0
   36.4790   28.0730   33.3900 C   0  0  0  0  0  0  0  0  0  0  0  0
   35.9710   28.9740   34.2420 C   0  0  0  0  0  0  0  0  0  0  0  0
   35.2740   30.0430   33.7440 C   0  0  0  0  0  0  0  0  0  0  0  0
   35.0930   30.1960   32.3780 C   0  0  0  0  0  0  0  0  0  0  0  0
   35.6130   29.2750   31.5340 N   0  0  0  0  0  0  0  0  0  0  0  0
   37.0450   27.1910   33.6570 H   0  0  0  0  0  0  0  0  0  0  0  0
   36.1140   28.8530   35.3040 H   0  0  0  0  0  0  0  0  0  0  0  0
   34.8380   30.8060   34.3630 H   0  0  0  0  0  0  0  0  0  0  0  0
   34.3180   31.3840   31.8310 C   0  0  0  0  0  0  0  0  0  0  0  0
   34.6090   32.2310   32.5040 H   0  0  0  0  0  0  0  0  0  0  0  0
   34.6480   31.5980   30.7970 H   0  0  0  0  0  0  0  0  0  0  0  0
   33.2470   31.2200   31.9400 H   0  0  0  0  0  0  0  0  0  0  0  0
   35.6230   21.6450   31.1800 S   0  0  0  0  0  0  0  0  0  0  0  0
   37.0130   20.8130   32.0300 C   0  0  0  0  0  0  0  0  0  0  0  0
   37.9640   21.2400   31.6950 H   0  0  0  0  0  0  0  0  0  0  0  0
   36.9010   19.7410   31.7830 H   0  0  0  0  0  0  0  0  0  0  0  0
   38.9950   22.2100   33.3240 F   0  0  0  0  0  0  0  0  0  0  0  0
   37.8970   21.7970   34.0430 C   0  0  0  0  0  0  0  0  0  0  0  0
   36.8350   21.0800   33.4930 C   0  0  0  0  0  0  0  0  0  0  0  0
   35.7740   20.6900   34.2500 C   0  0  0  0  0  0  0  0  0  0  0  0
   35.7150   20.9980   35.6160 C   0  0  0  0  0  0  0  0  0  0  0  0
   36.7600   21.7070   36.1770 C   0  0  0  0  0  0  0  0  0  0  0  0
   37.8250   22.0960   35.4030 C   0  0  0  0  0  0  0  0  0  0  0  0
   35.0190   20.1410   33.7030 H   0  0  0  0  0  0  0  0  0  0  0  0
   34.8580   20.6660   36.1620 H   0  0  0  0  0  0  0  0  0  0  0  0
   36.7270   21.9540   37.2390 H   0  0  0  0  0  0  0  0  0  0  0  0
   38.8290   22.7990   36.0290 O   0  0  0  0  0  0  0  0  0  0  0  0
   38.8130   24.1830   35.9350 C   0  0  0  0  0  0  0  0  0  0  0  0
   38.0540   25.1720   36.4440 C   0  0  0  0  0  0  0  0  0  0  0  0
   37.2540   24.8410   37.0880 H   0  0  0  0  0  0  0  0  0  0  0  0
   38.3060   26.4820   36.1490 C   0  0  0  0  0  3  0  0  0  0  0  0
   39.4250   26.6980   35.2710 C   0  0  0  0  0  3  0  0  0  0  0  0
   40.0270   24.9650   34.9400 S   0  0  0  0  0  0  0  0  0  0  0  0
  1  6  1  0  0  0  0
  2  1  2  0  0  0  0
  2  3  1  0  0  0  0
  3  4  2  0  0  0  0
  4  5  1  0  0  0  0
  5 23  1  0  0  0  0
  6  5  2  0  0  0  0
  7  1  1  0  0  0  0
  8  3  1  0  0  0  0
  9  2  1  0  0  0  0
  9 10  1  0  0  0  0
 10 11  1  0  0  0  0
 11 16  1  0  0  0  0
 11 12  2  0  0  0  0
 12 17  1  0  0  0  0
 13 12  1  0  0  0  0
 13 18  1  0  0  0  0
 14 13  2  0  0  0  0
 15 10  2  0  0  0  0
 15 14  1  0  0  0  0
 19 22  1  0  0  0  0
 19 14  1  0  0  0  0
 19 20  1  0  0  0  0
 21 19  1  0  0  0  0
 23 24  1  0  0  0  0
 24 29  1  0  0  0  0
 25 24  1  0  0  0  0
 26 24  1  0  0  0  0
 27 28  1  0  0  0  0
 28 33  1  0  0  0  0
 29 28  2  0  0  0  0
 29 30  1  0  0  0  0
 30 31  2  0  0  0  0
 31 35  1  0  0  0  0
 31 32  1  0  0  0  0
 32 36  1  0  0  0  0
 33 37  1  0  0  0  0
 33 32  2  0  0  0  0
 34 30  1  0  0  0  0
 38 37  1  0  0  0  0
 38 39  2  0  0  0  0
 39 40  1  0  0  0  0
 41 39  1  0  0  0  0
 42 41  2  0  0  0  0
 43 42  1  0  0  0  0
 43 38  1  0  0  0  0
M  END
>  <minimizedAffinity>
-6.05211353

$$$$

 OpenBabel03262522293D

 43 46  0  0  0  0  0  0  0  0999 V2000
   36.9820   23.1400   32.4910 C   0  0  0  0  0  0  0  0  0  0  0  0
   37.7750   23.4000   33.6040 C   0  0  0  0  0  0  0  0  0  0  0  0
   38.1600   24.7050   33.8270 C   0  0  0  0  0  0  0  0  0  0  0  0
   37.7330   25.6460   32.9370 N   0  0  0  0  0  0  0  0  0  0  0  0
   36.9940   25.3720   31.9080 C   0  0  0  0  0  0  0  0  0  0  0  0
   36.5790   24.0890   31.6340 N   0  0  0  0  0  0  0  0  0  0  0  0
   36.6400   22.1460   32.2490 H   0  0  0  0  0  0  0  0  0  0  0  0
   38.7780   24.9270   34.6890 H   0  0  0  0  0  0  0  0  0  0  0  0
   38.1240   22.3530   34.4060 O   0  0  0  0  0  0  0  0  0  0  0  0
   38.5580   22.5960   35.6890 C   0  0  0  0  0  0  0  0  0  0  0  0
   37.9030   23.2540   36.7090 C   0  0  0  0  0  0  0  0  0  0  0  0
   38.4910   23.3970   37.9050 C   0  0  0  0  0  0  0  0  0  0  0  0
   39.7450   22.8800   38.0960 C   0  0  0  0  0  0  0  0  0  0  0  0
   40.4030   22.2180   37.0720 C   0  0  0  0  0  0  0  0  0  0  0  0
   39.7920   22.0850   35.8710 N   0  0  0  0  0  0  0  0  0  0  0  0
   36.9220   23.6150   36.4330 H   0  0  0  0  0  0  0  0  0  0  0  0
   37.9770   23.9120   38.7000 H   0  0  0  0  0  0  0  0  0  0  0  0
   40.2800   22.9540   39.0260 H   0  0  0  0  0  0  0  0  0  0  0  0
   41.7940   21.6460   37.2900 C   0  0  0  0  0  0  0  0  0  0  0  0
   41.7680   21.2650   38.3430 H   0  0  0  0  0  0  0  0  0  0  0  0
   41.9650   20.8070   36.5910 H   0  0  0  0  0  0  0  0  0  0  0  0
   42.5410   22.4380   37.2380 H   0  0  0  0  0  0  0  0  0  0  0  0
   36.5970   26.8340   30.9220 S   0  0  0  0  0  0  0  0  0  0  0  0
   37.2670   28.2350   31.8900 C   0  0  0  0  0  0  0  0  0  0  0  0
   38.0440   28.7470   31.3150 H   0  0  0  0  0  0  0  0  0  0  0  0
   37.6390   27.7850   32.8290 H   0  0  0  0  0  0  0  0  0  0  0  0
   35.9940   28.1090   34.3220 F   0  0  0  0  0  0  0  0  0  0  0  0
   35.5550   29.0220   33.3920 C   0  0  0  0  0  0  0  0  0  0  0  0
   36.1210   29.1720   32.1250 C   0  0  0  0  0  0  0  0  0  0  0  0
   35.6460   30.0870   31.2380 C   0  0  0  0  0  0  0  0  0  0  0  0
   34.5640   30.9130   31.5710 C   0  0  0  0  0  0  0  0  0  0  0  0
   33.9910   30.7770   32.8210 C   0  0  0  0  0  0  0  0  0  0  0  0
   34.4800   29.8500   33.7080 C   0  0  0  0  0  0  0  0  0  0  0  0
   36.1730   30.1020   30.2940 H   0  0  0  0  0  0  0  0  0  0  0  0
   34.2310   31.6140   30.8350 H   0  0  0  0  0  0  0  0  0  0  0  0
   33.1480   31.4140   33.0930 H   0  0  0  0  0  0  0  0  0  0  0  0
   33.8590   29.7710   34.9340 O   0  0  0  0  0  0  0  0  0  0  0  0
   33.8730   30.8950   35.7460 C   0  0  0  0  0  0  0  0  0  0  0  0
   32.9470   31.6110   36.4130 C   0  0  0  0  0  0  0  0  0  0  0  0
   31.9370   31.2460   36.3130 H   0  0  0  0  0  0  0  0  0  0  0  0
   33.2950   32.7070   37.1510 C   0  0  0  0  0  3  0  0  0  0  0  0
   34.7000   33.0140   37.1490 C   0  0  0  0  0  3  0  0  0  0  0  0
   35.4110   31.6740   36.0650 S   0  0  0  0  0  0  0  0  0  0  0  0
  1  2  1  0  0  0  0
  2  3  2  0  0  0  0
  2  9  1  0  0  0  0
  3  8  1  0  0  0  0
  4  3  1  0  0  0  0
  5  4  2  0  0  0  0
  6  5  1  0  0  0  0
  6  1  2  0  0  0  0
  7  1  1  0  0  0  0
  9 10  1  0  0  0  0
 10 15  2  0  0  0  0
 10 11  1  0  0  0  0
 11 12  2  0  0  0  0
 12 13  1  0  0  0  0
 12 17  1  0  0  0  0
 13 18  1  0  0  0  0
 14 19  1  0  0  0  0
 14 13  2  0  0  0  0
 15 14  1  0  0  0  0
 16 11  1  0  0  0  0
 19 20  1  0  0  0  0
 21 19  1  0  0  0  0
 22 19  1  0  0  0  0
 23 24  1  0  0  0  0
 23  5  1  0  0  0  0
 24 29  1  0  0  0  0
 24 26  1  0  0  0  0
 25 24  1  0  0  0  0
 28 33  1  0  0  0  0
 28 27  1  0  0  0  0
 29 28  2  0  0  0  0
 30 31  2  0  0  0  0
 30 29  1  0  0  0  0
 31 32  1  0  0  0  0
 32 36  1  0  0  0  0
 32 33  2  0  0  0  0
 33 37  1  0  0  0  0
 34 30  1  0  0  0  0
 35 31  1  0  0  0  0
 37 38  1  0  0  0  0
 38 43  1  0  0  0  0
 38 39  2  0  0  0  0
 39 41  1  0  0  0  0
 40 39  1  0  0  0  0
 42 41  2  0  0  0  0
 43 42  1  0  0  0  0
M  END
>  <minimizedAffinity>
-5.92194271

$$$$

 OpenBabel03262522293D

 43 46  0  0  0  0  0  0  0  0999 V2000
   37.6550   23.8940   30.5450 C   0  0  0  0  0  0  0  0  0  0  0  0
   37.1410   23.1060   31.5700 C   0  0  0  0  0  0  0  0  0  0  0  0
   37.8810   22.9940   32.7270 C   0  0  0  0  0  0  0  0  0  0  0  0
   39.0670   23.6670   32.7810 N   0  0  0  0  0  0  0  0  0  0  0  0
   39.5200   24.3940   31.8080 C   0  0  0  0  0  0  0  0  0  0  0  0
   38.8260   24.5430   30.6300 N   0  0  0  0  0  0  0  0  0  0  0  0
   37.1360   24.0310   29.6100 H   0  0  0  0  0  0  0  0  0  0  0  0
   37.4970   22.3840   33.5370 H   0  0  0  0  0  0  0  0  0  0  0  0
   35.9390   22.4930   31.3700 O   0  0  0  0  0  0  0  0  0  0  0  0
   35.8080   21.1510   31.6420 C   0  0  0  0  0  0  0  0  0  0  0  0
   35.2380   20.5480   32.7430 C   0  0  0  0  0  0  0  0  0  0  0  0
   35.2010   19.2110   32.8360 C   0  0  0  0  0  0  0  0  0  0  0  0
   35.7360   18.4590   31.8240 C   0  0  0  0  0  0  0  0  0  0  0  0
   36.3080   19.0650   30.7170 C   0  0  0  0  0  0  0  0  0  0  0  0
   36.3350   20.4160   30.6420 N   0  0  0  0  0  0  0  0  0  0  0  0
   34.8520   21.2490   33.4710 H   0  0  0  0  0  0  0  0  0  0  0  0
   34.7550   18.7420   33.6990 H   0  0  0  0  0  0  0  0  0  0  0  0
   35.7430   17.3830   31.8270 H   0  0  0  0  0  0  0  0  0  0  0  0
   36.9000   18.2240   29.5970 C   0  0  0  0  0  0  0  0  0  0  0  0
   36.2070   17.3480   29.5200 H   0  0  0  0  0  0  0  0  0  0  0  0
   36.8830   18.7990   28.6530 H   0  0  0  0  0  0  0  0  0  0  0  0
   37.8830   17.8510   29.8830 H   0  0  0  0  0  0  0  0  0  0  0  0
   41.1160   25.1530   32.1870 S   0  0  0  0  0  0  0  0  0  0  0  0
   40.7440   26.9350   32.3680 C   0  0  0  0  0  0  0  0  0  0  0  0
   40.2900   27.3170   31.4480 H   0  0  0  0  0  0  0  0  0  0  0  0
   41.7140   27.4090   32.6090 H   0  0  0  0  0  0  0  0  0  0  0  0
   38.1440   27.5640   31.7360 F   0  0  0  0  0  0  0  0  0  0  0  0
   38.4760   27.3680   33.0560 C   0  0  0  0  0  0  0  0  0  0  0  0
   39.7620   27.0500   33.4940 C   0  0  0  0  0  0  0  0  0  0  0  0
   40.0400   26.8720   34.8140 C   0  0  0  0  0  0  0  0  0  0  0  0
   39.0350   27.0050   35.7820 C   0  0  0  0  0  0  0  0  0  0  0  0
   37.7560   27.3210   35.3660 C   0  0  0  0  0  0  0  0  0  0  0  0
   37.4880   27.4980   34.0310 C   0  0  0  0  0  0  0  0  0  0  0  0
   41.0730   26.6290   35.0190 H   0  0  0  0  0  0  0  0  0  0  0  0
   39.3090   26.8550   36.8040 H   0  0  0  0  0  0  0  0  0  0  0  0
   36.9640   27.4280   36.1090 H   0  0  0  0  0  0  0  0  0  0  0  0
   36.1910   27.8110   33.6900 O   0  0  0  0  0  0  0  0  0  0  0  0
   35.8310   29.1500   33.6570 C   0  0  0  0  0  0  0  0  0  0  0  0
   35.5720   30.0980   34.5780 C   0  0  0  0  0  0  0  0  0  0  0  0
   35.6580   29.7690   35.6010 H   0  0  0  0  0  0  0  0  0  0  0  0
   35.2310   31.3690   34.2100 C   0  0  0  0  0  3  0  0  0  0  0  0
   35.1780   31.5920   32.7890 C   0  0  0  0  0  3  0  0  0  0  0  0
   35.6300   29.9220   32.0950 S   0  0  0  0  0  0  0  0  0  0  0  0
  1  6  2  0  0  0  0
  1  2  1  0  0  0  0
  2  3  2  0  0  0  0
  3  4  1  0  0  0  0
  3  8  1  0  0  0  0
  5 23  1  0  0  0  0
  5  4  2  0  0  0  0
  6  5  1  0  0  0  0
  7  1  1  0  0  0  0
  9  2  1  0  0  0  0
  9 10  1  0  0  0  0
 10 11  1  0  0  0  0
 11 12  2  0  0  0  0
 11 16  1  0  0  0  0
 12 17  1  0  0  0  0
 13 18  1  0  0  0  0
 13 12  1  0  0  0  0
 14 13  2  0  0  0  0
 15 14  1  0  0  0  0
 15 10  2  0  0  0  0
 19 22  1  0  0  0  0
 19 14  1  0  0  0  0
 20 19  1  0  0  0  0
 21 19  1  0  0  0  0
 23 24  1  0  0  0  0
 24 26  1  0  0  0  0
 24 29  1  0  0  0  0
 25 24  1  0  0  0  0
 27 28  1  0  0  0  0
 28 29  2  0  0  0  0
 28 33  1  0  0  0  0
 29 30  1  0  0  0  0
 30 34  1  0  0  0  0
 30 31  2  0  0  0  0
 31 35  1  0  0  0  0
 32 31  1  0  0  0  0
 32 36  1  0  0  0  0
 33 32  2  0  0  0  0
 37 33  1  0  0  0  0
 38 37  1  0  0  0  0
 38 39  2  0  0  0  0
 39 40  1  0  0  0  0
 41 39  1  0  0  0  0
 42 41  2  0  0  0  0
 43 42  1  0  0  0  0
 43 38  1  0  0  0  0
M  END
>  <minimizedAffinity>
-5.70715714

$$$$

 OpenBabel03262522293D

 43 46  0  0  0  0  0  0  0  0999 V2000
   39.4330   24.7410   33.2670 C   0  0  0  0  0  0  0  0  0  0  0  0
   38.1410   24.2660   33.4700 C   0  0  0  0  0  0  0  0  0  0  0  0
   37.1110   24.9110   32.8190 C   0  0  0  0  0  0  0  0  0  0  0  0
   37.4370   25.9700   32.0230 N   0  0  0  0  0  0  0  0  0  0  0  0
   38.6520   26.3890   31.8540 C   0  0  0  0  0  0  0  0  0  0  0  0
   39.7200   25.7860   32.4770 N   0  0  0  0  0  0  0  0  0  0  0  0
   40.2910   24.2900   33.7410 H   0  0  0  0  0  0  0  0  0  0  0  0
   36.0970   24.5560   32.9640 H   0  0  0  0  0  0  0  0  0  0  0  0
   37.9710   23.1950   34.2970 O   0  0  0  0  0  0  0  0  0  0  0  0
   38.3000   23.3070   35.6280 C   0  0  0  0  0  0  0  0  0  0  0  0
   37.6680   24.0400   36.6120 C   0  0  0  0  0  0  0  0  0  0  0  0
   38.1380   24.0280   37.8670 C   0  0  0  0  0  0  0  0  0  0  0  0
   39.2480   23.2790   38.1550 C   0  0  0  0  0  0  0  0  0  0  0  0
   39.8820   22.5420   37.1670 C   0  0  0  0  0  0  0  0  0  0  0  0
   39.3920   22.5680   35.9050 N   0  0  0  0  0  0  0  0  0  0  0  0
   36.8050   24.5870   36.2590 H   0  0  0  0  0  0  0  0  0  0  0  0
   37.6430   24.6020   38.6340 H   0  0  0  0  0  0  0  0  0  0  0  0
   39.6830   23.2190   39.1370 H   0  0  0  0  0  0  0  0  0  0  0  0
   41.1140   21.7130   37.4930 C   0  0  0  0  0  0  0  0  0  0  0  0
   40.9050   21.3060   38.5150 H   0  0  0  0  0  0  0  0  0  0  0  0
   41.2040   20.8820   36.7700 H   0  0  0  0  0  0  0  0  0  0  0  0
   41.9940   22.3530   37.5600 H   0  0  0  0  0  0  0  0  0  0  0  0
   38.7540   27.8090   30.7420 S   0  0  0  0  0  0  0  0  0  0  0  0
   37.0680   27.9700   30.0480 C   0  0  0  0  0  0  0  0  0  0  0  0
   36.3860   27.2860   30.5630 H   0  0  0  0  0  0  0  0  0  0  0  0
   37.1790   27.7510   28.9690 H   0  0  0  0  0  0  0  0  0  0  0  0
   35.2610   28.4190   32.0690 F   0  0  0  0  0  0  0  0  0  0  0  0
   35.7280   29.4920   31.3470 C   0  0  0  0  0  0  0  0  0  0  0  0
   36.6420   29.3840   30.2980 C   0  0  0  0  0  0  0  0  0  0  0  0
   37.0680   30.4780   29.6110 C   0  0  0  0  0  0  0  0  0  0  0  0
   36.5970   31.7570   29.9370 C   0  0  0  0  0  0  0  0  0  0  0  0
   35.6900   31.8830   30.9720 C   0  0  0  0  0  0  0  0  0  0  0  0
   35.2680   30.7710   31.6580 C   0  0  0  0  0  0  0  0  0  0  0  0
   37.7760   30.2570   28.8230 H   0  0  0  0  0  0  0  0  0  0  0  0
   36.9650   32.5810   29.3630 H   0  0  0  0  0  0  0  0  0  0  0  0
   35.3160   32.8730   31.2360 H   0  0  0  0  0  0  0  0  0  0  0  0
   34.3640   30.9720   32.6770 O   0  0  0  0  0  0  0  0  0  0  0  0
   34.8530   31.3640   33.9140 C   0  0  0  0  0  0  0  0  0  0  0  0
   35.6080   30.7960   34.8740 C   0  0  0  0  0  0  0  0  0  0  0  0
   35.9300   29.7900   34.6580 H   0  0  0  0  0  0  0  0  0  0  0  0
   35.9250   31.4710   36.0190 C   0  0  0  0  0  3  0  0  0  0  0  0
   35.3930   32.8050   36.0990 C   0  0  0  0  0  3  0  0  0  0  0  0
   34.4650   32.9740   34.4910 S   0  0  0  0  0  0  0  0  0  0  0  0
  1  2  1  0  0  0  0
  1  7  1  0  0  0  0
  2  9  1  0  0  0  0
  3  8  1  0  0  0  0
  3  2  2  0  0  0  0
  4  3  1  0  0  0  0
  5  4  2  0  0  0  0
  5  6  1  0  0  0  0
  6  1  2  0  0  0  0
  9 10  1  0  0  0  0
 10 15  2  0  0  0  0
 10 11  1  0  0  0  0
 11 12  2  0  0  0  0
 12 13  1  0  0  0  0
 12 17  1  0  0  0  0
 13 18  1  0  0  0  0
 14 19  1  0  0  0  0
 14 13  2  0  0  0  0
 15 14  1  0  0  0  0
 16 11  1  0  0  0  0
 19 22  1  0  0  0  0
 19 20  1  0  0  0  0
 21 19  1  0  0  0  0
 23  5  1  0  0  0  0
 24 29  1  0  0  0  0
 24 25  1  0  0  0  0
 24 23  1  0  0  0  0
 26 24  1  0  0  0  0
 28 33  1  0  0  0  0
 28 27  1  0  0  0  0
 29 28  2  0  0  0  0
 30 31  2  0  0  0  0
 30 29  1  0  0  0  0
 31 32  1  0  0  0  0
 32 36  1  0  0  0  0
 32 33  2  0  0  0  0
 33 37  1  0  0  0  0
 34 30  1  0  0  0  0
 35 31  1  0  0  0  0
 37 38  1  0  0  0  0
 38 43  1  0  0  0  0
 38 39  2  0  0  0  0
 39 41  1  0  0  0  0
 40 39  1  0  0  0  0
 41 42  2  0  0  0  0
 43 42  1  0  0  0  0
M  END
>  <minimizedAffinity>
-5.67356968

$$$$

 OpenBabel03262522293D

 43 46  0  0  0  0  0  0  0  0999 V2000
   37.9930   23.8880   32.2970 C   0  0  0  0  0  0  0  0  0  0  0  0
   38.0130   24.1300   33.6680 C   0  0  0  0  0  0  0  0  0  0  0  0
   38.2540   25.4210   34.0880 C   0  0  0  0  0  0  0  0  0  0  0  0
   38.4540   26.3670   33.1250 N   0  0  0  0  0  0  0  0  0  0  0  0
   38.4290   26.1100   31.8550 C   0  0  0  0  0  0  0  0  0  0  0  0
   38.1930   24.8420   31.3770 N   0  0  0  0  0  0  0  0  0  0  0  0
   37.8110   22.9050   31.8910 H   0  0  0  0  0  0  0  0  0  0  0  0
   38.2740   25.6290   35.1510 H   0  0  0  0  0  0  0  0  0  0  0  0
   37.7950   23.0800   34.5110 O   0  0  0  0  0  0  0  0  0  0  0  0
   38.2330   23.1540   35.8140 C   0  0  0  0  0  0  0  0  0  0  0  0
   37.6150   23.7440   36.8960 C   0  0  0  0  0  0  0  0  0  0  0  0
   38.1990   23.7170   38.1020 C   0  0  0  0  0  0  0  0  0  0  0  0
   39.4120   23.0960   38.2410 C   0  0  0  0  0  0  0  0  0  0  0  0
   40.0330   22.5020   37.1530 C   0  0  0  0  0  0  0  0  0  0  0  0
   39.4270   22.5410   35.9430 N   0  0  0  0  0  0  0  0  0  0  0  0
   36.6640   24.2010   36.6580 H   0  0  0  0  0  0  0  0  0  0  0  0
   37.7150   24.1800   38.9470 H   0  0  0  0  0  0  0  0  0  0  0  0
   39.9410   23.0330   39.1750 H   0  0  0  0  0  0  0  0  0  0  0  0
   41.3790   21.8150   37.3130 C   0  0  0  0  0  0  0  0  0  0  0  0
   41.3160   21.3260   38.3180 H   0  0  0  0  0  0  0  0  0  0  0  0
   41.4980   21.0440   36.5280 H   0  0  0  0  0  0  0  0  0  0  0  0
   42.1790   22.5530   37.3480 H   0  0  0  0  0  0  0  0  0  0  0  0
   38.7300   27.5730   30.8390 S   0  0  0  0  0  0  0  0  0  0  0  0
   37.0790   28.0350   30.1990 C   0  0  0  0  0  0  0  0  0  0  0  0
   36.3890   27.1930   30.3070 H   0  0  0  0  0  0  0  0  0  0  0  0
   37.2500   28.3320   29.1480 H   0  0  0  0  0  0  0  0  0  0  0  0
   35.5570   27.4490   32.4110 F   0  0  0  0  0  0  0  0  0  0  0  0
   35.8460   28.7650   32.1360 C   0  0  0  0  0  0  0  0  0  0  0  0
   36.6050   29.1800   31.0410 C   0  0  0  0  0  0  0  0  0  0  0  0
   36.8580   30.4960   30.8100 C   0  0  0  0  0  0  0  0  0  0  0  0
   36.3590   31.4840   31.6710 C   0  0  0  0  0  0  0  0  0  0  0  0
   35.6050   31.0910   32.7600 C   0  0  0  0  0  0  0  0  0  0  0  0
   35.3570   29.7590   32.9830 C   0  0  0  0  0  0  0  0  0  0  0  0
   37.4570   30.6840   29.9300 H   0  0  0  0  0  0  0  0  0  0  0  0
   36.5890   32.5030   31.4410 H   0  0  0  0  0  0  0  0  0  0  0  0
   35.2120   31.8490   33.4380 H   0  0  0  0  0  0  0  0  0  0  0  0
   34.5990   29.4400   34.0870 O   0  0  0  0  0  0  0  0  0  0  0  0
   33.2240   29.6060   34.0030 C   0  0  0  0  0  0  0  0  0  0  0  0
   32.2760   29.3210   33.0910 C   0  0  0  0  0  0  0  0  0  0  0  0
   32.6400   28.8470   32.1940 H   0  0  0  0  0  0  0  0  0  0  0  0
   30.9620   29.6220   33.3170 C   0  0  0  0  0  3  0  0  0  0  0  0
   30.6960   30.2510   34.5830 C   0  0  0  0  0  3  0  0  0  0  0  0
   32.3910   30.3570   35.3520 S   0  0  0  0  0  0  0  0  0  0  0  0
  1  2  1  0  0  0  0
  2  3  2  0  0  0  0
  2  9  1  0  0  0  0
  3  8  1  0  0  0  0
  4  3  1  0  0  0  0
  5  4  2  0  0  0  0
  6  5  1  0  0  0  0
  6  1  2  0  0  0  0
  7  1  1  0  0  0  0
  9 10  1  0  0  0  0
 10 15  2  0  0  0  0
 10 11  1  0  0  0  0
 11 12  2  0  0  0  0
 12 13  1  0  0  0  0
 12 17  1  0  0  0  0
 13 18  1  0  0  0  0
 14 19  1  0  0  0  0
 14 13  2  0  0  0  0
 15 14  1  0  0  0  0
 16 11  1  0  0  0  0
 19 22  1  0  0  0  0
 19 20  1  0  0  0  0
 21 19  1  0  0  0  0
 23  5  1  0  0  0  0
 24 25  1  0  0  0  0
 24 23  1  0  0  0  0
 24 29  1  0  0  0  0
 26 24  1  0  0  0  0
 28 27  1  0  0  0  0
 28 33  1  0  0  0  0
 29 28  2  0  0  0  0
 30 29  1  0  0  0  0
 30 31  2  0  0  0  0
 31 32  1  0  0  0  0
 32 33  2  0  0  0  0
 32 36  1  0  0  0  0
 33 37  1  0  0  0  0
 34 30  1  0  0  0  0
 35 31  1  0  0  0  0
 38 37  1  0  0  0  0
 38 43  1  0  0  0  0
 39 41  1  0  0  0  0
 39 38  2  0  0  0  0
 40 39  1  0  0  0  0
 41 42  2  0  0  0  0
 42 43  1  0  0  0  0
M  END
>  <minimizedAffinity>
-5.63935232

$$$$

 OpenBabel03262522293D

 43 46  0  0  0  0  0  0  0  0999 V2000
   35.7290   28.8880   33.1300 C   0  0  0  0  0  0  0  0  0  0  0  0
   35.1800   29.9960   32.4900 C   0  0  0  0  0  0  0  0  0  0  0  0
   35.6810   30.3360   31.2520 C   0  0  0  0  0  0  0  0  0  0  0  0
   36.6820   29.5590   30.7440 N   0  0  0  0  0  0  0  0  0  0  0  0
   37.1730   28.5330   31.3650 C   0  0  0  0  0  0  0  0  0  0  0  0
   36.7130   28.1450   32.6020 N   0  0  0  0  0  0  0  0  0  0  0  0
   35.3910   28.5590   34.0990 H   0  0  0  0  0  0  0  0  0  0  0  0
   35.2670   31.1960   30.7390 H   0  0  0  0  0  0  0  0  0  0  0  0
   34.1830   30.6760   33.1240 O   0  0  0  0  0  0  0  0  0  0  0  0
   34.4210   31.2330   34.3600 C   0  0  0  0  0  0  0  0  0  0  0  0
   33.7500   31.0150   35.5460 C   0  0  0  0  0  0  0  0  0  0  0  0
   34.1280   31.6540   36.6610 C   0  0  0  0  0  0  0  0  0  0  0  0
   35.1860   32.5220   36.6050 C   0  0  0  0  0  0  0  0  0  0  0  0
   35.8610   32.7400   35.4140 C   0  0  0  0  0  0  0  0  0  0  0  0
   35.4630   32.0850   34.2980 N   0  0  0  0  0  0  0  0  0  0  0  0
   32.9340   30.3090   35.4600 H   0  0  0  0  0  0  0  0  0  0  0  0
   33.6010   31.4820   37.5870 H   0  0  0  0  0  0  0  0  0  0  0  0
   35.5470   33.0700   37.4560 H   0  0  0  0  0  0  0  0  0  0  0  0
   37.0340   33.7050   35.3580 C   0  0  0  0  0  0  0  0  0  0  0  0
   37.5600   33.5500   36.3350 H   0  0  0  0  0  0  0  0  0  0  0  0
   37.7050   33.4260   34.5240 H   0  0  0  0  0  0  0  0  0  0  0  0
   36.6780   34.7340   35.3280 H   0  0  0  0  0  0  0  0  0  0  0  0
   38.4840   27.7130   30.4310 S   0  0  0  0  0  0  0  0  0  0  0  0
   38.5490   26.0200   31.1220 C   0  0  0  0  0  0  0  0  0  0  0  0
   38.9390   25.3250   30.3700 H   0  0  0  0  0  0  0  0  0  0  0  0
   37.5120   25.7950   31.4320 H   0  0  0  0  0  0  0  0  0  0  0  0
   38.6320   23.8440   32.7990 F   0  0  0  0  0  0  0  0  0  0  0  0
   39.4510   24.9170   33.0650 C   0  0  0  0  0  0  0  0  0  0  0  0
   39.4900   26.0740   32.2860 C   0  0  0  0  0  0  0  0  0  0  0  0
   40.3150   27.1110   32.5960 C   0  0  0  0  0  0  0  0  0  0  0  0
   41.1560   27.0480   33.7160 C   0  0  0  0  0  0  0  0  0  0  0  0
   41.1280   25.9100   34.4980 C   0  0  0  0  0  0  0  0  0  0  0  0
   40.2920   24.8700   34.1750 C   0  0  0  0  0  0  0  0  0  0  0  0
   40.2490   27.9470   31.9130 H   0  0  0  0  0  0  0  0  0  0  0  0
   41.7820   27.8920   33.9120 H   0  0  0  0  0  0  0  0  0  0  0  0
   41.7780   25.8480   35.3730 H   0  0  0  0  0  0  0  0  0  0  0  0
   40.3180   23.7680   35.0000 O   0  0  0  0  0  0  0  0  0  0  0  0
   39.5490   23.7980   36.1530 C   0  0  0  0  0  0  0  0  0  0  0  0
   38.4450   24.4550   36.5550 C   0  0  0  0  0  0  0  0  0  0  0  0
   38.0310   25.1310   35.8240 H   0  0  0  0  0  0  0  0  0  0  0  0
   37.9150   24.2560   37.7990 C   0  0  0  0  0  3  0  0  0  0  0  0
   38.6260   23.3070   38.6130 C   0  0  0  0  0  3  0  0  0  0  0  0
   40.0210   22.7740   37.4970 S   0  0  0  0  0  0  0  0  0  0  0  0
  1  7  1  0  0  0  0
  2  9  1  0  0  0  0
  2  1  2  0  0  0  0
  3  2  1  0  0  0  0
  4  3  2  0  0  0  0
  4  5  1  0  0  0  0
  5  6  2  0  0  0  0
  6  1  1  0  0  0  0
  8  3  1  0  0  0  0
  9 10  1  0  0  0  0
 10 11  1  0  0  0  0
 11 12  2  0  0  0  0
 12 17  1  0  0  0  0
 13 12  1  0  0  0  0
 13 18  1  0  0  0  0
 14 13  2  0  0  0  0
 15 10  2  0  0  0  0
 15 14  1  0  0  0  0
 16 11  1  0  0  0  0
 19 14  1  0  0  0  0
 19 20  1  0  0  0  0
 21 19  1  0  0  0  0
 22 19  1  0  0  0  0
 23 24  1  0  0  0  0
 23  5  1  0  0  0  0
 24 26  1  0  0  0  0
 24 29  1  0  0  0  0
 25 24  1  0  0  0  0
 27 28  1  0  0  0  0
 28 33  1  0  0  0  0
 29 30  1  0  0  0  0
 29 28  2  0  0  0  0
 30 31  2  0  0  0  0
 31 35  1  0  0  0  0
 31 32  1  0  0  0  0
 32 36  1  0  0  0  0
 33 32  2  0  0  0  0
 33 37  1  0  0  0  0
 34 30  1  0  0  0  0
 37 38  1  0  0  0  0
 38 39  2  0  0  0  0
 38 43  1  0  0  0  0
 39 41  1  0  0  0  0
 40 39  1  0  0  0  0
 41 42  2  0  0  0  0
 43 42  1  0  0  0  0
M  END
>  <minimizedAffinity>
-5.61740255

$$$$

 OpenBabel03262522293D

 43 46  0  0  0  0  0  0  0  0999 V2000
   38.6840   27.1740   32.6490 C   0  0  0  0  0  0  0  0  0  0  0  0
   38.2020   27.1440   33.9540 C   0  0  0  0  0  0  0  0  0  0  0  0
   39.1220   27.0580   34.9770 C   0  0  0  0  0  0  0  0  0  0  0  0
   40.4420   27.0080   34.6320 N   0  0  0  0  0  0  0  0  0  0  0  0
   40.8600   27.0390   33.4050 C   0  0  0  0  0  0  0  0  0  0  0  0
   39.9890   27.1240   32.3440 N   0  0  0  0  0  0  0  0  0  0  0  0
   38.0280   27.2410   31.7960 H   0  0  0  0  0  0  0  0  0  0  0  0
   38.7660   27.0320   36.0000 H   0  0  0  0  0  0  0  0  0  0  0  0
   36.8530   27.2010   34.1440 O   0  0  0  0  0  0  0  0  0  0  0  0
   36.1760   28.3650   33.8560 C   0  0  0  0  0  0  0  0  0  0  0  0
   35.4550   28.6830   32.7240 C   0  0  0  0  0  0  0  0  0  0  0  0
   34.8570   29.8780   32.6190 C   0  0  0  0  0  0  0  0  0  0  0  0
   34.9740   30.7730   33.6500 C   0  0  0  0  0  0  0  0  0  0  0  0
   35.6980   30.4520   34.7880 C   0  0  0  0  0  0  0  0  0  0  0  0
   36.2940   29.2400   34.8740 N   0  0  0  0  0  0  0  0  0  0  0  0
   35.4380   27.8940   31.9840 H   0  0  0  0  0  0  0  0  0  0  0  0
   34.2950   30.1250   31.7340 H   0  0  0  0  0  0  0  0  0  0  0  0
   34.5240   31.7490   33.6400 H   0  0  0  0  0  0  0  0  0  0  0  0
   35.8240   31.4490   35.9280 C   0  0  0  0  0  0  0  0  0  0  0  0
   34.8210   31.9470   35.9660 H   0  0  0  0  0  0  0  0  0  0  0  0
   36.0100   30.9090   36.8750 H   0  0  0  0  0  0  0  0  0  0  0  0
   36.5670   32.2090   35.6870 H   0  0  0  0  0  0  0  0  0  0  0  0
   42.6600   26.9570   33.2780 S   0  0  0  0  0  0  0  0  0  0  0  0
   43.0140   25.2030   32.8950 C   0  0  0  0  0  0  0  0  0  0  0  0
   43.9730   25.1210   32.3740 H   0  0  0  0  0  0  0  0  0  0  0  0
   42.1540   24.8610   32.2900 H   0  0  0  0  0  0  0  0  0  0  0  0
   40.9400   23.5350   33.5810 F   0  0  0  0  0  0  0  0  0  0  0  0
   41.9960   23.6720   34.4520 C   0  0  0  0  0  0  0  0  0  0  0  0
   43.0990   24.4920   34.2120 C   0  0  0  0  0  0  0  0  0  0  0  0
   44.1160   24.5970   35.1090 C   0  0  0  0  0  0  0  0  0  0  0  0
   44.0860   23.8800   36.3130 C   0  0  0  0  0  0  0  0  0  0  0  0
   43.0010   23.0640   36.5680 C   0  0  0  0  0  0  0  0  0  0  0  0
   41.9810   22.9660   35.6540 C   0  0  0  0  0  0  0  0  0  0  0  0
   44.9090   25.2650   34.8020 H   0  0  0  0  0  0  0  0  0  0  0  0
   44.9110   24.0010   36.9820 H   0  0  0  0  0  0  0  0  0  0  0  0
   42.9650   22.5000   37.5020 H   0  0  0  0  0  0  0  0  0  0  0  0
   40.9320   22.1340   35.9750 O   0  0  0  0  0  0  0  0  0  0  0  0
   39.8790   22.6640   36.7050 C   0  0  0  0  0  0  0  0  0  0  0  0
   39.6470   22.9290   38.0050 C   0  0  0  0  0  0  0  0  0  0  0  0
   40.4610   22.6810   38.6680 H   0  0  0  0  0  0  0  0  0  0  0  0
   38.4630   23.4720   38.4180 C   0  0  0  0  0  3  0  0  0  0  0  0
   37.5170   23.7270   37.3650 C   0  0  0  0  0  3  0  0  0  0  0  0
   38.4300   23.1510   35.8440 S   0  0  0  0  0  0  0  0  0  0  0  0
  1  2  1  0  0  0  0
  2  9  1  0  0  0  0
  2  3  2  0  0  0  0
  3  8  1  0  0  0  0
  4  3  1  0  0  0  0
  5  4  2  0  0  0  0
  6  1  2  0  0  0  0
  6  5  1  0  0  0  0
  7  1  1  0  0  0  0
 10  9  1  0  0  0  0
 10 15  1  0  0  0  0
 11 10  2  0  0  0  0
 12 11  1  0  0  0  0
 12 13  2  0  0  0  0
 13 14  1  0  0  0  0
 14 15  2  0  0  0  0
 14 19  1  0  0  0  0
 16 11  1  0  0  0  0
 17 12  1  0  0  0  0
 18 13  1  0  0  0  0
 19 20  1  0  0  0  0
 19 21  1  0  0  0  0
 22 19  1  0  0  0  0
 23  5  1  0  0  0  0
 24 23  1  0  0  0  0
 24 29  1  0  0  0  0
 25 24  1  0  0  0  0
 26 24  1  0  0  0  0
 27 28  1  0  0  0  0
 28 33  1  0  0  0  0
 29 28  2  0  0  0  0
 29 30  1  0  0  0  0
 30 31  2  0  0  0  0
 31 32  1  0  0  0  0
 31 35  1  0  0  0  0
 32 36  1  0  0  0  0
 33 37  1  0  0  0  0
 33 32  2  0  0  0  0
 34 30  1  0  0  0  0
 37 38  1  0  0  0  0
 38 39  2  0  0  0  0
 39 41  1  0  0  0  0
 39 40  1  0  0  0  0
 42 41  2  0  0  0  0
 43 38  1  0  0  0  0
 43 42  1  0  0  0  0
M  END
>  <minimizedAffinity>
-5.61484861

$$$$

 OpenBabel03262522293D

 43 46  0  0  0  0  0  0  0  0999 V2000
   36.1260   24.4180   31.1870 C   0  0  0  0  0  0  0  0  0  0  0  0
   37.2690   23.7150   31.5580 C   0  0  0  0  0  0  0  0  0  0  0  0
   38.2010   24.3690   32.3340 C   0  0  0  0  0  0  0  0  0  0  0  0
   37.9340   25.6610   32.6820 N   0  0  0  0  0  0  0  0  0  0  0  0
   36.8590   26.2890   32.3210 C   0  0  0  0  0  0  0  0  0  0  0  0
   35.8930   25.6890   31.5470 N   0  0  0  0  0  0  0  0  0  0  0  0
   35.3510   23.9760   30.5820 H   0  0  0  0  0  0  0  0  0  0  0  0
   39.0980   23.8380   32.6330 H   0  0  0  0  0  0  0  0  0  0  0  0
   37.3970   22.4250   31.1330 O   0  0  0  0  0  0  0  0  0  0  0  0
   36.6000   21.4470   31.6820 C   0  0  0  0  0  0  0  0  0  0  0  0
   35.8900   20.4540   31.0400 C   0  0  0  0  0  0  0  0  0  0  0  0
   35.1600   19.5820   31.7480 C   0  0  0  0  0  0  0  0  0  0  0  0
   35.1320   19.6910   33.1130 C   0  0  0  0  0  0  0  0  0  0  0  0
   35.8460   20.6880   33.7590 C   0  0  0  0  0  0  0  0  0  0  0  0
   36.5770   21.5600   33.0250 N   0  0  0  0  0  0  0  0  0  0  0  0
   35.9940   20.4740   29.9630 H   0  0  0  0  0  0  0  0  0  0  0  0
   34.6050   18.8070   31.2440 H   0  0  0  0  0  0  0  0  0  0  0  0
   34.5710   19.0300   33.7490 H   0  0  0  0  0  0  0  0  0  0  0  0
   35.8110   20.8050   35.2740 C   0  0  0  0  0  0  0  0  0  0  0  0
   35.7950   19.7420   35.6280 H   0  0  0  0  0  0  0  0  0  0  0  0
   36.7310   21.3040   35.6300 H   0  0  0  0  0  0  0  0  0  0  0  0
   34.8850   21.2800   35.5960 H   0  0  0  0  0  0  0  0  0  0  0  0
   36.7990   27.9850   32.9410 S   0  0  0  0  0  0  0  0  0  0  0  0
   35.6080   28.8340   31.8410 C   0  0  0  0  0  0  0  0  0  0  0  0
   34.8440   28.1270   31.5030 H   0  0  0  0  0  0  0  0  0  0  0  0
   36.2200   29.2460   31.0170 H   0  0  0  0  0  0  0  0  0  0  0  0
   32.9960   28.4640   32.6090 F   0  0  0  0  0  0  0  0  0  0  0  0
   33.6440   29.6140   32.9970 C   0  0  0  0  0  0  0  0  0  0  0  0
   34.9660   29.9090   32.6630 C   0  0  0  0  0  0  0  0  0  0  0  0
   35.5600   31.0640   33.0670 C   0  0  0  0  0  0  0  0  0  0  0  0
   34.8570   32.0010   33.8360 C   0  0  0  0  0  0  0  0  0  0  0  0
   33.5460   31.7250   34.1760 C   0  0  0  0  0  0  0  0  0  0  0  0
   32.9580   30.5550   33.7630 C   0  0  0  0  0  0  0  0  0  0  0  0
   36.5860   31.1710   32.7410 H   0  0  0  0  0  0  0  0  0  0  0  0
   35.3730   32.8920   34.1260 H   0  0  0  0  0  0  0  0  0  0  0  0
   32.9870   32.4450   34.7750 H   0  0  0  0  0  0  0  0  0  0  0  0
   31.6500   30.3470   34.1380 O   0  0  0  0  0  0  0  0  0  0  0  0
   31.3970   29.4140   35.1320 C   0  0  0  0  0  0  0  0  0  0  0  0
   30.9290   28.1510   35.1700 C   0  0  0  0  0  0  0  0  0  0  0  0
   30.6820   27.7330   34.2070 H   0  0  0  0  0  0  0  0  0  0  0  0
   30.7930   27.4810   36.3520 C   0  0  0  0  0  3  0  0  0  0  0  0
   31.1860   28.2270   37.5180 C   0  0  0  0  0  3  0  0  0  0  0  0
   31.7260   29.8590   36.7970 S   0  0  0  0  0  0  0  0  0  0  0  0
  1  6  2  0  0  0  0
  1  2  1  0  0  0  0
  2  3  2  0  0  0  0
  3  8  1  0  0  0  0
  3  4  1  0  0  0  0
  5  4  2  0  0  0  0
  5 23  1  0  0  0  0
  6  5  1  0  0  0  0
  7  1  1  0  0  0  0
  9  2  1  0  0  0  0
  9 10  1  0  0  0  0
 10 15  1  0  0  0  0
 11 10  2  0  0  0  0
 11 12  1  0  0  0  0
 12 13  2  0  0  0  0
 13 18  1  0  0  0  0
 13 14  1  0  0  0  0
 14 19  1  0  0  0  0
 15 14  2  0  0  0  0
 16 11  1  0  0  0  0
 17 12  1  0  0  0  0
 19 22  1  0  0  0  0
 19 20  1  0  0  0  0
 19 21  1  0  0  0  0
 24 29  1  0  0  0  0
 24 23  1  0  0  0  0
 25 24  1  0  0  0  0
 26 24  1  0  0  0  0
 27 28  1  0  0  0  0
 28 33  1  0  0  0  0
 29 28  2  0  0  0  0
 29 30  1  0  0  0  0
 30 31  2  0  0  0  0
 31 35  1  0  0  0  0
 31 32  1  0  0  0  0
 32 36  1  0  0  0  0
 33 37  1  0  0  0  0
 33 32  2  0  0  0  0
 34 30  1  0  0  0  0
 37 38  1  0  0  0  0
 38 39  2  0  0  0  0
 38 43  1  0  0  0  0
 39 41  1  0  0  0  0
 40 39  1  0  0  0  0
 41 42  2  0  0  0  0
 43 42  1  0  0  0  0
M  END
>  <minimizedAffinity>
-5.58099937

$$$$
