
 OpenBabel03272508073D

 32 35  0  0  0  0  0  0  0  0999 V2000
   37.2910   26.7070   34.2580 C   0  0  0  0  0  0  0  0  0  0  0  0
   37.2140   27.0770   32.9230 C   0  0  0  0  0  0  0  0  0  0  0  0
   36.5440   28.2840   32.8060 C   0  0  0  0  0  0  0  0  0  0  0  0
   36.2370   28.6030   34.0960 N   0  0  0  0  0  0  0  0  0  0  0  0
   36.6700   27.6880   34.9510 N   0  0  0  0  0  0  0  0  0  0  0  0
   37.6060   26.5310   32.0820 H   0  0  0  0  0  0  0  0  0  0  0  0
   36.2960   28.8730   31.9410 H   0  0  0  0  0  0  0  0  0  0  0  0
   37.9190   25.5100   34.7860 C   0  0  0  0  0  0  0  0  0  0  0  0
   37.8360   25.2570   36.1770 C   0  0  0  0  0  0  0  0  0  0  0  0
   38.4470   24.0990   36.6570 C   0  0  0  0  0  0  0  0  0  0  0  0
   39.0820   23.2850   35.7710 N   0  0  0  0  0  0  0  0  0  0  0  0
   39.1480   23.5490   34.4420 C   0  0  0  0  0  0  0  0  0  0  0  0
   38.5630   24.6650   33.9630 N   0  0  0  0  0  0  0  0  0  0  0  0
   37.3170   25.9410   36.8350 H   0  0  0  0  0  0  0  0  0  0  0  0
   39.6770   22.8380   33.8230 H   0  0  0  0  0  0  0  0  0  0  0  0
   38.3680   23.8160   38.1230 C   0  0  0  0  0  0  0  0  0  0  0  0
   37.3400   22.9120   38.2580 F   0  0  0  0  0  0  0  0  0  0  0  0
   39.5300   23.2330   38.6090 F   0  0  0  0  0  0  0  0  0  0  0  0
   38.0560   24.9460   38.8540 F   0  0  0  0  0  0  0  0  0  0  0  0
   35.5320   29.7800   34.5760 C   0  0  0  0  0  0  0  0  0  0  0  0
   34.1900   30.0180   34.2350 C   0  0  0  0  0  0  0  0  0  0  0  0
   33.5570   31.1200   34.7120 C   0  0  0  0  0  0  0  0  0  0  0  0
   34.2720   32.0130   35.5480 C   0  0  0  0  0  0  0  0  0  0  0  0
   35.9330   31.2000   35.6360 S   0  0  0  0  0  0  0  0  0  0  0  0
   33.6140   29.3390   33.5860 H   0  0  0  0  0  0  0  0  0  0  0  0
   32.5400   31.4330   34.5390 H   0  0  0  0  0  0  0  0  0  0  0  0
   34.0190   33.1620   36.1930 C   0  0  0  0  0  0  0  0  0  0  0  0
   34.0580   33.5610   37.4940 C   0  0  0  0  0  0  0  0  0  0  0  0
   34.3560   32.8320   38.2290 H   0  0  0  0  0  0  0  0  0  0  0  0
   33.7250   34.8420   37.7980 C   0  0  0  0  0  3  0  0  0  0  0  0
   33.3360   35.7580   36.7540 C   0  0  0  0  0  3  0  0  0  0  0  0
   33.4770   34.6460   35.2510 S   0  0  0  0  0  0  0  0  0  0  0  0
  1  8  1  0  0  0  0
  1  5  2  0  0  0  0
  2  1  1  0  0  0  0
  3  2  2  0  0  0  0
  3  4  1  0  0  0  0
  4 20  1  0  0  0  0
  4  5  1  0  0  0  0
  6  2  1  0  0  0  0
  7  3  1  0  0  0  0
  8  9  1  0  0  0  0
  9 10  2  0  0  0  0
  9 14  1  0  0  0  0
 10 16  1  0  0  0  0
 11 10  1  0  0  0  0
 12 11  2  0  0  0  0
 13 12  1  0  0  0  0
 13  8  2  0  0  0  0
 15 12  1  0  0  0  0
 16 17  1  0  0  0  0
 16 18  1  0  0  0  0
 16 19  1  0  0  0  0
 20 24  1  0  0  0  0
 21 20  2  0  0  0  0
 21 22  1  0  0  0  0
 22 23  2  0  0  0  0
 23 24  1  0  0  0  0
 23 27  1  0  0  0  0
 25 21  1  0  0  0  0
 26 22  1  0  0  0  0
 27 28  2  0  0  0  0
 28 30  1  0  0  0  0
 28 29  1  0  0  0  0
 31 30  2  0  0  0  0
 32 27  1  0  0  0  0
 32 31  1  0  0  0  0
M  END
>  <minimizedAffinity>
-6.00555372

$$$$

 OpenBabel03272508073D

 32 35  0  0  0  0  0  0  0  0999 V2000
   37.1060   27.3170   34.1460 C   0  0  0  0  0  0  0  0  0  0  0  0
   36.7800   27.7650   32.8730 C   0  0  0  0  0  0  0  0  0  0  0  0
   36.0560   28.9430   32.9580 C   0  0  0  0  0  0  0  0  0  0  0  0
   35.9710   29.1660   34.3020 N   0  0  0  0  0  0  0  0  0  0  0  0
   36.5810   28.2230   35.0030 N   0  0  0  0  0  0  0  0  0  0  0  0
   37.0360   27.2910   31.9400 H   0  0  0  0  0  0  0  0  0  0  0  0
   35.6370   29.5720   32.1930 H   0  0  0  0  0  0  0  0  0  0  0  0
   37.8610   26.1220   34.4710 C   0  0  0  0  0  0  0  0  0  0  0  0
   37.7410   25.5760   35.7730 C   0  0  0  0  0  0  0  0  0  0  0  0
   38.4760   24.4270   36.0580 C   0  0  0  0  0  0  0  0  0  0  0  0
   39.2600   23.8980   35.0800 N   0  0  0  0  0  0  0  0  0  0  0  0
   39.3590   24.4390   33.8400 C   0  0  0  0  0  0  0  0  0  0  0  0
   38.6550   25.5510   33.5500 N   0  0  0  0  0  0  0  0  0  0  0  0
   37.1000   26.0410   36.5110 H   0  0  0  0  0  0  0  0  0  0  0  0
   40.0110   23.9420   33.1350 H   0  0  0  0  0  0  0  0  0  0  0  0
   38.3600   23.8370   37.4280 C   0  0  0  0  0  0  0  0  0  0  0  0
   38.0900   24.9030   38.2550 F   0  0  0  0  0  0  0  0  0  0  0  0
   37.3110   22.9330   37.5220 F   0  0  0  0  0  0  0  0  0  0  0  0
   39.5390   23.2490   37.8420 F   0  0  0  0  0  0  0  0  0  0  0  0
   35.3190   30.2750   34.9780 C   0  0  0  0  0  0  0  0  0  0  0  0
   36.0550   31.2180   35.7150 C   0  0  0  0  0  0  0  0  0  0  0  0
   35.4150   32.2500   36.3230 C   0  0  0  0  0  0  0  0  0  0  0  0
   34.0070   32.3510   36.1980 C   0  0  0  0  0  0  0  0  0  0  0  0
   33.6130   30.8770   35.1500 S   0  0  0  0  0  0  0  0  0  0  0  0
   37.1490   31.1580   35.8270 H   0  0  0  0  0  0  0  0  0  0  0  0
   35.8410   33.0420   36.9150 H   0  0  0  0  0  0  0  0  0  0  0  0
   33.0460   33.1840   36.6280 C   0  0  0  0  0  0  0  0  0  0  0  0
   33.0330   34.3620   37.3100 C   0  0  0  0  0  0  0  0  0  0  0  0
   33.9820   34.7780   37.6020 H   0  0  0  0  0  0  0  0  0  0  0  0
   31.8380   34.9470   37.5850 C   0  0  0  0  0  3  0  0  0  0  0  0
   30.6090   34.3230   37.1590 C   0  0  0  0  0  3  0  0  0  0  0  0
   31.2780   32.7920   36.3080 S   0  0  0  0  0  0  0  0  0  0  0  0
  1  8  1  0  0  0  0
  1  5  2  0  0  0  0
  2  3  2  0  0  0  0
  2  1  1  0  0  0  0
  3  4  1  0  0  0  0
  4 20  1  0  0  0  0
  4  5  1  0  0  0  0
  6  2  1  0  0  0  0
  7  3  1  0  0  0  0
  8  9  1  0  0  0  0
  9 10  2  0  0  0  0
  9 14  1  0  0  0  0
 10 16  1  0  0  0  0
 11 10  1  0  0  0  0
 12 11  2  0  0  0  0
 13 12  1  0  0  0  0
 13  8  2  0  0  0  0
 15 12  1  0  0  0  0
 16 18  1  0  0  0  0
 16 19  1  0  0  0  0
 16 17  1  0  0  0  0
 20 24  1  0  0  0  0
 20 21  2  0  0  0  0
 21 25  1  0  0  0  0
 21 22  1  0  0  0  0
 22 26  1  0  0  0  0
 23 22  2  0  0  0  0
 23 27  1  0  0  0  0
 24 23  1  0  0  0  0
 27 28  2  0  0  0  0
 28 30  1  0  0  0  0
 28 29  1  0  0  0  0
 31 30  2  0  0  0  0
 32 27  1  0  0  0  0
 32 31  1  0  0  0  0
M  END
>  <minimizedAffinity>
-5.8957243

$$$$

 OpenBabel03272508073D

 32 35  0  0  0  0  0  0  0  0999 V2000
   37.5520   24.3140   31.3650 C   0  0  0  0  0  0  0  0  0  0  0  0
   38.3960   25.0820   30.5750 C   0  0  0  0  0  0  0  0  0  0  0  0
   38.2250   26.4250   30.8690 C   0  0  0  0  0  0  0  0  0  0  0  0
   37.2680   26.4170   31.8420 N   0  0  0  0  0  0  0  0  0  0  0  0
   36.8700   25.1890   32.1380 N   0  0  0  0  0  0  0  0  0  0  0  0
   39.0910   24.7200   29.8360 H   0  0  0  0  0  0  0  0  0  0  0  0
   38.6980   27.3030   30.4650 H   0  0  0  0  0  0  0  0  0  0  0  0
   37.4420   22.8680   31.3530 C   0  0  0  0  0  0  0  0  0  0  0  0
   36.4790   22.2540   32.1920 C   0  0  0  0  0  0  0  0  0  0  0  0
   36.3930   20.8630   32.1600 C   0  0  0  0  0  0  0  0  0  0  0  0
   37.2290   20.1790   31.3330 N   0  0  0  0  0  0  0  0  0  0  0  0
   38.1440   20.7900   30.5390 C   0  0  0  0  0  0  0  0  0  0  0  0
   38.2390   22.1340   30.5600 N   0  0  0  0  0  0  0  0  0  0  0  0
   35.8390   22.8500   32.8290 H   0  0  0  0  0  0  0  0  0  0  0  0
   38.7620   20.1550   29.9190 H   0  0  0  0  0  0  0  0  0  0  0  0
   35.3810   20.1990   33.0380 C   0  0  0  0  0  0  0  0  0  0  0  0
   34.1810   20.3530   32.3830 F   0  0  0  0  0  0  0  0  0  0  0  0
   35.6270   18.8410   33.1880 F   0  0  0  0  0  0  0  0  0  0  0  0
   35.2860   20.8080   34.2740 F   0  0  0  0  0  0  0  0  0  0  0  0
   36.6960   27.5600   32.5330 C   0  0  0  0  0  0  0  0  0  0  0  0
   36.0760   28.6060   31.8290 C   0  0  0  0  0  0  0  0  0  0  0  0
   35.5400   29.6530   32.5080 C   0  0  0  0  0  0  0  0  0  0  0  0
   35.6210   29.6660   33.9230 C   0  0  0  0  0  0  0  0  0  0  0  0
   36.5160   28.0820   34.2640 S   0  0  0  0  0  0  0  0  0  0  0  0
   36.0030   28.6180   30.7300 H   0  0  0  0  0  0  0  0  0  0  0  0
   35.0380   30.5190   32.1090 H   0  0  0  0  0  0  0  0  0  0  0  0
   35.2330   30.4810   34.9150 C   0  0  0  0  0  0  0  0  0  0  0  0
   35.8780   31.3020   35.7900 C   0  0  0  0  0  0  0  0  0  0  0  0
   36.9510   31.3570   35.7210 H   0  0  0  0  0  0  0  0  0  0  0  0
   35.1450   32.0030   36.6930 C   0  0  0  0  0  3  0  0  0  0  0  0
   33.7080   31.8740   36.7190 C   0  0  0  0  0  3  0  0  0  0  0  0
   33.4480   30.6460   35.3260 S   0  0  0  0  0  0  0  0  0  0  0  0
  1  5  2  0  0  0  0
  2  3  2  0  0  0  0
  2  1  1  0  0  0  0
  3  4  1  0  0  0  0
  4  5  1  0  0  0  0
  4 20  1  0  0  0  0
  6  2  1  0  0  0  0
  7  3  1  0  0  0  0
  8  1  1  0  0  0  0
  8  9  1  0  0  0  0
  9 14  1  0  0  0  0
 10  9  2  0  0  0  0
 10 16  1  0  0  0  0
 11 10  1  0  0  0  0
 12 13  1  0  0  0  0
 12 11  2  0  0  0  0
 13  8  2  0  0  0  0
 15 12  1  0  0  0  0
 16 18  1  0  0  0  0
 16 19  1  0  0  0  0
 17 16  1  0  0  0  0
 20 24  1  0  0  0  0
 21 22  1  0  0  0  0
 21 20  2  0  0  0  0
 22 23  2  0  0  0  0
 23 24  1  0  0  0  0
 23 27  1  0  0  0  0
 25 21  1  0  0  0  0
 26 22  1  0  0  0  0
 27 32  1  0  0  0  0
 27 28  2  0  0  0  0
 28 30  1  0  0  0  0
 29 28  1  0  0  0  0
 30 31  2  0  0  0  0
 32 31  1  0  0  0  0
M  END
>  <minimizedAffinity>
-5.88143492

$$$$

 OpenBabel03272508073D

 32 35  0  0  0  0  0  0  0  0999 V2000
   36.2590   28.3490   33.8450 C   0  0  0  0  0  0  0  0  0  0  0  0
   36.7540   27.9710   32.6040 C   0  0  0  0  0  0  0  0  0  0  0  0
   37.6270   26.9050   32.7480 C   0  0  0  0  0  0  0  0  0  0  0  0
   37.6260   26.6750   34.0930 N   0  0  0  0  0  0  0  0  0  0  0  0
   36.8320   27.5130   34.7410 N   0  0  0  0  0  0  0  0  0  0  0  0
   36.5140   28.4190   31.6540 H   0  0  0  0  0  0  0  0  0  0  0  0
   38.1940   26.3530   32.0200 H   0  0  0  0  0  0  0  0  0  0  0  0
   35.3190   29.4210   34.1070 C   0  0  0  0  0  0  0  0  0  0  0  0
   35.7100   30.4700   34.9750 C   0  0  0  0  0  0  0  0  0  0  0  0
   34.7870   31.4880   35.2090 C   0  0  0  0  0  0  0  0  0  0  0  0
   33.5740   31.4190   34.5970 N   0  0  0  0  0  0  0  0  0  0  0  0
   33.2220   30.4030   33.7690 C   0  0  0  0  0  0  0  0  0  0  0  0
   34.1040   29.4110   33.5340 N   0  0  0  0  0  0  0  0  0  0  0  0
   36.6900   30.4730   35.4350 H   0  0  0  0  0  0  0  0  0  0  0  0
   32.2340   30.4420   33.3320 H   0  0  0  0  0  0  0  0  0  0  0  0
   35.1840   32.6040   36.1220 C   0  0  0  0  0  0  0  0  0  0  0  0
   35.0210   32.1030   37.3930 F   0  0  0  0  0  0  0  0  0  0  0  0
   36.5150   32.9650   35.9610 F   0  0  0  0  0  0  0  0  0  0  0  0
   34.3670   33.7090   35.9790 F   0  0  0  0  0  0  0  0  0  0  0  0
   38.3680   25.6580   34.8190 C   0  0  0  0  0  0  0  0  0  0  0  0
   37.8910   25.1280   36.0300 C   0  0  0  0  0  0  0  0  0  0  0  0
   38.6030   24.1680   36.6750 C   0  0  0  0  0  0  0  0  0  0  0  0
   39.8220   23.7220   36.1070 C   0  0  0  0  0  0  0  0  0  0  0  0
   39.9220   24.7500   34.5700 S   0  0  0  0  0  0  0  0  0  0  0  0
   36.9470   25.4610   36.4900 H   0  0  0  0  0  0  0  0  0  0  0  0
   38.3660   23.6720   37.6010 H   0  0  0  0  0  0  0  0  0  0  0  0
   40.7760   22.8320   36.4200 C   0  0  0  0  0  0  0  0  0  0  0  0
   40.8940   21.8360   37.3410 C   0  0  0  0  0  0  0  0  0  0  0  0
   40.0620   21.6710   38.0040 H   0  0  0  0  0  0  0  0  0  0  0  0
   42.0410   21.1090   37.3770 C   0  0  0  0  0  3  0  0  0  0  0  0
   43.1110   21.3940   36.4530 C   0  0  0  0  0  3  0  0  0  0  0  0
   42.3610   22.8160   35.4880 S   0  0  0  0  0  0  0  0  0  0  0  0
  1  8  1  0  0  0  0
  1  5  2  0  0  0  0
  2  3  2  0  0  0  0
  2  1  1  0  0  0  0
  3  4  1  0  0  0  0
  4  5  1  0  0  0  0
  4 20  1  0  0  0  0
  6  2  1  0  0  0  0
  7  3  1  0  0  0  0
  8  9  1  0  0  0  0
  9 10  2  0  0  0  0
  9 14  1  0  0  0  0
 10 16  1  0  0  0  0
 11 10  1  0  0  0  0
 12 11  2  0  0  0  0
 13 12  1  0  0  0  0
 13  8  2  0  0  0  0
 15 12  1  0  0  0  0
 16 17  1  0  0  0  0
 18 16  1  0  0  0  0
 19 16  1  0  0  0  0
 20 21  2  0  0  0  0
 21 25  1  0  0  0  0
 21 22  1  0  0  0  0
 22 26  1  0  0  0  0
 23 27  1  0  0  0  0
 23 22  2  0  0  0  0
 24 20  1  0  0  0  0
 24 23  1  0  0  0  0
 27 28  2  0  0  0  0
 28 30  1  0  0  0  0
 28 29  1  0  0  0  0
 31 30  2  0  0  0  0
 32 27  1  0  0  0  0
 32 31  1  0  0  0  0
M  END
>  <minimizedAffinity>
-5.87428379

$$$$

 OpenBabel03272508073D

 32 35  0  0  0  0  0  0  0  0999 V2000
   37.5550   26.1330   34.1880 C   0  0  0  0  0  0  0  0  0  0  0  0
   37.7200   26.4100   32.8380 C   0  0  0  0  0  0  0  0  0  0  0  0
   37.0370   27.5690   32.5060 C   0  0  0  0  0  0  0  0  0  0  0  0
   36.4760   27.9550   33.6890 N   0  0  0  0  0  0  0  0  0  0  0  0
   36.7730   27.1240   34.6760 N   0  0  0  0  0  0  0  0  0  0  0  0
   38.2870   25.8310   32.1280 H   0  0  0  0  0  0  0  0  0  0  0  0
   36.9360   28.0860   31.5690 H   0  0  0  0  0  0  0  0  0  0  0  0
   38.1180   25.0100   34.9120 C   0  0  0  0  0  0  0  0  0  0  0  0
   37.9380   24.9480   36.3160 C   0  0  0  0  0  0  0  0  0  0  0  0
   38.4880   23.8570   36.9870 C   0  0  0  0  0  0  0  0  0  0  0  0
   39.1590   22.9200   36.2630 N   0  0  0  0  0  0  0  0  0  0  0  0
   39.3180   23.0020   34.9180 C   0  0  0  0  0  0  0  0  0  0  0  0
   38.7930   24.0520   34.2560 N   0  0  0  0  0  0  0  0  0  0  0  0
   37.3940   25.7230   36.8390 H   0  0  0  0  0  0  0  0  0  0  0  0
   39.8690   22.2050   34.4370 H   0  0  0  0  0  0  0  0  0  0  0  0
   38.3060   23.7750   38.4690 C   0  0  0  0  0  0  0  0  0  0  0  0
   37.9130   25.0370   38.8510 F   0  0  0  0  0  0  0  0  0  0  0  0
   37.3090   22.8780   38.8270 F   0  0  0  0  0  0  0  0  0  0  0  0
   39.4850   23.4680   39.1200 F   0  0  0  0  0  0  0  0  0  0  0  0
   35.6450   29.1210   33.9370 C   0  0  0  0  0  0  0  0  0  0  0  0
   35.9140   29.9990   35.0010 C   0  0  0  0  0  0  0  0  0  0  0  0
   35.1260   31.0860   35.1960 C   0  0  0  0  0  0  0  0  0  0  0  0
   34.0380   31.3110   34.3150 C   0  0  0  0  0  0  0  0  0  0  0  0
   34.1850   29.8720   33.1590 S   0  0  0  0  0  0  0  0  0  0  0  0
   36.7520   29.8430   35.6990 H   0  0  0  0  0  0  0  0  0  0  0  0
   35.2080   31.8410   35.9600 H   0  0  0  0  0  0  0  0  0  0  0  0
   33.0680   32.2280   34.1760 C   0  0  0  0  0  0  0  0  0  0  0  0
   33.0000   33.5810   34.3110 C   0  0  0  0  0  0  0  0  0  0  0  0
   33.9010   34.0980   34.5940 H   0  0  0  0  0  0  0  0  0  0  0  0
   31.8150   34.2040   34.0860 C   0  0  0  0  0  3  0  0  0  0  0  0
   30.6520   33.4370   33.7110 C   0  0  0  0  0  3  0  0  0  0  0  0
   31.3720   31.7060   33.6960 S   0  0  0  0  0  0  0  0  0  0  0  0
  1  5  2  0  0  0  0
  1  8  1  0  0  0  0
  2  1  1  0  0  0  0
  3  2  2  0  0  0  0
  3  4  1  0  0  0  0
  4 20  1  0  0  0  0
  4  5  1  0  0  0  0
  6  2  1  0  0  0  0
  7  3  1  0  0  0  0
  8  9  1  0  0  0  0
  9 14  1  0  0  0  0
  9 10  2  0  0  0  0
 10 16  1  0  0  0  0
 11 10  1  0  0  0  0
 12 11  2  0  0  0  0
 13  8  2  0  0  0  0
 13 12  1  0  0  0  0
 15 12  1  0  0  0  0
 16 18  1  0  0  0  0
 16 17  1  0  0  0  0
 16 19  1  0  0  0  0
 20 21  2  0  0  0  0
 21 22  1  0  0  0  0
 21 25  1  0  0  0  0
 22 26  1  0  0  0  0
 23 22  2  0  0  0  0
 24 20  1  0  0  0  0
 24 23  1  0  0  0  0
 27 28  2  0  0  0  0
 27 23  1  0  0  0  0
 28 29  1  0  0  0  0
 30 28  1  0  0  0  0
 31 30  2  0  0  0  0
 32 31  1  0  0  0  0
 32 27  1  0  0  0  0
M  END
>  <minimizedAffinity>
-5.736238

$$$$

 OpenBabel03272508073D

 32 35  0  0  0  0  0  0  0  0999 V2000
   38.4490   25.6400   33.7980 C   0  0  0  0  0  0  0  0  0  0  0  0
   39.3030   26.0700   32.7920 C   0  0  0  0  0  0  0  0  0  0  0  0
   38.7530   27.1650   32.1420 C   0  0  0  0  0  0  0  0  0  0  0  0
   37.5690   27.3560   32.7930 N   0  0  0  0  0  0  0  0  0  0  0  0
   37.3830   26.4720   33.7600 N   0  0  0  0  0  0  0  0  0  0  0  0
   40.2550   25.6410   32.5300 H   0  0  0  0  0  0  0  0  0  0  0  0
   39.1200   27.7570   31.3240 H   0  0  0  0  0  0  0  0  0  0  0  0
   38.6730   24.5260   34.7000 C   0  0  0  0  0  0  0  0  0  0  0  0
   38.3790   24.6960   36.0750 C   0  0  0  0  0  0  0  0  0  0  0  0
   38.6020   23.6090   36.9190 C   0  0  0  0  0  0  0  0  0  0  0  0
   39.0850   22.4570   36.3800 N   0  0  0  0  0  0  0  0  0  0  0  0
   39.3600   22.3180   35.0590 C   0  0  0  0  0  0  0  0  0  0  0  0
   39.1500   23.3610   34.2300 N   0  0  0  0  0  0  0  0  0  0  0  0
   37.9960   25.6370   36.4470 H   0  0  0  0  0  0  0  0  0  0  0  0
   39.7410   21.3610   34.7310 H   0  0  0  0  0  0  0  0  0  0  0  0
   38.2960   23.7710   38.3730 C   0  0  0  0  0  0  0  0  0  0  0  0
   39.4730   23.4780   39.0220 F   0  0  0  0  0  0  0  0  0  0  0  0
   37.9320   25.0730   38.6910 F   0  0  0  0  0  0  0  0  0  0  0  0
   37.3270   22.8840   38.8020 F   0  0  0  0  0  0  0  0  0  0  0  0
   36.5700   28.3800   32.5330 C   0  0  0  0  0  0  0  0  0  0  0  0
   35.6650   28.7880   33.5270 C   0  0  0  0  0  0  0  0  0  0  0  0
   34.7540   29.7570   33.2550 C   0  0  0  0  0  0  0  0  0  0  0  0
   34.7370   30.3380   31.9620 C   0  0  0  0  0  0  0  0  0  0  0  0
   36.1110   29.4260   31.1200 S   0  0  0  0  0  0  0  0  0  0  0  0
   35.6590   28.3500   34.5380 H   0  0  0  0  0  0  0  0  0  0  0  0
   34.0040   30.1700   33.9080 H   0  0  0  0  0  0  0  0  0  0  0  0
   34.0260   31.2800   31.3240 C   0  0  0  0  0  0  0  0  0  0  0  0
   32.7010   31.4780   31.0760 C   0  0  0  0  0  0  0  0  0  0  0  0
   32.0100   30.7450   31.4540 H   0  0  0  0  0  0  0  0  0  0  0  0
   32.3230   32.5770   30.3740 C   0  0  0  0  0  3  0  0  0  0  0  0
   33.3140   33.5130   29.9020 C   0  0  0  0  0  3  0  0  0  0  0  0
   34.8810   32.7070   30.5400 S   0  0  0  0  0  0  0  0  0  0  0  0
  1  8  1  0  0  0  0
  2  1  1  0  0  0  0
  3  2  2  0  0  0  0
  3  4  1  0  0  0  0
  4  5  1  0  0  0  0
  5  1  2  0  0  0  0
  6  2  1  0  0  0  0
  7  3  1  0  0  0  0
  8  9  1  0  0  0  0
  9 14  1  0  0  0  0
  9 10  2  0  0  0  0
 10 16  1  0  0  0  0
 11 10  1  0  0  0  0
 12 11  2  0  0  0  0
 13  8  2  0  0  0  0
 13 12  1  0  0  0  0
 15 12  1  0  0  0  0
 16 18  1  0  0  0  0
 16 19  1  0  0  0  0
 16 17  1  0  0  0  0
 20  4  1  0  0  0  0
 20 21  2  0  0  0  0
 21 25  1  0  0  0  0
 22 21  1  0  0  0  0
 22 26  1  0  0  0  0
 23 22  2  0  0  0  0
 24 23  1  0  0  0  0
 24 20  1  0  0  0  0
 27 23  1  0  0  0  0
 28 27  2  0  0  0  0
 28 29  1  0  0  0  0
 30 28  1  0  0  0  0
 31 30  2  0  0  0  0
 31 32  1  0  0  0  0
 32 27  1  0  0  0  0
M  END
>  <minimizedAffinity>
-5.73202896

$$$$

 OpenBabel03272508073D

 32 35  0  0  0  0  0  0  0  0999 V2000
   35.6340   29.3700   31.8710 C   0  0  0  0  0  0  0  0  0  0  0  0
   36.2450   29.4040   30.6250 C   0  0  0  0  0  0  0  0  0  0  0  0
   36.5920   28.1210   30.2330 C   0  0  0  0  0  0  0  0  0  0  0  0
   36.1690   27.3470   31.2750 N   0  0  0  0  0  0  0  0  0  0  0  0
   35.6090   28.0670   32.2350 N   0  0  0  0  0  0  0  0  0  0  0  0
   36.4350   30.2800   30.0270 H   0  0  0  0  0  0  0  0  0  0  0  0
   37.0750   27.7600   29.3430 H   0  0  0  0  0  0  0  0  0  0  0  0
   35.1270   30.5080   32.6130 C   0  0  0  0  0  0  0  0  0  0  0  0
   35.6220   30.7410   33.9200 C   0  0  0  0  0  0  0  0  0  0  0  0
   35.1190   31.8420   34.6110 C   0  0  0  0  0  0  0  0  0  0  0  0
   34.1900   32.6250   33.9980 N   0  0  0  0  0  0  0  0  0  0  0  0
   33.7310   32.3810   32.7450 C   0  0  0  0  0  0  0  0  0  0  0  0
   34.2070   31.3190   32.0650 N   0  0  0  0  0  0  0  0  0  0  0  0
   36.3620   30.0840   34.3570 H   0  0  0  0  0  0  0  0  0  0  0  0
   32.9910   33.0620   32.3480 H   0  0  0  0  0  0  0  0  0  0  0  0
   35.6320   32.1030   35.9910 C   0  0  0  0  0  0  0  0  0  0  0  0
   36.6360   31.1830   36.1800 F   0  0  0  0  0  0  0  0  0  0  0  0
   36.1740   33.3750   36.1170 F   0  0  0  0  0  0  0  0  0  0  0  0
   34.6620   31.8980   36.9530 F   0  0  0  0  0  0  0  0  0  0  0  0
   36.2720   25.9030   31.4060 C   0  0  0  0  0  0  0  0  0  0  0  0
   37.4590   25.2900   31.8410 C   0  0  0  0  0  0  0  0  0  0  0  0
   37.5150   23.9390   31.9660 C   0  0  0  0  0  0  0  0  0  0  0  0
   36.3660   23.1730   31.6480 C   0  0  0  0  0  0  0  0  0  0  0  0
   35.1610   24.4890   31.1510 S   0  0  0  0  0  0  0  0  0  0  0  0
   38.3640   25.8650   32.0920 H   0  0  0  0  0  0  0  0  0  0  0  0
   38.3470   23.3340   32.2850 H   0  0  0  0  0  0  0  0  0  0  0  0
   36.0300   21.8740   31.6390 C   0  0  0  0  0  0  0  0  0  0  0  0
   34.9840   21.1500   32.1240 C   0  0  0  0  0  0  0  0  0  0  0  0
   34.2100   21.6850   32.6480 H   0  0  0  0  0  0  0  0  0  0  0  0
   34.9690   19.8070   31.9260 C   0  0  0  0  0  3  0  0  0  0  0  0
   36.0470   19.1650   31.2140 C   0  0  0  0  0  3  0  0  0  0  0  0
   37.1300   20.6460   30.8240 S   0  0  0  0  0  0  0  0  0  0  0  0
  1  5  2  0  0  0  0
  1  8  1  0  0  0  0
  2  1  1  0  0  0  0
  3  2  2  0  0  0  0
  3  4  1  0  0  0  0
  4 20  1  0  0  0  0
  4  5  1  0  0  0  0
  6  2  1  0  0  0  0
  7  3  1  0  0  0  0
  8  9  1  0  0  0  0
  9 14  1  0  0  0  0
  9 10  2  0  0  0  0
 10 16  1  0  0  0  0
 11 10  1  0  0  0  0
 12 11  2  0  0  0  0
 13  8  2  0  0  0  0
 13 12  1  0  0  0  0
 15 12  1  0  0  0  0
 16 18  1  0  0  0  0
 16 17  1  0  0  0  0
 16 19  1  0  0  0  0
 20 21  2  0  0  0  0
 21 22  1  0  0  0  0
 21 25  1  0  0  0  0
 22 26  1  0  0  0  0
 23 22  2  0  0  0  0
 24 20  1  0  0  0  0
 24 23  1  0  0  0  0
 27 23  1  0  0  0  0
 27 28  2  0  0  0  0
 28 29  1  0  0  0  0
 30 28  1  0  0  0  0
 31 30  2  0  0  0  0
 32 31  1  0  0  0  0
 32 27  1  0  0  0  0
M  END
>  <minimizedAffinity>
-5.72812128

$$$$

 OpenBabel03272508073D

 32 35  0  0  0  0  0  0  0  0999 V2000
   35.7590   28.8380   33.4970 C   0  0  0  0  0  0  0  0  0  0  0  0
   36.2410   28.7380   32.1990 C   0  0  0  0  0  0  0  0  0  0  0  0
   37.3510   27.9090   32.1700 C   0  0  0  0  0  0  0  0  0  0  0  0
   37.5000   27.5340   33.4740 N   0  0  0  0  0  0  0  0  0  0  0  0
   36.5760   28.0710   34.2550 N   0  0  0  0  0  0  0  0  0  0  0  0
   35.8360   29.2180   31.3240 H   0  0  0  0  0  0  0  0  0  0  0  0
   37.9820   27.6000   31.3550 H   0  0  0  0  0  0  0  0  0  0  0  0
   34.6110   29.6100   33.9320 C   0  0  0  0  0  0  0  0  0  0  0  0
   34.6910   30.3140   35.1580 C   0  0  0  0  0  0  0  0  0  0  0  0
   33.5740   31.0490   35.5520 C   0  0  0  0  0  0  0  0  0  0  0  0
   32.4790   31.0490   34.7440 N   0  0  0  0  0  0  0  0  0  0  0  0
   32.4260   30.3650   33.5730 C   0  0  0  0  0  0  0  0  0  0  0  0
   33.4990   29.6500   33.1800 N   0  0  0  0  0  0  0  0  0  0  0  0
   35.5900   30.2780   35.7600 H   0  0  0  0  0  0  0  0  0  0  0  0
   31.5080   30.4290   33.0050 H   0  0  0  0  0  0  0  0  0  0  0  0
   33.6420   31.8000   36.8430 C   0  0  0  0  0  0  0  0  0  0  0  0
   34.9780   31.8280   37.1710 F   0  0  0  0  0  0  0  0  0  0  0  0
   33.1950   33.1070   36.7140 F   0  0  0  0  0  0  0  0  0  0  0  0
   32.9570   31.1560   37.8550 F   0  0  0  0  0  0  0  0  0  0  0  0
   38.5120   26.6540   34.0330 C   0  0  0  0  0  0  0  0  0  0  0  0
   39.8630   27.0370   34.0950 C   0  0  0  0  0  0  0  0  0  0  0  0
   40.7800   26.1950   34.6370 C   0  0  0  0  0  0  0  0  0  0  0  0
   40.3490   24.9380   35.1300 C   0  0  0  0  0  0  0  0  0  0  0  0
   38.5310   25.0000   34.7850 S   0  0  0  0  0  0  0  0  0  0  0  0
   40.2200   28.0080   33.7160 H   0  0  0  0  0  0  0  0  0  0  0  0
   41.8400   26.3490   34.7520 H   0  0  0  0  0  0  0  0  0  0  0  0
   40.9180   23.8710   35.7120 C   0  0  0  0  0  0  0  0  0  0  0  0
   42.1850   23.3760   35.7780 C   0  0  0  0  0  0  0  0  0  0  0  0
   42.9590   23.9210   35.2660 H   0  0  0  0  0  0  0  0  0  0  0  0
   42.4060   22.2340   36.4790 C   0  0  0  0  0  3  0  0  0  0  0  0
   41.3120   21.5630   37.1380 C   0  0  0  0  0  3  0  0  0  0  0  0
   39.8900   22.6970   36.6850 S   0  0  0  0  0  0  0  0  0  0  0  0
  1  8  1  0  0  0  0
  1  5  2  0  0  0  0
  2  1  1  0  0  0  0
  3  2  2  0  0  0  0
  3  4  1  0  0  0  0
  4 20  1  0  0  0  0
  4  5  1  0  0  0  0
  6  2  1  0  0  0  0
  7  3  1  0  0  0  0
  8  9  1  0  0  0  0
  9 10  2  0  0  0  0
  9 14  1  0  0  0  0
 10 16  1  0  0  0  0
 11 10  1  0  0  0  0
 12 11  2  0  0  0  0
 13 12  1  0  0  0  0
 13  8  2  0  0  0  0
 15 12  1  0  0  0  0
 16 17  1  0  0  0  0
 16 19  1  0  0  0  0
 18 16  1  0  0  0  0
 20 21  2  0  0  0  0
 20 24  1  0  0  0  0
 21 22  1  0  0  0  0
 22 26  1  0  0  0  0
 22 23  2  0  0  0  0
 23 27  1  0  0  0  0
 24 23  1  0  0  0  0
 25 21  1  0  0  0  0
 27 28  2  0  0  0  0
 27 32  1  0  0  0  0
 28 30  1  0  0  0  0
 29 28  1  0  0  0  0
 30 31  2  0  0  0  0
 32 31  1  0  0  0  0
M  END
>  <minimizedAffinity>
-5.70706558

$$$$

 OpenBabel03272508073D

 32 35  0  0  0  0  0  0  0  0999 V2000
   37.9730   24.9610   34.8480 C   0  0  0  0  0  0  0  0  0  0  0  0
   37.9690   24.4590   33.5540 C   0  0  0  0  0  0  0  0  0  0  0  0
   37.4250   25.3930   32.6860 C   0  0  0  0  0  0  0  0  0  0  0  0
   37.1150   26.4410   33.5030 N   0  0  0  0  0  0  0  0  0  0  0  0
   37.4310   26.1980   34.7660 N   0  0  0  0  0  0  0  0  0  0  0  0
   38.3290   23.4940   33.2390 H   0  0  0  0  0  0  0  0  0  0  0  0
   37.2600   25.3590   31.6240 H   0  0  0  0  0  0  0  0  0  0  0  0
   38.4640   24.2850   36.0330 C   0  0  0  0  0  0  0  0  0  0  0  0
   39.6670   23.5430   35.9410 C   0  0  0  0  0  0  0  0  0  0  0  0
   40.1180   22.9040   37.0950 C   0  0  0  0  0  0  0  0  0  0  0  0
   39.3850   23.0290   38.2350 N   0  0  0  0  0  0  0  0  0  0  0  0
   38.2350   23.7460   38.2980 C   0  0  0  0  0  0  0  0  0  0  0  0
   37.7870   24.3690   37.1900 N   0  0  0  0  0  0  0  0  0  0  0  0
   40.2090   23.4790   35.0060 H   0  0  0  0  0  0  0  0  0  0  0  0
   37.7270   23.7830   39.2520 H   0  0  0  0  0  0  0  0  0  0  0  0
   41.3870   22.1160   37.0160 C   0  0  0  0  0  0  0  0  0  0  0  0
   41.3130   21.4380   35.8210 F   0  0  0  0  0  0  0  0  0  0  0  0
   42.5100   22.9320   36.9890 F   0  0  0  0  0  0  0  0  0  0  0  0
   41.4890   21.1930   38.0380 F   0  0  0  0  0  0  0  0  0  0  0  0
   36.5150   27.7100   33.1280 C   0  0  0  0  0  0  0  0  0  0  0  0
   36.0570   28.6180   34.0980 C   0  0  0  0  0  0  0  0  0  0  0  0
   35.5140   29.8020   33.7120 C   0  0  0  0  0  0  0  0  0  0  0  0
   35.4200   30.0940   32.3290 C   0  0  0  0  0  0  0  0  0  0  0  0
   36.1580   28.5750   31.5700 S   0  0  0  0  0  0  0  0  0  0  0  0
   36.1180   28.4120   35.1780 H   0  0  0  0  0  0  0  0  0  0  0  0
   35.1240   30.5900   34.3340 H   0  0  0  0  0  0  0  0  0  0  0  0
   34.9690   31.1070   31.5740 C   0  0  0  0  0  0  0  0  0  0  0  0
   35.5550   32.0790   30.8210 C   0  0  0  0  0  0  0  0  0  0  0  0
   36.6310   32.0930   30.7780 H   0  0  0  0  0  0  0  0  0  0  0  0
   34.7650   32.9700   30.1690 C   0  0  0  0  0  3  0  0  0  0  0  0
   33.3290   32.8830   30.2780 C   0  0  0  0  0  3  0  0  0  0  0  0
   33.1600   31.3970   31.4090 S   0  0  0  0  0  0  0  0  0  0  0  0
  1  8  1  0  0  0  0
  2  1  1  0  0  0  0
  3  4  1  0  0  0  0
  3  2  2  0  0  0  0
  4  5  1  0  0  0  0
  5  1  2  0  0  0  0
  6  2  1  0  0  0  0
  7  3  1  0  0  0  0
  8 13  1  0  0  0  0
  9  8  2  0  0  0  0
  9 10  1  0  0  0  0
 10 11  2  0  0  0  0
 11 12  1  0  0  0  0
 12 15  1  0  0  0  0
 13 12  2  0  0  0  0
 14  9  1  0  0  0  0
 16 10  1  0  0  0  0
 16 19  1  0  0  0  0
 17 16  1  0  0  0  0
 18 16  1  0  0  0  0
 20  4  1  0  0  0  0
 20 21  2  0  0  0  0
 21 25  1  0  0  0  0
 22 21  1  0  0  0  0
 22 26  1  0  0  0  0
 23 22  2  0  0  0  0
 24 23  1  0  0  0  0
 24 20  1  0  0  0  0
 27 23  1  0  0  0  0
 28 27  2  0  0  0  0
 29 28  1  0  0  0  0
 30 31  2  0  0  0  0
 30 28  1  0  0  0  0
 31 32  1  0  0  0  0
 32 27  1  0  0  0  0
M  END
>  <minimizedAffinity>
-5.69027376

$$$$
