
 OpenBabel03272502293D

 20 21  0  0  0  0  0  0  0  0999 V2000
   38.6520   31.3330   48.2400 C   0  0  0  0  0  0  0  0  0  0  0  0
   38.7710   32.6410   48.1850 C   0  0  0  0  0  0  0  0  0  0  0  0
   37.2180   30.1420   51.4310 C   0  0  0  0  0  0  0  0  0  0  0  0
   38.0480   30.8480   50.5380 C   0  0  0  0  0  0  0  0  0  0  0  0
   37.8360   30.6410   49.1860 C   0  0  0  0  0  0  0  0  0  0  0  0
   36.8690   29.7920   48.7820 N   0  0  0  0  0  0  0  0  0  0  0  0
   36.0850   29.1260   49.6450 C   0  0  0  0  0  0  0  0  0  0  0  0
   36.2580   29.2990   50.9680 N   0  0  0  0  0  0  0  0  0  0  0  0
   37.4120   30.3280   52.4770 H   0  0  0  0  0  0  0  0  0  0  0  0
   38.8200   31.5250   50.8530 H   0  0  0  0  0  0  0  0  0  0  0  0
   35.3240   28.4570   49.2670 H   0  0  0  0  0  0  0  0  0  0  0  0
   39.6360   33.3160   47.1750 C   0  0  0  0  0  0  0  0  0  0  0  0
   40.6710   33.4510   47.5420 H   0  0  0  0  0  0  0  0  0  0  0  0
   39.2200   34.3390   46.9970 H   0  0  0  0  0  0  0  0  0  0  0  0
   39.7330   32.5480   45.9250 C   0  0  0  0  0  0  0  0  0  0  0  0
   40.7670   31.8090   45.3840 C   0  0  0  0  0  0  0  0  0  0  0  0
   41.6820   31.7660   45.9590 H   0  0  0  0  0  0  0  0  0  0  0  0
   40.5380   31.2090   44.1900 C   0  0  0  0  0  0  0  0  0  0  0  0
   39.3430   31.3410   43.5700 C   0  0  0  0  0  0  0  0  0  0  0  0
   38.4040   32.4100   44.7450 S   0  0  0  0  0  0  0  0  0  0  0  0
  1  5  1  0  0  0  0
  2  1  2  0  0  0  0
  3  9  1  0  0  0  0
  4 10  1  0  0  0  0
  4  3  2  0  0  0  0
  5  4  1  0  0  0  0
  6  5  2  0  0  0  0
  6  7  1  0  0  0  0
  7  8  2  0  0  0  0
  8  3  1  0  0  0  0
 11  7  1  0  0  0  0
 12 13  1  0  0  0  0
 12  2  1  0  0  0  0
 14 12  1  0  0  0  0
 15 12  1  0  0  0  0
 16 15  2  0  0  0  0
 16 17  1  0  0  0  0
 18 16  1  0  0  0  0
 19 18  2  0  0  0  0
 19 20  1  0  0  0  0
 20 15  1  0  0  0  0
M  END
>  <minimizedAffinity>
-4.96026421

>  <minimizedRMSD>
2.38682532

$$$$
