
 OpenBabel03272502233D

 26 28  0  0  0  0  0  0  0  0999 V2000
   37.1010   29.6770   49.8480 C   0  0  0  0  0  0  0  0  0  0  0  0
   37.6760   30.3640   48.7740 C   0  0  0  0  0  0  0  0  0  0  0  0
   36.9810   30.4930   47.5870 C   0  0  0  0  0  0  0  0  0  0  0  0
   35.7460   29.9310   47.5280 N   0  0  0  0  0  0  0  0  0  0  0  0
   35.2100   29.2760   48.5670 C   0  0  0  0  0  0  0  0  0  0  0  0
   35.8910   29.1520   49.7230 N   0  0  0  0  0  0  0  0  0  0  0  0
   37.6160   29.5590   50.7850 H   0  0  0  0  0  0  0  0  0  0  0  0
   38.6400   30.7940   48.8430 H   0  0  0  0  0  0  0  0  0  0  0  0
   37.4830   31.1720   46.4010 C   0  0  0  0  0  0  0  0  0  0  0  0
   36.8750   31.0420   45.1780 C   0  0  0  0  0  0  0  0  0  0  0  0
   37.3510   31.6770   44.0400 C   0  0  0  0  0  0  0  0  0  0  0  0
   38.4540   32.4580   44.1260 N   0  0  0  0  0  0  0  0  0  0  0  0
   39.0310   32.5710   45.3290 C   0  0  0  0  0  0  0  0  0  0  0  0
   38.5820   31.9640   46.4350 N   0  0  0  0  0  0  0  0  0  0  0  0
   35.9890   30.4230   45.0750 H   0  0  0  0  0  0  0  0  0  0  0  0
   36.8690   31.5710   43.0770 H   0  0  0  0  0  0  0  0  0  0  0  0
   40.2470   33.4210   45.4650 C   0  0  0  0  0  0  0  0  0  0  0  0
   40.2810   33.9180   46.7480 F   0  0  0  0  0  0  0  0  0  0  0  0
   41.4010   32.6780   45.1650 F   0  0  0  0  0  0  0  0  0  0  0  0
   40.2170   34.4860   44.6180 F   0  0  0  0  0  0  0  0  0  0  0  0
   33.8430   28.7270   48.3130 C   0  0  0  0  0  0  0  0  0  0  0  0
   32.9530   28.0000   48.9630 C   0  0  0  0  0  0  0  0  0  0  0  0
   33.3040   27.7230   49.9470 H   0  0  0  0  0  0  0  0  0  0  0  0
   31.7660   27.6990   48.3590 C   0  0  0  0  0  0  0  0  0  0  0  0
   31.5690   28.1930   47.0620 C   0  0  0  0  0  0  0  0  0  0  0  0
   33.1970   29.1180   46.7650 S   0  0  0  0  0  0  0  0  0  0  0  0
  1  7  1  0  0  0  0
  2  8  1  0  0  0  0
  2  1  2  0  0  0  0
  3  2  1  0  0  0  0
  4  3  2  0  0  0  0
  4  5  1  0  0  0  0
  5  6  2  0  0  0  0
  6  1  1  0  0  0  0
  9 14  1  0  0  0  0
  9  3  1  0  0  0  0
 10  9  2  0  0  0  0
 11 12  2  0  0  0  0
 11 10  1  0  0  0  0
 12 13  1  0  0  0  0
 13 17  1  0  0  0  0
 13 14  2  0  0  0  0
 15 10  1  0  0  0  0
 16 11  1  0  0  0  0
 17 18  1  0  0  0  0
 19 17  1  0  0  0  0
 20 17  1  0  0  0  0
 21  5  1  0  0  0  0
 21 22  2  0  0  0  0
 22 23  1  0  0  0  0
 24 22  1  0  0  0  0
 25 24  2  0  0  0  0
 26 25  1  0  0  0  0
 26 21  1  0  0  0  0
M  END
>  <minimizedAffinity>
-5.98362732

>  <minimizedRMSD>
1.85814238

$$$$
