
 OpenBabel03262520323D

 20 21  0  0  0  0  0  0  0  0999 V2000
   34.8340   28.2830   49.7060 C   0  0  0  0  0  3  0  0  0  0  0  0
   33.9300   28.6710   48.8630 C   0  0  0  0  0  3  0  0  0  0  0  0
   37.4010   30.3020   51.3570 C   0  0  0  0  0  0  0  0  0  0  0  0
   38.1330   30.8100   50.2740 C   0  0  0  0  0  0  0  0  0  0  0  0
   37.7210   30.4420   48.9860 C   0  0  0  0  0  0  0  0  0  0  0  0
   36.6320   29.6110   48.8710 N   0  0  0  0  0  0  0  0  0  0  0  0
   35.9700   29.1550   49.9430 C   0  0  0  0  0  0  0  0  0  0  0  0
   36.3580   29.5020   51.1680 N   0  0  0  0  0  0  0  0  0  0  0  0
   37.7880   30.6370   52.3060 H   0  0  0  0  0  0  0  0  0  0  0  0
   38.9810   31.4530   50.2700 H   0  0  0  0  0  0  0  0  0  0  0  0
   38.1740   30.7440   48.0480 H   0  0  0  0  0  0  0  0  0  0  0  0
   32.6870   27.9440   48.4670 C   0  0  0  0  0  0  0  0  0  0  0  0
   32.2500   27.5250   49.3950 H   0  0  0  0  0  0  0  0  0  0  0  0
   31.9530   28.6950   48.1010 H   0  0  0  0  0  0  0  0  0  0  0  0
   32.9900   26.8870   47.5360 C   0  0  0  0  0  0  0  0  0  0  0  0
   33.9000   26.7090   46.5190 C   0  0  0  0  0  0  0  0  0  0  0  0
   34.5480   27.5610   46.3770 H   0  0  0  0  0  0  0  0  0  0  0  0
   33.9390   25.5610   45.7970 C   0  0  0  0  0  3  0  0  0  0  0  0
   33.0290   24.5580   46.1130 C   0  0  0  0  0  3  0  0  0  0  0  0
   32.0640   25.3480   47.5480 S   0  0  0  0  0  0  0  0  0  0  0  0
  1  7  1  0  0  0  0
  2  1  2  0  0  0  0
  3  9  1  0  0  0  0
  4  3  2  0  0  0  0
  5  4  1  0  0  0  0
  6  5  2  0  0  0  0
  6  7  1  0  0  0  0
  7  8  2  0  0  0  0
  8  3  1  0  0  0  0
 10  4  1  0  0  0  0
 11  5  1  0  0  0  0
 12  2  1  0  0  0  0
 12 13  1  0  0  0  0
 14 12  1  0  0  0  0
 15 20  1  0  0  0  0
 15 12  1  0  0  0  0
 16 15  2  0  0  0  0
 17 16  1  0  0  0  0
 18 19  2  0  0  0  0
 18 16  1  0  0  0  0
 19 20  1  0  0  0  0
M  END
>  <minimizedAffinity>
-4.23054838

>  <minimizedRMSD>
0.993828773

$$$$
