
 OpenBabel03272510013D

 18 19  0  0  0  0  0  0  0  0999 V2000
   38.2870   31.2770   50.1160 C   0  0  0  0  0  0  0  0  0  0  0  0
   38.3840   31.4790   48.7230 C   0  0  0  0  0  0  0  0  0  0  0  0
   37.3660   30.9520   47.9450 C   0  0  0  0  0  0  0  0  0  0  0  0
   36.3460   30.2830   48.5300 N   0  0  0  0  0  0  0  0  0  0  0  0
   36.2900   30.1100   49.8710 C   0  0  0  0  0  0  0  0  0  0  0  0
   37.2640   30.6110   50.6410 N   0  0  0  0  0  0  0  0  0  0  0  0
   39.0730   31.6800   50.7520 H   0  0  0  0  0  0  0  0  0  0  0  0
   39.2170   32.0150   48.3460 H   0  0  0  0  0  0  0  0  0  0  0  0
   37.4030   31.1240   46.5100 C   0  0  0  0  0  0  0  0  0  0  0  0
   36.7290   30.5980   45.4670 C   0  0  0  0  0  0  0  0  0  0  0  0
   35.9720   29.8690   45.7650 H   0  0  0  0  0  0  0  0  0  0  0  0
   36.9990   30.9700   44.2000 C   0  0  0  0  0  3  0  0  0  0  0  0
   38.0000   31.9130   44.0340 C   0  0  0  0  0  3  0  0  0  0  0  0
   38.5480   32.2550   45.7840 S   0  0  0  0  0  0  0  0  0  0  0  0
   35.1430   29.3660   50.4370 C   0  0  0  0  0  0  0  0  0  0  0  0
   35.2770   29.1230   51.7940 F   0  0  0  0  0  0  0  0  0  0  0  0
   33.9580   30.0660   50.2790 F   0  0  0  0  0  0  0  0  0  0  0  0
   34.9340   28.1510   49.8150 F   0  0  0  0  0  0  0  0  0  0  0  0
  1  6  1  0  0  0  0
  1  7  1  0  0  0  0
  2  1  2  0  0  0  0
  3  4  2  0  0  0  0
  3  2  1  0  0  0  0
  4  5  1  0  0  0  0
  5 15  1  0  0  0  0
  5  6  2  0  0  0  0
  8  2  1  0  0  0  0
  9  3  1  0  0  0  0
 10 11  1  0  0  0  0
 10  9  2  0  0  0  0
 12 10  1  0  0  0  0
 13 12  2  0  0  0  0
 13 14  1  0  0  0  0
 14  9  1  0  0  0  0
 15 16  1  0  0  0  0
 17 15  1  0  0  0  0
 18 15  1  0  0  0  0
M  END
>  <minimizedAffinity>
-5.12048912

>  <minimizedRMSD>
0.455484122

$$$$
