
 OpenBabel03272503023D

 25 27  0  0  0  0  0  0  0  0999 V2000
   37.8550   30.4430   47.3390 F   0  0  0  0  0  0  0  0  0  0  0  0
   38.2990   31.5910   47.8900 C   0  0  0  0  0  0  0  0  0  0  0  0
   37.9110   31.9240   49.1550 C   0  0  0  0  0  0  0  0  0  0  0  0
   38.3910   33.0990   49.6600 C   0  0  0  0  0  0  0  0  0  0  0  0
   39.2270   33.9390   48.9650 C   0  0  0  0  0  0  0  0  0  0  0  0
   39.6050   33.5850   47.6960 C   0  0  0  0  0  0  0  0  0  0  0  0
   39.1330   32.3940   47.1510 C   0  0  0  0  0  0  0  0  0  0  0  0
   38.1030   33.3920   50.6570 H   0  0  0  0  0  0  0  0  0  0  0  0
   39.5650   34.8530   49.4360 H   0  0  0  0  0  0  0  0  0  0  0  0
   40.2630   34.2560   47.1630 H   0  0  0  0  0  0  0  0  0  0  0  0
   36.5470   29.4280   51.6610 C   0  0  0  0  0  0  0  0  0  0  0  0
   37.4350   30.3030   51.0040 C   0  0  0  0  0  0  0  0  0  0  0  0
   37.0250   31.0120   49.8660 C   0  0  0  0  0  0  0  0  0  0  0  0
   35.7580   30.7860   49.4810 N   0  0  0  0  0  0  0  0  0  0  0  0
   34.9140   29.9560   50.1040 C   0  0  0  0  0  0  0  0  0  0  0  0
   35.3130   29.2880   51.1810 N   0  0  0  0  0  0  0  0  0  0  0  0
   36.8870   28.8940   52.5330 H   0  0  0  0  0  0  0  0  0  0  0  0
   38.4450   30.4450   51.3590 H   0  0  0  0  0  0  0  0  0  0  0  0
   33.9030   29.8140   49.7490 H   0  0  0  0  0  0  0  0  0  0  0  0
   39.5810   32.0570   45.7540 C   0  0  0  0  0  0  0  0  0  0  0  0
   40.5040   31.2270   45.3260 C   0  0  0  0  0  0  0  0  0  0  0  0
   41.1470   30.5940   45.9620 H   0  0  0  0  0  0  0  0  0  0  0  0
   40.7430   31.0780   44.0050 C   0  0  0  0  0  0  0  0  0  0  0  0
   39.9850   31.8260   43.1520 C   0  0  0  0  0  0  0  0  0  0  0  0
   38.8930   32.7720   44.3470 S   0  0  0  0  0  0  0  0  0  0  0  0
  1  2  1  0  0  0  0
  2  3  1  0  0  0  0
  3  4  2  0  0  0  0
  3 13  1  0  0  0  0
  4  8  1  0  0  0  0
  5  9  1  0  0  0  0
  5  4  1  0  0  0  0
  6  5  2  0  0  0  0
  7  6  1  0  0  0  0
  7  2  2  0  0  0  0
 10  6  1  0  0  0  0
 11 17  1  0  0  0  0
 12 18  1  0  0  0  0
 12 11  2  0  0  0  0
 13 12  1  0  0  0  0
 14 13  2  0  0  0  0
 14 15  1  0  0  0  0
 15 16  2  0  0  0  0
 16 11  1  0  0  0  0
 19 15  1  0  0  0  0
 20  7  1  0  0  0  0
 21 20  2  0  0  0  0
 21 22  1  0  0  0  0
 23 21  1  0  0  0  0
 24 23  2  0  0  0  0
 24 25  1  0  0  0  0
 25 20  1  0  0  0  0
M  END
>  <minimizedAffinity>
-6.47502708

>  <minimizedRMSD>
0.69712913

$$$$
