
 OpenBabel03272502293D

 20 21  0  0  0  0  0  0  0  0999 V2000
   37.6360   25.5400   35.7310 C   0  0  0  0  0  3  0  0  0  0  0  0
   37.9800   26.8000   35.5770 C   0  0  0  0  0  3  0  0  0  0  0  0
   38.8060   23.3330   38.4540 C   0  0  0  0  0  0  0  0  0  0  0  0
   38.0220   24.2800   37.7660 C   0  0  0  0  0  0  0  0  0  0  0  0
   38.3980   24.5850   36.4700 C   0  0  0  0  0  0  0  0  0  0  0  0
   39.4740   23.9800   35.9240 N   0  0  0  0  0  0  0  0  0  0  0  0
   40.2110   23.0780   36.5920 C   0  0  0  0  0  0  0  0  0  0  0  0
   39.8800   22.7540   37.8550 N   0  0  0  0  0  0  0  0  0  0  0  0
   38.4840   23.1200   39.4620 H   0  0  0  0  0  0  0  0  0  0  0  0
   37.1650   24.7660   38.1950 H   0  0  0  0  0  0  0  0  0  0  0  0
   41.0640   22.6230   36.1070 H   0  0  0  0  0  0  0  0  0  0  0  0
   37.1470   27.7590   34.7970 C   0  0  0  0  0  0  0  0  0  0  0  0
   37.3950   28.8100   35.0340 H   0  0  0  0  0  0  0  0  0  0  0  0
   36.0790   27.6040   35.0930 H   0  0  0  0  0  0  0  0  0  0  0  0
   37.3310   27.6030   33.3470 C   0  0  0  0  0  0  0  0  0  0  0  0
   38.4450   27.2790   32.5980 C   0  0  0  0  0  0  0  0  0  0  0  0
   39.3600   27.1000   33.1450 H   0  0  0  0  0  0  0  0  0  0  0  0
   38.2870   27.2140   31.2520 C   0  0  0  0  0  3  0  0  0  0  0  0
   37.0830   27.4610   30.6880 C   0  0  0  0  0  3  0  0  0  0  0  0
   36.0250   27.8270   32.1550 S   0  0  0  0  0  0  0  0  0  0  0  0
  1  5  1  0  0  0  0
  2  1  2  0  0  0  0
  3  9  1  0  0  0  0
  4 10  1  0  0  0  0
  4  3  2  0  0  0  0
  5  4  1  0  0  0  0
  6  5  2  0  0  0  0
  6  7  1  0  0  0  0
  7  8  2  0  0  0  0
  8  3  1  0  0  0  0
 11  7  1  0  0  0  0
 12 13  1  0  0  0  0
 12 14  1  0  0  0  0
 12  2  1  0  0  0  0
 15 12  1  0  0  0  0
 16 17  1  0  0  0  0
 16 15  2  0  0  0  0
 18 16  1  0  0  0  0
 19 18  2  0  0  0  0
 19 20  1  0  0  0  0
 20 15  1  0  0  0  0
M  END
>  <minimizedAffinity>
-4.18087196

$$$$

 OpenBabel03272502293D

 20 21  0  0  0  0  0  0  0  0999 V2000
   38.8380   24.5260   34.6710 C   0  0  0  0  0  3  0  0  0  0  0  0
   38.2940   25.6460   34.2470 C   0  0  0  0  0  3  0  0  0  0  0  0
   37.9950   24.1930   38.2530 C   0  0  0  0  0  0  0  0  0  0  0  0
   37.9270   24.6290   36.9160 C   0  0  0  0  0  0  0  0  0  0  0  0
   38.8640   24.1140   36.0380 C   0  0  0  0  0  0  0  0  0  0  0  0
   39.7860   23.2350   36.4820 N   0  0  0  0  0  0  0  0  0  0  0  0
   39.8390   22.8270   37.7610 C   0  0  0  0  0  0  0  0  0  0  0  0
   38.9450   23.3040   38.6470 N   0  0  0  0  0  0  0  0  0  0  0  0
   37.2490   24.6160   38.9100 H   0  0  0  0  0  0  0  0  0  0  0  0
   37.1960   25.3290   36.5550 H   0  0  0  0  0  0  0  0  0  0  0  0
   40.5990   22.1200   38.0640 H   0  0  0  0  0  0  0  0  0  0  0  0
   38.2910   26.0300   32.8070 C   0  0  0  0  0  0  0  0  0  0  0  0
   39.1440   25.5870   32.2600 H   0  0  0  0  0  0  0  0  0  0  0  0
   38.4110   27.1410   32.7490 H   0  0  0  0  0  0  0  0  0  0  0  0
   37.0740   25.5830   32.1150 C   0  0  0  0  0  0  0  0  0  0  0  0
   36.5680   24.3190   31.8800 C   0  0  0  0  0  0  0  0  0  0  0  0
   37.1460   23.4890   32.2620 H   0  0  0  0  0  0  0  0  0  0  0  0
   35.4000   24.2390   31.1970 C   0  0  0  0  0  3  0  0  0  0  0  0
   34.7720   25.3590   30.7720 C   0  0  0  0  0  3  0  0  0  0  0  0
   35.8980   26.6940   31.3680 S   0  0  0  0  0  0  0  0  0  0  0  0
  1  5  1  0  0  0  0
  2  1  2  0  0  0  0
  3  8  1  0  0  0  0
  3  9  1  0  0  0  0
  4  3  2  0  0  0  0
  5  6  2  0  0  0  0
  5  4  1  0  0  0  0
  6  7  1  0  0  0  0
  7 11  1  0  0  0  0
  7  8  2  0  0  0  0
 10  4  1  0  0  0  0
 12  2  1  0  0  0  0
 13 12  1  0  0  0  0
 14 12  1  0  0  0  0
 15 12  1  0  0  0  0
 16 15  2  0  0  0  0
 16 17  1  0  0  0  0
 18 16  1  0  0  0  0
 19 18  2  0  0  0  0
 19 20  1  0  0  0  0
 20 15  1  0  0  0  0
M  END
>  <minimizedAffinity>
-4.14709997

$$$$

 OpenBabel03272502293D

 20 21  0  0  0  0  0  0  0  0999 V2000
   37.0870   27.5800   34.2000 C   0  0  0  0  0  3  0  0  0  0  0  0
   38.2420   27.2260   34.7210 C   0  0  0  0  0  3  0  0  0  0  0  0
   37.4410   27.8350   30.5310 C   0  0  0  0  0  0  0  0  0  0  0  0
   37.6490   27.3860   31.8500 C   0  0  0  0  0  0  0  0  0  0  0  0
   36.9120   28.0000   32.8470 C   0  0  0  0  0  0  0  0  0  0  0  0
   36.0430   28.9820   32.5300 N   0  0  0  0  0  0  0  0  0  0  0  0
   35.8550   29.4000   31.2670 C   0  0  0  0  0  0  0  0  0  0  0  0
   36.5520   28.8290   30.2680 N   0  0  0  0  0  0  0  0  0  0  0  0
   38.0330   27.3340   29.7800 H   0  0  0  0  0  0  0  0  0  0  0  0
   38.3390   26.6040   32.1100 H   0  0  0  0  0  0  0  0  0  0  0  0
   35.1460   30.1920   31.0680 H   0  0  0  0  0  0  0  0  0  0  0  0
   38.3710   26.7940   36.1410 C   0  0  0  0  0  0  0  0  0  0  0  0
   37.5960   27.2510   36.7850 H   0  0  0  0  0  0  0  0  0  0  0  0
   39.3610   27.1540   36.5200 H   0  0  0  0  0  0  0  0  0  0  0  0
   38.2340   25.3380   36.2930 C   0  0  0  0  0  0  0  0  0  0  0  0
   37.9100   24.5600   37.3870 C   0  0  0  0  0  0  0  0  0  0  0  0
   37.7140   25.0850   38.3120 H   0  0  0  0  0  0  0  0  0  0  0  0
   37.8660   23.2180   37.2000 C   0  0  0  0  0  3  0  0  0  0  0  0
   38.1320   22.6830   35.9860 C   0  0  0  0  0  3  0  0  0  0  0  0
   38.4870   24.1780   34.9640 S   0  0  0  0  0  0  0  0  0  0  0  0
  1  2  2  0  0  0  0
  2 12  1  0  0  0  0
  3  4  1  0  0  0  0
  4 10  1  0  0  0  0
  4  5  2  0  0  0  0
  5  1  1  0  0  0  0
  6  5  1  0  0  0  0
  7  6  2  0  0  0  0
  8  3  2  0  0  0  0
  8  7  1  0  0  0  0
  9  3  1  0  0  0  0
 11  7  1  0  0  0  0
 12 15  1  0  0  0  0
 12 14  1  0  0  0  0
 12 13  1  0  0  0  0
 15 16  2  0  0  0  0
 16 17  1  0  0  0  0
 18 16  1  0  0  0  0
 19 18  2  0  0  0  0
 20 19  1  0  0  0  0
 20 15  1  0  0  0  0
M  END
>  <minimizedAffinity>
-4.00844431

$$$$

 OpenBabel03272502293D

 20 21  0  0  0  0  0  0  0  0999 V2000
   35.9050   29.6390   33.6390 C   0  0  0  0  0  3  0  0  0  0  0  0
   36.3480   28.4030   33.7000 C   0  0  0  0  0  3  0  0  0  0  0  0
   35.0090   31.7630   36.5260 C   0  0  0  0  0  0  0  0  0  0  0  0
   35.7920   31.1620   35.5210 C   0  0  0  0  0  0  0  0  0  0  0  0
   35.1540   30.2750   34.6730 C   0  0  0  0  0  0  0  0  0  0  0  0
   33.8380   30.0220   34.8350 N   0  0  0  0  0  0  0  0  0  0  0  0
   33.1040   30.6030   35.7980 C   0  0  0  0  0  0  0  0  0  0  0  0
   33.6870   31.4720   36.6430 N   0  0  0  0  0  0  0  0  0  0  0  0
   35.5400   32.4490   37.1690 H   0  0  0  0  0  0  0  0  0  0  0  0
   36.8400   31.3580   35.3870 H   0  0  0  0  0  0  0  0  0  0  0  0
   32.0530   30.3650   35.8820 H   0  0  0  0  0  0  0  0  0  0  0  0
   37.1310   27.7850   32.5920 C   0  0  0  0  0  0  0  0  0  0  0  0
   38.1500   27.5020   32.9130 H   0  0  0  0  0  0  0  0  0  0  0  0
   37.2470   28.5530   31.7860 H   0  0  0  0  0  0  0  0  0  0  0  0
   36.4990   26.5610   32.0810 C   0  0  0  0  0  0  0  0  0  0  0  0
   35.3940   26.3710   31.2740 C   0  0  0  0  0  0  0  0  0  0  0  0
   34.8810   27.2620   30.9400 H   0  0  0  0  0  0  0  0  0  0  0  0
   35.0580   25.0910   30.9770 C   0  0  0  0  0  3  0  0  0  0  0  0
   35.7860   24.0580   31.4600 C   0  0  0  0  0  3  0  0  0  0  0  0
   37.0910   24.9190   32.4410 S   0  0  0  0  0  0  0  0  0  0  0  0
  1  2  2  0  0  0  0
  1  5  1  0  0  0  0
  3  8  1  0  0  0  0
  3  9  1  0  0  0  0
  4  3  2  0  0  0  0
  5  6  2  0  0  0  0
  5  4  1  0  0  0  0
  6  7  1  0  0  0  0
  7 11  1  0  0  0  0
  7  8  2  0  0  0  0
 10  4  1  0  0  0  0
 12 13  1  0  0  0  0
 12  2  1  0  0  0  0
 14 12  1  0  0  0  0
 15 20  1  0  0  0  0
 15 12  1  0  0  0  0
 16 15  2  0  0  0  0
 17 16  1  0  0  0  0
 18 16  1  0  0  0  0
 18 19  2  0  0  0  0
 19 20  1  0  0  0  0
M  END
>  <minimizedAffinity>
-3.98477244

$$$$

 OpenBabel03272502293D

 20 21  0  0  0  0  0  0  0  0999 V2000
   38.1360   26.5570   35.6470 C   0  0  0  0  0  3  0  0  0  0  0  0
   37.1010   26.7470   34.8590 C   0  0  0  0  0  3  0  0  0  0  0  0
   38.5390   23.3290   37.3980 C   0  0  0  0  0  0  0  0  0  0  0  0
   38.0140   24.5910   37.0610 C   0  0  0  0  0  0  0  0  0  0  0  0
   38.6310   25.2720   36.0260 C   0  0  0  0  0  0  0  0  0  0  0  0
   39.6860   24.7180   35.3940 N   0  0  0  0  0  0  0  0  0  0  0  0
   40.1760   23.5120   35.7270 C   0  0  0  0  0  0  0  0  0  0  0  0
   39.6050   22.8170   36.7270 N   0  0  0  0  0  0  0  0  0  0  0  0
   38.0340   22.8260   38.2100 H   0  0  0  0  0  0  0  0  0  0  0  0
   37.1750   25.0390   37.5600 H   0  0  0  0  0  0  0  0  0  0  0  0
   41.0240   23.1150   35.1870 H   0  0  0  0  0  0  0  0  0  0  0  0
   36.6250   28.1110   34.4910 C   0  0  0  0  0  0  0  0  0  0  0  0
   37.2910   28.9010   34.8850 H   0  0  0  0  0  0  0  0  0  0  0  0
   35.6240   28.2650   34.9680 H   0  0  0  0  0  0  0  0  0  0  0  0
   36.5630   28.3040   33.0360 C   0  0  0  0  0  0  0  0  0  0  0  0
   36.0390   29.3280   32.2710 C   0  0  0  0  0  0  0  0  0  0  0  0
   35.5890   30.1510   32.8090 H   0  0  0  0  0  0  0  0  0  0  0  0
   36.1390   29.2070   30.9250 C   0  0  0  0  0  3  0  0  0  0  0  0
   36.7290   28.1220   30.3720 C   0  0  0  0  0  3  0  0  0  0  0  0
   37.2120   27.1370   31.8560 S   0  0  0  0  0  0  0  0  0  0  0  0
  1  5  1  0  0  0  0
  2  1  2  0  0  0  0
  3  9  1  0  0  0  0
  4  3  1  0  0  0  0
  4 10  1  0  0  0  0
  5  4  2  0  0  0  0
  6  7  2  0  0  0  0
  6  5  1  0  0  0  0
  7  8  1  0  0  0  0
  8  3  2  0  0  0  0
 11  7  1  0  0  0  0
 12  2  1  0  0  0  0
 12 13  1  0  0  0  0
 12 14  1  0  0  0  0
 15 12  1  0  0  0  0
 16 17  1  0  0  0  0
 16 15  2  0  0  0  0
 18 16  1  0  0  0  0
 19 18  2  0  0  0  0
 19 20  1  0  0  0  0
 20 15  1  0  0  0  0
M  END
>  <minimizedAffinity>
-3.91700435

$$$$

 OpenBabel03272502293D

 20 21  0  0  0  0  0  0  0  0999 V2000
   37.9720   22.8750   34.6260 C   0  0  0  0  0  3  0  0  0  0  0  0
   38.5240   22.1070   33.7120 C   0  0  0  0  0  3  0  0  0  0  0  0
   38.0990   23.6090   38.2450 C   0  0  0  0  0  0  0  0  0  0  0  0
   37.6000   23.5310   36.9300 C   0  0  0  0  0  0  0  0  0  0  0  0
   38.4320   22.9750   35.9740 C   0  0  0  0  0  0  0  0  0  0  0  0
   39.6600   22.5400   36.3250 N   0  0  0  0  0  0  0  0  0  0  0  0
   40.1220   22.6200   37.5840 C   0  0  0  0  0  0  0  0  0  0  0  0
   39.3440   23.1540   38.5430 N   0  0  0  0  0  0  0  0  0  0  0  0
   37.4230   24.0480   38.9640 H   0  0  0  0  0  0  0  0  0  0  0  0
   36.6240   23.8760   36.6430 H   0  0  0  0  0  0  0  0  0  0  0  0
   41.1140   22.2560   37.8110 H   0  0  0  0  0  0  0  0  0  0  0  0
   38.0060   22.0390   32.3160 C   0  0  0  0  0  0  0  0  0  0  0  0
   38.7530   21.6190   31.6170 H   0  0  0  0  0  0  0  0  0  0  0  0
   37.7980   23.0850   31.9770 H   0  0  0  0  0  0  0  0  0  0  0  0
   36.8100   21.1910   32.2070 C   0  0  0  0  0  0  0  0  0  0  0  0
   35.4650   21.5040   32.2070 C   0  0  0  0  0  0  0  0  0  0  0  0
   35.2130   22.5510   32.2990 H   0  0  0  0  0  0  0  0  0  0  0  0
   34.5920   20.4730   32.0900 C   0  0  0  0  0  3  0  0  0  0  0  0
   35.0380   19.2010   31.9810 C   0  0  0  0  0  3  0  0  0  0  0  0
   36.8690   19.4170   32.0430 S   0  0  0  0  0  0  0  0  0  0  0  0
  1  5  1  0  0  0  0
  2  1  2  0  0  0  0
  3  8  1  0  0  0  0
  3  9  1  0  0  0  0
  4  3  2  0  0  0  0
  5  6  2  0  0  0  0
  5  4  1  0  0  0  0
  6  7  1  0  0  0  0
  7 11  1  0  0  0  0
  7  8  2  0  0  0  0
 10  4  1  0  0  0  0
 12  2  1  0  0  0  0
 13 12  1  0  0  0  0
 14 12  1  0  0  0  0
 15 12  1  0  0  0  0
 16 15  2  0  0  0  0
 16 17  1  0  0  0  0
 18 16  1  0  0  0  0
 19 20  1  0  0  0  0
 19 18  2  0  0  0  0
 20 15  1  0  0  0  0
M  END
>  <minimizedAffinity>
-3.85604334

$$$$

 OpenBabel03272502293D

 20 21  0  0  0  0  0  0  0  0999 V2000
   39.3380   25.1080   34.6700 C   0  0  0  0  0  3  0  0  0  0  0  0
   39.4360   26.4110   34.5300 C   0  0  0  0  0  3  0  0  0  0  0  0
   39.7950   22.7810   37.5040 C   0  0  0  0  0  0  0  0  0  0  0  0
   40.0070   23.4010   36.2580 C   0  0  0  0  0  0  0  0  0  0  0  0
   39.1640   24.4470   35.9240 C   0  0  0  0  0  0  0  0  0  0  0  0
   38.1930   24.8240   36.7820 N   0  0  0  0  0  0  0  0  0  0  0  0
   38.0030   24.2230   37.9680 C   0  0  0  0  0  0  0  0  0  0  0  0
   38.8020   23.2030   38.3300 N   0  0  0  0  0  0  0  0  0  0  0  0
   40.4710   21.9700   37.7310 H   0  0  0  0  0  0  0  0  0  0  0  0
   40.7780   23.1060   35.5690 H   0  0  0  0  0  0  0  0  0  0  0  0
   37.2100   24.5650   38.6170 H   0  0  0  0  0  0  0  0  0  0  0  0
   39.6150   27.0530   33.1960 C   0  0  0  0  0  0  0  0  0  0  0  0
   40.2090   26.4210   32.5100 H   0  0  0  0  0  0  0  0  0  0  0  0
   40.1930   27.9990   33.3460 H   0  0  0  0  0  0  0  0  0  0  0  0
   38.3320   27.3060   32.5250 C   0  0  0  0  0  0  0  0  0  0  0  0
   37.9890   27.3290   31.1870 C   0  0  0  0  0  0  0  0  0  0  0  0
   38.7830   27.1250   30.4820 H   0  0  0  0  0  0  0  0  0  0  0  0
   36.6960   27.6010   30.8860 C   0  0  0  0  0  3  0  0  0  0  0  0
   35.7950   27.8380   31.8660 C   0  0  0  0  0  3  0  0  0  0  0  0
   36.8190   27.6750   33.3930 S   0  0  0  0  0  0  0  0  0  0  0  0
  1  5  1  0  0  0  0
  2  1  2  0  0  0  0
  3  9  1  0  0  0  0
  3  8  1  0  0  0  0
  4  3  2  0  0  0  0
  5  4  1  0  0  0  0
  5  6  2  0  0  0  0
  6  7  1  0  0  0  0
  7  8  2  0  0  0  0
  7 11  1  0  0  0  0
 10  4  1  0  0  0  0
 12 14  1  0  0  0  0
 12  2  1  0  0  0  0
 13 12  1  0  0  0  0
 15 12  1  0  0  0  0
 15 20  1  0  0  0  0
 16 15  2  0  0  0  0
 17 16  1  0  0  0  0
 18 16  1  0  0  0  0
 18 19  2  0  0  0  0
 19 20  1  0  0  0  0
M  END
>  <minimizedAffinity>
-3.80853605

$$$$

 OpenBabel03272502293D

 20 21  0  0  0  0  0  0  0  0999 V2000
   38.1610   24.1040   34.7080 C   0  0  0  0  0  3  0  0  0  0  0  0
   38.9810   24.7140   33.8810 C   0  0  0  0  0  3  0  0  0  0  0  0
   37.9800   23.9390   38.3960 C   0  0  0  0  0  0  0  0  0  0  0  0
   37.6320   24.2620   37.0700 C   0  0  0  0  0  0  0  0  0  0  0  0
   38.4710   23.8020   36.0690 C   0  0  0  0  0  0  0  0  0  0  0  0
   39.5650   23.0810   36.3910 N   0  0  0  0  0  0  0  0  0  0  0  0
   39.8840   22.7810   37.6600 C   0  0  0  0  0  0  0  0  0  0  0  0
   39.0950   23.2080   38.6620 N   0  0  0  0  0  0  0  0  0  0  0  0
   37.3040   24.3140   39.1490 H   0  0  0  0  0  0  0  0  0  0  0  0
   36.7630   24.8360   36.8060 H   0  0  0  0  0  0  0  0  0  0  0  0
   40.7730   22.1990   37.8620 H   0  0  0  0  0  0  0  0  0  0  0  0
   38.6070   25.0080   32.4680 C   0  0  0  0  0  0  0  0  0  0  0  0
   38.1160   24.1440   31.9830 H   0  0  0  0  0  0  0  0  0  0  0  0
   39.5500   25.2070   31.9000 H   0  0  0  0  0  0  0  0  0  0  0  0
   37.6690   26.1350   32.3650 C   0  0  0  0  0  0  0  0  0  0  0  0
   37.7080   27.4080   32.8970 C   0  0  0  0  0  0  0  0  0  0  0  0
   38.5700   27.6530   33.5020 H   0  0  0  0  0  0  0  0  0  0  0  0
   36.6660   28.2290   32.6120 C   0  0  0  0  0  3  0  0  0  0  0  0
   35.6430   27.8000   31.8390 C   0  0  0  0  0  3  0  0  0  0  0  0
   36.1450   26.0690   31.4430 S   0  0  0  0  0  0  0  0  0  0  0  0
  1  5  1  0  0  0  0
  2  1  2  0  0  0  0
  3  8  1  0  0  0  0
  3  9  1  0  0  0  0
  4  3  2  0  0  0  0
  5  6  2  0  0  0  0
  5  4  1  0  0  0  0
  6  7  1  0  0  0  0
  7 11  1  0  0  0  0
  7  8  2  0  0  0  0
 10  4  1  0  0  0  0
 12  2  1  0  0  0  0
 13 12  1  0  0  0  0
 14 12  1  0  0  0  0
 15 12  1  0  0  0  0
 15 16  2  0  0  0  0
 16 17  1  0  0  0  0
 18 16  1  0  0  0  0
 19 18  2  0  0  0  0
 20 19  1  0  0  0  0
 20 15  1  0  0  0  0
M  END
>  <minimizedAffinity>
-3.80599213

$$$$

 OpenBabel03272502293D

 20 21  0  0  0  0  0  0  0  0999 V2000
   36.3420   28.7210   32.9600 C   0  0  0  0  0  3  0  0  0  0  0  0
   35.5910   29.1770   33.9380 C   0  0  0  0  0  3  0  0  0  0  0  0
   37.2400   25.1410   32.7690 C   0  0  0  0  0  0  0  0  0  0  0  0
   37.2340   26.4800   33.2090 C   0  0  0  0  0  0  0  0  0  0  0  0
   36.3850   27.3530   32.5520 C   0  0  0  0  0  0  0  0  0  0  0  0
   35.6150   26.9040   31.5390 N   0  0  0  0  0  0  0  0  0  0  0  0
   35.6310   25.6240   31.1310 C   0  0  0  0  0  0  0  0  0  0  0  0
   36.4420   24.7430   31.7430 N   0  0  0  0  0  0  0  0  0  0  0  0
   37.9140   24.4890   33.3040 H   0  0  0  0  0  0  0  0  0  0  0  0
   37.8450   26.8440   34.0140 H   0  0  0  0  0  0  0  0  0  0  0  0
   34.9930   25.3180   30.3140 H   0  0  0  0  0  0  0  0  0  0  0  0
   35.5820   30.6170   34.3230 C   0  0  0  0  0  0  0  0  0  0  0  0
   35.3780   31.2750   33.4590 H   0  0  0  0  0  0  0  0  0  0  0  0
   36.6040   30.8780   34.6950 H   0  0  0  0  0  0  0  0  0  0  0  0
   34.5510   30.9160   35.3280 C   0  0  0  0  0  0  0  0  0  0  0  0
   33.2560   30.4590   35.4720 C   0  0  0  0  0  0  0  0  0  0  0  0
   32.9080   29.7520   34.7320 H   0  0  0  0  0  0  0  0  0  0  0  0
   32.5460   30.9360   36.5240 C   0  0  0  0  0  3  0  0  0  0  0  0
   33.1000   31.8220   37.3840 C   0  0  0  0  0  3  0  0  0  0  0  0
   34.7950   32.0420   36.6880 S   0  0  0  0  0  0  0  0  0  0  0  0
  1  2  2  0  0  0  0
  2 12  1  0  0  0  0
  3  4  1  0  0  0  0
  3  9  1  0  0  0  0
  4 10  1  0  0  0  0
  5  1  1  0  0  0  0
  5  4  2  0  0  0  0
  6  5  1  0  0  0  0
  7  6  2  0  0  0  0
  7  8  1  0  0  0  0
  8  3  2  0  0  0  0
 11  7  1  0  0  0  0
 12 14  1  0  0  0  0
 12 15  1  0  0  0  0
 13 12  1  0  0  0  0
 15 16  2  0  0  0  0
 15 20  1  0  0  0  0
 16 18  1  0  0  0  0
 17 16  1  0  0  0  0
 18 19  2  0  0  0  0
 20 19  1  0  0  0  0
M  END
>  <minimizedAffinity>
-3.76998734

$$$$
