
 OpenBabel03272503303D

 31 33  0  0  1  0  0  0  0  0999 V2000
   36.4130   29.7630   48.6720 N   0  0  0  0  0  0  0  0  0  0  0  0
   37.5390   30.5360   48.2330 C   0  0  0  0  0  0  0  0  0  0  0  0
   38.0350   31.1570   49.5320 C   0  0  2  0  0  0  0  0  0  0  0  0
   37.0250   30.7590   50.6020 C   0  0  0  0  0  0  0  0  0  0  0  0
   36.6660   29.3870   50.0520 C   0  0  0  0  0  0  0  0  0  0  0  0
   38.2890   29.8270   47.7930 H   0  0  0  0  0  0  0  0  0  0  0  0
   37.3110   31.3380   47.5300 H   0  0  0  0  0  0  0  0  0  0  0  0
   38.9980   30.6980   49.7960 H   0  0  0  0  0  0  0  0  0  0  0  0
   36.1560   31.4300   50.4970 H   0  0  0  0  0  0  0  0  0  0  0  0
   37.4660   30.7080   51.6010 H   0  0  0  0  0  0  0  0  0  0  0  0
   37.5130   28.6940   50.1700 H   0  0  0  0  0  0  0  0  0  0  0  0
   35.7620   28.9840   50.5410 H   0  0  0  0  0  0  0  0  0  0  0  0
   35.2480   29.4200   47.8990 C   0  0  0  0  0  0  0  0  0  0  0  0
   35.1210   30.0190   46.6470 C   0  0  0  0  0  0  0  0  0  0  0  0
   33.9920   29.6890   45.8950 C   0  0  0  0  0  0  0  0  0  0  0  0
   33.0960   28.7980   46.4500 N   0  0  0  0  0  0  0  0  0  0  0  0
   33.2600   28.2530   47.6490 C   0  0  0  0  0  0  0  0  0  0  0  0
   34.3410   28.5620   48.3830 N   0  0  0  0  0  0  0  0  0  0  0  0
   35.8560   30.7210   46.2450 H   0  0  0  0  0  0  0  0  0  0  0  0
   33.8160   30.1070   44.9140 H   0  0  0  0  0  0  0  0  0  0  0  0
   32.0570   27.1090   48.2890 S   0  0  0  0  0  0  0  0  0  0  0  0
   30.5800   27.7110   48.8040 C   0  0  0  0  0  0  0  0  0  0  0  0
   29.8110   27.8560   49.9350 C   0  0  0  0  0  0  0  0  0  0  0  0
   30.3510   27.4370   50.7660 H   0  0  0  0  0  0  0  0  0  0  0  0
   28.5770   28.4330   49.9860 C   0  0  0  0  0  0  0  0  0  0  0  0
   28.1070   28.9230   48.6240 C   0  0  0  0  0  0  0  0  0  0  0  0
   29.4830   28.4920   47.4780 S   0  0  0  0  0  0  0  0  0  0  0  0
   38.1880   32.6520   49.4280 C   0  0  0  0  0  0  0  0  0  0  0  0
   37.0410   33.2070   49.9520 F   0  0  0  0  0  0  0  0  0  0  0  0
   38.1970   32.9640   48.0920 F   0  0  0  0  0  0  0  0  0  0  0  0
   39.3160   33.1230   50.0420 F   0  0  0  0  0  0  0  0  0  0  0  0
  1  5  1  0  0  0  0
  2  1  1  0  0  0  0
  2  3  1  0  0  0  0
  3  8  1  1  0  0  0
  3  4  1  0  0  0  0
  4 10  1  0  0  0  0
  5 11  1  0  0  0  0
  5 12  1  0  0  0  0
  5  4  1  0  0  0  0
  6  2  1  0  0  0  0
  7  2  1  0  0  0  0
  9  4  1  0  0  0  0
 13 18  1  0  0  0  0
 13  1  1  0  0  0  0
 14 13  2  0  0  0  0
 15 16  2  0  0  0  0
 15 14  1  0  0  0  0
 16 17  1  0  0  0  0
 17 21  1  0  0  0  0
 17 18  2  0  0  0  0
 19 14  1  0  0  0  0
 20 15  1  0  0  0  0
 21 22  1  0  0  0  0
 22 23  2  0  0  0  0
 23 25  1  0  0  0  0
 23 24  1  0  0  0  0
 26 25  2  0  0  0  0
 27 26  1  0  0  0  0
 27 22  1  0  0  0  0
 28  3  1  0  0  0  0
 28 29  1  0  0  0  0
 28 31  1  0  0  0  0
 30 28  1  0  0  0  0
M  END
>  <minimizedAffinity>
-6.23937988

>  <minimizedRMSD>
0.65792942

$$$$
