
 OpenBabel03272510273D

 42 46  0  0  1  0  0  0  0  0999 V2000
   32.9580   27.6790   42.1000 C   0  0  0  0  0  0  0  0  0  0  0  0
   33.4410   28.8250   42.6840 C   0  0  0  0  0  0  0  0  0  0  0  0
   34.5190   29.5300   42.1240 C   0  0  0  0  0  0  0  0  0  0  0  0
   35.0550   28.9920   40.9520 C   0  0  0  0  0  0  0  0  0  0  0  0
   36.1030   29.4920   40.2170 N   0  0  0  0  0  0  0  0  0  0  0  0
   36.2620   28.6540   39.1800 C   0  0  0  0  0  0  0  0  0  0  0  0
   35.3720   27.6830   39.2560 N   0  0  0  0  0  0  0  0  0  0  0  0
   34.6030   27.8570   40.3420 C   0  0  0  0  0  0  0  0  0  0  0  0
   33.5260   27.1880   40.9370 C   0  0  0  0  0  0  0  0  0  0  0  0
   32.1250   27.1300   42.5280 H   0  0  0  0  0  0  0  0  0  0  0  0
   34.9220   30.4360   42.5620 H   0  0  0  0  0  0  0  0  0  0  0  0
   36.6600   30.3540   40.4280 H   0  0  0  0  0  0  0  0  0  0  0  0
   33.1610   26.2850   40.4580 H   0  0  0  0  0  0  0  0  0  0  0  0
   32.4600   30.7750   45.7540 C   0  0  0  0  0  0  0  0  0  0  0  0
   33.1700   30.4520   44.5990 C   0  0  0  0  0  0  0  0  0  0  0  0
   32.8270   29.3250   43.9010 C   0  0  0  0  0  0  0  0  0  0  0  0
   31.7810   28.5730   44.3980 N   0  0  0  0  0  0  0  0  0  0  0  0
   31.1000   28.8930   45.5160 C   0  0  0  0  0  0  0  0  0  0  0  0
   31.4380   29.9770   46.1770 N   0  0  0  0  0  0  0  0  0  0  0  0
   32.7610   31.6760   46.2800 H   0  0  0  0  0  0  0  0  0  0  0  0
   33.9910   31.0290   44.1980 H   0  0  0  0  0  0  0  0  0  0  0  0
   30.2950   28.2320   45.8160 H   0  0  0  0  0  0  0  0  0  0  0  0
   37.2440   28.8440   38.2080 O   0  0  0  0  0  0  0  0  0  0  0  0
   38.2870   27.2900   39.5560 N   0  0  0  0  0  0  0  0  0  0  0  0
   38.3430   27.9480   38.2610 C   0  0  1  0  0  0  0  0  0  0  0  0
   38.2660   26.9680   37.1890 C   0  0  0  0  0  0  0  0  0  0  0  0
   39.3830   26.1200   37.2630 O   0  0  0  0  0  0  0  0  0  0  0  0
   39.5680   25.5090   38.4690 C   0  0  0  0  0  0  0  0  0  0  0  0
   39.4920   26.4780   39.6160 C   0  0  1  0  0  0  0  0  0  0  0  0
   37.5290   26.6550   39.7360 H   0  0  0  0  0  0  0  0  0  0  0  0
   39.3110   28.4770   38.2450 H   0  0  0  0  0  0  0  0  0  0  0  0
   37.4620   26.3050   37.0190 H   0  0  0  0  0  0  0  0  0  0  0  0
   38.4300   27.5260   36.2150 H   0  0  0  0  0  0  0  0  0  0  0  0
   38.7950   24.7380   38.6560 H   0  0  0  0  0  0  0  0  0  0  0  0
   40.5860   25.0710   38.4590 H   0  0  0  0  0  0  0  0  0  0  0  0
   39.5190   25.8610   40.5420 H   0  0  0  0  0  0  0  0  0  0  0  0
   40.6490   27.3900   39.5170 C   0  0  0  0  0  0  0  0  0  0  0  0
   40.9410   28.4970   40.1930 C   0  0  0  0  0  0  0  0  0  0  0  0
   40.2400   28.8390   40.9650 H   0  0  0  0  0  0  0  0  0  0  0  0
   42.0820   29.2170   39.9510 C   0  0  0  0  0  3  0  0  0  0  0  0
   42.9080   28.6540   38.9120 C   0  0  0  0  0  3  0  0  0  0  0  0
   42.0180   27.1810   38.3740 S   0  0  0  0  0  0  0  0  0  0  0  0
  1 10  1  0  0  0  0
  1  2  1  0  0  0  0
  2 16  1  0  0  0  0
  3 11  1  0  0  0  0
  3  2  2  0  0  0  0
  4  3  1  0  0  0  0
  5 12  1  0  0  0  0
  5  4  1  0  0  0  0
  6  7  2  0  0  0  0
  6  5  1  0  0  0  0
  7  8  1  0  0  0  0
  8  9  1  0  0  0  0
  8  4  2  0  0  0  0
  9  1  2  0  0  0  0
 13  9  1  0  0  0  0
 14 19  1  0  0  0  0
 14 20  1  0  0  0  0
 15 14  2  0  0  0  0
 16 17  2  0  0  0  0
 16 15  1  0  0  0  0
 17 18  1  0  0  0  0
 18 22  1  0  0  0  0
 18 19  2  0  0  0  0
 21 15  1  0  0  0  0
 23 25  1  0  0  0  0
 23  6  1  0  0  0  0
 24 29  1  0  0  0  0
 24 30  1  0  0  0  0
 25 31  1  6  0  0  0
 25 24  1  0  0  0  0
 26 27  1  0  0  0  0
 26 25  1  0  0  0  0
 27 28  1  0  0  0  0
 28 34  1  0  0  0  0
 28 29  1  0  0  0  0
 29 36  1  1  0  0  0
 32 26  1  0  0  0  0
 33 26  1  0  0  0  0
 35 28  1  0  0  0  0
 37 29  1  0  0  0  0
 37 38  2  0  0  0  0
 38 39  1  0  0  0  0
 40 38  1  0  0  0  0
 41 40  2  0  0  0  0
 42 41  1  0  0  0  0
 42 37  1  0  0  0  0
M  END
>  <minimizedAffinity>
-1.75174952

>  <minimizedRMSD>
6.56795979

$$$$
