
 OpenBabel03272500233D

 34 36  0  0  0  0  0  0  0  0999 V2000
   38.3050   26.1020   36.7020 C   0  0  0  0  0  0  0  0  0  0  0  0
   38.3790   24.6780   36.7910 C   0  0  0  0  0  0  0  0  0  0  0  0
   38.6610   23.9440   35.6430 C   0  0  0  0  0  0  0  0  0  0  0  0
   38.8560   24.6310   34.4730 N   0  0  0  0  0  0  0  0  0  0  0  0
   38.7860   25.9390   34.4040 C   0  0  0  0  0  0  0  0  0  0  0  0
   38.5150   26.6910   35.4910 N   0  0  0  0  0  0  0  0  0  0  0  0
   38.0880   26.6470   37.5970 H   0  0  0  0  0  0  0  0  0  0  0  0
   36.2800   26.8890   32.9990 Cl  0  0  0  0  0  0  0  0  0  0  0  0
   37.9210   27.0940   32.3800 C   0  0  0  0  0  0  0  0  0  0  0  0
   39.0060   26.6200   33.1060 C   0  0  0  0  0  0  0  0  0  0  0  0
   40.3180   26.7560   32.6610 C   0  0  0  0  0  0  0  0  0  0  0  0
   40.4810   27.4020   31.4340 C   0  0  0  0  0  0  0  0  0  0  0  0
   39.4450   27.8760   30.6990 C   0  0  0  0  0  0  0  0  0  0  0  0
   39.7770   28.6670   29.1790 Cl  0  0  0  0  0  0  0  0  0  0  0  0
   38.1420   27.7210   31.1770 C   0  0  0  0  0  0  0  0  0  0  0  0
   41.1650   26.3880   33.2260 H   0  0  0  0  0  0  0  0  0  0  0  0
   41.5050   27.5140   31.0770 H   0  0  0  0  0  0  0  0  0  0  0  0
   37.0020   28.2290   30.3950 C   0  0  0  0  0  0  0  0  0  0  0  0
   37.3470   28.3760   29.0510 F   0  0  0  0  0  0  0  0  0  0  0  0
   36.5180   29.4080   30.8840 F   0  0  0  0  0  0  0  0  0  0  0  0
   35.9630   27.3280   30.4260 F   0  0  0  0  0  0  0  0  0  0  0  0
   38.1470   24.0660   38.1300 C   0  0  0  0  0  0  0  0  0  0  0  0
   39.2780   23.4030   38.5730 F   0  0  0  0  0  0  0  0  0  0  0  0
   37.8940   25.0910   39.0260 F   0  0  0  0  0  0  0  0  0  0  0  0
   37.0780   23.2040   38.1630 F   0  0  0  0  0  0  0  0  0  0  0  0
   38.7290   22.4930   35.7480 C   0  0  0  0  0  0  0  0  0  0  0  0
   38.7880   22.1230   36.7910 H   0  0  0  0  0  0  0  0  0  0  0  0
   39.6930   22.1600   35.2680 H   0  0  0  0  0  0  0  0  0  0  0  0
   37.5750   21.8280   35.1020 C   0  0  0  0  0  0  0  0  0  0  0  0
   36.4020   21.2180   35.6720 C   0  0  0  0  0  0  0  0  0  0  0  0
   36.3650   21.2650   36.7400 H   0  0  0  0  0  0  0  0  0  0  0  0
   35.5240   20.6820   34.8040 C   0  0  0  0  0  3  0  0  0  0  0  0
   35.7040   20.6920   33.3920 C   0  0  0  0  0  3  0  0  0  0  0  0
   37.3350   21.5780   33.2420 S   0  0  0  0  0  0  0  0  0  0  0  0
  1  2  1  0  0  0  0
  1  7  1  0  0  0  0
  2 22  1  0  0  0  0
  3 26  1  0  0  0  0
  3  2  2  0  0  0  0
  4  3  1  0  0  0  0
  5  4  2  0  0  0  0
  5  6  1  0  0  0  0
  6  1  2  0  0  0  0
  9  8  1  0  0  0  0
  9 10  1  0  0  0  0
 10  5  1  0  0  0  0
 11 10  2  0  0  0  0
 11 16  1  0  0  0  0
 12 11  1  0  0  0  0
 13 15  1  0  0  0  0
 13 12  2  0  0  0  0
 14 13  1  0  0  0  0
 15  9  2  0  0  0  0
 17 12  1  0  0  0  0
 18 21  1  0  0  0  0
 18 20  1  0  0  0  0
 18 15  1  0  0  0  0
 19 18  1  0  0  0  0
 22 25  1  0  0  0  0
 22 23  1  0  0  0  0
 22 24  1  0  0  0  0
 26 27  1  0  0  0  0
 28 26  1  0  0  0  0
 29 30  2  0  0  0  0
 29 26  1  0  0  0  0
 30 31  1  0  0  0  0
 32 30  1  0  0  0  0
 33 32  2  0  0  0  0
 34 33  1  0  0  0  0
 34 29  1  0  0  0  0
M  END
>  <minimizedAffinity>
-6.21481752

$$$$

 OpenBabel03272500233D

 34 36  0  0  0  0  0  0  0  0999 V2000
   38.0300   25.9220   36.6750 C   0  0  0  0  0  0  0  0  0  0  0  0
   38.1750   24.5020   36.7180 C   0  0  0  0  0  0  0  0  0  0  0  0
   38.2140   23.7910   35.5220 C   0  0  0  0  0  0  0  0  0  0  0  0
   38.1100   24.4970   34.3520 N   0  0  0  0  0  0  0  0  0  0  0  0
   37.9770   25.8020   34.3250 C   0  0  0  0  0  0  0  0  0  0  0  0
   37.9340   26.5310   35.4600 N   0  0  0  0  0  0  0  0  0  0  0  0
   38.0030   26.4480   37.6070 H   0  0  0  0  0  0  0  0  0  0  0  0
   40.6080   26.4840   32.9950 Cl  0  0  0  0  0  0  0  0  0  0  0  0
   39.0160   26.8620   32.3320 C   0  0  0  0  0  0  0  0  0  0  0  0
   37.8670   26.5040   33.0240 C   0  0  0  0  0  0  0  0  0  0  0  0
   36.5900   26.7800   32.5450 C   0  0  0  0  0  0  0  0  0  0  0  0
   36.5310   27.4430   31.3170 C   0  0  0  0  0  0  0  0  0  0  0  0
   37.6310   27.8080   30.6150 C   0  0  0  0  0  0  0  0  0  0  0  0
   37.4280   28.6330   29.0900 Cl  0  0  0  0  0  0  0  0  0  0  0  0
   38.8960   27.5150   31.1280 C   0  0  0  0  0  0  0  0  0  0  0  0
   35.6930   26.5010   33.0830 H   0  0  0  0  0  0  0  0  0  0  0  0
   35.5340   27.6640   30.9330 H   0  0  0  0  0  0  0  0  0  0  0  0
   40.1050   27.9010   30.3810 C   0  0  0  0  0  0  0  0  0  0  0  0
   40.3810   26.9790   29.3700 F   0  0  0  0  0  0  0  0  0  0  0  0
   41.1950   28.0470   31.1900 F   0  0  0  0  0  0  0  0  0  0  0  0
   39.9110   29.1100   29.7520 F   0  0  0  0  0  0  0  0  0  0  0  0
   38.2800   23.8670   38.0620 C   0  0  0  0  0  0  0  0  0  0  0  0
   39.5260   23.2930   38.2420 F   0  0  0  0  0  0  0  0  0  0  0  0
   38.1460   24.8650   39.0130 F   0  0  0  0  0  0  0  0  0  0  0  0
   37.3110   22.9240   38.3020 F   0  0  0  0  0  0  0  0  0  0  0  0
   38.3590   22.3430   35.5810 C   0  0  0  0  0  0  0  0  0  0  0  0
   38.2090   21.9200   36.5950 H   0  0  0  0  0  0  0  0  0  0  0  0
   39.4280   22.0960   35.3190 H   0  0  0  0  0  0  0  0  0  0  0  0
   37.4300   21.6470   34.6640 C   0  0  0  0  0  0  0  0  0  0  0  0
   36.1320   21.0700   34.9010 C   0  0  0  0  0  0  0  0  0  0  0  0
   35.7900   21.1730   35.9090 H   0  0  0  0  0  0  0  0  0  0  0  0
   35.5320   20.4900   33.8450 C   0  0  0  0  0  3  0  0  0  0  0  0
   36.1110   20.4260   32.5450 C   0  0  0  0  0  3  0  0  0  0  0  0
   37.7300   21.3010   32.8280 S   0  0  0  0  0  0  0  0  0  0  0  0
  1  2  1  0  0  0  0
  1  7  1  0  0  0  0
  2 22  1  0  0  0  0
  3 26  1  0  0  0  0
  3  2  2  0  0  0  0
  4  3  1  0  0  0  0
  5  4  2  0  0  0  0
  5  6  1  0  0  0  0
  6  1  2  0  0  0  0
  9  8  1  0  0  0  0
  9 10  1  0  0  0  0
 10  5  1  0  0  0  0
 11 10  2  0  0  0  0
 11 16  1  0  0  0  0
 12 11  1  0  0  0  0
 13 15  1  0  0  0  0
 13 12  2  0  0  0  0
 14 13  1  0  0  0  0
 15  9  2  0  0  0  0
 17 12  1  0  0  0  0
 18 15  1  0  0  0  0
 18 20  1  0  0  0  0
 19 18  1  0  0  0  0
 21 18  1  0  0  0  0
 22 23  1  0  0  0  0
 22 25  1  0  0  0  0
 22 24  1  0  0  0  0
 26 27  1  0  0  0  0
 28 26  1  0  0  0  0
 29 30  2  0  0  0  0
 29 26  1  0  0  0  0
 30 31  1  0  0  0  0
 32 30  1  0  0  0  0
 33 34  1  0  0  0  0
 33 32  2  0  0  0  0
 34 29  1  0  0  0  0
M  END
>  <minimizedAffinity>
-6.1824789

$$$$

 OpenBabel03272500233D

 34 36  0  0  0  0  0  0  0  0999 V2000
   38.2060   26.1050   36.7140 C   0  0  0  0  0  0  0  0  0  0  0  0
   38.1400   24.6780   36.7390 C   0  0  0  0  0  0  0  0  0  0  0  0
   37.9870   23.9890   35.5390 C   0  0  0  0  0  0  0  0  0  0  0  0
   37.9060   24.7210   34.3840 N   0  0  0  0  0  0  0  0  0  0  0  0
   37.9680   26.0310   34.3740 C   0  0  0  0  0  0  0  0  0  0  0  0
   38.1160   26.7410   35.5120 N   0  0  0  0  0  0  0  0  0  0  0  0
   38.3240   26.6140   37.6480 H   0  0  0  0  0  0  0  0  0  0  0  0
   35.9320   28.2700   34.3050 Cl  0  0  0  0  0  0  0  0  0  0  0  0
   36.9680   27.8080   32.9520 C   0  0  0  0  0  0  0  0  0  0  0  0
   37.8720   26.7630   33.0880 C   0  0  0  0  0  0  0  0  0  0  0  0
   38.7100   26.3610   32.0520 C   0  0  0  0  0  0  0  0  0  0  0  0
   38.5870   27.0750   30.8590 C   0  0  0  0  0  0  0  0  0  0  0  0
   37.7160   28.1000   30.6900 C   0  0  0  0  0  0  0  0  0  0  0  0
   37.6560   28.9160   29.1490 Cl  0  0  0  0  0  0  0  0  0  0  0  0
   36.8910   28.4750   31.7520 C   0  0  0  0  0  0  0  0  0  0  0  0
   39.4150   25.5470   32.1570 H   0  0  0  0  0  0  0  0  0  0  0  0
   39.2400   26.7680   30.0400 H   0  0  0  0  0  0  0  0  0  0  0  0
   35.9370   29.5860   31.5920 C   0  0  0  0  0  0  0  0  0  0  0  0
   34.6490   29.1910   31.9580 F   0  0  0  0  0  0  0  0  0  0  0  0
   35.9280   30.0880   30.3220 F   0  0  0  0  0  0  0  0  0  0  0  0
   36.2710   30.6260   32.4290 F   0  0  0  0  0  0  0  0  0  0  0  0
   38.2440   24.0130   38.0690 C   0  0  0  0  0  0  0  0  0  0  0  0
   38.1480   24.9380   39.0930 F   0  0  0  0  0  0  0  0  0  0  0  0
   37.1700   23.1480   38.1940 F   0  0  0  0  0  0  0  0  0  0  0  0
   39.3950   23.2820   38.2280 F   0  0  0  0  0  0  0  0  0  0  0  0
   37.9170   22.5350   35.5800 C   0  0  0  0  0  0  0  0  0  0  0  0
   36.9910   22.1440   36.0480 H   0  0  0  0  0  0  0  0  0  0  0  0
   38.7530   22.1710   36.2440 H   0  0  0  0  0  0  0  0  0  0  0  0
   38.0280   21.9280   34.2350 C   0  0  0  0  0  0  0  0  0  0  0  0
   39.1820   21.6650   33.4160 C   0  0  0  0  0  0  0  0  0  0  0  0
   40.1080   21.9520   33.8660 H   0  0  0  0  0  0  0  0  0  0  0  0
   38.9490   21.1010   32.2160 C   0  0  0  0  0  3  0  0  0  0  0  0
   37.6490   20.7680   31.7390 C   0  0  0  0  0  3  0  0  0  0  0  0
   36.5890   21.3160   33.1690 S   0  0  0  0  0  0  0  0  0  0  0  0
  1  2  1  0  0  0  0
  1  7  1  0  0  0  0
  2 22  1  0  0  0  0
  3 26  1  0  0  0  0
  3  2  2  0  0  0  0
  4  3  1  0  0  0  0
  5  4  2  0  0  0  0
  5  6  1  0  0  0  0
  6  1  2  0  0  0  0
  9 10  1  0  0  0  0
  9  8  1  0  0  0  0
 10  5  1  0  0  0  0
 11 16  1  0  0  0  0
 11 10  2  0  0  0  0
 12 11  1  0  0  0  0
 13 12  2  0  0  0  0
 13 15  1  0  0  0  0
 14 13  1  0  0  0  0
 15  9  2  0  0  0  0
 17 12  1  0  0  0  0
 18 15  1  0  0  0  0
 18 19  1  0  0  0  0
 18 21  1  0  0  0  0
 20 18  1  0  0  0  0
 22 24  1  0  0  0  0
 22 25  1  0  0  0  0
 22 23  1  0  0  0  0
 26 27  1  0  0  0  0
 26 28  1  0  0  0  0
 29 26  1  0  0  0  0
 30 31  1  0  0  0  0
 30 29  2  0  0  0  0
 32 30  1  0  0  0  0
 33 32  2  0  0  0  0
 33 34  1  0  0  0  0
 34 29  1  0  0  0  0
M  END
>  <minimizedAffinity>
-6.13479233

$$$$

 OpenBabel03272500233D

 34 36  0  0  0  0  0  0  0  0999 V2000
   35.2990   24.8820   31.0690 C   0  0  0  0  0  0  0  0  0  0  0  0
   36.3640   24.1830   31.7140 C   0  0  0  0  0  0  0  0  0  0  0  0
   37.3280   24.9120   32.4040 C   0  0  0  0  0  0  0  0  0  0  0  0
   37.2060   26.2770   32.4300 N   0  0  0  0  0  0  0  0  0  0  0  0
   36.2220   26.9070   31.8330 C   0  0  0  0  0  0  0  0  0  0  0  0
   35.2650   26.2410   31.1530 N   0  0  0  0  0  0  0  0  0  0  0  0
   34.5680   24.3010   30.5450 H   0  0  0  0  0  0  0  0  0  0  0  0
   35.7870   28.0630   34.5960 Cl  0  0  0  0  0  0  0  0  0  0  0  0
   35.9510   29.0170   33.1200 C   0  0  0  0  0  0  0  0  0  0  0  0
   36.1490   28.3860   31.8980 C   0  0  0  0  0  0  0  0  0  0  0  0
   36.2840   29.0930   30.7070 C   0  0  0  0  0  0  0  0  0  0  0  0
   36.2090   30.4830   30.8120 C   0  0  0  0  0  0  0  0  0  0  0  0
   36.0160   31.1310   31.9860 C   0  0  0  0  0  0  0  0  0  0  0  0
   35.9390   32.8750   31.9890 Cl  0  0  0  0  0  0  0  0  0  0  0  0
   35.8840   30.3890   33.1620 C   0  0  0  0  0  0  0  0  0  0  0  0
   36.4380   28.6020   29.7540 H   0  0  0  0  0  0  0  0  0  0  0  0
   36.3130   31.0460   29.8830 H   0  0  0  0  0  0  0  0  0  0  0  0
   35.6750   31.0730   34.4490 C   0  0  0  0  0  0  0  0  0  0  0  0
   34.3180   31.1130   34.7750 F   0  0  0  0  0  0  0  0  0  0  0  0
   36.1960   32.3350   34.4620 F   0  0  0  0  0  0  0  0  0  0  0  0
   36.2910   30.3780   35.4640 F   0  0  0  0  0  0  0  0  0  0  0  0
   36.3700   22.6970   31.6050 C   0  0  0  0  0  0  0  0  0  0  0  0
   36.1070   22.1100   32.8300 F   0  0  0  0  0  0  0  0  0  0  0  0
   35.3470   22.3320   30.7470 F   0  0  0  0  0  0  0  0  0  0  0  0
   37.5430   22.1870   31.1050 F   0  0  0  0  0  0  0  0  0  0  0  0
   38.4110   24.1860   33.0540 C   0  0  0  0  0  0  0  0  0  0  0  0
   39.4150   24.6160   32.8630 H   0  0  0  0  0  0  0  0  0  0  0  0
   38.4470   23.1530   32.6050 H   0  0  0  0  0  0  0  0  0  0  0  0
   38.2320   24.1040   34.5210 C   0  0  0  0  0  0  0  0  0  0  0  0
   38.1380   25.1410   35.5150 C   0  0  0  0  0  0  0  0  0  0  0  0
   38.2030   26.1310   35.1160 H   0  0  0  0  0  0  0  0  0  0  0  0
   37.9830   24.7370   36.7900 C   0  0  0  0  0  3  0  0  0  0  0  0
   37.9120   23.3700   37.1810 C   0  0  0  0  0  3  0  0  0  0  0  0
   38.0850   22.5140   35.5360 S   0  0  0  0  0  0  0  0  0  0  0  0
  1  6  2  0  0  0  0
  1  2  1  0  0  0  0
  2  3  2  0  0  0  0
  3  4  1  0  0  0  0
  3 26  1  0  0  0  0
  5 10  1  0  0  0  0
  5  4  2  0  0  0  0
  6  5  1  0  0  0  0
  7  1  1  0  0  0  0
  9 15  1  0  0  0  0
  9  8  1  0  0  0  0
 10  9  2  0  0  0  0
 11 12  2  0  0  0  0
 11 10  1  0  0  0  0
 12 13  1  0  0  0  0
 13 14  1  0  0  0  0
 13 15  2  0  0  0  0
 15 18  1  0  0  0  0
 16 11  1  0  0  0  0
 17 12  1  0  0  0  0
 18 20  1  0  0  0  0
 18 19  1  0  0  0  0
 18 21  1  0  0  0  0
 22  2  1  0  0  0  0
 22 23  1  0  0  0  0
 24 22  1  0  0  0  0
 25 22  1  0  0  0  0
 26 29  1  0  0  0  0
 27 26  1  0  0  0  0
 28 26  1  0  0  0  0
 29 30  2  0  0  0  0
 29 34  1  0  0  0  0
 30 32  1  0  0  0  0
 31 30  1  0  0  0  0
 32 33  2  0  0  0  0
 34 33  1  0  0  0  0
M  END
>  <minimizedAffinity>
-6.1083746

$$$$

 OpenBabel03272500233D

 34 36  0  0  0  0  0  0  0  0999 V2000
   35.7610   30.5510   30.8040 C   0  0  0  0  0  0  0  0  0  0  0  0
   36.5330   29.3490   30.8430 C   0  0  0  0  0  0  0  0  0  0  0  0
   36.2380   28.3900   31.8070 C   0  0  0  0  0  0  0  0  0  0  0  0
   35.2140   28.6480   32.6790 N   0  0  0  0  0  0  0  0  0  0  0  0
   34.5120   29.7560   32.6330 C   0  0  0  0  0  0  0  0  0  0  0  0
   34.7620   30.7140   31.7160 N   0  0  0  0  0  0  0  0  0  0  0  0
   36.0040   31.2740   30.0540 H   0  0  0  0  0  0  0  0  0  0  0  0
   35.3470   31.0080   35.2590 Cl  0  0  0  0  0  0  0  0  0  0  0  0
   33.6950   30.5430   34.8450 C   0  0  0  0  0  0  0  0  0  0  0  0
   33.4170   29.9750   33.6090 C   0  0  0  0  0  0  0  0  0  0  0  0
   32.1330   29.5910   33.2350 C   0  0  0  0  0  0  0  0  0  0  0  0
   31.1320   29.8130   34.1820 C   0  0  0  0  0  0  0  0  0  0  0  0
   31.3660   30.3650   35.3980 C   0  0  0  0  0  0  0  0  0  0  0  0
   30.0300   30.5920   36.4970 Cl  0  0  0  0  0  0  0  0  0  0  0  0
   32.6680   30.7370   35.7390 C   0  0  0  0  0  0  0  0  0  0  0  0
   31.9150   29.1480   32.2720 H   0  0  0  0  0  0  0  0  0  0  0  0
   30.1210   29.5160   33.8990 H   0  0  0  0  0  0  0  0  0  0  0  0
   32.9460   31.3390   37.0540 C   0  0  0  0  0  0  0  0  0  0  0  0
   32.2110   32.5130   37.2280 F   0  0  0  0  0  0  0  0  0  0  0  0
   34.2740   31.5870   37.2450 F   0  0  0  0  0  0  0  0  0  0  0  0
   32.5500   30.4880   38.0610 F   0  0  0  0  0  0  0  0  0  0  0  0
   37.6160   29.2010   29.8300 C   0  0  0  0  0  0  0  0  0  0  0  0
   37.2390   28.3240   28.8280 F   0  0  0  0  0  0  0  0  0  0  0  0
   37.8160   30.4370   29.2400 F   0  0  0  0  0  0  0  0  0  0  0  0
   38.8130   28.7890   30.3620 F   0  0  0  0  0  0  0  0  0  0  0  0
   37.0360   27.1710   31.8370 C   0  0  0  0  0  0  0  0  0  0  0  0
   37.6710   27.0300   30.9390 H   0  0  0  0  0  0  0  0  0  0  0  0
   36.3240   26.2970   31.8290 H   0  0  0  0  0  0  0  0  0  0  0  0
   37.9190   27.1060   33.0230 C   0  0  0  0  0  0  0  0  0  0  0  0
   39.3540   27.0730   33.1250 C   0  0  0  0  0  0  0  0  0  0  0  0
   39.8570   27.1090   32.1820 H   0  0  0  0  0  0  0  0  0  0  0  0
   39.8650   27.0050   34.3680 C   0  0  0  0  0  3  0  0  0  0  0  0
   39.0690   26.9630   35.5480 C   0  0  0  0  0  3  0  0  0  0  0  0
   37.3530   27.0300   34.8280 S   0  0  0  0  0  0  0  0  0  0  0  0
  1  2  2  0  0  0  0
  1  6  1  0  0  0  0
  2  3  1  0  0  0  0
  3 26  1  0  0  0  0
  3  4  2  0  0  0  0
  5  4  1  0  0  0  0
  5 10  1  0  0  0  0
  6  5  2  0  0  0  0
  7  1  1  0  0  0  0
  9  8  1  0  0  0  0
  9 15  1  0  0  0  0
 10  9  2  0  0  0  0
 11 10  1  0  0  0  0
 11 12  2  0  0  0  0
 12 13  1  0  0  0  0
 13 15  2  0  0  0  0
 13 14  1  0  0  0  0
 15 18  1  0  0  0  0
 16 11  1  0  0  0  0
 17 12  1  0  0  0  0
 18 19  1  0  0  0  0
 18 20  1  0  0  0  0
 18 21  1  0  0  0  0
 22 25  1  0  0  0  0
 22  2  1  0  0  0  0
 23 22  1  0  0  0  0
 24 22  1  0  0  0  0
 26 29  1  0  0  0  0
 27 26  1  0  0  0  0
 28 26  1  0  0  0  0
 29 30  2  0  0  0  0
 29 34  1  0  0  0  0
 30 32  1  0  0  0  0
 31 30  1  0  0  0  0
 32 33  2  0  0  0  0
 34 33  1  0  0  0  0
M  END
>  <minimizedAffinity>
-6.05976629

$$$$

 OpenBabel03272500233D

 34 36  0  0  0  0  0  0  0  0999 V2000
   35.2620   24.8680   31.0730 C   0  0  0  0  0  0  0  0  0  0  0  0
   36.3230   24.1510   31.7050 C   0  0  0  0  0  0  0  0  0  0  0  0
   37.2820   24.8610   32.4230 C   0  0  0  0  0  0  0  0  0  0  0  0
   37.1580   26.2240   32.4880 N   0  0  0  0  0  0  0  0  0  0  0  0
   36.1780   26.8710   31.9020 C   0  0  0  0  0  0  0  0  0  0  0  0
   35.2270   26.2250   31.1960 N   0  0  0  0  0  0  0  0  0  0  0  0
   34.5350   24.3030   30.5270 H   0  0  0  0  0  0  0  0  0  0  0  0
   37.0990   28.3950   29.4550 Cl  0  0  0  0  0  0  0  0  0  0  0  0
   36.5040   29.1400   30.9410 C   0  0  0  0  0  0  0  0  0  0  0  0
   36.1040   28.3470   32.0090 C   0  0  0  0  0  0  0  0  0  0  0  0
   35.6280   28.8860   33.2010 C   0  0  0  0  0  0  0  0  0  0  0  0
   35.5750   30.2800   33.2610 C   0  0  0  0  0  0  0  0  0  0  0  0
   35.9570   31.0840   32.2390 C   0  0  0  0  0  0  0  0  0  0  0  0
   35.8440   32.8140   32.4340 Cl  0  0  0  0  0  0  0  0  0  0  0  0
   36.4300   30.5080   31.0580 C   0  0  0  0  0  0  0  0  0  0  0  0
   35.3160   28.2690   34.0340 H   0  0  0  0  0  0  0  0  0  0  0  0
   35.2030   30.7120   34.1910 H   0  0  0  0  0  0  0  0  0  0  0  0
   36.8500   31.3620   29.9340 C   0  0  0  0  0  0  0  0  0  0  0  0
   38.0350   32.0350   30.2380 F   0  0  0  0  0  0  0  0  0  0  0  0
   35.8860   32.2560   29.5690 F   0  0  0  0  0  0  0  0  0  0  0  0
   37.1210   30.5930   28.8260 F   0  0  0  0  0  0  0  0  0  0  0  0
   36.3300   22.6690   31.5540 C   0  0  0  0  0  0  0  0  0  0  0  0
   36.0930   22.0470   32.7670 F   0  0  0  0  0  0  0  0  0  0  0  0
   35.2920   22.3250   30.7060 F   0  0  0  0  0  0  0  0  0  0  0  0
   37.4950   22.1770   31.0160 F   0  0  0  0  0  0  0  0  0  0  0  0
   38.3600   24.1170   33.0600 C   0  0  0  0  0  0  0  0  0  0  0  0
   39.3680   24.5360   32.8660 H   0  0  0  0  0  0  0  0  0  0  0  0
   38.3820   23.0870   32.6010 H   0  0  0  0  0  0  0  0  0  0  0  0
   38.1900   24.0240   34.5270 C   0  0  0  0  0  0  0  0  0  0  0  0
   38.0980   25.0540   35.5290 C   0  0  0  0  0  0  0  0  0  0  0  0
   38.1560   26.0470   35.1360 H   0  0  0  0  0  0  0  0  0  0  0  0
   37.9510   24.6400   36.8010 C   0  0  0  0  0  3  0  0  0  0  0  0
   37.8870   23.2700   37.1840 C   0  0  0  0  0  3  0  0  0  0  0  0
   38.0550   22.4260   35.5320 S   0  0  0  0  0  0  0  0  0  0  0  0
  1  6  2  0  0  0  0
  1  2  1  0  0  0  0
  2  3  2  0  0  0  0
  3  4  1  0  0  0  0
  3 26  1  0  0  0  0
  5 10  1  0  0  0  0
  5  4  2  0  0  0  0
  6  5  1  0  0  0  0
  7  1  1  0  0  0  0
  8  9  1  0  0  0  0
  9 15  2  0  0  0  0
  9 10  1  0  0  0  0
 10 11  2  0  0  0  0
 11 12  1  0  0  0  0
 11 16  1  0  0  0  0
 12 17  1  0  0  0  0
 13 14  1  0  0  0  0
 13 12  2  0  0  0  0
 15 13  1  0  0  0  0
 18 19  1  0  0  0  0
 18 15  1  0  0  0  0
 20 18  1  0  0  0  0
 21 18  1  0  0  0  0
 22  2  1  0  0  0  0
 22 23  1  0  0  0  0
 24 22  1  0  0  0  0
 25 22  1  0  0  0  0
 26 29  1  0  0  0  0
 27 26  1  0  0  0  0
 28 26  1  0  0  0  0
 29 30  2  0  0  0  0
 29 34  1  0  0  0  0
 30 32  1  0  0  0  0
 31 30  1  0  0  0  0
 32 33  2  0  0  0  0
 34 33  1  0  0  0  0
M  END
>  <minimizedAffinity>
-6.04635572

$$$$

 OpenBabel03272500233D

 34 36  0  0  0  0  0  0  0  0999 V2000
   36.6460   29.7470   31.1090 C   0  0  0  0  0  0  0  0  0  0  0  0
   37.3670   28.5550   31.4250 C   0  0  0  0  0  0  0  0  0  0  0  0
   36.9770   27.8040   32.5300 C   0  0  0  0  0  0  0  0  0  0  0  0
   35.9110   28.2490   33.2670 N   0  0  0  0  0  0  0  0  0  0  0  0
   35.2560   29.3450   32.9660 C   0  0  0  0  0  0  0  0  0  0  0  0
   35.5980   30.1050   31.9050 N   0  0  0  0  0  0  0  0  0  0  0  0
   36.9620   30.3080   30.2550 H   0  0  0  0  0  0  0  0  0  0  0  0
   35.9860   30.9150   35.4490 Cl  0  0  0  0  0  0  0  0  0  0  0  0
   34.3390   30.4980   34.9680 C   0  0  0  0  0  0  0  0  0  0  0  0
   34.1120   29.7720   33.8060 C   0  0  0  0  0  0  0  0  0  0  0  0
   32.8330   29.4190   33.3840 C   0  0  0  0  0  0  0  0  0  0  0  0
   31.7840   29.8400   34.2040 C   0  0  0  0  0  0  0  0  0  0  0  0
   31.9690   30.5480   35.3450 C   0  0  0  0  0  0  0  0  0  0  0  0
   30.5750   31.0170   36.2860 Cl  0  0  0  0  0  0  0  0  0  0  0  0
   33.2660   30.8850   35.7360 C   0  0  0  0  0  0  0  0  0  0  0  0
   32.6550   28.8530   32.4790 H   0  0  0  0  0  0  0  0  0  0  0  0
   30.7780   29.5680   33.8820 H   0  0  0  0  0  0  0  0  0  0  0  0
   33.4900   31.6550   36.9720 C   0  0  0  0  0  0  0  0  0  0  0  0
   32.9050   32.9190   36.8820 F   0  0  0  0  0  0  0  0  0  0  0  0
   34.8140   31.7740   37.2810 F   0  0  0  0  0  0  0  0  0  0  0  0
   32.8860   31.0300   38.0390 F   0  0  0  0  0  0  0  0  0  0  0  0
   38.5050   28.1900   30.5350 C   0  0  0  0  0  0  0  0  0  0  0  0
   38.1840   27.1020   29.7430 F   0  0  0  0  0  0  0  0  0  0  0  0
   38.7390   29.2600   29.6880 F   0  0  0  0  0  0  0  0  0  0  0  0
   39.6700   27.9260   31.2120 F   0  0  0  0  0  0  0  0  0  0  0  0
   37.7250   26.5930   32.8430 C   0  0  0  0  0  0  0  0  0  0  0  0
   37.9160   26.4530   33.9250 H   0  0  0  0  0  0  0  0  0  0  0  0
   38.7480   26.6940   32.3790 H   0  0  0  0  0  0  0  0  0  0  0  0
   37.0520   25.3720   32.3450 C   0  0  0  0  0  0  0  0  0  0  0  0
   35.9140   25.2150   31.4770 C   0  0  0  0  0  0  0  0  0  0  0  0
   35.4980   26.1390   31.1360 H   0  0  0  0  0  0  0  0  0  0  0  0
   35.5330   23.9520   31.2130 C   0  0  0  0  0  3  0  0  0  0  0  0
   36.1870   22.8030   31.7420 C   0  0  0  0  0  3  0  0  0  0  0  0
   37.5350   23.5900   32.7570 S   0  0  0  0  0  0  0  0  0  0  0  0
  1  2  2  0  0  0  0
  1  6  1  0  0  0  0
  2  3  1  0  0  0  0
  3 26  1  0  0  0  0
  3  4  2  0  0  0  0
  5  4  1  0  0  0  0
  5 10  1  0  0  0  0
  6  5  2  0  0  0  0
  7  1  1  0  0  0  0
  9  8  1  0  0  0  0
  9 15  1  0  0  0  0
 10  9  2  0  0  0  0
 11 10  1  0  0  0  0
 11 12  2  0  0  0  0
 12 13  1  0  0  0  0
 13 15  2  0  0  0  0
 13 14  1  0  0  0  0
 15 18  1  0  0  0  0
 16 11  1  0  0  0  0
 17 12  1  0  0  0  0
 18 20  1  0  0  0  0
 18 21  1  0  0  0  0
 19 18  1  0  0  0  0
 22 25  1  0  0  0  0
 22  2  1  0  0  0  0
 23 22  1  0  0  0  0
 24 22  1  0  0  0  0
 26 27  1  0  0  0  0
 28 26  1  0  0  0  0
 29 34  1  0  0  0  0
 29 26  1  0  0  0  0
 30 29  2  0  0  0  0
 31 30  1  0  0  0  0
 32 30  1  0  0  0  0
 32 33  2  0  0  0  0
 33 34  1  0  0  0  0
M  END
>  <minimizedAffinity>
-6.01037025

$$$$

 OpenBabel03272500233D

 34 36  0  0  0  0  0  0  0  0999 V2000
   37.4780   27.0810   33.2930 C   0  0  0  0  0  0  0  0  0  0  0  0
   36.9290   26.3150   32.2200 C   0  0  0  0  0  0  0  0  0  0  0  0
   37.5050   25.0880   31.9030 C   0  0  0  0  0  0  0  0  0  0  0  0
   38.5800   24.6730   32.6430 N   0  0  0  0  0  0  0  0  0  0  0  0
   39.0760   25.3860   33.6270 C   0  0  0  0  0  0  0  0  0  0  0  0
   38.5500   26.5810   33.9690 N   0  0  0  0  0  0  0  0  0  0  0  0
   37.0190   28.0210   33.5200 H   0  0  0  0  0  0  0  0  0  0  0  0
   38.4570   23.2560   35.6850 Cl  0  0  0  0  0  0  0  0  0  0  0  0
   40.0670   23.9000   35.3560 C   0  0  0  0  0  0  0  0  0  0  0  0
   40.2440   24.8790   34.3870 C   0  0  0  0  0  0  0  0  0  0  0  0
   41.4920   25.4190   34.0910 C   0  0  0  0  0  0  0  0  0  0  0  0
   42.5640   24.9160   34.8300 C   0  0  0  0  0  0  0  0  0  0  0  0
   42.4280   23.9620   35.7830 C   0  0  0  0  0  0  0  0  0  0  0  0
   43.8460   23.4120   36.6400 Cl  0  0  0  0  0  0  0  0  0  0  0  0
   41.1600   23.4430   36.0530 C   0  0  0  0  0  0  0  0  0  0  0  0
   41.6310   26.1820   33.3360 H   0  0  0  0  0  0  0  0  0  0  0  0
   43.5470   25.3330   34.6050 H   0  0  0  0  0  0  0  0  0  0  0  0
   40.9900   22.4050   37.0840 C   0  0  0  0  0  0  0  0  0  0  0  0
   40.4300   22.9440   38.2430 F   0  0  0  0  0  0  0  0  0  0  0  0
   42.1590   21.7680   37.3830 F   0  0  0  0  0  0  0  0  0  0  0  0
   40.1110   21.4400   36.6480 F   0  0  0  0  0  0  0  0  0  0  0  0
   35.7550   26.8890   31.5030 C   0  0  0  0  0  0  0  0  0  0  0  0
   35.2320   27.9670   32.1940 F   0  0  0  0  0  0  0  0  0  0  0  0
   36.1970   27.3600   30.2780 F   0  0  0  0  0  0  0  0  0  0  0  0
   34.7550   25.9770   31.2680 F   0  0  0  0  0  0  0  0  0  0  0  0
   36.9360   24.3200   30.8040 C   0  0  0  0  0  0  0  0  0  0  0  0
   37.5930   24.2590   29.9140 H   0  0  0  0  0  0  0  0  0  0  0  0
   36.0140   24.8630   30.4480 H   0  0  0  0  0  0  0  0  0  0  0  0
   36.5950   22.9350   31.2030 C   0  0  0  0  0  0  0  0  0  0  0  0
   35.4370   22.4110   31.8800 C   0  0  0  0  0  0  0  0  0  0  0  0
   34.7060   23.1520   32.1240 H   0  0  0  0  0  0  0  0  0  0  0  0
   35.4280   21.0850   32.1100 C   0  0  0  0  0  3  0  0  0  0  0  0
   36.4820   20.2090   31.7250 C   0  0  0  0  0  3  0  0  0  0  0  0
   37.6660   21.4010   30.9220 S   0  0  0  0  0  0  0  0  0  0  0  0
  1  7  1  0  0  0  0
  1  6  1  0  0  0  0
  2  1  2  0  0  0  0
  3  2  1  0  0  0  0
  3  4  2  0  0  0  0
  4  5  1  0  0  0  0
  5  6  2  0  0  0  0
  5 10  1  0  0  0  0
  9  8  1  0  0  0  0
  9 15  1  0  0  0  0
 10  9  2  0  0  0  0
 11 10  1  0  0  0  0
 11 12  2  0  0  0  0
 12 13  1  0  0  0  0
 13 15  2  0  0  0  0
 13 14  1  0  0  0  0
 15 18  1  0  0  0  0
 16 11  1  0  0  0  0
 17 12  1  0  0  0  0
 18 20  1  0  0  0  0
 18 19  1  0  0  0  0
 21 18  1  0  0  0  0
 22 23  1  0  0  0  0
 22  2  1  0  0  0  0
 24 22  1  0  0  0  0
 25 22  1  0  0  0  0
 26 29  1  0  0  0  0
 26  3  1  0  0  0  0
 27 26  1  0  0  0  0
 28 26  1  0  0  0  0
 29 30  2  0  0  0  0
 30 32  1  0  0  0  0
 30 31  1  0  0  0  0
 33 32  2  0  0  0  0
 34 29  1  0  0  0  0
 34 33  1  0  0  0  0
M  END
>  <minimizedAffinity>
-6.00447559

$$$$

 OpenBabel03272500233D

 34 36  0  0  0  0  0  0  0  0999 V2000
   38.3100   25.3480   36.3060 C   0  0  0  0  0  0  0  0  0  0  0  0
   38.6020   24.1630   35.5650 C   0  0  0  0  0  0  0  0  0  0  0  0
   38.3410   24.1420   34.1970 C   0  0  0  0  0  0  0  0  0  0  0  0
   37.8110   25.2690   33.6270 N   0  0  0  0  0  0  0  0  0  0  0  0
   37.5480   26.3520   34.3190 C   0  0  0  0  0  0  0  0  0  0  0  0
   37.7840   26.4180   35.6460 N   0  0  0  0  0  0  0  0  0  0  0  0
   38.5200   25.3430   37.3560 H   0  0  0  0  0  0  0  0  0  0  0  0
   38.3900   26.7300   31.4370 Cl  0  0  0  0  0  0  0  0  0  0  0  0
   37.2970   27.8020   32.3160 C   0  0  0  0  0  0  0  0  0  0  0  0
   36.9730   27.5380   33.6400 C   0  0  0  0  0  0  0  0  0  0  0  0
   36.1160   28.3520   34.3750 C   0  0  0  0  0  0  0  0  0  0  0  0
   35.5980   29.4580   33.6990 C   0  0  0  0  0  0  0  0  0  0  0  0
   35.8930   29.7470   32.4080 C   0  0  0  0  0  0  0  0  0  0  0  0
   35.1810   31.1600   31.6720 Cl  0  0  0  0  0  0  0  0  0  0  0  0
   36.7560   28.9070   31.7010 C   0  0  0  0  0  0  0  0  0  0  0  0
   35.8630   28.1470   35.4080 H   0  0  0  0  0  0  0  0  0  0  0  0
   34.9250   30.1020   34.2670 H   0  0  0  0  0  0  0  0  0  0  0  0
   37.0900   29.2010   30.2970 C   0  0  0  0  0  0  0  0  0  0  0  0
   38.4660   29.3710   30.1390 F   0  0  0  0  0  0  0  0  0  0  0  0
   36.4270   30.2950   29.8210 F   0  0  0  0  0  0  0  0  0  0  0  0
   36.7410   28.1410   29.4920 F   0  0  0  0  0  0  0  0  0  0  0  0
   39.1790   23.0130   36.3160 C   0  0  0  0  0  0  0  0  0  0  0  0
   38.4740   21.8510   36.0590 F   0  0  0  0  0  0  0  0  0  0  0  0
   40.4730   22.8180   35.8620 F   0  0  0  0  0  0  0  0  0  0  0  0
   39.2350   23.2150   37.6730 F   0  0  0  0  0  0  0  0  0  0  0  0
   38.6400   22.9250   33.4550 C   0  0  0  0  0  0  0  0  0  0  0  0
   39.2190   22.1780   34.0340 H   0  0  0  0  0  0  0  0  0  0  0  0
   39.3110   23.2070   32.5930 H   0  0  0  0  0  0  0  0  0  0  0  0
   37.4170   22.2550   32.9580 C   0  0  0  0  0  0  0  0  0  0  0  0
   36.5350   21.3150   33.5990 C   0  0  0  0  0  0  0  0  0  0  0  0
   36.8150   21.0730   34.6020 H   0  0  0  0  0  0  0  0  0  0  0  0
   35.4950   20.8740   32.8670 C   0  0  0  0  0  3  0  0  0  0  0  0
   35.2420   21.2860   31.5280 C   0  0  0  0  0  3  0  0  0  0  0  0
   36.6560   22.4620   31.2380 S   0  0  0  0  0  0  0  0  0  0  0  0
  1  7  1  0  0  0  0
  2  1  2  0  0  0  0
  2 22  1  0  0  0  0
  3  2  1  0  0  0  0
  4  3  2  0  0  0  0
  4  5  1  0  0  0  0
  5  6  2  0  0  0  0
  6  1  1  0  0  0  0
  8  9  1  0  0  0  0
  9 10  1  0  0  0  0
 10  5  1  0  0  0  0
 10 11  2  0  0  0  0
 11 16  1  0  0  0  0
 12 17  1  0  0  0  0
 12 11  1  0  0  0  0
 13 12  2  0  0  0  0
 14 13  1  0  0  0  0
 15  9  2  0  0  0  0
 15 13  1  0  0  0  0
 18 15  1  0  0  0  0
 19 18  1  0  0  0  0
 20 18  1  0  0  0  0
 21 18  1  0  0  0  0
 22 25  1  0  0  0  0
 23 22  1  0  0  0  0
 24 22  1  0  0  0  0
 26 27  1  0  0  0  0
 26  3  1  0  0  0  0
 28 26  1  0  0  0  0
 29 26  1  0  0  0  0
 29 30  2  0  0  0  0
 30 31  1  0  0  0  0
 32 30  1  0  0  0  0
 33 32  2  0  0  0  0
 34 33  1  0  0  0  0
 34 29  1  0  0  0  0
M  END
>  <minimizedAffinity>
-5.97985411

$$$$
