
 OpenBabel03272508483D

 37 41  0  0  0  0  0  0  0  0999 V2000
   35.5140   29.5310   49.6080 C   0  0  0  0  0  0  0  0  0  0  0  0
   36.5700   29.0750   50.3880 C   0  0  0  0  0  0  0  0  0  0  0  0
   37.6890   29.6180   49.7640 C   0  0  0  0  0  0  0  0  0  0  0  0
   37.2870   30.3500   48.6780 C   0  0  0  0  0  0  0  0  0  0  0  0
   35.9700   30.2750   48.6150 O   0  0  0  0  0  0  0  0  0  0  0  0
   36.5840   28.4520   51.2700 H   0  0  0  0  0  0  0  0  0  0  0  0
   38.7280   29.5140   50.0440 H   0  0  0  0  0  0  0  0  0  0  0  0
   38.6340   32.3210   48.1180 C   0  0  0  0  0  0  0  0  0  0  0  0
   38.1280   31.0880   47.7430 C   0  0  0  0  0  0  0  0  0  0  0  0
   38.3970   30.5280   46.4970 C   0  0  0  0  0  0  0  0  0  0  0  0
   39.1960   31.2220   45.5990 C   0  0  0  0  0  0  0  0  0  0  0  0
   39.6390   30.9700   44.3420 N   0  0  0  0  0  0  0  0  0  0  0  0
   40.3770   32.0040   43.9820 N   0  0  0  0  0  0  0  0  0  0  0  0
   40.4270   32.9210   44.9620 C   0  0  0  0  0  0  0  0  0  0  0  0
   39.6720   32.4410   46.0200 C   0  0  0  0  0  0  0  0  0  0  0  0
   39.4440   33.0470   47.2340 C   0  0  0  0  0  0  0  0  0  0  0  0
   38.3940   32.7150   49.1050 H   0  0  0  0  0  0  0  0  0  0  0  0
   38.0130   29.5670   46.1800 H   0  0  0  0  0  0  0  0  0  0  0  0
   39.4180   30.1030   43.7870 H   0  0  0  0  0  0  0  0  0  0  0  0
   40.9690   33.8680   44.9220 H   0  0  0  0  0  0  0  0  0  0  0  0
   39.8470   33.9990   47.4980 H   0  0  0  0  0  0  0  0  0  0  0  0
   34.1120   29.2150   49.8730 C   0  0  0  0  0  0  0  0  0  0  0  0
   33.5420   29.7800   50.8240 O   0  0  0  0  0  0  0  0  0  0  0  0
   31.4280   27.2160   48.4560 C   0  0  0  0  0  0  0  0  0  0  0  0
   32.0560   26.4630   47.4570 C   0  0  0  0  0  0  0  0  0  0  0  0
   33.4000   26.6490   47.2770 C   0  0  0  0  0  0  0  0  0  0  0  0
   34.0630   27.5270   48.0450 N   0  0  0  0  0  0  0  0  0  0  0  0
   33.4300   28.2530   49.0180 C   0  0  0  0  0  0  0  0  0  0  0  0
   32.1160   28.0730   49.1970 N   0  0  0  0  0  0  0  0  0  0  0  0
   30.3660   27.0980   48.6300 H   0  0  0  0  0  0  0  0  0  0  0  0
   31.4490   25.7880   46.8920 H   0  0  0  0  0  0  0  0  0  0  0  0
   34.0980   25.8900   46.2490 C   0  0  0  0  0  0  0  0  0  0  0  0
   34.7040   24.6980   46.2260 C   0  0  0  0  0  0  0  0  0  0  0  0
   34.6860   24.1600   47.1680 H   0  0  0  0  0  0  0  0  0  0  0  0
   35.2910   24.2080   45.1160 C   0  0  0  0  0  0  0  0  0  0  0  0
   35.2040   25.0830   43.9710 C   0  0  0  0  0  0  0  0  0  0  0  0
   34.2730   26.5360   44.6240 S   0  0  0  0  0  0  0  0  0  0  0  0
  1 22  1  0  0  0  0
  1  2  2  0  0  0  0
  2  6  1  0  0  0  0
  3  7  1  0  0  0  0
  3  2  1  0  0  0  0
  4  3  2  0  0  0  0
  5  4  1  0  0  0  0
  5  1  1  0  0  0  0
  8 17  1  0  0  0  0
  9  8  1  0  0  0  0
  9  4  1  0  0  0  0
 10  9  2  0  0  0  0
 11 15  2  0  0  0  0
 11 10  1  0  0  0  0
 12 11  1  0  0  0  0
 13 12  1  0  0  0  0
 13 14  2  0  0  0  0
 14 15  1  0  0  0  0
 15 16  1  0  0  0  0
 16 21  1  0  0  0  0
 16  8  2  0  0  0  0
 18 10  1  0  0  0  0
 19 12  1  0  0  0  0
 20 14  1  0  0  0  0
 22 23  2  0  0  0  0
 24 30  1  0  0  0  0
 24 29  1  0  0  0  0
 25 24  2  0  0  0  0
 26 25  1  0  0  0  0
 26 27  2  0  0  0  0
 27 28  1  0  0  0  0
 28 29  2  0  0  0  0
 28 22  1  0  0  0  0
 31 25  1  0  0  0  0
 32 26  1  0  0  0  0
 33 32  2  0  0  0  0
 33 34  1  0  0  0  0
 35 33  1  0  0  0  0
 36 37  1  0  0  0  0
 36 35  2  0  0  0  0
 37 32  1  0  0  0  0
M  END
>  <minimizedAffinity>
-6.52332211

>  <minimizedRMSD>
0.630630434

$$$$
