
 OpenBabel03262520283D

 17 18  0  0  0  0  0  0  0  0999 V2000
   40.7340   23.2080   36.0590 C   0  0  0  0  0  0  0  0  0  0  0  0
   40.2150   22.6790   37.2480 C   0  0  0  0  0  0  0  0  0  0  0  0
   39.0200   23.2010   37.7340 C   0  0  0  0  0  0  0  0  0  0  0  0
   38.4110   24.2050   37.0280 N   0  0  0  0  0  0  0  0  0  0  0  0
   38.9480   24.6780   35.8960 C   0  0  0  0  0  0  0  0  0  0  0  0
   40.0890   24.1950   35.4120 N   0  0  0  0  0  0  0  0  0  0  0  0
   38.5150   22.6510   38.9330 N   0  0  0  0  0  0  0  0  0  0  0  0
   41.6570   22.8550   35.6210 H   0  0  0  0  0  0  0  0  0  0  0  0
   40.7390   21.8920   37.7540 H   0  0  0  0  0  0  0  0  0  0  0  0
   38.0430   23.0710   39.7420 H   0  0  0  0  0  0  0  0  0  0  0  0
   38.6060   21.6240   39.0990 H   0  0  0  0  0  0  0  0  0  0  0  0
   38.2040   25.7910   35.1830 C   0  0  0  0  0  0  0  0  0  0  0  0
   37.8920   27.0180   35.6060 C   0  0  0  0  0  0  0  0  0  0  0  0
   38.2140   27.2940   36.6300 H   0  0  0  0  0  0  0  0  0  0  0  0
   37.2230   27.8080   34.7620 C   0  0  0  0  0  3  0  0  0  0  0  0
   36.9020   27.3390   33.5580 C   0  0  0  0  0  3  0  0  0  0  0  0
   37.5610   25.6890   33.5590 S   0  0  0  0  0  0  0  0  0  0  0  0
  1  2  1  0  0  0  0
  2  3  2  0  0  0  0
  2  9  1  0  0  0  0
  3  7  1  0  0  0  0
  4  3  1  0  0  0  0
  5  4  2  0  0  0  0
  6  5  1  0  0  0  0
  6  1  2  0  0  0  0
  7 11  1  0  0  0  0
  7 10  1  0  0  0  0
  8  1  1  0  0  0  0
 12 13  2  0  0  0  0
 12  5  1  0  0  0  0
 13 14  1  0  0  0  0
 15 13  1  0  0  0  0
 16 17  1  0  0  0  0
 16 15  2  0  0  0  0
 17 12  1  0  0  0  0
M  END
>  <minimizedAffinity>
-4.21987963

$$$$

 OpenBabel03262520283D

 17 18  0  0  0  0  0  0  0  0999 V2000
   37.9690   24.3560   38.3120 C   0  0  0  0  0  0  0  0  0  0  0  0
   38.8120   23.2610   38.5440 C   0  0  0  0  0  0  0  0  0  0  0  0
   39.6930   22.8820   37.5340 C   0  0  0  0  0  0  0  0  0  0  0  0
   39.6910   23.5970   36.3650 N   0  0  0  0  0  0  0  0  0  0  0  0
   38.8650   24.6360   36.1910 C   0  0  0  0  0  0  0  0  0  0  0  0
   38.0150   25.0170   37.1410 N   0  0  0  0  0  0  0  0  0  0  0  0
   40.5330   21.7770   37.7920 N   0  0  0  0  0  0  0  0  0  0  0  0
   37.2590   24.7080   39.0470 H   0  0  0  0  0  0  0  0  0  0  0  0
   38.7660   22.7430   39.4810 H   0  0  0  0  0  0  0  0  0  0  0  0
   40.8600   21.0040   37.2010 H   0  0  0  0  0  0  0  0  0  0  0  0
   40.9360   21.6570   38.7470 H   0  0  0  0  0  0  0  0  0  0  0  0
   38.9330   25.3670   34.8640 C   0  0  0  0  0  0  0  0  0  0  0  0
   39.5180   26.5260   34.5560 C   0  0  0  0  0  0  0  0  0  0  0  0
   40.0420   27.0580   35.3750 H   0  0  0  0  0  0  0  0  0  0  0  0
   39.4240   26.9460   33.2910 C   0  0  0  0  0  3  0  0  0  0  0  0
   38.7610   26.1990   32.4120 C   0  0  0  0  0  3  0  0  0  0  0  0
   38.2130   24.8060   33.3700 S   0  0  0  0  0  0  0  0  0  0  0  0
  1  2  1  0  0  0  0
  1  8  1  0  0  0  0
  2  9  1  0  0  0  0
  3  7  1  0  0  0  0
  3  2  2  0  0  0  0
  4  3  1  0  0  0  0
  5  4  2  0  0  0  0
  5  6  1  0  0  0  0
  6  1  2  0  0  0  0
  7 11  1  0  0  0  0
 10  7  1  0  0  0  0
 12  5  1  0  0  0  0
 13 12  2  0  0  0  0
 13 14  1  0  0  0  0
 15 13  1  0  0  0  0
 16 15  2  0  0  0  0
 16 17  1  0  0  0  0
 17 12  1  0  0  0  0
M  END
>  <minimizedAffinity>
-4.21338558

$$$$

 OpenBabel03262520283D

 17 18  0  0  0  0  0  0  0  0999 V2000
   37.9520   24.3100   38.3090 C   0  0  0  0  0  0  0  0  0  0  0  0
   38.9200   23.3420   38.6050 C   0  0  0  0  0  0  0  0  0  0  0  0
   39.6290   22.7750   37.5490 C   0  0  0  0  0  0  0  0  0  0  0  0
   39.3450   23.1910   36.2740 N   0  0  0  0  0  0  0  0  0  0  0  0
   38.4090   24.1200   36.0430 C   0  0  0  0  0  0  0  0  0  0  0  0
   37.7190   24.6760   37.0350 N   0  0  0  0  0  0  0  0  0  0  0  0
   40.6010   21.8020   37.8720 N   0  0  0  0  0  0  0  0  0  0  0  0
   37.3610   24.7940   39.0740 H   0  0  0  0  0  0  0  0  0  0  0  0
   39.0970   23.0590   39.6230 H   0  0  0  0  0  0  0  0  0  0  0  0
   40.8820   20.9270   37.4150 H   0  0  0  0  0  0  0  0  0  0  0  0
   41.1830   21.9320   38.7280 H   0  0  0  0  0  0  0  0  0  0  0  0
   38.1620   24.5180   34.6000 C   0  0  0  0  0  0  0  0  0  0  0  0
   38.3030   23.8040   33.4810 C   0  0  0  0  0  0  0  0  0  0  0  0
   38.6500   22.7570   33.5930 H   0  0  0  0  0  0  0  0  0  0  0  0
   38.0120   24.4070   32.3260 C   0  0  0  0  0  3  0  0  0  0  0  0
   37.6040   25.6740   32.3450 C   0  0  0  0  0  3  0  0  0  0  0  0
   37.6100   26.0920   34.0720 S   0  0  0  0  0  0  0  0  0  0  0  0
  1  2  1  0  0  0  0
  1  8  1  0  0  0  0
  2  9  1  0  0  0  0
  3  7  1  0  0  0  0
  3  2  2  0  0  0  0
  4  3  1  0  0  0  0
  5  4  2  0  0  0  0
  5  6  1  0  0  0  0
  6  1  2  0  0  0  0
  7 11  1  0  0  0  0
 10  7  1  0  0  0  0
 12  5  1  0  0  0  0
 13 14  1  0  0  0  0
 13 12  2  0  0  0  0
 15 16  2  0  0  0  0
 15 13  1  0  0  0  0
 16 17  1  0  0  0  0
 17 12  1  0  0  0  0
M  END
>  <minimizedAffinity>
-4.10738373

$$$$

 OpenBabel03262520283D

 17 18  0  0  0  0  0  0  0  0999 V2000
   37.9280   24.3200   38.1900 C   0  0  0  0  0  0  0  0  0  0  0  0
   38.7880   23.2540   38.4830 C   0  0  0  0  0  0  0  0  0  0  0  0
   39.7190   22.8750   37.5190 C   0  0  0  0  0  0  0  0  0  0  0  0
   39.7470   23.5620   36.3340 N   0  0  0  0  0  0  0  0  0  0  0  0
   38.9030   24.5750   36.1010 C   0  0  0  0  0  0  0  0  0  0  0  0
   38.0050   24.9550   37.0060 N   0  0  0  0  0  0  0  0  0  0  0  0
   40.5760   21.7990   37.8380 N   0  0  0  0  0  0  0  0  0  0  0  0
   37.1800   24.6710   38.8870 H   0  0  0  0  0  0  0  0  0  0  0  0
   38.7170   22.7570   39.4300 H   0  0  0  0  0  0  0  0  0  0  0  0
   40.9460   21.0210   37.2800 H   0  0  0  0  0  0  0  0  0  0  0  0
   40.9420   21.7120   38.8110 H   0  0  0  0  0  0  0  0  0  0  0  0
   39.0070   25.2760   34.7600 C   0  0  0  0  0  0  0  0  0  0  0  0
   38.7210   24.8260   33.5370 C   0  0  0  0  0  0  0  0  0  0  0  0
   38.3480   23.7860   33.4580 H   0  0  0  0  0  0  0  0  0  0  0  0
   38.9070   25.6660   32.5140 C   0  0  0  0  0  3  0  0  0  0  0  0
   39.3630   26.8910   32.7610 C   0  0  0  0  0  3  0  0  0  0  0  0
   39.5590   26.9210   34.5270 S   0  0  0  0  0  0  0  0  0  0  0  0
  1  2  1  0  0  0  0
  1  8  1  0  0  0  0
  2  9  1  0  0  0  0
  3  7  1  0  0  0  0
  3  2  2  0  0  0  0
  4  3  1  0  0  0  0
  5  4  2  0  0  0  0
  5  6  1  0  0  0  0
  6  1  2  0  0  0  0
  7 11  1  0  0  0  0
 10  7  1  0  0  0  0
 12  5  1  0  0  0  0
 13 12  2  0  0  0  0
 14 13  1  0  0  0  0
 15 16  2  0  0  0  0
 15 13  1  0  0  0  0
 16 17  1  0  0  0  0
 17 12  1  0  0  0  0
M  END
>  <minimizedAffinity>
-4.06195354

$$$$

 OpenBabel03262520283D

 17 18  0  0  0  0  0  0  0  0999 V2000
   41.6080   23.1430   34.6420 C   0  0  0  0  0  0  0  0  0  0  0  0
   41.4940   22.3380   35.7830 C   0  0  0  0  0  0  0  0  0  0  0  0
   40.4980   22.6430   36.7070 C   0  0  0  0  0  0  0  0  0  0  0  0
   39.6810   23.7140   36.4560 N   0  0  0  0  0  0  0  0  0  0  0  0
   39.8310   24.4540   35.3500 C   0  0  0  0  0  0  0  0  0  0  0  0
   40.7740   24.1820   34.4530 N   0  0  0  0  0  0  0  0  0  0  0  0
   40.4020   21.8170   37.8490 N   0  0  0  0  0  0  0  0  0  0  0  0
   42.3560   22.9690   33.8820 H   0  0  0  0  0  0  0  0  0  0  0  0
   42.1650   21.5130   35.9220 H   0  0  0  0  0  0  0  0  0  0  0  0
   40.1960   22.0190   38.8340 H   0  0  0  0  0  0  0  0  0  0  0  0
   40.5600   20.7900   37.7480 H   0  0  0  0  0  0  0  0  0  0  0  0
   38.8800   25.6200   35.1570 C   0  0  0  0  0  0  0  0  0  0  0  0
   38.7680   26.7540   35.8510 C   0  0  0  0  0  0  0  0  0  0  0  0
   39.4630   26.8940   36.7030 H   0  0  0  0  0  0  0  0  0  0  0  0
   37.8320   27.6240   35.4600 C   0  0  0  0  0  3  0  0  0  0  0  0
   37.0670   27.3210   34.4140 C   0  0  0  0  0  3  0  0  0  0  0  0
   37.6590   25.7230   33.9080 S   0  0  0  0  0  0  0  0  0  0  0  0
  1  2  1  0  0  0  0
  2  9  1  0  0  0  0
  2  3  2  0  0  0  0
  3  7  1  0  0  0  0
  4  3  1  0  0  0  0
  5  4  2  0  0  0  0
  6  1  2  0  0  0  0
  6  5  1  0  0  0  0
  7 10  1  0  0  0  0
  8  1  1  0  0  0  0
 11  7  1  0  0  0  0
 12  5  1  0  0  0  0
 12 13  2  0  0  0  0
 13 14  1  0  0  0  0
 15 13  1  0  0  0  0
 16 15  2  0  0  0  0
 17 16  1  0  0  0  0
 17 12  1  0  0  0  0
M  END
>  <minimizedAffinity>
-3.81545496

$$$$

 OpenBabel03262520283D

 17 18  0  0  0  0  0  0  0  0999 V2000
   35.5350   29.8550   32.3330 C   0  0  0  0  0  0  0  0  0  0  0  0
   35.7850   29.5150   30.9980 C   0  0  0  0  0  0  0  0  0  0  0  0
   36.5940   28.4110   30.7400 C   0  0  0  0  0  0  0  0  0  0  0  0
   37.1060   27.7140   31.8030 N   0  0  0  0  0  0  0  0  0  0  0  0
   36.8380   28.0800   33.0630 C   0  0  0  0  0  0  0  0  0  0  0  0
   36.0680   29.1300   33.3350 N   0  0  0  0  0  0  0  0  0  0  0  0
   36.8310   28.0870   29.3860 N   0  0  0  0  0  0  0  0  0  0  0  0
   34.9180   30.6980   32.6120 H   0  0  0  0  0  0  0  0  0  0  0  0
   35.3550   30.1000   30.2090 H   0  0  0  0  0  0  0  0  0  0  0  0
   37.6640   27.7460   28.8910 H   0  0  0  0  0  0  0  0  0  0  0  0
   36.0550   28.1900   28.6950 H   0  0  0  0  0  0  0  0  0  0  0  0
   37.4480   27.2500   34.1750 C   0  0  0  0  0  0  0  0  0  0  0  0
   37.8220   27.6110   35.4050 C   0  0  0  0  0  0  0  0  0  0  0  0
   37.6750   28.6730   35.6830 H   0  0  0  0  0  0  0  0  0  0  0  0
   38.3380   26.6650   36.1940 C   0  0  0  0  0  3  0  0  0  0  0  0
   38.4550   25.4260   35.7220 C   0  0  0  0  0  3  0  0  0  0  0  0
   37.8120   25.5410   34.0690 S   0  0  0  0  0  0  0  0  0  0  0  0
  1  8  1  0  0  0  0
  1  6  1  0  0  0  0
  2  1  2  0  0  0  0
  3  2  1  0  0  0  0
  3  4  2  0  0  0  0
  4  5  1  0  0  0  0
  5  6  2  0  0  0  0
  5 12  1  0  0  0  0
  7  3  1  0  0  0  0
  9  2  1  0  0  0  0
 10  7  1  0  0  0  0
 11  7  1  0  0  0  0
 12 13  2  0  0  0  0
 13 14  1  0  0  0  0
 13 15  1  0  0  0  0
 16 15  2  0  0  0  0
 17 12  1  0  0  0  0
 17 16  1  0  0  0  0
M  END
>  <minimizedAffinity>
-3.78921604

$$$$

 OpenBabel03262520283D

 17 18  0  0  0  0  0  0  0  0999 V2000
   37.2000   27.5310   34.6010 C   0  0  0  0  0  0  0  0  0  0  0  0
   36.9810   27.0670   33.2980 C   0  0  0  0  0  0  0  0  0  0  0  0
   37.2780   25.7360   33.0140 C   0  0  0  0  0  0  0  0  0  0  0  0
   37.7700   24.9480   34.0220 N   0  0  0  0  0  0  0  0  0  0  0  0
   37.9620   25.4400   35.2530 C   0  0  0  0  0  0  0  0  0  0  0  0
   37.6850   26.7070   35.5480 N   0  0  0  0  0  0  0  0  0  0  0  0
   37.0490   25.2910   31.6940 N   0  0  0  0  0  0  0  0  0  0  0  0
   36.9940   28.5500   34.8970 H   0  0  0  0  0  0  0  0  0  0  0  0
   36.5940   27.7330   32.5530 H   0  0  0  0  0  0  0  0  0  0  0  0
   37.5670   24.6520   31.0790 H   0  0  0  0  0  0  0  0  0  0  0  0
   36.2090   25.6370   31.1800 H   0  0  0  0  0  0  0  0  0  0  0  0
   38.5100   24.4940   36.3040 C   0  0  0  0  0  0  0  0  0  0  0  0
   38.0830   24.2580   37.5470 C   0  0  0  0  0  0  0  0  0  0  0  0
   37.1950   24.8250   37.8900 H   0  0  0  0  0  0  0  0  0  0  0  0
   38.7600   23.3610   38.2690 C   0  0  0  0  0  3  0  0  0  0  0  0
   39.8120   22.7550   37.7230 C   0  0  0  0  0  3  0  0  0  0  0  0
   39.9000   23.4520   36.0910 S   0  0  0  0  0  0  0  0  0  0  0  0
  1  8  1  0  0  0  0
  1  6  1  0  0  0  0
  2  1  2  0  0  0  0
  3  2  1  0  0  0  0
  3  4  2  0  0  0  0
  4  5  1  0  0  0  0
  5  6  2  0  0  0  0
  5 12  1  0  0  0  0
  7  3  1  0  0  0  0
  9  2  1  0  0  0  0
 10  7  1  0  0  0  0
 11  7  1  0  0  0  0
 12 13  2  0  0  0  0
 13 14  1  0  0  0  0
 13 15  1  0  0  0  0
 16 15  2  0  0  0  0
 17 12  1  0  0  0  0
 17 16  1  0  0  0  0
M  END
>  <minimizedAffinity>
-3.7846961

$$$$

 OpenBabel03262520283D

 17 18  0  0  0  0  0  0  0  0999 V2000
   39.4380   24.2210   34.7160 C   0  0  0  0  0  0  0  0  0  0  0  0
   39.7380   23.8900   36.0430 C   0  0  0  0  0  0  0  0  0  0  0  0
   39.1310   22.7650   36.5950 C   0  0  0  0  0  0  0  0  0  0  0  0
   38.2710   22.0390   35.8140 N   0  0  0  0  0  0  0  0  0  0  0  0
   38.0160   22.3970   34.5490 C   0  0  0  0  0  0  0  0  0  0  0  0
   38.5830   23.4670   34.0000 N   0  0  0  0  0  0  0  0  0  0  0  0
   39.4500   22.4510   37.9350 N   0  0  0  0  0  0  0  0  0  0  0  0
   39.8690   25.0790   34.2200 H   0  0  0  0  0  0  0  0  0  0  0  0
   40.4200   24.4990   36.6030 H   0  0  0  0  0  0  0  0  0  0  0  0
   38.8870   22.0900   38.7130 H   0  0  0  0  0  0  0  0  0  0  0  0
   40.4290   22.5880   38.2690 H   0  0  0  0  0  0  0  0  0  0  0  0
   37.0500   21.5320   33.7610 C   0  0  0  0  0  0  0  0  0  0  0  0
   36.0180   20.8000   34.1840 C   0  0  0  0  0  0  0  0  0  0  0  0
   35.8110   20.8060   35.2730 H   0  0  0  0  0  0  0  0  0  0  0  0
   35.3230   20.1260   33.2640 C   0  0  0  0  0  3  0  0  0  0  0  0
   35.6900   20.2140   31.9880 C   0  0  0  0  0  3  0  0  0  0  0  0
   37.0940   21.3030   32.0260 S   0  0  0  0  0  0  0  0  0  0  0  0
  1  2  1  0  0  0  0
  2  3  2  0  0  0  0
  2  9  1  0  0  0  0
  3  7  1  0  0  0  0
  4  3  1  0  0  0  0
  5  4  2  0  0  0  0
  6  5  1  0  0  0  0
  6  1  2  0  0  0  0
  7 11  1  0  0  0  0
  7 10  1  0  0  0  0
  8  1  1  0  0  0  0
 12 13  2  0  0  0  0
 12  5  1  0  0  0  0
 13 14  1  0  0  0  0
 15 13  1  0  0  0  0
 16 17  1  0  0  0  0
 16 15  2  0  0  0  0
 17 12  1  0  0  0  0
M  END
>  <minimizedAffinity>
-3.74113274

$$$$

 OpenBabel03262520283D

 17 18  0  0  0  0  0  0  0  0999 V2000
   37.5270   24.6280   32.8910 C   0  0  0  0  0  0  0  0  0  0  0  0
   36.8760   25.5450   32.0550 C   0  0  0  0  0  0  0  0  0  0  0  0
   35.9360   25.0580   31.1500 C   0  0  0  0  0  0  0  0  0  0  0  0
   35.6950   23.7100   31.1210 N   0  0  0  0  0  0  0  0  0  0  0  0
   36.3440   22.8740   31.9410 C   0  0  0  0  0  0  0  0  0  0  0  0
   37.2460   23.3140   32.8140 N   0  0  0  0  0  0  0  0  0  0  0  0
   35.2920   26.0010   30.3180 N   0  0  0  0  0  0  0  0  0  0  0  0
   38.2680   24.9300   33.6170 H   0  0  0  0  0  0  0  0  0  0  0  0
   37.1090   26.5890   32.1260 H   0  0  0  0  0  0  0  0  0  0  0  0
   35.0030   25.9720   29.3340 H   0  0  0  0  0  0  0  0  0  0  0  0
   35.0320   26.9320   30.7130 H   0  0  0  0  0  0  0  0  0  0  0  0
   36.0130   21.3970   31.8370 C   0  0  0  0  0  0  0  0  0  0  0  0
   34.9730   20.7190   32.3270 C   0  0  0  0  0  0  0  0  0  0  0  0
   34.2200   21.2970   32.9000 H   0  0  0  0  0  0  0  0  0  0  0  0
   34.9250   19.4060   32.0840 C   0  0  0  0  0  3  0  0  0  0  0  0
   35.9040   18.8460   31.3780 C   0  0  0  0  0  3  0  0  0  0  0  0
   36.9860   20.2050   31.0040 S   0  0  0  0  0  0  0  0  0  0  0  0
  1  8  1  0  0  0  0
  2  9  1  0  0  0  0
  2  1  2  0  0  0  0
  3  2  1  0  0  0  0
  4  3  2  0  0  0  0
  4  5  1  0  0  0  0
  5  6  2  0  0  0  0
  6  1  1  0  0  0  0
  7 11  1  0  0  0  0
  7  3  1  0  0  0  0
 10  7  1  0  0  0  0
 12  5  1  0  0  0  0
 12 13  2  0  0  0  0
 13 14  1  0  0  0  0
 15 13  1  0  0  0  0
 16 15  2  0  0  0  0
 17 16  1  0  0  0  0
 17 12  1  0  0  0  0
M  END
>  <minimizedAffinity>
-3.70874739

$$$$
