
 OpenBabel03272508273D

 35 38  0  0  1  0  0  0  0  0999 V2000
   33.8810   28.9500   47.2750 C   0  0  2  0  0  0  0  0  0  0  0  0
   34.6100   28.1950   48.3750 C   0  0  2  0  0  0  0  0  0  0  0  0
   33.6780   28.0100   49.3620 O   0  0  0  0  0  0  0  0  0  0  0  0
   32.4230   28.0690   48.8500 C   0  0  0  0  0  0  0  0  0  0  0  0
   32.5290   28.2550   47.3660 C   0  0  1  0  0  0  0  0  0  0  0  0
   33.7380   30.0120   47.4880 H   0  0  0  0  0  0  0  0  0  0  0  0
   34.9340   27.2220   47.9600 H   0  0  0  0  0  0  0  0  0  0  0  0
   31.9350   28.9910   49.2770 H   0  0  0  0  0  0  0  0  0  0  0  0
   31.7630   27.2220   49.1270 H   0  0  0  0  0  0  0  0  0  0  0  0
   32.5740   27.2720   46.8190 H   0  0  0  0  0  0  0  0  0  0  0  0
   35.6780   30.4570   49.0120 C   0  0  1  0  0  0  0  0  0  0  0  0
   35.7570   29.0200   48.8500 C   0  0  1  0  0  0  0  0  0  0  0  0
   35.8320   29.5550   50.2440 C   0  0  0  0  0  0  0  0  0  0  0  0
   34.7520   31.0660   49.1230 H   0  0  0  0  0  0  0  0  0  0  0  0
   36.7520   28.6490   48.4530 H   0  0  0  0  0  0  0  0  0  0  0  0
   36.7770   29.5730   50.7850 H   0  0  0  0  0  0  0  0  0  0  0  0
   34.9440   29.3570   50.8770 H   0  0  0  0  0  0  0  0  0  0  0  0
   36.8750   31.3440   48.7940 C   0  0  0  0  0  0  0  0  0  0  0  0
   37.0920   32.3900   49.6920 C   0  0  0  0  0  0  0  0  0  0  0  0
   38.1810   33.1900   49.4450 C   0  0  0  0  0  0  0  0  0  0  0  0
   38.9950   32.9530   48.3650 N   0  0  0  0  0  0  0  0  0  0  0  0
   38.7520   31.9230   47.5130 C   0  0  0  0  0  0  0  0  0  0  0  0
   37.6860   31.1100   47.7220 N   0  0  0  0  0  0  0  0  0  0  0  0
   36.4580   32.5880   50.5400 H   0  0  0  0  0  0  0  0  0  0  0  0
   38.4320   34.0360   50.0990 H   0  0  0  0  0  0  0  0  0  0  0  0
   39.3810   31.7050   46.6450 H   0  0  0  0  0  0  0  0  0  0  0  0
   34.4480   28.7740   46.0260 O   0  0  0  0  0  0  0  0  0  0  0  0
   35.0200   27.9400   46.0380 H   0  0  0  0  0  0  0  0  0  0  0  0
   31.5180   29.0320   46.8330 O   0  0  0  0  0  0  0  0  0  0  0  0
   30.8260   28.1710   45.6190 C   0  0  0  0  0  0  0  0  0  0  0  0
   31.0340   29.3730   44.6890 C   0  0  0  0  0  0  0  0  0  0  0  0
   31.4180   30.4170   44.6050 H   0  0  0  0  0  0  0  0  0  0  0  0
   30.6310   29.2900   43.4000 C   0  0  0  0  0  3  0  0  0  0  0  0
   30.0160   28.0630   42.9500 C   0  0  0  0  0  3  0  0  0  0  0  0
   30.0570   27.0110   44.5420 S   0  0  0  0  0  0  0  0  0  0  0  0
  1  5  1  0  0  0  0
  1  6  1  1  0  0  0
  1  2  1  0  0  0  0
  2  7  1  6  0  0  0
  2 12  1  0  0  0  0
  2  3  1  0  0  0  0
  4  9  1  0  0  0  0
  4  8  1  0  0  0  0
  4  3  1  0  0  0  0
  5 10  1  6  0  0  0
  5  4  1  0  0  0  0
 11 14  1  6  0  0  0
 11 13  1  0  0  0  0
 12 15  1  6  0  0  0
 12 11  1  0  0  0  0
 12 13  1  0  0  0  0
 13 16  1  0  0  0  0
 13 17  1  0  0  0  0
 18 11  1  0  0  0  0
 18 19  1  0  0  0  0
 19 24  1  0  0  0  0
 20 19  2  0  0  0  0
 20 25  1  0  0  0  0
 21 20  1  0  0  0  0
 22 23  1  0  0  0  0
 22 21  2  0  0  0  0
 23 18  2  0  0  0  0
 26 22  1  0  0  0  0
 27 28  1  0  0  0  0
 27  1  1  0  0  0  0
 29  5  1  0  0  0  0
 30 29  1  0  0  0  0
 31 30  2  0  0  0  0
 32 31  1  0  0  0  0
 33 31  1  0  0  0  0
 34 33  2  0  0  0  0
 34 35  1  0  0  0  0
 35 30  1  0  0  0  0
M  END
>  <minimizedAffinity>
-4.66354752

>  <minimizedRMSD>
0.323762149

$$$$
