
 OpenBabel03272509463D

 22 23  0  0  0  0  0  0  0  0999 V2000
   33.7600   28.7240   49.5080 C   0  0  0  0  0  0  0  0  0  0  0  0
   33.3360   28.5000   50.5050 H   0  0  0  0  0  0  0  0  0  0  0  0
   33.7520   29.8270   49.3930 H   0  0  0  0  0  0  0  0  0  0  0  0
   32.9990   28.0350   48.4000 C   0  0  0  0  0  0  0  0  0  0  0  0
   31.9290   28.3600   48.5460 H   0  0  0  0  0  0  0  0  0  0  0  0
   33.0130   26.9510   48.4740 H   0  0  0  0  0  0  0  0  0  0  0  0
   33.5230   28.5280   47.0990 C   0  0  0  0  0  0  0  0  0  0  0  0
   33.9320   29.7420   46.6540 C   0  0  0  0  0  0  0  0  0  0  0  0
   33.8670   30.5380   47.4070 H   0  0  0  0  0  0  0  0  0  0  0  0
   34.3720   29.9070   45.3900 C   0  0  0  0  0  3  0  0  0  0  0  0
   34.3800   28.7890   44.5920 C   0  0  0  0  0  3  0  0  0  0  0  0
   33.7150   27.4380   45.7440 S   0  0  0  0  0  0  0  0  0  0  0  0
   35.0930   28.2190   49.5530 O   0  0  0  0  0  0  0  0  0  0  0  0
   37.4370   30.3140   51.3720 C   0  0  0  0  0  0  0  0  0  0  0  0
   38.1460   30.8730   50.3130 C   0  0  0  0  0  0  0  0  0  0  0  0
   37.7900   30.5070   49.0200 C   0  0  0  0  0  0  0  0  0  0  0  0
   36.7550   29.6130   48.8890 N   0  0  0  0  0  0  0  0  0  0  0  0
   36.0920   29.0950   49.9430 C   0  0  0  0  0  0  0  0  0  0  0  0
   36.4490   29.4590   51.1820 N   0  0  0  0  0  0  0  0  0  0  0  0
   37.7300   30.6150   52.3830 H   0  0  0  0  0  0  0  0  0  0  0  0
   38.9600   31.5760   50.4080 H   0  0  0  0  0  0  0  0  0  0  0  0
   38.2960   30.8980   48.1500 H   0  0  0  0  0  0  0  0  0  0  0  0
  1 13  1  0  0  0  0
  1  2  1  0  0  0  0
  3  1  1  0  0  0  0
  4  6  1  0  0  0  0
  4  5  1  0  0  0  0
  4  1  1  0  0  0  0
  7  4  1  0  0  0  0
  8  7  2  0  0  0  0
  8  9  1  0  0  0  0
 10  8  1  0  0  0  0
 11 10  2  0  0  0  0
 11 12  1  0  0  0  0
 12  7  1  0  0  0  0
 13 18  1  0  0  0  0
 14 20  1  0  0  0  0
 15 21  1  0  0  0  0
 15 14  2  0  0  0  0
 16 15  1  0  0  0  0
 17 16  2  0  0  0  0
 17 18  1  0  0  0  0
 18 19  2  0  0  0  0
 19 14  1  0  0  0  0
 22 16  1  0  0  0  0
M  END
>  <minimizedAffinity>
-3.88540888

>  <minimizedRMSD>
1.45838904

$$$$
