
 OpenBabel03272508183D

 22 24  0  0  0  0  0  0  0  0999 V2000
   39.2640   23.6870   36.5820 C   0  0  0  0  0  0  0  0  0  0  0  0
   39.4870   24.6070   35.5780 C   0  0  0  0  0  0  0  0  0  0  0  0
   40.7240   24.4440   34.9280 C   0  0  0  0  0  0  0  0  0  0  0  0
   41.5900   23.4710   35.2740 N   0  0  0  0  0  0  0  0  0  0  0  0
   41.3270   22.5920   36.2660 C   0  0  0  0  0  0  0  0  0  0  0  0
   40.1560   22.7180   36.9100 N   0  0  0  0  0  0  0  0  0  0  0  0
   41.0910   25.0540   34.1190 H   0  0  0  0  0  0  0  0  0  0  0  0
   41.9350   21.7800   36.6310 H   0  0  0  0  0  0  0  0  0  0  0  0
   37.9090   23.6910   37.2570 C   0  0  0  0  0  0  0  0  0  0  0  0
   37.6750   23.0110   38.5070 C   0  0  0  0  0  0  0  0  0  0  0  0
   37.9860   24.4800   38.5860 C   0  0  0  0  0  0  0  0  0  0  0  0
   37.0750   24.1000   36.6410 H   0  0  0  0  0  0  0  0  0  0  0  0
   36.6740   22.6760   38.8140 H   0  0  0  0  0  0  0  0  0  0  0  0
   38.4830   22.2980   38.8370 H   0  0  0  0  0  0  0  0  0  0  0  0
   37.1630   25.1260   38.8800 H   0  0  0  0  0  0  0  0  0  0  0  0
   38.9850   24.7280   38.9460 H   0  0  0  0  0  0  0  0  0  0  0  0
   38.6630   25.6710   35.1840 C   0  0  0  0  0  0  0  0  0  0  0  0
   38.5860   26.8880   35.8020 C   0  0  0  0  0  0  0  0  0  0  0  0
   39.1650   27.1830   36.6960 H   0  0  0  0  0  0  0  0  0  0  0  0
   37.7860   27.8600   35.3750 C   0  0  0  0  0  3  0  0  0  0  0  0
   37.0250   27.5890   34.2700 C   0  0  0  0  0  3  0  0  0  0  0  0
   37.5140   25.8910   33.8850 S   0  0  0  0  0  0  0  0  0  0  0  0
  1  6  1  0  0  0  0
  1  9  1  0  0  0  0
  2  1  2  0  0  0  0
  3  4  2  0  0  0  0
  3  2  1  0  0  0  0
  4  5  1  0  0  0  0
  5  8  1  0  0  0  0
  5  6  2  0  0  0  0
  7  3  1  0  0  0  0
  9 10  1  0  0  0  0
  9 11  1  0  0  0  0
 10 11  1  0  0  0  0
 10 13  1  0  0  0  0
 10 14  1  0  0  0  0
 11 15  1  0  0  0  0
 11 16  1  0  0  0  0
 12  9  1  0  0  0  0
 17  2  1  0  0  0  0
 17 18  2  0  0  0  0
 18 19  1  0  0  0  0
 20 18  1  0  0  0  0
 21 20  2  0  0  0  0
 22 21  1  0  0  0  0
 22 17  1  0  0  0  0
M  END
>  <minimizedAffinity>
-4.17155266

$$$$

 OpenBabel03272508183D

 22 24  0  0  0  0  0  0  0  0999 V2000
   36.7400   27.9740   33.4470 C   0  0  0  0  0  0  0  0  0  0  0  0
   35.9890   29.1180   33.2780 C   0  0  0  0  0  0  0  0  0  0  0  0
   35.9500   29.5750   31.9470 C   0  0  0  0  0  0  0  0  0  0  0  0
   36.5970   28.9350   30.9540 N   0  0  0  0  0  0  0  0  0  0  0  0
   37.3220   27.8150   31.1690 C   0  0  0  0  0  0  0  0  0  0  0  0
   37.3820   27.3500   32.4270 N   0  0  0  0  0  0  0  0  0  0  0  0
   35.4220   30.4480   31.6000 H   0  0  0  0  0  0  0  0  0  0  0  0
   37.8790   27.2210   30.4620 H   0  0  0  0  0  0  0  0  0  0  0  0
   36.7390   27.3240   34.8150 C   0  0  0  0  0  0  0  0  0  0  0  0
   37.5970   26.2090   35.1330 C   0  0  0  0  0  0  0  0  0  0  0  0
   38.0950   27.5750   35.5170 C   0  0  0  0  0  0  0  0  0  0  0  0
   35.9150   27.6480   35.4920 H   0  0  0  0  0  0  0  0  0  0  0  0
   37.3620   25.4980   35.9380 H   0  0  0  0  0  0  0  0  0  0  0  0
   38.0980   25.7090   34.2550 H   0  0  0  0  0  0  0  0  0  0  0  0
   38.1210   27.7900   36.5820 H   0  0  0  0  0  0  0  0  0  0  0  0
   38.8980   27.9720   34.8950 H   0  0  0  0  0  0  0  0  0  0  0  0
   35.3230   29.8670   34.2580 C   0  0  0  0  0  0  0  0  0  0  0  0
   35.9070   30.7700   35.1010 C   0  0  0  0  0  0  0  0  0  0  0  0
   36.9830   31.0200   35.1160 H   0  0  0  0  0  0  0  0  0  0  0  0
   35.2180   31.4540   36.0100 C   0  0  0  0  0  3  0  0  0  0  0  0
   33.8720   31.2130   36.0690 C   0  0  0  0  0  3  0  0  0  0  0  0
   33.6550   29.9720   34.7720 S   0  0  0  0  0  0  0  0  0  0  0  0
  1  9  1  0  0  0  0
  2  1  1  0  0  0  0
  2 17  1  0  0  0  0
  3  2  2  0  0  0  0
  4  5  2  0  0  0  0
  4  3  1  0  0  0  0
  5  6  1  0  0  0  0
  6  1  2  0  0  0  0
  7  3  1  0  0  0  0
  8  5  1  0  0  0  0
  9 10  1  0  0  0  0
  9 12  1  0  0  0  0
  9 11  1  0  0  0  0
 10 11  1  0  0  0  0
 10 13  1  0  0  0  0
 11 15  1  0  0  0  0
 14 10  1  0  0  0  0
 16 11  1  0  0  0  0
 17 22  1  0  0  0  0
 17 18  2  0  0  0  0
 18 19  1  0  0  0  0
 18 20  1  0  0  0  0
 20 21  2  0  0  0  0
 22 21  1  0  0  0  0
M  END
>  <minimizedAffinity>
-3.9925561

$$$$

 OpenBabel03272508183D

 22 24  0  0  0  0  0  0  0  0999 V2000
   39.1530   24.8580   33.9220 C   0  0  0  0  0  0  0  0  0  0  0  0
   38.5810   23.8690   34.6940 C   0  0  0  0  0  0  0  0  0  0  0  0
   37.8250   22.9410   33.9550 C   0  0  0  0  0  0  0  0  0  0  0  0
   37.6900   23.0360   32.6170 N   0  0  0  0  0  0  0  0  0  0  0  0
   38.2700   24.0240   31.9010 C   0  0  0  0  0  0  0  0  0  0  0  0
   38.9990   24.9290   32.5750 N   0  0  0  0  0  0  0  0  0  0  0  0
   37.2980   22.0950   34.3640 H   0  0  0  0  0  0  0  0  0  0  0  0
   38.2350   24.2030   30.8390 H   0  0  0  0  0  0  0  0  0  0  0  0
   40.0940   25.8310   34.6010 C   0  0  0  0  0  0  0  0  0  0  0  0
   40.4440   27.0970   34.0070 C   0  0  0  0  0  0  0  0  0  0  0  0
   39.3230   27.1090   35.0100 C   0  0  0  0  0  0  0  0  0  0  0  0
   40.6270   25.4280   35.4920 H   0  0  0  0  0  0  0  0  0  0  0  0
   41.3720   27.6280   34.2610 H   0  0  0  0  0  0  0  0  0  0  0  0
   40.1620   27.2260   32.9230 H   0  0  0  0  0  0  0  0  0  0  0  0
   39.5400   27.5910   35.9600 H   0  0  0  0  0  0  0  0  0  0  0  0
   38.3230   27.2280   34.5920 H   0  0  0  0  0  0  0  0  0  0  0  0
   38.6350   23.7230   36.0880 C   0  0  0  0  0  0  0  0  0  0  0  0
   37.7670   24.2870   36.9810 C   0  0  0  0  0  0  0  0  0  0  0  0
   36.9130   24.9340   36.7120 H   0  0  0  0  0  0  0  0  0  0  0  0
   37.8700   24.1060   38.2940 C   0  0  0  0  0  3  0  0  0  0  0  0
   38.9000   23.3160   38.7270 C   0  0  0  0  0  3  0  0  0  0  0  0
   39.7000   22.8570   37.1710 S   0  0  0  0  0  0  0  0  0  0  0  0
  1  9  1  0  0  0  0
  1  2  1  0  0  0  0
  2 17  1  0  0  0  0
  3  7  1  0  0  0  0
  3  2  2  0  0  0  0
  4  3  1  0  0  0  0
  5  6  1  0  0  0  0
  5  4  2  0  0  0  0
  6  1  2  0  0  0  0
  8  5  1  0  0  0  0
  9 11  1  0  0  0  0
  9 12  1  0  0  0  0
 10 13  1  0  0  0  0
 10  9  1  0  0  0  0
 10 11  1  0  0  0  0
 11 15  1  0  0  0  0
 14 10  1  0  0  0  0
 16 11  1  0  0  0  0
 17 18  2  0  0  0  0
 17 22  1  0  0  0  0
 18 20  1  0  0  0  0
 19 18  1  0  0  0  0
 20 21  2  0  0  0  0
 22 21  1  0  0  0  0
M  END
>  <minimizedAffinity>
-3.95693684

$$$$

 OpenBabel03272508183D

 22 24  0  0  0  0  0  0  0  0999 V2000
   38.1670   24.8850   35.3290 C   0  0  0  0  0  0  0  0  0  0  0  0
   38.0920   23.9160   34.3510 C   0  0  0  0  0  0  0  0  0  0  0  0
   37.9750   22.6090   34.8590 C   0  0  0  0  0  0  0  0  0  0  0  0
   37.9430   22.3580   36.1830 N   0  0  0  0  0  0  0  0  0  0  0  0
   38.0200   23.3430   37.1050 C   0  0  0  0  0  0  0  0  0  0  0  0
   38.1340   24.6030   36.6560 N   0  0  0  0  0  0  0  0  0  0  0  0
   37.9020   21.7110   34.2670 H   0  0  0  0  0  0  0  0  0  0  0  0
   38.0060   23.2670   38.1810 H   0  0  0  0  0  0  0  0  0  0  0  0
   38.1630   26.3350   34.8910 C   0  0  0  0  0  0  0  0  0  0  0  0
   38.4770   27.4100   35.7990 C   0  0  0  0  0  0  0  0  0  0  0  0
   39.6020   26.9030   34.9390 C   0  0  0  0  0  0  0  0  0  0  0  0
   37.7330   26.5210   33.8800 H   0  0  0  0  0  0  0  0  0  0  0  0
   38.1230   28.4370   35.6370 H   0  0  0  0  0  0  0  0  0  0  0  0
   38.5060   27.1360   36.8930 H   0  0  0  0  0  0  0  0  0  0  0  0
   39.9430   27.5770   34.1570 H   0  0  0  0  0  0  0  0  0  0  0  0
   40.3470   26.2950   35.4530 H   0  0  0  0  0  0  0  0  0  0  0  0
   38.1610   24.0860   32.9600 C   0  0  0  0  0  0  0  0  0  0  0  0
   37.0960   24.0700   32.1040 C   0  0  0  0  0  0  0  0  0  0  0  0
   36.0430   23.9170   32.4040 H   0  0  0  0  0  0  0  0  0  0  0  0
   37.2270   24.2420   30.7920 C   0  0  0  0  0  3  0  0  0  0  0  0
   38.4970   24.4400   30.3220 C   0  0  0  0  0  3  0  0  0  0  0  0
   39.4750   24.3650   31.8420 S   0  0  0  0  0  0  0  0  0  0  0  0
  1  6  1  0  0  0  0
  2  3  1  0  0  0  0
  2  1  2  0  0  0  0
  3  4  2  0  0  0  0
  4  5  1  0  0  0  0
  5  8  1  0  0  0  0
  6  5  2  0  0  0  0
  7  3  1  0  0  0  0
  9 11  1  0  0  0  0
  9  1  1  0  0  0  0
  9 10  1  0  0  0  0
 10 14  1  0  0  0  0
 11 16  1  0  0  0  0
 11 10  1  0  0  0  0
 12  9  1  0  0  0  0
 13 10  1  0  0  0  0
 15 11  1  0  0  0  0
 17  2  1  0  0  0  0
 18 19  1  0  0  0  0
 18 17  2  0  0  0  0
 20 18  1  0  0  0  0
 21 20  2  0  0  0  0
 21 22  1  0  0  0  0
 22 17  1  0  0  0  0
M  END
>  <minimizedAffinity>
-3.90083671

$$$$

 OpenBabel03272508183D

 22 24  0  0  0  0  0  0  0  0999 V2000
   36.1370   28.7400   32.8420 C   0  0  0  0  0  0  0  0  0  0  0  0
   37.2030   27.8680   32.9210 C   0  0  0  0  0  0  0  0  0  0  0  0
   37.8990   27.7160   31.7080 C   0  0  0  0  0  0  0  0  0  0  0  0
   37.5350   28.3730   30.5890 N   0  0  0  0  0  0  0  0  0  0  0  0
   36.4810   29.2190   30.5590 C   0  0  0  0  0  0  0  0  0  0  0  0
   35.7930   29.3880   31.7000 N   0  0  0  0  0  0  0  0  0  0  0  0
   38.7590   27.0850   31.5540 H   0  0  0  0  0  0  0  0  0  0  0  0
   36.0960   29.7950   29.7340 H   0  0  0  0  0  0  0  0  0  0  0  0
   35.4020   29.0760   34.1220 C   0  0  0  0  0  0  0  0  0  0  0  0
   35.5420   30.3560   34.7710 C   0  0  0  0  0  0  0  0  0  0  0  0
   34.3620   30.1910   33.8540 C   0  0  0  0  0  0  0  0  0  0  0  0
   34.8920   28.2160   34.6140 H   0  0  0  0  0  0  0  0  0  0  0  0
   35.3490   30.4940   35.8440 H   0  0  0  0  0  0  0  0  0  0  0  0
   36.3900   31.0020   34.4040 H   0  0  0  0  0  0  0  0  0  0  0  0
   33.3880   30.1490   34.3340 H   0  0  0  0  0  0  0  0  0  0  0  0
   34.4390   30.7060   32.8960 H   0  0  0  0  0  0  0  0  0  0  0  0
   37.6220   27.1150   34.0270 C   0  0  0  0  0  0  0  0  0  0  0  0
   38.0600   27.6250   35.2170 C   0  0  0  0  0  0  0  0  0  0  0  0
   38.1420   28.7020   35.4530 H   0  0  0  0  0  0  0  0  0  0  0  0
   38.4400   26.8560   36.2320 C   0  0  0  0  0  3  0  0  0  0  0  0
   38.3750   25.5030   36.0360 C   0  0  0  0  0  3  0  0  0  0  0  0
   37.7480   25.4000   34.3420 S   0  0  0  0  0  0  0  0  0  0  0  0
  1  2  1  0  0  0  0
  1  9  1  0  0  0  0
  2 17  1  0  0  0  0
  3  2  2  0  0  0  0
  4  3  1  0  0  0  0
  5  4  2  0  0  0  0
  5  6  1  0  0  0  0
  6  1  2  0  0  0  0
  7  3  1  0  0  0  0
  8  5  1  0  0  0  0
  9 12  1  0  0  0  0
  9 10  1  0  0  0  0
 10 13  1  0  0  0  0
 11  9  1  0  0  0  0
 11 15  1  0  0  0  0
 11 10  1  0  0  0  0
 14 10  1  0  0  0  0
 16 11  1  0  0  0  0
 17 22  1  0  0  0  0
 17 18  2  0  0  0  0
 18 19  1  0  0  0  0
 18 20  1  0  0  0  0
 21 20  2  0  0  0  0
 22 21  1  0  0  0  0
M  END
>  <minimizedAffinity>
-3.87170124

$$$$

 OpenBabel03272508183D

 22 24  0  0  0  0  0  0  0  0999 V2000
   38.8340   24.8450   36.1480 C   0  0  0  0  0  0  0  0  0  0  0  0
   40.0030   24.7170   35.4270 C   0  0  0  0  0  0  0  0  0  0  0  0
   40.4080   25.9060   34.7930 C   0  0  0  0  0  0  0  0  0  0  0  0
   39.7000   27.0480   34.8980 N   0  0  0  0  0  0  0  0  0  0  0  0
   38.5590   27.1250   35.6170 C   0  0  0  0  0  0  0  0  0  0  0  0
   38.1410   26.0080   36.2360 N   0  0  0  0  0  0  0  0  0  0  0  0
   41.2900   26.0210   34.1830 H   0  0  0  0  0  0  0  0  0  0  0  0
   37.9120   27.9730   35.7740 H   0  0  0  0  0  0  0  0  0  0  0  0
   38.3800   23.6610   36.9760 C   0  0  0  0  0  0  0  0  0  0  0  0
   39.0820   23.2450   38.1650 C   0  0  0  0  0  0  0  0  0  0  0  0
   37.8930   24.1450   38.3630 C   0  0  0  0  0  0  0  0  0  0  0  0
   37.5840   23.0370   36.5100 H   0  0  0  0  0  0  0  0  0  0  0  0
   39.0230   22.2170   38.5510 H   0  0  0  0  0  0  0  0  0  0  0  0
   40.1010   23.7010   38.3190 H   0  0  0  0  0  0  0  0  0  0  0  0
   37.0200   23.6870   38.8200 H   0  0  0  0  0  0  0  0  0  0  0  0
   38.1270   25.1770   38.6260 H   0  0  0  0  0  0  0  0  0  0  0  0
   40.7740   23.5620   35.2310 C   0  0  0  0  0  0  0  0  0  0  0  0
   41.9570   23.2810   35.8550 C   0  0  0  0  0  0  0  0  0  0  0  0
   42.4560   23.9360   36.5920 H   0  0  0  0  0  0  0  0  0  0  0  0
   42.6410   22.1630   35.6290 C   0  0  0  0  0  3  0  0  0  0  0  0
   42.1020   21.2850   34.7270 C   0  0  0  0  0  3  0  0  0  0  0  0
   40.5870   22.1400   34.2320 S   0  0  0  0  0  0  0  0  0  0  0  0
  1  6  1  0  0  0  0
  1  9  1  0  0  0  0
  2  1  2  0  0  0  0
  3  4  2  0  0  0  0
  3  2  1  0  0  0  0
  4  5  1  0  0  0  0
  5  8  1  0  0  0  0
  5  6  2  0  0  0  0
  7  3  1  0  0  0  0
  9 10  1  0  0  0  0
  9 11  1  0  0  0  0
 10 14  1  0  0  0  0
 10 11  1  0  0  0  0
 10 13  1  0  0  0  0
 11 16  1  0  0  0  0
 11 15  1  0  0  0  0
 12  9  1  0  0  0  0
 17  2  1  0  0  0  0
 17 18  2  0  0  0  0
 18 19  1  0  0  0  0
 20 18  1  0  0  0  0
 21 20  2  0  0  0  0
 22 21  1  0  0  0  0
 22 17  1  0  0  0  0
M  END
>  <minimizedAffinity>
-3.85452557

$$$$

 OpenBabel03272508183D

 22 24  0  0  0  0  0  0  0  0999 V2000
   36.4350   26.8430   31.7640 C   0  0  0  0  0  0  0  0  0  0  0  0
   37.2210   25.9660   32.4820 C   0  0  0  0  0  0  0  0  0  0  0  0
   36.8270   24.6210   32.3550 C   0  0  0  0  0  0  0  0  0  0  0  0
   35.7760   24.2540   31.5960 N   0  0  0  0  0  0  0  0  0  0  0  0
   35.0340   25.1510   30.9090 C   0  0  0  0  0  0  0  0  0  0  0  0
   35.3810   26.4440   31.0080 N   0  0  0  0  0  0  0  0  0  0  0  0
   37.3050   23.7810   32.8320 H   0  0  0  0  0  0  0  0  0  0  0  0
   34.1780   24.9800   30.2760 H   0  0  0  0  0  0  0  0  0  0  0  0
   36.8520   28.2980   31.7260 C   0  0  0  0  0  0  0  0  0  0  0  0
   35.9790   29.3310   31.2260 C   0  0  0  0  0  0  0  0  0  0  0  0
   35.9890   29.1180   32.7150 C   0  0  0  0  0  0  0  0  0  0  0  0
   37.9280   28.4870   31.9420 H   0  0  0  0  0  0  0  0  0  0  0  0
   36.3610   30.2850   30.8370 H   0  0  0  0  0  0  0  0  0  0  0  0
   35.0680   28.9750   30.6640 H   0  0  0  0  0  0  0  0  0  0  0  0
   36.4460   29.9080   33.3050 H   0  0  0  0  0  0  0  0  0  0  0  0
   35.1090   28.6180   33.1220 H   0  0  0  0  0  0  0  0  0  0  0  0
   38.3000   26.2670   33.3260 C   0  0  0  0  0  0  0  0  0  0  0  0
   38.2010   26.6990   34.6190 C   0  0  0  0  0  0  0  0  0  0  0  0
   37.2530   26.8700   35.1600 H   0  0  0  0  0  0  0  0  0  0  0  0
   39.2660   26.9630   35.3700 C   0  0  0  0  0  3  0  0  0  0  0  0
   40.4900   26.7820   34.7870 C   0  0  0  0  0  3  0  0  0  0  0  0
   40.0360   26.2210   33.1280 S   0  0  0  0  0  0  0  0  0  0  0  0
  1  2  1  0  0  0  0
  2 17  1  0  0  0  0
  3  2  2  0  0  0  0
  3  7  1  0  0  0  0
  4  3  1  0  0  0  0
  5  6  1  0  0  0  0
  5  4  2  0  0  0  0
  6  1  2  0  0  0  0
  8  5  1  0  0  0  0
  9  1  1  0  0  0  0
  9 12  1  0  0  0  0
  9 11  1  0  0  0  0
 10  9  1  0  0  0  0
 10 11  1  0  0  0  0
 11 16  1  0  0  0  0
 11 15  1  0  0  0  0
 13 10  1  0  0  0  0
 14 10  1  0  0  0  0
 17 18  2  0  0  0  0
 18 19  1  0  0  0  0
 18 20  1  0  0  0  0
 21 20  2  0  0  0  0
 22 17  1  0  0  0  0
 22 21  1  0  0  0  0
M  END
>  <minimizedAffinity>
-3.84298038

$$$$

 OpenBabel03272508183D

 22 24  0  0  0  0  0  0  0  0999 V2000
   36.9410   27.6340   33.8300 C   0  0  0  0  0  0  0  0  0  0  0  0
   36.5570   27.2190   32.5720 C   0  0  0  0  0  0  0  0  0  0  0  0
   35.5070   27.9790   32.0240 C   0  0  0  0  0  0  0  0  0  0  0  0
   34.9480   29.0090   32.6890 N   0  0  0  0  0  0  0  0  0  0  0  0
   35.3600   29.3790   33.9220 C   0  0  0  0  0  0  0  0  0  0  0  0
   36.3600   28.6760   34.4770 N   0  0  0  0  0  0  0  0  0  0  0  0
   35.0590   27.8210   31.0560 H   0  0  0  0  0  0  0  0  0  0  0  0
   34.9940   30.1770   34.5480 H   0  0  0  0  0  0  0  0  0  0  0  0
   38.1500   26.9690   34.4550 C   0  0  0  0  0  0  0  0  0  0  0  0
   38.5140   27.1850   35.8330 C   0  0  0  0  0  0  0  0  0  0  0  0
   37.6940   25.9600   35.5360 C   0  0  0  0  0  0  0  0  0  0  0  0
   38.8270   26.4510   33.7380 H   0  0  0  0  0  0  0  0  0  0  0  0
   39.5410   27.0450   36.1980 H   0  0  0  0  0  0  0  0  0  0  0  0
   37.9900   28.0380   36.3520 H   0  0  0  0  0  0  0  0  0  0  0  0
   38.2070   25.0080   35.6380 H   0  0  0  0  0  0  0  0  0  0  0  0
   36.6480   26.0130   35.8390 H   0  0  0  0  0  0  0  0  0  0  0  0
   37.0520   26.1370   31.8310 C   0  0  0  0  0  0  0  0  0  0  0  0
   36.4820   24.8970   31.7560 C   0  0  0  0  0  0  0  0  0  0  0  0
   35.5560   24.5930   32.2770 H   0  0  0  0  0  0  0  0  0  0  0  0
   37.0000   23.9110   31.0300 C   0  0  0  0  0  3  0  0  0  0  0  0
   38.1520   24.1910   30.3450 C   0  0  0  0  0  3  0  0  0  0  0  0
   38.4440   25.9190   30.7950 S   0  0  0  0  0  0  0  0  0  0  0  0
  1  9  1  0  0  0  0
  1  6  1  0  0  0  0
  2  1  2  0  0  0  0
  3  2  1  0  0  0  0
  3  4  2  0  0  0  0
  4  5  1  0  0  0  0
  5  6  2  0  0  0  0
  5  8  1  0  0  0  0
  7  3  1  0  0  0  0
  9 11  1  0  0  0  0
  9 10  1  0  0  0  0
 10 13  1  0  0  0  0
 10 14  1  0  0  0  0
 11 15  1  0  0  0  0
 11 10  1  0  0  0  0
 11 16  1  0  0  0  0
 12  9  1  0  0  0  0
 17  2  1  0  0  0  0
 18 17  2  0  0  0  0
 18 19  1  0  0  0  0
 20 18  1  0  0  0  0
 21 22  1  0  0  0  0
 21 20  2  0  0  0  0
 22 17  1  0  0  0  0
M  END
>  <minimizedAffinity>
-3.82511854

$$$$

 OpenBabel03272508183D

 22 24  0  0  0  0  0  0  0  0999 V2000
   37.6780   25.9340   33.8290 C   0  0  0  0  0  0  0  0  0  0  0  0
   37.0360   26.2200   32.6430 C   0  0  0  0  0  0  0  0  0  0  0  0
   36.7430   25.0810   31.8710 C   0  0  0  0  0  0  0  0  0  0  0  0
   37.0720   23.8390   32.2780 N   0  0  0  0  0  0  0  0  0  0  0  0
   37.7020   23.6070   33.4500 C   0  0  0  0  0  0  0  0  0  0  0  0
   37.9980   24.6720   34.2130 N   0  0  0  0  0  0  0  0  0  0  0  0
   36.2460   25.0840   30.9140 H   0  0  0  0  0  0  0  0  0  0  0  0
   38.0140   22.6690   33.8790 H   0  0  0  0  0  0  0  0  0  0  0  0
   37.9210   27.0750   34.7950 C   0  0  0  0  0  0  0  0  0  0  0  0
   38.3630   26.8500   36.1490 C   0  0  0  0  0  0  0  0  0  0  0  0
   39.4290   27.1630   35.1350 C   0  0  0  0  0  0  0  0  0  0  0  0
   37.5690   28.0720   34.4460 H   0  0  0  0  0  0  0  0  0  0  0  0
   38.1840   27.5770   36.9540 H   0  0  0  0  0  0  0  0  0  0  0  0
   38.3030   25.7850   36.5150 H   0  0  0  0  0  0  0  0  0  0  0  0
   39.9050   28.1360   35.2310 H   0  0  0  0  0  0  0  0  0  0  0  0
   40.0460   26.3190   34.8280 H   0  0  0  0  0  0  0  0  0  0  0  0
   36.6980   27.4790   32.1260 C   0  0  0  0  0  0  0  0  0  0  0  0
   37.4490   28.2050   31.2460 C   0  0  0  0  0  0  0  0  0  0  0  0
   38.4240   27.8890   30.8330 H   0  0  0  0  0  0  0  0  0  0  0  0
   37.0700   29.3950   30.7880 C   0  0  0  0  0  3  0  0  0  0  0  0
   35.8720   29.8740   31.2440 C   0  0  0  0  0  3  0  0  0  0  0  0
   35.3300   28.5460   32.3450 S   0  0  0  0  0  0  0  0  0  0  0  0
  1  6  1  0  0  0  0
  1  9  1  0  0  0  0
  2  1  2  0  0  0  0
  3  4  2  0  0  0  0
  3  2  1  0  0  0  0
  4  5  1  0  0  0  0
  5  8  1  0  0  0  0
  5  6  2  0  0  0  0
  7  3  1  0  0  0  0
  9 11  1  0  0  0  0
  9 10  1  0  0  0  0
 10 14  1  0  0  0  0
 10 13  1  0  0  0  0
 11 15  1  0  0  0  0
 11 10  1  0  0  0  0
 12  9  1  0  0  0  0
 16 11  1  0  0  0  0
 17 22  1  0  0  0  0
 17  2  1  0  0  0  0
 18 17  2  0  0  0  0
 19 18  1  0  0  0  0
 20 21  2  0  0  0  0
 20 18  1  0  0  0  0
 21 22  1  0  0  0  0
M  END
>  <minimizedAffinity>
-3.81313133

$$$$
