
 OpenBabel03272510273D

 42 46  0  0  1  0  0  0  0  0999 V2000
   36.1170   30.2600   46.8570 C   0  0  0  0  0  0  0  0  0  0  0  0
   37.0670   30.6940   47.7500 C   0  0  0  0  0  0  0  0  0  0  0  0
   38.1540   31.4790   47.3350 C   0  0  0  0  0  0  0  0  0  0  0  0
   38.1990   31.7830   45.9720 C   0  0  0  0  0  0  0  0  0  0  0  0
   39.1520   32.5310   45.3230 N   0  0  0  0  0  0  0  0  0  0  0  0
   38.7860   32.5590   44.0320 C   0  0  0  0  0  0  0  0  0  0  0  0
   37.6730   31.8690   43.8730 N   0  0  0  0  0  0  0  0  0  0  0  0
   37.2750   31.3710   45.0540 C   0  0  0  0  0  0  0  0  0  0  0  0
   36.2090   30.5900   45.5160 C   0  0  0  0  0  0  0  0  0  0  0  0
   35.2730   29.6530   47.1730 H   0  0  0  0  0  0  0  0  0  0  0  0
   38.9180   31.8350   48.0150 H   0  0  0  0  0  0  0  0  0  0  0  0
   39.9910   32.9860   45.7560 H   0  0  0  0  0  0  0  0  0  0  0  0
   35.4710   30.2590   44.7930 H   0  0  0  0  0  0  0  0  0  0  0  0
   37.5580   30.1810   51.4500 C   0  0  0  0  0  0  0  0  0  0  0  0
   37.8480   30.5990   50.1530 C   0  0  0  0  0  0  0  0  0  0  0  0
   36.9470   30.3400   49.1540 C   0  0  0  0  0  0  0  0  0  0  0  0
   35.7920   29.6710   49.5080 N   0  0  0  0  0  0  0  0  0  0  0  0
   35.5210   29.2700   50.7660 C   0  0  0  0  0  0  0  0  0  0  0  0
   36.3920   29.5240   51.7150 N   0  0  0  0  0  0  0  0  0  0  0  0
   38.2960   30.4040   52.2140 H   0  0  0  0  0  0  0  0  0  0  0  0
   38.7460   31.1230   49.8590 H   0  0  0  0  0  0  0  0  0  0  0  0
   34.5830   28.7520   50.9330 H   0  0  0  0  0  0  0  0  0  0  0  0
   39.5230   33.2350   43.0600 O   0  0  0  0  0  0  0  0  0  0  0  0
   38.6000   31.5690   41.7590 N   0  0  0  0  0  0  0  0  0  0  0  0
   39.2510   32.8680   41.7170 C   0  0  1  0  0  0  0  0  0  0  0  0
   38.3890   33.8480   41.0750 C   0  0  0  0  0  0  0  0  0  0  0  0
   38.1670   33.4600   39.7440 O   0  0  0  0  0  0  0  0  0  0  0  0
   37.6750   32.1970   39.5820 C   0  0  0  0  0  0  0  0  0  0  0  0
   38.4520   31.1770   40.3670 C   0  0  1  0  0  0  0  0  0  0  0  0
   37.6770   31.5110   42.1520 H   0  0  0  0  0  0  0  0  0  0  0  0
   40.1740   32.7110   41.1340 H   0  0  0  0  0  0  0  0  0  0  0  0
   37.4300   34.1370   41.4120 H   0  0  0  0  0  0  0  0  0  0  0  0
   38.9910   34.8030   40.9670 H   0  0  0  0  0  0  0  0  0  0  0  0
   36.6240   32.1250   39.9250 H   0  0  0  0  0  0  0  0  0  0  0  0
   37.7700   31.9460   38.5060 H   0  0  0  0  0  0  0  0  0  0  0  0
   37.8890   30.2220   40.2720 H   0  0  0  0  0  0  0  0  0  0  0  0
   39.8050   31.0910   39.7820 C   0  0  0  0  0  0  0  0  0  0  0  0
   40.9320   30.5840   40.2740 C   0  0  0  0  0  0  0  0  0  0  0  0
   40.9110   30.1430   41.2790 H   0  0  0  0  0  0  0  0  0  0  0  0
   42.1060   30.5970   39.5680 C   0  0  0  0  0  0  0  0  0  0  0  0
   41.9850   31.2060   38.2650 C   0  0  0  0  0  0  0  0  0  0  0  0
   40.2540   31.6990   38.1530 S   0  0  0  0  0  0  0  0  0  0  0  0
  1 10  1  0  0  0  0
  1  2  1  0  0  0  0
  2 16  1  0  0  0  0
  3  2  2  0  0  0  0
  3 11  1  0  0  0  0
  4  3  1  0  0  0  0
  5 12  1  0  0  0  0
  5  4  1  0  0  0  0
  6  5  1  0  0  0  0
  7  6  2  0  0  0  0
  7  8  1  0  0  0  0
  8  9  1  0  0  0  0
  8  4  2  0  0  0  0
  9  1  2  0  0  0  0
 13  9  1  0  0  0  0
 14 19  1  0  0  0  0
 14 20  1  0  0  0  0
 15 14  2  0  0  0  0
 16 17  2  0  0  0  0
 16 15  1  0  0  0  0
 17 18  1  0  0  0  0
 18 22  1  0  0  0  0
 18 19  2  0  0  0  0
 21 15  1  0  0  0  0
 23  6  1  0  0  0  0
 24 30  1  0  0  0  0
 25 31  1  6  0  0  0
 25 24  1  0  0  0  0
 25 23  1  0  0  0  0
 26 32  1  0  0  0  0
 26 25  1  0  0  0  0
 27 26  1  0  0  0  0
 28 27  1  0  0  0  0
 28 34  1  0  0  0  0
 28 29  1  0  0  0  0
 29 36  1  6  0  0  0
 29 24  1  0  0  0  0
 33 26  1  0  0  0  0
 35 28  1  0  0  0  0
 37 38  2  0  0  0  0
 37 29  1  0  0  0  0
 38 39  1  0  0  0  0
 40 38  1  0  0  0  0
 41 40  2  0  0  0  0
 42 41  1  0  0  0  0
 42 37  1  0  0  0  0
M  END
>  <minimizedAffinity>
-5.72687769

>  <minimizedRMSD>
1.12045217

$$$$
