
 OpenBabel03262521453D

 21 22  0  0  0  0  0  0  0  0999 V2000
   37.7680   25.7440   35.7420 C   0  0  0  0  0  0  0  0  0  0  0  0
   36.7590   25.9760   36.0400 H   0  0  0  0  0  0  0  0  0  0  0  0
   37.6870   25.3080   34.7080 H   0  0  0  0  0  0  0  0  0  0  0  0
   38.3950   24.6980   36.5590 C   0  0  0  0  0  0  0  0  0  0  0  0
   38.0060   24.4050   37.8550 C   0  0  0  0  0  0  0  0  0  0  0  0
   38.6520   23.3980   38.5590 C   0  0  0  0  0  0  0  0  0  0  0  0
   39.6510   22.7490   37.9100 N   0  0  0  0  0  0  0  0  0  0  0  0
   40.0340   23.0350   36.6380 C   0  0  0  0  0  0  0  0  0  0  0  0
   39.3900   24.0090   35.9950 N   0  0  0  0  0  0  0  0  0  0  0  0
   37.2010   24.9650   38.3090 H   0  0  0  0  0  0  0  0  0  0  0  0
   38.3870   23.1330   39.5670 H   0  0  0  0  0  0  0  0  0  0  0  0
   40.8400   22.4860   36.1650 H   0  0  0  0  0  0  0  0  0  0  0  0
   38.5500   26.9940   35.6030 C   0  0  0  0  0  0  0  0  0  0  0  0
   37.8510   27.8420   35.5780 H   0  0  0  0  0  0  0  0  0  0  0  0
   39.1370   27.1180   36.5460 H   0  0  0  0  0  0  0  0  0  0  0  0
   39.3730   27.0490   34.4080 C   0  0  0  0  0  0  0  0  0  0  0  0
   40.7590   27.0930   34.2760 C   0  0  0  0  0  0  0  0  0  0  0  0
   41.3450   27.0870   35.1780 H   0  0  0  0  0  0  0  0  0  0  0  0
   41.2750   27.1410   33.0170 C   0  0  0  0  0  3  0  0  0  0  0  0
   40.3460   27.1430   31.8740 C   0  0  0  0  0  3  0  0  0  0  0  0
   38.7090   27.0700   32.8180 S   0  0  0  0  0  0  0  0  0  0  0  0
  1  2  1  0  0  0  0
  1  4  1  0  0  0  0
  3  1  1  0  0  0  0
  4  5  1  0  0  0  0
  5 10  1  0  0  0  0
  5  6  2  0  0  0  0
  6 11  1  0  0  0  0
  7  6  1  0  0  0  0
  8  7  2  0  0  0  0
  9  4  2  0  0  0  0
  9  8  1  0  0  0  0
 12  8  1  0  0  0  0
 13  1  1  0  0  0  0
 13 15  1  0  0  0  0
 14 13  1  0  0  0  0
 16 13  1  0  0  0  0
 17 16  2  0  0  0  0
 17 18  1  0  0  0  0
 19 17  1  0  0  0  0
 20 21  1  0  0  0  0
 20 19  2  0  0  0  0
 21 16  1  0  0  0  0
M  END
>  <minimizedAffinity>
-3.96494818

$$$$

 OpenBabel03262521453D

 21 22  0  0  0  0  0  0  0  0999 V2000
   38.6860   26.9610   35.5970 C   0  0  0  0  0  0  0  0  0  0  0  0
   38.1270   27.8520   35.8340 H   0  0  0  0  0  0  0  0  0  0  0  0
   39.4740   26.8770   36.3960 H   0  0  0  0  0  0  0  0  0  0  0  0
   39.4230   27.0500   34.3320 C   0  0  0  0  0  0  0  0  0  0  0  0
   40.8060   27.0430   34.2500 C   0  0  0  0  0  0  0  0  0  0  0  0
   41.4250   27.1310   33.0110 C   0  0  0  0  0  0  0  0  0  0  0  0
   40.6100   27.2180   31.9310 N   0  0  0  0  0  0  0  0  0  0  0  0
   39.2530   27.2250   32.0080 C   0  0  0  0  0  0  0  0  0  0  0  0
   38.6950   27.1400   33.2160 N   0  0  0  0  0  0  0  0  0  0  0  0
   41.3930   26.9710   35.1550 H   0  0  0  0  0  0  0  0  0  0  0  0
   42.4950   27.1300   32.8960 H   0  0  0  0  0  0  0  0  0  0  0  0
   38.6470   27.2970   31.1130 H   0  0  0  0  0  0  0  0  0  0  0  0
   37.8180   25.7700   35.7440 C   0  0  0  0  0  0  0  0  0  0  0  0
   36.8590   26.0880   36.1770 H   0  0  0  0  0  0  0  0  0  0  0  0
   37.5780   25.4140   34.7120 H   0  0  0  0  0  0  0  0  0  0  0  0
   38.3770   24.7310   36.5910 C   0  0  0  0  0  0  0  0  0  0  0  0
   38.0570   24.3750   37.9000 C   0  0  0  0  0  0  0  0  0  0  0  0
   37.2820   24.9330   38.3930 H   0  0  0  0  0  0  0  0  0  0  0  0
   38.7490   23.3460   38.4630 C   0  0  0  0  0  3  0  0  0  0  0  0
   39.7860   22.6730   37.6640 C   0  0  0  0  0  3  0  0  0  0  0  0
   39.6350   23.6770   36.0680 S   0  0  0  0  0  0  0  0  0  0  0  0
  1 13  1  0  0  0  0
  1  2  1  0  0  0  0
  1  3  1  0  0  0  0
  4  1  1  0  0  0  0
  5  4  1  0  0  0  0
  5 10  1  0  0  0  0
  6  5  2  0  0  0  0
  7  8  2  0  0  0  0
  7  6  1  0  0  0  0
  8  9  1  0  0  0  0
  9  4  2  0  0  0  0
 11  6  1  0  0  0  0
 12  8  1  0  0  0  0
 13 14  1  0  0  0  0
 13 16  1  0  0  0  0
 15 13  1  0  0  0  0
 16 17  2  0  0  0  0
 17 18  1  0  0  0  0
 17 19  1  0  0  0  0
 20 19  2  0  0  0  0
 21 16  1  0  0  0  0
 21 20  1  0  0  0  0
M  END
>  <minimizedAffinity>
-3.90880919

$$$$

 OpenBabel03262521453D

 21 22  0  0  0  0  0  0  0  0999 V2000
   38.2380   26.0850   34.3380 C   0  0  0  0  0  0  0  0  0  0  0  0
   38.9120   26.9250   34.3950 H   0  0  0  0  0  0  0  0  0  0  0  0
   38.8870   25.1900   34.1290 H   0  0  0  0  0  0  0  0  0  0  0  0
   37.3010   26.1600   33.2110 C   0  0  0  0  0  0  0  0  0  0  0  0
   36.7840   27.3490   32.7240 C   0  0  0  0  0  0  0  0  0  0  0  0
   35.9030   27.3320   31.6520 C   0  0  0  0  0  0  0  0  0  0  0  0
   35.5990   26.1150   31.1370 N   0  0  0  0  0  0  0  0  0  0  0  0
   36.1060   24.9470   31.6120 C   0  0  0  0  0  0  0  0  0  0  0  0
   36.9490   25.0040   32.6430 N   0  0  0  0  0  0  0  0  0  0  0  0
   37.0710   28.2840   33.1870 H   0  0  0  0  0  0  0  0  0  0  0  0
   35.4740   28.2280   31.2390 H   0  0  0  0  0  0  0  0  0  0  0  0
   35.8300   24.0000   31.1630 H   0  0  0  0  0  0  0  0  0  0  0  0
   37.6190   25.8470   35.6620 C   0  0  0  0  0  0  0  0  0  0  0  0
   37.6650   26.7800   36.2420 H   0  0  0  0  0  0  0  0  0  0  0  0
   36.5320   25.6580   35.4840 H   0  0  0  0  0  0  0  0  0  0  0  0
   38.2610   24.8000   36.4360 C   0  0  0  0  0  0  0  0  0  0  0  0
   38.0110   24.3670   37.7370 C   0  0  0  0  0  0  0  0  0  0  0  0
   37.2290   24.8610   38.2850 H   0  0  0  0  0  0  0  0  0  0  0  0
   38.7740   23.3490   38.2240 C   0  0  0  0  0  3  0  0  0  0  0  0
   39.8120   22.7680   37.3550 C   0  0  0  0  0  3  0  0  0  0  0  0
   39.5490   23.8370   35.8170 S   0  0  0  0  0  0  0  0  0  0  0  0
  1  2  1  0  0  0  0
  1 13  1  0  0  0  0
  3  1  1  0  0  0  0
  4  1  1  0  0  0  0
  5 10  1  0  0  0  0
  5  4  1  0  0  0  0
  6  5  2  0  0  0  0
  7  8  2  0  0  0  0
  7  6  1  0  0  0  0
  8  9  1  0  0  0  0
  9  4  2  0  0  0  0
 11  6  1  0  0  0  0
 12  8  1  0  0  0  0
 13 14  1  0  0  0  0
 13 16  1  0  0  0  0
 15 13  1  0  0  0  0
 16 17  2  0  0  0  0
 17 19  1  0  0  0  0
 17 18  1  0  0  0  0
 20 19  2  0  0  0  0
 21 16  1  0  0  0  0
 21 20  1  0  0  0  0
M  END
>  <minimizedAffinity>
-3.83770132

$$$$

 OpenBabel03262521453D

 21 22  0  0  0  0  0  0  0  0999 V2000
   39.2860   24.9130   34.7730 C   0  0  0  0  0  0  0  0  0  0  0  0
   38.5330   24.6150   34.0620 H   0  0  0  0  0  0  0  0  0  0  0  0
   40.2500   24.4720   34.3970 H   0  0  0  0  0  0  0  0  0  0  0  0
   39.0910   24.3420   36.1100 C   0  0  0  0  0  0  0  0  0  0  0  0
   38.0880   24.7460   36.9750 C   0  0  0  0  0  0  0  0  0  0  0  0
   37.9720   24.1520   38.2240 C   0  0  0  0  0  0  0  0  0  0  0  0
   38.8750   23.1860   38.5220 N   0  0  0  0  0  0  0  0  0  0  0  0
   39.8610   22.7870   37.6750 C   0  0  0  0  0  0  0  0  0  0  0  0
   39.9400   23.3820   36.4850 N   0  0  0  0  0  0  0  0  0  0  0  0
   37.4020   25.5240   36.6690 H   0  0  0  0  0  0  0  0  0  0  0  0
   37.2100   24.4310   38.9310 H   0  0  0  0  0  0  0  0  0  0  0  0
   40.5590   22.0100   37.9630 H   0  0  0  0  0  0  0  0  0  0  0  0
   39.4610   26.3830   34.7300 C   0  0  0  0  0  0  0  0  0  0  0  0
   39.6340   26.7450   35.7540 H   0  0  0  0  0  0  0  0  0  0  0  0
   40.4120   26.5820   34.1780 H   0  0  0  0  0  0  0  0  0  0  0  0
   38.3230   27.1000   34.1830 C   0  0  0  0  0  0  0  0  0  0  0  0
   37.2470   27.7010   34.8320 C   0  0  0  0  0  0  0  0  0  0  0  0
   37.2190   27.6470   35.9060 H   0  0  0  0  0  0  0  0  0  0  0  0
   36.3050   28.3140   34.0630 C   0  0  0  0  0  3  0  0  0  0  0  0
   36.4750   28.3070   32.6010 C   0  0  0  0  0  3  0  0  0  0  0  0
   38.0990   27.3440   32.4920 S   0  0  0  0  0  0  0  0  0  0  0  0
  1  4  1  0  0  0  0
  2  1  1  0  0  0  0
  3  1  1  0  0  0  0
  4  9  2  0  0  0  0
  4  5  1  0  0  0  0
  5  6  2  0  0  0  0
  6  7  1  0  0  0  0
  6 11  1  0  0  0  0
  8 12  1  0  0  0  0
  8  7  2  0  0  0  0
  9  8  1  0  0  0  0
 10  5  1  0  0  0  0
 13  1  1  0  0  0  0
 13 14  1  0  0  0  0
 15 13  1  0  0  0  0
 16 13  1  0  0  0  0
 16 17  2  0  0  0  0
 17 18  1  0  0  0  0
 19 17  1  0  0  0  0
 20 19  2  0  0  0  0
 21 20  1  0  0  0  0
 21 16  1  0  0  0  0
M  END
>  <minimizedAffinity>
-3.83524776

$$$$

 OpenBabel03262521453D

 21 22  0  0  0  0  0  0  0  0999 V2000
   38.1910   26.0810   36.0610 C   0  0  0  0  0  0  0  0  0  0  0  0
   38.0490   26.7360   36.9050 H   0  0  0  0  0  0  0  0  0  0  0  0
   39.2930   26.1060   35.8400 H   0  0  0  0  0  0  0  0  0  0  0  0
   37.5360   26.5510   34.8360 C   0  0  0  0  0  0  0  0  0  0  0  0
   36.9890   27.8160   34.6980 C   0  0  0  0  0  0  0  0  0  0  0  0
   36.3860   28.1820   33.5030 C   0  0  0  0  0  0  0  0  0  0  0  0
   36.3740   27.2480   32.5190 N   0  0  0  0  0  0  0  0  0  0  0  0
   36.9100   26.0060   32.6510 C   0  0  0  0  0  0  0  0  0  0  0  0
   37.4790   25.6920   33.8150 N   0  0  0  0  0  0  0  0  0  0  0  0
   37.0360   28.5090   35.5270 H   0  0  0  0  0  0  0  0  0  0  0  0
   35.9480   29.1520   33.3470 H   0  0  0  0  0  0  0  0  0  0  0  0
   36.8730   25.2970   31.8340 H   0  0  0  0  0  0  0  0  0  0  0  0
   37.8800   24.6860   36.4520 C   0  0  0  0  0  0  0  0  0  0  0  0
   37.3210   24.7050   37.3980 H   0  0  0  0  0  0  0  0  0  0  0  0
   37.1660   24.2860   35.6910 H   0  0  0  0  0  0  0  0  0  0  0  0
   39.0510   23.8470   36.6330 C   0  0  0  0  0  0  0  0  0  0  0  0
   39.3970   23.0080   37.6910 C   0  0  0  0  0  0  0  0  0  0  0  0
   38.7160   22.9460   38.5210 H   0  0  0  0  0  0  0  0  0  0  0  0
   40.5720   22.3260   37.6010 C   0  0  0  0  0  3  0  0  0  0  0  0
   41.4040   22.5110   36.4000 C   0  0  0  0  0  3  0  0  0  0  0  0
   40.3140   23.7430   35.4660 S   0  0  0  0  0  0  0  0  0  0  0  0
  1 13  1  0  0  0  0
  1  2  1  0  0  0  0
  3  1  1  0  0  0  0
  4  1  1  0  0  0  0
  5  4  1  0  0  0  0
  5 10  1  0  0  0  0
  6  5  2  0  0  0  0
  7  8  2  0  0  0  0
  7  6  1  0  0  0  0
  8  9  1  0  0  0  0
  9  4  2  0  0  0  0
 11  6  1  0  0  0  0
 12  8  1  0  0  0  0
 13 16  1  0  0  0  0
 13 14  1  0  0  0  0
 15 13  1  0  0  0  0
 16 17  2  0  0  0  0
 17 18  1  0  0  0  0
 19 17  1  0  0  0  0
 20 19  2  0  0  0  0
 21 20  1  0  0  0  0
 21 16  1  0  0  0  0
M  END
>  <minimizedAffinity>
-3.81168795

$$$$

 OpenBabel03262521453D

 21 22  0  0  0  0  0  0  0  0999 V2000
   38.7050   21.9010   34.2590 C   0  0  0  0  0  0  0  0  0  0  0  0
   38.7770   20.8320   34.1370 H   0  0  0  0  0  0  0  0  0  0  0  0
   39.5870   22.3290   33.7070 H   0  0  0  0  0  0  0  0  0  0  0  0
   38.8610   22.3450   35.6480 C   0  0  0  0  0  0  0  0  0  0  0  0
   40.0400   22.2170   36.3640 C   0  0  0  0  0  0  0  0  0  0  0  0
   40.1040   22.6650   37.6760 C   0  0  0  0  0  0  0  0  0  0  0  0
   38.9730   23.2150   38.1840 N   0  0  0  0  0  0  0  0  0  0  0  0
   37.8150   23.3420   37.4840 C   0  0  0  0  0  0  0  0  0  0  0  0
   37.7930   22.9000   36.2270 N   0  0  0  0  0  0  0  0  0  0  0  0
   40.9030   21.7670   35.8930 H   0  0  0  0  0  0  0  0  0  0  0  0
   40.9960   22.5880   38.2730 H   0  0  0  0  0  0  0  0  0  0  0  0
   36.9390   23.7900   37.9380 H   0  0  0  0  0  0  0  0  0  0  0  0
   37.4980   22.4040   33.5630 C   0  0  0  0  0  0  0  0  0  0  0  0
   36.8380   22.8750   34.3040 H   0  0  0  0  0  0  0  0  0  0  0  0
   37.8320   23.2320   32.8900 H   0  0  0  0  0  0  0  0  0  0  0  0
   36.7410   21.3750   32.8710 C   0  0  0  0  0  0  0  0  0  0  0  0
   35.3980   21.0230   32.9850 C   0  0  0  0  0  0  0  0  0  0  0  0
   34.7950   21.5750   33.6830 H   0  0  0  0  0  0  0  0  0  0  0  0
   34.9420   20.0050   32.2050 C   0  0  0  0  0  3  0  0  0  0  0  0
   35.8860   19.3390   31.2910 C   0  0  0  0  0  3  0  0  0  0  0  0
   37.4440   20.3330   31.6930 S   0  0  0  0  0  0  0  0  0  0  0  0
  1  4  1  0  0  0  0
  2  1  1  0  0  0  0
  3  1  1  0  0  0  0
  4  9  2  0  0  0  0
  4  5  1  0  0  0  0
  5  6  2  0  0  0  0
  6  7  1  0  0  0  0
  6 11  1  0  0  0  0
  8 12  1  0  0  0  0
  8  7  2  0  0  0  0
  9  8  1  0  0  0  0
 10  5  1  0  0  0  0
 13  1  1  0  0  0  0
 13 14  1  0  0  0  0
 15 13  1  0  0  0  0
 16 17  2  0  0  0  0
 16 13  1  0  0  0  0
 17 18  1  0  0  0  0
 19 17  1  0  0  0  0
 20 21  1  0  0  0  0
 20 19  2  0  0  0  0
 21 16  1  0  0  0  0
M  END
>  <minimizedAffinity>
-3.70944333

$$$$

 OpenBabel03262521453D

 21 22  0  0  0  0  0  0  0  0999 V2000
   35.8210   29.8100   33.7740 C   0  0  0  0  0  0  0  0  0  0  0  0
   36.8120   30.1820   33.5720 H   0  0  0  0  0  0  0  0  0  0  0  0
   35.2140   30.0500   32.8580 H   0  0  0  0  0  0  0  0  0  0  0  0
   35.1490   30.5010   34.8800 C   0  0  0  0  0  0  0  0  0  0  0  0
   35.7940   31.3710   35.7420 C   0  0  0  0  0  0  0  0  0  0  0  0
   35.0830   31.9860   36.7640 C   0  0  0  0  0  0  0  0  0  0  0  0
   33.7640   31.6840   36.8500 N   0  0  0  0  0  0  0  0  0  0  0  0
   33.1280   30.8310   36.0050 C   0  0  0  0  0  0  0  0  0  0  0  0
   33.8450   30.2600   35.0370 N   0  0  0  0  0  0  0  0  0  0  0  0
   36.8500   31.5640   35.6130 H   0  0  0  0  0  0  0  0  0  0  0  0
   35.5390   32.6690   37.4590 H   0  0  0  0  0  0  0  0  0  0  0  0
   32.0710   30.6240   36.1180 H   0  0  0  0  0  0  0  0  0  0  0  0
   35.8510   28.3320   33.8740 C   0  0  0  0  0  0  0  0  0  0  0  0
   35.1160   28.0180   34.6270 H   0  0  0  0  0  0  0  0  0  0  0  0
   35.4740   27.9320   32.9010 H   0  0  0  0  0  0  0  0  0  0  0  0
   37.1450   27.7900   34.2500 C   0  0  0  0  0  0  0  0  0  0  0  0
   37.7470   27.6980   35.5030 C   0  0  0  0  0  0  0  0  0  0  0  0
   37.2000   28.0760   36.3480 H   0  0  0  0  0  0  0  0  0  0  0  0
   38.9860   27.1370   35.5710 C   0  0  0  0  0  3  0  0  0  0  0  0
   39.6140   26.6620   34.3260 C   0  0  0  0  0  3  0  0  0  0  0  0
   38.2420   27.1140   33.1060 S   0  0  0  0  0  0  0  0  0  0  0  0
  1 13  1  0  0  0  0
  1  4  1  0  0  0  0
  2  1  1  0  0  0  0
  3  1  1  0  0  0  0
  4  9  2  0  0  0  0
  4  5  1  0  0  0  0
  5  6  2  0  0  0  0
  6  7  1  0  0  0  0
  6 11  1  0  0  0  0
  8 12  1  0  0  0  0
  8  7  2  0  0  0  0
  9  8  1  0  0  0  0
 10  5  1  0  0  0  0
 13 16  1  0  0  0  0
 13 14  1  0  0  0  0
 15 13  1  0  0  0  0
 16 17  2  0  0  0  0
 17 19  1  0  0  0  0
 17 18  1  0  0  0  0
 20 19  2  0  0  0  0
 21 16  1  0  0  0  0
 21 20  1  0  0  0  0
M  END
>  <minimizedAffinity>
-3.70865464

$$$$

 OpenBabel03262521453D

 21 22  0  0  0  0  0  0  0  0999 V2000
   38.4380   24.9690   33.4940 C   0  0  0  0  0  0  0  0  0  0  0  0
   38.5200   25.7500   34.2320 H   0  0  0  0  0  0  0  0  0  0  0  0
   39.3460   25.0740   32.8390 H   0  0  0  0  0  0  0  0  0  0  0  0
   37.2890   25.1280   32.5960 C   0  0  0  0  0  0  0  0  0  0  0  0
   36.6260   24.0650   32.0060 C   0  0  0  0  0  0  0  0  0  0  0  0
   35.5450   24.3030   31.1680 C   0  0  0  0  0  0  0  0  0  0  0  0
   35.2000   25.6000   30.9780 N   0  0  0  0  0  0  0  0  0  0  0  0
   35.8490   26.6460   31.5560 C   0  0  0  0  0  0  0  0  0  0  0  0
   36.8820   26.3770   32.3540 N   0  0  0  0  0  0  0  0  0  0  0  0
   36.9580   23.0550   32.2040 H   0  0  0  0  0  0  0  0  0  0  0  0
   34.9990   23.5110   30.6870 H   0  0  0  0  0  0  0  0  0  0  0  0
   35.5330   27.6650   31.3700 H   0  0  0  0  0  0  0  0  0  0  0  0
   38.5520   23.6460   34.1490 C   0  0  0  0  0  0  0  0  0  0  0  0
   37.7130   23.0180   33.8200 H   0  0  0  0  0  0  0  0  0  0  0  0
   39.4710   23.1570   33.7380 H   0  0  0  0  0  0  0  0  0  0  0  0
   38.5360   23.7000   35.6000 C   0  0  0  0  0  0  0  0  0  0  0  0
   37.8280   24.5400   36.4570 C   0  0  0  0  0  0  0  0  0  0  0  0
   37.1830   25.2760   36.0120 H   0  0  0  0  0  0  0  0  0  0  0  0
   38.0020   24.3720   37.7970 C   0  0  0  0  0  3  0  0  0  0  0  0
   38.9210   23.3190   38.2620 C   0  0  0  0  0  3  0  0  0  0  0  0
   39.4730   22.6400   36.5840 S   0  0  0  0  0  0  0  0  0  0  0  0
  1 13  1  0  0  0  0
  1  2  1  0  0  0  0
  3  1  1  0  0  0  0
  4  1  1  0  0  0  0
  5 10  1  0  0  0  0
  5  4  2  0  0  0  0
  6  5  1  0  0  0  0
  7  6  2  0  0  0  0
  7  8  1  0  0  0  0
  8  9  2  0  0  0  0
  9  4  1  0  0  0  0
 11  6  1  0  0  0  0
 12  8  1  0  0  0  0
 13 16  1  0  0  0  0
 14 13  1  0  0  0  0
 15 13  1  0  0  0  0
 16 17  2  0  0  0  0
 16 21  1  0  0  0  0
 17 19  1  0  0  0  0
 18 17  1  0  0  0  0
 19 20  2  0  0  0  0
 21 20  1  0  0  0  0
M  END
>  <minimizedAffinity>
-3.63653755

$$$$

 OpenBabel03262521453D

 21 22  0  0  0  0  0  0  0  0999 V2000
   38.2180   26.6170   35.4470 C   0  0  0  0  0  0  0  0  0  0  0  0
   39.0740   26.8810   34.8460 H   0  0  0  0  0  0  0  0  0  0  0  0
   38.3740   27.1270   36.4370 H   0  0  0  0  0  0  0  0  0  0  0  0
   38.1370   25.1850   35.7550 C   0  0  0  0  0  0  0  0  0  0  0  0
   37.9910   24.6860   37.0390 C   0  0  0  0  0  0  0  0  0  0  0  0
   37.9210   23.3150   37.2440 C   0  0  0  0  0  0  0  0  0  0  0  0
   38.0020   22.5330   36.1390 N   0  0  0  0  0  0  0  0  0  0  0  0
   38.1440   23.0190   34.8790 C   0  0  0  0  0  0  0  0  0  0  0  0
   38.2080   24.3410   34.7220 N   0  0  0  0  0  0  0  0  0  0  0  0
   37.9340   25.3720   37.8730 H   0  0  0  0  0  0  0  0  0  0  0  0
   37.8080   22.8800   38.2210 H   0  0  0  0  0  0  0  0  0  0  0  0
   38.2040   22.3500   34.0290 H   0  0  0  0  0  0  0  0  0  0  0  0
   36.9940   27.2120   34.8640 C   0  0  0  0  0  0  0  0  0  0  0  0
   36.1840   26.4710   34.9200 H   0  0  0  0  0  0  0  0  0  0  0  0
   36.6830   28.0470   35.5390 H   0  0  0  0  0  0  0  0  0  0  0  0
   37.1370   27.6230   33.4780 C   0  0  0  0  0  0  0  0  0  0  0  0
   38.1520   27.3490   32.5640 C   0  0  0  0  0  0  0  0  0  0  0  0
   38.9750   26.7440   32.8980 H   0  0  0  0  0  0  0  0  0  0  0  0
   38.0320   27.8690   31.3110 C   0  0  0  0  0  3  0  0  0  0  0  0
   36.8460   28.6830   30.9950 C   0  0  0  0  0  3  0  0  0  0  0  0
   35.9710   28.6010   32.6700 S   0  0  0  0  0  0  0  0  0  0  0  0
  1  4  1  0  0  0  0
  1  3  1  0  0  0  0
  2  1  1  0  0  0  0
  4  5  1  0  0  0  0
  5  6  2  0  0  0  0
  5 10  1  0  0  0  0
  6 11  1  0  0  0  0
  7  6  1  0  0  0  0
  8  7  2  0  0  0  0
  9  8  1  0  0  0  0
  9  4  2  0  0  0  0
 12  8  1  0  0  0  0
 13 14  1  0  0  0  0
 13  1  1  0  0  0  0
 13 15  1  0  0  0  0
 16 13  1  0  0  0  0
 17 18  1  0  0  0  0
 17 16  2  0  0  0  0
 19 17  1  0  0  0  0
 20 19  2  0  0  0  0
 20 21  1  0  0  0  0
 21 16  1  0  0  0  0
M  END
>  <minimizedAffinity>
-3.6070931

$$$$
