
 OpenBabel03262523413D

 35 37  0  0  1  0  0  0  0  0999 V2000
   37.6360   22.9990   32.3340 C   0  0  0  0  0  0  0  0  0  0  0  0
   38.2050   23.1780   33.5920 C   0  0  0  0  0  0  0  0  0  0  0  0
   37.8470   22.4160   34.6840 C   0  0  0  0  0  0  0  0  0  0  0  0
   36.9010   21.4870   34.4310 N   0  0  0  0  0  0  0  0  0  0  0  0
   36.3280   21.2840   33.2310 C   0  0  0  0  0  0  0  0  0  0  0  0
   36.7060   22.0500   32.1860 N   0  0  0  0  0  0  0  0  0  0  0  0
   38.4280   22.6040   35.9420 N   0  0  0  0  0  0  0  0  0  0  0  0
   37.6110   23.2520   36.9320 C   0  0  0  0  0  0  0  0  0  0  0  0
   38.1920   23.2920   38.3050 C   0  0  0  0  0  0  0  0  0  0  0  0
   39.4720   22.8160   38.5010 N   0  0  0  0  0  0  0  0  0  0  0  0
   40.3560   22.5930   37.4620 C   0  0  0  0  0  0  0  0  0  0  0  0
   39.7750   22.1410   36.1530 C   0  0  2  0  0  0  0  0  0  0  0  0
   37.9030   23.5860   31.4650 H   0  0  0  0  0  0  0  0  0  0  0  0
   38.9350   23.9700   33.5980 H   0  0  0  0  0  0  0  0  0  0  0  0
   35.5730   20.5170   33.1030 H   0  0  0  0  0  0  0  0  0  0  0  0
   36.6140   22.7620   36.8930 H   0  0  0  0  0  0  0  0  0  0  0  0
   37.4330   24.2880   36.5240 H   0  0  0  0  0  0  0  0  0  0  0  0
   37.5000   22.7030   38.9730 H   0  0  0  0  0  0  0  0  0  0  0  0
   38.1070   24.3350   38.6800 H   0  0  0  0  0  0  0  0  0  0  0  0
   39.5980   22.2590   39.3550 H   0  0  0  0  0  0  0  0  0  0  0  0
   40.9020   23.5780   37.2990 H   0  0  0  0  0  0  0  0  0  0  0  0
   41.1130   21.8720   37.7850 H   0  0  0  0  0  0  0  0  0  0  0  0
   39.7360   21.0290   36.0890 H   0  0  0  0  0  0  0  0  0  0  0  0
   40.7440   22.6000   35.1000 C   0  0  0  0  0  0  0  0  0  0  0  0
   41.3060   21.8230   34.5950 H   0  0  0  0  0  0  0  0  0  0  0  0
   40.1490   23.1500   34.3090 H   0  0  0  0  0  0  0  0  0  0  0  0
   41.6150   23.6660   35.7610 C   0  0  0  0  0  0  0  0  0  0  0  0
   41.3590   23.8530   36.7940 H   0  0  0  0  0  0  0  0  0  0  0  0
   42.6850   23.4990   35.5720 H   0  0  0  0  0  0  0  0  0  0  0  0
   41.3500   24.9920   35.0150 C   0  0  0  0  0  0  0  0  0  0  0  0
   40.2510   25.7800   35.0010 C   0  0  0  0  0  0  0  0  0  0  0  0
   39.4150   25.4520   35.5990 H   0  0  0  0  0  0  0  0  0  0  0  0
   40.2960   26.9020   34.2460 C   0  0  0  0  0  3  0  0  0  0  0  0
   41.4640   27.1840   33.5260 C   0  0  0  0  0  3  0  0  0  0  0  0
   42.5290   25.6880   34.0190 S   0  0  0  0  0  0  0  0  0  0  0  0
  1  2  1  0  0  0  0
  2 14  1  0  0  0  0
  2  3  2  0  0  0  0
  3  7  1  0  0  0  0
  4  3  1  0  0  0  0
  5  4  2  0  0  0  0
  6  1  2  0  0  0  0
  6  5  1  0  0  0  0
  7 12  1  0  0  0  0
  7  8  1  0  0  0  0
  8  9  1  0  0  0  0
  9 10  1  0  0  0  0
  9 19  1  0  0  0  0
  9 18  1  0  0  0  0
 10 20  1  0  0  0  0
 11 22  1  0  0  0  0
 11 10  1  0  0  0  0
 12 23  1  6  0  0  0
 12 11  1  0  0  0  0
 13  1  1  0  0  0  0
 15  5  1  0  0  0  0
 16  8  1  0  0  0  0
 17  8  1  0  0  0  0
 21 11  1  0  0  0  0
 24 27  1  0  0  0  0
 24 12  1  0  0  0  0
 25 24  1  0  0  0  0
 26 24  1  0  0  0  0
 27 28  1  0  0  0  0
 29 27  1  0  0  0  0
 30 27  1  0  0  0  0
 31 30  2  0  0  0  0
 31 32  1  0  0  0  0
 33 31  1  0  0  0  0
 34 35  1  0  0  0  0
 34 33  2  0  0  0  0
 35 30  1  0  0  0  0
M  END
>  <minimizedAffinity>
-5.01313496

$$$$

 OpenBabel03262523413D

 35 37  0  0  1  0  0  0  0  0999 V2000
   38.5050   26.5040   36.0930 C   0  0  0  0  0  0  0  0  0  0  0  0
   38.0730   27.3220   35.0540 C   0  0  0  0  0  0  0  0  0  0  0  0
   37.6550   26.8200   33.8390 C   0  0  0  0  0  0  0  0  0  0  0  0
   37.7020   25.4750   33.7430 N   0  0  0  0  0  0  0  0  0  0  0  0
   38.1140   24.6520   34.7240 C   0  0  0  0  0  0  0  0  0  0  0  0
   38.5150   25.1810   35.8990 N   0  0  0  0  0  0  0  0  0  0  0  0
   37.2200   27.6540   32.8040 N   0  0  0  0  0  0  0  0  0  0  0  0
   38.1230   27.8230   31.6980 C   0  0  0  0  0  0  0  0  0  0  0  0
   37.5710   28.5790   30.5380 C   0  0  0  0  0  0  0  0  0  0  0  0
   36.3120   29.1350   30.6440 N   0  0  0  0  0  0  0  0  0  0  0  0
   35.6650   29.2990   31.8540 C   0  0  0  0  0  0  0  0  0  0  0  0
   35.9220   28.2670   32.9140 C   0  0  2  0  0  0  0  0  0  0  0  0
   38.8370   26.8770   37.0530 H   0  0  0  0  0  0  0  0  0  0  0  0
   38.1120   28.3660   35.3160 H   0  0  0  0  0  0  0  0  0  0  0  0
   38.1250   23.5790   34.5750 H   0  0  0  0  0  0  0  0  0  0  0  0
   38.4870   26.8080   31.4250 H   0  0  0  0  0  0  0  0  0  0  0  0
   39.0240   28.3370   32.1400 H   0  0  0  0  0  0  0  0  0  0  0  0
   37.5610   27.8740   29.6580 H   0  0  0  0  0  0  0  0  0  0  0  0
   38.3130   29.3570   30.2530 H   0  0  0  0  0  0  0  0  0  0  0  0
   35.7270   29.0390   29.8050 H   0  0  0  0  0  0  0  0  0  0  0  0
   35.9900   30.3160   32.2480 H   0  0  0  0  0  0  0  0  0  0  0  0
   34.5870   29.3690   31.6760 H   0  0  0  0  0  0  0  0  0  0  0  0
   35.1790   27.4370   32.8600 H   0  0  0  0  0  0  0  0  0  0  0  0
   35.6930   28.9660   34.2240 C   0  0  0  0  0  0  0  0  0  0  0  0
   34.9270   28.5440   34.8650 H   0  0  0  0  0  0  0  0  0  0  0  0
   36.6670   28.9320   34.8010 H   0  0  0  0  0  0  0  0  0  0  0  0
   35.4770   30.4390   33.8860 C   0  0  0  0  0  0  0  0  0  0  0  0
   36.3900   30.9660   33.6490 H   0  0  0  0  0  0  0  0  0  0  0  0
   34.6590   30.5820   33.1660 H   0  0  0  0  0  0  0  0  0  0  0  0
   34.9200   31.1170   35.1580 C   0  0  0  0  0  0  0  0  0  0  0  0
   35.5300   31.9240   36.0550 C   0  0  0  0  0  0  0  0  0  0  0  0
   36.5700   32.1450   35.8750 H   0  0  0  0  0  0  0  0  0  0  0  0
   34.7880   32.3800   37.0910 C   0  0  0  0  0  3  0  0  0  0  0  0
   33.4440   31.9970   37.1780 C   0  0  0  0  0  3  0  0  0  0  0  0
   33.3080   30.9040   35.6290 S   0  0  0  0  0  0  0  0  0  0  0  0
  1 13  1  0  0  0  0
  2 14  1  0  0  0  0
  2  1  2  0  0  0  0
  3  2  1  0  0  0  0
  4  3  2  0  0  0  0
  4  5  1  0  0  0  0
  5  6  2  0  0  0  0
  6  1  1  0  0  0  0
  7 12  1  0  0  0  0
  7  3  1  0  0  0  0
  8 17  1  0  0  0  0
  8  7  1  0  0  0  0
  9 10  1  0  0  0  0
  9  8  1  0  0  0  0
 10 11  1  0  0  0  0
 11 21  1  0  0  0  0
 11 12  1  0  0  0  0
 12 23  1  6  0  0  0
 12 24  1  0  0  0  0
 15  5  1  0  0  0  0
 16  8  1  0  0  0  0
 18  9  1  0  0  0  0
 19  9  1  0  0  0  0
 20 10  1  0  0  0  0
 22 11  1  0  0  0  0
 24 26  1  0  0  0  0
 24 25  1  0  0  0  0
 27 24  1  0  0  0  0
 27 30  1  0  0  0  0
 28 27  1  0  0  0  0
 29 27  1  0  0  0  0
 30 35  1  0  0  0  0
 30 31  2  0  0  0  0
 31 33  1  0  0  0  0
 32 31  1  0  0  0  0
 33 34  2  0  0  0  0
 35 34  1  0  0  0  0
M  END
>  <minimizedAffinity>
-4.92140532

$$$$

 OpenBabel03262523413D

 35 37  0  0  1  0  0  0  0  0999 V2000
   37.7890   26.1390   34.3310 C   0  0  0  0  0  0  0  0  0  0  0  0
   37.3670   27.3070   33.7030 C   0  0  0  0  0  0  0  0  0  0  0  0
   36.8500   27.3180   32.4250 C   0  0  0  0  0  0  0  0  0  0  0  0
   36.7900   26.1050   31.8350 N   0  0  0  0  0  0  0  0  0  0  0  0
   37.1880   24.9560   32.4080 C   0  0  0  0  0  0  0  0  0  0  0  0
   37.6880   24.9860   33.6620 N   0  0  0  0  0  0  0  0  0  0  0  0
   36.4280   28.5000   31.8060 N   0  0  0  0  0  0  0  0  0  0  0  0
   37.2830   29.0230   30.7760 C   0  0  0  0  0  0  0  0  0  0  0  0
   36.7320   30.1850   30.0240 C   0  0  0  0  0  0  0  0  0  0  0  0
   35.5260   30.7260   30.4230 N   0  0  0  0  0  0  0  0  0  0  0  0
   34.9560   30.4580   31.6530 C   0  0  0  0  0  0  0  0  0  0  0  0
   35.1880   29.0930   32.2330 C   0  0  2  0  0  0  0  0  0  0  0  0
   38.1960   26.1090   35.3320 H   0  0  0  0  0  0  0  0  0  0  0  0
   37.4990   28.1750   34.3280 H   0  0  0  0  0  0  0  0  0  0  0  0
   37.1090   24.0170   31.8730 H   0  0  0  0  0  0  0  0  0  0  0  0
   37.5540   28.1660   30.1210 H   0  0  0  0  0  0  0  0  0  0  0  0
   38.2430   29.2870   31.3080 H   0  0  0  0  0  0  0  0  0  0  0  0
   36.6230   29.8610   28.9490 H   0  0  0  0  0  0  0  0  0  0  0  0
   37.5150   30.9730   29.9900 H   0  0  0  0  0  0  0  0  0  0  0  0
   34.8930   30.9800   29.6540 H   0  0  0  0  0  0  0  0  0  0  0  0
   35.3770   31.2370   32.3690 H   0  0  0  0  0  0  0  0  0  0  0  0
   33.8790   30.6450   31.5960 H   0  0  0  0  0  0  0  0  0  0  0  0
   34.3820   28.3840   31.9340 H   0  0  0  0  0  0  0  0  0  0  0  0
   35.0800   29.2630   33.7230 C   0  0  0  0  0  0  0  0  0  0  0  0
   34.1110   29.0500   34.1610 H   0  0  0  0  0  0  0  0  0  0  0  0
   35.8250   28.5550   34.1990 H   0  0  0  0  0  0  0  0  0  0  0  0
   35.6040   30.6640   34.0290 C   0  0  0  0  0  0  0  0  0  0  0  0
   36.6560   30.6870   34.2760 H   0  0  0  0  0  0  0  0  0  0  0  0
   35.2900   31.3960   33.2720 H   0  0  0  0  0  0  0  0  0  0  0  0
   34.8650   31.1560   35.2930 C   0  0  0  0  0  0  0  0  0  0  0  0
   35.2810   31.9790   36.2820 C   0  0  0  0  0  0  0  0  0  0  0  0
   36.2850   32.3650   36.1960 H   0  0  0  0  0  0  0  0  0  0  0  0
   34.4100   32.2420   37.2830 C   0  0  0  0  0  3  0  0  0  0  0  0
   33.1390   31.6560   37.2430 C   0  0  0  0  0  3  0  0  0  0  0  0
   33.2780   30.6700   35.6240 S   0  0  0  0  0  0  0  0  0  0  0  0
  1 13  1  0  0  0  0
  2 14  1  0  0  0  0
  2  1  1  0  0  0  0
  3  2  2  0  0  0  0
  4  5  2  0  0  0  0
  4  3  1  0  0  0  0
  5  6  1  0  0  0  0
  6  1  2  0  0  0  0
  7 12  1  0  0  0  0
  7  3  1  0  0  0  0
  8 17  1  0  0  0  0
  8  7  1  0  0  0  0
  9 10  1  0  0  0  0
  9  8  1  0  0  0  0
 10 11  1  0  0  0  0
 11 12  1  0  0  0  0
 11 21  1  0  0  0  0
 12 23  1  6  0  0  0
 12 24  1  0  0  0  0
 15  5  1  0  0  0  0
 16  8  1  0  0  0  0
 18  9  1  0  0  0  0
 19  9  1  0  0  0  0
 20 10  1  0  0  0  0
 22 11  1  0  0  0  0
 24 27  1  0  0  0  0
 24 25  1  0  0  0  0
 24 26  1  0  0  0  0
 27 28  1  0  0  0  0
 27 30  1  0  0  0  0
 29 27  1  0  0  0  0
 30 35  1  0  0  0  0
 30 31  2  0  0  0  0
 31 33  1  0  0  0  0
 32 31  1  0  0  0  0
 34 33  2  0  0  0  0
 35 34  1  0  0  0  0
M  END
>  <minimizedAffinity>
-4.71400261

$$$$

 OpenBabel03262523413D

 35 37  0  0  1  0  0  0  0  0999 V2000
   36.8920   28.0600   32.8220 C   0  0  0  0  0  0  0  0  0  0  0  0
   36.7790   26.6760   32.9190 C   0  0  0  0  0  0  0  0  0  0  0  0
   37.0240   25.8350   31.8540 C   0  0  0  0  0  0  0  0  0  0  0  0
   37.3800   26.4640   30.7140 N   0  0  0  0  0  0  0  0  0  0  0  0
   37.4990   27.7970   30.5810 C   0  0  0  0  0  0  0  0  0  0  0  0
   37.2510   28.5880   31.6470 N   0  0  0  0  0  0  0  0  0  0  0  0
   36.9100   24.4450   31.9660 N   0  0  0  0  0  0  0  0  0  0  0  0
   35.7580   23.8470   31.3470 C   0  0  0  0  0  0  0  0  0  0  0  0
   35.7450   22.3570   31.3390 C   0  0  0  0  0  0  0  0  0  0  0  0
   36.7520   21.6780   31.9950 N   0  0  0  0  0  0  0  0  0  0  0  0
   37.5890   22.2840   32.9120 C   0  0  0  0  0  0  0  0  0  0  0  0
   37.9350   23.7260   32.6760 C   0  0  2  0  0  0  0  0  0  0  0  0
   36.7050   28.7370   33.6450 H   0  0  0  0  0  0  0  0  0  0  0  0
   36.4800   26.3610   33.9050 H   0  0  0  0  0  0  0  0  0  0  0  0
   37.7890   28.2320   29.6320 H   0  0  0  0  0  0  0  0  0  0  0  0
   35.6760   24.2910   30.3310 H   0  0  0  0  0  0  0  0  0  0  0  0
   34.8780   24.2690   31.9120 H   0  0  0  0  0  0  0  0  0  0  0  0
   35.7610   22.0330   30.2580 H   0  0  0  0  0  0  0  0  0  0  0  0
   34.7510   22.0220   31.7070 H   0  0  0  0  0  0  0  0  0  0  0  0
   37.1140   20.8580   31.4950 H   0  0  0  0  0  0  0  0  0  0  0  0
   37.0680   22.1940   33.9200 H   0  0  0  0  0  0  0  0  0  0  0  0
   38.5130   21.7030   32.9920 H   0  0  0  0  0  0  0  0  0  0  0  0
   38.8640   23.8250   32.0670 H   0  0  0  0  0  0  0  0  0  0  0  0
   38.2460   24.2950   34.0310 C   0  0  0  0  0  0  0  0  0  0  0  0
   38.7310   25.2650   34.0450 H   0  0  0  0  0  0  0  0  0  0  0  0
   37.2640   24.4060   34.5850 H   0  0  0  0  0  0  0  0  0  0  0  0
   39.0100   23.2080   34.7830 C   0  0  0  0  0  0  0  0  0  0  0  0
   38.6370   22.2110   34.5980 H   0  0  0  0  0  0  0  0  0  0  0  0
   40.0980   23.3220   34.6780 H   0  0  0  0  0  0  0  0  0  0  0  0
   38.7940   23.4650   36.2910 C   0  0  0  0  0  0  0  0  0  0  0  0
   37.8580   24.2070   36.9240 C   0  0  0  0  0  0  0  0  0  0  0  0
   37.1360   24.7080   36.2980 H   0  0  0  0  0  0  0  0  0  0  0  0
   37.9070   24.2550   38.2750 C   0  0  0  0  0  3  0  0  0  0  0  0
   38.9140   23.5430   38.9390 C   0  0  0  0  0  3  0  0  0  0  0  0
   39.8150   22.7740   37.4520 S   0  0  0  0  0  0  0  0  0  0  0  0
  1  2  1  0  0  0  0
  1 13  1  0  0  0  0
  2 14  1  0  0  0  0
  3  7  1  0  0  0  0
  3  2  2  0  0  0  0
  4  3  1  0  0  0  0
  5  4  2  0  0  0  0
  5  6  1  0  0  0  0
  6  1  2  0  0  0  0
  7 12  1  0  0  0  0
  8 17  1  0  0  0  0
  8  7  1  0  0  0  0
  9  8  1  0  0  0  0
  9 19  1  0  0  0  0
  9 10  1  0  0  0  0
 10 11  1  0  0  0  0
 11 22  1  0  0  0  0
 11 21  1  0  0  0  0
 12 23  1  6  0  0  0
 12 11  1  0  0  0  0
 12 24  1  0  0  0  0
 15  5  1  0  0  0  0
 16  8  1  0  0  0  0
 18  9  1  0  0  0  0
 20 10  1  0  0  0  0
 24 25  1  0  0  0  0
 24 26  1  0  0  0  0
 24 27  1  0  0  0  0
 27 30  1  0  0  0  0
 28 27  1  0  0  0  0
 29 27  1  0  0  0  0
 30 31  2  0  0  0  0
 30 35  1  0  0  0  0
 31 33  1  0  0  0  0
 32 31  1  0  0  0  0
 33 34  2  0  0  0  0
 35 34  1  0  0  0  0
M  END
>  <minimizedAffinity>
-4.61780882

$$$$

 OpenBabel03262523413D

 35 37  0  0  1  0  0  0  0  0999 V2000
   38.3570   26.9730   36.1950 C   0  0  0  0  0  0  0  0  0  0  0  0
   37.9790   27.6110   35.0170 C   0  0  0  0  0  0  0  0  0  0  0  0
   37.5980   26.9180   33.8870 C   0  0  0  0  0  0  0  0  0  0  0  0
   37.6250   25.5750   34.0180 N   0  0  0  0  0  0  0  0  0  0  0  0
   37.9860   24.9230   35.1370 C   0  0  0  0  0  0  0  0  0  0  0  0
   38.3510   25.6360   36.2240 N   0  0  0  0  0  0  0  0  0  0  0  0
   37.2170   27.5720   32.7110 N   0  0  0  0  0  0  0  0  0  0  0  0
   38.1640   27.5450   31.6290 C   0  0  0  0  0  0  0  0  0  0  0  0
   37.6690   28.1040   30.3390 C   0  0  0  0  0  0  0  0  0  0  0  0
   36.4180   28.6840   30.3010 N   0  0  0  0  0  0  0  0  0  0  0  0
   35.7280   29.0530   31.4400 C   0  0  0  0  0  0  0  0  0  0  0  0
   35.9270   28.2090   32.6650 C   0  0  2  0  0  0  0  0  0  0  0  0
   38.6590   27.4970   37.0920 H   0  0  0  0  0  0  0  0  0  0  0  0
   38.0260   28.6840   35.1030 H   0  0  0  0  0  0  0  0  0  0  0  0
   37.9830   23.8400   35.1690 H   0  0  0  0  0  0  0  0  0  0  0  0
   38.5200   26.4950   31.5430 H   0  0  0  0  0  0  0  0  0  0  0  0
   39.0570   28.1160   32.0160 H   0  0  0  0  0  0  0  0  0  0  0  0
   37.6810   27.2620   29.5890 H   0  0  0  0  0  0  0  0  0  0  0  0
   38.4350   28.8150   29.9590 H   0  0  0  0  0  0  0  0  0  0  0  0
   35.8630   28.4550   29.4670 H   0  0  0  0  0  0  0  0  0  0  0  0
   36.0550   30.1190   31.6720 H   0  0  0  0  0  0  0  0  0  0  0  0
   34.6590   29.1050   31.2100 H   0  0  0  0  0  0  0  0  0  0  0  0
   35.1720   27.3910   32.7200 H   0  0  0  0  0  0  0  0  0  0  0  0
   35.6610   29.1190   33.8310 C   0  0  0  0  0  0  0  0  0  0  0  0
   35.4750   28.6370   34.7840 H   0  0  0  0  0  0  0  0  0  0  0  0
   36.5730   29.7780   33.9630 H   0  0  0  0  0  0  0  0  0  0  0  0
   34.5450   30.0630   33.3860 C   0  0  0  0  0  0  0  0  0  0  0  0
   34.6880   31.0840   33.7100 H   0  0  0  0  0  0  0  0  0  0  0  0
   34.3050   29.9440   32.3210 H   0  0  0  0  0  0  0  0  0  0  0  0
   33.2480   29.5830   34.0730 C   0  0  0  0  0  0  0  0  0  0  0  0
   32.9390   29.4880   35.3860 C   0  0  0  0  0  0  0  0  0  0  0  0
   33.7050   29.7900   36.0840 H   0  0  0  0  0  0  0  0  0  0  0  0
   31.7090   29.0260   35.7080 C   0  0  0  0  0  3  0  0  0  0  0  0
   30.8300   28.6750   34.6760 C   0  0  0  0  0  3  0  0  0  0  0  0
   31.9170   29.0620   33.1650 S   0  0  0  0  0  0  0  0  0  0  0  0
  1  6  1  0  0  0  0
  1 13  1  0  0  0  0
  2 14  1  0  0  0  0
  2  1  2  0  0  0  0
  3  4  2  0  0  0  0
  3  2  1  0  0  0  0
  4  5  1  0  0  0  0
  5 15  1  0  0  0  0
  5  6  2  0  0  0  0
  7  3  1  0  0  0  0
  8 17  1  0  0  0  0
  8  7  1  0  0  0  0
  9  8  1  0  0  0  0
 10  9  1  0  0  0  0
 10 11  1  0  0  0  0
 11 21  1  0  0  0  0
 11 12  1  0  0  0  0
 12  7  1  0  0  0  0
 12 23  1  6  0  0  0
 12 24  1  0  0  0  0
 16  8  1  0  0  0  0
 18  9  1  0  0  0  0
 19  9  1  0  0  0  0
 20 10  1  0  0  0  0
 22 11  1  0  0  0  0
 24 26  1  0  0  0  0
 24 25  1  0  0  0  0
 27 28  1  0  0  0  0
 27 24  1  0  0  0  0
 27 30  1  0  0  0  0
 29 27  1  0  0  0  0
 30 31  2  0  0  0  0
 31 33  1  0  0  0  0
 31 32  1  0  0  0  0
 34 33  2  0  0  0  0
 35 30  1  0  0  0  0
 35 34  1  0  0  0  0
M  END
>  <minimizedAffinity>
-4.60916185

$$$$

 OpenBabel03262523413D

 35 37  0  0  1  0  0  0  0  0999 V2000
   37.4200   26.0540   33.8250 C   0  0  0  0  0  0  0  0  0  0  0  0
   38.7720   25.7410   33.7270 C   0  0  0  0  0  0  0  0  0  0  0  0
   39.7200   26.2720   34.5760 C   0  0  0  0  0  0  0  0  0  0  0  0
   39.2280   27.1180   35.5050 N   0  0  0  0  0  0  0  0  0  0  0  0
   37.9290   27.4450   35.6310 C   0  0  0  0  0  0  0  0  0  0  0  0
   37.0310   26.9040   34.7810 N   0  0  0  0  0  0  0  0  0  0  0  0
   41.0770   25.9480   34.4680 N   0  0  0  0  0  0  0  0  0  0  0  0
   41.9340   26.9610   33.9150 C   0  0  0  0  0  0  0  0  0  0  0  0
   43.3920   26.6530   33.9640 C   0  0  0  0  0  0  0  0  0  0  0  0
   43.7970   25.4170   34.4240 N   0  0  0  0  0  0  0  0  0  0  0  0
   42.9340   24.3450   34.5490 C   0  0  0  0  0  0  0  0  0  0  0  0
   41.5100   24.6500   34.9150 C   0  0  2  0  0  0  0  0  0  0  0  0
   36.6610   25.6480   33.1690 H   0  0  0  0  0  0  0  0  0  0  0  0
   38.9740   25.0550   32.9210 H   0  0  0  0  0  0  0  0  0  0  0  0
   37.6060   28.1330   36.4030 H   0  0  0  0  0  0  0  0  0  0  0  0
   41.6710   27.9140   34.4240 H   0  0  0  0  0  0  0  0  0  0  0  0
   41.5710   27.0960   32.8560 H   0  0  0  0  0  0  0  0  0  0  0  0
   43.8720   27.4370   34.6170 H   0  0  0  0  0  0  0  0  0  0  0  0
   43.8150   26.8470   32.9540 H   0  0  0  0  0  0  0  0  0  0  0  0
   44.6190   25.4360   35.0400 H   0  0  0  0  0  0  0  0  0  0  0  0
   42.9470   23.8130   33.5420 H   0  0  0  0  0  0  0  0  0  0  0  0
   43.3470   23.6370   35.2740 H   0  0  0  0  0  0  0  0  0  0  0  0
   41.3640   24.6340   36.0200 H   0  0  0  0  0  0  0  0  0  0  0  0
   40.6970   23.5150   34.3570 C   0  0  0  0  0  0  0  0  0  0  0  0
   39.6930   23.7610   34.0300 H   0  0  0  0  0  0  0  0  0  0  0  0
   41.2530   23.1110   33.4570 H   0  0  0  0  0  0  0  0  0  0  0  0
   40.7550   22.4000   35.3990 C   0  0  0  0  0  0  0  0  0  0  0  0
   40.4250   21.4420   35.0250 H   0  0  0  0  0  0  0  0  0  0  0  0
   41.7160   22.3840   35.9320 H   0  0  0  0  0  0  0  0  0  0  0  0
   39.7610   22.7790   36.5200 C   0  0  0  0  0  0  0  0  0  0  0  0
   39.9620   22.9380   37.8470 C   0  0  0  0  0  0  0  0  0  0  0  0
   40.9690   22.7820   38.2040 H   0  0  0  0  0  0  0  0  0  0  0  0
   38.8940   23.2760   38.6050 C   0  0  0  0  0  3  0  0  0  0  0  0
   37.6510   23.4410   37.9830 C   0  0  0  0  0  3  0  0  0  0  0  0
   38.1280   23.0680   36.1810 S   0  0  0  0  0  0  0  0  0  0  0  0
  1  6  1  0  0  0  0
  2  1  2  0  0  0  0
  2  3  1  0  0  0  0
  3  4  2  0  0  0  0
  4  5  1  0  0  0  0
  5 15  1  0  0  0  0
  6  5  2  0  0  0  0
  7  3  1  0  0  0  0
  7 12  1  0  0  0  0
  8  9  1  0  0  0  0
  8 16  1  0  0  0  0
  8  7  1  0  0  0  0
  9 10  1  0  0  0  0
  9 18  1  0  0  0  0
 10 11  1  0  0  0  0
 10 20  1  0  0  0  0
 11 12  1  0  0  0  0
 11 22  1  0  0  0  0
 12 23  1  1  0  0  0
 13  1  1  0  0  0  0
 14  2  1  0  0  0  0
 17  8  1  0  0  0  0
 19  9  1  0  0  0  0
 21 11  1  0  0  0  0
 24 12  1  0  0  0  0
 24 27  1  0  0  0  0
 25 24  1  0  0  0  0
 26 24  1  0  0  0  0
 27 29  1  0  0  0  0
 27 30  1  0  0  0  0
 28 27  1  0  0  0  0
 30 31  2  0  0  0  0
 31 32  1  0  0  0  0
 31 33  1  0  0  0  0
 34 33  2  0  0  0  0
 35 30  1  0  0  0  0
 35 34  1  0  0  0  0
M  END
>  <minimizedAffinity>
-4.60534525

$$$$

 OpenBabel03262523413D

 35 37  0  0  1  0  0  0  0  0999 V2000
   37.1600   23.7440   30.8630 C   0  0  0  0  0  0  0  0  0  0  0  0
   38.2550   24.1790   31.6020 C   0  0  0  0  0  0  0  0  0  0  0  0
   38.2520   25.3660   32.3040 C   0  0  0  0  0  0  0  0  0  0  0  0
   37.1030   26.0670   32.2130 N   0  0  0  0  0  0  0  0  0  0  0  0
   36.0240   25.6800   31.5090 C   0  0  0  0  0  0  0  0  0  0  0  0
   36.0660   24.5110   30.8350 N   0  0  0  0  0  0  0  0  0  0  0  0
   39.3600   25.7910   33.0460 N   0  0  0  0  0  0  0  0  0  0  0  0
   40.1300   26.8680   32.4840 C   0  0  0  0  0  0  0  0  0  0  0  0
   41.2010   27.4090   33.3680 C   0  0  0  0  0  0  0  0  0  0  0  0
   41.4400   26.7920   34.5790 N   0  0  0  0  0  0  0  0  0  0  0  0
   40.9660   25.5310   34.8840 C   0  0  0  0  0  0  0  0  0  0  0  0
   39.6410   25.1370   34.2960 C   0  0  2  0  0  0  0  0  0  0  0  0
   37.1420   22.8170   30.3050 H   0  0  0  0  0  0  0  0  0  0  0  0
   39.0810   23.4900   31.5500 H   0  0  0  0  0  0  0  0  0  0  0  0
   35.1340   26.2970   31.4820 H   0  0  0  0  0  0  0  0  0  0  0  0
   39.4020   27.6410   32.1540 H   0  0  0  0  0  0  0  0  0  0  0  0
   40.5510   26.4480   31.5260 H   0  0  0  0  0  0  0  0  0  0  0  0
   40.9430   28.4870   33.5760 H   0  0  0  0  0  0  0  0  0  0  0  0
   42.1380   27.4660   32.7720 H   0  0  0  0  0  0  0  0  0  0  0  0
   41.6110   27.4350   35.3620 H   0  0  0  0  0  0  0  0  0  0  0  0
   41.7600   24.8010   34.5200 H   0  0  0  0  0  0  0  0  0  0  0  0
   40.9230   25.4190   35.9720 H   0  0  0  0  0  0  0  0  0  0  0  0
   38.8010   25.3960   34.9810 H   0  0  0  0  0  0  0  0  0  0  0  0
   39.6710   23.6370   34.2010 C   0  0  0  0  0  0  0  0  0  0  0  0
   39.8850   23.2230   33.2230 H   0  0  0  0  0  0  0  0  0  0  0  0
   40.4800   23.2690   34.9030 H   0  0  0  0  0  0  0  0  0  0  0  0
   38.3590   23.1480   34.8090 C   0  0  0  0  0  0  0  0  0  0  0  0
   37.4910   23.6870   34.4560 H   0  0  0  0  0  0  0  0  0  0  0  0
   38.2700   22.0530   34.7710 H   0  0  0  0  0  0  0  0  0  0  0  0
   38.4350   23.4220   36.3270 C   0  0  0  0  0  0  0  0  0  0  0  0
   37.6190   24.1470   37.1250 C   0  0  0  0  0  0  0  0  0  0  0  0
   36.7740   24.6190   36.6480 H   0  0  0  0  0  0  0  0  0  0  0  0
   37.9310   24.2180   38.4400 C   0  0  0  0  0  3  0  0  0  0  0  0
   39.0690   23.5440   38.9000 C   0  0  0  0  0  3  0  0  0  0  0  0
   39.6830   22.7770   37.2720 S   0  0  0  0  0  0  0  0  0  0  0  0
  1  2  1  0  0  0  0
  2  3  2  0  0  0  0
  3  7  1  0  0  0  0
  4  3  1  0  0  0  0
  5  4  2  0  0  0  0
  6  1  2  0  0  0  0
  6  5  1  0  0  0  0
  7 12  1  0  0  0  0
  8  7  1  0  0  0  0
  8  9  1  0  0  0  0
  9 18  1  0  0  0  0
  9 10  1  0  0  0  0
 10 11  1  0  0  0  0
 10 20  1  0  0  0  0
 11 22  1  0  0  0  0
 12 11  1  0  0  0  0
 12 23  1  1  0  0  0
 13  1  1  0  0  0  0
 14  2  1  0  0  0  0
 15  5  1  0  0  0  0
 16  8  1  0  0  0  0
 17  8  1  0  0  0  0
 19  9  1  0  0  0  0
 21 11  1  0  0  0  0
 24 12  1  0  0  0  0
 24 27  1  0  0  0  0
 24 26  1  0  0  0  0
 25 24  1  0  0  0  0
 27 30  1  0  0  0  0
 28 27  1  0  0  0  0
 29 27  1  0  0  0  0
 30 31  2  0  0  0  0
 30 35  1  0  0  0  0
 31 33  1  0  0  0  0
 32 31  1  0  0  0  0
 33 34  2  0  0  0  0
 35 34  1  0  0  0  0
M  END
>  <minimizedAffinity>
-4.59985161

$$$$

 OpenBabel03262523413D

 35 37  0  0  1  0  0  0  0  0999 V2000
   38.4780   26.8700   31.9790 C   0  0  0  0  0  0  0  0  0  0  0  0
   38.6850   25.7330   32.7530 C   0  0  0  0  0  0  0  0  0  0  0  0
   38.0350   25.5220   33.9510 C   0  0  0  0  0  0  0  0  0  0  0  0
   37.1860   26.5090   34.3080 N   0  0  0  0  0  0  0  0  0  0  0  0
   36.9600   27.6210   33.5880 C   0  0  0  0  0  0  0  0  0  0  0  0
   37.6150   27.7910   32.4200 N   0  0  0  0  0  0  0  0  0  0  0  0
   38.2510   24.3730   34.7190 N   0  0  0  0  0  0  0  0  0  0  0  0
   39.0380   24.5400   35.9110 C   0  0  0  0  0  0  0  0  0  0  0  0
   39.1140   23.3410   36.7930 C   0  0  0  0  0  0  0  0  0  0  0  0
   38.5320   22.1640   36.3680 N   0  0  0  0  0  0  0  0  0  0  0  0
   38.1570   21.9430   35.0570 C   0  0  0  0  0  0  0  0  0  0  0  0
   37.6770   23.1310   34.2730 C   0  0  2  0  0  0  0  0  0  0  0  0
   38.9770   27.0550   31.0360 H   0  0  0  0  0  0  0  0  0  0  0  0
   39.4020   25.0630   32.3080 H   0  0  0  0  0  0  0  0  0  0  0  0
   36.2620   28.3720   33.9380 H   0  0  0  0  0  0  0  0  0  0  0  0
   38.6440   25.4410   36.4300 H   0  0  0  0  0  0  0  0  0  0  0  0
   40.0570   24.8500   35.5400 H   0  0  0  0  0  0  0  0  0  0  0  0
   38.6400   23.6240   37.7760 H   0  0  0  0  0  0  0  0  0  0  0  0
   40.1840   23.1720   37.0480 H   0  0  0  0  0  0  0  0  0  0  0  0
   38.0240   21.6480   37.0970 H   0  0  0  0  0  0  0  0  0  0  0  0
   39.0730   21.5090   34.5380 H   0  0  0  0  0  0  0  0  0  0  0  0
   37.3910   21.1630   35.0300 H   0  0  0  0  0  0  0  0  0  0  0  0
   36.5720   23.2500   34.3550 H   0  0  0  0  0  0  0  0  0  0  0  0
   37.9690   22.8110   32.8340 C   0  0  0  0  0  0  0  0  0  0  0  0
   38.7140   23.4310   32.3470 H   0  0  0  0  0  0  0  0  0  0  0  0
   38.3450   21.7440   32.7940 H   0  0  0  0  0  0  0  0  0  0  0  0
   36.6190   22.7890   32.1220 C   0  0  0  0  0  0  0  0  0  0  0  0
   35.8400   23.3160   32.6550 H   0  0  0  0  0  0  0  0  0  0  0  0
   36.7100   23.0500   31.0580 H   0  0  0  0  0  0  0  0  0  0  0  0
   36.1640   21.3140   32.0630 C   0  0  0  0  0  0  0  0  0  0  0  0
   34.9330   20.7740   32.2100 C   0  0  0  0  0  0  0  0  0  0  0  0
   34.1240   21.4640   32.3990 H   0  0  0  0  0  0  0  0  0  0  0  0
   34.8240   19.4300   32.1090 C   0  0  0  0  0  3  0  0  0  0  0  0
   35.9780   18.6770   31.8610 C   0  0  0  0  0  3  0  0  0  0  0  0
   37.2720   20.0660   31.7790 S   0  0  0  0  0  0  0  0  0  0  0  0
  1  6  2  0  0  0  0
  1  2  1  0  0  0  0
  2  3  2  0  0  0  0
  3  4  1  0  0  0  0
  3  7  1  0  0  0  0
  5 15  1  0  0  0  0
  5  4  2  0  0  0  0
  6  5  1  0  0  0  0
  7  8  1  0  0  0  0
  8 16  1  0  0  0  0
  8  9  1  0  0  0  0
  9 19  1  0  0  0  0
  9 18  1  0  0  0  0
 10  9  1  0  0  0  0
 10 20  1  0  0  0  0
 11 10  1  0  0  0  0
 12 23  1  1  0  0  0
 12  7  1  0  0  0  0
 12 11  1  0  0  0  0
 13  1  1  0  0  0  0
 14  2  1  0  0  0  0
 17  8  1  0  0  0  0
 21 11  1  0  0  0  0
 22 11  1  0  0  0  0
 24 12  1  0  0  0  0
 25 24  1  0  0  0  0
 26 24  1  0  0  0  0
 27 28  1  0  0  0  0
 27 24  1  0  0  0  0
 29 27  1  0  0  0  0
 30 27  1  0  0  0  0
 30 31  2  0  0  0  0
 31 32  1  0  0  0  0
 33 31  1  0  0  0  0
 34 33  2  0  0  0  0
 35 34  1  0  0  0  0
 35 30  1  0  0  0  0
M  END
>  <minimizedAffinity>
-4.52201843

$$$$

 OpenBabel03262523413D

 35 37  0  0  1  0  0  0  0  0999 V2000
   39.5760   25.3090   30.9190 C   0  0  0  0  0  0  0  0  0  0  0  0
   38.8730   26.2820   31.6220 C   0  0  0  0  0  0  0  0  0  0  0  0
   37.5150   26.1980   31.8500 C   0  0  0  0  0  0  0  0  0  0  0  0
   36.9280   25.0970   31.3330 N   0  0  0  0  0  0  0  0  0  0  0  0
   37.5740   24.1360   30.6480 C   0  0  0  0  0  0  0  0  0  0  0  0
   38.9030   24.2540   30.4470 N   0  0  0  0  0  0  0  0  0  0  0  0
   36.8200   27.1820   32.5600 N   0  0  0  0  0  0  0  0  0  0  0  0
   35.9870   28.0610   31.7850 C   0  0  0  0  0  0  0  0  0  0  0  0
   35.1340   28.9900   32.5800 C   0  0  0  0  0  0  0  0  0  0  0  0
   35.2760   29.0140   33.9520 N   0  0  0  0  0  0  0  0  0  0  0  0
   36.3630   28.4630   34.6040 C   0  0  0  0  0  0  0  0  0  0  0  0
   36.9820   27.2410   33.9890 C   0  0  2  0  0  0  0  0  0  0  0  0
   40.6410   25.3560   30.7300 H   0  0  0  0  0  0  0  0  0  0  0  0
   39.5090   27.0870   31.9500 H   0  0  0  0  0  0  0  0  0  0  0  0
   37.0360   23.2780   30.2630 H   0  0  0  0  0  0  0  0  0  0  0  0
   35.4030   27.4180   31.0910 H   0  0  0  0  0  0  0  0  0  0  0  0
   36.7040   28.6200   31.1180 H   0  0  0  0  0  0  0  0  0  0  0  0
   34.0610   28.7310   32.3500 H   0  0  0  0  0  0  0  0  0  0  0  0
   35.2620   30.0120   32.1610 H   0  0  0  0  0  0  0  0  0  0  0  0
   34.3930   29.0740   34.4750 H   0  0  0  0  0  0  0  0  0  0  0  0
   37.1480   29.2850   34.6530 H   0  0  0  0  0  0  0  0  0  0  0  0
   36.0850   28.2420   35.6390 H   0  0  0  0  0  0  0  0  0  0  0  0
   36.5240   26.3080   34.3940 H   0  0  0  0  0  0  0  0  0  0  0  0
   38.4160   27.2450   34.4360 C   0  0  0  0  0  0  0  0  0  0  0  0
   39.1030   26.6430   33.8520 H   0  0  0  0  0  0  0  0  0  0  0  0
   38.7840   28.3150   34.3850 H   0  0  0  0  0  0  0  0  0  0  0  0
   38.3980   26.8980   35.9230 C   0  0  0  0  0  0  0  0  0  0  0  0
   39.2710   27.2440   36.4580 H   0  0  0  0  0  0  0  0  0  0  0  0
   37.4370   27.1480   36.3930 H   0  0  0  0  0  0  0  0  0  0  0  0
   38.4260   25.3570   36.0260 C   0  0  0  0  0  0  0  0  0  0  0  0
   37.7920   24.5280   36.8870 C   0  0  0  0  0  0  0  0  0  0  0  0
   37.1610   24.9950   37.6270 H   0  0  0  0  0  0  0  0  0  0  0  0
   38.0030   23.1990   36.7450 C   0  0  0  0  0  3  0  0  0  0  0  0
   38.8570   22.7570   35.7270 C   0  0  0  0  0  3  0  0  0  0  0  0
   39.3540   24.4240   34.9610 S   0  0  0  0  0  0  0  0  0  0  0  0
  1  2  1  0  0  0  0
  2  3  2  0  0  0  0
  2 14  1  0  0  0  0
  3  7  1  0  0  0  0
  4  3  1  0  0  0  0
  5  4  2  0  0  0  0
  6  5  1  0  0  0  0
  6  1  2  0  0  0  0
  7 12  1  0  0  0  0
  8  7  1  0  0  0  0
  8  9  1  0  0  0  0
  9 10  1  0  0  0  0
 10 20  1  0  0  0  0
 10 11  1  0  0  0  0
 11 21  1  0  0  0  0
 11 22  1  0  0  0  0
 12 23  1  1  0  0  0
 12 24  1  0  0  0  0
 12 11  1  0  0  0  0
 13  1  1  0  0  0  0
 15  5  1  0  0  0  0
 16  8  1  0  0  0  0
 17  8  1  0  0  0  0
 18  9  1  0  0  0  0
 19  9  1  0  0  0  0
 24 27  1  0  0  0  0
 25 24  1  0  0  0  0
 26 24  1  0  0  0  0
 27 30  1  0  0  0  0
 27 29  1  0  0  0  0
 27 28  1  0  0  0  0
 30 31  2  0  0  0  0
 31 32  1  0  0  0  0
 33 31  1  0  0  0  0
 34 33  2  0  0  0  0
 35 34  1  0  0  0  0
 35 30  1  0  0  0  0
M  END
>  <minimizedAffinity>
-4.49366808

$$$$
