
 OpenBabel03272510133D

 38 41  0  0  0  0  0  0  0  0999 V2000
   37.7390   30.7180   49.7110 O   0  0  0  0  0  0  0  0  0  0  0  0
   34.1720   28.9200   48.3820 C   0  0  0  0  0  0  0  0  0  0  0  0
   34.8880   28.3920   49.4160 C   0  0  0  0  0  0  0  0  0  0  0  0
   36.0540   28.9220   49.8990 C   0  0  0  0  0  0  0  0  0  0  0  0
   36.5780   30.0540   49.3470 C   0  0  0  0  0  0  0  0  0  0  0  0
   35.8550   30.6060   48.2880 C   0  0  0  0  0  0  0  0  0  0  0  0
   34.7120   30.0580   47.8370 N   0  0  0  0  0  0  0  0  0  0  0  0
   34.5350   27.4960   49.9040 H   0  0  0  0  0  0  0  0  0  0  0  0
   36.6170   28.4960   50.7210 H   0  0  0  0  0  0  0  0  0  0  0  0
   36.2010   31.5050   47.7920 H   0  0  0  0  0  0  0  0  0  0  0  0
   32.1000   27.5570   48.6150 C   0  0  0  0  0  0  0  0  0  0  0  0
   32.9540   28.3800   47.8630 C   0  0  0  0  0  0  0  0  0  0  0  0
   32.5720   28.6570   46.5760 C   0  0  0  0  0  0  0  0  0  0  0  0
   31.4080   28.1380   46.0810 N   0  0  0  0  0  0  0  0  0  0  0  0
   30.6160   27.3420   46.8600 C   0  0  0  0  0  0  0  0  0  0  0  0
   30.9540   27.0460   48.1300 N   0  0  0  0  0  0  0  0  0  0  0  0
   32.3550   27.3120   49.6310 H   0  0  0  0  0  0  0  0  0  0  0  0
   33.2100   29.2910   45.9650 H   0  0  0  0  0  0  0  0  0  0  0  0
   29.6910   26.9240   46.4820 H   0  0  0  0  0  0  0  0  0  0  0  0
   38.3730   31.6110   48.8800 C   0  0  0  0  0  0  0  0  0  0  0  0
   38.5260   32.8710   49.4140 C   0  0  0  0  0  0  0  0  0  0  0  0
   39.1810   33.6550   48.4600 C   0  0  0  0  0  0  0  0  0  0  0  0
   39.3990   32.8730   47.4090 N   0  0  0  0  0  0  0  0  0  0  0  0
   38.9270   31.6920   47.6610 N   0  0  0  0  0  0  0  0  0  0  0  0
   38.2720   33.3730   50.3510 H   0  0  0  0  0  0  0  0  0  0  0  0
   39.4880   34.6950   48.4850 H   0  0  0  0  0  0  0  0  0  0  0  0
   40.0540   33.2430   46.1720 C   0  0  0  0  0  0  0  0  0  0  0  0
   40.2300   34.3310   46.1300 H   0  0  0  0  0  0  0  0  0  0  0  0
   41.0280   32.6920   46.1320 H   0  0  0  0  0  0  0  0  0  0  0  0
   39.1610   32.8980   45.0240 C   0  0  0  0  0  0  0  0  0  0  0  0
   38.1940   32.5120   45.4690 H   0  0  0  0  0  0  0  0  0  0  0  0
   38.8310   33.8680   44.5480 H   0  0  0  0  0  0  0  0  0  0  0  0
   39.6970   31.9710   44.0450 C   0  0  0  0  0  0  0  0  0  0  0  0
   40.4980   30.7230   43.9110 C   0  0  0  0  0  0  0  0  0  0  0  0
   40.7900   30.3850   44.8790 H   0  0  0  0  0  0  0  0  0  0  0  0
   40.6650   30.3080   42.6240 C   0  0  0  0  0  0  0  0  0  0  0  0
   40.1480   30.9700   41.5270 C   0  0  0  0  0  0  0  0  0  0  0  0
   39.2870   32.3820   42.2400 S   0  0  0  0  0  0  0  0  0  0  0  0
  2  3  1  0  0  0  0
  3  4  2  0  0  0  0
  3  8  1  0  0  0  0
  4  9  1  0  0  0  0
  5  1  1  0  0  0  0
  5  4  1  0  0  0  0
  6  5  2  0  0  0  0
  7  6  1  0  0  0  0
  7  2  2  0  0  0  0
 10  6  1  0  0  0  0
 11 17  1  0  0  0  0
 12  2  1  0  0  0  0
 12 11  2  0  0  0  0
 13 12  1  0  0  0  0
 14 13  2  0  0  0  0
 14 15  1  0  0  0  0
 15 16  2  0  0  0  0
 16 11  1  0  0  0  0
 18 13  1  0  0  0  0
 19 15  1  0  0  0  0
 20 21  1  0  0  0  0
 20  1  1  0  0  0  0
 21 25  1  0  0  0  0
 22 26  1  0  0  0  0
 22 21  2  0  0  0  0
 23 24  1  0  0  0  0
 23 22  1  0  0  0  0
 24 20  2  0  0  0  0
 27 23  1  0  0  0  0
 28 27  1  0  0  0  0
 29 27  1  0  0  0  0
 30 31  1  0  0  0  0
 30 27  1  0  0  0  0
 32 30  1  0  0  0  0
 33 30  1  0  0  0  0
 34 33  2  0  0  0  0
 34 35  1  0  0  0  0
 36 34  1  0  0  0  0
 37 38  1  0  0  0  0
 37 36  2  0  0  0  0
 38 33  1  0  0  0  0
M  END
>  <minimizedAffinity>
-6.01434565

>  <minimizedRMSD>
2.30271983

$$$$
