
 OpenBabel03272510113D

 32 35  0  0  0  0  0  0  0  0999 V2000
   32.8920   28.2450   49.0660 C   0  0  0  0  0  0  0  0  0  0  0  0
   33.0240   29.1100   50.0970 C   0  0  0  0  0  0  0  0  0  0  0  0
   34.2290   29.6270   50.5410 C   0  0  0  0  0  0  0  0  0  0  0  0
   35.3890   29.2670   49.9240 C   0  0  0  0  0  0  0  0  0  0  0  0
   35.2600   28.3720   48.8540 C   0  0  0  0  0  0  0  0  0  0  0  0
   34.0620   27.8980   48.4630 N   0  0  0  0  0  0  0  0  0  0  0  0
   32.1580   29.4520   50.6480 H   0  0  0  0  0  0  0  0  0  0  0  0
   34.3340   30.3180   51.3650 H   0  0  0  0  0  0  0  0  0  0  0  0
   36.1100   28.0090   48.2800 H   0  0  0  0  0  0  0  0  0  0  0  0
   30.4730   27.6690   49.3940 C   0  0  0  0  0  0  0  0  0  0  0  0
   31.6390   27.7120   48.6110 C   0  0  0  0  0  0  0  0  0  0  0  0
   31.5410   27.2000   47.3250 C   0  0  0  0  0  0  0  0  0  0  0  0
   30.3640   26.6920   46.8800 N   0  0  0  0  0  0  0  0  0  0  0  0
   29.2710   26.6780   47.6820 C   0  0  0  0  0  0  0  0  0  0  0  0
   29.3200   27.1600   48.9260 N   0  0  0  0  0  0  0  0  0  0  0  0
   30.5140   28.0550   50.3910 H   0  0  0  0  0  0  0  0  0  0  0  0
   32.4210   27.2060   46.6630 H   0  0  0  0  0  0  0  0  0  0  0  0
   28.3570   26.2560   47.2640 H   0  0  0  0  0  0  0  0  0  0  0  0
   36.6870   29.6850   50.2300 O   0  0  0  0  0  0  0  0  0  0  0  0
   37.4370   30.4430   49.3460 C   0  0  0  0  0  0  0  0  0  0  0  0
   37.8400   31.6860   49.8500 C   0  0  0  0  0  0  0  0  0  0  0  0
   38.5760   32.3530   48.8930 C   0  0  0  0  0  0  0  0  0  0  0  0
   38.5980   31.5100   47.8520 N   0  0  0  0  0  0  0  0  0  0  0  0
   37.9410   30.4030   48.1060 N   0  0  0  0  0  0  0  0  0  0  0  0
   37.6910   32.2070   50.8120 H   0  0  0  0  0  0  0  0  0  0  0  0
   39.0560   33.3280   48.8990 H   0  0  0  0  0  0  0  0  0  0  0  0
   39.2160   31.6610   46.5560 C   0  0  0  0  0  0  0  0  0  0  0  0
   39.7800   32.8570   46.2120 C   0  0  0  0  0  0  0  0  0  0  0  0
   39.8510   33.7750   46.7760 H   0  0  0  0  0  0  0  0  0  0  0  0
   40.3810   33.1290   45.0490 C   0  0  0  0  0  3  0  0  0  0  0  0
   40.4060   32.0130   44.1110 C   0  0  0  0  0  3  0  0  0  0  0  0
   39.5030   30.6060   45.0650 S   0  0  0  0  0  0  0  0  0  0  0  0
  1  2  1  0  0  0  0
  2  3  2  0  0  0  0
  2  7  1  0  0  0  0
  3  8  1  0  0  0  0
  4 19  1  0  0  0  0
  4  3  1  0  0  0  0
  5  4  2  0  0  0  0
  6  5  1  0  0  0  0
  6  1  2  0  0  0  0
  9  5  1  0  0  0  0
 10 16  1  0  0  0  0
 11  1  1  0  0  0  0
 11 10  2  0  0  0  0
 12 11  1  0  0  0  0
 13 12  2  0  0  0  0
 13 14  1  0  0  0  0
 14 15  2  0  0  0  0
 15 10  1  0  0  0  0
 17 12  1  0  0  0  0
 18 14  1  0  0  0  0
 20 21  1  0  0  0  0
 20 19  1  0  0  0  0
 21 25  1  0  0  0  0
 22 26  1  0  0  0  0
 22 21  2  0  0  0  0
 23 24  1  0  0  0  0
 23 22  1  0  0  0  0
 24 20  2  0  0  0  0
 27 23  1  0  0  0  0
 28 27  2  0  0  0  0
 28 29  1  0  0  0  0
 30 28  1  0  0  0  0
 31 30  2  0  0  0  0
 31 32  1  0  0  0  0
 32 27  1  0  0  0  0
M  END
>  <minimizedAffinity>
-5.70856237

>  <minimizedRMSD>
2.00458574

$$$$
