
 OpenBabel03272510343D

 25 27  0  0  0  0  0  0  0  0999 V2000
   35.9360   30.0740   47.7500 C   0  0  0  0  0  0  0  0  0  0  0  0
   35.2310   30.0580   46.5650 C   0  0  0  0  0  0  0  0  0  0  0  0
   34.1790   29.1830   46.3760 C   0  0  0  0  0  0  0  0  0  0  0  0
   33.8470   28.3240   47.3950 C   0  0  0  0  0  0  0  0  0  0  0  0
   34.5350   28.3190   48.5900 C   0  0  0  0  0  0  0  0  0  0  0  0
   35.5850   29.1990   48.7680 C   0  0  0  0  0  0  0  0  0  0  0  0
   35.4930   30.7440   45.7460 H   0  0  0  0  0  0  0  0  0  0  0  0
   33.6260   29.1690   45.4440 H   0  0  0  0  0  0  0  0  0  0  0  0
   33.0330   27.6070   47.3270 H   0  0  0  0  0  0  0  0  0  0  0  0
   34.3400   27.6740   49.4470 H   0  0  0  0  0  0  0  0  0  0  0  0
   37.9120   32.8270   49.0540 C   0  0  0  0  0  0  0  0  0  0  0  0
   39.0140   32.9070   48.2030 C   0  0  0  0  0  0  0  0  0  0  0  0
   39.0630   31.9740   47.1510 C   0  0  0  0  0  0  0  0  0  0  0  0
   38.0630   31.0670   47.0190 N   0  0  0  0  0  0  0  0  0  0  0  0
   37.0220   31.0280   47.8610 C   0  0  0  0  0  0  0  0  0  0  0  0
   36.9520   31.9190   48.8860 N   0  0  0  0  0  0  0  0  0  0  0  0
   37.8700   33.5550   49.8770 H   0  0  0  0  0  0  0  0  0  0  0  0
   39.7730   33.6690   48.3830 H   0  0  0  0  0  0  0  0  0  0  0  0
   39.9170   32.0390   46.4960 H   0  0  0  0  0  0  0  0  0  0  0  0
   36.3590   29.2400   50.0210 C   0  0  0  0  0  0  0  0  0  0  0  0
   35.8050   29.6690   51.2690 C   0  0  0  0  0  0  0  0  0  0  0  0
   34.7770   29.9860   51.3350 H   0  0  0  0  0  0  0  0  0  0  0  0
   36.6260   29.6600   52.3620 C   0  0  0  0  0  3  0  0  0  0  0  0
   37.9720   29.2310   52.2040 C   0  0  0  0  0  3  0  0  0  0  0  0
   38.1200   28.8110   50.4450 S   0  0  0  0  0  0  0  0  0  0  0  0
  1 15  1  0  0  0  0
  1  6  1  0  0  0  0
  2  1  2  0  0  0  0
  3  2  1  0  0  0  0
  3  4  2  0  0  0  0
  4  5  1  0  0  0  0
  5  6  2  0  0  0  0
  5 10  1  0  0  0  0
  6 20  1  0  0  0  0
  7  2  1  0  0  0  0
  8  3  1  0  0  0  0
  9  4  1  0  0  0  0
 11 17  1  0  0  0  0
 12 18  1  0  0  0  0
 12 11  2  0  0  0  0
 13 12  1  0  0  0  0
 14 13  2  0  0  0  0
 14 15  1  0  0  0  0
 15 16  2  0  0  0  0
 16 11  1  0  0  0  0
 19 13  1  0  0  0  0
 20 25  1  0  0  0  0
 20 21  2  0  0  0  0
 21 22  1  0  0  0  0
 21 23  1  0  0  0  0
 24 23  2  0  0  0  0
 25 24  1  0  0  0  0
M  END
>  <minimizedAffinity>
-3.59511447

>  <minimizedRMSD>
1.1104784

$$$$
