
 OpenBabel03272502243D

 26 28  0  0  0  0  0  0  0  0999 V2000
   35.7420   27.8700   31.9460 C   0  0  0  0  0  0  0  0  0  0  0  0
   36.6110   26.9140   32.4800 C   0  0  0  0  0  0  0  0  0  0  0  0
   37.0690   27.0460   33.7770 C   0  0  0  0  0  0  0  0  0  0  0  0
   36.6380   28.1260   34.4780 N   0  0  0  0  0  0  0  0  0  0  0  0
   35.8040   29.0340   33.9510 C   0  0  0  0  0  0  0  0  0  0  0  0
   35.3600   28.9000   32.6860 N   0  0  0  0  0  0  0  0  0  0  0  0
   35.3680   27.7950   30.9410 H   0  0  0  0  0  0  0  0  0  0  0  0
   36.9340   26.0790   31.9150 H   0  0  0  0  0  0  0  0  0  0  0  0
   37.9860   26.1230   34.4320 C   0  0  0  0  0  0  0  0  0  0  0  0
   39.1740   25.7500   33.8570 C   0  0  0  0  0  0  0  0  0  0  0  0
   40.0490   24.8650   34.4670 C   0  0  0  0  0  0  0  0  0  0  0  0
   39.7320   24.3430   35.6770 N   0  0  0  0  0  0  0  0  0  0  0  0
   38.5680   24.7210   36.2200 C   0  0  0  0  0  0  0  0  0  0  0  0
   37.7150   25.5750   35.6400 N   0  0  0  0  0  0  0  0  0  0  0  0
   39.4570   26.1500   32.8880 H   0  0  0  0  0  0  0  0  0  0  0  0
   40.9850   24.5720   34.0100 H   0  0  0  0  0  0  0  0  0  0  0  0
   38.1830   24.1690   37.5490 C   0  0  0  0  0  0  0  0  0  0  0  0
   37.0010   23.4800   37.4000 F   0  0  0  0  0  0  0  0  0  0  0  0
   39.2040   23.3450   38.0520 F   0  0  0  0  0  0  0  0  0  0  0  0
   37.9670   25.1540   38.4630 F   0  0  0  0  0  0  0  0  0  0  0  0
   35.4410   30.1500   34.8760 C   0  0  0  0  0  0  0  0  0  0  0  0
   36.0750   31.0150   35.6460 C   0  0  0  0  0  0  0  0  0  0  0  0
   37.1460   30.8860   35.5990 H   0  0  0  0  0  0  0  0  0  0  0  0
   35.3510   31.9200   36.3700 C   0  0  0  0  0  3  0  0  0  0  0  0
   33.9560   31.8660   36.2430 C   0  0  0  0  0  3  0  0  0  0  0  0
   33.7490   30.4340   35.0180 S   0  0  0  0  0  0  0  0  0  0  0  0
  1  2  2  0  0  0  0
  1  6  1  0  0  0  0
  2  3  1  0  0  0  0
  3  9  1  0  0  0  0
  3  4  2  0  0  0  0
  5  4  1  0  0  0  0
  5 21  1  0  0  0  0
  6  5  2  0  0  0  0
  7  1  1  0  0  0  0
  8  2  1  0  0  0  0
  9 14  1  0  0  0  0
 10  9  2  0  0  0  0
 10 11  1  0  0  0  0
 11 12  2  0  0  0  0
 12 13  1  0  0  0  0
 13 17  1  0  0  0  0
 14 13  2  0  0  0  0
 15 10  1  0  0  0  0
 16 11  1  0  0  0  0
 17 19  1  0  0  0  0
 17 20  1  0  0  0  0
 18 17  1  0  0  0  0
 21 26  1  0  0  0  0
 21 22  2  0  0  0  0
 22 24  1  0  0  0  0
 23 22  1  0  0  0  0
 25 24  2  0  0  0  0
 26 25  1  0  0  0  0
M  END
>  <minimizedAffinity>
-5.63780022

$$$$

 OpenBabel03272502243D

 26 28  0  0  0  0  0  0  0  0999 V2000
   37.4550   24.8100   31.3710 C   0  0  0  0  0  0  0  0  0  0  0  0
   38.0350   24.0520   32.3930 C   0  0  0  0  0  0  0  0  0  0  0  0
   38.0860   24.5540   33.6800 C   0  0  0  0  0  0  0  0  0  0  0  0
   37.5560   25.7870   33.8840 N   0  0  0  0  0  0  0  0  0  0  0  0
   37.0030   26.5010   32.8930 C   0  0  0  0  0  0  0  0  0  0  0  0
   36.9550   26.0070   31.6410 N   0  0  0  0  0  0  0  0  0  0  0  0
   37.3990   24.4480   30.3600 H   0  0  0  0  0  0  0  0  0  0  0  0
   38.4420   23.0930   32.2100 H   0  0  0  0  0  0  0  0  0  0  0  0
   38.6770   23.8630   34.8170 C   0  0  0  0  0  0  0  0  0  0  0  0
   39.6670   22.9250   34.6620 C   0  0  0  0  0  0  0  0  0  0  0  0
   40.2300   22.2540   35.7370 C   0  0  0  0  0  0  0  0  0  0  0  0
   39.7970   22.5270   36.9920 N   0  0  0  0  0  0  0  0  0  0  0  0
   38.8310   23.4460   37.1200 C   0  0  0  0  0  0  0  0  0  0  0  0
   38.2800   24.1000   36.0900 N   0  0  0  0  0  0  0  0  0  0  0  0
   40.0350   22.6840   33.6700 H   0  0  0  0  0  0  0  0  0  0  0  0
   41.0090   21.5150   35.6110 H   0  0  0  0  0  0  0  0  0  0  0  0
   38.3290   23.7740   38.4840 C   0  0  0  0  0  0  0  0  0  0  0  0
   37.8780   25.0740   38.4720 F   0  0  0  0  0  0  0  0  0  0  0  0
   37.3160   22.8770   38.8620 F   0  0  0  0  0  0  0  0  0  0  0  0
   39.3140   23.6940   39.4190 F   0  0  0  0  0  0  0  0  0  0  0  0
   36.4720   27.8340   33.3130 C   0  0  0  0  0  0  0  0  0  0  0  0
   36.2370   28.4700   34.4450 C   0  0  0  0  0  0  0  0  0  0  0  0
   36.4960   27.8690   35.3050 H   0  0  0  0  0  0  0  0  0  0  0  0
   35.7250   29.7360   34.4060 C   0  0  0  0  0  3  0  0  0  0  0  0
   35.4810   30.2840   33.1390 C   0  0  0  0  0  3  0  0  0  0  0  0
   36.0310   28.8660   32.0080 S   0  0  0  0  0  0  0  0  0  0  0  0
  1  6  2  0  0  0  0
  1  2  1  0  0  0  0
  2  3  2  0  0  0  0
  3  4  1  0  0  0  0
  3  9  1  0  0  0  0
  5 21  1  0  0  0  0
  5  4  2  0  0  0  0
  6  5  1  0  0  0  0
  7  1  1  0  0  0  0
  8  2  1  0  0  0  0
  9 14  1  0  0  0  0
 10  9  2  0  0  0  0
 10 11  1  0  0  0  0
 11 12  2  0  0  0  0
 12 13  1  0  0  0  0
 13 17  1  0  0  0  0
 14 13  2  0  0  0  0
 15 10  1  0  0  0  0
 16 11  1  0  0  0  0
 17 19  1  0  0  0  0
 17 20  1  0  0  0  0
 18 17  1  0  0  0  0
 21 22  2  0  0  0  0
 22 23  1  0  0  0  0
 24 22  1  0  0  0  0
 25 24  2  0  0  0  0
 26 25  1  0  0  0  0
 26 21  1  0  0  0  0
M  END
>  <minimizedAffinity>
-5.61987114

$$$$

 OpenBabel03272502243D

 26 28  0  0  0  0  0  0  0  0999 V2000
   36.2270   28.4450   34.1320 C   0  0  0  0  0  0  0  0  0  0  0  0
   36.6720   27.3360   34.8580 C   0  0  0  0  0  0  0  0  0  0  0  0
   37.5500   26.4400   34.2780 C   0  0  0  0  0  0  0  0  0  0  0  0
   37.9410   26.6930   33.0030 N   0  0  0  0  0  0  0  0  0  0  0  0
   37.5040   27.7620   32.3210 C   0  0  0  0  0  0  0  0  0  0  0  0
   36.6490   28.6330   32.8900 N   0  0  0  0  0  0  0  0  0  0  0  0
   35.5450   29.1610   34.5550 H   0  0  0  0  0  0  0  0  0  0  0  0
   36.3540   27.1590   35.8520 H   0  0  0  0  0  0  0  0  0  0  0  0
   38.0680   25.2460   34.9310 C   0  0  0  0  0  0  0  0  0  0  0  0
   38.6790   24.2400   34.2250 C   0  0  0  0  0  0  0  0  0  0  0  0
   39.1670   23.0940   34.8350 C   0  0  0  0  0  0  0  0  0  0  0  0
   39.0450   22.9510   36.1760 N   0  0  0  0  0  0  0  0  0  0  0  0
   38.4460   23.9440   36.8460 C   0  0  0  0  0  0  0  0  0  0  0  0
   37.9700   25.0550   36.2680 N   0  0  0  0  0  0  0  0  0  0  0  0
   38.7920   24.3240   33.1490 H   0  0  0  0  0  0  0  0  0  0  0  0
   39.6480   22.3030   34.2740 H   0  0  0  0  0  0  0  0  0  0  0  0
   38.2920   23.8240   38.3220 C   0  0  0  0  0  0  0  0  0  0  0  0
   39.4830   23.3700   38.8410 F   0  0  0  0  0  0  0  0  0  0  0  0
   37.9220   25.0600   38.8790 F   0  0  0  0  0  0  0  0  0  0  0  0
   37.3310   22.9210   38.6590 F   0  0  0  0  0  0  0  0  0  0  0  0
   38.0460   27.8720   30.9320 C   0  0  0  0  0  0  0  0  0  0  0  0
   39.0820   27.4100   30.2570 C   0  0  0  0  0  0  0  0  0  0  0  0
   39.7120   26.7810   30.8680 H   0  0  0  0  0  0  0  0  0  0  0  0
   39.2300   27.7560   28.9430 C   0  0  0  0  0  3  0  0  0  0  0  0
   38.2520   28.5950   28.3920 C   0  0  0  0  0  3  0  0  0  0  0  0
   37.1050   28.8570   29.8790 S   0  0  0  0  0  0  0  0  0  0  0  0
  1  7  1  0  0  0  0
  1  2  1  0  0  0  0
  2  8  1  0  0  0  0
  3  2  2  0  0  0  0
  3  9  1  0  0  0  0
  4  3  1  0  0  0  0
  5  6  1  0  0  0  0
  5  4  2  0  0  0  0
  6  1  2  0  0  0  0
  9 14  1  0  0  0  0
 10 11  1  0  0  0  0
 10  9  2  0  0  0  0
 11 12  2  0  0  0  0
 12 13  1  0  0  0  0
 13 17  1  0  0  0  0
 14 13  2  0  0  0  0
 15 10  1  0  0  0  0
 16 11  1  0  0  0  0
 17 20  1  0  0  0  0
 17 18  1  0  0  0  0
 17 19  1  0  0  0  0
 21  5  1  0  0  0  0
 22 23  1  0  0  0  0
 22 21  2  0  0  0  0
 24 22  1  0  0  0  0
 25 24  2  0  0  0  0
 25 26  1  0  0  0  0
 26 21  1  0  0  0  0
M  END
>  <minimizedAffinity>
-5.51386833

$$$$

 OpenBabel03272502243D

 26 28  0  0  0  0  0  0  0  0999 V2000
   35.7970   29.4710   31.4320 C   0  0  0  0  0  0  0  0  0  0  0  0
   36.3510   28.2180   31.7130 C   0  0  0  0  0  0  0  0  0  0  0  0
   36.5110   27.8140   33.0250 C   0  0  0  0  0  0  0  0  0  0  0  0
   36.1100   28.6790   33.9920 N   0  0  0  0  0  0  0  0  0  0  0  0
   35.5800   29.8770   33.7050 C   0  0  0  0  0  0  0  0  0  0  0  0
   35.4260   30.2660   32.4250 N   0  0  0  0  0  0  0  0  0  0  0  0
   35.6590   29.8150   30.4220 H   0  0  0  0  0  0  0  0  0  0  0  0
   36.6560   27.5610   30.9420 H   0  0  0  0  0  0  0  0  0  0  0  0
   37.0880   26.5420   33.4360 C   0  0  0  0  0  0  0  0  0  0  0  0
   37.4010   25.5610   32.5310 C   0  0  0  0  0  0  0  0  0  0  0  0
   37.9410   24.3420   32.9130 C   0  0  0  0  0  0  0  0  0  0  0  0
   38.1750   24.1000   34.2250 N   0  0  0  0  0  0  0  0  0  0  0  0
   37.8630   25.0720   35.0920 C   0  0  0  0  0  0  0  0  0  0  0  0
   37.3400   26.2520   34.7350 N   0  0  0  0  0  0  0  0  0  0  0  0
   37.2250   25.7230   31.4720 H   0  0  0  0  0  0  0  0  0  0  0  0
   38.1860   23.5700   32.1960 H   0  0  0  0  0  0  0  0  0  0  0  0
   38.1050   24.8440   36.5440 C   0  0  0  0  0  0  0  0  0  0  0  0
   38.2710   26.0700   37.1470 F   0  0  0  0  0  0  0  0  0  0  0  0
   37.0390   24.1270   37.1120 F   0  0  0  0  0  0  0  0  0  0  0  0
   39.2410   24.1270   36.7610 F   0  0  0  0  0  0  0  0  0  0  0  0
   35.2000   30.6870   34.9020 C   0  0  0  0  0  0  0  0  0  0  0  0
   35.8100   31.4490   35.7910 C   0  0  0  0  0  0  0  0  0  0  0  0
   36.8730   31.5060   35.6080 H   0  0  0  0  0  0  0  0  0  0  0  0
   35.0760   32.0420   36.7780 C   0  0  0  0  0  3  0  0  0  0  0  0
   33.6960   31.7960   36.7800 C   0  0  0  0  0  3  0  0  0  0  0  0
   33.5190   30.6580   35.2740 S   0  0  0  0  0  0  0  0  0  0  0  0
  1  2  2  0  0  0  0
  1  6  1  0  0  0  0
  2  3  1  0  0  0  0
  3  9  1  0  0  0  0
  3  4  2  0  0  0  0
  5  4  1  0  0  0  0
  5 21  1  0  0  0  0
  6  5  2  0  0  0  0
  7  1  1  0  0  0  0
  8  2  1  0  0  0  0
  9 14  1  0  0  0  0
 10 11  1  0  0  0  0
 10  9  2  0  0  0  0
 11 12  2  0  0  0  0
 12 13  1  0  0  0  0
 13 17  1  0  0  0  0
 14 13  2  0  0  0  0
 15 10  1  0  0  0  0
 16 11  1  0  0  0  0
 17 20  1  0  0  0  0
 17 19  1  0  0  0  0
 17 18  1  0  0  0  0
 21 26  1  0  0  0  0
 21 22  2  0  0  0  0
 22 24  1  0  0  0  0
 23 22  1  0  0  0  0
 24 25  2  0  0  0  0
 26 25  1  0  0  0  0
M  END
>  <minimizedAffinity>
-5.46930838

$$$$

 OpenBabel03272502243D

 26 28  0  0  0  0  0  0  0  0999 V2000
   37.8460   24.7950   31.9390 C   0  0  0  0  0  0  0  0  0  0  0  0
   38.2670   24.1440   33.1030 C   0  0  0  0  0  0  0  0  0  0  0  0
   38.0900   24.7480   34.3330 C   0  0  0  0  0  0  0  0  0  0  0  0
   37.5020   25.9710   34.3430 N   0  0  0  0  0  0  0  0  0  0  0  0
   37.1040   26.5820   33.2180 C   0  0  0  0  0  0  0  0  0  0  0  0
   37.2780   25.9890   32.0210 N   0  0  0  0  0  0  0  0  0  0  0  0
   37.9680   24.3520   30.9670 H   0  0  0  0  0  0  0  0  0  0  0  0
   38.7230   23.1890   33.0710 H   0  0  0  0  0  0  0  0  0  0  0  0
   38.5010   24.1730   35.6060 C   0  0  0  0  0  0  0  0  0  0  0  0
   37.7550   24.3300   36.7470 C   0  0  0  0  0  0  0  0  0  0  0  0
   38.1410   23.7950   37.9670 C   0  0  0  0  0  0  0  0  0  0  0  0
   39.2940   23.0880   38.0480 N   0  0  0  0  0  0  0  0  0  0  0  0
   40.0060   22.9460   36.9230 C   0  0  0  0  0  0  0  0  0  0  0  0
   39.6430   23.4580   35.7390 N   0  0  0  0  0  0  0  0  0  0  0  0
   36.8270   24.8920   36.7160 H   0  0  0  0  0  0  0  0  0  0  0  0
   37.5510   23.9220   38.8650 H   0  0  0  0  0  0  0  0  0  0  0  0
   41.2790   22.1750   36.9710 C   0  0  0  0  0  0  0  0  0  0  0  0
   41.3430   21.3840   35.8470 F   0  0  0  0  0  0  0  0  0  0  0  0
   42.3780   23.0470   37.0530 F   0  0  0  0  0  0  0  0  0  0  0  0
   41.3310   21.3510   38.0520 F   0  0  0  0  0  0  0  0  0  0  0  0
   36.4770   27.9220   33.4300 C   0  0  0  0  0  0  0  0  0  0  0  0
   36.1550   28.6900   34.4550 C   0  0  0  0  0  0  0  0  0  0  0  0
   36.4120   28.2300   35.3980 H   0  0  0  0  0  0  0  0  0  0  0  0
   35.5710   29.9030   34.2230 C   0  0  0  0  0  3  0  0  0  0  0  0
   35.3500   30.2570   32.8850 C   0  0  0  0  0  3  0  0  0  0  0  0
   36.0320   28.7370   31.9810 S   0  0  0  0  0  0  0  0  0  0  0  0
  1  6  2  0  0  0  0
  1  2  1  0  0  0  0
  2  3  2  0  0  0  0
  3  4  1  0  0  0  0
  3  9  1  0  0  0  0
  5 21  1  0  0  0  0
  5  4  2  0  0  0  0
  6  5  1  0  0  0  0
  7  1  1  0  0  0  0
  8  2  1  0  0  0  0
  9 14  2  0  0  0  0
  9 10  1  0  0  0  0
 10 11  2  0  0  0  0
 11 12  1  0  0  0  0
 11 16  1  0  0  0  0
 13 17  1  0  0  0  0
 13 12  2  0  0  0  0
 14 13  1  0  0  0  0
 15 10  1  0  0  0  0
 17 19  1  0  0  0  0
 17 20  1  0  0  0  0
 18 17  1  0  0  0  0
 21 22  2  0  0  0  0
 22 23  1  0  0  0  0
 24 22  1  0  0  0  0
 25 24  2  0  0  0  0
 26 25  1  0  0  0  0
 26 21  1  0  0  0  0
M  END
>  <minimizedAffinity>
-5.37314606

$$$$

 OpenBabel03272502243D

 26 28  0  0  0  0  0  0  0  0999 V2000
   38.6300   24.6440   30.5110 C   0  0  0  0  0  0  0  0  0  0  0  0
   38.7120   25.2590   31.7640 C   0  0  0  0  0  0  0  0  0  0  0  0
   38.1380   24.6570   32.8670 C   0  0  0  0  0  0  0  0  0  0  0  0
   37.5090   23.4700   32.6670 N   0  0  0  0  0  0  0  0  0  0  0  0
   37.4400   22.8940   31.4580 C   0  0  0  0  0  0  0  0  0  0  0  0
   38.0010   23.4840   30.3860 N   0  0  0  0  0  0  0  0  0  0  0  0
   39.0660   25.0870   29.6330 H   0  0  0  0  0  0  0  0  0  0  0  0
   39.2080   26.1850   31.8960 H   0  0  0  0  0  0  0  0  0  0  0  0
   38.1490   25.2100   34.2140 C   0  0  0  0  0  0  0  0  0  0  0  0
   38.1880   26.5620   34.4430 C   0  0  0  0  0  0  0  0  0  0  0  0
   38.2080   27.0990   35.7210 C   0  0  0  0  0  0  0  0  0  0  0  0
   38.1870   26.2690   36.7920 N   0  0  0  0  0  0  0  0  0  0  0  0
   38.1480   24.9530   36.5450 C   0  0  0  0  0  0  0  0  0  0  0  0
   38.1280   24.4220   35.3160 N   0  0  0  0  0  0  0  0  0  0  0  0
   38.2060   27.2540   33.6070 H   0  0  0  0  0  0  0  0  0  0  0  0
   38.2400   28.1660   35.8980 H   0  0  0  0  0  0  0  0  0  0  0  0
   38.1240   24.0070   37.6960 C   0  0  0  0  0  0  0  0  0  0  0  0
   37.8700   24.7310   38.8390 F   0  0  0  0  0  0  0  0  0  0  0  0
   37.1570   23.0080   37.4900 F   0  0  0  0  0  0  0  0  0  0  0  0
   39.3220   23.3860   37.8660 F   0  0  0  0  0  0  0  0  0  0  0  0
   36.7080   21.5900   31.4370 C   0  0  0  0  0  0  0  0  0  0  0  0
   36.8010   20.4370   30.8000 C   0  0  0  0  0  0  0  0  0  0  0  0
   37.6280   20.4270   30.1050 H   0  0  0  0  0  0  0  0  0  0  0  0
   35.8990   19.4480   31.0750 C   0  0  0  0  0  3  0  0  0  0  0  0
   34.9170   19.7320   32.0330 C   0  0  0  0  0  3  0  0  0  0  0  0
   35.3700   21.5090   32.5160 S   0  0  0  0  0  0  0  0  0  0  0  0
  1  2  1  0  0  0  0
  2  8  1  0  0  0  0
  2  3  2  0  0  0  0
  3  9  1  0  0  0  0
  4  3  1  0  0  0  0
  5  4  2  0  0  0  0
  6  1  2  0  0  0  0
  6  5  1  0  0  0  0
  7  1  1  0  0  0  0
  9 10  2  0  0  0  0
  9 14  1  0  0  0  0
 10 11  1  0  0  0  0
 11 16  1  0  0  0  0
 11 12  2  0  0  0  0
 13 12  1  0  0  0  0
 13 17  1  0  0  0  0
 14 13  2  0  0  0  0
 15 10  1  0  0  0  0
 17 20  1  0  0  0  0
 17 18  1  0  0  0  0
 19 17  1  0  0  0  0
 21  5  1  0  0  0  0
 21 26  1  0  0  0  0
 22 24  1  0  0  0  0
 22 21  2  0  0  0  0
 23 22  1  0  0  0  0
 24 25  2  0  0  0  0
 25 26  1  0  0  0  0
M  END
>  <minimizedAffinity>
-5.36751175

$$$$

 OpenBabel03272502243D

 26 28  0  0  0  0  0  0  0  0999 V2000
   39.0920   26.7590   31.6140 C   0  0  0  0  0  0  0  0  0  0  0  0
   39.1200   25.6110   32.4130 C   0  0  0  0  0  0  0  0  0  0  0  0
   38.2150   25.4700   33.4480 C   0  0  0  0  0  0  0  0  0  0  0  0
   37.3270   26.4800   33.6370 N   0  0  0  0  0  0  0  0  0  0  0  0
   37.3140   27.5730   32.8610 C   0  0  0  0  0  0  0  0  0  0  0  0
   38.1980   27.7070   31.8530 N   0  0  0  0  0  0  0  0  0  0  0  0
   39.7820   26.8990   30.8010 H   0  0  0  0  0  0  0  0  0  0  0  0
   39.8210   24.8370   32.2480 H   0  0  0  0  0  0  0  0  0  0  0  0
   38.1600   24.3290   34.3510 C   0  0  0  0  0  0  0  0  0  0  0  0
   38.0180   23.0450   33.8900 C   0  0  0  0  0  0  0  0  0  0  0  0
   37.9540   21.9520   34.7410 C   0  0  0  0  0  0  0  0  0  0  0  0
   38.0350   22.1460   36.0800 N   0  0  0  0  0  0  0  0  0  0  0  0
   38.1730   23.4070   36.5080 C   0  0  0  0  0  0  0  0  0  0  0  0
   38.2360   24.4700   35.6960 N   0  0  0  0  0  0  0  0  0  0  0  0
   37.9500   22.8560   32.8230 H   0  0  0  0  0  0  0  0  0  0  0  0
   37.8410   20.9410   34.3740 H   0  0  0  0  0  0  0  0  0  0  0  0
   38.2650   23.6620   37.9730 C   0  0  0  0  0  0  0  0  0  0  0  0
   37.2810   22.9300   38.5970 F   0  0  0  0  0  0  0  0  0  0  0  0
   39.5430   23.3240   38.4500 F   0  0  0  0  0  0  0  0  0  0  0  0
   38.0510   24.9710   38.2740 F   0  0  0  0  0  0  0  0  0  0  0  0
   36.2640   28.5740   33.2220 C   0  0  0  0  0  0  0  0  0  0  0  0
   35.6730   29.0050   34.3210 C   0  0  0  0  0  0  0  0  0  0  0  0
   36.0460   28.5030   35.2010 H   0  0  0  0  0  0  0  0  0  0  0  0
   34.7180   29.9780   34.2280 C   0  0  0  0  0  3  0  0  0  0  0  0
   34.4250   30.4600   32.9450 C   0  0  0  0  0  3  0  0  0  0  0  0
   35.6070   29.4300   31.8800 S   0  0  0  0  0  0  0  0  0  0  0  0
  1  6  2  0  0  0  0
  1  2  1  0  0  0  0
  2  3  2  0  0  0  0
  3  4  1  0  0  0  0
  3  9  1  0  0  0  0
  5 21  1  0  0  0  0
  5  4  2  0  0  0  0
  6  5  1  0  0  0  0
  7  1  1  0  0  0  0
  8  2  1  0  0  0  0
  9 14  1  0  0  0  0
 10  9  2  0  0  0  0
 10 11  1  0  0  0  0
 11 12  2  0  0  0  0
 12 13  1  0  0  0  0
 13 17  1  0  0  0  0
 14 13  2  0  0  0  0
 15 10  1  0  0  0  0
 16 11  1  0  0  0  0
 17 20  1  0  0  0  0
 17 19  1  0  0  0  0
 17 18  1  0  0  0  0
 21 22  2  0  0  0  0
 22 23  1  0  0  0  0
 24 22  1  0  0  0  0
 25 24  2  0  0  0  0
 26 25  1  0  0  0  0
 26 21  1  0  0  0  0
M  END
>  <minimizedAffinity>
-5.34777403

$$$$

 OpenBabel03272502243D

 26 28  0  0  0  0  0  0  0  0999 V2000
   36.7050   29.3750   30.1350 C   0  0  0  0  0  0  0  0  0  0  0  0
   36.0200   30.0010   31.1810 C   0  0  0  0  0  0  0  0  0  0  0  0
   35.3960   29.2390   32.1510 C   0  0  0  0  0  0  0  0  0  0  0  0
   35.4870   27.8900   32.0300 N   0  0  0  0  0  0  0  0  0  0  0  0
   36.1480   27.3050   31.0210 C   0  0  0  0  0  0  0  0  0  0  0  0
   36.7540   28.0520   30.0780 N   0  0  0  0  0  0  0  0  0  0  0  0
   37.2010   29.9400   29.3660 H   0  0  0  0  0  0  0  0  0  0  0  0
   35.9630   31.0550   31.2550 H   0  0  0  0  0  0  0  0  0  0  0  0
   34.6450   29.7800   33.2740 C   0  0  0  0  0  0  0  0  0  0  0  0
   33.3160   29.4930   33.4630 C   0  0  0  0  0  0  0  0  0  0  0  0
   32.5880   30.0100   34.5240 C   0  0  0  0  0  0  0  0  0  0  0  0
   33.1990   30.8270   35.4150 N   0  0  0  0  0  0  0  0  0  0  0  0
   34.4960   31.0930   35.2120 C   0  0  0  0  0  0  0  0  0  0  0  0
   35.2100   30.6010   34.1910 N   0  0  0  0  0  0  0  0  0  0  0  0
   32.7970   28.8420   32.7670 H   0  0  0  0  0  0  0  0  0  0  0  0
   31.5400   29.7820   34.6700 H   0  0  0  0  0  0  0  0  0  0  0  0
   35.2040   31.9880   36.1700 C   0  0  0  0  0  0  0  0  0  0  0  0
   34.6190   31.8400   37.4060 F   0  0  0  0  0  0  0  0  0  0  0  0
   36.5750   31.6830   36.2050 F   0  0  0  0  0  0  0  0  0  0  0  0
   35.0870   33.2980   35.8190 F   0  0  0  0  0  0  0  0  0  0  0  0
   36.1380   25.8110   31.0590 C   0  0  0  0  0  0  0  0  0  0  0  0
   35.2380   24.8500   31.1540 C   0  0  0  0  0  0  0  0  0  0  0  0
   34.2340   25.2450   31.2230 H   0  0  0  0  0  0  0  0  0  0  0  0
   35.6490   23.5470   31.1530 C   0  0  0  0  0  3  0  0  0  0  0  0
   37.0270   23.3160   31.0500 C   0  0  0  0  0  3  0  0  0  0  0  0
   37.6960   25.0870   30.9530 S   0  0  0  0  0  0  0  0  0  0  0  0
  1  2  1  0  0  0  0
  2  8  1  0  0  0  0
  2  3  2  0  0  0  0
  3  9  1  0  0  0  0
  4  3  1  0  0  0  0
  5 21  1  0  0  0  0
  5  4  2  0  0  0  0
  6  1  2  0  0  0  0
  6  5  1  0  0  0  0
  7  1  1  0  0  0  0
  9 10  2  0  0  0  0
  9 14  1  0  0  0  0
 10 11  1  0  0  0  0
 11 16  1  0  0  0  0
 11 12  2  0  0  0  0
 13 12  1  0  0  0  0
 13 17  1  0  0  0  0
 14 13  2  0  0  0  0
 15 10  1  0  0  0  0
 17 19  1  0  0  0  0
 17 18  1  0  0  0  0
 20 17  1  0  0  0  0
 21 22  2  0  0  0  0
 22 23  1  0  0  0  0
 24 22  1  0  0  0  0
 25 24  2  0  0  0  0
 26 25  1  0  0  0  0
 26 21  1  0  0  0  0
M  END
>  <minimizedAffinity>
-5.344594

$$$$

 OpenBabel03272502243D

 26 28  0  0  0  0  0  0  0  0999 V2000
   35.8450   30.6970   31.4000 C   0  0  0  0  0  0  0  0  0  0  0  0
   36.2550   29.3610   31.4260 C   0  0  0  0  0  0  0  0  0  0  0  0
   36.2560   28.6630   32.6180 C   0  0  0  0  0  0  0  0  0  0  0  0
   35.8470   29.3310   33.7270 N   0  0  0  0  0  0  0  0  0  0  0  0
   35.4560   30.6130   33.6840 C   0  0  0  0  0  0  0  0  0  0  0  0
   35.4570   31.2900   32.5200 N   0  0  0  0  0  0  0  0  0  0  0  0
   35.8320   31.2680   30.4880 H   0  0  0  0  0  0  0  0  0  0  0  0
   36.5700   28.8590   30.5480 H   0  0  0  0  0  0  0  0  0  0  0  0
   36.6750   27.2760   32.7680 C   0  0  0  0  0  0  0  0  0  0  0  0
   37.6170   26.8990   33.6910 C   0  0  0  0  0  0  0  0  0  0  0  0
   38.0310   25.5830   33.8360 C   0  0  0  0  0  0  0  0  0  0  0  0
   37.4910   24.6250   33.0430 N   0  0  0  0  0  0  0  0  0  0  0  0
   36.5740   25.0160   32.1500 C   0  0  0  0  0  0  0  0  0  0  0  0
   36.1660   26.2830   32.0010 N   0  0  0  0  0  0  0  0  0  0  0  0
   38.0690   27.6420   34.3410 H   0  0  0  0  0  0  0  0  0  0  0  0
   38.7740   25.2890   34.5650 H   0  0  0  0  0  0  0  0  0  0  0  0
   35.9570   23.9920   31.2600 C   0  0  0  0  0  0  0  0  0  0  0  0
   36.9260   23.5380   30.3950 F   0  0  0  0  0  0  0  0  0  0  0  0
   35.4100   22.9460   32.0220 F   0  0  0  0  0  0  0  0  0  0  0  0
   34.9530   24.5160   30.5060 F   0  0  0  0  0  0  0  0  0  0  0  0
   35.0410   31.1760   35.0050 C   0  0  0  0  0  0  0  0  0  0  0  0
   35.5980   31.8680   35.9820 C   0  0  0  0  0  0  0  0  0  0  0  0
   36.6350   32.0910   35.7760 H   0  0  0  0  0  0  0  0  0  0  0  0
   34.8480   32.2050   37.0740 C   0  0  0  0  0  3  0  0  0  0  0  0
   33.5120   31.7830   37.0810 C   0  0  0  0  0  3  0  0  0  0  0  0
   33.3990   30.8730   35.4220 S   0  0  0  0  0  0  0  0  0  0  0  0
  1  2  2  0  0  0  0
  1  6  1  0  0  0  0
  2  3  1  0  0  0  0
  3  9  1  0  0  0  0
  3  4  2  0  0  0  0
  5  4  1  0  0  0  0
  5 21  1  0  0  0  0
  6  5  2  0  0  0  0
  7  1  1  0  0  0  0
  8  2  1  0  0  0  0
  9 10  1  0  0  0  0
 10 11  2  0  0  0  0
 10 15  1  0  0  0  0
 11 16  1  0  0  0  0
 12 11  1  0  0  0  0
 13 12  2  0  0  0  0
 14 13  1  0  0  0  0
 14  9  2  0  0  0  0
 17 19  1  0  0  0  0
 17 13  1  0  0  0  0
 18 17  1  0  0  0  0
 20 17  1  0  0  0  0
 21 26  1  0  0  0  0
 21 22  2  0  0  0  0
 22 24  1  0  0  0  0
 23 22  1  0  0  0  0
 24 25  2  0  0  0  0
 26 25  1  0  0  0  0
M  END
>  <minimizedAffinity>
-5.27341604

$$$$
