
 OpenBabel03272504243D

 36 38  0  0  1  0  0  0  0  0999 V2000
   37.5410   27.8150   33.0230 O   0  0  0  0  0  0  0  0  0  0  0  0
   35.5880   29.0770   32.8360 C   0  0  2  0  0  0  0  0  0  0  0  0
   36.1700   27.6870   32.9710 C   0  0  1  0  0  0  0  0  0  0  0  0
   35.7560   27.1450   31.6000 C   0  0  0  0  0  0  0  0  0  0  0  0
   36.2260   28.1570   30.7680 O   0  0  0  0  0  0  0  0  0  0  0  0
   35.9500   29.3560   31.3780 C   0  0  0  0  0  0  0  0  0  0  0  0
   34.5050   29.0470   32.9870 H   0  0  0  0  0  0  0  0  0  0  0  0
   35.7290   27.0950   33.7890 H   0  0  0  0  0  0  0  0  0  0  0  0
   34.6700   27.0160   31.5660 H   0  0  0  0  0  0  0  0  0  0  0  0
   36.3360   26.2270   31.4470 H   0  0  0  0  0  0  0  0  0  0  0  0
   35.0850   29.8850   30.9100 H   0  0  0  0  0  0  0  0  0  0  0  0
   36.8040   30.0750   31.3110 H   0  0  0  0  0  0  0  0  0  0  0  0
   36.2650   29.9110   33.7200 O   0  0  0  0  0  0  0  0  0  0  0  0
   35.4630   30.5220   34.7150 C   0  0  0  0  0  0  0  0  0  0  0  0
   35.9220   31.3200   35.7670 C   0  0  0  0  0  0  0  0  0  0  0  0
   36.9790   31.5090   35.8570 H   0  0  0  0  0  0  0  0  0  0  0  0
   35.0210   31.8390   36.6480 C   0  0  0  0  0  3  0  0  0  0  0  0
   33.6210   31.5420   36.4610 C   0  0  0  0  0  3  0  0  0  0  0  0
   33.5870   30.5190   35.0220 S   0  0  0  0  0  0  0  0  0  0  0  0
   39.7180   27.0200   34.1980 O   0  0  0  0  0  0  0  0  0  0  0  0
   38.2210   27.0970   34.3780 P   0  0  1  0  0  0  0  0  0  0  0  0
   37.9050   28.0460   35.7620 O   0  0  0  0  0  0  0  0  0  0  0  0
   37.2080   28.7280   35.6040 H   0  0  0  0  0  0  0  0  0  0  0  0
   37.5740   25.5410   34.6030 O   0  0  0  0  0  0  0  0  0  0  0  0
   38.6440   24.6770   34.7290 C   0  0  0  0  0  0  0  0  0  0  0  0
   39.6030   25.2040   34.4600 H   0  0  0  0  0  0  0  0  0  0  0  0
   38.6040   23.8210   34.0270 H   0  0  0  0  0  0  0  0  0  0  0  0
   38.8020   24.1220   36.0910 C   0  0  0  0  0  0  0  0  0  0  0  0
   37.8390   24.4600   37.0120 C   0  0  0  0  0  0  0  0  0  0  0  0
   37.9310   23.9690   38.3160 C   0  0  0  0  0  0  0  0  0  0  0  0
   38.9960   23.1680   38.6020 N   0  0  0  0  0  0  0  0  0  0  0  0
   39.9270   22.8510   37.6820 C   0  0  0  0  0  0  0  0  0  0  0  0
   39.8360   23.3280   36.4190 N   0  0  0  0  0  0  0  0  0  0  0  0
   36.9690   25.0810   36.8830 H   0  0  0  0  0  0  0  0  0  0  0  0
   37.2350   24.1730   39.1000 H   0  0  0  0  0  0  0  0  0  0  0  0
   40.7270   22.2100   38.0140 H   0  0  0  0  0  0  0  0  0  0  0  0
  1 21  1  0  0  0  0
  2  3  1  0  0  0  0
  2  7  1  1  0  0  0
  2 13  1  0  0  0  0
  3  1  1  0  0  0  0
  3  8  1  1  0  0  0
  4  3  1  0  0  0  0
  5  6  1  0  0  0  0
  5  4  1  0  0  0  0
  6  2  1  0  0  0  0
  9  4  1  0  0  0  0
 10  4  1  0  0  0  0
 11  6  1  0  0  0  0
 12  6  1  0  0  0  0
 13 14  1  0  0  0  0
 14 19  1  0  0  0  0
 14 15  2  0  0  0  0
 15 16  1  0  0  0  0
 15 17  1  0  0  0  0
 18 17  2  0  0  0  0
 19 18  1  0  0  0  0
 21 20  2  6  0  0  0
 21 24  1  0  0  0  0
 21 22  1  0  0  0  0
 23 22  1  0  0  0  0
 24 25  1  0  0  0  0
 25 28  1  0  0  0  0
 26 25  1  0  0  0  0
 27 25  1  0  0  0  0
 28 33  2  0  0  0  0
 28 29  1  0  0  0  0
 29 30  2  0  0  0  0
 30 31  1  0  0  0  0
 30 35  1  0  0  0  0
 32 36  1  0  0  0  0
 32 31  2  0  0  0  0
 33 32  1  0  0  0  0
 34 29  1  0  0  0  0
M  END
>  <minimizedAffinity>
-5.06155586

$$$$

 OpenBabel03272504243D

 36 38  0  0  1  0  0  0  0  0999 V2000
   36.8910   25.6820   32.9490 O   0  0  0  0  0  0  0  0  0  0  0  0
   36.6390   24.1980   31.1680 C   0  0  2  0  0  0  0  0  0  0  0  0
   37.1090   25.5720   31.5930 C   0  0  1  0  0  0  0  0  0  0  0  0
   36.0670   26.4010   30.8370 C   0  0  0  0  0  0  0  0  0  0  0  0
   34.8920   25.7710   31.2380 O   0  0  0  0  0  0  0  0  0  0  0  0
   35.1290   24.4180   31.2440 C   0  0  0  0  0  0  0  0  0  0  0  0
   36.9690   23.9890   30.1460 H   0  0  0  0  0  0  0  0  0  0  0  0
   38.1330   25.8160   31.2680 H   0  0  0  0  0  0  0  0  0  0  0  0
   36.2540   26.3370   29.7610 H   0  0  0  0  0  0  0  0  0  0  0  0
   36.1180   27.4120   31.2570 H   0  0  0  0  0  0  0  0  0  0  0  0
   34.6670   23.8990   30.3700 H   0  0  0  0  0  0  0  0  0  0  0  0
   34.6980   23.9140   32.1450 H   0  0  0  0  0  0  0  0  0  0  0  0
   37.0900   23.2810   32.1120 O   0  0  0  0  0  0  0  0  0  0  0  0
   36.5780   21.9680   31.9780 C   0  0  0  0  0  0  0  0  0  0  0  0
   36.7490   21.1260   30.8750 C   0  0  0  0  0  0  0  0  0  0  0  0
   37.3200   21.4770   30.0330 H   0  0  0  0  0  0  0  0  0  0  0  0
   36.1910   19.8820   30.8980 C   0  0  0  0  0  3  0  0  0  0  0  0
   35.4400   19.4820   32.0640 C   0  0  0  0  0  3  0  0  0  0  0  0
   35.5300   20.8830   33.1350 S   0  0  0  0  0  0  0  0  0  0  0  0
   38.7580   27.4730   32.6990 O   0  0  0  0  0  0  0  0  0  0  0  0
   37.6830   26.9890   33.6420 P   0  0  1  0  0  0  0  0  0  0  0  0
   36.5860   28.2720   33.8940 O   0  0  0  0  0  0  0  0  0  0  0  0
   35.6430   27.9880   33.8070 H   0  0  0  0  0  0  0  0  0  0  0  0
   38.3690   26.5350   35.1310 O   0  0  0  0  0  0  0  0  0  0  0  0
   37.6350   25.4630   35.6000 C   0  0  0  0  0  0  0  0  0  0  0  0
   37.1770   24.8990   34.7380 H   0  0  0  0  0  0  0  0  0  0  0  0
   36.7660   25.7600   36.2170 H   0  0  0  0  0  0  0  0  0  0  0  0
   38.4310   24.5020   36.3940 C   0  0  0  0  0  0  0  0  0  0  0  0
   38.0250   24.2860   37.6900 C   0  0  0  0  0  0  0  0  0  0  0  0
   38.7340   23.3900   38.4930 C   0  0  0  0  0  0  0  0  0  0  0  0
   39.8110   22.7720   37.9290 N   0  0  0  0  0  0  0  0  0  0  0  0
   40.1880   23.0000   36.6570 C   0  0  0  0  0  0  0  0  0  0  0  0
   39.5000   23.8690   35.8800 N   0  0  0  0  0  0  0  0  0  0  0  0
   37.1970   24.7220   38.2210 H   0  0  0  0  0  0  0  0  0  0  0  0
   38.4990   23.1540   39.5080 H   0  0  0  0  0  0  0  0  0  0  0  0
   41.0540   22.4580   36.3110 H   0  0  0  0  0  0  0  0  0  0  0  0
  1 21  1  0  0  0  0
  2  7  1  6  0  0  0
  2  6  1  0  0  0  0
  2  3  1  0  0  0  0
  2 13  1  0  0  0  0
  3  8  1  6  0  0  0
  3  1  1  0  0  0  0
  4  5  1  0  0  0  0
  4 10  1  0  0  0  0
  4  3  1  0  0  0  0
  5  6  1  0  0  0  0
  6 12  1  0  0  0  0
  9  4  1  0  0  0  0
 11  6  1  0  0  0  0
 14 13  1  0  0  0  0
 14 19  1  0  0  0  0
 15 17  1  0  0  0  0
 15 14  2  0  0  0  0
 16 15  1  0  0  0  0
 17 18  2  0  0  0  0
 18 19  1  0  0  0  0
 21 20  2  6  0  0  0
 21 22  1  0  0  0  0
 21 24  1  0  0  0  0
 23 22  1  0  0  0  0
 24 25  1  0  0  0  0
 25 27  1  0  0  0  0
 25 28  1  0  0  0  0
 26 25  1  0  0  0  0
 28 29  1  0  0  0  0
 29 34  1  0  0  0  0
 29 30  2  0  0  0  0
 30 35  1  0  0  0  0
 31 30  1  0  0  0  0
 32 31  2  0  0  0  0
 33 28  2  0  0  0  0
 33 32  1  0  0  0  0
 36 32  1  0  0  0  0
M  END
>  <minimizedAffinity>
-4.97735929

$$$$

 OpenBabel03272504243D

 36 38  0  0  1  0  0  0  0  0999 V2000
   38.8420   24.8600   35.7110 O   0  0  0  0  0  0  0  0  0  0  0  0
   38.0570   22.6860   36.0210 C   0  0  2  0  0  0  0  0  0  0  0  0
   37.8550   24.1470   36.3570 C   0  0  1  0  0  0  0  0  0  0  0  0
   38.1720   24.0720   37.8520 C   0  0  0  0  0  0  0  0  0  0  0  0
   39.3860   23.3920   37.8270 O   0  0  0  0  0  0  0  0  0  0  0  0
   39.2880   22.4020   36.8800 C   0  0  0  0  0  0  0  0  0  0  0  0
   37.1900   22.1040   36.3460 H   0  0  0  0  0  0  0  0  0  0  0  0
   36.8300   24.5100   36.1780 H   0  0  0  0  0  0  0  0  0  0  0  0
   37.3760   23.5300   38.3720 H   0  0  0  0  0  0  0  0  0  0  0  0
   38.3210   25.1050   38.1850 H   0  0  0  0  0  0  0  0  0  0  0  0
   39.1580   21.3900   37.3330 H   0  0  0  0  0  0  0  0  0  0  0  0
   40.2060   22.3250   36.2470 H   0  0  0  0  0  0  0  0  0  0  0  0
   38.3270   22.5940   34.6590 O   0  0  0  0  0  0  0  0  0  0  0  0
   37.5370   21.6630   33.9430 C   0  0  0  0  0  0  0  0  0  0  0  0
   36.2800   21.1840   34.3260 C   0  0  0  0  0  0  0  0  0  0  0  0
   35.8440   21.5360   35.2450 H   0  0  0  0  0  0  0  0  0  0  0  0
   35.6410   20.2850   33.5240 C   0  0  0  0  0  3  0  0  0  0  0  0
   36.2890   19.8610   32.3060 C   0  0  0  0  0  3  0  0  0  0  0  0
   37.8170   20.7460   32.3020 S   0  0  0  0  0  0  0  0  0  0  0  0
   36.8270   26.4290   35.2240 O   0  0  0  0  0  0  0  0  0  0  0  0
   38.3360   26.3770   35.2020 P   0  0  1  0  0  0  0  0  0  0  0  0
   38.9200   27.5760   36.2670 O   0  0  0  0  0  0  0  0  0  0  0  0
   39.6260   27.2370   36.8700 H   0  0  0  0  0  0  0  0  0  0  0  0
   38.9120   26.6900   33.6320 O   0  0  0  0  0  0  0  0  0  0  0  0
   38.6720   25.5550   32.8840 C   0  0  0  0  0  0  0  0  0  0  0  0
   38.6460   24.6470   33.5520 H   0  0  0  0  0  0  0  0  0  0  0  0
   39.4760   25.3280   32.1570 H   0  0  0  0  0  0  0  0  0  0  0  0
   37.3990   25.5960   32.1330 C   0  0  0  0  0  0  0  0  0  0  0  0
   36.7510   24.3980   31.9460 C   0  0  0  0  0  0  0  0  0  0  0  0
   35.5440   24.3700   31.2450 C   0  0  0  0  0  0  0  0  0  0  0  0
   35.0720   25.5600   30.7760 N   0  0  0  0  0  0  0  0  0  0  0  0
   35.7260   26.7210   30.9720 C   0  0  0  0  0  0  0  0  0  0  0  0
   36.8950   26.7470   31.6520 N   0  0  0  0  0  0  0  0  0  0  0  0
   37.0410   23.4150   32.2740 H   0  0  0  0  0  0  0  0  0  0  0  0
   34.9670   23.4930   31.0490 H   0  0  0  0  0  0  0  0  0  0  0  0
   35.2630   27.6040   30.5600 H   0  0  0  0  0  0  0  0  0  0  0  0
  1  3  1  0  0  0  0
  2  7  1  1  0  0  0
  2  3  1  0  0  0  0
  2  6  1  0  0  0  0
  3  8  1  6  0  0  0
  3  4  1  0  0  0  0
  4 10  1  0  0  0  0
  4  9  1  0  0  0  0
  5  4  1  0  0  0  0
  6 11  1  0  0  0  0
  6  5  1  0  0  0  0
 12  6  1  0  0  0  0
 13  2  1  0  0  0  0
 14 15  2  0  0  0  0
 14 13  1  0  0  0  0
 15 16  1  0  0  0  0
 17 15  1  0  0  0  0
 18 17  2  0  0  0  0
 19 18  1  0  0  0  0
 19 14  1  0  0  0  0
 21 20  2  6  0  0  0
 21  1  1  0  0  0  0
 21 22  1  0  0  0  0
 22 23  1  0  0  0  0
 24 21  1  0  0  0  0
 25 26  1  0  0  0  0
 25 24  1  0  0  0  0
 27 25  1  0  0  0  0
 28 25  1  0  0  0  0
 29 28  1  0  0  0  0
 29 34  1  0  0  0  0
 30 29  2  0  0  0  0
 31 32  2  0  0  0  0
 31 30  1  0  0  0  0
 32 33  1  0  0  0  0
 33 28  2  0  0  0  0
 35 30  1  0  0  0  0
 36 32  1  0  0  0  0
M  END
>  <minimizedAffinity>
-4.9518013

$$$$

 OpenBabel03272504243D

 36 38  0  0  1  0  0  0  0  0999 V2000
   38.9760   24.9720   35.6100 O   0  0  0  0  0  0  0  0  0  0  0  0
   38.1810   22.7820   35.5050 C   0  0  2  0  0  0  0  0  0  0  0  0
   38.0050   24.1470   36.1350 C   0  0  1  0  0  0  0  0  0  0  0  0
   38.3730   23.7710   37.5720 C   0  0  0  0  0  0  0  0  0  0  0  0
   39.5790   23.1070   37.3680 O   0  0  0  0  0  0  0  0  0  0  0  0
   39.4380   22.3280   36.2460 C   0  0  0  0  0  0  0  0  0  0  0  0
   37.3200   22.1490   35.7370 H   0  0  0  0  0  0  0  0  0  0  0  0
   36.9790   24.5410   36.0700 H   0  0  0  0  0  0  0  0  0  0  0  0
   37.5900   23.1380   38.0010 H   0  0  0  0  0  0  0  0  0  0  0  0
   38.5440   24.7160   38.1010 H   0  0  0  0  0  0  0  0  0  0  0  0
   39.3130   21.2450   36.4900 H   0  0  0  0  0  0  0  0  0  0  0  0
   40.3330   22.3760   35.5770 H   0  0  0  0  0  0  0  0  0  0  0  0
   38.4030   22.9650   34.1440 O   0  0  0  0  0  0  0  0  0  0  0  0
   37.4020   22.4460   33.2880 C   0  0  0  0  0  0  0  0  0  0  0  0
   36.5970   21.3310   33.5430 C   0  0  0  0  0  0  0  0  0  0  0  0
   36.7260   20.7950   34.4680 H   0  0  0  0  0  0  0  0  0  0  0  0
   35.6720   20.9550   32.6150 C   0  0  0  0  0  3  0  0  0  0  0  0
   35.5590   21.7250   31.3990 C   0  0  0  0  0  3  0  0  0  0  0  0
   36.7750   22.9930   31.5790 S   0  0  0  0  0  0  0  0  0  0  0  0
   36.8840   26.4290   35.1060 O   0  0  0  0  0  0  0  0  0  0  0  0
   38.3920   26.4800   35.1630 P   0  0  1  0  0  0  0  0  0  0  0  0
   38.8360   27.6480   36.3260 O   0  0  0  0  0  0  0  0  0  0  0  0
   39.5320   27.3200   36.9460 H   0  0  0  0  0  0  0  0  0  0  0  0
   39.0220   26.9260   33.6480 O   0  0  0  0  0  0  0  0  0  0  0  0
   38.1420   26.4570   32.6930 C   0  0  0  0  0  0  0  0  0  0  0  0
   37.2730   25.9360   33.1880 H   0  0  0  0  0  0  0  0  0  0  0  0
   38.5780   25.6810   32.0350 H   0  0  0  0  0  0  0  0  0  0  0  0
   37.5920   27.5160   31.8200 C   0  0  0  0  0  0  0  0  0  0  0  0
   38.0480   27.5480   30.5240 C   0  0  0  0  0  0  0  0  0  0  0  0
   37.5680   28.5250   29.6490 C   0  0  0  0  0  0  0  0  0  0  0  0
   36.6570   29.4080   30.1470 N   0  0  0  0  0  0  0  0  0  0  0  0
   36.2260   29.3560   31.4220 C   0  0  0  0  0  0  0  0  0  0  0  0
   36.6920   28.4090   32.2680 N   0  0  0  0  0  0  0  0  0  0  0  0
   38.7610   26.9010   30.0420 H   0  0  0  0  0  0  0  0  0  0  0  0
   37.8600   28.6320   28.6270 H   0  0  0  0  0  0  0  0  0  0  0  0
   35.5030   30.1030   31.7120 H   0  0  0  0  0  0  0  0  0  0  0  0
  1  3  1  0  0  0  0
  2  7  1  1  0  0  0
  2  3  1  0  0  0  0
  2  6  1  0  0  0  0
  3  8  1  6  0  0  0
  3  4  1  0  0  0  0
  4  9  1  0  0  0  0
  4 10  1  0  0  0  0
  5  4  1  0  0  0  0
  6 11  1  0  0  0  0
  6  5  1  0  0  0  0
 12  6  1  0  0  0  0
 13  2  1  0  0  0  0
 14 15  2  0  0  0  0
 14 13  1  0  0  0  0
 15 16  1  0  0  0  0
 17 15  1  0  0  0  0
 18 19  1  0  0  0  0
 18 17  2  0  0  0  0
 19 14  1  0  0  0  0
 21 20  2  6  0  0  0
 21  1  1  0  0  0  0
 21 22  1  0  0  0  0
 22 23  1  0  0  0  0
 24 21  1  0  0  0  0
 25 26  1  0  0  0  0
 25 24  1  0  0  0  0
 27 25  1  0  0  0  0
 28 33  1  0  0  0  0
 28 25  1  0  0  0  0
 29 28  2  0  0  0  0
 30 31  2  0  0  0  0
 30 29  1  0  0  0  0
 31 32  1  0  0  0  0
 32 36  1  0  0  0  0
 32 33  2  0  0  0  0
 34 29  1  0  0  0  0
 35 30  1  0  0  0  0
M  END
>  <minimizedAffinity>
-4.90852642

$$$$

 OpenBabel03272504243D

 36 38  0  0  1  0  0  0  0  0999 V2000
   37.5140   25.9510   34.2530 O   0  0  0  0  0  0  0  0  0  0  0  0
   37.5080   24.9290   32.1560 C   0  0  2  0  0  0  0  0  0  0  0  0
   38.2020   25.9250   33.0590 C   0  0  1  0  0  0  0  0  0  0  0  0
   37.8910   27.1940   32.2600 C   0  0  0  0  0  0  0  0  0  0  0  0
   36.5170   27.0610   32.0830 O   0  0  0  0  0  0  0  0  0  0  0  0
   36.2620   25.7400   31.8040 C   0  0  0  0  0  0  0  0  0  0  0  0
   38.1240   24.7280   31.2760 H   0  0  0  0  0  0  0  0  0  0  0  0
   39.2870   25.7630   33.1530 H   0  0  0  0  0  0  0  0  0  0  0  0
   38.4570   27.1900   31.3240 H   0  0  0  0  0  0  0  0  0  0  0  0
   38.1090   28.0360   32.9280 H   0  0  0  0  0  0  0  0  0  0  0  0
   36.0400   25.5680   30.7240 H   0  0  0  0  0  0  0  0  0  0  0  0
   35.3670   25.3540   32.3520 H   0  0  0  0  0  0  0  0  0  0  0  0
   37.2100   23.8010   32.9140 O   0  0  0  0  0  0  0  0  0  0  0  0
   36.8890   22.6380   32.1740 C   0  0  0  0  0  0  0  0  0  0  0  0
   35.6710   21.9520   32.2050 C   0  0  0  0  0  0  0  0  0  0  0  0
   34.8820   22.3170   32.8410 H   0  0  0  0  0  0  0  0  0  0  0  0
   35.5160   20.8410   31.4300 C   0  0  0  0  0  3  0  0  0  0  0  0
   36.6190   20.4140   30.6030 C   0  0  0  0  0  3  0  0  0  0  0  0
   37.8850   21.6010   30.9310 S   0  0  0  0  0  0  0  0  0  0  0  0
   39.8790   26.6060   35.1120 O   0  0  0  0  0  0  0  0  0  0  0  0
   38.4290   26.5410   35.5300 P   0  0  1  0  0  0  0  0  0  0  0  0
   37.9250   28.1220   35.9290 O   0  0  0  0  0  0  0  0  0  0  0  0
   37.0580   28.3590   35.5180 H   0  0  0  0  0  0  0  0  0  0  0  0
   38.2540   25.5340   36.8890 O   0  0  0  0  0  0  0  0  0  0  0  0
   37.9540   24.2710   36.4170 C   0  0  0  0  0  0  0  0  0  0  0  0
   37.5070   24.3390   35.3840 H   0  0  0  0  0  0  0  0  0  0  0  0
   37.1760   23.7530   37.0090 H   0  0  0  0  0  0  0  0  0  0  0  0
   39.1240   23.3710   36.3430 C   0  0  0  0  0  0  0  0  0  0  0  0
   39.6490   22.9400   37.5370 C   0  0  0  0  0  0  0  0  0  0  0  0
   40.7560   22.0870   37.5360 C   0  0  0  0  0  0  0  0  0  0  0  0
   41.2590   21.7290   36.3200 N   0  0  0  0  0  0  0  0  0  0  0  0
   40.7260   22.1650   35.1630 C   0  0  0  0  0  0  0  0  0  0  0  0
   39.6540   22.9910   35.1660 N   0  0  0  0  0  0  0  0  0  0  0  0
   39.3260   23.1660   38.5390 H   0  0  0  0  0  0  0  0  0  0  0  0
   41.2340   21.6990   38.4080 H   0  0  0  0  0  0  0  0  0  0  0  0
   41.2020   21.8190   34.2590 H   0  0  0  0  0  0  0  0  0  0  0  0
  1 21  1  0  0  0  0
  2  7  1  6  0  0  0
  2 13  1  0  0  0  0
  2  3  1  0  0  0  0
  3  8  1  1  0  0  0
  3  1  1  0  0  0  0
  4 10  1  0  0  0  0
  4  3  1  0  0  0  0
  5  4  1  0  0  0  0
  6  5  1  0  0  0  0
  6  2  1  0  0  0  0
  6 12  1  0  0  0  0
  9  4  1  0  0  0  0
 11  6  1  0  0  0  0
 14 15  2  0  0  0  0
 14 13  1  0  0  0  0
 15 16  1  0  0  0  0
 17 15  1  0  0  0  0
 18 19  1  0  0  0  0
 18 17  2  0  0  0  0
 19 14  1  0  0  0  0
 21 20  2  6  0  0  0
 21 22  1  0  0  0  0
 21 24  1  0  0  0  0
 23 22  1  0  0  0  0
 25 24  1  0  0  0  0
 25 27  1  0  0  0  0
 26 25  1  0  0  0  0
 28 25  1  0  0  0  0
 28 29  1  0  0  0  0
 29 34  1  0  0  0  0
 30 29  2  0  0  0  0
 30 35  1  0  0  0  0
 31 30  1  0  0  0  0
 32 33  1  0  0  0  0
 32 31  2  0  0  0  0
 33 28  2  0  0  0  0
 36 32  1  0  0  0  0
M  END
>  <minimizedAffinity>
-4.84135962

$$$$

 OpenBabel03272504243D

 36 38  0  0  1  0  0  0  0  0999 V2000
   36.6930   24.4660   32.4740 O   0  0  0  0  0  0  0  0  0  0  0  0
   38.1800   22.9230   33.3930 C   0  0  2  0  0  0  0  0  0  0  0  0
   37.8300   23.7480   32.1750 C   0  0  1  0  0  0  0  0  0  0  0  0
   37.4760   22.5980   31.2280 C   0  0  0  0  0  0  0  0  0  0  0  0
   36.5860   21.8760   32.0170 O   0  0  0  0  0  0  0  0  0  0  0  0
   37.0840   21.8620   33.2970 C   0  0  0  0  0  0  0  0  0  0  0  0
   39.1770   22.4880   33.2780 H   0  0  0  0  0  0  0  0  0  0  0  0
   38.6670   24.3490   31.7850 H   0  0  0  0  0  0  0  0  0  0  0  0
   38.3820   22.0430   30.9660 H   0  0  0  0  0  0  0  0  0  0  0  0
   36.9510   23.0520   30.3800 H   0  0  0  0  0  0  0  0  0  0  0  0
   37.5390   20.8800   33.5680 H   0  0  0  0  0  0  0  0  0  0  0  0
   36.2910   22.0400   34.0650 H   0  0  0  0  0  0  0  0  0  0  0  0
   38.0380   23.7340   34.5140 O   0  0  0  0  0  0  0  0  0  0  0  0
   38.7820   23.3360   35.6520 C   0  0  0  0  0  0  0  0  0  0  0  0
   38.4560   23.6070   36.9840 C   0  0  0  0  0  0  0  0  0  0  0  0
   37.5630   24.1670   37.2000 H   0  0  0  0  0  0  0  0  0  0  0  0
   39.2780   23.1530   37.9720 C   0  0  0  0  0  3  0  0  0  0  0  0
   40.4580   22.4080   37.6040 C   0  0  0  0  0  3  0  0  0  0  0  0
   40.3970   22.3520   35.8400 S   0  0  0  0  0  0  0  0  0  0  0  0
   37.6460   25.9500   30.5650 O   0  0  0  0  0  0  0  0  0  0  0  0
   36.4190   25.7410   31.4190 P   0  0  1  0  0  0  0  0  0  0  0  0
   35.1130   25.3720   30.3830 O   0  0  0  0  0  0  0  0  0  0  0  0
   34.5910   24.5930   30.6930 H   0  0  0  0  0  0  0  0  0  0  0  0
   36.0620   27.1570   32.2920 O   0  0  0  0  0  0  0  0  0  0  0  0
   37.2350   27.8790   32.3810 C   0  0  0  0  0  0  0  0  0  0  0  0
   37.0080   28.9810   32.4630 H   0  0  0  0  0  0  0  0  0  0  0  0
   37.8690   27.8040   31.4770 H   0  0  0  0  0  0  0  0  0  0  0  0
   38.0740   27.5060   33.5400 C   0  0  0  0  0  0  0  0  0  0  0  0
   37.4790   27.5610   34.7780 C   0  0  0  0  0  0  0  0  0  0  0  0
   38.2190   27.2220   35.9130 C   0  0  0  0  0  0  0  0  0  0  0  0
   39.5160   26.8500   35.7190 N   0  0  0  0  0  0  0  0  0  0  0  0
   40.0760   26.8040   34.4950 C   0  0  0  0  0  0  0  0  0  0  0  0
   39.3580   27.1330   33.3960 N   0  0  0  0  0  0  0  0  0  0  0  0
   36.4710   27.8410   35.0320 H   0  0  0  0  0  0  0  0  0  0  0  0
   37.8480   27.2330   36.9150 H   0  0  0  0  0  0  0  0  0  0  0  0
   41.1090   26.4950   34.4550 H   0  0  0  0  0  0  0  0  0  0  0  0
  2  7  1  6  0  0  0
  2 13  1  0  0  0  0
  3  8  1  6  0  0  0
  3  1  1  0  0  0  0
  3  2  1  0  0  0  0
  4  5  1  0  0  0  0
  4  3  1  0  0  0  0
  5  6  1  0  0  0  0
  6  2  1  0  0  0  0
  6 11  1  0  0  0  0
  6 12  1  0  0  0  0
  9  4  1  0  0  0  0
 10  4  1  0  0  0  0
 13 14  1  0  0  0  0
 14 19  1  0  0  0  0
 14 15  2  0  0  0  0
 15 16  1  0  0  0  0
 15 17  1  0  0  0  0
 18 17  2  0  0  0  0
 19 18  1  0  0  0  0
 21 20  2  6  0  0  0
 21 24  1  0  0  0  0
 21  1  1  0  0  0  0
 22 23  1  0  0  0  0
 22 21  1  0  0  0  0
 24 25  1  0  0  0  0
 25 26  1  0  0  0  0
 25 28  1  0  0  0  0
 27 25  1  0  0  0  0
 28 29  1  0  0  0  0
 29 34  1  0  0  0  0
 29 30  2  0  0  0  0
 30 35  1  0  0  0  0
 31 30  1  0  0  0  0
 32 31  2  0  0  0  0
 33 28  2  0  0  0  0
 33 32  1  0  0  0  0
 36 32  1  0  0  0  0
M  END
>  <minimizedAffinity>
-4.68021202

$$$$

 OpenBabel03272504243D

 36 38  0  0  1  0  0  0  0  0999 V2000
   39.1770   24.9100   35.2990 O   0  0  0  0  0  0  0  0  0  0  0  0
   38.2280   22.7810   35.2410 C   0  0  2  0  0  0  0  0  0  0  0  0
   38.1050   24.1900   35.7790 C   0  0  1  0  0  0  0  0  0  0  0  0
   38.3190   23.8760   37.2610 C   0  0  0  0  0  0  0  0  0  0  0  0
   39.4840   23.1160   37.2010 O   0  0  0  0  0  0  0  0  0  0  0  0
   39.3790   22.2830   36.1140 C   0  0  0  0  0  0  0  0  0  0  0  0
   37.3050   22.2260   35.4300 H   0  0  0  0  0  0  0  0  0  0  0  0
   37.1210   24.6520   35.6020 H   0  0  0  0  0  0  0  0  0  0  0  0
   37.4570   23.3270   37.6520 H   0  0  0  0  0  0  0  0  0  0  0  0
   38.5170   24.8360   37.7520 H   0  0  0  0  0  0  0  0  0  0  0  0
   39.1520   21.2290   36.4040 H   0  0  0  0  0  0  0  0  0  0  0  0
   40.3280   22.2270   35.5260 H   0  0  0  0  0  0  0  0  0  0  0  0
   38.5780   22.8650   33.8980 O   0  0  0  0  0  0  0  0  0  0  0  0
   37.5380   22.5840   32.9790 C   0  0  0  0  0  0  0  0  0  0  0  0
   36.8800   23.5150   32.1700 C   0  0  0  0  0  0  0  0  0  0  0  0
   37.1660   24.5510   32.2270 H   0  0  0  0  0  0  0  0  0  0  0  0
   35.8940   23.0850   31.3320 C   0  0  0  0  0  3  0  0  0  0  0  0
   35.5660   21.6800   31.3120 C   0  0  0  0  0  3  0  0  0  0  0  0
   36.6680   20.9650   32.4920 S   0  0  0  0  0  0  0  0  0  0  0  0
   38.7920   27.3690   36.0490 O   0  0  0  0  0  0  0  0  0  0  0  0
   38.7710   26.4710   34.8360 P   0  0  1  0  0  0  0  0  0  0  0  0
   39.9170   27.0660   33.7190 O   0  0  0  0  0  0  0  0  0  0  0  0
   40.4980   26.3540   33.3550 H   0  0  0  0  0  0  0  0  0  0  0  0
   37.2280   26.4860   34.1200 O   0  0  0  0  0  0  0  0  0  0  0  0
   36.6860   27.7330   34.3600 C   0  0  0  0  0  0  0  0  0  0  0  0
   37.4080   28.3610   34.9570 H   0  0  0  0  0  0  0  0  0  0  0  0
   35.7750   27.7050   34.9870 H   0  0  0  0  0  0  0  0  0  0  0  0
   36.3510   28.4810   33.1290 C   0  0  0  0  0  0  0  0  0  0  0  0
   35.3490   29.4170   33.2280 C   0  0  0  0  0  0  0  0  0  0  0  0
   34.9840   30.1560   32.1010 C   0  0  0  0  0  0  0  0  0  0  0  0
   35.6600   29.8980   30.9450 N   0  0  0  0  0  0  0  0  0  0  0  0
   36.6380   28.9750   30.8740 C   0  0  0  0  0  0  0  0  0  0  0  0
   36.9910   28.2590   31.9670 N   0  0  0  0  0  0  0  0  0  0  0  0
   34.7620   29.6900   34.0870 H   0  0  0  0  0  0  0  0  0  0  0  0
   34.2210   30.9040   32.0760 H   0  0  0  0  0  0  0  0  0  0  0  0
   37.1080   28.8520   29.9110 H   0  0  0  0  0  0  0  0  0  0  0  0
  1  3  1  0  0  0  0
  2  7  1  1  0  0  0
  2  3  1  0  0  0  0
  2  6  1  0  0  0  0
  3  8  1  6  0  0  0
  3  4  1  0  0  0  0
  4  9  1  0  0  0  0
  4 10  1  0  0  0  0
  5  4  1  0  0  0  0
  6 11  1  0  0  0  0
  6  5  1  0  0  0  0
 12  6  1  0  0  0  0
 13  2  1  0  0  0  0
 14 13  1  0  0  0  0
 15 16  1  0  0  0  0
 15 14  2  0  0  0  0
 17 15  1  0  0  0  0
 18 17  2  0  0  0  0
 18 19  1  0  0  0  0
 19 14  1  0  0  0  0
 21  1  1  0  0  0  0
 21 20  2  1  0  0  0
 22 21  1  0  0  0  0
 23 22  1  0  0  0  0
 24 25  1  0  0  0  0
 24 21  1  0  0  0  0
 25 26  1  0  0  0  0
 25 27  1  0  0  0  0
 28 29  1  0  0  0  0
 28 25  1  0  0  0  0
 29 34  1  0  0  0  0
 30 29  2  0  0  0  0
 31 30  1  0  0  0  0
 32 31  2  0  0  0  0
 32 33  1  0  0  0  0
 33 28  2  0  0  0  0
 35 30  1  0  0  0  0
 36 32  1  0  0  0  0
M  END
>  <minimizedAffinity>
-4.60358047

$$$$

 OpenBabel03272504243D

 36 38  0  0  1  0  0  0  0  0999 V2000
   36.8110   25.1570   32.8130 O   0  0  0  0  0  0  0  0  0  0  0  0
   37.4630   27.2610   33.5800 C   0  0  2  0  0  0  0  0  0  0  0  0
   37.9160   25.9710   32.9330 C   0  0  1  0  0  0  0  0  0  0  0  0
   38.8090   25.4610   34.0670 C   0  0  0  0  0  0  0  0  0  0  0  0
   37.9440   25.5800   35.1520 O   0  0  0  0  0  0  0  0  0  0  0  0
   37.2610   26.7630   35.0100 C   0  0  0  0  0  0  0  0  0  0  0  0
   38.2560   28.0110   33.5180 H   0  0  0  0  0  0  0  0  0  0  0  0
   38.4880   26.1140   32.0020 H   0  0  0  0  0  0  0  0  0  0  0  0
   39.7010   26.0890   34.1460 H   0  0  0  0  0  0  0  0  0  0  0  0
   39.0050   24.4050   33.8510 H   0  0  0  0  0  0  0  0  0  0  0  0
   37.6360   27.5570   35.7000 H   0  0  0  0  0  0  0  0  0  0  0  0
   36.1740   26.6590   35.2460 H   0  0  0  0  0  0  0  0  0  0  0  0
   36.2680   27.6440   32.9780 O   0  0  0  0  0  0  0  0  0  0  0  0
   35.9800   29.0300   33.0250 C   0  0  0  0  0  0  0  0  0  0  0  0
   36.1960   29.9510   31.9960 C   0  0  0  0  0  0  0  0  0  0  0  0
   36.6190   29.6070   31.0670 H   0  0  0  0  0  0  0  0  0  0  0  0
   35.8640   31.2580   32.1960 C   0  0  0  0  0  3  0  0  0  0  0  0
   35.3010   31.6430   33.4680 C   0  0  0  0  0  3  0  0  0  0  0  0
   35.2430   30.1350   34.3850 S   0  0  0  0  0  0  0  0  0  0  0  0
   35.1410   24.8650   30.8430 O   0  0  0  0  0  0  0  0  0  0  0  0
   36.5690   24.5940   31.2510 P   0  0  1  0  0  0  0  0  0  0  0  0
   37.5940   25.4240   30.1660 O   0  0  0  0  0  0  0  0  0  0  0  0
   38.3060   25.9300   30.6280 H   0  0  0  0  0  0  0  0  0  0  0  0
   36.8980   22.9280   31.1720 O   0  0  0  0  0  0  0  0  0  0  0  0
   35.6820   22.2760   31.2280 C   0  0  0  0  0  0  0  0  0  0  0  0
   35.0800   22.4950   30.3000 H   0  0  0  0  0  0  0  0  0  0  0  0
   35.0330   22.6250   32.0540 H   0  0  0  0  0  0  0  0  0  0  0  0
   35.8000   20.8070   31.3510 C   0  0  0  0  0  0  0  0  0  0  0  0
   35.2610   20.2350   32.4790 C   0  0  0  0  0  0  0  0  0  0  0  0
   35.3400   18.8520   32.6540 C   0  0  0  0  0  0  0  0  0  0  0  0
   35.9640   18.1380   31.6750 N   0  0  0  0  0  0  0  0  0  0  0  0
   36.4850   18.7220   30.5790 C   0  0  0  0  0  0  0  0  0  0  0  0
   36.4070   20.0620   30.4100 N   0  0  0  0  0  0  0  0  0  0  0  0
   34.7540   20.7100   33.3010 H   0  0  0  0  0  0  0  0  0  0  0  0
   34.9530   18.3150   33.4930 H   0  0  0  0  0  0  0  0  0  0  0  0
   36.9560   18.0640   29.8660 H   0  0  0  0  0  0  0  0  0  0  0  0
  1  3  1  0  0  0  0
  2  7  1  6  0  0  0
  2  6  1  0  0  0  0
  3  8  1  6  0  0  0
  3  2  1  0  0  0  0
  3  4  1  0  0  0  0
  4  9  1  0  0  0  0
  4  5  1  0  0  0  0
  6  5  1  0  0  0  0
  6 12  1  0  0  0  0
  6 11  1  0  0  0  0
 10  4  1  0  0  0  0
 13 14  1  0  0  0  0
 13  2  1  0  0  0  0
 14 19  1  0  0  0  0
 15 17  1  0  0  0  0
 15 14  2  0  0  0  0
 16 15  1  0  0  0  0
 17 18  2  0  0  0  0
 18 19  1  0  0  0  0
 21 20  2  6  0  0  0
 21  1  1  0  0  0  0
 22 23  1  0  0  0  0
 22 21  1  0  0  0  0
 24 25  1  0  0  0  0
 24 21  1  0  0  0  0
 25 28  1  0  0  0  0
 25 27  1  0  0  0  0
 26 25  1  0  0  0  0
 28 29  1  0  0  0  0
 29 30  2  0  0  0  0
 29 34  1  0  0  0  0
 30 35  1  0  0  0  0
 31 30  1  0  0  0  0
 32 31  2  0  0  0  0
 33 32  1  0  0  0  0
 33 28  2  0  0  0  0
 36 32  1  0  0  0  0
M  END
>  <minimizedAffinity>
-4.58458805

$$$$

 OpenBabel03272504243D

 36 38  0  0  1  0  0  0  0  0999 V2000
   38.3940   26.6870   33.1400 O   0  0  0  0  0  0  0  0  0  0  0  0
   38.2670   25.6540   35.2260 C   0  0  2  0  0  0  0  0  0  0  0  0
   37.4860   26.1770   34.0410 C   0  0  1  0  0  0  0  0  0  0  0  0
   36.7640   27.3260   34.7480 C   0  0  0  0  0  0  0  0  0  0  0  0
   37.8330   27.9600   35.3750 O   0  0  0  0  0  0  0  0  0  0  0  0
   38.6620   26.9830   35.8690 C   0  0  0  0  0  0  0  0  0  0  0  0
   37.6140   25.0660   35.8770 H   0  0  0  0  0  0  0  0  0  0  0  0
   36.7730   25.4500   33.6200 H   0  0  0  0  0  0  0  0  0  0  0  0
   36.0220   26.9250   35.4460 H   0  0  0  0  0  0  0  0  0  0  0  0
   36.3550   27.9640   33.9560 H   0  0  0  0  0  0  0  0  0  0  0  0
   38.5700   26.8640   36.9750 H   0  0  0  0  0  0  0  0  0  0  0  0
   39.7420   27.2070   35.6870 H   0  0  0  0  0  0  0  0  0  0  0  0
   39.3660   24.9530   34.7380 O   0  0  0  0  0  0  0  0  0  0  0  0
   39.9440   24.0240   35.6370 C   0  0  0  0  0  0  0  0  0  0  0  0
   41.2890   23.6460   35.6790 C   0  0  0  0  0  0  0  0  0  0  0  0
   41.9770   24.0850   34.9760 H   0  0  0  0  0  0  0  0  0  0  0  0
   41.6930   22.7340   36.6090 C   0  0  0  0  0  3  0  0  0  0  0  0
   40.7120   22.1910   37.5180 C   0  0  0  0  0  3  0  0  0  0  0  0
   39.2050   22.9830   37.0470 S   0  0  0  0  0  0  0  0  0  0  0  0
   38.1930   27.3490   30.6340 O   0  0  0  0  0  0  0  0  0  0  0  0
   38.1300   26.1640   31.5670 P   0  0  1  0  0  0  0  0  0  0  0  0
   39.3500   25.0630   31.1040 O   0  0  0  0  0  0  0  0  0  0  0  0
   39.8800   24.7380   31.8730 H   0  0  0  0  0  0  0  0  0  0  0  0
   36.6130   25.4040   31.4510 O   0  0  0  0  0  0  0  0  0  0  0  0
   36.8300   24.1570   30.8990 C   0  0  0  0  0  0  0  0  0  0  0  0
   37.8700   24.0990   30.4680 H   0  0  0  0  0  0  0  0  0  0  0  0
   36.1720   23.9360   30.0370 H   0  0  0  0  0  0  0  0  0  0  0  0
   36.6800   23.0470   31.8640 C   0  0  0  0  0  0  0  0  0  0  0  0
   35.5220   22.3100   31.7840 C   0  0  0  0  0  0  0  0  0  0  0  0
   35.3190   21.2480   32.6670 C   0  0  0  0  0  0  0  0  0  0  0  0
   36.3050   21.0020   33.5770 N   0  0  0  0  0  0  0  0  0  0  0  0
   37.4310   21.7390   33.6350 C   0  0  0  0  0  0  0  0  0  0  0  0
   37.6260   22.7680   32.7780 N   0  0  0  0  0  0  0  0  0  0  0  0
   34.6930   22.4260   31.1070 H   0  0  0  0  0  0  0  0  0  0  0  0
   34.4570   20.6180   32.6850 H   0  0  0  0  0  0  0  0  0  0  0  0
   38.1460   21.4580   34.3920 H   0  0  0  0  0  0  0  0  0  0  0  0
  1  3  1  0  0  0  0
  2  6  1  0  0  0  0
  2  7  1  1  0  0  0
  3  8  1  6  0  0  0
  3  4  1  0  0  0  0
  3  2  1  0  0  0  0
  4  5  1  0  0  0  0
  4  9  1  0  0  0  0
  5  6  1  0  0  0  0
  6 11  1  0  0  0  0
 10  4  1  0  0  0  0
 12  6  1  0  0  0  0
 13  2  1  0  0  0  0
 13 14  1  0  0  0  0
 14 15  2  0  0  0  0
 14 19  1  0  0  0  0
 15 17  1  0  0  0  0
 16 15  1  0  0  0  0
 17 18  2  0  0  0  0
 19 18  1  0  0  0  0
 21 20  2  6  0  0  0
 21  1  1  0  0  0  0
 22 21  1  0  0  0  0
 22 23  1  0  0  0  0
 24 21  1  0  0  0  0
 25 24  1  0  0  0  0
 25 28  1  0  0  0  0
 26 25  1  0  0  0  0
 27 25  1  0  0  0  0
 28 33  1  0  0  0  0
 29 28  2  0  0  0  0
 29 30  1  0  0  0  0
 30 35  1  0  0  0  0
 30 31  2  0  0  0  0
 31 32  1  0  0  0  0
 32 36  1  0  0  0  0
 33 32  2  0  0  0  0
 34 29  1  0  0  0  0
M  END
>  <minimizedAffinity>
-4.5617137

$$$$
