
 OpenBabel03272502503D

 39 42  0  0  0  0  0  0  0  0999 V2000
   35.6400   24.8900   31.1490 C   0  0  0  0  0  0  0  0  0  0  0  0
   36.5320   24.1810   31.9480 C   0  0  0  0  0  0  0  0  0  0  0  0
   37.2910   24.9190   32.8470 C   0  0  0  0  0  0  0  0  0  0  0  0
   37.1360   26.2700   32.9080 N   0  0  0  0  0  0  0  0  0  0  0  0
   36.2550   26.9090   32.1100 C   0  0  0  0  0  0  0  0  0  0  0  0
   35.5180   26.2090   31.2400 N   0  0  0  0  0  0  0  0  0  0  0  0
   35.0660   24.3090   30.4660 H   0  0  0  0  0  0  0  0  0  0  0  0
   36.6930   23.1080   31.9380 H   0  0  0  0  0  0  0  0  0  0  0  0
   38.2720   24.2920   33.7500 C   0  0  0  0  0  0  0  0  0  0  0  0
   39.5770   24.0420   33.4140 C   0  0  0  0  0  0  0  0  0  0  0  0
   40.2400   23.4600   34.4420 N   0  0  0  0  0  0  0  0  0  0  0  0
   39.3530   23.3430   35.4290 C   0  0  0  0  0  0  0  0  0  0  0  0
   38.1820   23.8460   34.9960 N   0  0  0  0  0  0  0  0  0  0  0  0
   38.6220   23.3830   37.7540 C   0  0  0  0  0  0  0  0  0  0  0  0
   37.8330   24.3020   37.4740 O   0  0  0  0  0  0  0  0  0  0  0  0
   39.4650   22.8140   36.7400 N   0  0  0  0  0  0  0  0  0  0  0  0
   40.0780   24.2590   32.4570 H   0  0  0  0  0  0  0  0  0  0  0  0
   41.2300   23.1480   34.5110 H   0  0  0  0  0  0  0  0  0  0  0  0
   38.6670   23.0070   38.8020 H   0  0  0  0  0  0  0  0  0  0  0  0
   40.1190   22.0430   37.0040 H   0  0  0  0  0  0  0  0  0  0  0  0
   37.0750   28.4190   29.6910 Cl  0  0  0  0  0  0  0  0  0  0  0  0
   36.4830   29.1580   31.1500 C   0  0  0  0  0  0  0  0  0  0  0  0
   36.1280   28.3720   32.2180 C   0  0  0  0  0  0  0  0  0  0  0  0
   35.6600   28.9210   33.3810 C   0  0  0  0  0  0  0  0  0  0  0  0
   35.5270   30.2780   33.5180 C   0  0  0  0  0  0  0  0  0  0  0  0
   35.8710   31.0990   32.4740 C   0  0  0  0  0  0  0  0  0  0  0  0
   35.7440   32.8460   32.5370 Cl  0  0  0  0  0  0  0  0  0  0  0  0
   36.3400   30.5040   31.3180 C   0  0  0  0  0  0  0  0  0  0  0  0
   35.3860   28.2710   34.2120 H   0  0  0  0  0  0  0  0  0  0  0  0
   35.0390   30.8760   34.7260 C   0  0  0  0  0  0  0  0  0  0  0  0
   35.7880   31.4690   35.7620 C   0  0  0  0  0  0  0  0  0  0  0  0
   36.8630   31.4990   35.6770 H   0  0  0  0  0  0  0  0  0  0  0  0
   35.0790   31.9750   36.8210 C   0  0  0  0  0  3  0  0  0  0  0  0
   33.6810   31.8640   36.7960 C   0  0  0  0  0  3  0  0  0  0  0  0
   33.3900   31.0270   35.2340 S   0  0  0  0  0  0  0  0  0  0  0  0
   36.7180   31.3870   30.1710 C   0  0  0  0  0  0  0  0  0  0  0  0
   35.6190   32.1680   29.7870 F   0  0  0  0  0  0  0  0  0  0  0  0
   36.9970   30.6150   29.0360 F   0  0  0  0  0  0  0  0  0  0  0  0
   37.8210   32.1590   30.4290 F   0  0  0  0  0  0  0  0  0  0  0  0
  1  6  2  0  0  0  0
  1  2  1  0  0  0  0
  2  3  2  0  0  0  0
  3  4  1  0  0  0  0
  3  9  1  0  0  0  0
  5 23  1  0  0  0  0
  5  4  2  0  0  0  0
  6  5  1  0  0  0  0
  7  1  1  0  0  0  0
  8  2  1  0  0  0  0
  9 13  1  0  0  0  0
 10  9  2  0  0  0  0
 10 11  1  0  0  0  0
 11 18  1  0  0  0  0
 11 12  1  0  0  0  0
 12 16  1  0  0  0  0
 13 12  2  0  0  0  0
 14 19  1  0  0  0  0
 15 14  2  0  0  0  0
 16 20  1  0  0  0  0
 16 14  1  0  0  0  0
 17 10  1  0  0  0  0
 21 22  1  0  0  0  0
 22 28  2  0  0  0  0
 22 23  1  0  0  0  0
 23 24  2  0  0  0  0
 24 25  1  0  0  0  0
 24 29  1  0  0  0  0
 25 30  1  0  0  0  0
 26 27  1  0  0  0  0
 26 25  2  0  0  0  0
 28 26  1  0  0  0  0
 30 35  1  0  0  0  0
 30 31  2  0  0  0  0
 31 33  1  0  0  0  0
 32 31  1  0  0  0  0
 34 33  2  0  0  0  0
 35 34  1  0  0  0  0
 36 39  1  0  0  0  0
 36 28  1  0  0  0  0
 37 36  1  0  0  0  0
 38 36  1  0  0  0  0
M  END
>  <minimizedAffinity>
-6.93672228

$$$$

 OpenBabel03272502503D

 39 42  0  0  0  0  0  0  0  0999 V2000
   42.0950   25.7870   34.1250 C   0  0  0  0  0  0  0  0  0  0  0  0
   42.3000   24.7900   35.0730 C   0  0  0  0  0  0  0  0  0  0  0  0
   41.2390   23.9270   35.3140 C   0  0  0  0  0  0  0  0  0  0  0  0
   40.0710   24.0890   34.6330 N   0  0  0  0  0  0  0  0  0  0  0  0
   39.9250   25.0730   33.7220 C   0  0  0  0  0  0  0  0  0  0  0  0
   40.9410   25.9110   33.4810 N   0  0  0  0  0  0  0  0  0  0  0  0
   42.9180   26.4390   33.9520 H   0  0  0  0  0  0  0  0  0  0  0  0
   43.2080   24.6180   35.6430 H   0  0  0  0  0  0  0  0  0  0  0  0
   41.3240   22.8280   36.2930 C   0  0  0  0  0  0  0  0  0  0  0  0
   40.4260   22.6330   37.3100 C   0  0  0  0  0  0  0  0  0  0  0  0
   40.7580   21.5470   38.0480 N   0  0  0  0  0  0  0  0  0  0  0  0
   41.8640   21.0540   37.4960 C   0  0  0  0  0  0  0  0  0  0  0  0
   42.1880   21.8340   36.4470 N   0  0  0  0  0  0  0  0  0  0  0  0
   43.3570   19.2740   36.7560 C   0  0  0  0  0  0  0  0  0  0  0  0
   43.2430   19.6850   35.5880 O   0  0  0  0  0  0  0  0  0  0  0  0
   42.6670   19.9330   37.8300 N   0  0  0  0  0  0  0  0  0  0  0  0
   39.5390   23.2410   37.5490 H   0  0  0  0  0  0  0  0  0  0  0  0
   40.2890   21.1320   38.8790 H   0  0  0  0  0  0  0  0  0  0  0  0
   44.0020   18.3880   36.9590 H   0  0  0  0  0  0  0  0  0  0  0  0
   42.7820   19.5660   38.8010 H   0  0  0  0  0  0  0  0  0  0  0  0
   38.7010   22.5080   32.8700 Cl  0  0  0  0  0  0  0  0  0  0  0  0
   37.9960   24.0710   32.5790 C   0  0  0  0  0  0  0  0  0  0  0  0
   38.6410   25.2030   33.0130 C   0  0  0  0  0  0  0  0  0  0  0  0
   38.1150   26.4480   32.8000 C   0  0  0  0  0  0  0  0  0  0  0  0
   36.9220   26.6070   32.1450 C   0  0  0  0  0  0  0  0  0  0  0  0
   36.2450   25.5020   31.6950 C   0  0  0  0  0  0  0  0  0  0  0  0
   34.7140   25.5860   30.8450 Cl  0  0  0  0  0  0  0  0  0  0  0  0
   36.8120   24.2630   31.9300 C   0  0  0  0  0  0  0  0  0  0  0  0
   38.6500   27.3270   33.1570 H   0  0  0  0  0  0  0  0  0  0  0  0
   36.3500   27.9010   31.9100 C   0  0  0  0  0  0  0  0  0  0  0  0
   35.4860   28.6310   32.7490 C   0  0  0  0  0  0  0  0  0  0  0  0
   35.1920   28.2030   33.6950 H   0  0  0  0  0  0  0  0  0  0  0  0
   35.0750   29.8570   32.2920 C   0  0  0  0  0  3  0  0  0  0  0  0
   35.5380   30.2860   31.0390 C   0  0  0  0  0  3  0  0  0  0  0  0
   36.5720   28.9130   30.5210 S   0  0  0  0  0  0  0  0  0  0  0  0
   36.0840   23.0490   31.4460 C   0  0  0  0  0  0  0  0  0  0  0  0
   36.9430   22.2520   30.6760 F   0  0  0  0  0  0  0  0  0  0  0  0
   35.0720   23.4160   30.5500 F   0  0  0  0  0  0  0  0  0  0  0  0
   35.5020   22.3330   32.4580 F   0  0  0  0  0  0  0  0  0  0  0  0
  1  2  1  0  0  0  0
  2  3  2  0  0  0  0
  2  8  1  0  0  0  0
  3  9  1  0  0  0  0
  4  3  1  0  0  0  0
  5  4  2  0  0  0  0
  6  5  1  0  0  0  0
  6  1  2  0  0  0  0
  7  1  1  0  0  0  0
  9 13  1  0  0  0  0
  9 10  2  0  0  0  0
 10 17  1  0  0  0  0
 10 11  1  0  0  0  0
 11 18  1  0  0  0  0
 12 16  1  0  0  0  0
 12 11  1  0  0  0  0
 13 12  2  0  0  0  0
 14 19  1  0  0  0  0
 14 16  1  0  0  0  0
 15 14  2  0  0  0  0
 16 20  1  0  0  0  0
 22 21  1  0  0  0  0
 22 23  1  0  0  0  0
 23  5  1  0  0  0  0
 24 23  2  0  0  0  0
 24 29  1  0  0  0  0
 25 24  1  0  0  0  0
 26 28  1  0  0  0  0
 26 25  2  0  0  0  0
 27 26  1  0  0  0  0
 28 22  2  0  0  0  0
 30 25  1  0  0  0  0
 30 31  2  0  0  0  0
 31 32  1  0  0  0  0
 33 31  1  0  0  0  0
 34 33  2  0  0  0  0
 35 34  1  0  0  0  0
 35 30  1  0  0  0  0
 36 28  1  0  0  0  0
 36 39  1  0  0  0  0
 37 36  1  0  0  0  0
 38 36  1  0  0  0  0
M  END
>  <minimizedAffinity>
-6.92996836

$$$$

 OpenBabel03272502503D

 39 42  0  0  0  0  0  0  0  0999 V2000
   36.9110   22.9830   31.4580 C   0  0  0  0  0  0  0  0  0  0  0  0
   37.5890   22.4930   32.5700 C   0  0  0  0  0  0  0  0  0  0  0  0
   38.1090   23.4320   33.4510 C   0  0  0  0  0  0  0  0  0  0  0  0
   37.9410   24.7590   33.1970 N   0  0  0  0  0  0  0  0  0  0  0  0
   37.2740   25.1820   32.1020 C   0  0  0  0  0  0  0  0  0  0  0  0
   36.7680   24.2860   31.2460 N   0  0  0  0  0  0  0  0  0  0  0  0
   36.5180   22.2500   30.7940 H   0  0  0  0  0  0  0  0  0  0  0  0
   37.7510   21.4490   32.8190 H   0  0  0  0  0  0  0  0  0  0  0  0
   38.8490   23.0480   34.6670 C   0  0  0  0  0  0  0  0  0  0  0  0
   40.1090   22.5100   34.6620 C   0  0  0  0  0  0  0  0  0  0  0  0
   40.5330   22.2570   35.9240 N   0  0  0  0  0  0  0  0  0  0  0  0
   39.5400   22.6370   36.7250 C   0  0  0  0  0  0  0  0  0  0  0  0
   38.5410   23.1070   35.9560 N   0  0  0  0  0  0  0  0  0  0  0  0
   38.5850   23.6290   38.7370 C   0  0  0  0  0  0  0  0  0  0  0  0
   38.0230   24.4830   38.0310 O   0  0  0  0  0  0  0  0  0  0  0  0
   39.4070   22.6140   38.1370 N   0  0  0  0  0  0  0  0  0  0  0  0
   40.7420   22.2880   33.7880 H   0  0  0  0  0  0  0  0  0  0  0  0
   41.4310   21.8560   36.2620 H   0  0  0  0  0  0  0  0  0  0  0  0
   38.4450   23.6610   39.8430 H   0  0  0  0  0  0  0  0  0  0  0  0
   39.8670   21.9100   38.7560 H   0  0  0  0  0  0  0  0  0  0  0  0
   38.8940   26.2790   29.8720 Cl  0  0  0  0  0  0  0  0  0  0  0  0
   37.8300   27.2300   30.8660 C   0  0  0  0  0  0  0  0  0  0  0  0
   37.1210   26.6290   31.8760 C   0  0  0  0  0  0  0  0  0  0  0  0
   36.2750   27.3470   32.6780 C   0  0  0  0  0  0  0  0  0  0  0  0
   36.1070   28.6950   32.4970 C   0  0  0  0  0  0  0  0  0  0  0  0
   36.7970   29.3340   31.4980 C   0  0  0  0  0  0  0  0  0  0  0  0
   36.6610   31.0520   31.1760 Cl  0  0  0  0  0  0  0  0  0  0  0  0
   37.6410   28.5710   30.7130 C   0  0  0  0  0  0  0  0  0  0  0  0
   35.7260   26.8420   33.4710 H   0  0  0  0  0  0  0  0  0  0  0  0
   35.2270   29.4690   33.3230 C   0  0  0  0  0  0  0  0  0  0  0  0
   35.5350   30.1400   34.5230 C   0  0  0  0  0  0  0  0  0  0  0  0
   36.5440   30.0930   34.9030 H   0  0  0  0  0  0  0  0  0  0  0  0
   34.5080   30.8170   35.1300 C   0  0  0  0  0  3  0  0  0  0  0  0
   33.2450   30.7900   34.5200 C   0  0  0  0  0  3  0  0  0  0  0  0
   33.5440   29.7830   33.0640 S   0  0  0  0  0  0  0  0  0  0  0  0
   38.3990   29.2550   29.6190 C   0  0  0  0  0  0  0  0  0  0  0  0
   37.9330   28.8220   28.3700 F   0  0  0  0  0  0  0  0  0  0  0  0
   39.7420   28.8550   29.6370 F   0  0  0  0  0  0  0  0  0  0  0  0
   38.3730   30.6220   29.7220 F   0  0  0  0  0  0  0  0  0  0  0  0
  1  2  1  0  0  0  0
  2  8  1  0  0  0  0
  2  3  2  0  0  0  0
  3  9  1  0  0  0  0
  4  3  1  0  0  0  0
  5  4  2  0  0  0  0
  6  1  2  0  0  0  0
  6  5  1  0  0  0  0
  7  1  1  0  0  0  0
  9 13  1  0  0  0  0
 10  9  2  0  0  0  0
 10 11  1  0  0  0  0
 11 18  1  0  0  0  0
 11 12  1  0  0  0  0
 12 16  1  0  0  0  0
 13 12  2  0  0  0  0
 14 19  1  0  0  0  0
 15 14  2  0  0  0  0
 16 14  1  0  0  0  0
 16 20  1  0  0  0  0
 17 10  1  0  0  0  0
 21 22  1  0  0  0  0
 22 23  1  0  0  0  0
 23  5  1  0  0  0  0
 23 24  2  0  0  0  0
 24 29  1  0  0  0  0
 25 24  1  0  0  0  0
 25 30  1  0  0  0  0
 26 25  2  0  0  0  0
 27 26  1  0  0  0  0
 28 22  2  0  0  0  0
 28 26  1  0  0  0  0
 30 31  2  0  0  0  0
 31 32  1  0  0  0  0
 31 33  1  0  0  0  0
 34 33  2  0  0  0  0
 35 30  1  0  0  0  0
 35 34  1  0  0  0  0
 36 38  1  0  0  0  0
 36 39  1  0  0  0  0
 36 28  1  0  0  0  0
 37 36  1  0  0  0  0
M  END
>  <minimizedAffinity>
-6.67433357

$$$$

 OpenBabel03272502503D

 39 42  0  0  0  0  0  0  0  0999 V2000
   37.4620   28.3250   30.0720 C   0  0  0  0  0  0  0  0  0  0  0  0
   36.6690   29.3120   30.6510 C   0  0  0  0  0  0  0  0  0  0  0  0
   36.1440   29.0370   31.9070 C   0  0  0  0  0  0  0  0  0  0  0  0
   36.4180   27.8450   32.5040 N   0  0  0  0  0  0  0  0  0  0  0  0
   37.1940   26.9210   31.8990 C   0  0  0  0  0  0  0  0  0  0  0  0
   37.7050   27.1750   30.6880 N   0  0  0  0  0  0  0  0  0  0  0  0
   37.8570   28.5530   29.1100 H   0  0  0  0  0  0  0  0  0  0  0  0
   36.4210   30.2770   30.2190 H   0  0  0  0  0  0  0  0  0  0  0  0
   35.2900   29.9950   32.6310 C   0  0  0  0  0  0  0  0  0  0  0  0
   33.9600   30.1930   32.3650 C   0  0  0  0  0  0  0  0  0  0  0  0
   33.4350   31.1330   33.1870 N   0  0  0  0  0  0  0  0  0  0  0  0
   34.4340   31.5280   33.9740 C   0  0  0  0  0  0  0  0  0  0  0  0
   35.5360   30.8360   33.6270 N   0  0  0  0  0  0  0  0  0  0  0  0
   35.4330   32.2460   36.0790 C   0  0  0  0  0  0  0  0  0  0  0  0
   36.1640   31.2410   36.0580 O   0  0  0  0  0  0  0  0  0  0  0  0
   34.4880   32.4820   35.0220 N   0  0  0  0  0  0  0  0  0  0  0  0
   33.3460   29.6910   31.6000 H   0  0  0  0  0  0  0  0  0  0  0  0
   32.4670   31.5090   33.2440 H   0  0  0  0  0  0  0  0  0  0  0  0
   35.5190   32.9620   36.9290 H   0  0  0  0  0  0  0  0  0  0  0  0
   33.8870   33.3350   35.0670 H   0  0  0  0  0  0  0  0  0  0  0  0
   38.8800   27.1440   34.3300 Cl  0  0  0  0  0  0  0  0  0  0  0  0
   38.2290   25.6480   33.7260 C   0  0  0  0  0  0  0  0  0  0  0  0
   37.4580   25.6490   32.5900 C   0  0  0  0  0  0  0  0  0  0  0  0
   36.9300   24.4900   32.0870 C   0  0  0  0  0  0  0  0  0  0  0  0
   37.1530   23.2870   32.7040 C   0  0  0  0  0  0  0  0  0  0  0  0
   37.9180   23.2430   33.8420 C   0  0  0  0  0  0  0  0  0  0  0  0
   38.2700   21.7630   34.7130 Cl  0  0  0  0  0  0  0  0  0  0  0  0
   38.4330   24.4360   34.3160 C   0  0  0  0  0  0  0  0  0  0  0  0
   36.3220   24.5230   31.1840 H   0  0  0  0  0  0  0  0  0  0  0  0
   36.6120   22.0610   32.1970 C   0  0  0  0  0  0  0  0  0  0  0  0
   35.3580   21.4850   32.4820 C   0  0  0  0  0  0  0  0  0  0  0  0
   34.6910   21.9950   33.1600 H   0  0  0  0  0  0  0  0  0  0  0  0
   35.0730   20.2940   31.8640 C   0  0  0  0  0  3  0  0  0  0  0  0
   36.0380   19.7450   31.0070 C   0  0  0  0  0  3  0  0  0  0  0  0
   37.3620   20.9550   31.0940 S   0  0  0  0  0  0  0  0  0  0  0  0
   39.2680   24.4020   35.5560 C   0  0  0  0  0  0  0  0  0  0  0  0
   40.5310   24.9540   35.2980 F   0  0  0  0  0  0  0  0  0  0  0  0
   39.5470   23.0780   35.9180 F   0  0  0  0  0  0  0  0  0  0  0  0
   38.6620   25.0050   36.6270 F   0  0  0  0  0  0  0  0  0  0  0  0
  1  2  2  0  0  0  0
  1  6  1  0  0  0  0
  2  3  1  0  0  0  0
  3  4  2  0  0  0  0
  3  9  1  0  0  0  0
  5  4  1  0  0  0  0
  5 23  1  0  0  0  0
  6  5  2  0  0  0  0
  7  1  1  0  0  0  0
  8  2  1  0  0  0  0
  9 13  1  0  0  0  0
 10  9  2  0  0  0  0
 10 11  1  0  0  0  0
 11 18  1  0  0  0  0
 11 12  1  0  0  0  0
 12 16  1  0  0  0  0
 13 12  2  0  0  0  0
 14 19  1  0  0  0  0
 15 14  2  0  0  0  0
 16 20  1  0  0  0  0
 16 14  1  0  0  0  0
 17 10  1  0  0  0  0
 22 28  1  0  0  0  0
 22 21  1  0  0  0  0
 23 22  2  0  0  0  0
 24 23  1  0  0  0  0
 24 25  2  0  0  0  0
 25 26  1  0  0  0  0
 26 28  2  0  0  0  0
 26 27  1  0  0  0  0
 28 36  1  0  0  0  0
 29 24  1  0  0  0  0
 30 31  2  0  0  0  0
 30 25  1  0  0  0  0
 31 32  1  0  0  0  0
 33 31  1  0  0  0  0
 34 35  1  0  0  0  0
 34 33  2  0  0  0  0
 35 30  1  0  0  0  0
 36 38  1  0  0  0  0
 36 39  1  0  0  0  0
 37 36  1  0  0  0  0
M  END
>  <minimizedAffinity>
-6.47854614

$$$$

 OpenBabel03272502503D

 39 42  0  0  0  0  0  0  0  0999 V2000
   38.9320   25.0970   34.6960 C   0  0  0  0  0  0  0  0  0  0  0  0
   38.4510   23.9600   34.0530 C   0  0  0  0  0  0  0  0  0  0  0  0
   37.4330   24.1470   33.1280 C   0  0  0  0  0  0  0  0  0  0  0  0
   36.9580   25.4020   32.8930 N   0  0  0  0  0  0  0  0  0  0  0  0
   37.4610   26.4720   33.5430 C   0  0  0  0  0  0  0  0  0  0  0  0
   38.4420   26.3040   34.4380 N   0  0  0  0  0  0  0  0  0  0  0  0
   39.7120   24.9360   35.4020 H   0  0  0  0  0  0  0  0  0  0  0  0
   38.7920   22.9410   34.2040 H   0  0  0  0  0  0  0  0  0  0  0  0
   36.8340   23.0280   32.3780 C   0  0  0  0  0  0  0  0  0  0  0  0
   35.8490   23.1740   31.4360 C   0  0  0  0  0  0  0  0  0  0  0  0
   35.4960   21.9740   30.9150 N   0  0  0  0  0  0  0  0  0  0  0  0
   36.2590   21.0710   31.5260 C   0  0  0  0  0  0  0  0  0  0  0  0
   37.0540   21.7200   32.3980 N   0  0  0  0  0  0  0  0  0  0  0  0
   37.6150   19.0490   31.6510 C   0  0  0  0  0  0  0  0  0  0  0  0
   38.5950   19.7430   31.9700 O   0  0  0  0  0  0  0  0  0  0  0  0
   36.3400   19.6610   31.3970 N   0  0  0  0  0  0  0  0  0  0  0  0
   35.3680   24.1080   31.1050 H   0  0  0  0  0  0  0  0  0  0  0  0
   34.7890   21.7410   30.1880 H   0  0  0  0  0  0  0  0  0  0  0  0
   37.7370   17.9440   31.5640 H   0  0  0  0  0  0  0  0  0  0  0  0
   35.5340   19.0520   31.1300 H   0  0  0  0  0  0  0  0  0  0  0  0
   37.8770   27.4150   30.7610 Cl  0  0  0  0  0  0  0  0  0  0  0  0
   37.0540   28.3300   31.9900 C   0  0  0  0  0  0  0  0  0  0  0  0
   36.9110   27.8060   33.2510 C   0  0  0  0  0  0  0  0  0  0  0  0
   36.2700   28.4990   34.2410 C   0  0  0  0  0  0  0  0  0  0  0  0
   35.7440   29.7430   34.0060 C   0  0  0  0  0  0  0  0  0  0  0  0
   35.8650   30.3020   32.7590 C   0  0  0  0  0  0  0  0  0  0  0  0
   35.2340   31.8840   32.3450 Cl  0  0  0  0  0  0  0  0  0  0  0  0
   36.5210   29.5690   31.7880 C   0  0  0  0  0  0  0  0  0  0  0  0
   36.1720   28.0570   35.2320 H   0  0  0  0  0  0  0  0  0  0  0  0
   35.0680   30.4880   35.0270 C   0  0  0  0  0  0  0  0  0  0  0  0
   35.6310   31.3730   35.9690 C   0  0  0  0  0  0  0  0  0  0  0  0
   36.6960   31.5400   35.9560 H   0  0  0  0  0  0  0  0  0  0  0  0
   34.7620   31.9670   36.8490 C   0  0  0  0  0  3  0  0  0  0  0  0
   33.3990   31.6530   36.7480 C   0  0  0  0  0  3  0  0  0  0  0  0
   33.3720   30.4960   35.3760 S   0  0  0  0  0  0  0  0  0  0  0  0
   36.6590   30.1670   30.4230 C   0  0  0  0  0  0  0  0  0  0  0  0
   35.5260   30.9350   30.1210 F   0  0  0  0  0  0  0  0  0  0  0  0
   36.6530   29.1590   29.4500 F   0  0  0  0  0  0  0  0  0  0  0  0
   37.8150   30.8860   30.2680 F   0  0  0  0  0  0  0  0  0  0  0  0
  1  7  1  0  0  0  0
  2  8  1  0  0  0  0
  2  1  2  0  0  0  0
  3  2  1  0  0  0  0
  4  3  2  0  0  0  0
  4  5  1  0  0  0  0
  5  6  2  0  0  0  0
  6  1  1  0  0  0  0
  9 13  1  0  0  0  0
  9  3  1  0  0  0  0
 10  9  2  0  0  0  0
 11 10  1  0  0  0  0
 11 12  1  0  0  0  0
 12 13  2  0  0  0  0
 14 15  2  0  0  0  0
 16 12  1  0  0  0  0
 16 14  1  0  0  0  0
 17 10  1  0  0  0  0
 18 11  1  0  0  0  0
 19 14  1  0  0  0  0
 20 16  1  0  0  0  0
 21 22  1  0  0  0  0
 22 23  1  0  0  0  0
 23  5  1  0  0  0  0
 23 24  2  0  0  0  0
 24 29  1  0  0  0  0
 25 24  1  0  0  0  0
 25 30  1  0  0  0  0
 26 25  2  0  0  0  0
 27 26  1  0  0  0  0
 28 22  2  0  0  0  0
 28 26  1  0  0  0  0
 30 35  1  0  0  0  0
 30 31  2  0  0  0  0
 31 33  1  0  0  0  0
 32 31  1  0  0  0  0
 34 33  2  0  0  0  0
 35 34  1  0  0  0  0
 36 28  1  0  0  0  0
 37 36  1  0  0  0  0
 38 36  1  0  0  0  0
 39 36  1  0  0  0  0
M  END
>  <minimizedAffinity>
-6.45306492

$$$$

 OpenBabel03272502503D

 39 42  0  0  0  0  0  0  0  0999 V2000
   36.7670   28.8820   30.4020 C   0  0  0  0  0  0  0  0  0  0  0  0
   35.9380   29.6450   31.2190 C   0  0  0  0  0  0  0  0  0  0  0  0
   35.4690   29.0390   32.3780 C   0  0  0  0  0  0  0  0  0  0  0  0
   35.8290   27.7560   32.6590 N   0  0  0  0  0  0  0  0  0  0  0  0
   36.6370   27.0600   31.8320 C   0  0  0  0  0  0  0  0  0  0  0  0
   37.0940   27.6330   30.7130 N   0  0  0  0  0  0  0  0  0  0  0  0
   37.1180   29.3620   29.5190 H   0  0  0  0  0  0  0  0  0  0  0  0
   35.6220   30.6680   31.0420 H   0  0  0  0  0  0  0  0  0  0  0  0
   34.5850   29.7350   33.3290 C   0  0  0  0  0  0  0  0  0  0  0  0
   33.2490   29.4670   33.4750 C   0  0  0  0  0  0  0  0  0  0  0  0
   32.6950   30.2610   34.4210 N   0  0  0  0  0  0  0  0  0  0  0  0
   33.6820   31.0310   34.8750 C   0  0  0  0  0  0  0  0  0  0  0  0
   34.8050   30.7020   34.2100 N   0  0  0  0  0  0  0  0  0  0  0  0
   34.9340   32.2330   36.5870 C   0  0  0  0  0  0  0  0  0  0  0  0
   35.9230   31.5210   36.3430 O   0  0  0  0  0  0  0  0  0  0  0  0
   33.7070   32.0480   35.8630 N   0  0  0  0  0  0  0  0  0  0  0  0
   32.6500   28.7220   32.9270 H   0  0  0  0  0  0  0  0  0  0  0  0
   31.7150   30.3090   34.7680 H   0  0  0  0  0  0  0  0  0  0  0  0
   35.0110   33.0170   37.3760 H   0  0  0  0  0  0  0  0  0  0  0  0
   32.8920   32.6620   36.0900 H   0  0  0  0  0  0  0  0  0  0  0  0
   34.8660   24.9770   30.6780 Cl  0  0  0  0  0  0  0  0  0  0  0  0
   36.2340   24.6410   31.6990 C   0  0  0  0  0  0  0  0  0  0  0  0
   36.9940   25.6750   32.1850 C   0  0  0  0  0  0  0  0  0  0  0  0
   38.0760   25.4470   32.9910 C   0  0  0  0  0  0  0  0  0  0  0  0
   38.4400   24.1720   33.3390 C   0  0  0  0  0  0  0  0  0  0  0  0
   37.7070   23.1100   32.8750 C   0  0  0  0  0  0  0  0  0  0  0  0
   38.0770   21.4400   33.2570 Cl  0  0  0  0  0  0  0  0  0  0  0  0
   36.6210   23.3850   32.0650 C   0  0  0  0  0  0  0  0  0  0  0  0
   38.6600   26.2890   33.3600 H   0  0  0  0  0  0  0  0  0  0  0  0
   39.5690   23.9070   34.1820 C   0  0  0  0  0  0  0  0  0  0  0  0
   39.5870   23.7570   35.5830 C   0  0  0  0  0  0  0  0  0  0  0  0
   38.6600   23.8430   36.1290 H   0  0  0  0  0  0  0  0  0  0  0  0
   40.8060   23.5060   36.1580 C   0  0  0  0  0  3  0  0  0  0  0  0
   41.9290   23.4210   35.3220 C   0  0  0  0  0  3  0  0  0  0  0  0
   41.2190   23.7030   33.6970 S   0  0  0  0  0  0  0  0  0  0  0  0
   35.8130   22.2360   31.5500 C   0  0  0  0  0  0  0  0  0  0  0  0
   36.6480   21.3170   30.9000 F   0  0  0  0  0  0  0  0  0  0  0  0
   34.9390   22.6690   30.5450 F   0  0  0  0  0  0  0  0  0  0  0  0
   35.0580   21.6330   32.5230 F   0  0  0  0  0  0  0  0  0  0  0  0
  1  6  2  0  0  0  0
  1  2  1  0  0  0  0
  2  3  2  0  0  0  0
  3  4  1  0  0  0  0
  3  9  1  0  0  0  0
  5 23  1  0  0  0  0
  5  4  2  0  0  0  0
  6  5  1  0  0  0  0
  7  1  1  0  0  0  0
  8  2  1  0  0  0  0
  9 10  2  0  0  0  0
  9 13  1  0  0  0  0
 10 11  1  0  0  0  0
 11 18  1  0  0  0  0
 11 12  1  0  0  0  0
 12 16  1  0  0  0  0
 13 12  2  0  0  0  0
 14 19  1  0  0  0  0
 15 14  2  0  0  0  0
 16 20  1  0  0  0  0
 16 14  1  0  0  0  0
 17 10  1  0  0  0  0
 21 22  1  0  0  0  0
 22 28  2  0  0  0  0
 22 23  1  0  0  0  0
 23 24  2  0  0  0  0
 24 25  1  0  0  0  0
 24 29  1  0  0  0  0
 25 30  1  0  0  0  0
 26 27  1  0  0  0  0
 26 25  2  0  0  0  0
 28 26  1  0  0  0  0
 30 31  2  0  0  0  0
 31 32  1  0  0  0  0
 31 33  1  0  0  0  0
 34 33  2  0  0  0  0
 35 30  1  0  0  0  0
 35 34  1  0  0  0  0
 36 28  1  0  0  0  0
 36 39  1  0  0  0  0
 37 36  1  0  0  0  0
 38 36  1  0  0  0  0
M  END
>  <minimizedAffinity>
-6.3740716

$$$$

 OpenBabel03272502503D

 39 42  0  0  0  0  0  0  0  0999 V2000
   35.0930   29.4020   32.1930 C   0  0  0  0  0  0  0  0  0  0  0  0
   35.6700   29.9020   31.0300 C   0  0  0  0  0  0  0  0  0  0  0  0
   36.6890   29.1500   30.4620 C   0  0  0  0  0  0  0  0  0  0  0  0
   37.0740   27.9840   31.0510 N   0  0  0  0  0  0  0  0  0  0  0  0
   36.4810   27.5430   32.1800 C   0  0  0  0  0  0  0  0  0  0  0  0
   35.4970   28.2600   32.7370 N   0  0  0  0  0  0  0  0  0  0  0  0
   34.3130   29.9900   32.6150 H   0  0  0  0  0  0  0  0  0  0  0  0
   35.4010   30.8230   30.5210 H   0  0  0  0  0  0  0  0  0  0  0  0
   37.3830   29.5660   29.2300 C   0  0  0  0  0  0  0  0  0  0  0  0
   38.1690   28.7360   28.4730 C   0  0  0  0  0  0  0  0  0  0  0  0
   38.6750   29.3930   27.4010 N   0  0  0  0  0  0  0  0  0  0  0  0
   38.2080   30.6370   27.4810 C   0  0  0  0  0  0  0  0  0  0  0  0
   37.4370   30.7220   28.5810 N   0  0  0  0  0  0  0  0  0  0  0  0
   37.3210   32.7230   26.5830 C   0  0  0  0  0  0  0  0  0  0  0  0
   36.2790   32.5440   27.2370 O   0  0  0  0  0  0  0  0  0  0  0  0
   38.3950   31.7700   26.6490 N   0  0  0  0  0  0  0  0  0  0  0  0
   38.3980   27.6750   28.6570 H   0  0  0  0  0  0  0  0  0  0  0  0
   39.3000   29.0550   26.6410 H   0  0  0  0  0  0  0  0  0  0  0  0
   37.4120   33.6320   25.9440 H   0  0  0  0  0  0  0  0  0  0  0  0
   39.2580   31.9470   26.0880 H   0  0  0  0  0  0  0  0  0  0  0  0
   37.6120   27.7790   34.9130 Cl  0  0  0  0  0  0  0  0  0  0  0  0
   37.4760   26.2820   34.0380 C   0  0  0  0  0  0  0  0  0  0  0  0
   36.9370   26.2760   32.7750 C   0  0  0  0  0  0  0  0  0  0  0  0
   36.8150   25.1160   32.0590 C   0  0  0  0  0  0  0  0  0  0  0  0
   37.2270   23.9180   32.5810 C   0  0  0  0  0  0  0  0  0  0  0  0
   37.7710   23.8800   33.8390 C   0  0  0  0  0  0  0  0  0  0  0  0
   38.3330   22.4070   34.6050 Cl  0  0  0  0  0  0  0  0  0  0  0  0
   37.8770   25.0740   34.5280 C   0  0  0  0  0  0  0  0  0  0  0  0
   36.3830   25.1430   31.0590 H   0  0  0  0  0  0  0  0  0  0  0  0
   37.1100   22.6900   31.8500 C   0  0  0  0  0  0  0  0  0  0  0  0
   35.9800   21.8570   31.7320 C   0  0  0  0  0  0  0  0  0  0  0  0
   35.0690   22.1390   32.2370 H   0  0  0  0  0  0  0  0  0  0  0  0
   36.1260   20.7270   30.9680 C   0  0  0  0  0  3  0  0  0  0  0  0
   37.3720   20.4870   30.3710 C   0  0  0  0  0  3  0  0  0  0  0  0
   38.3360   21.9010   30.9140 S   0  0  0  0  0  0  0  0  0  0  0  0
   38.4680   25.0480   35.9020 C   0  0  0  0  0  0  0  0  0  0  0  0
   37.6890   24.2390   36.7420 F   0  0  0  0  0  0  0  0  0  0  0  0
   38.3890   26.3180   36.4880 F   0  0  0  0  0  0  0  0  0  0  0  0
   39.7840   24.6680   35.9120 F   0  0  0  0  0  0  0  0  0  0  0  0
  1  7  1  0  0  0  0
  1  6  1  0  0  0  0
  2  1  2  0  0  0  0
  3  2  1  0  0  0  0
  3  4  2  0  0  0  0
  4  5  1  0  0  0  0
  5  6  2  0  0  0  0
  5 23  1  0  0  0  0
  8  2  1  0  0  0  0
  9  3  1  0  0  0  0
 10 17  1  0  0  0  0
 10  9  2  0  0  0  0
 11 12  1  0  0  0  0
 11 10  1  0  0  0  0
 12 13  2  0  0  0  0
 13  9  1  0  0  0  0
 14 16  1  0  0  0  0
 14 15  2  0  0  0  0
 16 12  1  0  0  0  0
 18 11  1  0  0  0  0
 19 14  1  0  0  0  0
 20 16  1  0  0  0  0
 22 28  1  0  0  0  0
 22 21  1  0  0  0  0
 23 22  2  0  0  0  0
 24 25  2  0  0  0  0
 24 23  1  0  0  0  0
 25 26  1  0  0  0  0
 26 28  2  0  0  0  0
 26 27  1  0  0  0  0
 28 36  1  0  0  0  0
 29 24  1  0  0  0  0
 30 25  1  0  0  0  0
 31 30  2  0  0  0  0
 31 32  1  0  0  0  0
 33 31  1  0  0  0  0
 34 35  1  0  0  0  0
 34 33  2  0  0  0  0
 35 30  1  0  0  0  0
 36 39  1  0  0  0  0
 36 38  1  0  0  0  0
 36 37  1  0  0  0  0
M  END
>  <minimizedAffinity>
-6.34380341

$$$$

 OpenBabel03272502503D

 39 42  0  0  0  0  0  0  0  0999 V2000
   40.0110   24.4190   35.1200 C   0  0  0  0  0  0  0  0  0  0  0  0
   39.2680   23.2460   35.2170 C   0  0  0  0  0  0  0  0  0  0  0  0
   37.9950   23.2630   34.6630 C   0  0  0  0  0  0  0  0  0  0  0  0
   37.5370   24.3970   34.0640 N   0  0  0  0  0  0  0  0  0  0  0  0
   38.2990   25.5090   33.9960 C   0  0  0  0  0  0  0  0  0  0  0  0
   39.5280   25.5040   34.5270 N   0  0  0  0  0  0  0  0  0  0  0  0
   40.9850   24.3890   35.5490 H   0  0  0  0  0  0  0  0  0  0  0  0
   39.5860   22.3180   35.6820 H   0  0  0  0  0  0  0  0  0  0  0  0
   37.1050   22.0890   34.6960 C   0  0  0  0  0  0  0  0  0  0  0  0
   36.5600   21.5700   35.8420 C   0  0  0  0  0  0  0  0  0  0  0  0
   35.7850   20.4940   35.5660 N   0  0  0  0  0  0  0  0  0  0  0  0
   35.8410   20.3330   34.2450 C   0  0  0  0  0  0  0  0  0  0  0  0
   36.6350   21.2960   33.7420 N   0  0  0  0  0  0  0  0  0  0  0  0
   34.9300   19.8040   32.0470 C   0  0  0  0  0  0  0  0  0  0  0  0
   35.1890   20.9610   31.6770 O   0  0  0  0  0  0  0  0  0  0  0  0
   35.2380   19.3800   33.3850 N   0  0  0  0  0  0  0  0  0  0  0  0
   36.6940   21.9320   36.8740 H   0  0  0  0  0  0  0  0  0  0  0  0
   35.2370   19.8810   36.2030 H   0  0  0  0  0  0  0  0  0  0  0  0
   34.4540   19.0970   31.3270 H   0  0  0  0  0  0  0  0  0  0  0  0
   35.0080   18.4010   33.6680 H   0  0  0  0  0  0  0  0  0  0  0  0
   39.1740   25.9000   31.1880 Cl  0  0  0  0  0  0  0  0  0  0  0  0
   38.1010   26.9750   32.0360 C   0  0  0  0  0  0  0  0  0  0  0  0
   37.7540   26.7070   33.3370 C   0  0  0  0  0  0  0  0  0  0  0  0
   36.9130   27.5310   34.0340 C   0  0  0  0  0  0  0  0  0  0  0  0
   36.3850   28.6550   33.4530 C   0  0  0  0  0  0  0  0  0  0  0  0
   36.7060   28.9590   32.1550 C   0  0  0  0  0  0  0  0  0  0  0  0
   36.0920   30.3680   31.3120 Cl  0  0  0  0  0  0  0  0  0  0  0  0
   37.5600   28.1000   31.4880 C   0  0  0  0  0  0  0  0  0  0  0  0
   36.6550   27.2920   35.0650 H   0  0  0  0  0  0  0  0  0  0  0  0
   35.5020   29.5340   34.1620 C   0  0  0  0  0  0  0  0  0  0  0  0
   35.8440   30.5780   35.0450 C   0  0  0  0  0  0  0  0  0  0  0  0
   36.8870   30.7750   35.2390 H   0  0  0  0  0  0  0  0  0  0  0  0
   34.8040   31.2790   35.6010 C   0  0  0  0  0  3  0  0  0  0  0  0
   33.4970   30.9090   35.2560 C   0  0  0  0  0  3  0  0  0  0  0  0
   33.7700   29.5430   34.1230 S   0  0  0  0  0  0  0  0  0  0  0  0
   37.9180   28.4190   30.0700 C   0  0  0  0  0  0  0  0  0  0  0  0
   36.7670   28.4000   29.2700 F   0  0  0  0  0  0  0  0  0  0  0  0
   38.7200   27.4040   29.5330 F   0  0  0  0  0  0  0  0  0  0  0  0
   38.6030   29.5990   29.9430 F   0  0  0  0  0  0  0  0  0  0  0  0
  1  2  1  0  0  0  0
  1  7  1  0  0  0  0
  2  8  1  0  0  0  0
  3  9  1  0  0  0  0
  3  2  2  0  0  0  0
  4  3  1  0  0  0  0
  5  4  2  0  0  0  0
  5  6  1  0  0  0  0
  6  1  2  0  0  0  0
  9 10  2  0  0  0  0
 10 17  1  0  0  0  0
 11 10  1  0  0  0  0
 11 18  1  0  0  0  0
 12 11  1  0  0  0  0
 13 12  2  0  0  0  0
 13  9  1  0  0  0  0
 14 16  1  0  0  0  0
 15 14  2  0  0  0  0
 16 20  1  0  0  0  0
 16 12  1  0  0  0  0
 19 14  1  0  0  0  0
 21 22  1  0  0  0  0
 22 23  1  0  0  0  0
 23  5  1  0  0  0  0
 23 24  2  0  0  0  0
 24 29  1  0  0  0  0
 25 24  1  0  0  0  0
 25 30  1  0  0  0  0
 26 25  2  0  0  0  0
 27 26  1  0  0  0  0
 28 22  2  0  0  0  0
 28 26  1  0  0  0  0
 30 31  2  0  0  0  0
 31 32  1  0  0  0  0
 31 33  1  0  0  0  0
 34 33  2  0  0  0  0
 35 30  1  0  0  0  0
 35 34  1  0  0  0  0
 36 28  1  0  0  0  0
 37 36  1  0  0  0  0
 38 36  1  0  0  0  0
 39 36  1  0  0  0  0
M  END
>  <minimizedAffinity>
-6.30685902

$$$$

 OpenBabel03272502503D

 39 42  0  0  0  0  0  0  0  0999 V2000
   39.6860   27.2720   30.0630 C   0  0  0  0  0  0  0  0  0  0  0  0
   38.7970   28.3410   30.0030 C   0  0  0  0  0  0  0  0  0  0  0  0
   37.6960   28.2880   30.8480 C   0  0  0  0  0  0  0  0  0  0  0  0
   37.5340   27.2200   31.6770 N   0  0  0  0  0  0  0  0  0  0  0  0
   38.4280   26.2090   31.6960 C   0  0  0  0  0  0  0  0  0  0  0  0
   39.4930   26.2490   30.8870 N   0  0  0  0  0  0  0  0  0  0  0  0
   40.5240   27.3290   29.4100 H   0  0  0  0  0  0  0  0  0  0  0  0
   38.8780   29.2130   29.3620 H   0  0  0  0  0  0  0  0  0  0  0  0
   36.6790   29.3540   30.8840 C   0  0  0  0  0  0  0  0  0  0  0  0
   36.6170   30.3890   29.9880 C   0  0  0  0  0  0  0  0  0  0  0  0
   35.5790   31.2130   30.2690 N   0  0  0  0  0  0  0  0  0  0  0  0
   34.9840   30.6980   31.3430 C   0  0  0  0  0  0  0  0  0  0  0  0
   35.6560   29.5860   31.6970 N   0  0  0  0  0  0  0  0  0  0  0  0
   33.0730   30.1010   32.7340 C   0  0  0  0  0  0  0  0  0  0  0  0
   33.3910   28.9040   32.6300 O   0  0  0  0  0  0  0  0  0  0  0  0
   33.8540   31.1200   32.0890 N   0  0  0  0  0  0  0  0  0  0  0  0
   37.2880   30.5810   29.1360 H   0  0  0  0  0  0  0  0  0  0  0  0
   35.2600   32.0780   29.7880 H   0  0  0  0  0  0  0  0  0  0  0  0
   32.1740   30.3740   33.3330 H   0  0  0  0  0  0  0  0  0  0  0  0
   33.5640   32.1180   32.1940 H   0  0  0  0  0  0  0  0  0  0  0  0
   39.5120   26.5840   34.4330 Cl  0  0  0  0  0  0  0  0  0  0  0  0
   38.6690   25.1570   33.9020 C   0  0  0  0  0  0  0  0  0  0  0  0
   38.2040   25.0790   32.6130 C   0  0  0  0  0  0  0  0  0  0  0  0
   37.5380   23.9720   32.1620 C   0  0  0  0  0  0  0  0  0  0  0  0
   37.3110   22.9010   32.9870 C   0  0  0  0  0  0  0  0  0  0  0  0
   37.7590   22.9390   34.2830 C   0  0  0  0  0  0  0  0  0  0  0  0
   37.5270   21.6290   35.4250 Cl  0  0  0  0  0  0  0  0  0  0  0  0
   38.4280   24.0760   34.6970 C   0  0  0  0  0  0  0  0  0  0  0  0
   37.1810   23.9390   31.1340 H   0  0  0  0  0  0  0  0  0  0  0  0
   36.6160   21.7300   32.5390 C   0  0  0  0  0  0  0  0  0  0  0  0
   35.2240   21.5260   32.4610 C   0  0  0  0  0  0  0  0  0  0  0  0
   34.5630   22.3220   32.7660 H   0  0  0  0  0  0  0  0  0  0  0  0
   34.8060   20.3060   31.9940 C   0  0  0  0  0  3  0  0  0  0  0  0
   35.7820   19.3650   31.6350 C   0  0  0  0  0  3  0  0  0  0  0  0
   37.3090   20.2470   31.9720 S   0  0  0  0  0  0  0  0  0  0  0  0
   38.9220   24.1310   36.1080 C   0  0  0  0  0  0  0  0  0  0  0  0
   40.3240   24.1450   36.1240 F   0  0  0  0  0  0  0  0  0  0  0  0
   38.5890   22.9510   36.7850 F   0  0  0  0  0  0  0  0  0  0  0  0
   38.3970   25.1790   36.8190 F   0  0  0  0  0  0  0  0  0  0  0  0
  1  6  1  0  0  0  0
  2  1  2  0  0  0  0
  2  3  1  0  0  0  0
  3  9  1  0  0  0  0
  3  4  2  0  0  0  0
  4  5  1  0  0  0  0
  5 23  1  0  0  0  0
  6  5  2  0  0  0  0
  7  1  1  0  0  0  0
  8  2  1  0  0  0  0
  9 13  1  0  0  0  0
 10 11  1  0  0  0  0
 10  9  2  0  0  0  0
 11 12  1  0  0  0  0
 12 13  2  0  0  0  0
 12 16  1  0  0  0  0
 14 19  1  0  0  0  0
 15 14  2  0  0  0  0
 16 20  1  0  0  0  0
 16 14  1  0  0  0  0
 17 10  1  0  0  0  0
 18 11  1  0  0  0  0
 22 21  1  0  0  0  0
 22 28  1  0  0  0  0
 23 22  2  0  0  0  0
 24 23  1  0  0  0  0
 24 25  2  0  0  0  0
 25 26  1  0  0  0  0
 26 28  2  0  0  0  0
 26 27  1  0  0  0  0
 28 36  1  0  0  0  0
 29 24  1  0  0  0  0
 30 25  1  0  0  0  0
 31 30  2  0  0  0  0
 31 32  1  0  0  0  0
 33 31  1  0  0  0  0
 34 35  1  0  0  0  0
 34 33  2  0  0  0  0
 35 30  1  0  0  0  0
 36 37  1  0  0  0  0
 36 38  1  0  0  0  0
 36 39  1  0  0  0  0
M  END
>  <minimizedAffinity>
-6.29900217

$$$$
