
 OpenBabel03272510283D

 42 46  0  0  1  0  0  0  0  0999 V2000
   35.8990   29.5560   32.8180 C   0  0  0  0  0  0  0  0  0  0  0  0
   35.8870   29.3440   34.1750 C   0  0  0  0  0  0  0  0  0  0  0  0
   36.4620   28.1930   34.7380 C   0  0  0  0  0  0  0  0  0  0  0  0
   37.0370   27.2970   33.8350 C   0  0  0  0  0  0  0  0  0  0  0  0
   37.6610   26.1080   34.1340 N   0  0  0  0  0  0  0  0  0  0  0  0
   38.0570   25.5930   32.9590 C   0  0  0  0  0  0  0  0  0  0  0  0
   37.7050   26.4020   31.9790 N   0  0  0  0  0  0  0  0  0  0  0  0
   37.0690   27.4720   32.4810 C   0  0  0  0  0  0  0  0  0  0  0  0
   36.4830   28.6340   31.9660 C   0  0  0  0  0  0  0  0  0  0  0  0
   35.4550   30.4440   32.3770 H   0  0  0  0  0  0  0  0  0  0  0  0
   36.4670   27.9980   35.8040 H   0  0  0  0  0  0  0  0  0  0  0  0
   37.7960   25.6960   35.0870 H   0  0  0  0  0  0  0  0  0  0  0  0
   36.5040   28.7820   30.8910 H   0  0  0  0  0  0  0  0  0  0  0  0
   35.1480   32.1270   36.6050 C   0  0  0  0  0  0  0  0  0  0  0  0
   35.9100   31.2590   35.8240 C   0  0  0  0  0  0  0  0  0  0  0  0
   35.2720   30.3260   35.0500 C   0  0  0  0  0  0  0  0  0  0  0  0
   33.8930   30.3100   35.0960 N   0  0  0  0  0  0  0  0  0  0  0  0
   33.1640   31.1530   35.8540 C   0  0  0  0  0  0  0  0  0  0  0  0
   33.7860   32.0440   36.5920 N   0  0  0  0  0  0  0  0  0  0  0  0
   35.6880   32.8520   37.2040 H   0  0  0  0  0  0  0  0  0  0  0  0
   36.9900   31.2590   35.7780 H   0  0  0  0  0  0  0  0  0  0  0  0
   32.0850   31.0530   35.8150 H   0  0  0  0  0  0  0  0  0  0  0  0
   38.7350   24.3770   32.8670 O   0  0  0  0  0  0  0  0  0  0  0  0
   39.6930   22.5840   33.9580 N   0  0  0  0  0  0  0  0  0  0  0  0
   39.5270   24.0290   33.9910 C   0  0  1  0  0  0  0  0  0  0  0  0
   40.8210   24.6910   33.9410 C   0  0  0  0  0  0  0  0  0  0  0  0
   41.5600   24.3390   35.0820 O   0  0  0  0  0  0  0  0  0  0  0  0
   41.7070   22.9980   35.2870 C   0  0  0  0  0  0  0  0  0  0  0  0
   40.4020   22.2590   35.1850 C   0  0  1  0  0  0  0  0  0  0  0  0
   40.2460   22.1860   33.2190 H   0  0  0  0  0  0  0  0  0  0  0  0
   39.0120   24.2390   34.9440 H   0  0  0  0  0  0  0  0  0  0  0  0
   41.5230   24.6080   33.1560 H   0  0  0  0  0  0  0  0  0  0  0  0
   40.6340   25.8000   34.0870 H   0  0  0  0  0  0  0  0  0  0  0  0
   42.3850   22.5450   34.5370 H   0  0  0  0  0  0  0  0  0  0  0  0
   42.0940   22.8670   36.3180 H   0  0  0  0  0  0  0  0  0  0  0  0
   40.6570   21.1770   35.2320 H   0  0  0  0  0  0  0  0  0  0  0  0
   39.5510   22.6840   36.3150 C   0  0  0  0  0  0  0  0  0  0  0  0
   39.8680   23.0100   37.5650 C   0  0  0  0  0  0  0  0  0  0  0  0
   40.9230   22.9760   37.8620 H   0  0  0  0  0  0  0  0  0  0  0  0
   38.9210   23.3840   38.4830 C   0  0  0  0  0  3  0  0  0  0  0  0
   37.5790   23.3840   37.9550 C   0  0  0  0  0  3  0  0  0  0  0  0
   37.7650   22.8650   36.2370 S   0  0  0  0  0  0  0  0  0  0  0  0
  1  2  1  0  0  0  0
  2  3  2  0  0  0  0
  2 16  1  0  0  0  0
  3 11  1  0  0  0  0
  4  5  1  0  0  0  0
  4  3  1  0  0  0  0
  5 12  1  0  0  0  0
  6  5  1  0  0  0  0
  7  8  1  0  0  0  0
  7  6  2  0  0  0  0
  8  4  2  0  0  0  0
  9  8  1  0  0  0  0
  9  1  2  0  0  0  0
 10  1  1  0  0  0  0
 13  9  1  0  0  0  0
 14 20  1  0  0  0  0
 15 14  2  0  0  0  0
 16 17  2  0  0  0  0
 16 15  1  0  0  0  0
 17 18  1  0  0  0  0
 18 19  2  0  0  0  0
 19 14  1  0  0  0  0
 21 15  1  0  0  0  0
 22 18  1  0  0  0  0
 23  6  1  0  0  0  0
 23 25  1  0  0  0  0
 24 25  1  0  0  0  0
 24 29  1  0  0  0  0
 25 31  1  1  0  0  0
 26 25  1  0  0  0  0
 26 33  1  0  0  0  0
 26 27  1  0  0  0  0
 27 28  1  0  0  0  0
 28 35  1  0  0  0  0
 29 36  1  1  0  0  0
 29 28  1  0  0  0  0
 29 37  1  0  0  0  0
 30 24  1  0  0  0  0
 32 26  1  0  0  0  0
 34 28  1  0  0  0  0
 37 38  2  0  0  0  0
 38 39  1  0  0  0  0
 38 40  1  0  0  0  0
 41 40  2  0  0  0  0
 42 37  1  0  0  0  0
 42 41  1  0  0  0  0
M  END
>  <minimizedAffinity>
-6.09035921

$$$$

 OpenBabel03272510283D

 42 46  0  0  1  0  0  0  0  0999 V2000
   37.9930   24.1870   33.7360 C   0  0  0  0  0  0  0  0  0  0  0  0
   37.9990   24.8670   34.9290 C   0  0  0  0  0  0  0  0  0  0  0  0
   37.5140   26.1820   35.0220 C   0  0  0  0  0  0  0  0  0  0  0  0
   37.0340   26.7380   33.8350 C   0  0  0  0  0  0  0  0  0  0  0  0
   36.5080   27.9970   33.6650 N   0  0  0  0  0  0  0  0  0  0  0  0
   36.1780   28.0890   32.3670 C   0  0  0  0  0  0  0  0  0  0  0  0
   36.4770   26.9600   31.7530 N   0  0  0  0  0  0  0  0  0  0  0  0
   37.0110   26.0950   32.6300 C   0  0  0  0  0  0  0  0  0  0  0  0
   37.5050   24.7860   32.5870 C   0  0  0  0  0  0  0  0  0  0  0  0
   38.3660   23.1700   33.6570 H   0  0  0  0  0  0  0  0  0  0  0  0
   37.5060   26.7440   35.9490 H   0  0  0  0  0  0  0  0  0  0  0  0
   36.3920   28.7300   34.4030 H   0  0  0  0  0  0  0  0  0  0  0  0
   37.4900   24.2680   31.6330 H   0  0  0  0  0  0  0  0  0  0  0  0
   39.9400   22.8530   37.4520 C   0  0  0  0  0  0  0  0  0  0  0  0
   39.5950   23.3850   36.2110 C   0  0  0  0  0  0  0  0  0  0  0  0
   38.5110   24.2180   36.1230 C   0  0  0  0  0  0  0  0  0  0  0  0
   37.8240   24.4790   37.2910 N   0  0  0  0  0  0  0  0  0  0  0  0
   38.1650   23.9600   38.4870 C   0  0  0  0  0  0  0  0  0  0  0  0
   39.2060   23.1630   38.5600 N   0  0  0  0  0  0  0  0  0  0  0  0
   40.8050   22.1970   37.4830 H   0  0  0  0  0  0  0  0  0  0  0  0
   40.1220   23.1900   35.2880 H   0  0  0  0  0  0  0  0  0  0  0  0
   37.5560   24.2320   39.3410 H   0  0  0  0  0  0  0  0  0  0  0  0
   35.6080   29.2390   31.8190 O   0  0  0  0  0  0  0  0  0  0  0  0
   34.4780   31.2330   32.0770 N   0  0  0  0  0  0  0  0  0  0  0  0
   34.6600   29.9030   32.6380 C   0  0  1  0  0  0  0  0  0  0  0  0
   33.3960   29.1830   32.6590 C   0  0  0  0  0  0  0  0  0  0  0  0
   32.4970   29.8600   33.4990 O   0  0  0  0  0  0  0  0  0  0  0  0
   32.3020   31.1770   33.1990 C   0  0  0  0  0  0  0  0  0  0  0  0
   33.5980   31.9170   33.0110 C   0  0  1  0  0  0  0  0  0  0  0  0
   34.0300   31.3140   31.1810 H   0  0  0  0  0  0  0  0  0  0  0  0
   35.0380   30.0700   33.6610 H   0  0  0  0  0  0  0  0  0  0  0  0
   32.8120   28.9430   31.8120 H   0  0  0  0  0  0  0  0  0  0  0  0
   33.5780   28.2080   33.2080 H   0  0  0  0  0  0  0  0  0  0  0  0
   31.7310   31.2980   32.2570 H   0  0  0  0  0  0  0  0  0  0  0  0
   31.7710   31.6320   34.0590 H   0  0  0  0  0  0  0  0  0  0  0  0
   33.3220   32.9290   32.6410 H   0  0  0  0  0  0  0  0  0  0  0  0
   34.2850   31.9650   34.3170 C   0  0  0  0  0  0  0  0  0  0  0  0
   35.5810   32.0030   34.6140 C   0  0  0  0  0  0  0  0  0  0  0  0
   36.3060   32.0000   33.7910 H   0  0  0  0  0  0  0  0  0  0  0  0
   36.0300   32.0460   35.9080 C   0  0  0  0  0  3  0  0  0  0  0  0
   34.9690   32.0450   36.8850 C   0  0  0  0  0  3  0  0  0  0  0  0
   33.4530   31.9840   35.9090 S   0  0  0  0  0  0  0  0  0  0  0  0
  1  2  1  0  0  0  0
  2  3  2  0  0  0  0
  2 16  1  0  0  0  0
  3 11  1  0  0  0  0
  4  3  1  0  0  0  0
  5  4  1  0  0  0  0
  5 12  1  0  0  0  0
  6  5  1  0  0  0  0
  7  6  2  0  0  0  0
  7  8  1  0  0  0  0
  8  4  2  0  0  0  0
  9  8  1  0  0  0  0
  9  1  2  0  0  0  0
 10  1  1  0  0  0  0
 13  9  1  0  0  0  0
 14 20  1  0  0  0  0
 14 19  1  0  0  0  0
 15 14  2  0  0  0  0
 16 15  1  0  0  0  0
 16 17  2  0  0  0  0
 17 18  1  0  0  0  0
 18 19  2  0  0  0  0
 18 22  1  0  0  0  0
 21 15  1  0  0  0  0
 23  6  1  0  0  0  0
 23 25  1  0  0  0  0
 24 25  1  0  0  0  0
 24 29  1  0  0  0  0
 25 26  1  0  0  0  0
 25 31  1  1  0  0  0
 26 33  1  0  0  0  0
 26 27  1  0  0  0  0
 28 27  1  0  0  0  0
 28 35  1  0  0  0  0
 29 36  1  6  0  0  0
 29 28  1  0  0  0  0
 29 37  1  0  0  0  0
 30 24  1  0  0  0  0
 32 26  1  0  0  0  0
 34 28  1  0  0  0  0
 37 38  2  0  0  0  0
 37 42  1  0  0  0  0
 38 40  1  0  0  0  0
 39 38  1  0  0  0  0
 40 41  2  0  0  0  0
 42 41  1  0  0  0  0
M  END
>  <minimizedAffinity>
-6.05391645

$$$$

 OpenBabel03272510283D

 42 46  0  0  1  0  0  0  0  0999 V2000
   38.0440   23.5570   33.8010 C   0  0  0  0  0  0  0  0  0  0  0  0
   38.0900   24.4250   34.8650 C   0  0  0  0  0  0  0  0  0  0  0  0
   37.7030   25.7680   34.7280 C   0  0  0  0  0  0  0  0  0  0  0  0
   37.2770   26.1510   33.4550 C   0  0  0  0  0  0  0  0  0  0  0  0
   36.8490   27.3990   33.0670 N   0  0  0  0  0  0  0  0  0  0  0  0
   36.5390   27.2960   31.7650 C   0  0  0  0  0  0  0  0  0  0  0  0
   36.7580   26.0620   31.3540 N   0  0  0  0  0  0  0  0  0  0  0  0
   37.2170   25.3190   32.3730 C   0  0  0  0  0  0  0  0  0  0  0  0
   37.6130   23.9890   32.5580 C   0  0  0  0  0  0  0  0  0  0  0  0
   38.3420   22.5170   33.9010 H   0  0  0  0  0  0  0  0  0  0  0  0
   37.7290   26.4760   35.5480 H   0  0  0  0  0  0  0  0  0  0  0  0
   36.7800   28.2510   33.6710 H   0  0  0  0  0  0  0  0  0  0  0  0
   37.5690   23.3220   31.7040 H   0  0  0  0  0  0  0  0  0  0  0  0
   39.9130   22.8050   37.7370 C   0  0  0  0  0  0  0  0  0  0  0  0
   39.6330   23.1630   36.4190 C   0  0  0  0  0  0  0  0  0  0  0  0
   38.5420   23.9490   36.1610 C   0  0  0  0  0  0  0  0  0  0  0  0
   37.7790   24.3400   37.2430 N   0  0  0  0  0  0  0  0  0  0  0  0
   38.0580   23.9890   38.5140 C   0  0  0  0  0  0  0  0  0  0  0  0
   39.1070   23.2350   38.7500 N   0  0  0  0  0  0  0  0  0  0  0  0
   40.7860   22.1820   37.9020 H   0  0  0  0  0  0  0  0  0  0  0  0
   40.2190   22.8650   35.5610 H   0  0  0  0  0  0  0  0  0  0  0  0
   37.3920   24.3520   39.2890 H   0  0  0  0  0  0  0  0  0  0  0  0
   36.0610   28.3760   31.0220 O   0  0  0  0  0  0  0  0  0  0  0  0
   37.0470   28.2970   28.9390 N   0  0  0  0  0  0  0  0  0  0  0  0
   37.0160   29.0240   30.1980 C   0  0  1  0  0  0  0  0  0  0  0  0
   36.6500   30.4140   29.9730 C   0  0  0  0  0  0  0  0  0  0  0  0
   37.6330   31.0230   29.1760 O   0  0  0  0  0  0  0  0  0  0  0  0
   37.8940   30.3910   27.9950 C   0  0  0  0  0  0  0  0  0  0  0  0
   38.1190   28.9160   28.1750 C   0  0  1  0  0  0  0  0  0  0  0  0
   36.2380   28.3400   28.3440 H   0  0  0  0  0  0  0  0  0  0  0  0
   38.0380   28.9440   30.6040 H   0  0  0  0  0  0  0  0  0  0  0  0
   35.7430   30.7500   29.5480 H   0  0  0  0  0  0  0  0  0  0  0  0
   36.7560   30.9510   30.9670 H   0  0  0  0  0  0  0  0  0  0  0  0
   37.0520   30.4970   27.2830 H   0  0  0  0  0  0  0  0  0  0  0  0
   38.8280   30.8320   27.5900 H   0  0  0  0  0  0  0  0  0  0  0  0
   38.1850   28.4880   27.1500 H   0  0  0  0  0  0  0  0  0  0  0  0
   39.3700   28.7370   28.9380 C   0  0  0  0  0  0  0  0  0  0  0  0
   39.7270   27.8000   29.8120 C   0  0  0  0  0  0  0  0  0  0  0  0
   39.0120   27.0000   30.0410 H   0  0  0  0  0  0  0  0  0  0  0  0
   40.9520   27.8060   30.4260 C   0  0  0  0  0  3  0  0  0  0  0  0
   41.7880   28.9130   30.0300 C   0  0  0  0  0  3  0  0  0  0  0  0
   40.7890   29.8350   28.8440 S   0  0  0  0  0  0  0  0  0  0  0  0
  1 10  1  0  0  0  0
  1  2  1  0  0  0  0
  2 16  1  0  0  0  0
  3  2  2  0  0  0  0
  3 11  1  0  0  0  0
  4  3  1  0  0  0  0
  5  4  1  0  0  0  0
  5 12  1  0  0  0  0
  6  5  1  0  0  0  0
  7  6  2  0  0  0  0
  7  8  1  0  0  0  0
  8  9  1  0  0  0  0
  8  4  2  0  0  0  0
  9  1  2  0  0  0  0
 13  9  1  0  0  0  0
 14 20  1  0  0  0  0
 14 19  1  0  0  0  0
 15 14  2  0  0  0  0
 16 15  1  0  0  0  0
 16 17  2  0  0  0  0
 17 18  1  0  0  0  0
 18 19  2  0  0  0  0
 18 22  1  0  0  0  0
 21 15  1  0  0  0  0
 23  6  1  0  0  0  0
 24 25  1  0  0  0  0
 25 31  1  1  0  0  0
 25 23  1  0  0  0  0
 26 25  1  0  0  0  0
 26 33  1  0  0  0  0
 27 26  1  0  0  0  0
 28 29  1  0  0  0  0
 28 27  1  0  0  0  0
 29 36  1  6  0  0  0
 29 37  1  0  0  0  0
 29 24  1  0  0  0  0
 30 24  1  0  0  0  0
 32 26  1  0  0  0  0
 34 28  1  0  0  0  0
 35 28  1  0  0  0  0
 37 38  2  0  0  0  0
 38 39  1  0  0  0  0
 38 40  1  0  0  0  0
 41 40  2  0  0  0  0
 42 37  1  0  0  0  0
 42 41  1  0  0  0  0
M  END
>  <minimizedAffinity>
-5.95973778

$$$$

 OpenBabel03272510283D

 42 46  0  0  1  0  0  0  0  0999 V2000
   37.3300   23.1400   32.9200 C   0  0  0  0  0  0  0  0  0  0  0  0
   36.4220   22.7740   31.9560 C   0  0  0  0  0  0  0  0  0  0  0  0
   35.7950   23.7310   31.1420 C   0  0  0  0  0  0  0  0  0  0  0  0
   36.1550   25.0600   31.3800 C   0  0  0  0  0  0  0  0  0  0  0  0
   35.6890   26.1730   30.7210 N   0  0  0  0  0  0  0  0  0  0  0  0
   36.3110   27.2220   31.2800 C   0  0  0  0  0  0  0  0  0  0  0  0
   37.1190   26.8010   32.2340 N   0  0  0  0  0  0  0  0  0  0  0  0
   37.0520   25.4640   32.3270 C   0  0  0  0  0  0  0  0  0  0  0  0
   37.6510   24.4730   33.1140 C   0  0  0  0  0  0  0  0  0  0  0  0
   37.8180   22.4040   33.5520 H   0  0  0  0  0  0  0  0  0  0  0  0
   35.0750   23.4730   30.3750 H   0  0  0  0  0  0  0  0  0  0  0  0
   34.9890   26.1900   29.9420 H   0  0  0  0  0  0  0  0  0  0  0  0
   38.3650   24.7850   33.8690 H   0  0  0  0  0  0  0  0  0  0  0  0
   34.9580   19.3040   32.0790 C   0  0  0  0  0  0  0  0  0  0  0  0
   35.1170   20.6530   32.3920 C   0  0  0  0  0  0  0  0  0  0  0  0
   36.1030   21.3700   31.7670 C   0  0  0  0  0  0  0  0  0  0  0  0
   36.8860   20.6940   30.8520 N   0  0  0  0  0  0  0  0  0  0  0  0
   36.7250   19.3890   30.5560 C   0  0  0  0  0  0  0  0  0  0  0  0
   35.7760   18.7120   31.1610 N   0  0  0  0  0  0  0  0  0  0  0  0
   34.1670   18.7700   32.5940 H   0  0  0  0  0  0  0  0  0  0  0  0
   34.5140   21.1960   33.1050 H   0  0  0  0  0  0  0  0  0  0  0  0
   37.3960   18.9580   29.8210 H   0  0  0  0  0  0  0  0  0  0  0  0
   36.0870   28.5350   30.8630 O   0  0  0  0  0  0  0  0  0  0  0  0
   37.1270   28.3390   28.8140 N   0  0  0  0  0  0  0  0  0  0  0  0
   37.1010   29.1030   30.0510 C   0  0  1  0  0  0  0  0  0  0  0  0
   36.8230   30.5040   29.7780 C   0  0  0  0  0  0  0  0  0  0  0  0
   37.8620   31.0330   28.9950 O   0  0  0  0  0  0  0  0  0  0  0  0
   38.1220   30.3530   27.8400 C   0  0  0  0  0  0  0  0  0  0  0  0
   38.2550   28.8730   28.0670 C   0  0  1  0  0  0  0  0  0  0  0  0
   36.3400   28.4100   28.1940 H   0  0  0  0  0  0  0  0  0  0  0  0
   38.1050   28.9770   30.4910 H   0  0  0  0  0  0  0  0  0  0  0  0
   35.9500   30.8790   29.3160 H   0  0  0  0  0  0  0  0  0  0  0  0
   36.9300   31.0630   30.7590 H   0  0  0  0  0  0  0  0  0  0  0  0
   37.3080   30.4860   27.0990 H   0  0  0  0  0  0  0  0  0  0  0  0
   39.0900   30.7280   27.4520 H   0  0  0  0  0  0  0  0  0  0  0  0
   38.3270   28.4120   27.0570 H   0  0  0  0  0  0  0  0  0  0  0  0
   39.4710   28.6460   28.8740 C   0  0  0  0  0  0  0  0  0  0  0  0
   40.5020   29.4450   29.1330 C   0  0  0  0  0  0  0  0  0  0  0  0
   40.5030   30.4540   28.7010 H   0  0  0  0  0  0  0  0  0  0  0  0
   41.5530   29.0470   29.9180 C   0  0  0  0  0  3  0  0  0  0  0  0
   41.4180   27.7010   30.4170 C   0  0  0  0  0  3  0  0  0  0  0  0
   39.8470   27.1220   29.7480 S   0  0  0  0  0  0  0  0  0  0  0  0
  1  9  1  0  0  0  0
  1 10  1  0  0  0  0
  2  1  2  0  0  0  0
  3  4  2  0  0  0  0
  3  2  1  0  0  0  0
  4  8  1  0  0  0  0
  5  6  1  0  0  0  0
  5  4  1  0  0  0  0
  6  7  2  0  0  0  0
  7  8  1  0  0  0  0
  8  9  2  0  0  0  0
  9 13  1  0  0  0  0
 11  3  1  0  0  0  0
 12  5  1  0  0  0  0
 14 15  1  0  0  0  0
 14 20  1  0  0  0  0
 15 21  1  0  0  0  0
 16  2  1  0  0  0  0
 16 15  2  0  0  0  0
 17 16  1  0  0  0  0
 18 17  2  0  0  0  0
 18 19  1  0  0  0  0
 19 14  2  0  0  0  0
 22 18  1  0  0  0  0
 23  6  1  0  0  0  0
 24 25  1  0  0  0  0
 25 31  1  1  0  0  0
 25 23  1  0  0  0  0
 26 25  1  0  0  0  0
 26 33  1  0  0  0  0
 27 26  1  0  0  0  0
 28 29  1  0  0  0  0
 28 27  1  0  0  0  0
 29 36  1  6  0  0  0
 29 24  1  0  0  0  0
 29 37  1  0  0  0  0
 30 24  1  0  0  0  0
 32 26  1  0  0  0  0
 34 28  1  0  0  0  0
 35 28  1  0  0  0  0
 37 38  2  0  0  0  0
 37 42  1  0  0  0  0
 38 40  1  0  0  0  0
 39 38  1  0  0  0  0
 40 41  2  0  0  0  0
 42 41  1  0  0  0  0
M  END
>  <minimizedAffinity>
-5.85288906

$$$$

 OpenBabel03272510283D

 42 46  0  0  1  0  0  0  0  0999 V2000
   39.5150   26.8960   35.5940 C   0  0  0  0  0  0  0  0  0  0  0  0
   40.1210   26.8270   34.3630 C   0  0  0  0  0  0  0  0  0  0  0  0
   39.4170   27.1280   33.1860 C   0  0  0  0  0  0  0  0  0  0  0  0
   38.0810   27.4960   33.3540 C   0  0  0  0  0  0  0  0  0  0  0  0
   37.1870   27.8380   32.3670 N   0  0  0  0  0  0  0  0  0  0  0  0
   36.0330   28.1180   32.9930 C   0  0  0  0  0  0  0  0  0  0  0  0
   36.1850   27.9620   34.2930 N   0  0  0  0  0  0  0  0  0  0  0  0
   37.4430   27.5760   34.5590 C   0  0  0  0  0  0  0  0  0  0  0  0
   38.1860   27.2660   35.7050 C   0  0  0  0  0  0  0  0  0  0  0  0
   40.0540   26.6640   36.5080 H   0  0  0  0  0  0  0  0  0  0  0  0
   39.8680   27.0830   32.2010 H   0  0  0  0  0  0  0  0  0  0  0  0
   37.3760   27.8720   31.3370 H   0  0  0  0  0  0  0  0  0  0  0  0
   37.6870   27.3270   36.6660 H   0  0  0  0  0  0  0  0  0  0  0  0
   43.8000   26.5500   33.5950 C   0  0  0  0  0  0  0  0  0  0  0  0
   42.5070   27.0710   33.5630 C   0  0  0  0  0  0  0  0  0  0  0  0
   41.5180   26.4400   34.2710 C   0  0  0  0  0  0  0  0  0  0  0  0
   41.8770   25.3130   34.9820 N   0  0  0  0  0  0  0  0  0  0  0  0
   43.1300   24.8170   35.0080 C   0  0  0  0  0  0  0  0  0  0  0  0
   44.0700   25.4300   34.3250 N   0  0  0  0  0  0  0  0  0  0  0  0
   44.5560   27.0770   33.0220 H   0  0  0  0  0  0  0  0  0  0  0  0
   42.2100   27.9510   33.0110 H   0  0  0  0  0  0  0  0  0  0  0  0
   43.3020   23.9250   35.6000 H   0  0  0  0  0  0  0  0  0  0  0  0
   34.8850   28.5100   32.3040 O   0  0  0  0  0  0  0  0  0  0  0  0
   34.4380   30.7690   32.1770 N   0  0  0  0  0  0  0  0  0  0  0  0
   34.1320   29.5500   32.9070 C   0  0  1  0  0  0  0  0  0  0  0  0
   32.7070   29.2640   32.8440 C   0  0  0  0  0  0  0  0  0  0  0  0
   32.0030   30.3030   33.4730 O   0  0  0  0  0  0  0  0  0  0  0  0
   32.2700   31.5550   32.9980 C   0  0  0  0  0  0  0  0  0  0  0  0
   33.7450   31.8240   32.9000 C   0  0  1  0  0  0  0  0  0  0  0  0
   34.1220   30.8470   31.2260 H   0  0  0  0  0  0  0  0  0  0  0  0
   34.4500   29.7460   33.9450 H   0  0  0  0  0  0  0  0  0  0  0  0
   32.1540   29.0890   31.9610 H   0  0  0  0  0  0  0  0  0  0  0  0
   32.5150   28.3750   33.5220 H   0  0  0  0  0  0  0  0  0  0  0  0
   31.8540   31.7000   31.9820 H   0  0  0  0  0  0  0  0  0  0  0  0
   31.8390   32.2760   33.7220 H   0  0  0  0  0  0  0  0  0  0  0  0
   33.8450   32.8040   32.3810 H   0  0  0  0  0  0  0  0  0  0  0  0
   34.2930   31.8580   34.2700 C   0  0  0  0  0  0  0  0  0  0  0  0
   35.5030   31.5500   34.7290 C   0  0  0  0  0  0  0  0  0  0  0  0
   36.2620   31.2090   34.0140 H   0  0  0  0  0  0  0  0  0  0  0  0
   35.8250   31.6480   36.0580 C   0  0  0  0  0  3  0  0  0  0  0  0
   34.7330   32.1080   36.8800 C   0  0  0  0  0  3  0  0  0  0  0  0
   33.3690   32.3600   35.7270 S   0  0  0  0  0  0  0  0  0  0  0  0
  1  9  1  0  0  0  0
  1 10  1  0  0  0  0
  2  1  2  0  0  0  0
  3  4  2  0  0  0  0
  3  2  1  0  0  0  0
  4  8  1  0  0  0  0
  5  6  1  0  0  0  0
  5  4  1  0  0  0  0
  6  7  2  0  0  0  0
  7  8  1  0  0  0  0
  8  9  2  0  0  0  0
  9 13  1  0  0  0  0
 11  3  1  0  0  0  0
 12  5  1  0  0  0  0
 14 19  1  0  0  0  0
 15 14  2  0  0  0  0
 15 16  1  0  0  0  0
 16  2  1  0  0  0  0
 16 17  2  0  0  0  0
 17 18  1  0  0  0  0
 18 22  1  0  0  0  0
 19 18  2  0  0  0  0
 20 14  1  0  0  0  0
 21 15  1  0  0  0  0
 23 25  1  0  0  0  0
 23  6  1  0  0  0  0
 24 29  1  0  0  0  0
 24 25  1  0  0  0  0
 25 31  1  1  0  0  0
 26 25  1  0  0  0  0
 26 27  1  0  0  0  0
 26 33  1  0  0  0  0
 28 27  1  0  0  0  0
 28 35  1  0  0  0  0
 29 36  1  6  0  0  0
 29 28  1  0  0  0  0
 29 37  1  0  0  0  0
 30 24  1  0  0  0  0
 32 26  1  0  0  0  0
 34 28  1  0  0  0  0
 37 38  2  0  0  0  0
 37 42  1  0  0  0  0
 38 40  1  0  0  0  0
 39 38  1  0  0  0  0
 40 41  2  0  0  0  0
 42 41  1  0  0  0  0
M  END
>  <minimizedAffinity>
-5.82958412

$$$$

 OpenBabel03272510283D

 42 46  0  0  1  0  0  0  0  0999 V2000
   37.5330   23.7390   32.6220 C   0  0  0  0  0  0  0  0  0  0  0  0
   36.4980   23.3780   31.7940 C   0  0  0  0  0  0  0  0  0  0  0  0
   35.8030   24.3340   31.0360 C   0  0  0  0  0  0  0  0  0  0  0  0
   36.2330   25.6550   31.1810 C   0  0  0  0  0  0  0  0  0  0  0  0
   35.7220   26.7650   30.5520 N   0  0  0  0  0  0  0  0  0  0  0  0
   36.4450   27.8070   30.9920 C   0  0  0  0  0  0  0  0  0  0  0  0
   37.3550   27.3840   31.8480 N   0  0  0  0  0  0  0  0  0  0  0  0
   37.2570   26.0530   31.9930 C   0  0  0  0  0  0  0  0  0  0  0  0
   37.9190   25.0640   32.7300 C   0  0  0  0  0  0  0  0  0  0  0  0
   38.0740   23.0040   33.2100 H   0  0  0  0  0  0  0  0  0  0  0  0
   34.9830   24.0810   30.3750 H   0  0  0  0  0  0  0  0  0  0  0  0
   34.9290   26.7860   29.8680 H   0  0  0  0  0  0  0  0  0  0  0  0
   38.7340   25.3710   33.3770 H   0  0  0  0  0  0  0  0  0  0  0  0
   34.8390   20.0080   32.0920 C   0  0  0  0  0  0  0  0  0  0  0  0
   35.0550   21.3680   32.3110 C   0  0  0  0  0  0  0  0  0  0  0  0
   36.1120   21.9820   31.6930 C   0  0  0  0  0  0  0  0  0  0  0  0
   36.9050   21.1970   30.8790 N   0  0  0  0  0  0  0  0  0  0  0  0
   36.6880   19.8830   30.6730 C   0  0  0  0  0  0  0  0  0  0  0  0
   35.6720   19.3050   31.2710 N   0  0  0  0  0  0  0  0  0  0  0  0
   33.9920   19.5580   32.5980 H   0  0  0  0  0  0  0  0  0  0  0  0
   34.4450   21.9950   32.9450 H   0  0  0  0  0  0  0  0  0  0  0  0
   37.3730   19.3620   30.0140 H   0  0  0  0  0  0  0  0  0  0  0  0
   36.2110   29.1140   30.5650 O   0  0  0  0  0  0  0  0  0  0  0  0
   34.7190   30.8670   30.7100 N   0  0  0  0  0  0  0  0  0  0  0  0
   35.5360   29.9520   31.4900 C   0  0  1  0  0  0  0  0  0  0  0  0
   34.7050   29.1680   32.3900 C   0  0  0  0  0  0  0  0  0  0  0  0
   34.0780   30.0320   33.3020 O   0  0  0  0  0  0  0  0  0  0  0  0
   33.3630   31.0490   32.7400 C   0  0  0  0  0  0  0  0  0  0  0  0
   34.1440   31.7800   31.6850 C   0  0  1  0  0  0  0  0  0  0  0  0
   33.9360   30.4920   30.2030 H   0  0  0  0  0  0  0  0  0  0  0  0
   36.2340   30.5940   32.0530 H   0  0  0  0  0  0  0  0  0  0  0  0
   33.9310   28.5120   32.0970 H   0  0  0  0  0  0  0  0  0  0  0  0
   35.4040   28.5630   33.0470 H   0  0  0  0  0  0  0  0  0  0  0  0
   32.4430   30.6740   32.2490 H   0  0  0  0  0  0  0  0  0  0  0  0
   33.1270   31.7680   33.5510 H   0  0  0  0  0  0  0  0  0  0  0  0
   33.4290   32.4860   31.2070 H   0  0  0  0  0  0  0  0  0  0  0  0
   35.2610   32.4800   32.3510 C   0  0  0  0  0  0  0  0  0  0  0  0
   36.3720   33.0140   31.8520 C   0  0  0  0  0  0  0  0  0  0  0  0
   36.5390   32.9540   30.7690 H   0  0  0  0  0  0  0  0  0  0  0  0
   37.3040   33.6310   32.6440 C   0  0  0  0  0  3  0  0  0  0  0  0
   36.9540   33.6350   34.0440 C   0  0  0  0  0  3  0  0  0  0  0  0
   35.3670   32.7830   34.1190 S   0  0  0  0  0  0  0  0  0  0  0  0
  1  9  1  0  0  0  0
  1 10  1  0  0  0  0
  2  1  2  0  0  0  0
  3  4  2  0  0  0  0
  3  2  1  0  0  0  0
  4  8  1  0  0  0  0
  5  6  1  0  0  0  0
  5  4  1  0  0  0  0
  6  7  2  0  0  0  0
  7  8  1  0  0  0  0
  8  9  2  0  0  0  0
  9 13  1  0  0  0  0
 11  3  1  0  0  0  0
 12  5  1  0  0  0  0
 14 15  1  0  0  0  0
 14 20  1  0  0  0  0
 15 21  1  0  0  0  0
 16  2  1  0  0  0  0
 16 15  2  0  0  0  0
 17 16  1  0  0  0  0
 18 17  2  0  0  0  0
 18 19  1  0  0  0  0
 19 14  2  0  0  0  0
 22 18  1  0  0  0  0
 23  6  1  0  0  0  0
 23 25  1  0  0  0  0
 24 25  1  0  0  0  0
 24 29  1  0  0  0  0
 25 31  1  1  0  0  0
 25 26  1  0  0  0  0
 26 33  1  0  0  0  0
 26 27  1  0  0  0  0
 28 27  1  0  0  0  0
 28 35  1  0  0  0  0
 29 36  1  6  0  0  0
 29 37  1  0  0  0  0
 29 28  1  0  0  0  0
 30 24  1  0  0  0  0
 32 26  1  0  0  0  0
 34 28  1  0  0  0  0
 37 42  1  0  0  0  0
 38 37  2  0  0  0  0
 38 40  1  0  0  0  0
 39 38  1  0  0  0  0
 40 41  2  0  0  0  0
 41 42  1  0  0  0  0
M  END
>  <minimizedAffinity>
-5.79179668

$$$$

 OpenBabel03272510283D

 42 46  0  0  1  0  0  0  0  0999 V2000
   36.1340   28.4660   32.0490 C   0  0  0  0  0  0  0  0  0  0  0  0
   35.8000   28.6500   33.3690 C   0  0  0  0  0  0  0  0  0  0  0  0
   36.6610   28.2430   34.4010 C   0  0  0  0  0  0  0  0  0  0  0  0
   37.8580   27.6500   33.9970 C   0  0  0  0  0  0  0  0  0  0  0  0
   38.8600   27.1740   34.8090 N   0  0  0  0  0  0  0  0  0  0  0  0
   39.8090   26.7000   33.9870 C   0  0  0  0  0  0  0  0  0  0  0  0
   39.4320   26.8630   32.7340 N   0  0  0  0  0  0  0  0  0  0  0  0
   38.2260   27.4500   32.6970 C   0  0  0  0  0  0  0  0  0  0  0  0
   37.3360   27.8720   31.7020 C   0  0  0  0  0  0  0  0  0  0  0  0
   35.4730   28.7780   31.2450 H   0  0  0  0  0  0  0  0  0  0  0  0
   36.4250   28.3740   35.4510 H   0  0  0  0  0  0  0  0  0  0  0  0
   38.8730   27.1830   35.8560 H   0  0  0  0  0  0  0  0  0  0  0  0
   37.6200   27.7170   30.6660 H   0  0  0  0  0  0  0  0  0  0  0  0
   32.9980   30.6210   34.9370 C   0  0  0  0  0  0  0  0  0  0  0  0
   34.2830   30.1050   34.7710 C   0  0  0  0  0  0  0  0  0  0  0  0
   34.5370   29.2790   33.7090 C   0  0  0  0  0  0  0  0  0  0  0  0
   33.4840   29.0100   32.8580 N   0  0  0  0  0  0  0  0  0  0  0  0
   32.2450   29.5130   33.0250 C   0  0  0  0  0  0  0  0  0  0  0  0
   32.0130   30.3040   34.0480 N   0  0  0  0  0  0  0  0  0  0  0  0
   32.8360   31.2710   35.7900 H   0  0  0  0  0  0  0  0  0  0  0  0
   35.1180   30.3060   35.4280 H   0  0  0  0  0  0  0  0  0  0  0  0
   31.4910   29.2370   32.2970 H   0  0  0  0  0  0  0  0  0  0  0  0
   40.9930   26.1320   34.4600 O   0  0  0  0  0  0  0  0  0  0  0  0
   39.8880   24.1100   34.3400 N   0  0  0  0  0  0  0  0  0  0  0  0
   40.8560   24.8770   35.1080 C   0  0  1  0  0  0  0  0  0  0  0  0
   42.1300   24.1780   35.1620 C   0  0  0  0  0  0  0  0  0  0  0  0
   41.9540   22.9570   35.8320 O   0  0  0  0  0  0  0  0  0  0  0  0
   40.9780   22.1510   35.3220 C   0  0  0  0  0  0  0  0  0  0  0  0
   39.6870   22.8880   35.1020 C   0  0  1  0  0  0  0  0  0  0  0  0
   40.1440   23.8080   33.4160 H   0  0  0  0  0  0  0  0  0  0  0  0
   40.4150   24.9750   36.1140 H   0  0  0  0  0  0  0  0  0  0  0  0
   42.7250   23.9200   34.3280 H   0  0  0  0  0  0  0  0  0  0  0  0
   42.8010   24.7630   35.8650 H   0  0  0  0  0  0  0  0  0  0  0  0
   41.2720   21.7300   34.3400 H   0  0  0  0  0  0  0  0  0  0  0  0
   40.7920   21.3520   36.0680 H   0  0  0  0  0  0  0  0  0  0  0  0
   39.0160   22.1810   34.5650 H   0  0  0  0  0  0  0  0  0  0  0  0
   39.1530   23.2720   36.4250 C   0  0  0  0  0  0  0  0  0  0  0  0
   39.5280   22.9120   37.6490 C   0  0  0  0  0  0  0  0  0  0  0  0
   40.3700   22.2170   37.7540 H   0  0  0  0  0  0  0  0  0  0  0  0
   38.8990   23.3840   38.7710 C   0  0  0  0  0  3  0  0  0  0  0  0
   37.8120   24.2880   38.4830 C   0  0  0  0  0  3  0  0  0  0  0  0
   37.7740   24.3940   36.6830 S   0  0  0  0  0  0  0  0  0  0  0  0
  1  2  1  0  0  0  0
  2 16  1  0  0  0  0
  2  3  2  0  0  0  0
  3 11  1  0  0  0  0
  4  3  1  0  0  0  0
  4  5  1  0  0  0  0
  5 12  1  0  0  0  0
  6 23  1  0  0  0  0
  6  5  1  0  0  0  0
  7  6  2  0  0  0  0
  8  7  1  0  0  0  0
  8  4  2  0  0  0  0
  9  1  2  0  0  0  0
  9  8  1  0  0  0  0
 10  1  1  0  0  0  0
 13  9  1  0  0  0  0
 14 20  1  0  0  0  0
 15 14  1  0  0  0  0
 15 21  1  0  0  0  0
 16 15  2  0  0  0  0
 17 18  2  0  0  0  0
 17 16  1  0  0  0  0
 18 19  1  0  0  0  0
 19 14  2  0  0  0  0
 22 18  1  0  0  0  0
 23 25  1  0  0  0  0
 24 29  1  0  0  0  0
 24 25  1  0  0  0  0
 25 26  1  0  0  0  0
 25 31  1  1  0  0  0
 26 27  1  0  0  0  0
 26 33  1  0  0  0  0
 28 27  1  0  0  0  0
 28 35  1  0  0  0  0
 29 36  1  6  0  0  0
 29 28  1  0  0  0  0
 29 37  1  0  0  0  0
 30 24  1  0  0  0  0
 32 26  1  0  0  0  0
 34 28  1  0  0  0  0
 37 42  1  0  0  0  0
 37 38  2  0  0  0  0
 38 39  1  0  0  0  0
 38 40  1  0  0  0  0
 41 40  2  0  0  0  0
 42 41  1  0  0  0  0
M  END
>  <minimizedAffinity>
-5.75763798

$$$$

 OpenBabel03272510283D

 42 46  0  0  1  0  0  0  0  0999 V2000
   37.7090   25.0860   33.6620 C   0  0  0  0  0  0  0  0  0  0  0  0
   37.8610   25.4900   34.9660 C   0  0  0  0  0  0  0  0  0  0  0  0
   37.4420   26.7630   35.3880 C   0  0  0  0  0  0  0  0  0  0  0  0
   36.8700   27.5720   34.4040 C   0  0  0  0  0  0  0  0  0  0  0  0
   36.3830   28.8480   34.5630 N   0  0  0  0  0  0  0  0  0  0  0  0
   35.9310   29.2250   33.3570 C   0  0  0  0  0  0  0  0  0  0  0  0
   36.1210   28.2510   32.4890 N   0  0  0  0  0  0  0  0  0  0  0  0
   36.7020   27.2060   33.0990 C   0  0  0  0  0  0  0  0  0  0  0  0
   37.1350   25.9280   32.7250 C   0  0  0  0  0  0  0  0  0  0  0  0
   38.0300   24.1030   33.3290 H   0  0  0  0  0  0  0  0  0  0  0  0
   37.5490   27.1100   36.4090 H   0  0  0  0  0  0  0  0  0  0  0  0
   36.3710   29.4060   35.4500 H   0  0  0  0  0  0  0  0  0  0  0  0
   37.0050   25.6300   31.6900 H   0  0  0  0  0  0  0  0  0  0  0  0
   39.9910   22.9810   36.7980 C   0  0  0  0  0  0  0  0  0  0  0  0
   39.5550   23.7840   35.7460 C   0  0  0  0  0  0  0  0  0  0  0  0
   38.4610   24.5880   35.9320 C   0  0  0  0  0  0  0  0  0  0  0  0
   37.8560   24.5470   37.1720 N   0  0  0  0  0  0  0  0  0  0  0  0
   38.2860   23.7660   38.1830 C   0  0  0  0  0  0  0  0  0  0  0  0
   39.3350   23.0000   37.9930 N   0  0  0  0  0  0  0  0  0  0  0  0
   40.8610   22.3580   36.6120 H   0  0  0  0  0  0  0  0  0  0  0  0
   40.0170   23.8280   34.7700 H   0  0  0  0  0  0  0  0  0  0  0  0
   37.7360   23.8120   39.1170 H   0  0  0  0  0  0  0  0  0  0  0  0
   35.3580   30.4770   33.1310 O   0  0  0  0  0  0  0  0  0  0  0  0
   33.6110   31.6310   34.0980 N   0  0  0  0  0  0  0  0  0  0  0  0
   33.9420   30.5280   33.2120 C   0  0  1  0  0  0  0  0  0  0  0  0
   33.3540   30.7360   31.8980 C   0  0  0  0  0  0  0  0  0  0  0  0
   31.9560   30.7540   32.0200 O   0  0  0  0  0  0  0  0  0  0  0  0
   31.4640   31.6530   32.9220 C   0  0  0  0  0  0  0  0  0  0  0  0
   32.1650   31.5700   34.2490 C   0  0  1  0  0  0  0  0  0  0  0  0
   33.8060   32.5670   33.7880 H   0  0  0  0  0  0  0  0  0  0  0  0
   33.5210   29.6300   33.6960 H   0  0  0  0  0  0  0  0  0  0  0  0
   33.5580   31.5510   31.2560 H   0  0  0  0  0  0  0  0  0  0  0  0
   33.5480   29.7970   31.2930 H   0  0  0  0  0  0  0  0  0  0  0  0
   31.5850   32.6940   32.5650 H   0  0  0  0  0  0  0  0  0  0  0  0
   30.3960   31.4000   33.0840 H   0  0  0  0  0  0  0  0  0  0  0  0
   31.7850   32.4250   34.8510 H   0  0  0  0  0  0  0  0  0  0  0  0
   31.8360   30.2650   34.8560 C   0  0  0  0  0  0  0  0  0  0  0  0
   32.4700   29.5560   35.7850 C   0  0  0  0  0  0  0  0  0  0  0  0
   33.3980   29.9600   36.2080 H   0  0  0  0  0  0  0  0  0  0  0  0
   31.9980   28.3470   36.2260 C   0  0  0  0  0  3  0  0  0  0  0  0
   30.7710   27.9410   35.5860 C   0  0  0  0  0  3  0  0  0  0  0  0
   30.3950   29.2790   34.4360 S   0  0  0  0  0  0  0  0  0  0  0  0
  1  2  1  0  0  0  0
  2  3  2  0  0  0  0
  2 16  1  0  0  0  0
  3 11  1  0  0  0  0
  4  5  1  0  0  0  0
  4  3  1  0  0  0  0
  5 12  1  0  0  0  0
  6  5  1  0  0  0  0
  7  8  1  0  0  0  0
  7  6  2  0  0  0  0
  8  4  2  0  0  0  0
  9  8  1  0  0  0  0
  9  1  2  0  0  0  0
 10  1  1  0  0  0  0
 13  9  1  0  0  0  0
 14 19  1  0  0  0  0
 15 16  1  0  0  0  0
 15 14  2  0  0  0  0
 16 17  2  0  0  0  0
 17 18  1  0  0  0  0
 18 22  1  0  0  0  0
 19 18  2  0  0  0  0
 20 14  1  0  0  0  0
 21 15  1  0  0  0  0
 23 25  1  0  0  0  0
 23  6  1  0  0  0  0
 24 29  1  0  0  0  0
 25 31  1  1  0  0  0
 25 24  1  0  0  0  0
 26 27  1  0  0  0  0
 26 25  1  0  0  0  0
 27 28  1  0  0  0  0
 28 35  1  0  0  0  0
 28 29  1  0  0  0  0
 29 36  1  1  0  0  0
 29 37  1  0  0  0  0
 30 24  1  0  0  0  0
 32 26  1  0  0  0  0
 33 26  1  0  0  0  0
 34 28  1  0  0  0  0
 37 38  2  0  0  0  0
 38 39  1  0  0  0  0
 38 40  1  0  0  0  0
 41 40  2  0  0  0  0
 42 37  1  0  0  0  0
 42 41  1  0  0  0  0
M  END
>  <minimizedAffinity>
-5.74162292

$$$$

 OpenBabel03272510283D

 42 46  0  0  1  0  0  0  0  0999 V2000
   38.4250   26.0500   36.0760 C   0  0  0  0  0  0  0  0  0  0  0  0
   38.8020   24.9950   35.2810 C   0  0  0  0  0  0  0  0  0  0  0  0
   38.4960   24.9680   33.9110 C   0  0  0  0  0  0  0  0  0  0  0  0
   37.7940   26.0720   33.4230 C   0  0  0  0  0  0  0  0  0  0  0  0
   37.3810   26.2830   32.1290 N   0  0  0  0  0  0  0  0  0  0  0  0
   36.7530   27.4690   32.1290 C   0  0  0  0  0  0  0  0  0  0  0  0
   36.7650   27.9760   33.3460 N   0  0  0  0  0  0  0  0  0  0  0  0
   37.4020   27.1390   34.1800 C   0  0  0  0  0  0  0  0  0  0  0  0
   37.7300   27.1210   35.5410 C   0  0  0  0  0  0  0  0  0  0  0  0
   38.6590   26.0770   37.1360 H   0  0  0  0  0  0  0  0  0  0  0  0
   38.7790   24.1490   33.2600 H   0  0  0  0  0  0  0  0  0  0  0  0
   37.5310   25.6430   31.3130 H   0  0  0  0  0  0  0  0  0  0  0  0
   37.4220   27.9660   36.1490 H   0  0  0  0  0  0  0  0  0  0  0  0
   41.0570   22.0550   35.9650 C   0  0  0  0  0  0  0  0  0  0  0  0
   40.4500   23.0780   35.2390 C   0  0  0  0  0  0  0  0  0  0  0  0
   39.5340   23.8840   35.8630 C   0  0  0  0  0  0  0  0  0  0  0  0
   39.2720   23.6230   37.1930 N   0  0  0  0  0  0  0  0  0  0  0  0
   39.8650   22.6310   37.8870 C   0  0  0  0  0  0  0  0  0  0  0  0
   40.7410   21.8650   37.2780 N   0  0  0  0  0  0  0  0  0  0  0  0
   41.7770   21.4390   35.4370 H   0  0  0  0  0  0  0  0  0  0  0  0
   40.6430   23.2950   34.1980 H   0  0  0  0  0  0  0  0  0  0  0  0
   39.5860   22.5150   38.9280 H   0  0  0  0  0  0  0  0  0  0  0  0
   36.1950   28.0200   30.9750 O   0  0  0  0  0  0  0  0  0  0  0  0
   37.0750   28.2560   28.8550 N   0  0  0  0  0  0  0  0  0  0  0  0
   37.0660   28.8230   30.1940 C   0  0  1  0  0  0  0  0  0  0  0  0
   36.6090   30.2030   30.1590 C   0  0  0  0  0  0  0  0  0  0  0  0
   37.5110   30.9660   29.4000 O   0  0  0  0  0  0  0  0  0  0  0  0
   37.7470   30.4990   28.1400 C   0  0  0  0  0  0  0  0  0  0  0  0
   38.0670   29.0300   28.1260 C   0  0  1  0  0  0  0  0  0  0  0  0
   36.2350   28.3180   28.3070 H   0  0  0  0  0  0  0  0  0  0  0  0
   38.1110   28.7610   30.5420 H   0  0  0  0  0  0  0  0  0  0  0  0
   35.6630   30.5290   29.8200 H   0  0  0  0  0  0  0  0  0  0  0  0
   36.7340   30.6230   31.2060 H   0  0  0  0  0  0  0  0  0  0  0  0
   36.8640   30.6350   27.4840 H   0  0  0  0  0  0  0  0  0  0  0  0
   38.6310   31.0440   27.7510 H   0  0  0  0  0  0  0  0  0  0  0  0
   38.1050   28.7330   27.0550 H   0  0  0  0  0  0  0  0  0  0  0  0
   39.3640   28.8420   28.8060 C   0  0  0  0  0  0  0  0  0  0  0  0
   40.3640   29.6930   29.0170 C   0  0  0  0  0  0  0  0  0  0  0  0
   40.2630   30.7210   28.6470 H   0  0  0  0  0  0  0  0  0  0  0  0
   41.5060   29.3260   29.6800 C   0  0  0  0  0  3  0  0  0  0  0  0
   41.5020   27.9480   30.1090 C   0  0  0  0  0  3  0  0  0  0  0  0
   39.9140   27.3020   29.5510 S   0  0  0  0  0  0  0  0  0  0  0  0
  1 10  1  0  0  0  0
  2 16  1  0  0  0  0
  2  1  2  0  0  0  0
  3  2  1  0  0  0  0
  4  3  2  0  0  0  0
  4  8  1  0  0  0  0
  5  4  1  0  0  0  0
  6  5  1  0  0  0  0
  6  7  2  0  0  0  0
  7  8  1  0  0  0  0
  8  9  2  0  0  0  0
  9  1  1  0  0  0  0
  9 13  1  0  0  0  0
 11  3  1  0  0  0  0
 12  5  1  0  0  0  0
 14 19  1  0  0  0  0
 15 16  1  0  0  0  0
 15 14  2  0  0  0  0
 16 17  2  0  0  0  0
 17 18  1  0  0  0  0
 18 22  1  0  0  0  0
 19 18  2  0  0  0  0
 20 14  1  0  0  0  0
 21 15  1  0  0  0  0
 23  6  1  0  0  0  0
 24 25  1  0  0  0  0
 25 31  1  1  0  0  0
 25 23  1  0  0  0  0
 26 25  1  0  0  0  0
 26 33  1  0  0  0  0
 27 26  1  0  0  0  0
 28 27  1  0  0  0  0
 29 36  1  6  0  0  0
 29 28  1  0  0  0  0
 29 37  1  0  0  0  0
 29 24  1  0  0  0  0
 30 24  1  0  0  0  0
 32 26  1  0  0  0  0
 34 28  1  0  0  0  0
 35 28  1  0  0  0  0
 37 38  2  0  0  0  0
 37 42  1  0  0  0  0
 38 40  1  0  0  0  0
 39 38  1  0  0  0  0
 40 41  2  0  0  0  0
 42 41  1  0  0  0  0
M  END
>  <minimizedAffinity>
-5.72541571

$$$$
