
 OpenBabel03272501273D

 36 39  0  0  1  0  0  0  0  0999 V2000
   34.7890   29.8620   47.3780 C   0  0  0  0  0  0  0  0  0  0  0  0
   35.4310   29.9380   46.1430 C   0  0  0  0  0  0  0  0  0  0  0  0
   36.6440   30.6050   46.3300 C   0  0  0  0  0  0  0  0  0  0  0  0
   36.6950   30.9060   47.6470 N   0  0  0  0  0  0  0  0  0  0  0  0
   35.5950   30.4550   48.2240 N   0  0  0  0  0  0  0  0  0  0  0  0
   35.1070   29.5670   45.1640 H   0  0  0  0  0  0  0  0  0  0  0  0
   37.3910   30.8380   45.5870 H   0  0  0  0  0  0  0  0  0  0  0  0
   38.4200   32.5740   47.5770 N   0  0  0  0  0  0  0  0  0  0  0  0
   39.0940   33.4150   48.5430 C   0  0  0  0  0  0  0  0  0  0  0  0
   38.4330   33.1860   49.8870 C   0  0  0  0  0  0  0  0  0  0  0  0
   37.1540   32.4280   49.4820 C   0  0  0  0  0  0  0  0  0  0  0  0
   37.7150   31.5860   48.3780 C   0  0  1  0  0  0  0  0  0  0  0  0
   37.7560   33.0860   46.9820 H   0  0  0  0  0  0  0  0  0  0  0  0
   38.8470   34.4790   48.2560 H   0  0  0  0  0  0  0  0  0  0  0  0
   40.1930   33.2700   48.5680 H   0  0  0  0  0  0  0  0  0  0  0  0
   38.1950   34.1150   50.4100 H   0  0  0  0  0  0  0  0  0  0  0  0
   39.0350   32.4760   50.4610 H   0  0  0  0  0  0  0  0  0  0  0  0
   36.4170   33.1600   49.1380 H   0  0  0  0  0  0  0  0  0  0  0  0
   36.7830   31.8430   50.3570 H   0  0  0  0  0  0  0  0  0  0  0  0
   38.6250   30.6100   48.9240 N   0  0  0  0  0  0  0  0  0  0  0  0
   38.0740   29.8880   49.4260 H   0  0  0  0  0  0  0  0  0  0  0  0
   39.2410   30.2810   48.1740 H   0  0  0  0  0  0  0  0  0  0  0  0
   33.1960   28.3990   48.6230 C   0  0  0  0  0  0  0  0  0  0  0  0
   33.4950   29.2260   47.5390 C   0  0  0  0  0  0  0  0  0  0  0  0
   32.4940   29.4350   46.5840 C   0  0  0  0  0  0  0  0  0  0  0  0
   31.3010   28.8250   46.7680 N   0  0  0  0  0  0  0  0  0  0  0  0
   31.0380   28.0260   47.8320 C   0  0  0  0  0  0  0  0  0  0  0  0
   32.0070   27.8120   48.7750 N   0  0  0  0  0  0  0  0  0  0  0  0
   33.9650   28.2320   49.3690 H   0  0  0  0  0  0  0  0  0  0  0  0
   32.6560   30.0740   45.7020 H   0  0  0  0  0  0  0  0  0  0  0  0
   29.7870   27.4220   47.9700 C   0  0  0  0  0  0  0  0  0  0  0  0
   29.1620   27.4520   49.1660 C   0  0  0  0  0  0  0  0  0  0  0  0
   29.4320   27.8810   50.1470 H   0  0  0  0  0  0  0  0  0  0  0  0
   27.9510   26.9290   49.5060 C   0  0  0  0  0  0  0  0  0  0  0  0
   27.3580   26.2720   48.3110 C   0  0  0  0  0  0  0  0  0  0  0  0
   28.6000   26.5040   46.9240 S   0  0  0  0  0  0  0  0  0  0  0  0
  1 24  1  0  0  0  0
  1  5  2  0  0  0  0
  2  3  2  0  0  0  0
  2  1  1  0  0  0  0
  3  4  1  0  0  0  0
  4  5  1  0  0  0  0
  4 12  1  0  0  0  0
  6  2  1  0  0  0  0
  7  3  1  0  0  0  0
  8 12  1  0  0  0  0
  8  9  1  0  0  0  0
  9 15  1  0  0  0  0
  9 10  1  0  0  0  0
 10 16  1  0  0  0  0
 10 17  1  0  0  0  0
 11 10  1  0  0  0  0
 11 19  1  0  0  0  0
 12 20  1  1  0  0  0
 12 11  1  0  0  0  0
 13  8  1  0  0  0  0
 14  9  1  0  0  0  0
 18 11  1  0  0  0  0
 20 21  1  0  0  0  0
 22 20  1  0  0  0  0
 23 28  1  0  0  0  0
 23 29  1  0  0  0  0
 24 23  2  0  0  0  0
 25 26  2  0  0  0  0
 25 24  1  0  0  0  0
 26 27  1  0  0  0  0
 27 31  1  0  0  0  0
 27 28  2  0  0  0  0
 30 25  1  0  0  0  0
 31 32  2  0  0  0  0
 32 34  1  0  0  0  0
 32 33  1  0  0  0  0
 35 34  2  0  0  0  0
 36 31  1  0  0  0  0
 36 35  1  0  0  0  0
M  END
>  <minimizedAffinity>
-5.66590071

>  <minimizedRMSD>
0.594260037

$$$$
