
 OpenBabel03262520423D

 18 19  0  0  0  0  0  0  0  0999 V2000
   36.3690   23.7420   31.6920 C   0  0  0  0  0  0  0  0  0  0  0  0
   37.2810   24.7960   31.9490 C   0  0  0  0  0  0  0  0  0  0  0  0
   36.8940   26.0880   31.6260 C   0  0  0  0  0  0  0  0  0  0  0  0
   35.6700   26.2930   31.0810 N   0  0  0  0  0  0  0  0  0  0  0  0
   34.8210   25.2650   30.8490 C   0  0  0  0  0  0  0  0  0  0  0  0
   35.1720   24.0030   31.1530 N   0  0  0  0  0  0  0  0  0  0  0  0
   36.6400   22.7180   31.9330 H   0  0  0  0  0  0  0  0  0  0  0  0
   38.2600   24.5920   32.3890 H   0  0  0  0  0  0  0  0  0  0  0  0
   33.8360   25.4030   30.4130 H   0  0  0  0  0  0  0  0  0  0  0  0
   37.8360   27.2030   31.8880 C   0  0  0  0  0  0  0  0  0  0  0  0
   38.6680   27.1970   31.1540 H   0  0  0  0  0  0  0  0  0  0  0  0
   37.2910   28.1550   31.7550 H   0  0  0  0  0  0  0  0  0  0  0  0
   38.3270   27.1520   33.2790 C   0  0  0  0  0  0  0  0  0  0  0  0
   39.5550   26.9140   33.8450 C   0  0  0  0  0  0  0  0  0  0  0  0
   40.3480   26.7250   33.1350 H   0  0  0  0  0  0  0  0  0  0  0  0
   39.6360   26.9460   35.1970 C   0  0  0  0  0  3  0  0  0  0  0  0
   38.5370   27.2020   35.9370 C   0  0  0  0  0  3  0  0  0  0  0  0
   37.2110   27.4360   34.7150 S   0  0  0  0  0  0  0  0  0  0  0  0
  1  7  1  0  0  0  0
  1  2  1  0  0  0  0
  2  8  1  0  0  0  0
  3 10  1  0  0  0  0
  3  2  2  0  0  0  0
  4  3  1  0  0  0  0
  5  4  2  0  0  0  0
  5  6  1  0  0  0  0
  6  1  2  0  0  0  0
  9  5  1  0  0  0  0
 10 13  1  0  0  0  0
 11 10  1  0  0  0  0
 12 10  1  0  0  0  0
 13 14  2  0  0  0  0
 13 18  1  0  0  0  0
 14 16  1  0  0  0  0
 15 14  1  0  0  0  0
 16 17  2  0  0  0  0
 18 17  1  0  0  0  0
M  END
>  <minimizedAffinity>
-3.64502168

$$$$

 OpenBabel03262520423D

 18 19  0  0  0  0  0  0  0  0999 V2000
   38.7130   23.3910   38.6760 C   0  0  0  0  0  0  0  0  0  0  0  0
   39.7420   22.8760   37.8480 C   0  0  0  0  0  0  0  0  0  0  0  0
   39.7250   23.2090   36.5020 C   0  0  0  0  0  0  0  0  0  0  0  0
   38.7350   24.0070   36.0320 N   0  0  0  0  0  0  0  0  0  0  0  0
   37.7670   24.4830   36.8490 C   0  0  0  0  0  0  0  0  0  0  0  0
   37.7600   24.1750   38.1580 N   0  0  0  0  0  0  0  0  0  0  0  0
   38.6970   23.1500   39.7350 H   0  0  0  0  0  0  0  0  0  0  0  0
   40.5240   22.2350   38.2620 H   0  0  0  0  0  0  0  0  0  0  0  0
   36.9630   25.1230   36.4980 H   0  0  0  0  0  0  0  0  0  0  0  0
   40.7930   22.6790   35.6200 C   0  0  0  0  0  0  0  0  0  0  0  0
   40.9620   21.5990   35.8100 H   0  0  0  0  0  0  0  0  0  0  0  0
   40.4580   22.7770   34.5710 H   0  0  0  0  0  0  0  0  0  0  0  0
   42.0320   23.4660   35.7760 C   0  0  0  0  0  0  0  0  0  0  0  0
   43.1980   23.2730   36.4740 C   0  0  0  0  0  0  0  0  0  0  0  0
   43.2390   22.3510   37.0350 H   0  0  0  0  0  0  0  0  0  0  0  0
   44.1470   24.2360   36.3820 C   0  0  0  0  0  3  0  0  0  0  0  0
   43.9300   25.3340   35.6290 C   0  0  0  0  0  3  0  0  0  0  0  0
   42.2650   25.0890   34.9390 S   0  0  0  0  0  0  0  0  0  0  0  0
  1  7  1  0  0  0  0
  2  8  1  0  0  0  0
  2  1  2  0  0  0  0
  3  2  1  0  0  0  0
  4  3  2  0  0  0  0
  4  5  1  0  0  0  0
  5  6  2  0  0  0  0
  6  1  1  0  0  0  0
  9  5  1  0  0  0  0
 10 13  1  0  0  0  0
 10 11  1  0  0  0  0
 10  3  1  0  0  0  0
 12 10  1  0  0  0  0
 13 14  2  0  0  0  0
 14 15  1  0  0  0  0
 16 14  1  0  0  0  0
 17 16  2  0  0  0  0
 18 17  1  0  0  0  0
 18 13  1  0  0  0  0
M  END
>  <minimizedAffinity>
-3.6142807

$$$$

 OpenBabel03262520423D

 18 19  0  0  0  0  0  0  0  0999 V2000
   38.7100   23.4670   38.5300 C   0  0  0  0  0  0  0  0  0  0  0  0
   38.0730   24.4330   37.7110 C   0  0  0  0  0  0  0  0  0  0  0  0
   38.4770   24.5370   36.3880 C   0  0  0  0  0  0  0  0  0  0  0  0
   39.4560   23.7190   35.9320 N   0  0  0  0  0  0  0  0  0  0  0  0
   40.0450   22.8060   36.7390 C   0  0  0  0  0  0  0  0  0  0  0  0
   39.6710   22.6850   38.0250 N   0  0  0  0  0  0  0  0  0  0  0  0
   38.4170   23.3600   39.5700 H   0  0  0  0  0  0  0  0  0  0  0  0
   37.2870   25.0760   38.1140 H   0  0  0  0  0  0  0  0  0  0  0  0
   40.8310   22.1390   36.3980 H   0  0  0  0  0  0  0  0  0  0  0  0
   37.8220   25.5420   35.5170 C   0  0  0  0  0  0  0  0  0  0  0  0
   36.9570   25.0980   34.9830 H   0  0  0  0  0  0  0  0  0  0  0  0
   37.4270   26.3520   36.1580 H   0  0  0  0  0  0  0  0  0  0  0  0
   38.7990   26.1370   34.5850 C   0  0  0  0  0  0  0  0  0  0  0  0
   39.9530   26.8610   34.7530 C   0  0  0  0  0  0  0  0  0  0  0  0
   40.2240   27.0440   35.7830 H   0  0  0  0  0  0  0  0  0  0  0  0
   40.6110   27.2560   33.6350 C   0  0  0  0  0  3  0  0  0  0  0  0
   40.1290   26.9390   32.4160 C   0  0  0  0  0  3  0  0  0  0  0  0
   38.6120   25.9950   32.7590 S   0  0  0  0  0  0  0  0  0  0  0  0
  1  7  1  0  0  0  0
  2  8  1  0  0  0  0
  2  1  2  0  0  0  0
  3  2  1  0  0  0  0
  4  3  2  0  0  0  0
  4  5  1  0  0  0  0
  5  6  2  0  0  0  0
  6  1  1  0  0  0  0
  9  5  1  0  0  0  0
 10 12  1  0  0  0  0
 10  3  1  0  0  0  0
 11 10  1  0  0  0  0
 13 14  2  0  0  0  0
 13 10  1  0  0  0  0
 14 15  1  0  0  0  0
 16 14  1  0  0  0  0
 17 18  1  0  0  0  0
 17 16  2  0  0  0  0
 18 13  1  0  0  0  0
M  END
>  <minimizedAffinity>
-3.60473347

$$$$

 OpenBabel03262520423D

 18 19  0  0  0  0  0  0  0  0999 V2000
   37.7950   27.4880   35.4790 C   0  0  0  0  0  0  0  0  0  0  0  0
   37.3820   27.5030   34.1230 C   0  0  0  0  0  0  0  0  0  0  0  0
   38.3220   27.1940   33.1520 C   0  0  0  0  0  0  0  0  0  0  0  0
   39.5880   26.8920   33.5300 N   0  0  0  0  0  0  0  0  0  0  0  0
   39.9500   26.8860   34.8350 C   0  0  0  0  0  0  0  0  0  0  0  0
   39.0580   27.1820   35.7960 N   0  0  0  0  0  0  0  0  0  0  0  0
   37.0830   27.7250   36.2660 H   0  0  0  0  0  0  0  0  0  0  0  0
   36.3530   27.7520   33.8550 H   0  0  0  0  0  0  0  0  0  0  0  0
   40.9570   26.6480   35.1640 H   0  0  0  0  0  0  0  0  0  0  0  0
   37.9080   27.2050   31.7280 C   0  0  0  0  0  0  0  0  0  0  0  0
   37.5620   28.2150   31.4250 H   0  0  0  0  0  0  0  0  0  0  0  0
   38.7920   26.9650   31.1080 H   0  0  0  0  0  0  0  0  0  0  0  0
   36.8850   26.1720   31.4760 C   0  0  0  0  0  0  0  0  0  0  0  0
   35.5850   26.2100   31.0370 C   0  0  0  0  0  0  0  0  0  0  0  0
   35.2120   27.2010   30.8210 H   0  0  0  0  0  0  0  0  0  0  0  0
   34.9290   25.0290   30.9250 C   0  0  0  0  0  3  0  0  0  0  0  0
   35.5510   23.8740   31.2400 C   0  0  0  0  0  3  0  0  0  0  0  0
   37.2200   24.3830   31.7530 S   0  0  0  0  0  0  0  0  0  0  0  0
  1  6  1  0  0  0  0
  1  7  1  0  0  0  0
  2  1  2  0  0  0  0
  3  4  2  0  0  0  0
  3  2  1  0  0  0  0
  4  5  1  0  0  0  0
  5  9  1  0  0  0  0
  5  6  2  0  0  0  0
  8  2  1  0  0  0  0
 10  3  1  0  0  0  0
 11 10  1  0  0  0  0
 12 10  1  0  0  0  0
 13 10  1  0  0  0  0
 13 18  1  0  0  0  0
 14 13  2  0  0  0  0
 15 14  1  0  0  0  0
 16 14  1  0  0  0  0
 16 17  2  0  0  0  0
 17 18  1  0  0  0  0
M  END
>  <minimizedAffinity>
-3.56643176

$$$$

 OpenBabel03262520423D

 18 19  0  0  0  0  0  0  0  0999 V2000
   41.8610   22.2920   36.7640 C   0  0  0  0  0  0  0  0  0  0  0  0
   41.7750   23.2440   35.7170 C   0  0  0  0  0  0  0  0  0  0  0  0
   40.5790   23.9280   35.5540 C   0  0  0  0  0  0  0  0  0  0  0  0
   39.5490   23.6650   36.3940 N   0  0  0  0  0  0  0  0  0  0  0  0
   39.6640   22.7500   37.3840 C   0  0  0  0  0  0  0  0  0  0  0  0
   40.8110   22.0720   37.5630 N   0  0  0  0  0  0  0  0  0  0  0  0
   42.7830   21.7380   36.9190 H   0  0  0  0  0  0  0  0  0  0  0  0
   42.6270   23.4300   35.0590 H   0  0  0  0  0  0  0  0  0  0  0  0
   38.8530   22.5200   38.0700 H   0  0  0  0  0  0  0  0  0  0  0  0
   40.4710   24.9280   34.4640 C   0  0  0  0  0  0  0  0  0  0  0  0
   41.4330   25.4620   34.3210 H   0  0  0  0  0  0  0  0  0  0  0  0
   40.2520   24.3920   33.5230 H   0  0  0  0  0  0  0  0  0  0  0  0
   39.3570   25.8600   34.7240 C   0  0  0  0  0  0  0  0  0  0  0  0
   39.2100   26.9650   35.5260 C   0  0  0  0  0  0  0  0  0  0  0  0
   40.0900   27.2270   36.0960 H   0  0  0  0  0  0  0  0  0  0  0  0
   38.0080   27.5920   35.5120 C   0  0  0  0  0  3  0  0  0  0  0  0
   37.0090   27.1270   34.7340 C   0  0  0  0  0  3  0  0  0  0  0  0
   37.7210   25.6760   33.8990 S   0  0  0  0  0  0  0  0  0  0  0  0
  1  7  1  0  0  0  0
  1  6  1  0  0  0  0
  2  1  2  0  0  0  0
  3  2  1  0  0  0  0
  3  4  2  0  0  0  0
  4  5  1  0  0  0  0
  5  6  2  0  0  0  0
  5  9  1  0  0  0  0
  8  2  1  0  0  0  0
 10 13  1  0  0  0  0
 10  3  1  0  0  0  0
 11 10  1  0  0  0  0
 12 10  1  0  0  0  0
 13 14  2  0  0  0  0
 14 15  1  0  0  0  0
 16 14  1  0  0  0  0
 17 16  2  0  0  0  0
 18 13  1  0  0  0  0
 18 17  1  0  0  0  0
M  END
>  <minimizedAffinity>
-3.56342149

$$$$

 OpenBabel03262520423D

 18 19  0  0  0  0  0  0  0  0999 V2000
   37.6280   23.5810   37.3130 C   0  0  0  0  0  0  0  0  0  0  0  0
   38.0780   24.8910   37.0130 C   0  0  0  0  0  0  0  0  0  0  0  0
   38.5200   25.1500   35.7240 C   0  0  0  0  0  0  0  0  0  0  0  0
   38.5070   24.1510   34.8080 N   0  0  0  0  0  0  0  0  0  0  0  0
   38.0710   22.9100   35.1270 C   0  0  0  0  0  0  0  0  0  0  0  0
   37.6370   22.6330   36.3690 N   0  0  0  0  0  0  0  0  0  0  0  0
   37.2750   23.3440   38.3120 H   0  0  0  0  0  0  0  0  0  0  0  0
   38.0740   25.6720   37.7770 H   0  0  0  0  0  0  0  0  0  0  0  0
   38.0500   22.0920   34.4120 H   0  0  0  0  0  0  0  0  0  0  0  0
   38.9940   26.5150   35.3910 C   0  0  0  0  0  0  0  0  0  0  0  0
   39.1560   27.1120   36.3120 H   0  0  0  0  0  0  0  0  0  0  0  0
   39.9720   26.4290   34.8840 H   0  0  0  0  0  0  0  0  0  0  0  0
   38.0580   27.1780   34.4620 C   0  0  0  0  0  0  0  0  0  0  0  0
   36.8770   27.8570   34.6280 C   0  0  0  0  0  0  0  0  0  0  0  0
   36.5440   27.9380   35.6530 H   0  0  0  0  0  0  0  0  0  0  0  0
   36.2740   28.3420   33.5150 C   0  0  0  0  0  3  0  0  0  0  0  0
   36.8320   28.1500   32.3020 C   0  0  0  0  0  3  0  0  0  0  0  0
   38.3520   27.2110   32.6450 S   0  0  0  0  0  0  0  0  0  0  0  0
  1  7  1  0  0  0  0
  2  1  1  0  0  0  0
  2  8  1  0  0  0  0
  3  2  2  0  0  0  0
  4  5  2  0  0  0  0
  4  3  1  0  0  0  0
  5  6  1  0  0  0  0
  6  1  2  0  0  0  0
  9  5  1  0  0  0  0
 10  3  1  0  0  0  0
 10 11  1  0  0  0  0
 12 10  1  0  0  0  0
 13 14  2  0  0  0  0
 13 10  1  0  0  0  0
 14 15  1  0  0  0  0
 16 14  1  0  0  0  0
 17 18  1  0  0  0  0
 17 16  2  0  0  0  0
 18 13  1  0  0  0  0
M  END
>  <minimizedAffinity>
-3.55598211

$$$$

 OpenBabel03262520423D

 18 19  0  0  0  0  0  0  0  0999 V2000
   39.8610   26.9620   35.0590 C   0  0  0  0  0  0  0  0  0  0  0  0
   39.6160   26.8810   33.6650 C   0  0  0  0  0  0  0  0  0  0  0  0
   38.3340   27.1510   33.2110 C   0  0  0  0  0  0  0  0  0  0  0  0
   37.3720   27.4800   34.1080 N   0  0  0  0  0  0  0  0  0  0  0  0
   37.6390   27.5490   35.4330 C   0  0  0  0  0  0  0  0  0  0  0  0
   38.8730   27.2910   35.8990 N   0  0  0  0  0  0  0  0  0  0  0  0
   40.8550   26.7560   35.4480 H   0  0  0  0  0  0  0  0  0  0  0  0
   40.4170   26.6120   32.9720 H   0  0  0  0  0  0  0  0  0  0  0  0
   36.8860   27.8090   36.1710 H   0  0  0  0  0  0  0  0  0  0  0  0
   38.0590   27.0720   31.7560 C   0  0  0  0  0  0  0  0  0  0  0  0
   37.8490   28.0780   31.3380 H   0  0  0  0  0  0  0  0  0  0  0  0
   38.9680   26.6940   31.2520 H   0  0  0  0  0  0  0  0  0  0  0  0
   36.9620   26.1220   31.4860 C   0  0  0  0  0  0  0  0  0  0  0  0
   35.6740   26.2620   31.0350 C   0  0  0  0  0  0  0  0  0  0  0  0
   35.3800   27.2810   30.8230 H   0  0  0  0  0  0  0  0  0  0  0  0
   34.9310   25.1360   30.9060 C   0  0  0  0  0  3  0  0  0  0  0  0
   35.4590   23.9350   31.2170 C   0  0  0  0  0  3  0  0  0  0  0  0
   37.1570   24.3100   31.7510 S   0  0  0  0  0  0  0  0  0  0  0  0
  1  7  1  0  0  0  0
  1  6  1  0  0  0  0
  2  1  2  0  0  0  0
  3  2  1  0  0  0  0
  3  4  2  0  0  0  0
  4  5  1  0  0  0  0
  5  6  2  0  0  0  0
  5  9  1  0  0  0  0
  8  2  1  0  0  0  0
 10  3  1  0  0  0  0
 11 10  1  0  0  0  0
 12 10  1  0  0  0  0
 13 18  1  0  0  0  0
 13 10  1  0  0  0  0
 14 13  2  0  0  0  0
 15 14  1  0  0  0  0
 16 14  1  0  0  0  0
 16 17  2  0  0  0  0
 17 18  1  0  0  0  0
M  END
>  <minimizedAffinity>
-3.53279042

$$$$

 OpenBabel03262520423D

 18 19  0  0  0  0  0  0  0  0999 V2000
   39.8590   22.6680   37.8020 C   0  0  0  0  0  0  0  0  0  0  0  0
   39.6770   22.5040   36.4060 C   0  0  0  0  0  0  0  0  0  0  0  0
   38.5960   23.1370   35.8100 C   0  0  0  0  0  0  0  0  0  0  0  0
   37.7630   23.8820   36.5760 N   0  0  0  0  0  0  0  0  0  0  0  0
   37.9640   24.0190   37.9070 C   0  0  0  0  0  0  0  0  0  0  0  0
   39.0040   23.4160   38.5090 N   0  0  0  0  0  0  0  0  0  0  0  0
   40.6950   22.1860   38.3000 H   0  0  0  0  0  0  0  0  0  0  0  0
   40.3690   21.8950   35.8200 H   0  0  0  0  0  0  0  0  0  0  0  0
   37.3110   24.6100   38.5430 H   0  0  0  0  0  0  0  0  0  0  0  0
   38.3900   22.9760   34.3500 C   0  0  0  0  0  0  0  0  0  0  0  0
   38.1360   23.9480   33.8780 H   0  0  0  0  0  0  0  0  0  0  0  0
   39.3410   22.6350   33.9010 H   0  0  0  0  0  0  0  0  0  0  0  0
   37.3660   21.9480   34.0800 C   0  0  0  0  0  0  0  0  0  0  0  0
   36.4370   21.3060   34.8590 C   0  0  0  0  0  0  0  0  0  0  0  0
   36.4360   21.6050   35.8970 H   0  0  0  0  0  0  0  0  0  0  0  0
   35.6400   20.3910   34.2550 C   0  0  0  0  0  3  0  0  0  0  0  0
   35.7760   20.1370   32.9370 C   0  0  0  0  0  3  0  0  0  0  0  0
   37.1220   21.2360   32.4000 S   0  0  0  0  0  0  0  0  0  0  0  0
  1  7  1  0  0  0  0
  1  6  1  0  0  0  0
  2  1  2  0  0  0  0
  3  2  1  0  0  0  0
  3  4  2  0  0  0  0
  4  5  1  0  0  0  0
  5  6  2  0  0  0  0
  5  9  1  0  0  0  0
  8  2  1  0  0  0  0
 10  3  1  0  0  0  0
 11 10  1  0  0  0  0
 12 10  1  0  0  0  0
 13 10  1  0  0  0  0
 13 14  2  0  0  0  0
 14 15  1  0  0  0  0
 16 14  1  0  0  0  0
 17 16  2  0  0  0  0
 18 17  1  0  0  0  0
 18 13  1  0  0  0  0
M  END
>  <minimizedAffinity>
-3.48389196

$$$$

 OpenBabel03262520423D

 18 19  0  0  0  0  0  0  0  0999 V2000
   36.2760   28.2470   33.7620 C   0  0  0  0  0  0  0  0  0  0  0  0
   37.1100   27.6660   34.7500 C   0  0  0  0  0  0  0  0  0  0  0  0
   38.3150   27.1130   34.3440 C   0  0  0  0  0  0  0  0  0  0  0  0
   38.6480   27.1470   33.0300 N   0  0  0  0  0  0  0  0  0  0  0  0
   37.8290   27.7100   32.1110 C   0  0  0  0  0  0  0  0  0  0  0  0
   36.6550   28.2540   32.4790 N   0  0  0  0  0  0  0  0  0  0  0  0
   35.3250   28.6900   34.0460 H   0  0  0  0  0  0  0  0  0  0  0  0
   36.8090   27.6560   35.8000 H   0  0  0  0  0  0  0  0  0  0  0  0
   38.0720   27.7500   31.0540 H   0  0  0  0  0  0  0  0  0  0  0  0
   39.2000   26.5000   35.3640 C   0  0  0  0  0  0  0  0  0  0  0  0
   40.2320   26.3850   34.9730 H   0  0  0  0  0  0  0  0  0  0  0  0
   39.2560   27.1840   36.2300 H   0  0  0  0  0  0  0  0  0  0  0  0
   38.6420   25.2180   35.8330 C   0  0  0  0  0  0  0  0  0  0  0  0
   38.0830   24.8010   37.0160 C   0  0  0  0  0  0  0  0  0  0  0  0
   38.0280   25.5630   37.7800 H   0  0  0  0  0  0  0  0  0  0  0  0
   37.6690   23.5120   37.0910 C   0  0  0  0  0  3  0  0  0  0  0  0
   37.8150   22.6890   36.0320 C   0  0  0  0  0  3  0  0  0  0  0  0
   38.5940   23.7250   34.7560 S   0  0  0  0  0  0  0  0  0  0  0  0
  1  7  1  0  0  0  0
  1  2  1  0  0  0  0
  2  8  1  0  0  0  0
  3  2  2  0  0  0  0
  3 10  1  0  0  0  0
  4  3  1  0  0  0  0
  5  6  1  0  0  0  0
  5  4  2  0  0  0  0
  6  1  2  0  0  0  0
  9  5  1  0  0  0  0
 10 13  1  0  0  0  0
 10 12  1  0  0  0  0
 11 10  1  0  0  0  0
 13 14  2  0  0  0  0
 14 16  1  0  0  0  0
 14 15  1  0  0  0  0
 17 16  2  0  0  0  0
 18 13  1  0  0  0  0
 18 17  1  0  0  0  0
M  END
>  <minimizedAffinity>
-3.46900272

$$$$
