
 OpenBabel03272508443D

 24 26  0  0  0  0  0  0  0  0999 V2000
   35.8820   30.1670   49.9030 C   0  0  0  0  0  0  0  0  0  0  0  0
   36.7480   29.9080   50.9380 C   0  0  0  0  0  0  0  0  0  0  0  0
   37.8650   30.6700   50.6290 C   0  0  0  0  0  0  0  0  0  0  0  0
   37.6290   31.3380   49.4530 C   0  0  0  0  0  0  0  0  0  0  0  0
   36.4380   31.0110   49.0530 O   0  0  0  0  0  0  0  0  0  0  0  0
   36.6520   29.2860   51.7960 H   0  0  0  0  0  0  0  0  0  0  0  0
   38.8090   30.7940   51.1480 H   0  0  0  0  0  0  0  0  0  0  0  0
   38.4630   32.2420   48.7210 C   0  0  0  0  0  0  0  0  0  0  0  0
   38.9340   32.1250   47.4380 C   0  0  0  0  0  0  0  0  0  0  0  0
   38.6710   31.2540   46.8560 H   0  0  0  0  0  0  0  0  0  0  0  0
   39.7260   33.0740   46.8690 C   0  0  0  0  0  3  0  0  0  0  0  0
   40.0450   34.2370   47.7210 C   0  0  0  0  0  3  0  0  0  0  0  0
   39.1350   33.8220   49.3140 S   0  0  0  0  0  0  0  0  0  0  0  0
   34.5350   29.5860   49.7680 C   0  0  0  0  0  0  0  0  0  0  0  0
   33.7450   29.7250   50.7290 O   0  0  0  0  0  0  0  0  0  0  0  0
   33.8290   26.8510   47.4930 C   0  0  0  0  0  0  0  0  0  0  0  0
   33.4930   27.4880   46.2980 C   0  0  0  0  0  0  0  0  0  0  0  0
   33.5060   28.8730   46.2660 C   0  0  0  0  0  0  0  0  0  0  0  0
   33.8470   29.5390   47.4000 N   0  0  0  0  0  0  0  0  0  0  0  0
   34.1680   28.8830   48.5430 C   0  0  0  0  0  0  0  0  0  0  0  0
   34.1580   27.5350   48.5870 N   0  0  0  0  0  0  0  0  0  0  0  0
   33.8150   25.7740   47.5040 H   0  0  0  0  0  0  0  0  0  0  0  0
   33.2210   26.9460   45.3910 H   0  0  0  0  0  0  0  0  0  0  0  0
   33.2590   29.4560   45.3790 H   0  0  0  0  0  0  0  0  0  0  0  0
  1  2  2  0  0  0  0
  2  6  1  0  0  0  0
  3  2  1  0  0  0  0
  3  7  1  0  0  0  0
  4  3  2  0  0  0  0
  5  4  1  0  0  0  0
  5  1  1  0  0  0  0
  8 13  1  0  0  0  0
  8  4  1  0  0  0  0
  9  8  2  0  0  0  0
 10  9  1  0  0  0  0
 11  9  1  0  0  0  0
 11 12  2  0  0  0  0
 12 13  1  0  0  0  0
 14  1  1  0  0  0  0
 14 15  2  0  0  0  0
 16 22  1  0  0  0  0
 16 21  1  0  0  0  0
 17 16  2  0  0  0  0
 18 17  1  0  0  0  0
 18 19  2  0  0  0  0
 19 20  1  0  0  0  0
 20 21  2  0  0  0  0
 20 14  1  0  0  0  0
 23 17  1  0  0  0  0
 24 18  1  0  0  0  0
M  END
>  <minimizedAffinity>
-5.07937956

>  <minimizedRMSD>
2.05542183

$$$$
