
 OpenBabel03272508453D

 24 26  0  0  0  0  0  0  0  0999 V2000
   35.8820   30.1670   49.9030 C   0  0  0  0  0  0  0  0  0  0  0  0
   36.7470   29.9070   50.9380 C   0  0  0  0  0  0  0  0  0  0  0  0
   37.8650   30.6700   50.6280 C   0  0  0  0  0  0  0  0  0  0  0  0
   37.6280   31.3380   49.4530 C   0  0  0  0  0  0  0  0  0  0  0  0
   36.4380   31.0110   49.0530 O   0  0  0  0  0  0  0  0  0  0  0  0
   36.6510   29.2860   51.7960 H   0  0  0  0  0  0  0  0  0  0  0  0
   38.8080   30.7940   51.1480 H   0  0  0  0  0  0  0  0  0  0  0  0
   38.4630   32.2420   48.7200 C   0  0  0  0  0  0  0  0  0  0  0  0
   38.9330   32.1240   47.4390 C   0  0  0  0  0  0  0  0  0  0  0  0
   38.6710   31.2540   46.8570 H   0  0  0  0  0  0  0  0  0  0  0  0
   39.7260   33.0740   46.8680 C   0  0  0  0  0  3  0  0  0  0  0  0
   40.0450   34.2370   47.7210 C   0  0  0  0  0  3  0  0  0  0  0  0
   39.1340   33.8210   49.3140 S   0  0  0  0  0  0  0  0  0  0  0  0
   34.5350   29.5860   49.7680 C   0  0  0  0  0  0  0  0  0  0  0  0
   33.7450   29.7250   50.7290 O   0  0  0  0  0  0  0  0  0  0  0  0
   33.8280   26.8490   47.4940 C   0  0  0  0  0  0  0  0  0  0  0  0
   33.4930   27.4870   46.2990 C   0  0  0  0  0  0  0  0  0  0  0  0
   33.5060   28.8710   46.2660 C   0  0  0  0  0  0  0  0  0  0  0  0
   33.8460   29.5380   47.4000 N   0  0  0  0  0  0  0  0  0  0  0  0
   34.1670   28.8820   48.5430 C   0  0  0  0  0  0  0  0  0  0  0  0
   34.1570   27.5340   48.5880 N   0  0  0  0  0  0  0  0  0  0  0  0
   33.8140   25.7730   47.5060 H   0  0  0  0  0  0  0  0  0  0  0  0
   33.2210   26.9430   45.3920 H   0  0  0  0  0  0  0  0  0  0  0  0
   33.2600   29.4540   45.3790 H   0  0  0  0  0  0  0  0  0  0  0  0
  1  2  2  0  0  0  0
  2  6  1  0  0  0  0
  3  2  1  0  0  0  0
  3  7  1  0  0  0  0
  4  3  2  0  0  0  0
  5  4  1  0  0  0  0
  5  1  1  0  0  0  0
  8 13  1  0  0  0  0
  8  4  1  0  0  0  0
  9  8  2  0  0  0  0
 10  9  1  0  0  0  0
 11  9  1  0  0  0  0
 11 12  2  0  0  0  0
 12 13  1  0  0  0  0
 14  1  1  0  0  0  0
 14 15  2  0  0  0  0
 16 22  1  0  0  0  0
 16 21  1  0  0  0  0
 17 16  2  0  0  0  0
 18 17  1  0  0  0  0
 18 19  2  0  0  0  0
 19 20  1  0  0  0  0
 20 21  2  0  0  0  0
 20 14  1  0  0  0  0
 23 17  1  0  0  0  0
 24 18  1  0  0  0  0
M  END
>  <minimizedAffinity>
-5.07940388

>  <minimizedRMSD>
2.08228207

$$$$
