
 OpenBabel03272509463D

 22 23  0  0  0  0  0  0  0  0999 V2000
   34.0940   28.4870   48.5850 C   0  0  0  0  0  0  0  0  0  0  0  0
   33.1670   29.0380   48.8300 H   0  0  0  0  0  0  0  0  0  0  0  0
   34.6930   29.1430   47.9210 H   0  0  0  0  0  0  0  0  0  0  0  0
   33.8060   27.1500   47.9460 C   0  0  0  0  0  0  0  0  0  0  0  0
   33.1540   26.6120   48.6930 H   0  0  0  0  0  0  0  0  0  0  0  0
   34.6930   26.5370   47.8030 H   0  0  0  0  0  0  0  0  0  0  0  0
   33.0640   27.3880   46.6800 C   0  0  0  0  0  0  0  0  0  0  0  0
   31.7760   27.1930   46.3000 C   0  0  0  0  0  0  0  0  0  0  0  0
   31.1390   26.7700   47.0860 H   0  0  0  0  0  0  0  0  0  0  0  0
   31.3640   27.5060   45.0550 C   0  0  0  0  0  3  0  0  0  0  0  0
   32.3130   28.0270   44.2070 C   0  0  0  0  0  3  0  0  0  0  0  0
   33.8740   28.0570   45.2810 S   0  0  0  0  0  0  0  0  0  0  0  0
   34.7450   28.2850   49.8370 O   0  0  0  0  0  0  0  0  0  0  0  0
   37.3680   30.2500   51.4010 C   0  0  0  0  0  0  0  0  0  0  0  0
   38.0630   30.6800   50.2750 C   0  0  0  0  0  0  0  0  0  0  0  0
   37.6030   30.2770   49.0270 C   0  0  0  0  0  0  0  0  0  0  0  0
   36.4860   29.4780   49.0040 N   0  0  0  0  0  0  0  0  0  0  0  0
   35.8400   29.0840   50.1210 C   0  0  0  0  0  0  0  0  0  0  0  0
   36.2980   29.4810   51.3160 N   0  0  0  0  0  0  0  0  0  0  0  0
   37.7450   30.5780   52.3760 H   0  0  0  0  0  0  0  0  0  0  0  0
   38.9420   31.3080   50.2840 H   0  0  0  0  0  0  0  0  0  0  0  0
   38.0910   30.5700   48.1090 H   0  0  0  0  0  0  0  0  0  0  0  0
  1  2  1  0  0  0  0
  1 13  1  0  0  0  0
  3  1  1  0  0  0  0
  4  1  1  0  0  0  0
  4  5  1  0  0  0  0
  6  4  1  0  0  0  0
  7  4  1  0  0  0  0
  8  7  2  0  0  0  0
  8  9  1  0  0  0  0
 10  8  1  0  0  0  0
 11 10  2  0  0  0  0
 11 12  1  0  0  0  0
 12  7  1  0  0  0  0
 13 18  1  0  0  0  0
 14 20  1  0  0  0  0
 15 21  1  0  0  0  0
 15 14  2  0  0  0  0
 16 15  1  0  0  0  0
 17 16  2  0  0  0  0
 17 18  1  0  0  0  0
 18 19  2  0  0  0  0
 19 14  1  0  0  0  0
 22 16  1  0  0  0  0
M  END
>  <minimizedAffinity>
-3.57841158

>  <minimizedRMSD>
0.2893821

$$$$
