
 OpenBabel03272504003D

 21 22  0  0  0  0  0  0  0  0999 V2000
   37.7550   25.7000   35.7170 C   0  0  0  0  0  0  0  0  0  0  0  0
   36.7350   25.9090   35.9960 H   0  0  0  0  0  0  0  0  0  0  0  0
   37.7020   25.2580   34.6840 H   0  0  0  0  0  0  0  0  0  0  0  0
   38.3920   24.6720   36.5480 C   0  0  0  0  0  0  0  0  0  0  0  0
   38.0100   24.3980   37.8510 C   0  0  0  0  0  0  0  0  0  0  0  0
   38.6660   23.4070   38.5690 C   0  0  0  0  0  0  0  0  0  0  0  0
   39.6660   22.7550   37.9270 N   0  0  0  0  0  0  0  0  0  0  0  0
   40.0430   23.0220   36.6490 C   0  0  0  0  0  0  0  0  0  0  0  0
   39.3890   23.9810   35.9920 N   0  0  0  0  0  0  0  0  0  0  0  0
   37.2020   24.9600   38.2990 H   0  0  0  0  0  0  0  0  0  0  0  0
   38.4060   23.1570   39.5830 H   0  0  0  0  0  0  0  0  0  0  0  0
   40.8500   22.4710   36.1810 H   0  0  0  0  0  0  0  0  0  0  0  0
   38.5080   26.9680   35.5860 C   0  0  0  0  0  0  0  0  0  0  0  0
   37.7910   27.7990   35.5480 H   0  0  0  0  0  0  0  0  0  0  0  0
   39.0780   27.1080   36.5390 H   0  0  0  0  0  0  0  0  0  0  0  0
   39.3480   27.0390   34.4040 C   0  0  0  0  0  0  0  0  0  0  0  0
   40.7360   27.0940   34.2940 C   0  0  0  0  0  0  0  0  0  0  0  0
   41.3090   27.0840   35.2040 H   0  0  0  0  0  0  0  0  0  0  0  0
   41.2700   27.1560   33.0430 C   0  0  0  0  0  3  0  0  0  0  0  0
   40.3590   27.1620   31.8860 C   0  0  0  0  0  3  0  0  0  0  0  0
   38.7080   27.0700   32.8050 S   0  0  0  0  0  0  0  0  0  0  0  0
  1  2  1  0  0  0  0
  1  4  1  0  0  0  0
  3  1  1  0  0  0  0
  4  5  1  0  0  0  0
  5 10  1  0  0  0  0
  5  6  2  0  0  0  0
  6 11  1  0  0  0  0
  7  6  1  0  0  0  0
  8  7  2  0  0  0  0
  9  4  2  0  0  0  0
  9  8  1  0  0  0  0
 12  8  1  0  0  0  0
 13  1  1  0  0  0  0
 13 15  1  0  0  0  0
 14 13  1  0  0  0  0
 16 13  1  0  0  0  0
 17 16  2  0  0  0  0
 17 18  1  0  0  0  0
 19 17  1  0  0  0  0
 20 21  1  0  0  0  0
 20 19  2  0  0  0  0
 21 16  1  0  0  0  0
M  END
>  <minimizedAffinity>
-3.96430683

$$$$

 OpenBabel03272504003D

 21 22  0  0  0  0  0  0  0  0999 V2000
   38.6980   26.9660   35.6170 C   0  0  0  0  0  0  0  0  0  0  0  0
   38.1440   27.8590   35.8580 H   0  0  0  0  0  0  0  0  0  0  0  0
   39.4880   26.8760   36.4130 H   0  0  0  0  0  0  0  0  0  0  0  0
   39.4310   27.0550   34.3490 C   0  0  0  0  0  0  0  0  0  0  0  0
   40.8140   27.0650   34.2640 C   0  0  0  0  0  0  0  0  0  0  0  0
   41.4290   27.1510   33.0230 C   0  0  0  0  0  0  0  0  0  0  0  0
   40.6110   27.2190   31.9440 N   0  0  0  0  0  0  0  0  0  0  0  0
   39.2540   27.2100   32.0240 C   0  0  0  0  0  0  0  0  0  0  0  0
   38.7000   27.1270   33.2340 N   0  0  0  0  0  0  0  0  0  0  0  0
   41.4030   27.0070   35.1690 H   0  0  0  0  0  0  0  0  0  0  0  0
   42.4990   27.1620   32.9060 H   0  0  0  0  0  0  0  0  0  0  0  0
   38.6450   27.2670   31.1300 H   0  0  0  0  0  0  0  0  0  0  0  0
   37.8250   25.7790   35.7640 C   0  0  0  0  0  0  0  0  0  0  0  0
   36.8710   26.0990   36.2050 H   0  0  0  0  0  0  0  0  0  0  0  0
   37.5750   25.4290   34.7310 H   0  0  0  0  0  0  0  0  0  0  0  0
   38.3840   24.7320   36.6010 C   0  0  0  0  0  0  0  0  0  0  0  0
   38.0580   24.3570   37.9020 C   0  0  0  0  0  0  0  0  0  0  0  0
   37.2760   24.9040   38.3980 H   0  0  0  0  0  0  0  0  0  0  0  0
   38.7510   23.3250   38.4570 C   0  0  0  0  0  3  0  0  0  0  0  0
   39.7980   22.6680   37.6560 C   0  0  0  0  0  3  0  0  0  0  0  0
   39.6520   23.6930   36.0730 S   0  0  0  0  0  0  0  0  0  0  0  0
  1 13  1  0  0  0  0
  1  2  1  0  0  0  0
  1  3  1  0  0  0  0
  4  1  1  0  0  0  0
  5  4  1  0  0  0  0
  5 10  1  0  0  0  0
  6  5  2  0  0  0  0
  7  8  2  0  0  0  0
  7  6  1  0  0  0  0
  8  9  1  0  0  0  0
  9  4  2  0  0  0  0
 11  6  1  0  0  0  0
 12  8  1  0  0  0  0
 13 14  1  0  0  0  0
 13 16  1  0  0  0  0
 15 13  1  0  0  0  0
 16 17  2  0  0  0  0
 17 18  1  0  0  0  0
 17 19  1  0  0  0  0
 20 19  2  0  0  0  0
 21 16  1  0  0  0  0
 21 20  1  0  0  0  0
M  END
>  <minimizedAffinity>
-3.90186214

$$$$

 OpenBabel03272504003D

 21 22  0  0  0  0  0  0  0  0999 V2000
   38.2590   25.4510   35.0570 C   0  0  0  0  0  0  0  0  0  0  0  0
   37.4750   25.0510   34.4350 H   0  0  0  0  0  0  0  0  0  0  0  0
   39.1830   25.4550   34.4150 H   0  0  0  0  0  0  0  0  0  0  0  0
   38.5870   24.6020   36.2080 C   0  0  0  0  0  0  0  0  0  0  0  0
   37.9100   24.6550   37.4150 C   0  0  0  0  0  0  0  0  0  0  0  0
   38.2850   23.8150   38.4550 C   0  0  0  0  0  0  0  0  0  0  0  0
   39.3180   22.9720   38.2110 N   0  0  0  0  0  0  0  0  0  0  0  0
   39.9840   22.9180   37.0270 C   0  0  0  0  0  0  0  0  0  0  0  0
   39.5960   23.7410   36.0530 N   0  0  0  0  0  0  0  0  0  0  0  0
   37.0940   25.3540   37.5380 H   0  0  0  0  0  0  0  0  0  0  0  0
   37.7900   23.8190   39.4100 H   0  0  0  0  0  0  0  0  0  0  0  0
   40.8050   22.2250   36.8840 H   0  0  0  0  0  0  0  0  0  0  0  0
   37.9720   26.8690   35.3760 C   0  0  0  0  0  0  0  0  0  0  0  0
   37.4960   26.9150   36.3650 H   0  0  0  0  0  0  0  0  0  0  0  0
   38.9580   27.3820   35.4940 H   0  0  0  0  0  0  0  0  0  0  0  0
   37.0970   27.5250   34.4210 C   0  0  0  0  0  0  0  0  0  0  0  0
   36.2530   28.6220   34.5860 C   0  0  0  0  0  0  0  0  0  0  0  0
   36.2160   29.0800   35.5580 H   0  0  0  0  0  0  0  0  0  0  0  0
   35.5340   29.0360   33.5060 C   0  0  0  0  0  3  0  0  0  0  0  0
   35.6880   28.3090   32.2350 C   0  0  0  0  0  3  0  0  0  0  0  0
   36.9490   27.0100   32.7830 S   0  0  0  0  0  0  0  0  0  0  0  0
  1 13  1  0  0  0  0
  1  4  1  0  0  0  0
  2  1  1  0  0  0  0
  3  1  1  0  0  0  0
  4  5  1  0  0  0  0
  5 10  1  0  0  0  0
  5  6  2  0  0  0  0
  6 11  1  0  0  0  0
  7  6  1  0  0  0  0
  8  7  2  0  0  0  0
  9  4  2  0  0  0  0
  9  8  1  0  0  0  0
 12  8  1  0  0  0  0
 13 15  1  0  0  0  0
 13 14  1  0  0  0  0
 16 17  2  0  0  0  0
 16 13  1  0  0  0  0
 17 18  1  0  0  0  0
 19 17  1  0  0  0  0
 20 21  1  0  0  0  0
 20 19  2  0  0  0  0
 21 16  1  0  0  0  0
M  END
>  <minimizedAffinity>
-3.83619666

$$$$

 OpenBabel03272504003D

 21 22  0  0  0  0  0  0  0  0999 V2000
   38.2400   26.0760   34.2640 C   0  0  0  0  0  0  0  0  0  0  0  0
   38.9520   26.8850   34.2870 H   0  0  0  0  0  0  0  0  0  0  0  0
   38.8410   25.1490   34.0520 H   0  0  0  0  0  0  0  0  0  0  0  0
   37.2750   26.1750   33.1630 C   0  0  0  0  0  0  0  0  0  0  0  0
   36.7230   27.3720   32.7360 C   0  0  0  0  0  0  0  0  0  0  0  0
   35.8160   27.3770   31.6850 C   0  0  0  0  0  0  0  0  0  0  0  0
   35.5230   26.1750   31.1300 N   0  0  0  0  0  0  0  0  0  0  0  0
   36.0640   25.0000   31.5470 C   0  0  0  0  0  0  0  0  0  0  0  0
   36.9300   25.0350   32.5590 N   0  0  0  0  0  0  0  0  0  0  0  0
   37.0030   28.2930   33.2270 H   0  0  0  0  0  0  0  0  0  0  0  0
   35.3600   28.2800   31.3170 H   0  0  0  0  0  0  0  0  0  0  0  0
   35.7960   24.0660   31.0690 H   0  0  0  0  0  0  0  0  0  0  0  0
   37.6510   25.8890   35.6090 C   0  0  0  0  0  0  0  0  0  0  0  0
   37.7490   26.8300   36.1680 H   0  0  0  0  0  0  0  0  0  0  0  0
   36.5520   25.7400   35.4660 H   0  0  0  0  0  0  0  0  0  0  0  0
   38.2730   24.8330   36.3870 C   0  0  0  0  0  0  0  0  0  0  0  0
   38.0030   24.3970   37.6830 C   0  0  0  0  0  0  0  0  0  0  0  0
   37.2180   24.8960   38.2230 H   0  0  0  0  0  0  0  0  0  0  0  0
   38.7500   23.3710   38.1750 C   0  0  0  0  0  3  0  0  0  0  0  0
   39.7940   22.7830   37.3170 C   0  0  0  0  0  3  0  0  0  0  0  0
   39.5600   23.8610   35.7800 S   0  0  0  0  0  0  0  0  0  0  0  0
  1  2  1  0  0  0  0
  1 13  1  0  0  0  0
  3  1  1  0  0  0  0
  4  1  1  0  0  0  0
  5  4  1  0  0  0  0
  5 10  1  0  0  0  0
  6  5  2  0  0  0  0
  7  8  2  0  0  0  0
  7  6  1  0  0  0  0
  8  9  1  0  0  0  0
  9  4  2  0  0  0  0
 11  6  1  0  0  0  0
 12  8  1  0  0  0  0
 13 14  1  0  0  0  0
 13 16  1  0  0  0  0
 15 13  1  0  0  0  0
 16 17  2  0  0  0  0
 17 19  1  0  0  0  0
 17 18  1  0  0  0  0
 20 19  2  0  0  0  0
 21 16  1  0  0  0  0
 21 20  1  0  0  0  0
M  END
>  <minimizedAffinity>
-3.83014345

$$$$

 OpenBabel03272504003D

 21 22  0  0  0  0  0  0  0  0999 V2000
   38.2870   23.9480   34.6280 C   0  0  0  0  0  0  0  0  0  0  0  0
   37.4640   23.3610   34.2530 H   0  0  0  0  0  0  0  0  0  0  0  0
   39.1970   23.5790   34.0780 H   0  0  0  0  0  0  0  0  0  0  0  0
   38.5720   23.7200   36.0490 C   0  0  0  0  0  0  0  0  0  0  0  0
   39.6510   22.9790   36.5030 C   0  0  0  0  0  0  0  0  0  0  0  0
   39.8490   22.8120   37.8670 C   0  0  0  0  0  0  0  0  0  0  0  0
   38.9460   23.4040   38.6870 N   0  0  0  0  0  0  0  0  0  0  0  0
   37.8870   24.1310   38.2440 C   0  0  0  0  0  0  0  0  0  0  0  0
   37.7300   24.2690   36.9280 N   0  0  0  0  0  0  0  0  0  0  0  0
   40.3310   22.5360   35.7890 H   0  0  0  0  0  0  0  0  0  0  0  0
   40.6710   22.2460   38.2690 H   0  0  0  0  0  0  0  0  0  0  0  0
   37.1930   24.5840   38.9430 H   0  0  0  0  0  0  0  0  0  0  0  0
   38.1130   25.3650   34.2340 C   0  0  0  0  0  0  0  0  0  0  0  0
   37.6630   25.9090   35.0770 H   0  0  0  0  0  0  0  0  0  0  0  0
   39.1370   25.7970   34.1120 H   0  0  0  0  0  0  0  0  0  0  0  0
   37.2700   25.5570   33.0680 C   0  0  0  0  0  0  0  0  0  0  0  0
   36.7350   24.6200   32.1860 C   0  0  0  0  0  0  0  0  0  0  0  0
   36.9600   23.5840   32.3630 H   0  0  0  0  0  0  0  0  0  0  0  0
   35.9660   25.0820   31.1610 C   0  0  0  0  0  3  0  0  0  0  0  0
   35.7450   26.5330   31.0440 C   0  0  0  0  0  3  0  0  0  0  0  0
   36.7470   27.1110   32.5400 S   0  0  0  0  0  0  0  0  0  0  0  0
  1  4  1  0  0  0  0
  2  1  1  0  0  0  0
  3  1  1  0  0  0  0
  4  5  2  0  0  0  0
  4  9  1  0  0  0  0
  5  6  1  0  0  0  0
  6 11  1  0  0  0  0
  6  7  2  0  0  0  0
  8  7  1  0  0  0  0
  8 12  1  0  0  0  0
  9  8  2  0  0  0  0
 10  5  1  0  0  0  0
 13  1  1  0  0  0  0
 13 14  1  0  0  0  0
 15 13  1  0  0  0  0
 16 13  1  0  0  0  0
 17 18  1  0  0  0  0
 17 16  2  0  0  0  0
 19 17  1  0  0  0  0
 20 19  2  0  0  0  0
 20 21  1  0  0  0  0
 21 16  1  0  0  0  0
M  END
>  <minimizedAffinity>
-3.69761634

$$$$

 OpenBabel03272504003D

 21 22  0  0  0  0  0  0  0  0999 V2000
   38.8280   26.5060   35.3200 C   0  0  0  0  0  0  0  0  0  0  0  0
   39.2540   26.5630   34.3310 H   0  0  0  0  0  0  0  0  0  0  0  0
   39.6580   26.7920   36.0230 H   0  0  0  0  0  0  0  0  0  0  0  0
   38.4350   25.1480   35.7120 C   0  0  0  0  0  0  0  0  0  0  0  0
   38.0370   24.8080   36.9950 C   0  0  0  0  0  0  0  0  0  0  0  0
   37.6800   23.4980   37.2830 C   0  0  0  0  0  0  0  0  0  0  0  0
   37.7450   22.6130   36.2580 N   0  0  0  0  0  0  0  0  0  0  0  0
   38.1340   22.9440   34.9990 C   0  0  0  0  0  0  0  0  0  0  0  0
   38.4700   24.2120   34.7610 N   0  0  0  0  0  0  0  0  0  0  0  0
   38.0100   25.5690   37.7630 H   0  0  0  0  0  0  0  0  0  0  0  0
   37.3650   23.1850   38.2630 H   0  0  0  0  0  0  0  0  0  0  0  0
   38.1690   22.1970   34.2150 H   0  0  0  0  0  0  0  0  0  0  0  0
   37.7800   27.5410   35.4740 C   0  0  0  0  0  0  0  0  0  0  0  0
   37.0900   27.2230   36.2680 H   0  0  0  0  0  0  0  0  0  0  0  0
   38.2840   28.4590   35.8640 H   0  0  0  0  0  0  0  0  0  0  0  0
   37.0050   27.7830   34.2700 C   0  0  0  0  0  0  0  0  0  0  0  0
   37.0710   27.1650   33.0240 C   0  0  0  0  0  0  0  0  0  0  0  0
   37.7950   26.3810   32.8930 H   0  0  0  0  0  0  0  0  0  0  0  0
   36.2140   27.5950   32.0570 C   0  0  0  0  0  3  0  0  0  0  0  0
   35.2730   28.6810   32.3810 C   0  0  0  0  0  3  0  0  0  0  0  0
   35.7700   28.9810   34.1810 S   0  0  0  0  0  0  0  0  0  0  0  0
  1 13  1  0  0  0  0
  1  4  1  0  0  0  0
  1  3  1  0  0  0  0
  2  1  1  0  0  0  0
  4  5  1  0  0  0  0
  5  6  2  0  0  0  0
  5 10  1  0  0  0  0
  6 11  1  0  0  0  0
  7  6  1  0  0  0  0
  8  7  2  0  0  0  0
  9  8  1  0  0  0  0
  9  4  2  0  0  0  0
 12  8  1  0  0  0  0
 13 15  1  0  0  0  0
 13 14  1  0  0  0  0
 16 13  1  0  0  0  0
 17 16  2  0  0  0  0
 18 17  1  0  0  0  0
 19 20  2  0  0  0  0
 19 17  1  0  0  0  0
 20 21  1  0  0  0  0
 21 16  1  0  0  0  0
M  END
>  <minimizedAffinity>
-3.69344831

$$$$

 OpenBabel03272504003D

 21 22  0  0  0  0  0  0  0  0999 V2000
   38.4250   24.8830   33.7590 C   0  0  0  0  0  0  0  0  0  0  0  0
   38.9670   25.7030   33.3160 H   0  0  0  0  0  0  0  0  0  0  0  0
   39.1860   24.0690   33.9190 H   0  0  0  0  0  0  0  0  0  0  0  0
   37.4120   24.3010   32.8710 C   0  0  0  0  0  0  0  0  0  0  0  0
   36.5760   25.0570   32.0660 C   0  0  0  0  0  0  0  0  0  0  0  0
   35.6440   24.4270   31.2540 C   0  0  0  0  0  0  0  0  0  0  0  0
   35.6140   23.0720   31.3040 N   0  0  0  0  0  0  0  0  0  0  0  0
   36.4330   22.3280   32.0920 C   0  0  0  0  0  0  0  0  0  0  0  0
   37.3150   22.9690   32.8580 N   0  0  0  0  0  0  0  0  0  0  0  0
   36.6560   26.1350   32.0790 H   0  0  0  0  0  0  0  0  0  0  0  0
   34.9720   24.9700   30.6120 H   0  0  0  0  0  0  0  0  0  0  0  0
   36.3690   21.2460   32.0940 H   0  0  0  0  0  0  0  0  0  0  0  0
   37.9430   25.2680   35.1050 C   0  0  0  0  0  0  0  0  0  0  0  0
   38.2400   26.3090   35.2980 H   0  0  0  0  0  0  0  0  0  0  0  0
   36.8260   25.2790   35.0600 H   0  0  0  0  0  0  0  0  0  0  0  0
   38.4630   24.4420   36.1800 C   0  0  0  0  0  0  0  0  0  0  0  0
   37.9980   24.2710   37.4820 C   0  0  0  0  0  0  0  0  0  0  0  0
   37.1220   24.8200   37.7750 H   0  0  0  0  0  0  0  0  0  0  0  0
   38.6870   23.4220   38.2940 C   0  0  0  0  0  3  0  0  0  0  0  0
   39.8740   22.7370   37.7540 C   0  0  0  0  0  3  0  0  0  0  0  0
   39.8610   23.4500   36.0030 S   0  0  0  0  0  0  0  0  0  0  0  0
  1  3  1  0  0  0  0
  1 13  1  0  0  0  0
  2  1  1  0  0  0  0
  4  1  1  0  0  0  0
  5 10  1  0  0  0  0
  5  4  2  0  0  0  0
  6  7  2  0  0  0  0
  6  5  1  0  0  0  0
  7  8  1  0  0  0  0
  8 12  1  0  0  0  0
  8  9  2  0  0  0  0
  9  4  1  0  0  0  0
 11  6  1  0  0  0  0
 13 14  1  0  0  0  0
 13 16  1  0  0  0  0
 15 13  1  0  0  0  0
 16 17  2  0  0  0  0
 17 18  1  0  0  0  0
 17 19  1  0  0  0  0
 20 19  2  0  0  0  0
 21 16  1  0  0  0  0
 21 20  1  0  0  0  0
M  END
>  <minimizedAffinity>
-3.65944147

$$$$

 OpenBabel03272504003D

 21 22  0  0  0  0  0  0  0  0999 V2000
   39.3080   26.4360   34.5610 C   0  0  0  0  0  0  0  0  0  0  0  0
   39.6200   26.8120   35.5220 H   0  0  0  0  0  0  0  0  0  0  0  0
   40.1870   26.5910   33.8760 H   0  0  0  0  0  0  0  0  0  0  0  0
   38.2060   27.1970   33.9610 C   0  0  0  0  0  0  0  0  0  0  0  0
   37.1560   27.7260   34.6930 C   0  0  0  0  0  0  0  0  0  0  0  0
   36.1530   28.4350   34.0470 C   0  0  0  0  0  0  0  0  0  0  0  0
   36.2730   28.5680   32.7030 N   0  0  0  0  0  0  0  0  0  0  0  0
   37.3020   28.0500   31.9830 C   0  0  0  0  0  0  0  0  0  0  0  0
   38.2460   27.3740   32.6390 N   0  0  0  0  0  0  0  0  0  0  0  0
   37.1260   27.5810   35.7640 H   0  0  0  0  0  0  0  0  0  0  0  0
   35.3170   28.8650   34.5710 H   0  0  0  0  0  0  0  0  0  0  0  0
   37.3510   28.1840   30.9090 H   0  0  0  0  0  0  0  0  0  0  0  0
   39.0990   24.9720   34.6400 C   0  0  0  0  0  0  0  0  0  0  0  0
   38.2240   24.7100   34.0280 H   0  0  0  0  0  0  0  0  0  0  0  0
   39.9720   24.4900   34.1340 H   0  0  0  0  0  0  0  0  0  0  0  0
   38.8760   24.4770   35.9870 C   0  0  0  0  0  0  0  0  0  0  0  0
   38.0110   24.9360   36.9770 C   0  0  0  0  0  0  0  0  0  0  0  0
   37.3960   25.7870   36.7470 H   0  0  0  0  0  0  0  0  0  0  0  0
   38.0040   24.2750   38.1680 C   0  0  0  0  0  3  0  0  0  0  0  0
   38.9040   23.1220   38.3400 C   0  0  0  0  0  3  0  0  0  0  0  0
   39.7200   23.1210   36.6340 S   0  0  0  0  0  0  0  0  0  0  0  0
  1 13  1  0  0  0  0
  1  2  1  0  0  0  0
  3  1  1  0  0  0  0
  4  1  1  0  0  0  0
  4  5  1  0  0  0  0
  5 10  1  0  0  0  0
  6 11  1  0  0  0  0
  6  5  2  0  0  0  0
  7  6  1  0  0  0  0
  8  9  1  0  0  0  0
  8  7  2  0  0  0  0
  9  4  2  0  0  0  0
 12  8  1  0  0  0  0
 13 16  1  0  0  0  0
 14 13  1  0  0  0  0
 15 13  1  0  0  0  0
 16 21  1  0  0  0  0
 16 17  2  0  0  0  0
 17 19  1  0  0  0  0
 18 17  1  0  0  0  0
 19 20  2  0  0  0  0
 21 20  1  0  0  0  0
M  END
>  <minimizedAffinity>
-3.59943342

$$$$

 OpenBabel03272504003D

 21 22  0  0  0  0  0  0  0  0999 V2000
   37.7550   27.5730   35.3460 C   0  0  0  0  0  0  0  0  0  0  0  0
   37.1180   27.2110   36.1370 H   0  0  0  0  0  0  0  0  0  0  0  0
   38.0980   28.5930   35.6750 H   0  0  0  0  0  0  0  0  0  0  0  0
   37.0490   27.7900   34.0780 C   0  0  0  0  0  0  0  0  0  0  0  0
   37.4010   27.1670   32.8910 C   0  0  0  0  0  0  0  0  0  0  0  0
   36.6790   27.4270   31.7340 C   0  0  0  0  0  0  0  0  0  0  0  0
   35.6470   28.2990   31.8470 N   0  0  0  0  0  0  0  0  0  0  0  0
   35.3000   28.9120   33.0100 C   0  0  0  0  0  0  0  0  0  0  0  0
   36.0170   28.6370   34.0990 N   0  0  0  0  0  0  0  0  0  0  0  0
   38.2370   26.4820   32.8770 H   0  0  0  0  0  0  0  0  0  0  0  0
   36.9130   26.9690   30.7900 H   0  0  0  0  0  0  0  0  0  0  0  0
   34.4660   29.6020   33.0460 H   0  0  0  0  0  0  0  0  0  0  0  0
   38.9730   26.7350   35.2590 C   0  0  0  0  0  0  0  0  0  0  0  0
   39.3090   26.7140   34.2140 H   0  0  0  0  0  0  0  0  0  0  0  0
   39.7770   27.2710   35.8220 H   0  0  0  0  0  0  0  0  0  0  0  0
   38.7820   25.3650   35.7030 C   0  0  0  0  0  0  0  0  0  0  0  0
   38.0710   24.8680   36.7920 C   0  0  0  0  0  0  0  0  0  0  0  0
   37.5710   25.5770   37.4270 H   0  0  0  0  0  0  0  0  0  0  0  0
   38.0570   23.5190   36.9780 C   0  0  0  0  0  3  0  0  0  0  0  0
   38.7890   22.6690   36.0240 C   0  0  0  0  0  3  0  0  0  0  0  0
   39.4660   24.0150   34.8800 S   0  0  0  0  0  0  0  0  0  0  0  0
  1  3  1  0  0  0  0
  1  2  1  0  0  0  0
  4  9  1  0  0  0  0
  4  1  1  0  0  0  0
  5  4  2  0  0  0  0
  6  7  2  0  0  0  0
  6  5  1  0  0  0  0
  7  8  1  0  0  0  0
  8 12  1  0  0  0  0
  8  9  2  0  0  0  0
 10  5  1  0  0  0  0
 11  6  1  0  0  0  0
 13  1  1  0  0  0  0
 13 16  1  0  0  0  0
 13 15  1  0  0  0  0
 14 13  1  0  0  0  0
 16 17  2  0  0  0  0
 17 19  1  0  0  0  0
 17 18  1  0  0  0  0
 20 19  2  0  0  0  0
 21 16  1  0  0  0  0
 21 20  1  0  0  0  0
M  END
>  <minimizedAffinity>
-3.59427977

$$$$
