
 OpenBabel03272510013D

 18 19  0  0  0  0  0  0  0  0999 V2000
   38.3850   32.6700   49.4600 C   0  0  0  0  0  0  0  0  0  0  0  0
   38.7180   32.6590   48.0890 C   0  0  0  0  0  0  0  0  0  0  0  0
   37.9810   31.8140   47.2760 C   0  0  0  0  0  0  0  0  0  0  0  0
   36.9970   31.0530   47.8080 N   0  0  0  0  0  0  0  0  0  0  0  0
   36.7080   31.0930   49.1290 C   0  0  0  0  0  0  0  0  0  0  0  0
   37.4090   31.9020   49.9330 N   0  0  0  0  0  0  0  0  0  0  0  0
   38.9480   33.3240   50.1220 H   0  0  0  0  0  0  0  0  0  0  0  0
   39.5040   33.2860   47.7540 H   0  0  0  0  0  0  0  0  0  0  0  0
   38.2700   31.7540   45.8610 C   0  0  0  0  0  0  0  0  0  0  0  0
   37.8290   32.4040   44.7650 C   0  0  0  0  0  0  0  0  0  0  0  0
   37.0730   33.1610   44.9890 H   0  0  0  0  0  0  0  0  0  0  0  0
   38.3050   32.1140   43.5390 C   0  0  0  0  0  3  0  0  0  0  0  0
   39.2640   31.1170   43.4700 C   0  0  0  0  0  3  0  0  0  0  0  0
   39.4630   30.6030   45.2520 S   0  0  0  0  0  0  0  0  0  0  0  0
   35.6180   30.2300   49.6370 C   0  0  0  0  0  0  0  0  0  0  0  0
   35.8370   29.7960   50.9350 F   0  0  0  0  0  0  0  0  0  0  0  0
   34.4060   30.9010   49.6480 F   0  0  0  0  0  0  0  0  0  0  0  0
   35.4100   29.1130   48.8540 F   0  0  0  0  0  0  0  0  0  0  0  0
  1  6  1  0  0  0  0
  1  7  1  0  0  0  0
  2  1  2  0  0  0  0
  3  4  2  0  0  0  0
  3  2  1  0  0  0  0
  4  5  1  0  0  0  0
  5 15  1  0  0  0  0
  5  6  2  0  0  0  0
  8  2  1  0  0  0  0
  9  3  1  0  0  0  0
 10 11  1  0  0  0  0
 10  9  2  0  0  0  0
 12 10  1  0  0  0  0
 13 12  2  0  0  0  0
 13 14  1  0  0  0  0
 14  9  1  0  0  0  0
 15 17  1  0  0  0  0
 15 16  1  0  0  0  0
 18 15  1  0  0  0  0
M  END
>  <minimizedAffinity>
-4.95265579

>  <minimizedRMSD>
1.51758981

$$$$
