
 OpenBabel03272508273D

 35 38  0  0  1  0  0  0  0  0999 V2000
   33.7050   28.8400   47.2190 C   0  0  2  0  0  0  0  0  0  0  0  0
   34.4550   28.0690   48.2930 C   0  0  2  0  0  0  0  0  0  0  0  0
   33.5310   27.8290   49.2750 O   0  0  0  0  0  0  0  0  0  0  0  0
   32.2730   27.8710   48.7660 C   0  0  0  0  0  0  0  0  0  0  0  0
   32.3720   28.1060   47.2890 C   0  0  1  0  0  0  0  0  0  0  0  0
   33.5350   29.8900   47.4650 H   0  0  0  0  0  0  0  0  0  0  0  0
   34.8050   27.1180   47.8480 H   0  0  0  0  0  0  0  0  0  0  0  0
   31.7630   28.7660   49.2230 H   0  0  0  0  0  0  0  0  0  0  0  0
   31.6370   26.9990   49.0170 H   0  0  0  0  0  0  0  0  0  0  0  0
   32.4420   27.1430   46.7120 H   0  0  0  0  0  0  0  0  0  0  0  0
   35.4970   30.3500   48.9090 C   0  0  1  0  0  0  0  0  0  0  0  0
   35.5820   28.9090   48.7930 C   0  0  1  0  0  0  0  0  0  0  0  0
   35.5970   29.4850   50.1720 C   0  0  0  0  0  0  0  0  0  0  0  0
   34.5670   30.9610   48.9620 H   0  0  0  0  0  0  0  0  0  0  0  0
   36.5920   28.5270   48.4500 H   0  0  0  0  0  0  0  0  0  0  0  0
   36.5180   29.5190   50.7530 H   0  0  0  0  0  0  0  0  0  0  0  0
   34.6820   29.3040   50.7720 H   0  0  0  0  0  0  0  0  0  0  0  0
   36.7020   31.2310   48.7170 C   0  0  0  0  0  0  0  0  0  0  0  0
   36.9780   32.1910   49.6910 C   0  0  0  0  0  0  0  0  0  0  0  0
   38.0730   32.9910   49.4670 C   0  0  0  0  0  0  0  0  0  0  0  0
   38.8370   32.8330   48.3370 N   0  0  0  0  0  0  0  0  0  0  0  0
   38.5360   31.8860   47.4100 C   0  0  0  0  0  0  0  0  0  0  0  0
   37.4630   31.0770   47.5950 N   0  0  0  0  0  0  0  0  0  0  0  0
   36.3840   32.3260   50.5800 H   0  0  0  0  0  0  0  0  0  0  0  0
   38.3690   33.7720   50.1800 H   0  0  0  0  0  0  0  0  0  0  0  0
   39.1240   31.7330   46.5010 H   0  0  0  0  0  0  0  0  0  0  0  0
   34.2740   28.7180   45.9640 O   0  0  0  0  0  0  0  0  0  0  0  0
   34.8680   27.8990   45.9490 H   0  0  0  0  0  0  0  0  0  0  0  0
   31.3400   28.8730   46.7810 O   0  0  0  0  0  0  0  0  0  0  0  0
   29.9820   27.9520   46.8170 C   0  0  0  0  0  0  0  0  0  0  0  0
   29.1780   29.2080   47.1750 C   0  0  0  0  0  0  0  0  0  0  0  0
   29.2230   30.3040   47.3790 H   0  0  0  0  0  0  0  0  0  0  0  0
   27.8410   29.1070   47.3600 C   0  0  0  0  0  3  0  0  0  0  0  0
   27.2210   27.8100   47.2100 C   0  0  0  0  0  3  0  0  0  0  0  0
   28.7260   26.7200   46.7760 S   0  0  0  0  0  0  0  0  0  0  0  0
  1  5  1  0  0  0  0
  1  6  1  1  0  0  0
  1  2  1  0  0  0  0
  2  7  1  6  0  0  0
  2 12  1  0  0  0  0
  2  3  1  0  0  0  0
  4  9  1  0  0  0  0
  4  8  1  0  0  0  0
  4  3  1  0  0  0  0
  5 10  1  6  0  0  0
  5  4  1  0  0  0  0
 11 14  1  6  0  0  0
 11 13  1  0  0  0  0
 12 15  1  6  0  0  0
 12 11  1  0  0  0  0
 12 13  1  0  0  0  0
 13 16  1  0  0  0  0
 13 17  1  0  0  0  0
 18 11  1  0  0  0  0
 18 19  1  0  0  0  0
 19 24  1  0  0  0  0
 20 19  2  0  0  0  0
 20 25  1  0  0  0  0
 21 20  1  0  0  0  0
 22 23  1  0  0  0  0
 22 21  2  0  0  0  0
 23 18  2  0  0  0  0
 26 22  1  0  0  0  0
 27  1  1  0  0  0  0
 28 27  1  0  0  0  0
 29 30  1  0  0  0  0
 29  5  1  0  0  0  0
 30 31  2  0  0  0  0
 31 33  1  0  0  0  0
 31 32  1  0  0  0  0
 34 33  2  0  0  0  0
 35 30  1  0  0  0  0
 35 34  1  0  0  0  0
M  END
>  <minimizedAffinity>
-5.33462095

>  <minimizedRMSD>
1.66562009

$$$$
