
 OpenBabel03272509423D

 35 37  0  0  1  0  0  0  0  0999 V2000
   37.0260   30.9180   49.0370 C   0  0  0  0  0  0  0  0  0  0  0  0
   36.7380   31.7960   50.0830 C   0  0  0  0  0  0  0  0  0  0  0  0
   37.3220   33.0500   50.1700 C   0  0  0  0  0  0  0  0  0  0  0  0
   38.2290   33.4560   49.1830 C   0  0  0  0  0  0  0  0  0  0  0  0
   38.5010   32.5860   48.1650 C   0  0  0  0  0  0  0  0  0  0  0  0
   37.8970   31.3410   48.1150 C   0  0  0  0  0  0  0  0  0  0  0  0
   36.0360   31.4900   50.8530 H   0  0  0  0  0  0  0  0  0  0  0  0
   37.0490   33.6610   51.0040 H   0  0  0  0  0  0  0  0  0  0  0  0
   38.6210   34.4310   49.3380 H   0  0  0  0  0  0  0  0  0  0  0  0
   39.2190   33.0420   47.4840 H   0  0  0  0  0  0  0  0  0  0  0  0
   36.4420   29.5970   48.9650 C   0  0  2  0  0  0  0  0  0  0  0  0
   36.9630   29.0860   48.0670 H   0  0  0  0  0  0  0  0  0  0  0  0
   33.5750   30.0850   46.7840 C   0  0  0  0  0  0  0  0  0  0  0  0
   32.8760   28.8980   46.8790 C   0  0  0  0  0  0  0  0  0  0  0  0
   33.3480   27.9330   47.7480 C   0  0  0  0  0  0  0  0  0  0  0  0
   34.4890   28.1810   48.4810 N   0  0  0  0  0  0  0  0  0  0  0  0
   35.1130   29.3330   48.3420 C   0  0  0  0  0  0  0  0  0  0  0  0
   34.6640   30.2900   47.5000 N   0  0  0  0  0  0  0  0  0  0  0  0
   33.2320   30.8700   46.1080 H   0  0  0  0  0  0  0  0  0  0  0  0
   31.9970   28.8110   46.2580 H   0  0  0  0  0  0  0  0  0  0  0  0
   32.7990   27.0050   47.8240 H   0  0  0  0  0  0  0  0  0  0  0  0
   36.8940   28.8100   49.8750 O   0  0  0  0  0  0  0  0  0  0  0  0
   36.4440   28.6370   50.7190 H   0  0  0  0  0  0  0  0  0  0  0  0
   38.3050   30.5120   47.0040 C   0  0  0  0  0  3  0  0  0  0  0  0
   39.0030   30.9580   45.9550 C   0  0  0  0  0  3  0  0  0  0  0  0
   39.5130   30.1930   44.7930 C   0  0  0  0  0  0  0  0  0  0  0  0
   38.7550   29.4470   44.4560 H   0  0  0  0  0  0  0  0  0  0  0  0
   40.4550   29.6620   45.0910 H   0  0  0  0  0  0  0  0  0  0  0  0
   39.9400   31.3250   43.4680 S   0  0  0  0  0  0  0  0  0  0  0  0
   38.5050   31.6860   42.4800 C   0  0  0  0  0  0  0  0  0  0  0  0
   37.5390   32.5300   43.0930 C   0  0  0  0  0  0  0  0  0  0  0  0
   37.4760   33.0170   44.0530 H   0  0  0  0  0  0  0  0  0  0  0  0
   36.3820   32.9190   42.5050 C   0  0  0  0  0  3  0  0  0  0  0  0
   36.1670   32.4150   41.1690 C   0  0  0  0  0  3  0  0  0  0  0  0
   37.7060   31.3600   40.8090 S   0  0  0  0  0  0  0  0  0  0  0  0
  1  2  1  0  0  0  0
  2  3  2  0  0  0  0
  2  7  1  0  0  0  0
  3  8  1  0  0  0  0
  4  9  1  0  0  0  0
  4  3  1  0  0  0  0
  5  4  2  0  0  0  0
  6  5  1  0  0  0  0
  6  1  2  0  0  0  0
 10  5  1  0  0  0  0
 11 12  1  6  0  0  0
 11  1  1  0  0  0  0
 11 22  1  0  0  0  0
 13 14  2  0  0  0  0
 13 18  1  0  0  0  0
 14 15  1  0  0  0  0
 15 21  1  0  0  0  0
 15 16  2  0  0  0  0
 17 16  1  0  0  0  0
 17 11  1  0  0  0  0
 18 17  2  0  0  0  0
 19 13  1  0  0  0  0
 20 14  1  0  0  0  0
 22 23  1  0  0  0  0
 24  6  1  0  0  0  0
 25 24  2  0  0  0  0
 26 28  1  0  0  0  0
 26 25  1  0  0  0  0
 27 26  1  0  0  0  0
 29 26  1  0  0  0  0
 30 31  2  0  0  0  0
 30 29  1  0  0  0  0
 31 32  1  0  0  0  0
 33 31  1  0  0  0  0
 34 33  2  0  0  0  0
 35 34  1  0  0  0  0
 35 30  1  0  0  0  0
M  END
>  <minimizedAffinity>
-5.50572062

>  <minimizedRMSD>
0.733327806

$$$$
