
 OpenBabel03272507333D

 33 36  0  0  1  0  0  0  0  0999 V2000
   36.4880   30.6770   49.1990 C   0  0  0  0  0  0  0  0  0  0  0  0
   35.5310   30.1270   50.0200 C   0  0  0  0  0  0  0  0  0  0  0  0
   34.4340   29.7830   49.2130 C   0  0  0  0  0  0  0  0  0  0  0  0
   34.8050   30.1530   47.9360 C   0  0  0  0  0  0  0  0  0  0  0  0
   36.0140   30.6720   47.9790 O   0  0  0  0  0  0  0  0  0  0  0  0
   35.4710   29.9280   51.0810 H   0  0  0  0  0  0  0  0  0  0  0  0
   33.4690   29.3250   49.4540 H   0  0  0  0  0  0  0  0  0  0  0  0
   37.7640   31.1480   49.7100 C   0  0  0  0  0  0  0  0  0  0  0  0
   38.1660   30.7400   50.8130 O   0  0  0  0  0  0  0  0  0  0  0  0
   38.4970   32.0710   48.8900 C   0  0  0  0  0  0  0  0  0  0  0  0
   38.8020   33.3060   49.4360 C   0  0  0  0  0  0  0  0  0  0  0  0
   39.5090   34.2250   48.6640 C   0  0  0  0  0  0  0  0  0  0  0  0
   39.8680   33.8530   47.3910 N   0  0  0  0  0  0  0  0  0  0  0  0
   39.5610   32.6570   46.8910 C   0  0  0  0  0  0  0  0  0  0  0  0
   38.8780   31.7630   47.6270 N   0  0  0  0  0  0  0  0  0  0  0  0
   38.5180   33.6070   50.4470 H   0  0  0  0  0  0  0  0  0  0  0  0
   39.7640   35.1930   49.0530 H   0  0  0  0  0  0  0  0  0  0  0  0
   39.8470   32.3620   45.8800 H   0  0  0  0  0  0  0  0  0  0  0  0
   33.9890   29.9900   46.7340 C   0  0  0  0  0  0  0  0  0  0  0  0
   33.0890   30.8420   46.4820 O   0  0  0  0  0  0  0  0  0  0  0  0
   34.2080   28.8340   45.8200 C   0  0  1  0  0  0  0  0  0  0  0  0
   33.4560   29.0530   44.4480 C   0  0  0  0  0  0  0  0  0  0  0  0
   34.9150   28.9660   44.5420 C   0  0  1  0  0  0  0  0  0  0  0  0
   33.8630   27.8360   46.1980 H   0  0  0  0  0  0  0  0  0  0  0  0
   32.9310   30.0110   44.3270 H   0  0  0  0  0  0  0  0  0  0  0  0
   32.9450   28.1930   44.0110 H   0  0  0  0  0  0  0  0  0  0  0  0
   35.4220   28.0080   44.1820 H   0  0  0  0  0  0  0  0  0  0  0  0
   35.6280   30.2240   44.1660 C   0  0  0  0  0  0  0  0  0  0  0  0
   36.8580   30.7250   44.5780 C   0  0  0  0  0  0  0  0  0  0  0  0
   37.4140   30.1490   45.2980 H   0  0  0  0  0  0  0  0  0  0  0  0
   37.2990   31.9090   44.0720 C   0  0  0  0  0  0  0  0  0  0  0  0
   36.3700   32.5560   43.0910 C   0  0  0  0  0  0  0  0  0  0  0  0
   34.9390   31.3230   43.0350 S   0  0  0  0  0  0  0  0  0  0  0  0
  1  8  1  0  0  0  0
  1  2  2  0  0  0  0
  2  6  1  0  0  0  0
  3  7  1  0  0  0  0
  3  2  1  0  0  0  0
  4  5  1  0  0  0  0
  4  3  2  0  0  0  0
  5  1  1  0  0  0  0
  8  9  2  0  0  0  0
 10 11  1  0  0  0  0
 10  8  1  0  0  0  0
 11 16  1  0  0  0  0
 12 17  1  0  0  0  0
 12 11  2  0  0  0  0
 13 12  1  0  0  0  0
 14 13  2  0  0  0  0
 14 15  1  0  0  0  0
 15 10  2  0  0  0  0
 18 14  1  0  0  0  0
 19  4  1  0  0  0  0
 20 19  2  0  0  0  0
 21 24  1  1  0  0  0
 21 19  1  0  0  0  0
 22 23  1  0  0  0  0
 22 21  1  0  0  0  0
 23 27  1  6  0  0  0
 23 21  1  0  0  0  0
 25 22  1  0  0  0  0
 26 22  1  0  0  0  0
 28 23  1  0  0  0  0
 28 29  2  0  0  0  0
 29 30  1  0  0  0  0
 31 29  1  0  0  0  0
 32 31  2  0  0  0  0
 33 32  1  0  0  0  0
 33 28  1  0  0  0  0
M  END
>  <minimizedAffinity>
-5.29924345

>  <minimizedRMSD>
5.03779078

$$$$
