
 OpenBabel03272505283D

 28 30  0  0  0  0  0  0  0  0999 V2000
   37.9070   23.0830   34.9470 N   0  0  0  0  0  0  0  0  0  0  0  0
   37.5070   21.8700   34.4710 C   0  0  0  0  0  0  0  0  0  0  0  0
   37.1050   21.7120   33.1530 C   0  0  0  0  0  0  0  0  0  0  0  0
   37.1200   22.8340   32.3230 C   0  0  0  0  0  0  0  0  0  0  0  0
   36.7620   22.7320   31.1180 O   0  0  0  0  0  0  0  0  0  0  0  0
   37.5200   24.0370   32.8040 N   0  0  0  0  0  0  0  0  0  0  0  0
   37.8910   24.0910   34.0960 C   0  0  0  0  0  0  0  0  0  0  0  0
   38.2510   25.2130   34.5030 O   0  0  0  0  0  0  0  0  0  0  0  0
   37.4990   21.0040   35.1250 H   0  0  0  0  0  0  0  0  0  0  0  0
   37.9420   24.0250   38.5420 C   0  0  0  0  0  0  0  0  0  0  0  0
   37.5220   23.8740   37.2090 C   0  0  0  0  0  0  0  0  0  0  0  0
   38.3100   23.2450   36.2760 C   0  0  0  0  0  0  0  0  0  0  0  0
   39.5220   22.7720   36.6960 N   0  0  0  0  0  0  0  0  0  0  0  0
   39.9510   22.9040   37.9790 C   0  0  0  0  0  0  0  0  0  0  0  0
   39.1650   23.5260   38.8900 N   0  0  0  0  0  0  0  0  0  0  0  0
   37.3870   24.4970   39.3150 H   0  0  0  0  0  0  0  0  0  0  0  0
   36.5580   24.3160   37.0710 H   0  0  0  0  0  0  0  0  0  0  0  0
   40.9220   22.5110   38.2590 H   0  0  0  0  0  0  0  0  0  0  0  0
   36.6820   20.4970   32.5970 C   0  0  0  0  0  0  0  0  0  0  0  0
   35.4020   19.9320   32.8170 C   0  0  0  0  0  0  0  0  0  0  0  0
   34.6450   20.3920   33.4320 H   0  0  0  0  0  0  0  0  0  0  0  0
   35.0940   18.7430   32.2270 C   0  0  0  0  0  3  0  0  0  0  0  0
   36.1900   18.1370   31.3730 C   0  0  0  0  0  3  0  0  0  0  0  0
   37.5610   19.4330   31.5600 S   0  0  0  0  0  0  0  0  0  0  0  0
   37.5390   25.2040   31.9470 C   0  0  0  0  0  0  0  0  0  0  0  0
   36.8930   26.2380   32.5420 F   0  0  0  0  0  0  0  0  0  0  0  0
   36.9170   24.9910   30.7280 F   0  0  0  0  0  0  0  0  0  0  0  0
   38.8690   25.5950   31.7340 F   0  0  0  0  0  0  0  0  0  0  0  0
  1 12  1  0  0  0  0
  2  1  1  0  0  0  0
  2  9  1  0  0  0  0
  3  2  2  0  0  0  0
  4  6  1  0  0  0  0
  4  3  1  0  0  0  0
  5  4  2  0  0  0  0
  6  7  1  0  0  0  0
  7  8  2  0  0  0  0
  7  1  1  0  0  0  0
 10 15  1  0  0  0  0
 10 16  1  0  0  0  0
 11 10  2  0  0  0  0
 12 13  2  0  0  0  0
 12 11  1  0  0  0  0
 13 14  1  0  0  0  0
 14 18  1  0  0  0  0
 14 15  2  0  0  0  0
 17 11  1  0  0  0  0
 19 20  2  0  0  0  0
 19  3  1  0  0  0  0
 20 21  1  0  0  0  0
 22 20  1  0  0  0  0
 23 24  1  0  0  0  0
 23 22  2  0  0  0  0
 24 19  1  0  0  0  0
 25 26  1  0  0  0  0
 25  6  1  0  0  0  0
 27 25  1  0  0  0  0
 28 25  1  0  0  0  0
M  END
>  <minimizedAffinity>
-5.47265005

$$$$

 OpenBabel03272505283D

 28 30  0  0  0  0  0  0  0  0999 V2000
   38.1220   23.5260   34.2460 N   0  0  0  0  0  0  0  0  0  0  0  0
   38.1930   24.7740   33.7020 C   0  0  0  0  0  0  0  0  0  0  0  0
   37.5340   25.0820   32.5210 C   0  0  0  0  0  0  0  0  0  0  0  0
   36.7930   24.0740   31.9020 C   0  0  0  0  0  0  0  0  0  0  0  0
   36.1790   24.3150   30.8260 O   0  0  0  0  0  0  0  0  0  0  0  0
   36.7270   22.8370   32.4490 N   0  0  0  0  0  0  0  0  0  0  0  0
   37.4000   22.6340   33.5960 C   0  0  0  0  0  0  0  0  0  0  0  0
   37.3180   21.4830   34.0690 O   0  0  0  0  0  0  0  0  0  0  0  0
   38.7720   25.5490   34.1920 H   0  0  0  0  0  0  0  0  0  0  0  0
   38.9530   23.2040   37.8540 C   0  0  0  0  0  0  0  0  0  0  0  0
   38.2720   23.5300   36.6680 C   0  0  0  0  0  0  0  0  0  0  0  0
   38.7880   23.2130   35.4350 C   0  0  0  0  0  0  0  0  0  0  0  0
   39.9920   22.5670   35.4060 N   0  0  0  0  0  0  0  0  0  0  0  0
   40.6720   22.2410   36.5380 C   0  0  0  0  0  0  0  0  0  0  0  0
   40.1530   22.5580   37.7480 N   0  0  0  0  0  0  0  0  0  0  0  0
   38.6170   23.4160   38.8380 H   0  0  0  0  0  0  0  0  0  0  0  0
   37.3590   24.0380   36.8930 H   0  0  0  0  0  0  0  0  0  0  0  0
   41.6240   21.7290   36.4580 H   0  0  0  0  0  0  0  0  0  0  0  0
   37.5630   26.3410   31.9060 C   0  0  0  0  0  0  0  0  0  0  0  0
   36.7390   27.4260   32.2920 C   0  0  0  0  0  0  0  0  0  0  0  0
   36.0200   27.3730   33.0930 H   0  0  0  0  0  0  0  0  0  0  0  0
   36.8490   28.6090   31.6250 C   0  0  0  0  0  3  0  0  0  0  0  0
   37.8740   28.6340   30.5080 C   0  0  0  0  0  3  0  0  0  0  0  0
   38.5540   26.8670   30.5940 S   0  0  0  0  0  0  0  0  0  0  0  0
   35.9580   21.7890   31.8110 C   0  0  0  0  0  0  0  0  0  0  0  0
   35.2740   22.2840   30.7490 F   0  0  0  0  0  0  0  0  0  0  0  0
   35.0240   21.2120   32.6560 F   0  0  0  0  0  0  0  0  0  0  0  0
   36.8330   20.8020   31.3340 F   0  0  0  0  0  0  0  0  0  0  0  0
  1 12  1  0  0  0  0
  2  9  1  0  0  0  0
  2  1  1  0  0  0  0
  3  2  2  0  0  0  0
  4  6  1  0  0  0  0
  4  3  1  0  0  0  0
  5  4  2  0  0  0  0
  6  7  1  0  0  0  0
  7  8  2  0  0  0  0
  7  1  1  0  0  0  0
 10 16  1  0  0  0  0
 11 17  1  0  0  0  0
 11 10  2  0  0  0  0
 12 11  1  0  0  0  0
 13 12  2  0  0  0  0
 13 14  1  0  0  0  0
 14 15  2  0  0  0  0
 15 10  1  0  0  0  0
 18 14  1  0  0  0  0
 19 20  2  0  0  0  0
 19  3  1  0  0  0  0
 20 21  1  0  0  0  0
 22 20  1  0  0  0  0
 23 24  1  0  0  0  0
 23 22  2  0  0  0  0
 24 19  1  0  0  0  0
 25  6  1  0  0  0  0
 25 27  1  0  0  0  0
 26 25  1  0  0  0  0
 28 25  1  0  0  0  0
M  END
>  <minimizedAffinity>
-5.43084335

$$$$

 OpenBabel03272505283D

 28 30  0  0  0  0  0  0  0  0999 V2000
   38.9000   24.5620   34.7990 N   0  0  0  0  0  0  0  0  0  0  0  0
   40.0550   23.8730   34.5790 C   0  0  0  0  0  0  0  0  0  0  0  0
   40.6610   23.1430   35.5920 C   0  0  0  0  0  0  0  0  0  0  0  0
   40.0520   23.1340   36.8480 C   0  0  0  0  0  0  0  0  0  0  0  0
   40.5720   22.4830   37.7960 O   0  0  0  0  0  0  0  0  0  0  0  0
   38.9040   23.8220   37.0580 N   0  0  0  0  0  0  0  0  0  0  0  0
   38.3920   24.5000   36.0150 C   0  0  0  0  0  0  0  0  0  0  0  0
   37.3370   25.1210   36.2460 O   0  0  0  0  0  0  0  0  0  0  0  0
   40.5200   23.8860   33.5990 H   0  0  0  0  0  0  0  0  0  0  0  0
   38.0230   27.3240   32.4730 C   0  0  0  0  0  0  0  0  0  0  0  0
   38.6450   26.5980   33.5030 C   0  0  0  0  0  0  0  0  0  0  0  0
   38.2900   25.3000   33.7800 C   0  0  0  0  0  0  0  0  0  0  0  0
   37.3060   24.7420   33.0140 N   0  0  0  0  0  0  0  0  0  0  0  0
   36.6880   25.4220   32.0110 C   0  0  0  0  0  0  0  0  0  0  0  0
   37.0470   26.7000   31.7470 N   0  0  0  0  0  0  0  0  0  0  0  0
   38.2450   28.3260   32.2010 H   0  0  0  0  0  0  0  0  0  0  0  0
   39.3770   27.2030   33.9940 H   0  0  0  0  0  0  0  0  0  0  0  0
   35.9130   24.9310   31.4330 H   0  0  0  0  0  0  0  0  0  0  0  0
   41.8470   22.4120   35.4380 C   0  0  0  0  0  0  0  0  0  0  0  0
   43.0500   22.7080   36.1240 C   0  0  0  0  0  0  0  0  0  0  0  0
   43.1530   23.5210   36.8230 H   0  0  0  0  0  0  0  0  0  0  0  0
   44.1470   21.9320   35.8990 C   0  0  0  0  0  3  0  0  0  0  0  0
   43.9520   20.8000   34.9080 C   0  0  0  0  0  3  0  0  0  0  0  0
   42.1340   21.0410   34.4290 S   0  0  0  0  0  0  0  0  0  0  0  0
   38.2670   23.8150   38.3590 C   0  0  0  0  0  0  0  0  0  0  0  0
   37.2620   22.9030   38.3880 F   0  0  0  0  0  0  0  0  0  0  0  0
   37.7090   25.0370   38.6950 F   0  0  0  0  0  0  0  0  0  0  0  0
   39.2100   23.4450   39.3290 F   0  0  0  0  0  0  0  0  0  0  0  0
  1  7  1  0  0  0  0
  2  1  1  0  0  0  0
  2  3  2  0  0  0  0
  3  4  1  0  0  0  0
  4  6  1  0  0  0  0
  4  5  2  0  0  0  0
  6 25  1  0  0  0  0
  7  8  2  0  0  0  0
  7  6  1  0  0  0  0
  9  2  1  0  0  0  0
 10 11  1  0  0  0  0
 11 12  2  0  0  0  0
 11 17  1  0  0  0  0
 12  1  1  0  0  0  0
 13 12  1  0  0  0  0
 14 13  2  0  0  0  0
 15 14  1  0  0  0  0
 15 10  2  0  0  0  0
 16 10  1  0  0  0  0
 18 14  1  0  0  0  0
 19  3  1  0  0  0  0
 19 20  2  0  0  0  0
 20 21  1  0  0  0  0
 22 20  1  0  0  0  0
 23 22  2  0  0  0  0
 24 23  1  0  0  0  0
 24 19  1  0  0  0  0
 25 26  1  0  0  0  0
 25 27  1  0  0  0  0
 25 28  1  0  0  0  0
M  END
>  <minimizedAffinity>
-5.39100218

$$$$

 OpenBabel03272505283D

 28 30  0  0  0  0  0  0  0  0999 V2000
   37.4680   25.2370   32.5440 N   0  0  0  0  0  0  0  0  0  0  0  0
   38.1350   24.9700   33.7020 C   0  0  0  0  0  0  0  0  0  0  0  0
   38.1530   23.6930   34.2430 C   0  0  0  0  0  0  0  0  0  0  0  0
   37.4640   22.6840   33.5660 C   0  0  0  0  0  0  0  0  0  0  0  0
   37.4560   21.5090   34.0260 O   0  0  0  0  0  0  0  0  0  0  0  0
   36.8040   22.9580   32.4150 N   0  0  0  0  0  0  0  0  0  0  0  0
   36.8450   24.2270   31.9690 C   0  0  0  0  0  0  0  0  0  0  0  0
   36.2250   24.4420   30.9090 O   0  0  0  0  0  0  0  0  0  0  0  0
   38.6670   25.7610   34.2200 H   0  0  0  0  0  0  0  0  0  0  0  0
   36.5630   28.7780   31.8700 C   0  0  0  0  0  0  0  0  0  0  0  0
   36.5670   27.4880   32.4270 C   0  0  0  0  0  0  0  0  0  0  0  0
   37.4480   26.5250   31.9980 C   0  0  0  0  0  0  0  0  0  0  0  0
   38.3210   26.8710   31.0060 N   0  0  0  0  0  0  0  0  0  0  0  0
   38.3370   28.1120   30.4500 C   0  0  0  0  0  0  0  0  0  0  0  0
   37.4650   29.0530   30.8810 N   0  0  0  0  0  0  0  0  0  0  0  0
   35.9140   29.5710   32.1510 H   0  0  0  0  0  0  0  0  0  0  0  0
   35.8100   27.4050   33.1780 H   0  0  0  0  0  0  0  0  0  0  0  0
   39.0510   28.3340   29.6650 H   0  0  0  0  0  0  0  0  0  0  0  0
   38.8160   23.3460   35.4280 C   0  0  0  0  0  0  0  0  0  0  0  0
   38.2890   23.5750   36.7220 C   0  0  0  0  0  0  0  0  0  0  0  0
   37.3320   24.0350   36.9030 H   0  0  0  0  0  0  0  0  0  0  0  0
   39.0200   23.1980   37.8090 C   0  0  0  0  0  3  0  0  0  0  0  0
   40.3590   22.5550   37.5020 C   0  0  0  0  0  3  0  0  0  0  0  0
   40.3600   22.5940   35.6080 S   0  0  0  0  0  0  0  0  0  0  0  0
   36.0900   21.9160   31.7080 C   0  0  0  0  0  0  0  0  0  0  0  0
   35.3120   22.4520   30.7340 F   0  0  0  0  0  0  0  0  0  0  0  0
   35.2520   21.1810   32.5300 F   0  0  0  0  0  0  0  0  0  0  0  0
   37.0160   21.0600   31.0950 F   0  0  0  0  0  0  0  0  0  0  0  0
  1  2  1  0  0  0  0
  2  9  1  0  0  0  0
  2  3  2  0  0  0  0
  3 19  1  0  0  0  0
  4  5  2  0  0  0  0
  4  3  1  0  0  0  0
  6  4  1  0  0  0  0
  7  6  1  0  0  0  0
  7  1  1  0  0  0  0
  8  7  2  0  0  0  0
 10 16  1  0  0  0  0
 10 11  1  0  0  0  0
 11 17  1  0  0  0  0
 12 11  2  0  0  0  0
 12  1  1  0  0  0  0
 13 12  1  0  0  0  0
 14 15  1  0  0  0  0
 14 13  2  0  0  0  0
 15 10  2  0  0  0  0
 18 14  1  0  0  0  0
 19 24  1  0  0  0  0
 19 20  2  0  0  0  0
 20 21  1  0  0  0  0
 20 22  1  0  0  0  0
 23 22  2  0  0  0  0
 24 23  1  0  0  0  0
 25  6  1  0  0  0  0
 25 27  1  0  0  0  0
 26 25  1  0  0  0  0
 28 25  1  0  0  0  0
M  END
>  <minimizedAffinity>
-5.36107254

$$$$

 OpenBabel03272505283D

 28 30  0  0  0  0  0  0  0  0999 V2000
   38.0440   23.6750   34.6750 N   0  0  0  0  0  0  0  0  0  0  0  0
   37.8540   22.5940   33.8690 C   0  0  0  0  0  0  0  0  0  0  0  0
   37.5050   22.7440   32.5340 C   0  0  0  0  0  0  0  0  0  0  0  0
   37.3520   24.0400   32.0390 C   0  0  0  0  0  0  0  0  0  0  0  0
   37.0350   24.2190   30.8310 O   0  0  0  0  0  0  0  0  0  0  0  0
   37.5430   25.1100   32.8480 N   0  0  0  0  0  0  0  0  0  0  0  0
   37.8800   24.8630   34.1270 C   0  0  0  0  0  0  0  0  0  0  0  0
   38.0460   25.8710   34.8410 O   0  0  0  0  0  0  0  0  0  0  0  0
   37.9750   21.5900   34.2640 H   0  0  0  0  0  0  0  0  0  0  0  0
   39.9500   22.8860   37.7670 C   0  0  0  0  0  0  0  0  0  0  0  0
   39.6130   23.0260   36.4100 C   0  0  0  0  0  0  0  0  0  0  0  0
   38.3940   23.5250   36.0210 C   0  0  0  0  0  0  0  0  0  0  0  0
   37.5180   23.8790   37.0090 N   0  0  0  0  0  0  0  0  0  0  0  0
   37.8180   23.7530   38.3290 C   0  0  0  0  0  0  0  0  0  0  0  0
   39.0240   23.2610   38.7000 N   0  0  0  0  0  0  0  0  0  0  0  0
   40.8700   22.5100   38.1400 H   0  0  0  0  0  0  0  0  0  0  0  0
   40.4170   22.6880   35.7910 H   0  0  0  0  0  0  0  0  0  0  0  0
   37.0860   24.0490   39.0720 H   0  0  0  0  0  0  0  0  0  0  0  0
   37.2940   21.6790   31.6490 C   0  0  0  0  0  0  0  0  0  0  0  0
   36.0780   20.9600   31.5560 C   0  0  0  0  0  0  0  0  0  0  0  0
   35.2110   21.1740   32.1600 H   0  0  0  0  0  0  0  0  0  0  0  0
   35.9800   19.9400   30.6580 C   0  0  0  0  0  3  0  0  0  0  0  0
   37.2240   19.6790   29.8310 C   0  0  0  0  0  3  0  0  0  0  0  0
   38.3990   21.0040   30.5060 S   0  0  0  0  0  0  0  0  0  0  0  0
   37.3880   26.4570   32.3390 C   0  0  0  0  0  0  0  0  0  0  0  0
   38.1240   26.6230   31.2100 F   0  0  0  0  0  0  0  0  0  0  0  0
   37.8060   27.4260   33.2350 F   0  0  0  0  0  0  0  0  0  0  0  0
   36.0420   26.6700   32.0080 F   0  0  0  0  0  0  0  0  0  0  0  0
  1 12  1  0  0  0  0
  2  9  1  0  0  0  0
  2  1  1  0  0  0  0
  3  2  2  0  0  0  0
  4  3  1  0  0  0  0
  4  6  1  0  0  0  0
  5  4  2  0  0  0  0
  6  7  1  0  0  0  0
  7  1  1  0  0  0  0
  7  8  2  0  0  0  0
 10 16  1  0  0  0  0
 10 15  1  0  0  0  0
 11 10  2  0  0  0  0
 12 11  1  0  0  0  0
 12 13  2  0  0  0  0
 13 14  1  0  0  0  0
 14 15  2  0  0  0  0
 14 18  1  0  0  0  0
 17 11  1  0  0  0  0
 19  3  1  0  0  0  0
 20 19  2  0  0  0  0
 20 21  1  0  0  0  0
 22 20  1  0  0  0  0
 23 24  1  0  0  0  0
 23 22  2  0  0  0  0
 24 19  1  0  0  0  0
 25  6  1  0  0  0  0
 25 27  1  0  0  0  0
 26 25  1  0  0  0  0
 28 25  1  0  0  0  0
M  END
>  <minimizedAffinity>
-5.29777193

$$$$

 OpenBabel03272505283D

 28 30  0  0  0  0  0  0  0  0999 V2000
   36.7480   26.8730   32.6990 N   0  0  0  0  0  0  0  0  0  0  0  0
   36.6030   25.6910   32.0360 C   0  0  0  0  0  0  0  0  0  0  0  0
   37.1000   24.5070   32.5590 C   0  0  0  0  0  0  0  0  0  0  0  0
   37.7570   24.5590   33.7900 C   0  0  0  0  0  0  0  0  0  0  0  0
   38.2240   23.5030   34.3000 O   0  0  0  0  0  0  0  0  0  0  0  0
   37.8970   25.7380   34.4430 N   0  0  0  0  0  0  0  0  0  0  0  0
   37.3810   26.8320   33.8550 C   0  0  0  0  0  0  0  0  0  0  0  0
   37.5300   27.8980   34.4850 O   0  0  0  0  0  0  0  0  0  0  0  0
   36.0910   25.6620   31.0790 H   0  0  0  0  0  0  0  0  0  0  0  0
   36.3550   29.9290   30.6210 C   0  0  0  0  0  0  0  0  0  0  0  0
   36.8730   28.7310   31.1420 C   0  0  0  0  0  0  0  0  0  0  0  0
   36.2490   28.0680   32.1720 C   0  0  0  0  0  0  0  0  0  0  0  0
   35.1040   28.6220   32.6710 N   0  0  0  0  0  0  0  0  0  0  0  0
   34.5830   29.7800   32.1860 C   0  0  0  0  0  0  0  0  0  0  0  0
   35.2060   30.4240   31.1710 N   0  0  0  0  0  0  0  0  0  0  0  0
   36.7810   30.4940   29.8290 H   0  0  0  0  0  0  0  0  0  0  0  0
   37.7740   28.4630   30.6330 H   0  0  0  0  0  0  0  0  0  0  0  0
   33.6720   30.1770   32.6190 H   0  0  0  0  0  0  0  0  0  0  0  0
   36.9880   23.2580   31.9330 C   0  0  0  0  0  0  0  0  0  0  0  0
   35.8000   22.4870   31.9200 C   0  0  0  0  0  0  0  0  0  0  0  0
   34.8820   22.7980   32.3910 H   0  0  0  0  0  0  0  0  0  0  0  0
   35.8010   21.2840   31.2810 C   0  0  0  0  0  3  0  0  0  0  0  0
   37.1150   20.8910   30.6330 C   0  0  0  0  0  3  0  0  0  0  0  0
   38.1980   22.3850   31.0650 S   0  0  0  0  0  0  0  0  0  0  0  0
   38.5750   25.7960   35.7210 C   0  0  0  0  0  0  0  0  0  0  0  0
   39.7400   25.1010   35.6700 F   0  0  0  0  0  0  0  0  0  0  0  0
   37.8300   25.2550   36.7550 F   0  0  0  0  0  0  0  0  0  0  0  0
   38.8870   27.1320   36.0140 F   0  0  0  0  0  0  0  0  0  0  0  0
  1  7  1  0  0  0  0
  2  3  2  0  0  0  0
  2  1  1  0  0  0  0
  3  4  1  0  0  0  0
  4  5  2  0  0  0  0
  4  6  1  0  0  0  0
  6 25  1  0  0  0  0
  7  6  1  0  0  0  0
  7  8  2  0  0  0  0
  9  2  1  0  0  0  0
 10 11  2  0  0  0  0
 10 15  1  0  0  0  0
 11 12  1  0  0  0  0
 12 13  2  0  0  0  0
 12  1  1  0  0  0  0
 14 18  1  0  0  0  0
 14 13  1  0  0  0  0
 15 14  2  0  0  0  0
 16 10  1  0  0  0  0
 17 11  1  0  0  0  0
 19  3  1  0  0  0  0
 20 19  2  0  0  0  0
 20 21  1  0  0  0  0
 22 20  1  0  0  0  0
 23 24  1  0  0  0  0
 23 22  2  0  0  0  0
 24 19  1  0  0  0  0
 25 28  1  0  0  0  0
 25 27  1  0  0  0  0
 26 25  1  0  0  0  0
M  END
>  <minimizedAffinity>
-5.26337099

$$$$

 OpenBabel03272505283D

 28 30  0  0  0  0  0  0  0  0999 V2000
   37.1620   24.1810   32.5600 N   0  0  0  0  0  0  0  0  0  0  0  0
   36.7840   25.3490   31.9680 C   0  0  0  0  0  0  0  0  0  0  0  0
   36.9370   26.5660   32.6150 C   0  0  0  0  0  0  0  0  0  0  0  0
   37.4920   26.5620   33.8960 C   0  0  0  0  0  0  0  0  0  0  0  0
   37.6490   27.6490   34.5190 O   0  0  0  0  0  0  0  0  0  0  0  0
   37.8670   25.3960   34.4770 N   0  0  0  0  0  0  0  0  0  0  0  0
   37.6780   24.2680   33.7700 C   0  0  0  0  0  0  0  0  0  0  0  0
   38.0320   23.2160   34.3370 O   0  0  0  0  0  0  0  0  0  0  0  0
   36.3530   25.3410   30.9720 H   0  0  0  0  0  0  0  0  0  0  0  0
   35.6850   21.0200   31.2820 C   0  0  0  0  0  0  0  0  0  0  0  0
   35.8250   22.2510   31.9450 C   0  0  0  0  0  0  0  0  0  0  0  0
   37.0060   22.9530   31.9090 C   0  0  0  0  0  0  0  0  0  0  0  0
   38.0400   22.4050   31.2040 N   0  0  0  0  0  0  0  0  0  0  0  0
   37.9300   21.2160   30.5540 C   0  0  0  0  0  0  0  0  0  0  0  0
   36.7620   20.5340   30.5950 N   0  0  0  0  0  0  0  0  0  0  0  0
   34.8060   20.4240   31.2650 H   0  0  0  0  0  0  0  0  0  0  0  0
   34.9170   22.5080   32.4470 H   0  0  0  0  0  0  0  0  0  0  0  0
   38.7820   20.8260   30.0080 H   0  0  0  0  0  0  0  0  0  0  0  0
   36.5710   27.8030   32.0680 C   0  0  0  0  0  0  0  0  0  0  0  0
   37.3770   28.5340   31.1620 C   0  0  0  0  0  0  0  0  0  0  0  0
   38.3400   28.1980   30.8170 H   0  0  0  0  0  0  0  0  0  0  0  0
   36.9230   29.7290   30.6910 C   0  0  0  0  0  3  0  0  0  0  0  0
   35.5620   30.1580   31.2050 C   0  0  0  0  0  3  0  0  0  0  0  0
   35.1250   28.7070   32.3420 S   0  0  0  0  0  0  0  0  0  0  0  0
   38.4450   25.3870   35.8050 C   0  0  0  0  0  0  0  0  0  0  0  0
   37.8560   24.4330   36.5700 F   0  0  0  0  0  0  0  0  0  0  0  0
   38.2870   26.5900   36.4730 F   0  0  0  0  0  0  0  0  0  0  0  0
   39.8090   25.0770   35.7090 F   0  0  0  0  0  0  0  0  0  0  0  0
  1  7  1  0  0  0  0
  2  1  1  0  0  0  0
  2  3  2  0  0  0  0
  3  4  1  0  0  0  0
  4  6  1  0  0  0  0
  4  5  2  0  0  0  0
  6 25  1  0  0  0  0
  7  8  2  0  0  0  0
  7  6  1  0  0  0  0
  9  2  1  0  0  0  0
 10 11  1  0  0  0  0
 11 17  1  0  0  0  0
 12 11  2  0  0  0  0
 12  1  1  0  0  0  0
 13 12  1  0  0  0  0
 14 15  1  0  0  0  0
 14 13  2  0  0  0  0
 15 10  2  0  0  0  0
 16 10  1  0  0  0  0
 18 14  1  0  0  0  0
 19 24  1  0  0  0  0
 19  3  1  0  0  0  0
 20 19  2  0  0  0  0
 21 20  1  0  0  0  0
 22 20  1  0  0  0  0
 22 23  2  0  0  0  0
 23 24  1  0  0  0  0
 25 27  1  0  0  0  0
 25 26  1  0  0  0  0
 28 25  1  0  0  0  0
M  END
>  <minimizedAffinity>
-5.12555218

$$$$

 OpenBabel03272505283D

 28 30  0  0  0  0  0  0  0  0999 V2000
   40.6420   23.0490   35.8000 N   0  0  0  0  0  0  0  0  0  0  0  0
   40.1120   23.7830   34.7810 C   0  0  0  0  0  0  0  0  0  0  0  0
   38.9680   24.5460   34.9630 C   0  0  0  0  0  0  0  0  0  0  0  0
   38.3710   24.5410   36.2250 C   0  0  0  0  0  0  0  0  0  0  0  0
   37.3290   25.2230   36.4310 O   0  0  0  0  0  0  0  0  0  0  0  0
   38.9040   23.8100   37.2330 N   0  0  0  0  0  0  0  0  0  0  0  0
   40.0150   23.1020   36.9600 C   0  0  0  0  0  0  0  0  0  0  0  0
   40.4760   22.4410   37.9100 O   0  0  0  0  0  0  0  0  0  0  0  0
   40.5840   23.7790   33.8040 H   0  0  0  0  0  0  0  0  0  0  0  0
   44.1460   21.8280   35.9910 C   0  0  0  0  0  0  0  0  0  0  0  0
   43.0000   22.6170   36.1810 C   0  0  0  0  0  0  0  0  0  0  0  0
   41.7940   22.2770   35.6180 C   0  0  0  0  0  0  0  0  0  0  0  0
   41.7530   21.1400   34.8620 N   0  0  0  0  0  0  0  0  0  0  0  0
   42.8480   20.3580   34.6620 C   0  0  0  0  0  0  0  0  0  0  0  0
   44.0310   20.7030   35.2230 N   0  0  0  0  0  0  0  0  0  0  0  0
   45.1080   22.0270   36.3940 H   0  0  0  0  0  0  0  0  0  0  0  0
   43.2300   23.4670   36.7890 H   0  0  0  0  0  0  0  0  0  0  0  0
   42.7610   19.4660   34.0530 H   0  0  0  0  0  0  0  0  0  0  0  0
   38.3700   25.3220   33.9620 C   0  0  0  0  0  0  0  0  0  0  0  0
   37.4180   24.8220   33.0400 C   0  0  0  0  0  0  0  0  0  0  0  0
   37.0750   23.8010   33.0320 H   0  0  0  0  0  0  0  0  0  0  0  0
   36.8980   25.6660   32.1040 C   0  0  0  0  0  3  0  0  0  0  0  0
   37.4120   27.0920   32.1560 C   0  0  0  0  0  3  0  0  0  0  0  0
   38.6220   26.9940   33.6120 S   0  0  0  0  0  0  0  0  0  0  0  0
   38.2900   23.8040   38.5440 C   0  0  0  0  0  0  0  0  0  0  0  0
   37.5140   22.7010   38.6980 F   0  0  0  0  0  0  0  0  0  0  0  0
   37.4740   24.9010   38.7650 F   0  0  0  0  0  0  0  0  0  0  0  0
   39.2940   23.7600   39.5220 F   0  0  0  0  0  0  0  0  0  0  0  0
  1  7  1  0  0  0  0
  2  3  2  0  0  0  0
  2  1  1  0  0  0  0
  3  4  1  0  0  0  0
  4  5  2  0  0  0  0
  4  6  1  0  0  0  0
  6 25  1  0  0  0  0
  7  6  1  0  0  0  0
  7  8  2  0  0  0  0
  9  2  1  0  0  0  0
 10 11  1  0  0  0  0
 10 16  1  0  0  0  0
 11 17  1  0  0  0  0
 12  1  1  0  0  0  0
 12 11  2  0  0  0  0
 13 12  1  0  0  0  0
 14 13  2  0  0  0  0
 14 15  1  0  0  0  0
 15 10  2  0  0  0  0
 18 14  1  0  0  0  0
 19  3  1  0  0  0  0
 20 19  2  0  0  0  0
 21 20  1  0  0  0  0
 22 23  2  0  0  0  0
 22 20  1  0  0  0  0
 23 24  1  0  0  0  0
 24 19  1  0  0  0  0
 25 26  1  0  0  0  0
 25 27  1  0  0  0  0
 25 28  1  0  0  0  0
M  END
>  <minimizedAffinity>
-5.11698103

$$$$

 OpenBabel03272505283D

 28 30  0  0  0  0  0  0  0  0999 V2000
   37.3840   25.6310   32.7390 N   0  0  0  0  0  0  0  0  0  0  0  0
   36.9190   24.4990   32.1390 C   0  0  0  0  0  0  0  0  0  0  0  0
   37.1300   23.2490   32.7020 C   0  0  0  0  0  0  0  0  0  0  0  0
   37.8350   23.1820   33.9050 C   0  0  0  0  0  0  0  0  0  0  0  0
   38.0480   22.0630   34.4490 O   0  0  0  0  0  0  0  0  0  0  0  0
   38.2940   24.3120   34.4940 N   0  0  0  0  0  0  0  0  0  0  0  0
   38.0400   25.4780   33.8720 C   0  0  0  0  0  0  0  0  0  0  0  0
   38.4790   26.4960   34.4430 O   0  0  0  0  0  0  0  0  0  0  0  0
   36.3710   24.5620   31.2050 H   0  0  0  0  0  0  0  0  0  0  0  0
   37.7370   28.6480   30.5970 C   0  0  0  0  0  0  0  0  0  0  0  0
   37.9640   27.3800   31.1580 C   0  0  0  0  0  0  0  0  0  0  0  0
   37.1740   26.8920   32.1710 C   0  0  0  0  0  0  0  0  0  0  0  0
   36.1570   27.6910   32.6130 N   0  0  0  0  0  0  0  0  0  0  0  0
   35.9160   28.9210   32.0870 C   0  0  0  0  0  0  0  0  0  0  0  0
   36.7010   29.3910   31.0890 N   0  0  0  0  0  0  0  0  0  0  0  0
   38.3040   29.0880   29.8140 H   0  0  0  0  0  0  0  0  0  0  0  0
   38.8050   26.9130   30.6920 H   0  0  0  0  0  0  0  0  0  0  0  0
   35.0950   29.5150   32.4750 H   0  0  0  0  0  0  0  0  0  0  0  0
   36.6810   22.0450   32.1420 C   0  0  0  0  0  0  0  0  0  0  0  0
   35.4070   21.4820   32.4000 C   0  0  0  0  0  0  0  0  0  0  0  0
   34.6760   21.9350   33.0490 H   0  0  0  0  0  0  0  0  0  0  0  0
   35.0720   20.3050   31.8020 C   0  0  0  0  0  3  0  0  0  0  0  0
   36.1330   19.7080   30.8980 C   0  0  0  0  0  3  0  0  0  0  0  0
   37.5160   20.9950   31.0560 S   0  0  0  0  0  0  0  0  0  0  0  0
   39.0250   24.2480   35.7430 C   0  0  0  0  0  0  0  0  0  0  0  0
   40.3390   24.5170   35.5350 F   0  0  0  0  0  0  0  0  0  0  0  0
   38.9610   23.0020   36.3440 F   0  0  0  0  0  0  0  0  0  0  0  0
   38.5230   25.2200   36.6190 F   0  0  0  0  0  0  0  0  0  0  0  0
  1  7  1  0  0  0  0
  2  3  2  0  0  0  0
  2  1  1  0  0  0  0
  3  4  1  0  0  0  0
  4  5  2  0  0  0  0
  4  6  1  0  0  0  0
  6 25  1  0  0  0  0
  7  8  2  0  0  0  0
  7  6  1  0  0  0  0
  9  2  1  0  0  0  0
 10 15  2  0  0  0  0
 10 11  1  0  0  0  0
 11 12  2  0  0  0  0
 12 13  1  0  0  0  0
 12  1  1  0  0  0  0
 14 18  1  0  0  0  0
 14 13  2  0  0  0  0
 15 14  1  0  0  0  0
 16 10  1  0  0  0  0
 17 11  1  0  0  0  0
 19 20  2  0  0  0  0
 19  3  1  0  0  0  0
 20 21  1  0  0  0  0
 22 20  1  0  0  0  0
 23 24  1  0  0  0  0
 23 22  2  0  0  0  0
 24 19  1  0  0  0  0
 25 27  1  0  0  0  0
 25 28  1  0  0  0  0
 26 25  1  0  0  0  0
M  END
>  <minimizedAffinity>
-5.10571146

$$$$
