
 OpenBabel03272502233D

 26 28  0  0  0  0  0  0  0  0999 V2000
   37.0250   29.7460   50.2160 C   0  0  0  0  0  0  0  0  0  0  0  0
   37.5550   30.4640   49.1400 C   0  0  0  0  0  0  0  0  0  0  0  0
   36.9770   30.3620   47.8900 C   0  0  0  0  0  0  0  0  0  0  0  0
   35.8960   29.5480   47.7730 N   0  0  0  0  0  0  0  0  0  0  0  0
   35.3990   28.8660   48.8150 C   0  0  0  0  0  0  0  0  0  0  0  0
   35.9670   28.9690   50.0320 N   0  0  0  0  0  0  0  0  0  0  0  0
   37.4520   29.8040   51.2010 H   0  0  0  0  0  0  0  0  0  0  0  0
   38.3990   31.0930   49.2550 H   0  0  0  0  0  0  0  0  0  0  0  0
   37.4500   31.0500   46.6970 C   0  0  0  0  0  0  0  0  0  0  0  0
   36.8130   30.9280   45.4880 C   0  0  0  0  0  0  0  0  0  0  0  0
   37.2610   31.5710   44.3440 C   0  0  0  0  0  0  0  0  0  0  0  0
   38.3670   32.3520   44.4090 N   0  0  0  0  0  0  0  0  0  0  0  0
   38.9720   32.4570   45.5990 C   0  0  0  0  0  0  0  0  0  0  0  0
   38.5490   31.8420   46.7110 N   0  0  0  0  0  0  0  0  0  0  0  0
   35.9260   30.3090   45.4020 H   0  0  0  0  0  0  0  0  0  0  0  0
   36.7570   31.4720   43.3920 H   0  0  0  0  0  0  0  0  0  0  0  0
   40.1900   33.3070   45.7120 C   0  0  0  0  0  0  0  0  0  0  0  0
   40.2240   33.8410   46.9800 F   0  0  0  0  0  0  0  0  0  0  0  0
   41.3430   32.5510   45.4370 F   0  0  0  0  0  0  0  0  0  0  0  0
   40.1660   34.3460   44.8340 F   0  0  0  0  0  0  0  0  0  0  0  0
   34.2070   28.0250   48.4910 C   0  0  0  0  0  0  0  0  0  0  0  0
   33.9480   26.9500   47.7680 C   0  0  0  0  0  0  0  0  0  0  0  0
   34.8320   26.5730   47.2770 H   0  0  0  0  0  0  0  0  0  0  0  0
   32.6690   26.4670   47.7260 C   0  0  0  0  0  3  0  0  0  0  0  0
   31.7030   27.1590   48.4680 C   0  0  0  0  0  3  0  0  0  0  0  0
   32.7440   28.5480   49.2310 S   0  0  0  0  0  0  0  0  0  0  0  0
  1  7  1  0  0  0  0
  2  8  1  0  0  0  0
  2  1  2  0  0  0  0
  3  2  1  0  0  0  0
  4  3  2  0  0  0  0
  4  5  1  0  0  0  0
  5  6  2  0  0  0  0
  6  1  1  0  0  0  0
  9 14  1  0  0  0  0
  9  3  1  0  0  0  0
 10  9  2  0  0  0  0
 11 12  2  0  0  0  0
 11 10  1  0  0  0  0
 12 13  1  0  0  0  0
 13 17  1  0  0  0  0
 13 14  2  0  0  0  0
 15 10  1  0  0  0  0
 16 11  1  0  0  0  0
 17 18  1  0  0  0  0
 19 17  1  0  0  0  0
 20 17  1  0  0  0  0
 21  5  1  0  0  0  0
 21 26  1  0  0  0  0
 22 21  2  0  0  0  0
 23 22  1  0  0  0  0
 24 22  1  0  0  0  0
 24 25  2  0  0  0  0
 25 26  1  0  0  0  0
M  END
>  <minimizedAffinity>
-5.60181808

>  <minimizedRMSD>
1.25183952

$$$$
