
 OpenBabel03272509463D

 22 23  0  0  0  0  0  0  0  0999 V2000
   34.0710   28.4940   48.6440 C   0  0  0  0  0  0  0  0  0  0  0  0
   33.1240   28.9900   48.9260 H   0  0  0  0  0  0  0  0  0  0  0  0
   34.6250   29.2020   47.9930 H   0  0  0  0  0  0  0  0  0  0  0  0
   33.8370   27.1660   47.9650 C   0  0  0  0  0  0  0  0  0  0  0  0
   33.0220   26.6760   48.5720 H   0  0  0  0  0  0  0  0  0  0  0  0
   34.6980   26.5040   47.9990 H   0  0  0  0  0  0  0  0  0  0  0  0
   33.3700   27.4280   46.5780 C   0  0  0  0  0  0  0  0  0  0  0  0
   33.8210   27.0580   45.3540 C   0  0  0  0  0  0  0  0  0  0  0  0
   34.7230   26.4330   45.3810 H   0  0  0  0  0  0  0  0  0  0  0  0
   33.1840   27.4490   44.2310 C   0  0  0  0  0  3  0  0  0  0  0  0
   32.0680   28.2320   44.4000 C   0  0  0  0  0  3  0  0  0  0  0  0
   31.9470   28.4030   46.2840 S   0  0  0  0  0  0  0  0  0  0  0  0
   34.7570   28.2830   49.8770 O   0  0  0  0  0  0  0  0  0  0  0  0
   37.3890   30.2710   51.3960 C   0  0  0  0  0  0  0  0  0  0  0  0
   38.0710   30.6940   50.2590 C   0  0  0  0  0  0  0  0  0  0  0  0
   37.5990   30.2780   49.0190 C   0  0  0  0  0  0  0  0  0  0  0  0
   36.4850   29.4750   49.0150 N   0  0  0  0  0  0  0  0  0  0  0  0
   35.8520   29.0880   50.1420 C   0  0  0  0  0  0  0  0  0  0  0  0
   36.3220   29.4980   51.3280 N   0  0  0  0  0  0  0  0  0  0  0  0
   37.7760   30.6090   52.3630 H   0  0  0  0  0  0  0  0  0  0  0  0
   38.9470   31.3250   50.2530 H   0  0  0  0  0  0  0  0  0  0  0  0
   38.0760   30.5650   48.0940 H   0  0  0  0  0  0  0  0  0  0  0  0
  1  2  1  0  0  0  0
  1 13  1  0  0  0  0
  3  1  1  0  0  0  0
  4  6  1  0  0  0  0
  4  5  1  0  0  0  0
  4  1  1  0  0  0  0
  7  4  1  0  0  0  0
  8  9  1  0  0  0  0
  8  7  2  0  0  0  0
 10 11  2  0  0  0  0
 10  8  1  0  0  0  0
 11 12  1  0  0  0  0
 12  7  1  0  0  0  0
 13 18  1  0  0  0  0
 14 20  1  0  0  0  0
 15 14  2  0  0  0  0
 16 15  1  0  0  0  0
 17 16  2  0  0  0  0
 17 18  1  0  0  0  0
 18 19  2  0  0  0  0
 19 14  1  0  0  0  0
 21 15  1  0  0  0  0
 22 16  1  0  0  0  0
M  END
>  <minimizedAffinity>
-3.66245914

>  <minimizedRMSD>
0.232654855

$$$$
