
 OpenBabel03272510343D

 25 27  0  0  0  0  0  0  0  0999 V2000
   33.8760   28.4540   46.2090 C   0  0  0  0  0  0  0  0  0  0  0  0
   32.9720   27.4790   45.8460 C   0  0  0  0  0  0  0  0  0  0  0  0
   32.4580   26.6020   46.7810 C   0  0  0  0  0  0  0  0  0  0  0  0
   32.8670   26.7210   48.0880 C   0  0  0  0  0  0  0  0  0  0  0  0
   33.7690   27.6870   48.4780 C   0  0  0  0  0  0  0  0  0  0  0  0
   34.2770   28.5580   47.5330 C   0  0  0  0  0  0  0  0  0  0  0  0
   32.6430   27.3800   44.8010 H   0  0  0  0  0  0  0  0  0  0  0  0
   31.7480   25.8340   46.4960 H   0  0  0  0  0  0  0  0  0  0  0  0
   32.5090   26.0720   48.8840 H   0  0  0  0  0  0  0  0  0  0  0  0
   34.1470   27.8500   49.4880 H   0  0  0  0  0  0  0  0  0  0  0  0
   35.9090   29.6270   43.4380 C   0  0  0  0  0  0  0  0  0  0  0  0
   35.3980   30.8880   43.1320 C   0  0  0  0  0  0  0  0  0  0  0  0
   34.3180   31.3340   43.9160 C   0  0  0  0  0  0  0  0  0  0  0  0
   33.8390   30.5360   44.9030 N   0  0  0  0  0  0  0  0  0  0  0  0
   34.3610   29.3310   45.1610 C   0  0  0  0  0  0  0  0  0  0  0  0
   35.4060   28.8770   44.4180 N   0  0  0  0  0  0  0  0  0  0  0  0
   36.7530   29.2740   42.8280 H   0  0  0  0  0  0  0  0  0  0  0  0
   35.8440   31.4620   42.3200 H   0  0  0  0  0  0  0  0  0  0  0  0
   33.9260   32.3090   43.6750 H   0  0  0  0  0  0  0  0  0  0  0  0
   35.2450   29.6100   47.8900 C   0  0  0  0  0  0  0  0  0  0  0  0
   35.1560   30.3810   49.0920 C   0  0  0  0  0  0  0  0  0  0  0  0
   34.3570   30.2140   49.7950 H   0  0  0  0  0  0  0  0  0  0  0  0
   36.1180   31.3280   49.3080 C   0  0  0  0  0  3  0  0  0  0  0  0
   37.1440   31.4960   48.3400 C   0  0  0  0  0  3  0  0  0  0  0  0
   36.7670   30.2770   47.0500 S   0  0  0  0  0  0  0  0  0  0  0  0
  1  6  1  0  0  0  0
  2  1  2  0  0  0  0
  2  3  1  0  0  0  0
  3  4  2  0  0  0  0
  4  5  1  0  0  0  0
  4  9  1  0  0  0  0
  5 10  1  0  0  0  0
  6 20  1  0  0  0  0
  6  5  2  0  0  0  0
  7  2  1  0  0  0  0
  8  3  1  0  0  0  0
 11 16  1  0  0  0  0
 12 11  2  0  0  0  0
 12 13  1  0  0  0  0
 13 14  2  0  0  0  0
 14 15  1  0  0  0  0
 15  1  1  0  0  0  0
 16 15  2  0  0  0  0
 17 11  1  0  0  0  0
 18 12  1  0  0  0  0
 19 13  1  0  0  0  0
 20 21  2  0  0  0  0
 21 23  1  0  0  0  0
 21 22  1  0  0  0  0
 24 23  2  0  0  0  0
 25 20  1  0  0  0  0
 25 24  1  0  0  0  0
M  END
>  <minimizedAffinity>
-3.04801297

>  <minimizedRMSD>
4.64112806

$$$$
