
 OpenBabel03272509443D

 35 37  0  0  1  0  0  0  0  0999 V2000
   36.5370   28.6510   32.4390 C   0  0  0  0  0  0  0  0  0  0  0  0
   36.0020   29.7460   31.7600 C   0  0  0  0  0  0  0  0  0  0  0  0
   35.2810   30.7340   32.4130 C   0  0  0  0  0  0  0  0  0  0  0  0
   35.0800   30.6370   33.7950 C   0  0  0  0  0  0  0  0  0  0  0  0
   35.6100   29.5590   34.4480 C   0  0  0  0  0  0  0  0  0  0  0  0
   36.3220   28.5930   33.7580 C   0  0  0  0  0  0  0  0  0  0  0  0
   36.1530   29.8300   30.6880 H   0  0  0  0  0  0  0  0  0  0  0  0
   34.9040   31.5390   31.8200 H   0  0  0  0  0  0  0  0  0  0  0  0
   34.5170   31.4410   34.2030 H   0  0  0  0  0  0  0  0  0  0  0  0
   35.3680   29.6250   35.5080 H   0  0  0  0  0  0  0  0  0  0  0  0
   37.2600   27.6040   31.7510 C   0  0  2  0  0  0  0  0  0  0  0  0
   37.1730   27.8660   30.6270 H   0  0  0  0  0  0  0  0  0  0  0  0
   36.9540   23.9820   31.7890 C   0  0  0  0  0  0  0  0  0  0  0  0
   35.6610   23.7510   31.3610 C   0  0  0  0  0  0  0  0  0  0  0  0
   34.8950   24.8390   30.9900 C   0  0  0  0  0  0  0  0  0  0  0  0
   35.4360   26.1050   31.0610 N   0  0  0  0  0  0  0  0  0  0  0  0
   36.6750   26.2600   31.4820 C   0  0  0  0  0  0  0  0  0  0  0  0
   37.4410   25.2070   31.8450 N   0  0  0  0  0  0  0  0  0  0  0  0
   37.5890   23.1480   32.0900 H   0  0  0  0  0  0  0  0  0  0  0  0
   35.3410   22.7200   31.3470 H   0  0  0  0  0  0  0  0  0  0  0  0
   33.8840   24.6570   30.6530 H   0  0  0  0  0  0  0  0  0  0  0  0
   38.5350   27.7440   31.8440 O   0  0  0  0  0  0  0  0  0  0  0  0
   39.0870   27.2850   32.4990 H   0  0  0  0  0  0  0  0  0  0  0  0
   36.7930   27.4920   34.5660 C   0  0  0  0  0  3  0  0  0  0  0  0
   37.8490   27.5610   35.3820 C   0  0  0  0  0  3  0  0  0  0  0  0
   38.3870   26.5190   36.2860 C   0  0  0  0  0  0  0  0  0  0  0  0
   37.8590   26.5460   37.2690 H   0  0  0  0  0  0  0  0  0  0  0  0
   39.4820   26.7020   36.4440 H   0  0  0  0  0  0  0  0  0  0  0  0
   38.2280   24.9070   35.5110 S   0  0  0  0  0  0  0  0  0  0  0  0
   39.6270   23.8880   35.9190 C   0  0  0  0  0  0  0  0  0  0  0  0
   39.5200   23.1610   37.1360 C   0  0  0  0  0  0  0  0  0  0  0  0
   38.7580   23.0850   37.8940 H   0  0  0  0  0  0  0  0  0  0  0  0
   40.4780   22.3330   37.6180 C   0  0  0  0  0  3  0  0  0  0  0  0
   41.6630   22.2170   36.8020 C   0  0  0  0  0  3  0  0  0  0  0  0
   41.3280   23.3550   35.3180 S   0  0  0  0  0  0  0  0  0  0  0  0
  1  6  1  0  0  0  0
  2  3  1  0  0  0  0
  2  1  2  0  0  0  0
  3  4  2  0  0  0  0
  4  9  1  0  0  0  0
  4  5  1  0  0  0  0
  5 10  1  0  0  0  0
  6  5  2  0  0  0  0
  6 24  1  0  0  0  0
  7  2  1  0  0  0  0
  8  3  1  0  0  0  0
 11 12  1  6  0  0  0
 11 22  1  0  0  0  0
 11  1  1  0  0  0  0
 13 18  1  0  0  0  0
 13 19  1  0  0  0  0
 14 13  2  0  0  0  0
 15 16  2  0  0  0  0
 15 14  1  0  0  0  0
 16 17  1  0  0  0  0
 17 11  1  0  0  0  0
 17 18  2  0  0  0  0
 20 14  1  0  0  0  0
 21 15  1  0  0  0  0
 22 23  1  0  0  0  0
 24 25  2  0  0  0  0
 25 26  1  0  0  0  0
 26 28  1  0  0  0  0
 26 27  1  0  0  0  0
 29 30  1  0  0  0  0
 29 26  1  0  0  0  0
 30 31  2  0  0  0  0
 31 33  1  0  0  0  0
 31 32  1  0  0  0  0
 34 33  2  0  0  0  0
 35 30  1  0  0  0  0
 35 34  1  0  0  0  0
M  END
>  <minimizedAffinity>
-5.50956583

$$$$

 OpenBabel03272509443D

 35 37  0  0  1  0  0  0  0  0999 V2000
   38.9490   26.9810   33.1570 C   0  0  0  0  0  0  0  0  0  0  0  0
   39.8340   27.2570   32.1140 C   0  0  0  0  0  0  0  0  0  0  0  0
   41.2040   27.3310   32.3140 C   0  0  0  0  0  0  0  0  0  0  0  0
   41.7240   27.1220   33.5970 C   0  0  0  0  0  0  0  0  0  0  0  0
   40.8450   26.8520   34.6090 C   0  0  0  0  0  0  0  0  0  0  0  0
   39.4840   26.7890   34.3680 C   0  0  0  0  0  0  0  0  0  0  0  0
   39.4410   27.4200   31.1150 H   0  0  0  0  0  0  0  0  0  0  0  0
   41.8130   27.5480   31.4620 H   0  0  0  0  0  0  0  0  0  0  0  0
   42.7820   27.1990   33.6480 H   0  0  0  0  0  0  0  0  0  0  0  0
   41.3970   26.7180   35.5390 H   0  0  0  0  0  0  0  0  0  0  0  0
   37.5180   26.9380   32.9540 C   0  0  2  0  0  0  0  0  0  0  0  0
   37.0710   26.7470   34.0040 H   0  0  0  0  0  0  0  0  0  0  0  0
   35.1810   24.9840   30.9710 C   0  0  0  0  0  0  0  0  0  0  0  0
   35.6000   23.6800   31.1480 C   0  0  0  0  0  0  0  0  0  0  0  0
   36.6570   23.4480   32.0070 C   0  0  0  0  0  0  0  0  0  0  0  0
   37.2550   24.5110   32.6490 N   0  0  0  0  0  0  0  0  0  0  0  0
   36.8110   25.7330   32.4350 C   0  0  0  0  0  0  0  0  0  0  0  0
   35.7750   25.9800   31.6010 N   0  0  0  0  0  0  0  0  0  0  0  0
   34.3490   25.2060   30.3000 H   0  0  0  0  0  0  0  0  0  0  0  0
   35.0610   22.9270   30.5930 H   0  0  0  0  0  0  0  0  0  0  0  0
   36.9830   22.4270   32.1460 H   0  0  0  0  0  0  0  0  0  0  0  0
   37.0110   28.1070   32.7810 O   0  0  0  0  0  0  0  0  0  0  0  0
   36.8230   28.4950   31.9090 H   0  0  0  0  0  0  0  0  0  0  0  0
   38.6710   26.5330   35.5350 C   0  0  0  0  0  3  0  0  0  0  0  0
   38.5510   25.3350   36.1140 C   0  0  0  0  0  3  0  0  0  0  0  0
   37.7920   24.9690   37.3320 C   0  0  0  0  0  0  0  0  0  0  0  0
   36.6960   24.9720   37.1230 H   0  0  0  0  0  0  0  0  0  0  0  0
   38.0210   25.7110   38.1410 H   0  0  0  0  0  0  0  0  0  0  0  0
   38.3330   23.3620   37.9200 S   0  0  0  0  0  0  0  0  0  0  0  0
   39.6050   22.7150   36.8580 C   0  0  0  0  0  0  0  0  0  0  0  0
   40.7830   22.2710   37.5170 C   0  0  0  0  0  0  0  0  0  0  0  0
   41.0920   22.2350   38.5490 H   0  0  0  0  0  0  0  0  0  0  0  0
   41.8620   21.7490   36.8840 C   0  0  0  0  0  3  0  0  0  0  0  0
   41.7520   21.6590   35.4470 C   0  0  0  0  0  3  0  0  0  0  0  0
   40.0300   22.3630   35.0600 S   0  0  0  0  0  0  0  0  0  0  0  0
  1  6  1  0  0  0  0
  2  3  1  0  0  0  0
  2  1  2  0  0  0  0
  3  4  2  0  0  0  0
  4  9  1  0  0  0  0
  4  5  1  0  0  0  0
  5 10  1  0  0  0  0
  6  5  2  0  0  0  0
  6 24  1  0  0  0  0
  7  2  1  0  0  0  0
  8  3  1  0  0  0  0
 11  1  1  0  0  0  0
 11 12  1  1  0  0  0
 13 14  2  0  0  0  0
 13 18  1  0  0  0  0
 14 15  1  0  0  0  0
 15 21  1  0  0  0  0
 15 16  2  0  0  0  0
 17 16  1  0  0  0  0
 17 11  1  0  0  0  0
 18 17  2  0  0  0  0
 19 13  1  0  0  0  0
 20 14  1  0  0  0  0
 22 11  1  0  0  0  0
 23 22  1  0  0  0  0
 24 25  2  0  0  0  0
 25 26  1  0  0  0  0
 26 29  1  0  0  0  0
 26 28  1  0  0  0  0
 27 26  1  0  0  0  0
 30 31  2  0  0  0  0
 30 29  1  0  0  0  0
 31 32  1  0  0  0  0
 33 31  1  0  0  0  0
 34 33  2  0  0  0  0
 35 34  1  0  0  0  0
 35 30  1  0  0  0  0
M  END
>  <minimizedAffinity>
-5.49110937

$$$$

 OpenBabel03272509443D

 35 37  0  0  1  0  0  0  0  0999 V2000
   37.4880   21.8130   33.4000 C   0  0  0  0  0  0  0  0  0  0  0  0
   36.4910   20.8550   33.5910 C   0  0  0  0  0  0  0  0  0  0  0  0
   35.3380   20.8330   32.8220 C   0  0  0  0  0  0  0  0  0  0  0  0
   35.1600   21.7960   31.8220 C   0  0  0  0  0  0  0  0  0  0  0  0
   36.1440   22.7280   31.6460 C   0  0  0  0  0  0  0  0  0  0  0  0
   37.2810   22.7170   32.4360 C   0  0  0  0  0  0  0  0  0  0  0  0
   36.6210   20.1040   34.3640 H   0  0  0  0  0  0  0  0  0  0  0  0
   34.6230   20.0660   33.0330 H   0  0  0  0  0  0  0  0  0  0  0  0
   34.2470   21.6950   31.2890 H   0  0  0  0  0  0  0  0  0  0  0  0
   35.8610   23.4030   30.8390 H   0  0  0  0  0  0  0  0  0  0  0  0
   38.6750   21.8560   34.2250 C   0  0  2  0  0  0  0  0  0  0  0  0
   38.8050   20.7770   34.6230 H   0  0  0  0  0  0  0  0  0  0  0  0
   39.9440   22.6580   37.5360 C   0  0  0  0  0  0  0  0  0  0  0  0
   38.9760   23.4840   38.0740 C   0  0  0  0  0  0  0  0  0  0  0  0
   37.8390   23.7260   37.3270 C   0  0  0  0  0  0  0  0  0  0  0  0
   37.7090   23.1460   36.0840 N   0  0  0  0  0  0  0  0  0  0  0  0
   38.6690   22.3700   35.6240 C   0  0  0  0  0  0  0  0  0  0  0  0
   39.7880   22.1180   36.3420 N   0  0  0  0  0  0  0  0  0  0  0  0
   40.8550   22.4440   38.0960 H   0  0  0  0  0  0  0  0  0  0  0  0
   39.1840   23.8860   39.0540 H   0  0  0  0  0  0  0  0  0  0  0  0
   37.0820   24.3710   37.7500 H   0  0  0  0  0  0  0  0  0  0  0  0
   39.7560   21.8950   33.5290 O   0  0  0  0  0  0  0  0  0  0  0  0
   40.2360   22.7130   33.3160 H   0  0  0  0  0  0  0  0  0  0  0  0
   38.2200   23.7810   32.1650 C   0  0  0  0  0  3  0  0  0  0  0  0
   38.1010   24.6420   31.1510 C   0  0  0  0  0  3  0  0  0  0  0  0
   38.9700   25.7930   30.8090 C   0  0  0  0  0  0  0  0  0  0  0  0
   39.1230   25.8500   29.7050 H   0  0  0  0  0  0  0  0  0  0  0  0
   39.9610   25.6650   31.3190 H   0  0  0  0  0  0  0  0  0  0  0  0
   38.2420   27.3070   31.4410 S   0  0  0  0  0  0  0  0  0  0  0  0
   38.2070   27.2760   33.2190 C   0  0  0  0  0  0  0  0  0  0  0  0
   39.4310   26.9220   33.8490 C   0  0  0  0  0  0  0  0  0  0  0  0
   40.4090   26.6590   33.4810 H   0  0  0  0  0  0  0  0  0  0  0  0
   39.6050   26.8420   35.1900 C   0  0  0  0  0  3  0  0  0  0  0  0
   38.4390   27.1500   35.9850 C   0  0  0  0  0  3  0  0  0  0  0  0
   37.0910   27.5530   34.7090 S   0  0  0  0  0  0  0  0  0  0  0  0
  1  2  1  0  0  0  0
  1 11  1  0  0  0  0
  2  7  1  0  0  0  0
  3  8  1  0  0  0  0
  3  2  2  0  0  0  0
  4  3  1  0  0  0  0
  5  4  2  0  0  0  0
  5  6  1  0  0  0  0
  6  1  2  0  0  0  0
  9  4  1  0  0  0  0
 10  5  1  0  0  0  0
 11 12  1  1  0  0  0
 11 17  1  0  0  0  0
 13 14  1  0  0  0  0
 13 19  1  0  0  0  0
 14 20  1  0  0  0  0
 15 21  1  0  0  0  0
 15 14  2  0  0  0  0
 16 15  1  0  0  0  0
 17 16  2  0  0  0  0
 17 18  1  0  0  0  0
 18 13  2  0  0  0  0
 22 11  1  0  0  0  0
 23 22  1  0  0  0  0
 24  6  1  0  0  0  0
 25 24  2  0  0  0  0
 26 25  1  0  0  0  0
 26 28  1  0  0  0  0
 26 29  1  0  0  0  0
 27 26  1  0  0  0  0
 29 30  1  0  0  0  0
 30 31  2  0  0  0  0
 30 35  1  0  0  0  0
 31 33  1  0  0  0  0
 32 31  1  0  0  0  0
 33 34  2  0  0  0  0
 35 34  1  0  0  0  0
M  END
>  <minimizedAffinity>
-5.29296398

$$$$

 OpenBabel03272509443D

 35 37  0  0  1  0  0  0  0  0999 V2000
   36.5990   27.4890   32.1730 C   0  0  0  0  0  0  0  0  0  0  0  0
   35.5310   28.3550   31.9380 C   0  0  0  0  0  0  0  0  0  0  0  0
   35.0190   29.1760   32.9310 C   0  0  0  0  0  0  0  0  0  0  0  0
   35.5850   29.1410   34.2110 C   0  0  0  0  0  0  0  0  0  0  0  0
   36.6310   28.2870   34.4270 C   0  0  0  0  0  0  0  0  0  0  0  0
   37.1110   27.4830   33.4090 C   0  0  0  0  0  0  0  0  0  0  0  0
   35.0850   28.3900   30.9480 H   0  0  0  0  0  0  0  0  0  0  0  0
   34.1990   29.8100   32.6690 H   0  0  0  0  0  0  0  0  0  0  0  0
   35.1250   29.8050   34.9010 H   0  0  0  0  0  0  0  0  0  0  0  0
   36.9580   28.3730   35.4630 H   0  0  0  0  0  0  0  0  0  0  0  0
   37.1100   26.6080   31.1460 C   0  0  2  0  0  0  0  0  0  0  0  0
   36.3060   26.6200   30.3130 H   0  0  0  0  0  0  0  0  0  0  0  0
   35.5400   23.3470   31.4780 C   0  0  0  0  0  0  0  0  0  0  0  0
   36.5340   22.4590   31.1160 C   0  0  0  0  0  0  0  0  0  0  0  0
   37.7820   22.9670   30.8130 C   0  0  0  0  0  0  0  0  0  0  0  0
   37.9930   24.3280   30.8770 N   0  0  0  0  0  0  0  0  0  0  0  0
   37.0030   25.1240   31.2270 C   0  0  0  0  0  0  0  0  0  0  0  0
   35.7750   24.6440   31.5300 N   0  0  0  0  0  0  0  0  0  0  0  0
   34.5420   22.9810   31.7250 H   0  0  0  0  0  0  0  0  0  0  0  0
   36.2570   21.4150   31.0970 H   0  0  0  0  0  0  0  0  0  0  0  0
   38.5600   22.2710   30.5320 H   0  0  0  0  0  0  0  0  0  0  0  0
   38.0520   27.1500   30.4590 O   0  0  0  0  0  0  0  0  0  0  0  0
   38.9990   27.0110   30.6300 H   0  0  0  0  0  0  0  0  0  0  0  0
   38.1940   26.6040   33.7880 C   0  0  0  0  0  3  0  0  0  0  0  0
   39.4100   27.0270   34.1450 C   0  0  0  0  0  3  0  0  0  0  0  0
   40.5710   26.2250   34.5960 C   0  0  0  0  0  0  0  0  0  0  0  0
   40.8750   26.5260   35.6260 H   0  0  0  0  0  0  0  0  0  0  0  0
   41.4260   26.3920   33.8890 H   0  0  0  0  0  0  0  0  0  0  0  0
   40.1610   24.4790   34.5270 S   0  0  0  0  0  0  0  0  0  0  0  0
   39.6300   23.9090   36.1260 C   0  0  0  0  0  0  0  0  0  0  0  0
   38.4470   24.5140   36.6290 C   0  0  0  0  0  0  0  0  0  0  0  0
   37.7740   25.2650   36.2480 H   0  0  0  0  0  0  0  0  0  0  0  0
   37.8840   24.2150   37.8250 C   0  0  0  0  0  3  0  0  0  0  0  0
   38.5730   23.2090   38.5980 C   0  0  0  0  0  3  0  0  0  0  0  0
   40.0600   22.7210   37.5210 S   0  0  0  0  0  0  0  0  0  0  0  0
  1  6  1  0  0  0  0
  2  1  2  0  0  0  0
  2  3  1  0  0  0  0
  3  4  2  0  0  0  0
  4  5  1  0  0  0  0
  4  9  1  0  0  0  0
  5 10  1  0  0  0  0
  6 24  1  0  0  0  0
  6  5  2  0  0  0  0
  7  2  1  0  0  0  0
  8  3  1  0  0  0  0
 11 12  1  6  0  0  0
 11 17  1  0  0  0  0
 11  1  1  0  0  0  0
 13 18  1  0  0  0  0
 13 19  1  0  0  0  0
 14 13  2  0  0  0  0
 15 16  2  0  0  0  0
 15 14  1  0  0  0  0
 16 17  1  0  0  0  0
 17 18  2  0  0  0  0
 20 14  1  0  0  0  0
 21 15  1  0  0  0  0
 22 23  1  0  0  0  0
 22 11  1  0  0  0  0
 24 25  2  0  0  0  0
 25 26  1  0  0  0  0
 26 27  1  0  0  0  0
 28 26  1  0  0  0  0
 29 26  1  0  0  0  0
 29 30  1  0  0  0  0
 30 31  2  0  0  0  0
 30 35  1  0  0  0  0
 31 33  1  0  0  0  0
 32 31  1  0  0  0  0
 33 34  2  0  0  0  0
 35 34  1  0  0  0  0
M  END
>  <minimizedAffinity>
-5.29073143

$$$$

 OpenBabel03272509443D

 35 37  0  0  1  0  0  0  0  0999 V2000
   36.4770   28.1920   31.9420 C   0  0  0  0  0  0  0  0  0  0  0  0
   35.5600   29.2430   31.9670 C   0  0  0  0  0  0  0  0  0  0  0  0
   35.1210   29.8050   33.1570 C   0  0  0  0  0  0  0  0  0  0  0  0
   35.6080   29.3090   34.3720 C   0  0  0  0  0  0  0  0  0  0  0  0
   36.5060   28.2790   34.3320 C   0  0  0  0  0  0  0  0  0  0  0  0
   36.9170   27.7450   33.1230 C   0  0  0  0  0  0  0  0  0  0  0  0
   35.1770   29.6340   31.0300 H   0  0  0  0  0  0  0  0  0  0  0  0
   34.4160   30.6060   33.0890 H   0  0  0  0  0  0  0  0  0  0  0  0
   35.2120   29.8050   35.2250 H   0  0  0  0  0  0  0  0  0  0  0  0
   36.7860   28.0060   35.3490 H   0  0  0  0  0  0  0  0  0  0  0  0
   36.9080   27.5830   30.7030 C   0  0  2  0  0  0  0  0  0  0  0  0
   37.6350   26.7400   31.0180 H   0  0  0  0  0  0  0  0  0  0  0  0
   38.3790   29.5340   28.0110 C   0  0  0  0  0  0  0  0  0  0  0  0
   39.7240   29.5750   28.3240 C   0  0  0  0  0  0  0  0  0  0  0  0
   40.1550   28.8750   29.4340 C   0  0  0  0  0  0  0  0  0  0  0  0
   39.2410   28.1700   30.1880 N   0  0  0  0  0  0  0  0  0  0  0  0
   37.9710   28.1730   29.8390 C   0  0  0  0  0  0  0  0  0  0  0  0
   37.5300   28.8490   28.7540 N   0  0  0  0  0  0  0  0  0  0  0  0
   38.0020   30.0740   27.1410 H   0  0  0  0  0  0  0  0  0  0  0  0
   40.3490   30.1600   27.6660 H   0  0  0  0  0  0  0  0  0  0  0  0
   41.2080   28.9060   29.6770 H   0  0  0  0  0  0  0  0  0  0  0  0
   36.0060   26.8260   30.1870 O   0  0  0  0  0  0  0  0  0  0  0  0
   35.3930   27.1080   29.4880 H   0  0  0  0  0  0  0  0  0  0  0  0
   37.8390   26.6380   33.2310 C   0  0  0  0  0  3  0  0  0  0  0  0
   39.1080   26.7580   33.6350 C   0  0  0  0  0  3  0  0  0  0  0  0
   40.1200   25.6930   33.8280 C   0  0  0  0  0  0  0  0  0  0  0  0
   40.7870   25.9420   34.6880 H   0  0  0  0  0  0  0  0  0  0  0  0
   40.7330   25.5980   32.8940 H   0  0  0  0  0  0  0  0  0  0  0  0
   39.2970   24.1190   34.0840 S   0  0  0  0  0  0  0  0  0  0  0  0
   39.1780   23.7620   35.8230 C   0  0  0  0  0  0  0  0  0  0  0  0
   38.1660   24.4710   36.5240 C   0  0  0  0  0  0  0  0  0  0  0  0
   37.4280   25.2000   36.2320 H   0  0  0  0  0  0  0  0  0  0  0  0
   37.9190   24.3390   37.8500 C   0  0  0  0  0  3  0  0  0  0  0  0
   38.7680   23.4010   38.5460 C   0  0  0  0  0  3  0  0  0  0  0  0
   39.9320   22.7300   37.2040 S   0  0  0  0  0  0  0  0  0  0  0  0
  1  2  2  0  0  0  0
  1  6  1  0  0  0  0
  2  3  1  0  0  0  0
  3  4  2  0  0  0  0
  4  9  1  0  0  0  0
  5  4  1  0  0  0  0
  5 10  1  0  0  0  0
  6 24  1  0  0  0  0
  6  5  2  0  0  0  0
  7  2  1  0  0  0  0
  8  3  1  0  0  0  0
 11 12  1  1  0  0  0
 11  1  1  0  0  0  0
 13 14  2  0  0  0  0
 13 18  1  0  0  0  0
 14 15  1  0  0  0  0
 15 21  1  0  0  0  0
 15 16  2  0  0  0  0
 17 16  1  0  0  0  0
 17 11  1  0  0  0  0
 18 17  2  0  0  0  0
 19 13  1  0  0  0  0
 20 14  1  0  0  0  0
 22 11  1  0  0  0  0
 23 22  1  0  0  0  0
 24 25  2  0  0  0  0
 25 26  1  0  0  0  0
 26 29  1  0  0  0  0
 26 27  1  0  0  0  0
 28 26  1  0  0  0  0
 29 30  1  0  0  0  0
 30 31  2  0  0  0  0
 30 35  1  0  0  0  0
 31 33  1  0  0  0  0
 32 31  1  0  0  0  0
 33 34  2  0  0  0  0
 35 34  1  0  0  0  0
M  END
>  <minimizedAffinity>
-5.27248812

$$$$

 OpenBabel03272509443D

 35 37  0  0  1  0  0  0  0  0999 V2000
   38.3140   27.0850   34.3150 C   0  0  0  0  0  0  0  0  0  0  0  0
   37.0560   27.5790   33.9670 C   0  0  0  0  0  0  0  0  0  0  0  0
   36.7590   27.9850   32.6750 C   0  0  0  0  0  0  0  0  0  0  0  0
   37.7440   27.8980   31.6840 C   0  0  0  0  0  0  0  0  0  0  0  0
   38.9720   27.4120   32.0390 C   0  0  0  0  0  0  0  0  0  0  0  0
   39.2290   27.0190   33.3410 C   0  0  0  0  0  0  0  0  0  0  0  0
   36.2860   27.6490   34.7280 H   0  0  0  0  0  0  0  0  0  0  0  0
   35.7720   28.3530   32.4910 H   0  0  0  0  0  0  0  0  0  0  0  0
   37.4200   28.2320   30.7290 H   0  0  0  0  0  0  0  0  0  0  0  0
   39.6240   27.4090   31.1660 H   0  0  0  0  0  0  0  0  0  0  0  0
   38.6340   26.6940   35.6700 C   0  0  2  0  0  0  0  0  0  0  0  0
   39.7720   26.4850   35.6630 H   0  0  0  0  0  0  0  0  0  0  0  0
   37.7990   24.0920   38.0670 C   0  0  0  0  0  0  0  0  0  0  0  0
   37.6170   22.9650   37.2890 C   0  0  0  0  0  0  0  0  0  0  0  0
   37.8420   23.0710   35.9300 C   0  0  0  0  0  0  0  0  0  0  0  0
   38.2340   24.2810   35.4000 N   0  0  0  0  0  0  0  0  0  0  0  0
   38.3870   25.3200   36.1950 C   0  0  0  0  0  0  0  0  0  0  0  0
   38.1740   25.2360   37.5280 N   0  0  0  0  0  0  0  0  0  0  0  0
   37.6300   24.0460   39.1440 H   0  0  0  0  0  0  0  0  0  0  0  0
   37.3070   22.0710   37.8090 H   0  0  0  0  0  0  0  0  0  0  0  0
   37.7010   22.1880   35.3220 H   0  0  0  0  0  0  0  0  0  0  0  0
   38.6650   27.6950   36.4760 O   0  0  0  0  0  0  0  0  0  0  0  0
   37.9230   27.9600   37.0450 H   0  0  0  0  0  0  0  0  0  0  0  0
   40.5770   26.5600   33.5820 C   0  0  0  0  0  3  0  0  0  0  0  0
   41.0450   25.3730   33.1860 C   0  0  0  0  0  3  0  0  0  0  0  0
   42.4130   24.8230   33.3340 C   0  0  0  0  0  0  0  0  0  0  0  0
   43.1270   25.3730   32.6760 H   0  0  0  0  0  0  0  0  0  0  0  0
   42.4020   23.7380   33.0510 H   0  0  0  0  0  0  0  0  0  0  0  0
   42.9160   24.9160   35.0550 S   0  0  0  0  0  0  0  0  0  0  0  0
   42.7430   23.3260   35.8330 C   0  0  0  0  0  0  0  0  0  0  0  0
   41.5430   23.1330   36.5680 C   0  0  0  0  0  0  0  0  0  0  0  0
   40.6840   23.7520   36.7690 H   0  0  0  0  0  0  0  0  0  0  0  0
   41.2260   21.9940   37.2310 C   0  0  0  0  0  3  0  0  0  0  0  0
   42.2080   20.9380   37.1480 C   0  0  0  0  0  3  0  0  0  0  0  0
   43.5980   21.6680   36.0790 S   0  0  0  0  0  0  0  0  0  0  0  0
  1 11  1  0  0  0  0
  2  1  1  0  0  0  0
  2  7  1  0  0  0  0
  3  2  2  0  0  0  0
  4  5  2  0  0  0  0
  4  3  1  0  0  0  0
  5  6  1  0  0  0  0
  6 24  1  0  0  0  0
  6  1  2  0  0  0  0
  8  3  1  0  0  0  0
  9  4  1  0  0  0  0
 10  5  1  0  0  0  0
 11 12  1  6  0  0  0
 11 17  1  0  0  0  0
 11 22  1  0  0  0  0
 13 19  1  0  0  0  0
 14 20  1  0  0  0  0
 14 13  2  0  0  0  0
 15 14  1  0  0  0  0
 16 15  2  0  0  0  0
 16 17  1  0  0  0  0
 17 18  2  0  0  0  0
 18 13  1  0  0  0  0
 21 15  1  0  0  0  0
 22 23  1  0  0  0  0
 25 26  1  0  0  0  0
 25 24  2  0  0  0  0
 26 29  1  0  0  0  0
 27 26  1  0  0  0  0
 28 26  1  0  0  0  0
 29 30  1  0  0  0  0
 30 35  1  0  0  0  0
 30 31  2  0  0  0  0
 31 32  1  0  0  0  0
 31 33  1  0  0  0  0
 34 33  2  0  0  0  0
 35 34  1  0  0  0  0
M  END
>  <minimizedAffinity>
-5.27214003

$$$$

 OpenBabel03272509443D

 35 37  0  0  1  0  0  0  0  0999 V2000
   37.4970   27.5320   34.3310 C   0  0  0  0  0  0  0  0  0  0  0  0
   36.4210   28.2810   34.8090 C   0  0  0  0  0  0  0  0  0  0  0  0
   35.6180   29.0340   33.9650 C   0  0  0  0  0  0  0  0  0  0  0  0
   35.8880   29.0480   32.5920 C   0  0  0  0  0  0  0  0  0  0  0  0
   36.9460   28.3100   32.1380 C   0  0  0  0  0  0  0  0  0  0  0  0
   37.7240   27.5730   33.0140 C   0  0  0  0  0  0  0  0  0  0  0  0
   36.2030   28.2760   35.8730 H   0  0  0  0  0  0  0  0  0  0  0  0
   34.8150   29.5800   34.4120 H   0  0  0  0  0  0  0  0  0  0  0  0
   35.2190   29.6520   32.0310 H   0  0  0  0  0  0  0  0  0  0  0  0
   37.0270   28.4240   31.0570 H   0  0  0  0  0  0  0  0  0  0  0  0
   38.3540   26.7740   35.2160 C   0  0  2  0  0  0  0  0  0  0  0  0
   39.2360   26.4240   34.5540 H   0  0  0  0  0  0  0  0  0  0  0  0
   38.1140   23.1660   34.8550 C   0  0  0  0  0  0  0  0  0  0  0  0
   37.9190   22.7120   36.1450 C   0  0  0  0  0  0  0  0  0  0  0  0
   37.8020   23.6500   37.1530 C   0  0  0  0  0  0  0  0  0  0  0  0
   37.8870   24.9910   36.8450 N   0  0  0  0  0  0  0  0  0  0  0  0
   38.0770   25.3600   35.5940 C   0  0  0  0  0  0  0  0  0  0  0  0
   38.1900   24.4560   34.5940 N   0  0  0  0  0  0  0  0  0  0  0  0
   38.2100   22.4540   34.0330 H   0  0  0  0  0  0  0  0  0  0  0  0
   37.8700   21.6410   36.2720 H   0  0  0  0  0  0  0  0  0  0  0  0
   37.6470   23.2940   38.1620 H   0  0  0  0  0  0  0  0  0  0  0  0
   39.0400   27.5280   36.0000 O   0  0  0  0  0  0  0  0  0  0  0  0
   38.7840   27.7390   36.9140 H   0  0  0  0  0  0  0  0  0  0  0  0
   38.8280   26.8710   32.4020 C   0  0  0  0  0  3  0  0  0  0  0  0
   38.8600   26.5010   31.1180 C   0  0  0  0  0  3  0  0  0  0  0  0
   39.9520   25.8260   30.3780 C   0  0  0  0  0  0  0  0  0  0  0  0
   40.7900   25.5700   31.0690 H   0  0  0  0  0  0  0  0  0  0  0  0
   40.3270   26.5130   29.5740 H   0  0  0  0  0  0  0  0  0  0  0  0
   39.3120   24.3600   29.5650 S   0  0  0  0  0  0  0  0  0  0  0  0
   37.9120   23.7230   30.4600 C   0  0  0  0  0  0  0  0  0  0  0  0
   38.0270   22.3750   30.8950 C   0  0  0  0  0  0  0  0  0  0  0  0
   38.7960   21.6250   30.8040 H   0  0  0  0  0  0  0  0  0  0  0  0
   37.0700   21.7120   31.5880 C   0  0  0  0  0  3  0  0  0  0  0  0
   35.8770   22.4730   31.8780 C   0  0  0  0  0  3  0  0  0  0  0  0
   36.2040   24.1770   31.1040 S   0  0  0  0  0  0  0  0  0  0  0  0
  1  2  1  0  0  0  0
  1 11  1  0  0  0  0
  2  7  1  0  0  0  0
  3  8  1  0  0  0  0
  3  2  2  0  0  0  0
  4  3  1  0  0  0  0
  5  4  2  0  0  0  0
  5  6  1  0  0  0  0
  6  1  2  0  0  0  0
  9  4  1  0  0  0  0
 10  5  1  0  0  0  0
 11 12  1  6  0  0  0
 11 17  1  0  0  0  0
 11 22  1  0  0  0  0
 13 14  1  0  0  0  0
 14 20  1  0  0  0  0
 14 15  2  0  0  0  0
 15 21  1  0  0  0  0
 16 15  1  0  0  0  0
 17 16  2  0  0  0  0
 18 13  2  0  0  0  0
 18 17  1  0  0  0  0
 19 13  1  0  0  0  0
 22 23  1  0  0  0  0
 24  6  1  0  0  0  0
 25 24  2  0  0  0  0
 26 27  1  0  0  0  0
 26 25  1  0  0  0  0
 28 26  1  0  0  0  0
 29 26  1  0  0  0  0
 29 30  1  0  0  0  0
 30 31  2  0  0  0  0
 30 35  1  0  0  0  0
 31 33  1  0  0  0  0
 32 31  1  0  0  0  0
 33 34  2  0  0  0  0
 35 34  1  0  0  0  0
M  END
>  <minimizedAffinity>
-5.19476891

$$$$

 OpenBabel03272509443D

 35 37  0  0  1  0  0  0  0  0999 V2000
   35.7970   29.3460   33.0490 C   0  0  0  0  0  0  0  0  0  0  0  0
   35.7280   29.9400   31.7880 C   0  0  0  0  0  0  0  0  0  0  0  0
   36.4690   29.4690   30.7140 C   0  0  0  0  0  0  0  0  0  0  0  0
   37.3130   28.3670   30.8910 C   0  0  0  0  0  0  0  0  0  0  0  0
   37.3710   27.7950   32.1320 C   0  0  0  0  0  0  0  0  0  0  0  0
   36.6160   28.2960   33.1780 C   0  0  0  0  0  0  0  0  0  0  0  0
   35.0760   30.7950   31.6400 H   0  0  0  0  0  0  0  0  0  0  0  0
   36.3590   29.9810   29.7810 H   0  0  0  0  0  0  0  0  0  0  0  0
   37.8360   28.0830   30.0110 H   0  0  0  0  0  0  0  0  0  0  0  0
   38.0670   26.9570   32.1100 H   0  0  0  0  0  0  0  0  0  0  0  0
   35.0510   29.8580   34.1770 C   0  0  2  0  0  0  0  0  0  0  0  0
   35.0630   29.0040   34.9580 H   0  0  0  0  0  0  0  0  0  0  0  0
   31.7060   31.0210   34.9950 C   0  0  0  0  0  0  0  0  0  0  0  0
   30.8810   30.2620   34.1890 C   0  0  0  0  0  0  0  0  0  0  0  0
   31.4610   29.2900   33.3960 C   0  0  0  0  0  0  0  0  0  0  0  0
   32.8270   29.1140   33.4320 N   0  0  0  0  0  0  0  0  0  0  0  0
   33.5610   29.8730   34.2200 C   0  0  0  0  0  0  0  0  0  0  0  0
   33.0110   30.8260   35.0060 N   0  0  0  0  0  0  0  0  0  0  0  0
   31.2830   31.7970   35.6350 H   0  0  0  0  0  0  0  0  0  0  0  0
   29.8260   30.4870   34.2400 H   0  0  0  0  0  0  0  0  0  0  0  0
   30.8140   28.6950   32.7670 H   0  0  0  0  0  0  0  0  0  0  0  0
   35.7240   30.7090   34.8660 O   0  0  0  0  0  0  0  0  0  0  0  0
   35.6520   31.6730   34.7620 H   0  0  0  0  0  0  0  0  0  0  0  0
   36.8040   27.6190   34.4410 C   0  0  0  0  0  3  0  0  0  0  0  0
   37.9950   27.2580   34.9270 C   0  0  0  0  0  3  0  0  0  0  0  0
   38.3060   26.6080   36.2210 C   0  0  0  0  0  0  0  0  0  0  0  0
   37.7200   27.0800   37.0450 H   0  0  0  0  0  0  0  0  0  0  0  0
   39.4030   26.7190   36.4310 H   0  0  0  0  0  0  0  0  0  0  0  0
   37.9650   24.8500   36.1090 S   0  0  0  0  0  0  0  0  0  0  0  0
   39.4810   23.9230   36.1940 C   0  0  0  0  0  0  0  0  0  0  0  0
   39.5760   23.0030   37.2730 C   0  0  0  0  0  0  0  0  0  0  0  0
   38.9150   22.7300   38.0800 H   0  0  0  0  0  0  0  0  0  0  0  0
   40.6480   22.2080   37.5080 C   0  0  0  0  0  3  0  0  0  0  0  0
   41.7360   22.3440   36.5690 C   0  0  0  0  0  3  0  0  0  0  0  0
   41.1390   23.6660   35.3420 S   0  0  0  0  0  0  0  0  0  0  0  0
  1  6  1  0  0  0  0
  1 11  1  0  0  0  0
  2  1  2  0  0  0  0
  3  4  2  0  0  0  0
  3  2  1  0  0  0  0
  4  5  1  0  0  0  0
  5  6  2  0  0  0  0
  6 24  1  0  0  0  0
  7  2  1  0  0  0  0
  8  3  1  0  0  0  0
  9  4  1  0  0  0  0
 10  5  1  0  0  0  0
 11 17  1  0  0  0  0
 11 22  1  0  0  0  0
 11 12  1  1  0  0  0
 13 18  1  0  0  0  0
 13 19  1  0  0  0  0
 14 20  1  0  0  0  0
 14 13  2  0  0  0  0
 15 16  2  0  0  0  0
 15 14  1  0  0  0  0
 16 17  1  0  0  0  0
 17 18  2  0  0  0  0
 21 15  1  0  0  0  0
 23 22  1  0  0  0  0
 24 25  2  0  0  0  0
 25 26  1  0  0  0  0
 26 28  1  0  0  0  0
 26 27  1  0  0  0  0
 29 30  1  0  0  0  0
 29 26  1  0  0  0  0
 30 31  2  0  0  0  0
 31 33  1  0  0  0  0
 31 32  1  0  0  0  0
 34 33  2  0  0  0  0
 35 30  1  0  0  0  0
 35 34  1  0  0  0  0
M  END
>  <minimizedAffinity>
-5.16174841

$$$$

 OpenBabel03272509443D

 35 37  0  0  1  0  0  0  0  0999 V2000
   36.4870   26.1640   31.1280 C   0  0  0  0  0  0  0  0  0  0  0  0
   35.3210   25.4140   30.9650 C   0  0  0  0  0  0  0  0  0  0  0  0
   35.2980   24.0420   31.1650 C   0  0  0  0  0  0  0  0  0  0  0  0
   36.4730   23.3820   31.5430 C   0  0  0  0  0  0  0  0  0  0  0  0
   37.6070   24.1290   31.6990 C   0  0  0  0  0  0  0  0  0  0  0  0
   37.5890   25.4970   31.4870 C   0  0  0  0  0  0  0  0  0  0  0  0
   34.4050   25.9160   30.6730 H   0  0  0  0  0  0  0  0  0  0  0  0
   34.3640   23.5410   31.0180 H   0  0  0  0  0  0  0  0  0  0  0  0
   36.3530   22.3340   31.6720 H   0  0  0  0  0  0  0  0  0  0  0  0
   38.4310   23.4780   31.9900 H   0  0  0  0  0  0  0  0  0  0  0  0
   36.5180   27.5890   30.8860 C   0  0  2  0  0  0  0  0  0  0  0  0
   37.6260   27.8940   31.0260 H   0  0  0  0  0  0  0  0  0  0  0  0
   34.9690   30.5730   32.2670 C   0  0  0  0  0  0  0  0  0  0  0  0
   35.0310   30.3810   33.6330 C   0  0  0  0  0  0  0  0  0  0  0  0
   35.6670   29.2470   34.1020 C   0  0  0  0  0  0  0  0  0  0  0  0
   36.2090   28.3540   33.2040 N   0  0  0  0  0  0  0  0  0  0  0  0
   36.1140   28.5930   31.9110 C   0  0  0  0  0  0  0  0  0  0  0  0
   35.4990   29.6980   31.4340 N   0  0  0  0  0  0  0  0  0  0  0  0
   34.4750   31.4570   31.8600 H   0  0  0  0  0  0  0  0  0  0  0  0
   34.5710   31.1430   34.2430 H   0  0  0  0  0  0  0  0  0  0  0  0
   35.7170   29.0990   35.1710 H   0  0  0  0  0  0  0  0  0  0  0  0
   36.4360   27.8770   29.6350 O   0  0  0  0  0  0  0  0  0  0  0  0
   35.6090   28.1210   29.1860 H   0  0  0  0  0  0  0  0  0  0  0  0
   38.8650   26.1540   31.6520 C   0  0  0  0  0  3  0  0  0  0  0  0
   40.0130   25.5110   31.8880 C   0  0  0  0  0  3  0  0  0  0  0  0
   41.3760   26.0740   32.0240 C   0  0  0  0  0  0  0  0  0  0  0  0
   41.5210   26.9200   31.3110 H   0  0  0  0  0  0  0  0  0  0  0  0
   42.1270   25.2690   31.8080 H   0  0  0  0  0  0  0  0  0  0  0  0
   41.6430   26.6040   33.7180 S   0  0  0  0  0  0  0  0  0  0  0  0
   40.3060   26.0500   34.7530 C   0  0  0  0  0  0  0  0  0  0  0  0
   39.4500   27.0710   35.2450 C   0  0  0  0  0  0  0  0  0  0  0  0
   39.4240   28.1420   35.1300 H   0  0  0  0  0  0  0  0  0  0  0  0
   38.3800   26.8500   36.0470 C   0  0  0  0  0  3  0  0  0  0  0  0
   38.1390   25.4690   36.3910 C   0  0  0  0  0  3  0  0  0  0  0  0
   39.5250   24.5140   35.5090 S   0  0  0  0  0  0  0  0  0  0  0  0
  1  6  1  0  0  0  0
  2  1  2  0  0  0  0
  2  3  1  0  0  0  0
  3  4  2  0  0  0  0
  4  9  1  0  0  0  0
  4  5  1  0  0  0  0
  5 10  1  0  0  0  0
  6 24  1  0  0  0  0
  6  5  2  0  0  0  0
  7  2  1  0  0  0  0
  8  3  1  0  0  0  0
 11 12  1  1  0  0  0
 11  1  1  0  0  0  0
 11 17  1  0  0  0  0
 13 14  1  0  0  0  0
 14 15  2  0  0  0  0
 14 20  1  0  0  0  0
 15 21  1  0  0  0  0
 16 15  1  0  0  0  0
 17 16  2  0  0  0  0
 18 17  1  0  0  0  0
 18 13  2  0  0  0  0
 19 13  1  0  0  0  0
 22 11  1  0  0  0  0
 23 22  1  0  0  0  0
 24 25  2  0  0  0  0
 25 26  1  0  0  0  0
 26 29  1  0  0  0  0
 27 26  1  0  0  0  0
 28 26  1  0  0  0  0
 29 30  1  0  0  0  0
 30 31  2  0  0  0  0
 30 35  1  0  0  0  0
 31 33  1  0  0  0  0
 32 31  1  0  0  0  0
 33 34  2  0  0  0  0
 35 34  1  0  0  0  0
M  END
>  <minimizedAffinity>
-5.12675476

$$$$
