
 OpenBabel03272510333D

 25 27  0  0  0  0  0  0  0  0999 V2000
   35.9460   30.1200   47.2370 C   0  0  0  0  0  0  0  0  0  0  0  0
   35.3770   30.1090   45.9820 C   0  0  0  0  0  0  0  0  0  0  0  0
   34.3010   29.2920   45.6960 C   0  0  0  0  0  0  0  0  0  0  0  0
   33.8050   28.4850   46.6920 C   0  0  0  0  0  0  0  0  0  0  0  0
   34.3550   28.4760   47.9560 C   0  0  0  0  0  0  0  0  0  0  0  0
   35.4320   29.2980   48.2300 C   0  0  0  0  0  0  0  0  0  0  0  0
   35.7700   30.7530   45.1810 H   0  0  0  0  0  0  0  0  0  0  0  0
   33.8540   29.2810   44.7080 H   0  0  0  0  0  0  0  0  0  0  0  0
   32.9610   27.8150   46.5500 H   0  0  0  0  0  0  0  0  0  0  0  0
   34.0280   27.8700   48.8010 H   0  0  0  0  0  0  0  0  0  0  0  0
   37.9560   32.7510   48.7270 C   0  0  0  0  0  0  0  0  0  0  0  0
   39.1270   32.7750   47.9700 C   0  0  0  0  0  0  0  0  0  0  0  0
   39.2120   31.8470   46.9150 C   0  0  0  0  0  0  0  0  0  0  0  0
   38.1770   30.9980   46.6930 N   0  0  0  0  0  0  0  0  0  0  0  0
   37.0700   31.0110   47.4470 C   0  0  0  0  0  0  0  0  0  0  0  0
   36.9650   31.8980   48.4720 N   0  0  0  0  0  0  0  0  0  0  0  0
   37.8860   33.4750   49.5510 H   0  0  0  0  0  0  0  0  0  0  0  0
   39.9100   33.4920   48.2190 H   0  0  0  0  0  0  0  0  0  0  0  0
   40.1180   31.8690   46.3340 H   0  0  0  0  0  0  0  0  0  0  0  0
   36.0630   29.3320   49.5610 C   0  0  0  0  0  0  0  0  0  0  0  0
   37.4660   29.1420   49.7670 C   0  0  0  0  0  0  0  0  0  0  0  0
   38.1260   28.9640   48.9340 H   0  0  0  0  0  0  0  0  0  0  0  0
   37.9280   29.1960   51.0530 C   0  0  0  0  0  3  0  0  0  0  0  0
   37.0020   29.4340   52.1040 C   0  0  0  0  0  3  0  0  0  0  0  0
   35.3960   29.5960   51.2790 S   0  0  0  0  0  0  0  0  0  0  0  0
  1 15  1  0  0  0  0
  1  6  1  0  0  0  0
  2  1  2  0  0  0  0
  3  2  1  0  0  0  0
  3  4  2  0  0  0  0
  4  5  1  0  0  0  0
  5  6  2  0  0  0  0
  5 10  1  0  0  0  0
  6 20  1  0  0  0  0
  7  2  1  0  0  0  0
  8  3  1  0  0  0  0
  9  4  1  0  0  0  0
 11 17  1  0  0  0  0
 12 18  1  0  0  0  0
 12 11  2  0  0  0  0
 13 12  1  0  0  0  0
 14 13  2  0  0  0  0
 14 15  1  0  0  0  0
 15 16  2  0  0  0  0
 16 11  1  0  0  0  0
 19 13  1  0  0  0  0
 20 21  2  0  0  0  0
 20 25  1  0  0  0  0
 21 23  1  0  0  0  0
 22 21  1  0  0  0  0
 23 24  2  0  0  0  0
 25 24  1  0  0  0  0
M  END
>  <minimizedAffinity>
-4.0805788

>  <minimizedRMSD>
1.43862092

$$$$
