
 OpenBabel03272502403D

 37 40  0  0  1  0  0  0  0  0999 V2000
   35.5200   29.9490   33.6120 N   0  0  0  0  0  0  0  0  0  0  0  0
   35.8110   29.9180   32.1880 C   0  0  0  0  0  0  0  0  0  0  0  0
   36.6750   28.7000   32.0440 C   0  0  0  0  0  0  0  0  0  0  0  0
   36.9670   28.2260   33.5420 C   0  0  1  0  0  0  0  0  0  0  0  0
   35.6860   28.5880   34.1580 C   0  0  0  0  0  0  0  0  0  0  0  0
   34.8890   29.7540   31.6100 H   0  0  0  0  0  0  0  0  0  0  0  0
   36.3710   30.8240   31.8670 H   0  0  0  0  0  0  0  0  0  0  0  0
   36.1420   27.8310   31.6300 H   0  0  0  0  0  0  0  0  0  0  0  0
   37.6300   28.8590   31.5600 H   0  0  0  0  0  0  0  0  0  0  0  0
   37.8050   28.9090   33.7380 H   0  0  0  0  0  0  0  0  0  0  0  0
   34.8450   27.9680   33.7700 H   0  0  0  0  0  0  0  0  0  0  0  0
   35.6720   28.6260   35.2550 H   0  0  0  0  0  0  0  0  0  0  0  0
   38.1180   26.9200   35.7830 F   0  0  0  0  0  0  0  0  0  0  0  0
   37.7890   26.2540   34.6570 C   0  0  0  0  0  0  0  0  0  0  0  0
   37.2910   26.8000   33.5070 C   0  0  0  0  0  0  0  0  0  0  0  0
   37.0380   25.9360   32.4280 C   0  0  0  0  0  0  0  0  0  0  0  0
   37.2730   24.5830   32.4950 C   0  0  0  0  0  0  0  0  0  0  0  0
   37.7800   24.0550   33.6770 C   0  0  0  0  0  0  0  0  0  0  0  0
   38.0360   24.9100   34.7610 C   0  0  0  0  0  0  0  0  0  0  0  0
   36.6480   26.4140   31.5410 H   0  0  0  0  0  0  0  0  0  0  0  0
   37.0740   23.9340   31.6610 H   0  0  0  0  0  0  0  0  0  0  0  0
   37.9480   22.9880   33.6840 H   0  0  0  0  0  0  0  0  0  0  0  0
   38.5680   24.2290   35.9270 C   0  0  0  0  0  0  0  0  0  0  0  0
   37.9920   24.1580   37.1170 C   0  0  0  0  0  0  0  0  0  0  0  0
   37.0800   24.5140   37.5670 H   0  0  0  0  0  0  0  0  0  0  0  0
   38.4830   23.5340   38.2050 C   0  0  0  0  0  3  0  0  0  0  0  0
   39.8000   22.9120   37.8890 C   0  0  0  0  0  3  0  0  0  0  0  0
   40.0670   23.3660   36.0410 S   0  0  0  0  0  0  0  0  0  0  0  0
   35.1450   31.0690   34.3770 C   0  0  0  0  0  0  0  0  0  0  0  0
   35.7360   31.1770   35.6450 C   0  0  0  0  0  0  0  0  0  0  0  0
   35.3940   32.2690   36.4590 C   0  0  0  0  0  0  0  0  0  0  0  0
   34.4860   33.1690   35.9370 N   0  0  0  0  0  0  0  0  0  0  0  0
   33.9440   33.0330   34.7250 C   0  0  0  0  0  0  0  0  0  0  0  0
   34.2740   31.9800   33.9400 N   0  0  0  0  0  0  0  0  0  0  0  0
   36.4410   30.4510   36.0130 H   0  0  0  0  0  0  0  0  0  0  0  0
   35.8120   32.4160   37.4520 H   0  0  0  0  0  0  0  0  0  0  0  0
   33.2350   33.7500   34.3360 H   0  0  0  0  0  0  0  0  0  0  0  0
  1  5  1  0  0  0  0
  1 29  1  0  0  0  0
  2  1  1  0  0  0  0
  3  2  1  0  0  0  0
  3  4  1  0  0  0  0
  4 10  1  1  0  0  0
  4  5  1  0  0  0  0
  5 12  1  0  0  0  0
  6  2  1  0  0  0  0
  7  2  1  0  0  0  0
  8  3  1  0  0  0  0
  9  3  1  0  0  0  0
 11  5  1  0  0  0  0
 14 19  1  0  0  0  0
 14 13  1  0  0  0  0
 15  4  1  0  0  0  0
 15 14  2  0  0  0  0
 16 17  2  0  0  0  0
 16 15  1  0  0  0  0
 17 18  1  0  0  0  0
 18 22  1  0  0  0  0
 18 19  2  0  0  0  0
 19 23  1  0  0  0  0
 20 16  1  0  0  0  0
 21 17  1  0  0  0  0
 23 28  1  0  0  0  0
 23 24  2  0  0  0  0
 24 25  1  0  0  0  0
 24 26  1  0  0  0  0
 27 26  2  0  0  0  0
 28 27  1  0  0  0  0
 29 30  1  0  0  0  0
 30 35  1  0  0  0  0
 30 31  2  0  0  0  0
 31 36  1  0  0  0  0
 32 31  1  0  0  0  0
 33 32  2  0  0  0  0
 34 29  2  0  0  0  0
 34 33  1  0  0  0  0
 37 33  1  0  0  0  0
M  END
>  <minimizedAffinity>
-5.59835577

$$$$

 OpenBabel03272502403D

 37 40  0  0  1  0  0  0  0  0999 V2000
   38.4640   24.8520   34.6580 N   0  0  0  0  0  0  0  0  0  0  0  0
   38.3310   24.1730   33.3790 C   0  0  0  0  0  0  0  0  0  0  0  0
   37.5440   25.1490   32.5560 C   0  0  0  0  0  0  0  0  0  0  0  0
   37.1130   26.2960   33.5820 C   0  0  1  0  0  0  0  0  0  0  0  0
   38.3010   26.3030   34.4420 C   0  0  0  0  0  0  0  0  0  0  0  0
   39.3180   24.0440   32.9080 H   0  0  0  0  0  0  0  0  0  0  0  0
   37.7700   23.2180   33.4810 H   0  0  0  0  0  0  0  0  0  0  0  0
   38.1580   25.7100   31.8340 H   0  0  0  0  0  0  0  0  0  0  0  0
   36.6420   24.7590   32.1040 H   0  0  0  0  0  0  0  0  0  0  0  0
   36.2280   25.7860   33.9890 H   0  0  0  0  0  0  0  0  0  0  0  0
   39.2070   26.6630   33.9010 H   0  0  0  0  0  0  0  0  0  0  0  0
   38.1940   26.8110   35.4090 H   0  0  0  0  0  0  0  0  0  0  0  0
   35.5710   28.4210   34.6570 F   0  0  0  0  0  0  0  0  0  0  0  0
   36.1530   28.5020   33.4430 C   0  0  0  0  0  0  0  0  0  0  0  0
   36.8600   27.5140   32.8140 C   0  0  0  0  0  0  0  0  0  0  0  0
   37.3650   27.7860   31.5320 C   0  0  0  0  0  0  0  0  0  0  0  0
   37.1750   28.9940   30.9040 C   0  0  0  0  0  0  0  0  0  0  0  0
   36.4530   29.9810   31.5660 C   0  0  0  0  0  0  0  0  0  0  0  0
   35.9430   29.7190   32.8480 C   0  0  0  0  0  0  0  0  0  0  0  0
   37.9130   26.9750   31.0750 H   0  0  0  0  0  0  0  0  0  0  0  0
   37.5690   29.1880   29.9220 H   0  0  0  0  0  0  0  0  0  0  0  0
   36.3290   30.9130   31.0350 H   0  0  0  0  0  0  0  0  0  0  0  0
   35.2070   30.8310   33.4200 C   0  0  0  0  0  0  0  0  0  0  0  0
   35.6770   31.7090   34.2920 C   0  0  0  0  0  0  0  0  0  0  0  0
   36.6110   31.8860   34.7980 H   0  0  0  0  0  0  0  0  0  0  0  0
   34.9970   32.7390   34.8320 C   0  0  0  0  0  3  0  0  0  0  0  0
   33.6030   32.7660   34.3060 C   0  0  0  0  0  3  0  0  0  0  0  0
   33.5560   31.2630   33.1100 S   0  0  0  0  0  0  0  0  0  0  0  0
   38.7020   24.2600   35.9120 C   0  0  0  0  0  0  0  0  0  0  0  0
   37.8660   24.6740   36.9600 C   0  0  0  0  0  0  0  0  0  0  0  0
   38.0610   24.1250   38.2370 C   0  0  0  0  0  0  0  0  0  0  0  0
   39.0810   23.2020   38.3640 N   0  0  0  0  0  0  0  0  0  0  0  0
   39.8570   22.8320   37.3440 C   0  0  0  0  0  0  0  0  0  0  0  0
   39.6690   23.3620   36.1110 N   0  0  0  0  0  0  0  0  0  0  0  0
   37.0810   25.3970   36.8160 H   0  0  0  0  0  0  0  0  0  0  0  0
   37.4520   24.4000   39.0950 H   0  0  0  0  0  0  0  0  0  0  0  0
   40.6490   22.1080   37.4660 H   0  0  0  0  0  0  0  0  0  0  0  0
  1 29  1  0  0  0  0
  2  7  1  0  0  0  0
  2  1  1  0  0  0  0
  3  2  1  0  0  0  0
  3  4  1  0  0  0  0
  4 10  1  1  0  0  0
  4  5  1  0  0  0  0
  5  1  1  0  0  0  0
  5 12  1  0  0  0  0
  6  2  1  0  0  0  0
  8  3  1  0  0  0  0
  9  3  1  0  0  0  0
 11  5  1  0  0  0  0
 14 13  1  0  0  0  0
 15 14  2  0  0  0  0
 15  4  1  0  0  0  0
 16 15  1  0  0  0  0
 17 16  2  0  0  0  0
 17 18  1  0  0  0  0
 18 19  2  0  0  0  0
 19 23  1  0  0  0  0
 19 14  1  0  0  0  0
 20 16  1  0  0  0  0
 21 17  1  0  0  0  0
 22 18  1  0  0  0  0
 23 24  2  0  0  0  0
 24 25  1  0  0  0  0
 24 26  1  0  0  0  0
 27 26  2  0  0  0  0
 28 23  1  0  0  0  0
 28 27  1  0  0  0  0
 29 34  2  0  0  0  0
 29 30  1  0  0  0  0
 30 31  2  0  0  0  0
 31 32  1  0  0  0  0
 31 36  1  0  0  0  0
 33 37  1  0  0  0  0
 33 32  2  0  0  0  0
 34 33  1  0  0  0  0
 35 30  1  0  0  0  0
M  END
>  <minimizedAffinity>
-5.53603363

$$$$

 OpenBabel03272502403D

 37 40  0  0  1  0  0  0  0  0999 V2000
   39.4340   24.6720   34.2860 N   0  0  0  0  0  0  0  0  0  0  0  0
   39.4330   24.2750   32.8880 C   0  0  0  0  0  0  0  0  0  0  0  0
   38.3920   25.1700   32.2810 C   0  0  0  0  0  0  0  0  0  0  0  0
   37.7190   25.9160   33.5240 C   0  0  1  0  0  0  0  0  0  0  0  0
   38.8970   26.0440   34.3890 C   0  0  0  0  0  0  0  0  0  0  0  0
   40.4010   24.5110   32.4200 H   0  0  0  0  0  0  0  0  0  0  0  0
   39.1390   23.2100   32.7660 H   0  0  0  0  0  0  0  0  0  0  0  0
   38.8140   26.0120   31.7120 H   0  0  0  0  0  0  0  0  0  0  0  0
   37.6040   24.6670   31.7360 H   0  0  0  0  0  0  0  0  0  0  0  0
   37.0100   25.1190   33.7910 H   0  0  0  0  0  0  0  0  0  0  0  0
   39.6590   26.7340   33.9590 H   0  0  0  0  0  0  0  0  0  0  0  0
   38.6980   26.2850   35.4420 H   0  0  0  0  0  0  0  0  0  0  0  0
   36.2580   27.6330   35.2470 F   0  0  0  0  0  0  0  0  0  0  0  0
   36.4980   27.9480   33.9580 C   0  0  0  0  0  0  0  0  0  0  0  0
   37.1340   27.1640   33.0350 C   0  0  0  0  0  0  0  0  0  0  0  0
   37.2600   27.6630   31.7280 C   0  0  0  0  0  0  0  0  0  0  0  0
   36.7720   28.8940   31.3580 C   0  0  0  0  0  0  0  0  0  0  0  0
   36.1300   29.6700   32.3160 C   0  0  0  0  0  0  0  0  0  0  0  0
   35.9980   29.1800   33.6260 C   0  0  0  0  0  0  0  0  0  0  0  0
   37.7670   27.0070   31.0350 H   0  0  0  0  0  0  0  0  0  0  0  0
   36.8770   29.2630   30.3530 H   0  0  0  0  0  0  0  0  0  0  0  0
   35.7630   30.6290   31.9800 H   0  0  0  0  0  0  0  0  0  0  0  0
   35.3040   30.0880   34.5200 C   0  0  0  0  0  0  0  0  0  0  0  0
   35.8720   30.9290   35.3700 C   0  0  0  0  0  0  0  0  0  0  0  0
   36.8770   31.1990   35.6500 H   0  0  0  0  0  0  0  0  0  0  0  0
   35.2340   31.7690   36.2070 C   0  0  0  0  0  3  0  0  0  0  0  0
   33.7590   31.6270   36.0510 C   0  0  0  0  0  3  0  0  0  0  0  0
   33.5900   30.2770   34.6940 S   0  0  0  0  0  0  0  0  0  0  0  0
   39.8610   23.9050   35.3860 C   0  0  0  0  0  0  0  0  0  0  0  0
   38.9580   23.7980   36.4530 C   0  0  0  0  0  0  0  0  0  0  0  0
   39.3320   23.0520   37.5820 C   0  0  0  0  0  0  0  0  0  0  0  0
   40.5850   22.4710   37.5520 N   0  0  0  0  0  0  0  0  0  0  0  0
   41.4190   22.5960   36.5180 C   0  0  0  0  0  0  0  0  0  0  0  0
   41.0580   23.3150   35.4280 N   0  0  0  0  0  0  0  0  0  0  0  0
   37.9890   24.2670   36.4350 H   0  0  0  0  0  0  0  0  0  0  0  0
   38.6840   22.9270   38.4460 H   0  0  0  0  0  0  0  0  0  0  0  0
   42.3940   22.1320   36.5160 H   0  0  0  0  0  0  0  0  0  0  0  0
  1  5  1  0  0  0  0
  1 29  1  0  0  0  0
  2  1  1  0  0  0  0
  3  2  1  0  0  0  0
  3  4  1  0  0  0  0
  4 10  1  1  0  0  0
  4  5  1  0  0  0  0
  5 12  1  0  0  0  0
  6  2  1  0  0  0  0
  7  2  1  0  0  0  0
  8  3  1  0  0  0  0
  9  3  1  0  0  0  0
 11  5  1  0  0  0  0
 14 13  1  0  0  0  0
 15  4  1  0  0  0  0
 15 14  2  0  0  0  0
 16 15  1  0  0  0  0
 17 16  2  0  0  0  0
 17 18  1  0  0  0  0
 18 19  2  0  0  0  0
 19 14  1  0  0  0  0
 19 23  1  0  0  0  0
 20 16  1  0  0  0  0
 21 17  1  0  0  0  0
 22 18  1  0  0  0  0
 23 28  1  0  0  0  0
 23 24  2  0  0  0  0
 24 25  1  0  0  0  0
 24 26  1  0  0  0  0
 27 26  2  0  0  0  0
 28 27  1  0  0  0  0
 29 34  2  0  0  0  0
 29 30  1  0  0  0  0
 30 31  2  0  0  0  0
 31 36  1  0  0  0  0
 32 31  1  0  0  0  0
 33 32  2  0  0  0  0
 34 33  1  0  0  0  0
 35 30  1  0  0  0  0
 37 33  1  0  0  0  0
M  END
>  <minimizedAffinity>
-5.52846718

$$$$

 OpenBabel03272502403D

 37 40  0  0  1  0  0  0  0  0999 V2000
   36.8200   26.8940   33.5810 N   0  0  0  0  0  0  0  0  0  0  0  0
   36.9410   25.7550   32.6850 C   0  0  0  0  0  0  0  0  0  0  0  0
   37.8340   24.8180   33.4430 C   0  0  0  0  0  0  0  0  0  0  0  0
   38.3210   25.6560   34.7140 C   0  0  1  0  0  0  0  0  0  0  0  0
   37.1090   26.4440   34.9570 C   0  0  0  0  0  0  0  0  0  0  0  0
   35.9640   25.2650   32.5510 H   0  0  0  0  0  0  0  0  0  0  0  0
   37.4190   26.0430   31.7220 H   0  0  0  0  0  0  0  0  0  0  0  0
   37.2930   23.9830   33.9160 H   0  0  0  0  0  0  0  0  0  0  0  0
   38.7160   24.4820   32.9150 H   0  0  0  0  0  0  0  0  0  0  0  0
   39.1480   26.1840   34.2160 H   0  0  0  0  0  0  0  0  0  0  0  0
   36.2550   25.8070   35.2860 H   0  0  0  0  0  0  0  0  0  0  0  0
   37.2240   27.3160   35.6140 H   0  0  0  0  0  0  0  0  0  0  0  0
   40.7040   24.1270   34.5230 F   0  0  0  0  0  0  0  0  0  0  0  0
   39.8950   24.0610   35.6010 C   0  0  0  0  0  0  0  0  0  0  0  0
   38.7000   24.7070   35.7600 C   0  0  0  0  0  0  0  0  0  0  0  0
   37.9890   24.4830   36.9500 C   0  0  0  0  0  0  0  0  0  0  0  0
   38.4520   23.6510   37.9420 C   0  0  0  0  0  0  0  0  0  0  0  0
   39.6700   23.0070   37.7540 C   0  0  0  0  0  0  0  0  0  0  0  0
   40.3890   23.2230   36.5670 C   0  0  0  0  0  0  0  0  0  0  0  0
   37.0510   25.0130   37.0290 H   0  0  0  0  0  0  0  0  0  0  0  0
   37.8970   23.4900   38.8490 H   0  0  0  0  0  0  0  0  0  0  0  0
   39.9940   22.3640   38.5590 H   0  0  0  0  0  0  0  0  0  0  0  0
   41.6370   22.4870   36.5000 C   0  0  0  0  0  0  0  0  0  0  0  0
   41.7820   21.1820   36.6750 C   0  0  0  0  0  0  0  0  0  0  0  0
   41.1380   20.3460   36.8890 H   0  0  0  0  0  0  0  0  0  0  0  0
   42.9390   20.4940   36.6210 C   0  0  0  0  0  3  0  0  0  0  0  0
   44.0720   21.4160   36.3280 C   0  0  0  0  0  3  0  0  0  0  0  0
   43.2160   23.1310   36.1870 S   0  0  0  0  0  0  0  0  0  0  0  0
   36.4920   28.2160   33.2330 C   0  0  0  0  0  0  0  0  0  0  0  0
   35.9190   28.9980   34.2470 C   0  0  0  0  0  0  0  0  0  0  0  0
   35.5620   30.3250   33.9560 C   0  0  0  0  0  0  0  0  0  0  0  0
   35.8070   30.7640   32.6690 N   0  0  0  0  0  0  0  0  0  0  0  0
   36.3540   29.9900   31.7300 C   0  0  0  0  0  0  0  0  0  0  0  0
   36.6990   28.7110   32.0100 N   0  0  0  0  0  0  0  0  0  0  0  0
   35.7450   28.6160   35.2380 H   0  0  0  0  0  0  0  0  0  0  0  0
   35.1130   30.9880   34.6920 H   0  0  0  0  0  0  0  0  0  0  0  0
   36.5380   30.3550   30.7300 H   0  0  0  0  0  0  0  0  0  0  0  0
  1  5  1  0  0  0  0
  2  3  1  0  0  0  0
  2  1  1  0  0  0  0
  3  8  1  0  0  0  0
  3  4  1  0  0  0  0
  4 10  1  6  0  0  0
  4  5  1  0  0  0  0
  4 15  1  0  0  0  0
  5 11  1  0  0  0  0
  5 12  1  0  0  0  0
  6  2  1  0  0  0  0
  7  2  1  0  0  0  0
  9  3  1  0  0  0  0
 13 14  1  0  0  0  0
 14 15  2  0  0  0  0
 14 19  1  0  0  0  0
 15 16  1  0  0  0  0
 16 20  1  0  0  0  0
 16 17  2  0  0  0  0
 17 21  1  0  0  0  0
 18 17  1  0  0  0  0
 18 22  1  0  0  0  0
 19 18  2  0  0  0  0
 23 19  1  0  0  0  0
 23 24  2  0  0  0  0
 24 25  1  0  0  0  0
 26 24  1  0  0  0  0
 27 26  2  0  0  0  0
 28 27  1  0  0  0  0
 28 23  1  0  0  0  0
 29  1  1  0  0  0  0
 29 30  1  0  0  0  0
 30 35  1  0  0  0  0
 31 30  2  0  0  0  0
 31 36  1  0  0  0  0
 32 31  1  0  0  0  0
 33 34  1  0  0  0  0
 33 32  2  0  0  0  0
 34 29  2  0  0  0  0
 37 33  1  0  0  0  0
M  END
>  <minimizedAffinity>
-5.50225639

$$$$

 OpenBabel03272502403D

 37 40  0  0  1  0  0  0  0  0999 V2000
   38.3700   25.3370   33.1730 N   0  0  0  0  0  0  0  0  0  0  0  0
   38.4250   25.3840   31.7200 C   0  0  0  0  0  0  0  0  0  0  0  0
   37.5290   26.5390   31.3820 C   0  0  0  0  0  0  0  0  0  0  0  0
   36.8530   26.9510   32.7700 C   0  0  1  0  0  0  0  0  0  0  0  0
   37.9730   26.6680   33.6730 C   0  0  0  0  0  0  0  0  0  0  0  0
   39.4440   25.6300   31.3820 H   0  0  0  0  0  0  0  0  0  0  0  0
   38.0310   24.4480   31.2670 H   0  0  0  0  0  0  0  0  0  0  0  0
   38.0770   27.4560   31.1160 H   0  0  0  0  0  0  0  0  0  0  0  0
   36.7330   26.3240   30.6820 H   0  0  0  0  0  0  0  0  0  0  0  0
   36.0470   26.2040   32.7540 H   0  0  0  0  0  0  0  0  0  0  0  0
   38.8320   27.3580   33.5030 H   0  0  0  0  0  0  0  0  0  0  0  0
   37.7270   26.6030   34.7410 H   0  0  0  0  0  0  0  0  0  0  0  0
   35.5310   28.2550   34.9160 F   0  0  0  0  0  0  0  0  0  0  0  0
   35.8590   28.9020   33.7790 C   0  0  0  0  0  0  0  0  0  0  0  0
   36.4370   28.3500   32.6690 C   0  0  0  0  0  0  0  0  0  0  0  0
   36.6740   29.1900   31.5690 C   0  0  0  0  0  0  0  0  0  0  0  0
   36.3490   30.5260   31.5760 C   0  0  0  0  0  0  0  0  0  0  0  0
   35.7610   31.0610   32.7180 C   0  0  0  0  0  0  0  0  0  0  0  0
   35.5200   30.2290   33.8230 C   0  0  0  0  0  0  0  0  0  0  0  0
   37.1300   28.7090   30.7160 H   0  0  0  0  0  0  0  0  0  0  0  0
   36.5370   31.1570   30.7260 H   0  0  0  0  0  0  0  0  0  0  0  0
   35.5240   32.1140   32.6780 H   0  0  0  0  0  0  0  0  0  0  0  0
   34.8990   30.9130   34.9420 C   0  0  0  0  0  0  0  0  0  0  0  0
   35.5320   31.5900   35.8890 C   0  0  0  0  0  0  0  0  0  0  0  0
   36.5540   31.8360   36.1240 H   0  0  0  0  0  0  0  0  0  0  0  0
   34.9620   32.2210   36.9330 C   0  0  0  0  0  3  0  0  0  0  0  0
   33.4820   32.0570   36.8870 C   0  0  0  0  0  3  0  0  0  0  0  0
   33.2070   31.0000   35.3070 S   0  0  0  0  0  0  0  0  0  0  0  0
   38.6360   24.2290   33.9970 C   0  0  0  0  0  0  0  0  0  0  0  0
   38.2150   24.3350   35.3310 C   0  0  0  0  0  0  0  0  0  0  0  0
   38.4620   23.2630   36.2040 C   0  0  0  0  0  0  0  0  0  0  0  0
   39.1100   22.1670   35.6700 N   0  0  0  0  0  0  0  0  0  0  0  0
   39.4960   22.1010   34.3940 C   0  0  0  0  0  0  0  0  0  0  0  0
   39.2590   23.1350   33.5520 N   0  0  0  0  0  0  0  0  0  0  0  0
   37.7110   25.2090   35.7060 H   0  0  0  0  0  0  0  0  0  0  0  0
   38.1640   23.2760   37.2490 H   0  0  0  0  0  0  0  0  0  0  0  0
   40.0020   21.2330   33.9970 H   0  0  0  0  0  0  0  0  0  0  0  0
  1  5  1  0  0  0  0
  1 29  1  0  0  0  0
  2  1  1  0  0  0  0
  3  2  1  0  0  0  0
  3  4  1  0  0  0  0
  4 10  1  1  0  0  0
  4  5  1  0  0  0  0
  5 12  1  0  0  0  0
  6  2  1  0  0  0  0
  7  2  1  0  0  0  0
  8  3  1  0  0  0  0
  9  3  1  0  0  0  0
 11  5  1  0  0  0  0
 14 19  1  0  0  0  0
 14 13  1  0  0  0  0
 15  4  1  0  0  0  0
 15 14  2  0  0  0  0
 16 17  2  0  0  0  0
 16 15  1  0  0  0  0
 17 18  1  0  0  0  0
 18 19  2  0  0  0  0
 19 23  1  0  0  0  0
 20 16  1  0  0  0  0
 21 17  1  0  0  0  0
 22 18  1  0  0  0  0
 23 28  1  0  0  0  0
 23 24  2  0  0  0  0
 24 25  1  0  0  0  0
 24 26  1  0  0  0  0
 27 26  2  0  0  0  0
 28 27  1  0  0  0  0
 29 30  1  0  0  0  0
 30 35  1  0  0  0  0
 30 31  2  0  0  0  0
 31 36  1  0  0  0  0
 32 31  1  0  0  0  0
 33 32  2  0  0  0  0
 34 29  2  0  0  0  0
 34 33  1  0  0  0  0
 37 33  1  0  0  0  0
M  END
>  <minimizedAffinity>
-5.44257641

$$$$

 OpenBabel03272502403D

 37 40  0  0  1  0  0  0  0  0999 V2000
   37.7310   24.9550   32.9850 N   0  0  0  0  0  0  0  0  0  0  0  0
   38.8240   25.6570   33.6390 C   0  0  0  0  0  0  0  0  0  0  0  0
   38.6080   27.0830   33.2260 C   0  0  0  0  0  0  0  0  0  0  0  0
   37.4340   27.0220   32.1430 C   0  0  1  0  0  0  0  0  0  0  0  0
   36.6490   25.9200   32.7080 C   0  0  0  0  0  0  0  0  0  0  0  0
   38.7180   25.5980   34.7330 H   0  0  0  0  0  0  0  0  0  0  0  0
   39.8130   25.2990   33.2770 H   0  0  0  0  0  0  0  0  0  0  0  0
   38.1580   27.7050   34.0140 H   0  0  0  0  0  0  0  0  0  0  0  0
   39.4560   27.5680   32.7610 H   0  0  0  0  0  0  0  0  0  0  0  0
   38.0630   26.7710   31.2770 H   0  0  0  0  0  0  0  0  0  0  0  0
   36.1870   26.1920   33.6850 H   0  0  0  0  0  0  0  0  0  0  0  0
   35.9080   25.4620   32.0380 H   0  0  0  0  0  0  0  0  0  0  0  0
   36.1580   28.0910   34.4410 F   0  0  0  0  0  0  0  0  0  0  0  0
   36.2480   28.7820   33.2860 C   0  0  0  0  0  0  0  0  0  0  0  0
   36.7850   28.3320   32.1110 C   0  0  0  0  0  0  0  0  0  0  0  0
   36.7580   29.1980   31.0050 C   0  0  0  0  0  0  0  0  0  0  0  0
   36.2190   30.4620   31.0700 C   0  0  0  0  0  0  0  0  0  0  0  0
   35.6810   30.8930   32.2770 C   0  0  0  0  0  0  0  0  0  0  0  0
   35.7020   30.0350   33.3880 C   0  0  0  0  0  0  0  0  0  0  0  0
   37.1900   28.7980   30.1000 H   0  0  0  0  0  0  0  0  0  0  0  0
   36.2060   31.1140   30.2150 H   0  0  0  0  0  0  0  0  0  0  0  0
   35.2690   31.8920   32.2810 H   0  0  0  0  0  0  0  0  0  0  0  0
   35.1040   30.6090   34.5790 C   0  0  0  0  0  0  0  0  0  0  0  0
   35.7300   31.3340   35.4930 C   0  0  0  0  0  0  0  0  0  0  0  0
   36.7320   31.6980   35.6510 H   0  0  0  0  0  0  0  0  0  0  0  0
   35.1830   31.8630   36.6040 C   0  0  0  0  0  3  0  0  0  0  0  0
   33.7350   31.5190   36.6760 C   0  0  0  0  0  3  0  0  0  0  0  0
   33.4520   30.4760   35.0880 S   0  0  0  0  0  0  0  0  0  0  0  0
   37.6800   23.5900   32.6490 C   0  0  0  0  0  0  0  0  0  0  0  0
   37.0920   23.2780   31.4140 C   0  0  0  0  0  0  0  0  0  0  0  0
   37.0040   21.9300   31.0300 C   0  0  0  0  0  0  0  0  0  0  0  0
   37.5140   21.0000   31.9140 N   0  0  0  0  0  0  0  0  0  0  0  0
   38.0670   21.3340   33.0810 C   0  0  0  0  0  0  0  0  0  0  0  0
   38.1520   22.6340   33.4530 N   0  0  0  0  0  0  0  0  0  0  0  0
   36.7070   24.0360   30.7540 H   0  0  0  0  0  0  0  0  0  0  0  0
   36.5610   21.6160   30.0880 H   0  0  0  0  0  0  0  0  0  0  0  0
   38.4610   20.5890   33.7570 H   0  0  0  0  0  0  0  0  0  0  0  0
  1  2  1  0  0  0  0
  2  6  1  0  0  0  0
  3  2  1  0  0  0  0
  3  8  1  0  0  0  0
  4 10  1  6  0  0  0
  4  5  1  0  0  0  0
  4  3  1  0  0  0  0
  5  1  1  0  0  0  0
  5 11  1  0  0  0  0
  7  2  1  0  0  0  0
  9  3  1  0  0  0  0
 12  5  1  0  0  0  0
 14 19  1  0  0  0  0
 14 13  1  0  0  0  0
 15  4  1  0  0  0  0
 15 14  2  0  0  0  0
 16 17  2  0  0  0  0
 16 15  1  0  0  0  0
 17 18  1  0  0  0  0
 18 22  1  0  0  0  0
 18 19  2  0  0  0  0
 19 23  1  0  0  0  0
 20 16  1  0  0  0  0
 21 17  1  0  0  0  0
 23 28  1  0  0  0  0
 23 24  2  0  0  0  0
 24 25  1  0  0  0  0
 24 26  1  0  0  0  0
 26 27  2  0  0  0  0
 28 27  1  0  0  0  0
 29  1  1  0  0  0  0
 29 34  1  0  0  0  0
 30 29  2  0  0  0  0
 31 30  1  0  0  0  0
 31 32  2  0  0  0  0
 32 33  1  0  0  0  0
 33 34  2  0  0  0  0
 33 37  1  0  0  0  0
 35 30  1  0  0  0  0
 36 31  1  0  0  0  0
M  END
>  <minimizedAffinity>
-5.34444523

$$$$

 OpenBabel03272502403D

 37 40  0  0  1  0  0  0  0  0999 V2000
   37.2750   26.6370   31.5290 N   0  0  0  0  0  0  0  0  0  0  0  0
   37.8390   27.2250   30.3250 C   0  0  0  0  0  0  0  0  0  0  0  0
   37.2900   28.6210   30.3380 C   0  0  0  0  0  0  0  0  0  0  0  0
   36.2370   28.6350   31.5410 C   0  0  1  0  0  0  0  0  0  0  0  0
   36.9200   27.7230   32.4640 C   0  0  0  0  0  0  0  0  0  0  0  0
   38.9360   27.2880   30.4060 H   0  0  0  0  0  0  0  0  0  0  0  0
   37.5000   26.6890   29.4120 H   0  0  0  0  0  0  0  0  0  0  0  0
   38.0190   29.3770   30.6670 H   0  0  0  0  0  0  0  0  0  0  0  0
   36.7660   28.9260   29.4420 H   0  0  0  0  0  0  0  0  0  0  0  0
   35.3900   28.2100   30.9820 H   0  0  0  0  0  0  0  0  0  0  0  0
   37.8720   28.1540   32.8500 H   0  0  0  0  0  0  0  0  0  0  0  0
   36.3100   27.3200   33.2840 H   0  0  0  0  0  0  0  0  0  0  0  0
   34.8130   29.2680   33.9120 F   0  0  0  0  0  0  0  0  0  0  0  0
   35.4300   30.2130   33.1740 C   0  0  0  0  0  0  0  0  0  0  0  0
   36.0840   30.0180   31.9880 C   0  0  0  0  0  0  0  0  0  0  0  0
   36.6390   31.1430   31.3550 C   0  0  0  0  0  0  0  0  0  0  0  0
   36.5450   32.4090   31.8830 C   0  0  0  0  0  0  0  0  0  0  0  0
   35.8740   32.5780   33.0890 C   0  0  0  0  0  0  0  0  0  0  0  0
   35.3160   31.4610   33.7300 C   0  0  0  0  0  0  0  0  0  0  0  0
   37.1430   30.9400   30.4220 H   0  0  0  0  0  0  0  0  0  0  0  0
   36.9760   33.2610   31.3870 H   0  0  0  0  0  0  0  0  0  0  0  0
   35.8260   33.5900   33.4660 H   0  0  0  0  0  0  0  0  0  0  0  0
   34.6410   31.7800   34.9750 C   0  0  0  0  0  0  0  0  0  0  0  0
   35.2270   32.0960   36.1190 C   0  0  0  0  0  0  0  0  0  0  0  0
   36.2370   32.2140   36.4740 H   0  0  0  0  0  0  0  0  0  0  0  0
   34.6070   32.3860   37.2790 C   0  0  0  0  0  3  0  0  0  0  0  0
   33.1290   32.3040   37.1060 C   0  0  0  0  0  3  0  0  0  0  0  0
   32.9310   31.8130   35.2580 S   0  0  0  0  0  0  0  0  0  0  0  0
   37.0770   25.2690   31.7930 C   0  0  0  0  0  0  0  0  0  0  0  0
   35.9360   24.6870   31.2210 C   0  0  0  0  0  0  0  0  0  0  0  0
   35.6810   23.3270   31.4570 C   0  0  0  0  0  0  0  0  0  0  0  0
   36.5920   22.6550   32.2480 N   0  0  0  0  0  0  0  0  0  0  0  0
   37.6680   23.2420   32.7760 C   0  0  0  0  0  0  0  0  0  0  0  0
   37.9140   24.5550   32.5480 N   0  0  0  0  0  0  0  0  0  0  0  0
   35.2510   25.2490   30.6080 H   0  0  0  0  0  0  0  0  0  0  0  0
   34.8170   22.8110   31.0460 H   0  0  0  0  0  0  0  0  0  0  0  0
   38.3680   22.6970   33.3920 H   0  0  0  0  0  0  0  0  0  0  0  0
  1 29  1  0  0  0  0
  1  5  1  0  0  0  0
  2  3  1  0  0  0  0
  2  6  1  0  0  0  0
  2  1  1  0  0  0  0
  3  8  1  0  0  0  0
  3  4  1  0  0  0  0
  4 10  1  6  0  0  0
  4 15  1  0  0  0  0
  4  5  1  0  0  0  0
  5 11  1  0  0  0  0
  5 12  1  0  0  0  0
  7  2  1  0  0  0  0
  9  3  1  0  0  0  0
 14 19  1  0  0  0  0
 14 13  1  0  0  0  0
 15 14  2  0  0  0  0
 16 17  2  0  0  0  0
 16 15  1  0  0  0  0
 17 18  1  0  0  0  0
 18 22  1  0  0  0  0
 18 19  2  0  0  0  0
 19 23  1  0  0  0  0
 20 16  1  0  0  0  0
 21 17  1  0  0  0  0
 23 28  1  0  0  0  0
 23 24  2  0  0  0  0
 24 25  1  0  0  0  0
 24 26  1  0  0  0  0
 27 26  2  0  0  0  0
 28 27  1  0  0  0  0
 29 34  1  0  0  0  0
 30 31  1  0  0  0  0
 30 29  2  0  0  0  0
 31 32  2  0  0  0  0
 32 33  1  0  0  0  0
 33 37  1  0  0  0  0
 34 33  2  0  0  0  0
 35 30  1  0  0  0  0
 36 31  1  0  0  0  0
M  END
>  <minimizedAffinity>
-5.26464319

$$$$

 OpenBabel03272502403D

 37 40  0  0  1  0  0  0  0  0999 V2000
   35.9100   26.6530   31.3120 N   0  0  0  0  0  0  0  0  0  0  0  0
   34.8070   25.8780   30.7670 C   0  0  0  0  0  0  0  0  0  0  0  0
   35.1940   24.4640   31.0870 C   0  0  0  0  0  0  0  0  0  0  0  0
   36.6820   24.5670   31.6610 C   0  0  1  0  0  0  0  0  0  0  0  0
   36.5790   25.8540   32.3580 C   0  0  0  0  0  0  0  0  0  0  0  0
   33.8740   26.1080   31.3040 H   0  0  0  0  0  0  0  0  0  0  0  0
   34.7200   26.0110   29.6670 H   0  0  0  0  0  0  0  0  0  0  0  0
   34.6490   24.0430   31.9450 H   0  0  0  0  0  0  0  0  0  0  0  0
   35.2150   23.7840   30.2460 H   0  0  0  0  0  0  0  0  0  0  0  0
   37.1990   24.5850   30.6910 H   0  0  0  0  0  0  0  0  0  0  0  0
   35.8870   25.8020   33.2310 H   0  0  0  0  0  0  0  0  0  0  0  0
   37.5280   26.3300   32.6360 H   0  0  0  0  0  0  0  0  0  0  0  0
   38.5110   24.6520   33.8290 F   0  0  0  0  0  0  0  0  0  0  0  0
   37.7800   23.5540   33.5520 C   0  0  0  0  0  0  0  0  0  0  0  0
   36.9230   23.3930   32.4980 C   0  0  0  0  0  0  0  0  0  0  0  0
   36.2730   22.1540   32.3660 C   0  0  0  0  0  0  0  0  0  0  0  0
   36.4690   21.1200   33.2510 C   0  0  0  0  0  0  0  0  0  0  0  0
   37.3460   21.3110   34.3130 C   0  0  0  0  0  0  0  0  0  0  0  0
   38.0010   22.5450   34.4530 C   0  0  0  0  0  0  0  0  0  0  0  0
   35.6090   22.0750   31.5180 H   0  0  0  0  0  0  0  0  0  0  0  0
   35.9630   20.1770   33.1370 H   0  0  0  0  0  0  0  0  0  0  0  0
   37.4680   20.4710   34.9810 H   0  0  0  0  0  0  0  0  0  0  0  0
   38.8890   22.6050   35.5990 C   0  0  0  0  0  0  0  0  0  0  0  0
   38.5480   22.9490   36.8310 C   0  0  0  0  0  0  0  0  0  0  0  0
   37.6460   23.2500   37.3380 H   0  0  0  0  0  0  0  0  0  0  0  0
   39.3680   23.0140   37.8970 C   0  0  0  0  0  3  0  0  0  0  0  0
   40.7550   22.6370   37.5020 C   0  0  0  0  0  3  0  0  0  0  0  0
   40.5870   22.2560   35.6260 S   0  0  0  0  0  0  0  0  0  0  0  0
   36.3090   27.9470   30.9290 C   0  0  0  0  0  0  0  0  0  0  0  0
   35.9040   28.9930   31.7710 C   0  0  0  0  0  0  0  0  0  0  0  0
   36.2640   30.3080   31.4350 C   0  0  0  0  0  0  0  0  0  0  0  0
   37.0040   30.4710   30.2800 N   0  0  0  0  0  0  0  0  0  0  0  0
   37.3710   29.4510   29.5030 C   0  0  0  0  0  0  0  0  0  0  0  0
   37.0240   28.1820   29.8270 N   0  0  0  0  0  0  0  0  0  0  0  0
   35.3270   28.8210   32.6640 H   0  0  0  0  0  0  0  0  0  0  0  0
   35.9850   31.1670   32.0410 H   0  0  0  0  0  0  0  0  0  0  0  0
   37.9500   29.6010   28.6040 H   0  0  0  0  0  0  0  0  0  0  0  0
  1  5  1  0  0  0  0
  2  3  1  0  0  0  0
  2  6  1  0  0  0  0
  2  1  1  0  0  0  0
  3  4  1  0  0  0  0
  3  8  1  0  0  0  0
  4 10  1  6  0  0  0
  4  5  1  0  0  0  0
  4 15  1  0  0  0  0
  5 12  1  0  0  0  0
  5 11  1  0  0  0  0
  7  2  1  0  0  0  0
  9  3  1  0  0  0  0
 14 13  1  0  0  0  0
 14 19  1  0  0  0  0
 15 14  2  0  0  0  0
 16 15  1  0  0  0  0
 16 17  2  0  0  0  0
 17 18  1  0  0  0  0
 18 19  2  0  0  0  0
 18 22  1  0  0  0  0
 19 23  1  0  0  0  0
 20 16  1  0  0  0  0
 21 17  1  0  0  0  0
 23 28  1  0  0  0  0
 23 24  2  0  0  0  0
 24 25  1  0  0  0  0
 24 26  1  0  0  0  0
 27 26  2  0  0  0  0
 28 27  1  0  0  0  0
 29  1  1  0  0  0  0
 29 30  1  0  0  0  0
 30 35  1  0  0  0  0
 31 30  2  0  0  0  0
 31 36  1  0  0  0  0
 32 31  1  0  0  0  0
 33 34  1  0  0  0  0
 33 32  2  0  0  0  0
 34 29  2  0  0  0  0
 37 33  1  0  0  0  0
M  END
>  <minimizedAffinity>
-5.25406218

$$$$

 OpenBabel03272502403D

 37 40  0  0  1  0  0  0  0  0999 V2000
   35.4760   30.0260   34.1060 N   0  0  0  0  0  0  0  0  0  0  0  0
   35.4610   30.0500   32.6530 C   0  0  0  0  0  0  0  0  0  0  0  0
   36.2900   28.8550   32.2840 C   0  0  0  0  0  0  0  0  0  0  0  0
   36.8970   28.3350   33.6690 C   0  0  1  0  0  0  0  0  0  0  0  0
   35.7710   28.6500   34.5530 C   0  0  0  0  0  0  0  0  0  0  0  0
   34.4390   29.8870   32.2760 H   0  0  0  0  0  0  0  0  0  0  0  0
   35.9290   30.9770   32.2550 H   0  0  0  0  0  0  0  0  0  0  0  0
   35.6930   27.9890   31.9590 H   0  0  0  0  0  0  0  0  0  0  0  0
   37.1190   29.0490   31.6160 H   0  0  0  0  0  0  0  0  0  0  0  0
   37.7500   29.0280   33.7090 H   0  0  0  0  0  0  0  0  0  0  0  0
   34.8740   28.0270   34.3280 H   0  0  0  0  0  0  0  0  0  0  0  0
   35.9880   28.6500   35.6300 H   0  0  0  0  0  0  0  0  0  0  0  0
   38.2770   26.9090   35.6960 F   0  0  0  0  0  0  0  0  0  0  0  0
   37.8400   26.3090   34.5700 C   0  0  0  0  0  0  0  0  0  0  0  0
   37.2240   26.9190   33.5120 C   0  0  0  0  0  0  0  0  0  0  0  0
   36.8690   26.1200   32.4130 C   0  0  0  0  0  0  0  0  0  0  0  0
   37.1170   24.7670   32.3720 C   0  0  0  0  0  0  0  0  0  0  0  0
   37.7440   24.1740   33.4610 C   0  0  0  0  0  0  0  0  0  0  0  0
   38.1040   24.9640   34.5650 C   0  0  0  0  0  0  0  0  0  0  0  0
   36.3870   26.6460   31.6020 H   0  0  0  0  0  0  0  0  0  0  0  0
   36.8380   24.1690   31.5230 H   0  0  0  0  0  0  0  0  0  0  0  0
   37.9180   23.1100   33.3840 H   0  0  0  0  0  0  0  0  0  0  0  0
   38.7540   24.2190   35.6270 C   0  0  0  0  0  0  0  0  0  0  0  0
   39.9730   23.7040   35.5820 C   0  0  0  0  0  0  0  0  0  0  0  0
   40.7800   23.6630   34.8690 H   0  0  0  0  0  0  0  0  0  0  0  0
   40.5800   23.0060   36.5610 C   0  0  0  0  0  3  0  0  0  0  0  0
   39.6770   22.8830   37.7400 C   0  0  0  0  0  3  0  0  0  0  0  0
   38.0970   23.8240   37.1820 S   0  0  0  0  0  0  0  0  0  0  0  0
   35.2580   31.1110   34.9750 C   0  0  0  0  0  0  0  0  0  0  0  0
   34.0670   31.0800   35.7160 C   0  0  0  0  0  0  0  0  0  0  0  0
   33.7900   32.1410   36.5930 C   0  0  0  0  0  0  0  0  0  0  0  0
   34.7300   33.1500   36.6600 N   0  0  0  0  0  0  0  0  0  0  0  0
   35.8520   33.1460   35.9390 C   0  0  0  0  0  0  0  0  0  0  0  0
   36.1200   32.1230   35.0920 N   0  0  0  0  0  0  0  0  0  0  0  0
   33.3610   30.2710   35.6340 H   0  0  0  0  0  0  0  0  0  0  0  0
   32.8870   32.1830   37.1980 H   0  0  0  0  0  0  0  0  0  0  0  0
   36.5750   33.9460   36.0070 H   0  0  0  0  0  0  0  0  0  0  0  0
  1  5  1  0  0  0  0
  1 29  1  0  0  0  0
  2  1  1  0  0  0  0
  3  2  1  0  0  0  0
  3  4  1  0  0  0  0
  4 10  1  1  0  0  0
  4  5  1  0  0  0  0
  5 12  1  0  0  0  0
  6  2  1  0  0  0  0
  7  2  1  0  0  0  0
  8  3  1  0  0  0  0
  9  3  1  0  0  0  0
 11  5  1  0  0  0  0
 14 13  1  0  0  0  0
 15  4  1  0  0  0  0
 15 14  2  0  0  0  0
 16 15  1  0  0  0  0
 17 16  2  0  0  0  0
 17 18  1  0  0  0  0
 18 19  2  0  0  0  0
 19 14  1  0  0  0  0
 19 23  1  0  0  0  0
 20 16  1  0  0  0  0
 21 17  1  0  0  0  0
 22 18  1  0  0  0  0
 23 28  1  0  0  0  0
 24 23  2  0  0  0  0
 24 26  1  0  0  0  0
 25 24  1  0  0  0  0
 26 27  2  0  0  0  0
 28 27  1  0  0  0  0
 29 34  2  0  0  0  0
 29 30  1  0  0  0  0
 30 31  2  0  0  0  0
 31 32  1  0  0  0  0
 31 36  1  0  0  0  0
 33 37  1  0  0  0  0
 33 32  2  0  0  0  0
 34 33  1  0  0  0  0
 35 30  1  0  0  0  0
M  END
>  <minimizedAffinity>
-5.25153303

$$$$
