
 OpenBabel03272508543D

 35 38  0  0  1  0  0  0  0  0999 V2000
   38.3620   31.9040   44.5180 C   0  0  0  0  0  0  0  0  0  0  0  0
   37.2160   32.4230   44.4110 O   0  0  0  0  0  0  0  0  0  0  0  0
   38.9420   31.6860   45.8100 N   0  0  0  0  0  0  0  0  0  0  0  0
   39.9330   31.4510   45.9440 H   0  0  0  0  0  0  0  0  0  0  0  0
   39.1310   31.5120   43.3180 C   0  0  0  0  0  0  0  0  0  0  0  0
   40.1210   30.5770   43.4640 C   0  0  0  0  0  0  0  0  0  0  0  0
   40.8330   30.2230   42.3260 C   0  0  0  0  0  0  0  0  0  0  0  0
   40.5150   30.8140   41.1440 C   0  0  0  0  0  0  0  0  0  0  0  0
   39.5160   31.7560   41.0000 C   0  0  0  0  0  0  0  0  0  0  0  0
   38.8610   32.0640   42.1200 N   0  0  0  0  0  0  0  0  0  0  0  0
   40.3890   30.0940   44.3990 H   0  0  0  0  0  0  0  0  0  0  0  0
   41.6160   29.4910   42.4150 H   0  0  0  0  0  0  0  0  0  0  0  0
   41.1230   30.4820   40.2870 H   0  0  0  0  0  0  0  0  0  0  0  0
   39.2220   32.3490   39.7330 C   0  0  0  0  0  0  0  0  0  0  0  0
   38.7430   33.5400   39.3680 C   0  0  0  0  0  0  0  0  0  0  0  0
   38.5160   34.2370   40.1610 H   0  0  0  0  0  0  0  0  0  0  0  0
   38.5460   33.8720   38.0610 C   0  0  0  0  0  3  0  0  0  0  0  0
   38.9020   32.8190   37.0960 C   0  0  0  0  0  3  0  0  0  0  0  0
   39.4950   31.4340   38.2250 S   0  0  0  0  0  0  0  0  0  0  0  0
   38.4390   31.1520   48.1960 C   0  0  2  0  0  0  0  0  0  0  0  0
   38.7310   32.5940   48.1340 C   0  0  0  0  0  0  0  0  0  0  0  0
   38.0720   31.8090   46.9670 C   0  0  1  0  0  0  0  0  0  0  0  0
   39.3650   30.5190   48.2440 H   0  0  0  0  0  0  0  0  0  0  0  0
   38.0610   33.3440   48.5920 H   0  0  0  0  0  0  0  0  0  0  0  0
   39.7630   32.9350   47.9990 H   0  0  0  0  0  0  0  0  0  0  0  0
   37.0060   32.0590   46.7750 H   0  0  0  0  0  0  0  0  0  0  0  0
   35.1100   30.2450   49.5140 C   0  0  0  0  0  0  0  0  0  0  0  0
   35.4360   29.5560   50.7260 C   0  0  0  0  0  0  0  0  0  0  0  0
   36.8360   29.4290   51.0580 C   0  0  0  0  0  0  0  0  0  0  0  0
   37.7680   29.9600   50.2220 N   0  0  0  0  0  0  0  0  0  0  0  0
   37.3810   30.6030   49.0860 C   0  0  0  0  0  0  0  0  0  0  0  0
   36.0630   30.7590   48.7080 N   0  0  0  0  0  0  0  0  0  0  0  0
   34.0470   30.3020   49.3270 H   0  0  0  0  0  0  0  0  0  0  0  0
   34.6700   29.1550   51.3520 H   0  0  0  0  0  0  0  0  0  0  0  0
   37.0930   28.9100   51.9710 H   0  0  0  0  0  0  0  0  0  0  0  0
  1  3  1  0  0  0  0
  2  1  2  0  0  0  0
  3  4  1  0  0  0  0
  3 22  1  0  0  0  0
  5  6  1  0  0  0  0
  5  1  1  0  0  0  0
  6 11  1  0  0  0  0
  7 12  1  0  0  0  0
  7  6  2  0  0  0  0
  8  7  1  0  0  0  0
  9  8  2  0  0  0  0
  9 10  1  0  0  0  0
 10  5  2  0  0  0  0
 13  8  1  0  0  0  0
 14  9  1  0  0  0  0
 15 14  2  0  0  0  0
 15 16  1  0  0  0  0
 17 15  1  0  0  0  0
 18 17  2  0  0  0  0
 18 19  1  0  0  0  0
 19 14  1  0  0  0  0
 20 23  1  6  0  0  0
 20 31  1  0  0  0  0
 21 20  1  0  0  0  0
 21 24  1  0  0  0  0
 22 26  1  6  0  0  0
 22 21  1  0  0  0  0
 22 20  1  0  0  0  0
 25 21  1  0  0  0  0
 27 28  1  0  0  0  0
 28 29  2  0  0  0  0
 28 34  1  0  0  0  0
 29 35  1  0  0  0  0
 30 29  1  0  0  0  0
 31 30  2  0  0  0  0
 32 31  1  0  0  0  0
 32 27  2  0  0  0  0
 33 27  1  0  0  0  0
M  END
>  <minimizedAffinity>
-5.13775206

>  <minimizedRMSD>
0.244844839

$$$$
