
 OpenBabel03272510273D

 42 46  0  0  1  0  0  0  0  0999 V2000
   35.3340   30.0030   47.0780 C   0  0  0  0  0  0  0  0  0  0  0  0
   36.6000   30.3000   47.5190 C   0  0  0  0  0  0  0  0  0  0  0  0
   37.6240   30.6410   46.6200 C   0  0  0  0  0  0  0  0  0  0  0  0
   37.2680   30.6560   45.2700 C   0  0  0  0  0  0  0  0  0  0  0  0
   38.0820   30.9580   44.2030 N   0  0  0  0  0  0  0  0  0  0  0  0
   37.3130   30.8480   43.1080 C   0  0  0  0  0  0  0  0  0  0  0  0
   36.0910   30.4970   43.4580 N   0  0  0  0  0  0  0  0  0  0  0  0
   36.0210   30.3680   44.7920 C   0  0  0  0  0  0  0  0  0  0  0  0
   35.0330   30.0330   45.7260 C   0  0  0  0  0  0  0  0  0  0  0  0
   34.5370   29.7390   47.7680 H   0  0  0  0  0  0  0  0  0  0  0  0
   38.6320   30.8790   46.9370 H   0  0  0  0  0  0  0  0  0  0  0  0
   39.0950   31.2200   44.2450 H   0  0  0  0  0  0  0  0  0  0  0  0
   34.0400   29.8030   45.3560 H   0  0  0  0  0  0  0  0  0  0  0  0
   38.0720   30.7000   50.9630 C   0  0  0  0  0  0  0  0  0  0  0  0
   37.9600   30.8370   49.5810 C   0  0  0  0  0  0  0  0  0  0  0  0
   36.8920   30.2660   48.9410 C   0  0  0  0  0  0  0  0  0  0  0  0
   35.9830   29.5830   49.7230 N   0  0  0  0  0  0  0  0  0  0  0  0
   36.1000   29.4560   51.0600 C   0  0  0  0  0  0  0  0  0  0  0  0
   37.1290   30.0070   51.6630 N   0  0  0  0  0  0  0  0  0  0  0  0
   38.9320   31.1660   51.4350 H   0  0  0  0  0  0  0  0  0  0  0  0
   38.6620   31.3680   48.9540 H   0  0  0  0  0  0  0  0  0  0  0  0
   35.3280   28.8970   51.5780 H   0  0  0  0  0  0  0  0  0  0  0  0
   37.8040   31.0850   41.8240 O   0  0  0  0  0  0  0  0  0  0  0  0
   38.2510   28.8280   41.9880 N   0  0  0  0  0  0  0  0  0  0  0  0
   38.0870   29.9290   41.0520 C   0  0  1  0  0  0  0  0  0  0  0  0
   37.0060   29.6480   40.1200 C   0  0  0  0  0  0  0  0  0  0  0  0
   37.3390   28.5140   39.3610 O   0  0  0  0  0  0  0  0  0  0  0  0
   37.6580   27.4030   40.0870 C   0  0  0  0  0  0  0  0  0  0  0  0
   38.6590   27.6970   41.1690 C   0  0  1  0  0  0  0  0  0  0  0  0
   37.4440   28.5110   42.4960 H   0  0  0  0  0  0  0  0  0  0  0  0
   39.0530   30.0070   40.5250 H   0  0  0  0  0  0  0  0  0  0  0  0
   35.9960   29.4820   40.3830 H   0  0  0  0  0  0  0  0  0  0  0  0
   37.0040   30.4810   39.3510 H   0  0  0  0  0  0  0  0  0  0  0  0
   36.7670   26.9770   40.5890 H   0  0  0  0  0  0  0  0  0  0  0  0
   38.1160   26.6760   39.3860 H   0  0  0  0  0  0  0  0  0  0  0  0
   38.7390   26.7670   41.7740 H   0  0  0  0  0  0  0  0  0  0  0  0
   39.9360   28.0550   40.5200 C   0  0  0  0  0  0  0  0  0  0  0  0
   40.3700   27.8390   39.2820 C   0  0  0  0  0  0  0  0  0  0  0  0
   39.7110   27.3110   38.5810 H   0  0  0  0  0  0  0  0  0  0  0  0
   41.6070   28.2560   38.8610 C   0  0  0  0  0  3  0  0  0  0  0  0
   42.3630   28.9350   39.8840 C   0  0  0  0  0  3  0  0  0  0  0  0
   41.2820   28.9280   41.3280 S   0  0  0  0  0  0  0  0  0  0  0  0
  1  2  1  0  0  0  0
  1 10  1  0  0  0  0
  2 16  1  0  0  0  0
  3 11  1  0  0  0  0
  3  2  2  0  0  0  0
  4  3  1  0  0  0  0
  5 12  1  0  0  0  0
  5  4  1  0  0  0  0
  6  7  2  0  0  0  0
  6  5  1  0  0  0  0
  7  8  1  0  0  0  0
  8  4  2  0  0  0  0
  8  9  1  0  0  0  0
  9  1  2  0  0  0  0
 13  9  1  0  0  0  0
 14 20  1  0  0  0  0
 14 19  1  0  0  0  0
 15 14  2  0  0  0  0
 16 15  1  0  0  0  0
 16 17  2  0  0  0  0
 17 18  1  0  0  0  0
 18 22  1  0  0  0  0
 18 19  2  0  0  0  0
 21 15  1  0  0  0  0
 23  6  1  0  0  0  0
 24 30  1  0  0  0  0
 25 31  1  6  0  0  0
 25 23  1  0  0  0  0
 25 24  1  0  0  0  0
 26 32  1  0  0  0  0
 26 25  1  0  0  0  0
 27 28  1  0  0  0  0
 27 26  1  0  0  0  0
 28 34  1  0  0  0  0
 28 29  1  0  0  0  0
 29 36  1  1  0  0  0
 29 24  1  0  0  0  0
 33 26  1  0  0  0  0
 35 28  1  0  0  0  0
 37 29  1  0  0  0  0
 37 42  1  0  0  0  0
 38 37  2  0  0  0  0
 39 38  1  0  0  0  0
 40 38  1  0  0  0  0
 40 41  2  0  0  0  0
 41 42  1  0  0  0  0
M  END
>  <minimizedAffinity>
-4.98072767

>  <minimizedRMSD>
3.21570992

$$$$
