
 OpenBabel03262523093D

 17 18  0  0  0  0  0  0  0  0999 V2000
   37.5670   30.1450   50.7880 C   0  0  0  0  0  0  0  0  0  0  0  0
   38.2240   31.1720   50.0770 C   0  0  0  0  0  0  0  0  0  0  0  0
   37.7500   31.5130   48.8120 C   0  0  0  0  0  0  0  0  0  0  0  0
   36.6770   30.8320   48.3380 N   0  0  0  0  0  0  0  0  0  0  0  0
   36.0690   29.8620   49.0280 C   0  0  0  0  0  0  0  0  0  0  0  0
   36.5030   29.5190   50.2390 N   0  0  0  0  0  0  0  0  0  0  0  0
   39.0680   31.6580   50.5330 H   0  0  0  0  0  0  0  0  0  0  0  0
   38.2330   32.2950   48.2470 H   0  0  0  0  0  0  0  0  0  0  0  0
   34.9130   29.1540   48.4770 C   0  0  0  0  0  0  0  0  0  0  0  0
   34.3520   28.0150   48.8770 C   0  0  0  0  0  0  0  0  0  0  0  0
   34.7680   27.4760   49.7440 H   0  0  0  0  0  0  0  0  0  0  0  0
   33.2580   27.5070   48.2190 C   0  0  0  0  0  0  0  0  0  0  0  0
   32.8130   28.2740   47.1340 C   0  0  0  0  0  0  0  0  0  0  0  0
   33.9850   29.6910   47.1040 S   0  0  0  0  0  0  0  0  0  0  0  0
   37.9880   29.7320   52.0930 N   0  0  0  0  0  0  0  0  0  0  0  0
   39.0100   29.6070   52.3300 H   0  0  0  0  0  0  0  0  0  0  0  0
   37.3060   29.5470   52.8360 H   0  0  0  0  0  0  0  0  0  0  0  0
  1 15  1  0  0  0  0
  2  7  1  0  0  0  0
  2  1  2  0  0  0  0
  3  2  1  0  0  0  0
  4  3  2  0  0  0  0
  4  5  1  0  0  0  0
  5  6  2  0  0  0  0
  6  1  1  0  0  0  0
  8  3  1  0  0  0  0
  9 10  2  0  0  0  0
  9  5  1  0  0  0  0
 10 11  1  0  0  0  0
 12 10  1  0  0  0  0
 13 12  2  0  0  0  0
 14 13  1  0  0  0  0
 14  9  1  0  0  0  0
 15 16  1  0  0  0  0
 15 17  1  0  0  0  0
M  END
>  <minimizedAffinity>
-4.52410412

>  <minimizedRMSD>
0.953116

$$$$
