
 OpenBabel03272510303D

 25 27  0  0  0  0  0  0  0  0999 V2000
   37.3730   31.4040   49.3680 C   0  0  0  0  0  0  0  0  0  0  0  0
   38.2820   32.4540   49.5510 C   0  0  0  0  0  0  0  0  0  0  0  0
   38.8680   32.9600   48.4240 C   0  0  0  0  0  0  0  0  0  0  0  0
   38.5520   32.4370   47.2120 N   0  0  0  0  0  0  0  0  0  0  0  0
   37.6670   31.4210   47.0650 C   0  0  0  0  0  0  0  0  0  0  0  0
   37.0590   30.8870   48.1790 N   0  0  0  0  0  0  0  0  0  0  0  0
   38.4900   32.8250   50.5360 H   0  0  0  0  0  0  0  0  0  0  0  0
   39.5640   33.7650   48.5760 H   0  0  0  0  0  0  0  0  0  0  0  0
   36.6770   30.8410   50.5790 C   0  0  0  0  0  0  0  0  0  0  0  0
   36.0880   29.5280   50.6090 C   0  0  0  0  0  0  0  0  0  0  0  0
   37.4620   29.6990   51.2310 C   0  0  0  0  0  0  0  0  0  0  0  0
   36.3290   31.6390   51.3030 H   0  0  0  0  0  0  0  0  0  0  0  0
   35.2040   29.3480   51.2500 H   0  0  0  0  0  0  0  0  0  0  0  0
   36.1160   28.9240   49.6580 H   0  0  0  0  0  0  0  0  0  0  0  0
   38.3470   29.3000   50.7230 H   0  0  0  0  0  0  0  0  0  0  0  0
   37.4170   29.6980   52.3260 H   0  0  0  0  0  0  0  0  0  0  0  0
   37.3020   30.8740   45.7700 C   0  0  0  0  0  0  0  0  0  0  0  0
   36.9200   29.8160   45.8010 H   0  0  0  0  0  0  0  0  0  0  0  0
   36.3840   31.4500   45.4400 H   0  0  0  0  0  0  0  0  0  0  0  0
   38.3250   31.0480   44.7280 C   0  0  0  0  0  0  0  0  0  0  0  0
   39.4860   30.3000   44.4320 C   0  0  0  0  0  0  0  0  0  0  0  0
   39.6780   29.4540   45.0640 H   0  0  0  0  0  0  0  0  0  0  0  0
   40.2550   30.7080   43.3800 C   0  0  0  0  0  3  0  0  0  0  0  0
   39.8700   31.8550   42.6310 C   0  0  0  0  0  3  0  0  0  0  0  0
   38.3040   32.3990   43.4710 S   0  0  0  0  0  0  0  0  0  0  0  0
  1  2  1  0  0  0  0
  1  9  1  0  0  0  0
  2  7  1  0  0  0  0
  3  8  1  0  0  0  0
  3  2  2  0  0  0  0
  4  3  1  0  0  0  0
  5  4  2  0  0  0  0
  5  6  1  0  0  0  0
  6  1  2  0  0  0  0
  9 10  1  0  0  0  0
  9 11  1  0  0  0  0
  9 12  1  0  0  0  0
 10 11  1  0  0  0  0
 10 13  1  0  0  0  0
 11 16  1  0  0  0  0
 14 10  1  0  0  0  0
 15 11  1  0  0  0  0
 17 18  1  0  0  0  0
 17  5  1  0  0  0  0
 19 17  1  0  0  0  0
 20 17  1  0  0  0  0
 21 20  2  0  0  0  0
 21 22  1  0  0  0  0
 23 21  1  0  0  0  0
 24 23  2  0  0  0  0
 24 25  1  0  0  0  0
 25 20  1  0  0  0  0
M  END
>  <minimizedAffinity>
-5.03673267

>  <minimizedRMSD>
2.57124567

$$$$
