
 OpenBabel03262523413D

 35 37  0  0  1  0  0  0  0  0999 V2000
   37.2090   29.2400   50.6740 C   0  0  0  0  0  0  0  0  0  0  0  0
   36.7190   29.1140   49.3780 C   0  0  0  0  0  0  0  0  0  0  0  0
   35.3730   29.1740   49.0840 C   0  0  0  0  0  0  0  0  0  0  0  0
   34.5740   29.3620   50.1550 N   0  0  0  0  0  0  0  0  0  0  0  0
   35.0090   29.4880   51.4210 C   0  0  0  0  0  0  0  0  0  0  0  0
   36.3340   29.4250   51.6690 N   0  0  0  0  0  0  0  0  0  0  0  0
   34.8940   29.0480   47.7750 N   0  0  0  0  0  0  0  0  0  0  0  0
   34.2560   27.8020   47.4460 C   0  0  0  0  0  0  0  0  0  0  0  0
   33.6120   27.7560   46.1020 C   0  0  0  0  0  0  0  0  0  0  0  0
   33.7570   28.8370   45.2570 N   0  0  0  0  0  0  0  0  0  0  0  0
   34.7090   29.8190   45.4520 C   0  0  0  0  0  0  0  0  0  0  0  0
   35.0660   30.1550   46.8710 C   0  0  2  0  0  0  0  0  0  0  0  0
   38.2600   29.1960   50.9260 H   0  0  0  0  0  0  0  0  0  0  0  0
   37.5070   28.9630   48.6590 H   0  0  0  0  0  0  0  0  0  0  0  0
   34.3070   29.6380   52.2330 H   0  0  0  0  0  0  0  0  0  0  0  0
   33.5530   27.5740   48.2760 H   0  0  0  0  0  0  0  0  0  0  0  0
   35.0710   27.0290   47.5440 H   0  0  0  0  0  0  0  0  0  0  0  0
   32.5080   27.5980   46.2720 H   0  0  0  0  0  0  0  0  0  0  0  0
   33.9440   26.8230   45.5970 H   0  0  0  0  0  0  0  0  0  0  0  0
   32.9050   29.1010   44.7460 H   0  0  0  0  0  0  0  0  0  0  0  0
   35.6460   29.4570   44.9150 H   0  0  0  0  0  0  0  0  0  0  0  0
   34.3940   30.7310   44.9360 H   0  0  0  0  0  0  0  0  0  0  0  0
   34.4280   30.9810   47.2640 H   0  0  0  0  0  0  0  0  0  0  0  0
   36.4720   30.6830   46.8220 C   0  0  0  0  0  0  0  0  0  0  0  0
   36.6390   31.6480   47.2870 H   0  0  0  0  0  0  0  0  0  0  0  0
   37.1340   29.9350   47.3570 H   0  0  0  0  0  0  0  0  0  0  0  0
   36.8970   30.6190   45.3560 C   0  0  0  0  0  0  0  0  0  0  0  0
   36.9360   29.6140   44.9610 H   0  0  0  0  0  0  0  0  0  0  0  0
   36.3470   31.3400   44.7360 H   0  0  0  0  0  0  0  0  0  0  0  0
   38.3440   31.1560   45.2830 C   0  0  0  0  0  0  0  0  0  0  0  0
   39.4920   30.6390   45.7760 C   0  0  0  0  0  0  0  0  0  0  0  0
   39.4090   29.7060   46.3110 H   0  0  0  0  0  0  0  0  0  0  0  0
   40.6330   31.3330   45.5590 C   0  0  0  0  0  3  0  0  0  0  0  0
   40.5650   32.5350   44.8440 C   0  0  0  0  0  3  0  0  0  0  0  0
   38.7000   32.6090   44.4890 S   0  0  0  0  0  0  0  0  0  0  0  0
  1 13  1  0  0  0  0
  1  6  1  0  0  0  0
  2  1  2  0  0  0  0
  3  2  1  0  0  0  0
  3  4  2  0  0  0  0
  4  5  1  0  0  0  0
  5  6  2  0  0  0  0
  5 15  1  0  0  0  0
  7  3  1  0  0  0  0
  8 17  1  0  0  0  0
  8  7  1  0  0  0  0
  8 16  1  0  0  0  0
  9 18  1  0  0  0  0
  9  8  1  0  0  0  0
 10 11  1  0  0  0  0
 10  9  1  0  0  0  0
 11 12  1  0  0  0  0
 12 23  1  1  0  0  0
 12  7  1  0  0  0  0
 14  2  1  0  0  0  0
 19  9  1  0  0  0  0
 20 10  1  0  0  0  0
 21 11  1  0  0  0  0
 22 11  1  0  0  0  0
 24 12  1  0  0  0  0
 24 25  1  0  0  0  0
 24 26  1  0  0  0  0
 27 24  1  0  0  0  0
 28 27  1  0  0  0  0
 29 27  1  0  0  0  0
 30 27  1  0  0  0  0
 30 31  2  0  0  0  0
 31 32  1  0  0  0  0
 33 31  1  0  0  0  0
 34 33  2  0  0  0  0
 35 34  1  0  0  0  0
 35 30  1  0  0  0  0
M  END
>  <minimizedAffinity>
-4.57617426

>  <minimizedRMSD>
5.372262

$$$$
