
 OpenBabel03262521213D

 30 31  0  0  0  0  0  0  0  0999 V2000
   38.2140   32.4300   48.8250 C   0  0  0  0  0  0  0  0  0  0  0  0
   37.1640   32.4880   48.4400 H   0  0  0  0  0  0  0  0  0  0  0  0
   38.4910   33.4910   49.0490 H   0  0  0  0  0  0  0  0  0  0  0  0
   38.4160   31.5660   49.8520 C   0  0  0  0  0  0  0  0  0  0  0  0
   38.9640   30.6470   49.4720 H   0  0  0  0  0  0  0  0  0  0  0  0
   39.1120   31.8730   50.6750 H   0  0  0  0  0  0  0  0  0  0  0  0
   37.1900   31.0430   50.5210 C   0  0  0  0  0  0  0  0  0  0  0  0
   36.3240   31.6530   50.1990 H   0  0  0  0  0  0  0  0  0  0  0  0
   37.2190   31.1770   51.6420 H   0  0  0  0  0  0  0  0  0  0  0  0
   36.8600   29.3220   50.1970 S   0  0  0  0  0  0  0  0  0  0  0  0
   35.5430   28.9970   49.1270 C   0  0  0  0  0  0  0  0  0  0  0  0
   34.5490   28.0560   49.0950 C   0  0  0  0  0  0  0  0  0  0  0  0
   34.5630   27.3420   49.9080 H   0  0  0  0  0  0  0  0  0  0  0  0
   33.6220   28.0300   48.1140 C   0  0  0  0  0  0  0  0  0  0  0  0
   33.7240   29.0220   47.1180 C   0  0  0  0  0  0  0  0  0  0  0  0
   35.2350   30.0540   47.6120 S   0  0  0  0  0  0  0  0  0  0  0  0
   39.1160   31.9450   47.9290 O   0  0  0  0  0  0  0  0  0  0  0  0
   38.9840   32.2900   46.6060 C   0  0  0  0  0  0  0  0  0  0  0  0
   40.1500   32.7630   46.0690 C   0  0  0  0  0  0  0  0  0  0  0  0
   40.1780   33.1590   44.7200 C   0  0  0  0  0  0  0  0  0  0  0  0
   38.9940   33.0400   44.0100 N   0  0  0  0  0  0  0  0  0  0  0  0
   37.8540   32.5650   44.5800 C   0  0  0  0  0  0  0  0  0  0  0  0
   37.8740   32.2000   45.8660 N   0  0  0  0  0  0  0  0  0  0  0  0
   36.8870   32.8540   42.4200 C   0  0  0  0  0  0  0  0  0  0  0  0
   37.9900   33.2490   41.8970 O   0  0  0  0  0  0  0  0  0  0  0  0
   36.6960   32.4810   43.7710 N   0  0  0  0  0  0  0  0  0  0  0  0
   41.0880   32.8790   46.5530 H   0  0  0  0  0  0  0  0  0  0  0  0
   41.0630   33.5380   44.2450 H   0  0  0  0  0  0  0  0  0  0  0  0
   36.1110   32.8470   41.6670 H   0  0  0  0  0  0  0  0  0  0  0  0
   35.7570   32.1720   44.0980 H   0  0  0  0  0  0  0  0  0  0  0  0
  1  3  1  0  0  0  0
  1  4  1  0  0  0  0
  2  1  1  0  0  0  0
  4  7  1  0  0  0  0
  4  6  1  0  0  0  0
  5  4  1  0  0  0  0
  7  9  1  0  0  0  0
  8  7  1  0  0  0  0
 10  7  1  0  0  0  0
 11 10  1  0  0  0  0
 12 11  2  0  0  0  0
 12 13  1  0  0  0  0
 14 12  1  0  0  0  0
 15 16  1  0  0  0  0
 15 14  2  0  0  0  0
 16 11  1  0  0  0  0
 17  1  1  0  0  0  0
 18 17  1  0  0  0  0
 19 27  1  0  0  0  0
 19 18  1  0  0  0  0
 20 19  2  0  0  0  0
 21 22  2  0  0  0  0
 21 20  1  0  0  0  0
 22 23  1  0  0  0  0
 23 18  2  0  0  0  0
 24 26  1  0  0  0  0
 25 24  2  0  0  0  0
 26 30  1  0  0  0  0
 26 22  1  0  0  0  0
 28 20  1  0  0  0  0
 29 24  1  0  0  0  0
M  END
>  <minimizedAffinity>
-5.4490962

>  <minimizedRMSD>
2.1413002

$$$$
