
 OpenBabel03272500203D

 31 33  0  0  0  0  0  0  0  0999 V2000
   36.3620   30.7680   31.0540 C   0  0  0  0  0  0  0  0  0  0  0  0
   36.6040   29.3700   30.8770 C   0  0  0  0  0  0  0  0  0  0  0  0
   35.8700   28.4710   31.6280 C   0  0  0  0  0  0  0  0  0  0  0  0
   34.9490   28.9970   32.4990 N   0  0  0  0  0  0  0  0  0  0  0  0
   34.7310   30.2800   32.6560 C   0  0  0  0  0  0  0  0  0  0  0  0
   35.4270   31.1550   31.9440 N   0  0  0  0  0  0  0  0  0  0  0  0
   36.9670   31.4190   30.4400 H   0  0  0  0  0  0  0  0  0  0  0  0
   35.7770   30.9740   35.4210 Cl  0  0  0  0  0  0  0  0  0  0  0  0
   34.0850   31.0790   34.9220 C   0  0  0  0  0  0  0  0  0  0  0  0
   33.7190   30.7320   33.6070 C   0  0  0  0  0  0  0  0  0  0  0  0
   32.4040   30.8000   33.1760 C   0  0  0  0  0  0  0  0  0  0  0  0
   31.4600   31.2320   34.1130 C   0  0  0  0  0  0  0  0  0  0  0  0
   31.7890   31.5750   35.3970 C   0  0  0  0  0  0  0  0  0  0  0  0
   30.5200   32.1000   36.4730 Cl  0  0  0  0  0  0  0  0  0  0  0  0
   33.1190   31.4940   35.7950 C   0  0  0  0  0  0  0  0  0  0  0  0
   32.1380   30.5320   32.1690 H   0  0  0  0  0  0  0  0  0  0  0  0
   30.4290   31.2870   33.7840 H   0  0  0  0  0  0  0  0  0  0  0  0
   33.4870   31.8620   37.1780 C   0  0  0  0  0  0  0  0  0  0  0  0
   32.9290   33.0940   37.5270 F   0  0  0  0  0  0  0  0  0  0  0  0
   34.8210   31.8410   37.3980 F   0  0  0  0  0  0  0  0  0  0  0  0
   32.9130   30.9520   38.0620 F   0  0  0  0  0  0  0  0  0  0  0  0
   35.9560   27.0420   31.5190 C   0  0  0  0  0  0  0  0  0  0  0  0
   35.5110   25.9570   30.8640 C   0  0  0  0  0  0  0  0  0  0  0  0
   34.8140   26.0840   30.0830 H   0  0  0  0  0  0  0  0  0  0  0  0
   35.8570   24.6910   31.1310 C   0  0  0  0  0  3  0  0  0  0  0  0
   36.7710   24.4110   32.1910 C   0  0  0  0  0  3  0  0  0  0  0  0
   37.0530   26.1890   32.7330 S   0  0  0  0  0  0  0  0  0  0  0  0
   37.6530   28.9340   29.9090 C   0  0  0  0  0  0  0  0  0  0  0  0
   38.5900   28.1010   30.5080 F   0  0  0  0  0  0  0  0  0  0  0  0
   37.0450   28.3290   28.8510 F   0  0  0  0  0  0  0  0  0  0  0  0
   38.3630   30.0210   29.3930 F   0  0  0  0  0  0  0  0  0  0  0  0
  1  6  1  0  0  0  0
  2  1  2  0  0  0  0
  2  3  1  0  0  0  0
  3  4  2  0  0  0  0
  4  5  1  0  0  0  0
  5 10  1  0  0  0  0
  6  5  2  0  0  0  0
  7  1  1  0  0  0  0
  9  8  1  0  0  0  0
  9 15  1  0  0  0  0
 10  9  2  0  0  0  0
 11 10  1  0  0  0  0
 11 12  2  0  0  0  0
 12 13  1  0  0  0  0
 13 15  2  0  0  0  0
 13 14  1  0  0  0  0
 15 18  1  0  0  0  0
 16 11  1  0  0  0  0
 17 12  1  0  0  0  0
 18 20  1  0  0  0  0
 18 19  1  0  0  0  0
 18 21  1  0  0  0  0
 22  3  1  0  0  0  0
 22 27  1  0  0  0  0
 23 25  1  0  0  0  0
 23 22  2  0  0  0  0
 24 23  1  0  0  0  0
 25 26  2  0  0  0  0
 26 27  1  0  0  0  0
 28 29  1  0  0  0  0
 28  2  1  0  0  0  0
 30 28  1  0  0  0  0
 31 28  1  0  0  0  0
M  END
>  <minimizedAffinity>
-5.8916235

$$$$

 OpenBabel03272500203D

 31 33  0  0  0  0  0  0  0  0999 V2000
   35.3850   28.3390   32.0330 C   0  0  0  0  0  0  0  0  0  0  0  0
   36.3240   27.3560   32.4750 C   0  0  0  0  0  0  0  0  0  0  0  0
   36.8630   27.4770   33.7430 C   0  0  0  0  0  0  0  0  0  0  0  0
   36.4470   28.5490   34.4930 N   0  0  0  0  0  0  0  0  0  0  0  0
   35.5840   29.4470   34.0810 C   0  0  0  0  0  0  0  0  0  0  0  0
   35.0600   29.3440   32.8690 N   0  0  0  0  0  0  0  0  0  0  0  0
   35.0010   28.1890   31.0350 H   0  0  0  0  0  0  0  0  0  0  0  0
   32.6990   29.4030   35.0300 Cl  0  0  0  0  0  0  0  0  0  0  0  0
   33.8910   30.6320   35.4670 C   0  0  0  0  0  0  0  0  0  0  0  0
   35.2040   30.5450   34.9660 C   0  0  0  0  0  0  0  0  0  0  0  0
   36.1680   31.4870   35.2850 C   0  0  0  0  0  0  0  0  0  0  0  0
   35.7700   32.5290   36.1300 C   0  0  0  0  0  0  0  0  0  0  0  0
   34.5000   32.6360   36.6310 C   0  0  0  0  0  0  0  0  0  0  0  0
   34.1260   33.9810   37.6770 Cl  0  0  0  0  0  0  0  0  0  0  0  0
   33.5590   31.6720   36.2890 C   0  0  0  0  0  0  0  0  0  0  0  0
   37.1680   31.4090   34.8950 H   0  0  0  0  0  0  0  0  0  0  0  0
   36.5190   33.2700   36.3840 H   0  0  0  0  0  0  0  0  0  0  0  0
   32.1840   31.7770   36.8230 C   0  0  0  0  0  0  0  0  0  0  0  0
   31.2450   31.5700   35.8100 F   0  0  0  0  0  0  0  0  0  0  0  0
   31.9560   32.9340   37.4830 F   0  0  0  0  0  0  0  0  0  0  0  0
   31.9630   30.7410   37.7260 F   0  0  0  0  0  0  0  0  0  0  0  0
   37.7680   26.5410   34.3480 C   0  0  0  0  0  0  0  0  0  0  0  0
   37.8700   25.4540   35.1290 C   0  0  0  0  0  0  0  0  0  0  0  0
   36.9890   25.0140   35.5080 H   0  0  0  0  0  0  0  0  0  0  0  0
   39.0150   24.8730   35.5070 C   0  0  0  0  0  3  0  0  0  0  0  0
   40.2640   25.4110   35.0740 C   0  0  0  0  0  3  0  0  0  0  0  0
   39.5670   26.8390   34.0700 S   0  0  0  0  0  0  0  0  0  0  0  0
   36.7070   26.2500   31.5470 C   0  0  0  0  0  0  0  0  0  0  0  0
   38.0250   26.3670   31.1260 F   0  0  0  0  0  0  0  0  0  0  0  0
   36.4810   25.0610   32.1710 F   0  0  0  0  0  0  0  0  0  0  0  0
   35.9200   26.2510   30.3930 F   0  0  0  0  0  0  0  0  0  0  0  0
  1  2  2  0  0  0  0
  1  6  1  0  0  0  0
  2  3  1  0  0  0  0
  3 22  1  0  0  0  0
  3  4  2  0  0  0  0
  5  4  1  0  0  0  0
  5 10  1  0  0  0  0
  6  5  2  0  0  0  0
  7  1  1  0  0  0  0
  8  9  1  0  0  0  0
  9 15  1  0  0  0  0
 10 11  1  0  0  0  0
 10  9  2  0  0  0  0
 11 12  2  0  0  0  0
 12 17  1  0  0  0  0
 12 13  1  0  0  0  0
 13 14  1  0  0  0  0
 15 13  2  0  0  0  0
 15 18  1  0  0  0  0
 16 11  1  0  0  0  0
 18 20  1  0  0  0  0
 18 21  1  0  0  0  0
 19 18  1  0  0  0  0
 22 23  2  0  0  0  0
 23 25  1  0  0  0  0
 23 24  1  0  0  0  0
 26 25  2  0  0  0  0
 27 22  1  0  0  0  0
 27 26  1  0  0  0  0
 28 30  1  0  0  0  0
 28  2  1  0  0  0  0
 29 28  1  0  0  0  0
 31 28  1  0  0  0  0
M  END
>  <minimizedAffinity>
-5.86995268

$$$$

 OpenBabel03272500203D

 31 33  0  0  0  0  0  0  0  0999 V2000
   36.9070   29.2360   31.3240 C   0  0  0  0  0  0  0  0  0  0  0  0
   37.6250   28.1140   31.8440 C   0  0  0  0  0  0  0  0  0  0  0  0
   37.2180   27.5660   33.0460 C   0  0  0  0  0  0  0  0  0  0  0  0
   36.1370   28.1500   33.6590 N   0  0  0  0  0  0  0  0  0  0  0  0
   35.4820   29.1780   33.1760 C   0  0  0  0  0  0  0  0  0  0  0  0
   35.8610   29.7150   32.0260 N   0  0  0  0  0  0  0  0  0  0  0  0
   37.2740   29.6190   30.3830 H   0  0  0  0  0  0  0  0  0  0  0  0
   36.1790   30.8420   35.6200 Cl  0  0  0  0  0  0  0  0  0  0  0  0
   34.5380   30.5010   35.0600 C   0  0  0  0  0  0  0  0  0  0  0  0
   34.3390   29.7170   33.9080 C   0  0  0  0  0  0  0  0  0  0  0  0
   33.0690   29.4270   33.4360 C   0  0  0  0  0  0  0  0  0  0  0  0
   31.9960   29.9530   34.1630 C   0  0  0  0  0  0  0  0  0  0  0  0
   32.1630   30.7190   35.2860 C   0  0  0  0  0  0  0  0  0  0  0  0
   30.7440   31.3200   36.1060 Cl  0  0  0  0  0  0  0  0  0  0  0  0
   33.4520   30.9890   35.7300 C   0  0  0  0  0  0  0  0  0  0  0  0
   32.9300   28.8260   32.5550 H   0  0  0  0  0  0  0  0  0  0  0  0
   30.9990   29.7310   33.8010 H   0  0  0  0  0  0  0  0  0  0  0  0
   33.6450   31.8140   36.9420 C   0  0  0  0  0  0  0  0  0  0  0  0
   33.0550   33.0700   36.7830 F   0  0  0  0  0  0  0  0  0  0  0  0
   34.9410   31.9180   37.3150 F   0  0  0  0  0  0  0  0  0  0  0  0
   32.9590   31.2340   38.0060 F   0  0  0  0  0  0  0  0  0  0  0  0
   37.7980   26.4060   33.6630 C   0  0  0  0  0  0  0  0  0  0  0  0
   37.8590   25.0640   33.6490 C   0  0  0  0  0  0  0  0  0  0  0  0
   37.2970   24.5370   32.9290 H   0  0  0  0  0  0  0  0  0  0  0  0
   38.5620   24.3100   34.5030 C   0  0  0  0  0  3  0  0  0  0  0  0
   39.3290   24.9280   35.5340 C   0  0  0  0  0  3  0  0  0  0  0  0
   38.9030   26.7090   35.1090 S   0  0  0  0  0  0  0  0  0  0  0  0
   38.7990   27.5900   31.0840 C   0  0  0  0  0  0  0  0  0  0  0  0
   39.9390   27.5350   31.8760 F   0  0  0  0  0  0  0  0  0  0  0  0
   38.4790   26.3680   30.5760 F   0  0  0  0  0  0  0  0  0  0  0  0
   39.1130   28.4060   29.9940 F   0  0  0  0  0  0  0  0  0  0  0  0
  1  2  2  0  0  0  0
  1  6  1  0  0  0  0
  2  3  1  0  0  0  0
  3  4  2  0  0  0  0
  3 22  1  0  0  0  0
  5  4  1  0  0  0  0
  5 10  1  0  0  0  0
  6  5  2  0  0  0  0
  7  1  1  0  0  0  0
  9  8  1  0  0  0  0
  9 15  1  0  0  0  0
 10  9  2  0  0  0  0
 11 10  1  0  0  0  0
 11 12  2  0  0  0  0
 12 13  1  0  0  0  0
 13 15  2  0  0  0  0
 13 14  1  0  0  0  0
 15 18  1  0  0  0  0
 16 11  1  0  0  0  0
 17 12  1  0  0  0  0
 18 20  1  0  0  0  0
 18 21  1  0  0  0  0
 19 18  1  0  0  0  0
 22 27  1  0  0  0  0
 23 22  2  0  0  0  0
 23 25  1  0  0  0  0
 24 23  1  0  0  0  0
 25 26  2  0  0  0  0
 27 26  1  0  0  0  0
 28  2  1  0  0  0  0
 28 29  1  0  0  0  0
 30 28  1  0  0  0  0
 31 28  1  0  0  0  0
M  END
>  <minimizedAffinity>
-5.86157894

$$$$

 OpenBabel03272500203D

 31 33  0  0  0  0  0  0  0  0999 V2000
   36.7120   29.2570   31.1420 C   0  0  0  0  0  0  0  0  0  0  0  0
   36.1560   30.1220   32.1350 C   0  0  0  0  0  0  0  0  0  0  0  0
   35.9640   29.6270   33.4120 C   0  0  0  0  0  0  0  0  0  0  0  0
   36.3290   28.3220   33.6320 N   0  0  0  0  0  0  0  0  0  0  0  0
   36.8400   27.5340   32.7170 C   0  0  0  0  0  0  0  0  0  0  0  0
   37.0290   27.9940   31.4880 N   0  0  0  0  0  0  0  0  0  0  0  0
   36.8370   29.7010   30.1660 H   0  0  0  0  0  0  0  0  0  0  0  0
   38.4800   27.2300   35.2550 Cl  0  0  0  0  0  0  0  0  0  0  0  0
   37.9640   25.8970   34.2160 C   0  0  0  0  0  0  0  0  0  0  0  0
   37.2010   26.1620   33.0620 C   0  0  0  0  0  0  0  0  0  0  0  0
   36.7770   25.1460   32.2220 C   0  0  0  0  0  0  0  0  0  0  0  0
   37.1450   23.8440   32.5790 C   0  0  0  0  0  0  0  0  0  0  0  0
   37.8850   23.5600   33.6950 C   0  0  0  0  0  0  0  0  0  0  0  0
   38.2790   21.8940   34.0340 Cl  0  0  0  0  0  0  0  0  0  0  0  0
   38.2940   24.6050   34.5150 C   0  0  0  0  0  0  0  0  0  0  0  0
   36.1950   25.3620   31.3440 H   0  0  0  0  0  0  0  0  0  0  0  0
   36.8170   23.0430   31.9260 H   0  0  0  0  0  0  0  0  0  0  0  0
   39.0940   24.3120   35.7220 C   0  0  0  0  0  0  0  0  0  0  0  0
   40.4070   24.7620   35.5650 F   0  0  0  0  0  0  0  0  0  0  0  0
   39.0560   23.0090   36.0840 F   0  0  0  0  0  0  0  0  0  0  0  0
   38.5950   25.0480   36.7940 F   0  0  0  0  0  0  0  0  0  0  0  0
   35.4740   30.3880   34.5270 C   0  0  0  0  0  0  0  0  0  0  0  0
   35.8080   31.2200   35.5260 C   0  0  0  0  0  0  0  0  0  0  0  0
   36.8170   31.5100   35.6300 H   0  0  0  0  0  0  0  0  0  0  0  0
   34.9670   31.7100   36.4450 C   0  0  0  0  0  3  0  0  0  0  0  0
   33.5860   31.3510   36.4090 C   0  0  0  0  0  3  0  0  0  0  0  0
   33.6730   30.2340   34.8990 S   0  0  0  0  0  0  0  0  0  0  0  0
   35.7820   31.5160   31.7540 C   0  0  0  0  0  0  0  0  0  0  0  0
   34.4420   31.7760   32.0120 F   0  0  0  0  0  0  0  0  0  0  0  0
   36.5990   32.3820   32.4150 F   0  0  0  0  0  0  0  0  0  0  0  0
   35.9750   31.7470   30.3900 F   0  0  0  0  0  0  0  0  0  0  0  0
  1  6  2  0  0  0  0
  1  2  1  0  0  0  0
  2  3  2  0  0  0  0
  3  4  1  0  0  0  0
  3 22  1  0  0  0  0
  5 10  1  0  0  0  0
  5  4  2  0  0  0  0
  6  5  1  0  0  0  0
  7  1  1  0  0  0  0
  9 15  1  0  0  0  0
  9  8  1  0  0  0  0
 10  9  2  0  0  0  0
 11 12  2  0  0  0  0
 11 10  1  0  0  0  0
 12 13  1  0  0  0  0
 13 14  1  0  0  0  0
 13 15  2  0  0  0  0
 15 18  1  0  0  0  0
 16 11  1  0  0  0  0
 17 12  1  0  0  0  0
 18 20  1  0  0  0  0
 18 21  1  0  0  0  0
 19 18  1  0  0  0  0
 22 27  1  0  0  0  0
 22 23  2  0  0  0  0
 23 24  1  0  0  0  0
 23 25  1  0  0  0  0
 26 25  2  0  0  0  0
 27 26  1  0  0  0  0
 28 29  1  0  0  0  0
 28  2  1  0  0  0  0
 28 30  1  0  0  0  0
 31 28  1  0  0  0  0
M  END
>  <minimizedAffinity>
-5.8263998

$$$$

 OpenBabel03272500203D

 31 33  0  0  0  0  0  0  0  0999 V2000
   36.8300   28.8590   30.4740 C   0  0  0  0  0  0  0  0  0  0  0  0
   36.2220   29.7090   31.4500 C   0  0  0  0  0  0  0  0  0  0  0  0
   35.9400   29.1880   32.7000 C   0  0  0  0  0  0  0  0  0  0  0  0
   36.2720   27.8730   32.9110 N   0  0  0  0  0  0  0  0  0  0  0  0
   36.8300   27.0990   32.0120 C   0  0  0  0  0  0  0  0  0  0  0  0
   37.1050   27.5830   30.8100 N   0  0  0  0  0  0  0  0  0  0  0  0
   37.0240   29.3240   29.5190 H   0  0  0  0  0  0  0  0  0  0  0  0
   34.9480   25.0220   30.8430 Cl  0  0  0  0  0  0  0  0  0  0  0  0
   36.3450   24.6630   31.8640 C   0  0  0  0  0  0  0  0  0  0  0  0
   37.1490   25.7130   32.3470 C   0  0  0  0  0  0  0  0  0  0  0  0
   38.2520   25.4750   33.1500 C   0  0  0  0  0  0  0  0  0  0  0  0
   38.5270   24.1370   33.4550 C   0  0  0  0  0  0  0  0  0  0  0  0
   37.7610   23.0980   32.9990 C   0  0  0  0  0  0  0  0  0  0  0  0
   38.2070   21.4720   33.4480 Cl  0  0  0  0  0  0  0  0  0  0  0  0
   36.6610   23.3750   32.1950 C   0  0  0  0  0  0  0  0  0  0  0  0
   38.8580   26.2860   33.5120 H   0  0  0  0  0  0  0  0  0  0  0  0
   39.3880   23.9420   34.0830 H   0  0  0  0  0  0  0  0  0  0  0  0
   35.8260   22.2620   31.6970 C   0  0  0  0  0  0  0  0  0  0  0  0
   35.0950   22.6580   30.5740 F   0  0  0  0  0  0  0  0  0  0  0  0
   35.0260   21.7280   32.6470 F   0  0  0  0  0  0  0  0  0  0  0  0
   36.6530   21.2400   31.2370 F   0  0  0  0  0  0  0  0  0  0  0  0
   35.3890   29.9300   33.7980 C   0  0  0  0  0  0  0  0  0  0  0  0
   35.6630   30.7730   34.8070 C   0  0  0  0  0  0  0  0  0  0  0  0
   36.6580   31.0980   34.9430 H   0  0  0  0  0  0  0  0  0  0  0  0
   34.7770   31.2320   35.6990 C   0  0  0  0  0  3  0  0  0  0  0  0
   33.4110   30.8260   35.6200 C   0  0  0  0  0  3  0  0  0  0  0  0
   33.5840   29.7140   34.1140 S   0  0  0  0  0  0  0  0  0  0  0  0
   35.8930   31.1180   31.0790 C   0  0  0  0  0  0  0  0  0  0  0  0
   34.5390   31.3860   31.2330 F   0  0  0  0  0  0  0  0  0  0  0  0
   36.6610   31.9560   31.8300 F   0  0  0  0  0  0  0  0  0  0  0  0
   36.2010   31.3840   29.7430 F   0  0  0  0  0  0  0  0  0  0  0  0
  1  6  2  0  0  0  0
  1  2  1  0  0  0  0
  2  3  2  0  0  0  0
  3  4  1  0  0  0  0
  3 22  1  0  0  0  0
  5 10  1  0  0  0  0
  5  4  2  0  0  0  0
  6  5  1  0  0  0  0
  7  1  1  0  0  0  0
  8  9  1  0  0  0  0
  9 15  2  0  0  0  0
  9 10  1  0  0  0  0
 10 11  2  0  0  0  0
 11 12  1  0  0  0  0
 11 16  1  0  0  0  0
 12 17  1  0  0  0  0
 13 14  1  0  0  0  0
 13 12  2  0  0  0  0
 15 13  1  0  0  0  0
 18 15  1  0  0  0  0
 18 20  1  0  0  0  0
 19 18  1  0  0  0  0
 21 18  1  0  0  0  0
 22 27  1  0  0  0  0
 22 23  2  0  0  0  0
 23 24  1  0  0  0  0
 23 25  1  0  0  0  0
 26 25  2  0  0  0  0
 27 26  1  0  0  0  0
 28 29  1  0  0  0  0
 28  2  1  0  0  0  0
 28 30  1  0  0  0  0
 31 28  1  0  0  0  0
M  END
>  <minimizedAffinity>
-5.79704475

$$$$

 OpenBabel03272500203D

 31 33  0  0  0  0  0  0  0  0999 V2000
   39.3920   27.2270   31.2240 C   0  0  0  0  0  0  0  0  0  0  0  0
   38.1380   27.9040   31.3450 C   0  0  0  0  0  0  0  0  0  0  0  0
   37.3090   27.5780   32.4030 C   0  0  0  0  0  0  0  0  0  0  0  0
   37.7610   26.6160   33.2710 N   0  0  0  0  0  0  0  0  0  0  0  0
   38.9130   25.9990   33.1550 C   0  0  0  0  0  0  0  0  0  0  0  0
   39.7180   26.3000   32.1460 N   0  0  0  0  0  0  0  0  0  0  0  0
   39.9930   27.5250   30.3780 H   0  0  0  0  0  0  0  0  0  0  0  0
   37.3710   26.0960   35.7690 Cl  0  0  0  0  0  0  0  0  0  0  0  0
   38.6560   24.9440   35.3930 C   0  0  0  0  0  0  0  0  0  0  0  0
   39.3000   24.9950   34.1410 C   0  0  0  0  0  0  0  0  0  0  0  0
   40.3120   24.1100   33.8070 C   0  0  0  0  0  0  0  0  0  0  0  0
   40.6610   23.1630   34.7770 C   0  0  0  0  0  0  0  0  0  0  0  0
   40.0520   23.0930   36.0010 C   0  0  0  0  0  0  0  0  0  0  0  0
   40.5760   21.8660   37.1250 Cl  0  0  0  0  0  0  0  0  0  0  0  0
   39.0400   23.9980   36.3010 C   0  0  0  0  0  0  0  0  0  0  0  0
   40.7950   24.1600   32.8480 H   0  0  0  0  0  0  0  0  0  0  0  0
   41.4530   22.4680   34.5230 H   0  0  0  0  0  0  0  0  0  0  0  0
   38.3740   23.9320   37.6200 C   0  0  0  0  0  0  0  0  0  0  0  0
   37.2550   23.0980   37.5660 F   0  0  0  0  0  0  0  0  0  0  0  0
   38.0630   25.1480   38.1210 F   0  0  0  0  0  0  0  0  0  0  0  0
   39.2280   23.3190   38.5340 F   0  0  0  0  0  0  0  0  0  0  0  0
   36.0530   28.2100   32.6910 C   0  0  0  0  0  0  0  0  0  0  0  0
   34.8160   28.4630   32.2340 C   0  0  0  0  0  0  0  0  0  0  0  0
   34.5360   28.0890   31.2880 H   0  0  0  0  0  0  0  0  0  0  0  0
   33.8860   29.1880   32.8670 C   0  0  0  0  0  3  0  0  0  0  0  0
   34.1770   29.7660   34.1390 C   0  0  0  0  0  3  0  0  0  0  0  0
   35.9400   29.1300   34.2870 S   0  0  0  0  0  0  0  0  0  0  0  0
   37.7600   28.9170   30.3160 C   0  0  0  0  0  0  0  0  0  0  0  0
   36.7360   28.4580   29.4970 F   0  0  0  0  0  0  0  0  0  0  0  0
   37.4180   30.0740   30.9490 F   0  0  0  0  0  0  0  0  0  0  0  0
   38.8330   29.2240   29.4760 F   0  0  0  0  0  0  0  0  0  0  0  0
  1  2  2  0  0  0  0
  1  6  1  0  0  0  0
  2  3  1  0  0  0  0
  3 22  1  0  0  0  0
  3  4  2  0  0  0  0
  5  4  1  0  0  0  0
  5 10  1  0  0  0  0
  6  5  2  0  0  0  0
  7  1  1  0  0  0  0
  9  8  1  0  0  0  0
  9 15  1  0  0  0  0
 10  9  2  0  0  0  0
 11 10  1  0  0  0  0
 11 12  2  0  0  0  0
 12 13  1  0  0  0  0
 13 15  2  0  0  0  0
 13 14  1  0  0  0  0
 15 18  1  0  0  0  0
 16 11  1  0  0  0  0
 17 12  1  0  0  0  0
 18 20  1  0  0  0  0
 18 21  1  0  0  0  0
 19 18  1  0  0  0  0
 22 27  1  0  0  0  0
 23 22  2  0  0  0  0
 23 25  1  0  0  0  0
 24 23  1  0  0  0  0
 25 26  2  0  0  0  0
 26 27  1  0  0  0  0
 28 30  1  0  0  0  0
 28  2  1  0  0  0  0
 29 28  1  0  0  0  0
 31 28  1  0  0  0  0
M  END
>  <minimizedAffinity>
-5.7913599

$$$$

 OpenBabel03272500203D

 31 33  0  0  0  0  0  0  0  0999 V2000
   36.5130   30.0950   30.6320 C   0  0  0  0  0  0  0  0  0  0  0  0
   36.1420   30.8150   31.8110 C   0  0  0  0  0  0  0  0  0  0  0  0
   35.7800   30.0990   32.9380 C   0  0  0  0  0  0  0  0  0  0  0  0
   35.8060   28.7310   32.8370 N   0  0  0  0  0  0  0  0  0  0  0  0
   36.1480   28.0770   31.7530 C   0  0  0  0  0  0  0  0  0  0  0  0
   36.4960   28.7480   30.6650 N   0  0  0  0  0  0  0  0  0  0  0  0
   36.7840   30.7100   29.7870 H   0  0  0  0  0  0  0  0  0  0  0  0
   38.3350   26.7910   33.4220 Cl  0  0  0  0  0  0  0  0  0  0  0  0
   37.1170   25.9090   32.4940 C   0  0  0  0  0  0  0  0  0  0  0  0
   36.1480   26.6170   31.7580 C   0  0  0  0  0  0  0  0  0  0  0  0
   35.1760   25.9630   31.0180 C   0  0  0  0  0  0  0  0  0  0  0  0
   35.2080   24.5640   31.0400 C   0  0  0  0  0  0  0  0  0  0  0  0
   36.1390   23.8530   31.7470 C   0  0  0  0  0  0  0  0  0  0  0  0
   36.0730   22.1100   31.6970 Cl  0  0  0  0  0  0  0  0  0  0  0  0
   37.0990   24.5430   32.4790 C   0  0  0  0  0  0  0  0  0  0  0  0
   34.4410   26.5150   30.4600 H   0  0  0  0  0  0  0  0  0  0  0  0
   34.4510   24.0450   30.4630 H   0  0  0  0  0  0  0  0  0  0  0  0
   38.1110   23.7850   33.2460 C   0  0  0  0  0  0  0  0  0  0  0  0
   39.3940   24.0390   32.7550 F   0  0  0  0  0  0  0  0  0  0  0  0
   37.8540   22.4590   33.3030 F   0  0  0  0  0  0  0  0  0  0  0  0
   38.1370   24.2540   34.5570 F   0  0  0  0  0  0  0  0  0  0  0  0
   35.4430   30.6760   34.2080 C   0  0  0  0  0  0  0  0  0  0  0  0
   35.9290   31.2180   35.3370 C   0  0  0  0  0  0  0  0  0  0  0  0
   36.9740   31.3180   35.4450 H   0  0  0  0  0  0  0  0  0  0  0  0
   35.1970   31.6290   36.3800 C   0  0  0  0  0  3  0  0  0  0  0  0
   33.7760   31.5060   36.3450 C   0  0  0  0  0  3  0  0  0  0  0  0
   33.6490   30.7320   34.6370 S   0  0  0  0  0  0  0  0  0  0  0  0
   36.1370   32.3080   31.7770 C   0  0  0  0  0  0  0  0  0  0  0  0
   37.0710   32.8440   32.6540 F   0  0  0  0  0  0  0  0  0  0  0  0
   36.3570   32.7140   30.4960 F   0  0  0  0  0  0  0  0  0  0  0  0
   34.8960   32.8270   32.1530 F   0  0  0  0  0  0  0  0  0  0  0  0
  1  6  2  0  0  0  0
  1  2  1  0  0  0  0
  2  3  2  0  0  0  0
  3 22  1  0  0  0  0
  4  3  1  0  0  0  0
  5 10  1  0  0  0  0
  5  4  2  0  0  0  0
  6  5  1  0  0  0  0
  7  1  1  0  0  0  0
  9  8  1  0  0  0  0
 10  9  2  0  0  0  0
 11 12  2  0  0  0  0
 11 10  1  0  0  0  0
 12 13  1  0  0  0  0
 13 15  2  0  0  0  0
 14 13  1  0  0  0  0
 15  9  1  0  0  0  0
 15 18  1  0  0  0  0
 16 11  1  0  0  0  0
 17 12  1  0  0  0  0
 18 20  1  0  0  0  0
 18 21  1  0  0  0  0
 19 18  1  0  0  0  0
 22 27  1  0  0  0  0
 22 23  2  0  0  0  0
 23 24  1  0  0  0  0
 23 25  1  0  0  0  0
 26 25  2  0  0  0  0
 27 26  1  0  0  0  0
 28  2  1  0  0  0  0
 28 31  1  0  0  0  0
 28 29  1  0  0  0  0
 30 28  1  0  0  0  0
M  END
>  <minimizedAffinity>
-5.72240019

$$$$

 OpenBabel03272500203D

 31 33  0  0  0  0  0  0  0  0999 V2000
   36.7040   29.6960   31.1840 C   0  0  0  0  0  0  0  0  0  0  0  0
   35.9690   30.4180   32.1760 C   0  0  0  0  0  0  0  0  0  0  0  0
   35.6310   29.7710   33.3510 C   0  0  0  0  0  0  0  0  0  0  0  0
   36.0330   28.4640   33.4770 N   0  0  0  0  0  0  0  0  0  0  0  0
   36.7070   27.8090   32.5630 C   0  0  0  0  0  0  0  0  0  0  0  0
   37.0380   28.4140   31.4320 N   0  0  0  0  0  0  0  0  0  0  0  0
   36.9380   30.2550   30.2900 H   0  0  0  0  0  0  0  0  0  0  0  0
   35.2360   25.7500   30.8840 Cl  0  0  0  0  0  0  0  0  0  0  0  0
   36.4760   25.3770   32.0860 C   0  0  0  0  0  0  0  0  0  0  0  0
   37.0920   26.4210   32.8040 C   0  0  0  0  0  0  0  0  0  0  0  0
   38.0680   26.1720   33.7550 C   0  0  0  0  0  0  0  0  0  0  0  0
   38.4100   24.8310   33.9650 C   0  0  0  0  0  0  0  0  0  0  0  0
   37.8260   23.7990   33.2810 C   0  0  0  0  0  0  0  0  0  0  0  0
   38.3390   22.1690   33.6320 Cl  0  0  0  0  0  0  0  0  0  0  0  0
   36.8500   24.0870   32.3340 C   0  0  0  0  0  0  0  0  0  0  0  0
   38.5310   26.9770   34.2960 H   0  0  0  0  0  0  0  0  0  0  0  0
   39.1730   24.6280   34.7080 H   0  0  0  0  0  0  0  0  0  0  0  0
   36.2110   22.9810   31.5890 C   0  0  0  0  0  0  0  0  0  0  0  0
   35.4840   22.1590   32.4530 F   0  0  0  0  0  0  0  0  0  0  0  0
   37.0840   22.2670   30.8430 F   0  0  0  0  0  0  0  0  0  0  0  0
   35.2600   23.5050   30.7170 F   0  0  0  0  0  0  0  0  0  0  0  0
   34.9500   30.3770   34.4600 C   0  0  0  0  0  0  0  0  0  0  0  0
   33.7540   30.6160   35.0230 C   0  0  0  0  0  0  0  0  0  0  0  0
   32.8860   30.2490   34.5490 H   0  0  0  0  0  0  0  0  0  0  0  0
   33.5490   31.3170   36.1450 C   0  0  0  0  0  3  0  0  0  0  0  0
   34.6570   31.8830   36.8440 C   0  0  0  0  0  3  0  0  0  0  0  0
   36.0030   31.2750   35.6810 S   0  0  0  0  0  0  0  0  0  0  0  0
   35.5760   31.8310   31.9000 C   0  0  0  0  0  0  0  0  0  0  0  0
   34.2140   32.0300   32.0870 F   0  0  0  0  0  0  0  0  0  0  0  0
   36.3180   32.6520   32.6940 F   0  0  0  0  0  0  0  0  0  0  0  0
   35.8520   32.1950   30.5800 F   0  0  0  0  0  0  0  0  0  0  0  0
  1  6  2  0  0  0  0
  1  2  1  0  0  0  0
  2  3  2  0  0  0  0
  3  4  1  0  0  0  0
  3 22  1  0  0  0  0
  5 10  1  0  0  0  0
  5  4  2  0  0  0  0
  6  5  1  0  0  0  0
  7  1  1  0  0  0  0
  8  9  1  0  0  0  0
  9 15  2  0  0  0  0
  9 10  1  0  0  0  0
 10 11  2  0  0  0  0
 11 12  1  0  0  0  0
 11 16  1  0  0  0  0
 12 17  1  0  0  0  0
 13 14  1  0  0  0  0
 13 12  2  0  0  0  0
 15 13  1  0  0  0  0
 18 15  1  0  0  0  0
 18 19  1  0  0  0  0
 20 18  1  0  0  0  0
 21 18  1  0  0  0  0
 22 23  2  0  0  0  0
 22 27  1  0  0  0  0
 23 25  1  0  0  0  0
 24 23  1  0  0  0  0
 25 26  2  0  0  0  0
 27 26  1  0  0  0  0
 28 29  1  0  0  0  0
 28  2  1  0  0  0  0
 28 30  1  0  0  0  0
 31 28  1  0  0  0  0
M  END
>  <minimizedAffinity>
-5.71700144

$$$$

 OpenBabel03272500203D

 31 33  0  0  0  0  0  0  0  0999 V2000
   36.9180   27.7620   31.8940 C   0  0  0  0  0  0  0  0  0  0  0  0
   36.2350   28.8340   32.5490 C   0  0  0  0  0  0  0  0  0  0  0  0
   36.2230   28.8650   33.9310 C   0  0  0  0  0  0  0  0  0  0  0  0
   36.8800   27.8490   34.5800 N   0  0  0  0  0  0  0  0  0  0  0  0
   37.5050   26.8700   33.9730 C   0  0  0  0  0  0  0  0  0  0  0  0
   37.5250   26.8250   32.6490 N   0  0  0  0  0  0  0  0  0  0  0  0
   36.8920   27.7930   30.8150 H   0  0  0  0  0  0  0  0  0  0  0  0
   40.4890   26.6070   33.4720 Cl  0  0  0  0  0  0  0  0  0  0  0  0
   39.5640   25.6270   34.6140 C   0  0  0  0  0  0  0  0  0  0  0  0
   38.1800   25.8420   34.7620 C   0  0  0  0  0  0  0  0  0  0  0  0
   37.4180   25.0950   35.6460 C   0  0  0  0  0  0  0  0  0  0  0  0
   38.0940   24.1160   36.3820 C   0  0  0  0  0  0  0  0  0  0  0  0
   39.4380   23.8870   36.2560 C   0  0  0  0  0  0  0  0  0  0  0  0
   40.1670   22.6370   37.2320 Cl  0  0  0  0  0  0  0  0  0  0  0  0
   40.1700   24.6560   35.3590 C   0  0  0  0  0  0  0  0  0  0  0  0
   36.3620   25.2700   35.7500 H   0  0  0  0  0  0  0  0  0  0  0  0
   37.5050   23.5270   37.0760 H   0  0  0  0  0  0  0  0  0  0  0  0
   41.6220   24.4170   35.2140 C   0  0  0  0  0  0  0  0  0  0  0  0
   41.9170   23.9330   33.9370 F   0  0  0  0  0  0  0  0  0  0  0  0
   42.1300   23.6160   36.1770 F   0  0  0  0  0  0  0  0  0  0  0  0
   42.2970   25.6330   35.2950 F   0  0  0  0  0  0  0  0  0  0  0  0
   35.6330   29.9040   34.7280 C   0  0  0  0  0  0  0  0  0  0  0  0
   35.8710   31.0200   35.4360 C   0  0  0  0  0  0  0  0  0  0  0  0
   36.8600   31.3820   35.4990 H   0  0  0  0  0  0  0  0  0  0  0  0
   34.9540   31.7220   36.1120 C   0  0  0  0  0  3  0  0  0  0  0  0
   33.5920   31.2960   36.1170 C   0  0  0  0  0  3  0  0  0  0  0  0
   33.8180   29.7760   35.0340 S   0  0  0  0  0  0  0  0  0  0  0  0
   35.5420   29.8640   31.7200 C   0  0  0  0  0  0  0  0  0  0  0  0
   35.9670   31.1480   32.0370 F   0  0  0  0  0  0  0  0  0  0  0  0
   35.7470   29.5760   30.4050 F   0  0  0  0  0  0  0  0  0  0  0  0
   34.1590   29.8440   31.9220 F   0  0  0  0  0  0  0  0  0  0  0  0
  1  2  2  0  0  0  0
  1  6  1  0  0  0  0
  2  3  1  0  0  0  0
  3  4  2  0  0  0  0
  3 22  1  0  0  0  0
  5  4  1  0  0  0  0
  5 10  1  0  0  0  0
  6  5  2  0  0  0  0
  7  1  1  0  0  0  0
  8  9  1  0  0  0  0
  9 10  2  0  0  0  0
  9 15  1  0  0  0  0
 10 11  1  0  0  0  0
 11 16  1  0  0  0  0
 11 12  2  0  0  0  0
 12 17  1  0  0  0  0
 13 12  1  0  0  0  0
 13 14  1  0  0  0  0
 15 13  2  0  0  0  0
 18 21  1  0  0  0  0
 18 15  1  0  0  0  0
 18 20  1  0  0  0  0
 19 18  1  0  0  0  0
 22 27  1  0  0  0  0
 22 23  2  0  0  0  0
 23 24  1  0  0  0  0
 23 25  1  0  0  0  0
 25 26  2  0  0  0  0
 27 26  1  0  0  0  0
 28 31  1  0  0  0  0
 28 29  1  0  0  0  0
 28  2  1  0  0  0  0
 30 28  1  0  0  0  0
M  END
>  <minimizedAffinity>
-5.63382578

$$$$
