
 OpenBabel03272509423D

 35 37  0  0  1  0  0  0  0  0999 V2000
   37.0200   30.9220   49.0430 C   0  0  0  0  0  0  0  0  0  0  0  0
   36.7200   31.8050   50.0800 C   0  0  0  0  0  0  0  0  0  0  0  0
   37.3030   33.0600   50.1680 C   0  0  0  0  0  0  0  0  0  0  0  0
   38.2230   33.4600   49.1910 C   0  0  0  0  0  0  0  0  0  0  0  0
   38.5080   32.5840   48.1810 C   0  0  0  0  0  0  0  0  0  0  0  0
   37.9040   31.3400   48.1300 C   0  0  0  0  0  0  0  0  0  0  0  0
   36.0080   31.5040   50.8420 H   0  0  0  0  0  0  0  0  0  0  0  0
   37.0200   33.6750   50.9950 H   0  0  0  0  0  0  0  0  0  0  0  0
   38.6140   34.4360   49.3460 H   0  0  0  0  0  0  0  0  0  0  0  0
   39.2350   33.0360   47.5070 H   0  0  0  0  0  0  0  0  0  0  0  0
   36.4360   29.6000   48.9700 C   0  0  2  0  0  0  0  0  0  0  0  0
   36.9620   29.0880   48.0750 H   0  0  0  0  0  0  0  0  0  0  0  0
   33.5830   30.0810   46.7700 C   0  0  0  0  0  0  0  0  0  0  0  0
   32.8800   28.8970   46.8690 C   0  0  0  0  0  0  0  0  0  0  0  0
   33.3450   27.9360   47.7470 C   0  0  0  0  0  0  0  0  0  0  0  0
   34.4830   28.1860   48.4840 N   0  0  0  0  0  0  0  0  0  0  0  0
   35.1110   29.3360   48.3420 C   0  0  0  0  0  0  0  0  0  0  0  0
   34.6690   30.2890   47.4900 N   0  0  0  0  0  0  0  0  0  0  0  0
   33.2460   30.8630   46.0880 H   0  0  0  0  0  0  0  0  0  0  0  0
   32.0050   28.8080   46.2440 H   0  0  0  0  0  0  0  0  0  0  0  0
   32.7930   27.0100   47.8260 H   0  0  0  0  0  0  0  0  0  0  0  0
   36.8850   28.8150   49.8840 O   0  0  0  0  0  0  0  0  0  0  0  0
   36.4310   28.6440   50.7260 H   0  0  0  0  0  0  0  0  0  0  0  0
   38.3260   30.5050   47.0290 C   0  0  0  0  0  3  0  0  0  0  0  0
   39.0120   30.9500   45.9720 C   0  0  0  0  0  3  0  0  0  0  0  0
   39.5340   30.1810   44.8190 C   0  0  0  0  0  0  0  0  0  0  0  0
   38.7570   29.4780   44.4360 H   0  0  0  0  0  0  0  0  0  0  0  0
   40.4360   29.6000   45.1460 H   0  0  0  0  0  0  0  0  0  0  0  0
   40.0720   31.3120   43.5340 S   0  0  0  0  0  0  0  0  0  0  0  0
   38.6710   32.1530   42.8290 C   0  0  0  0  0  0  0  0  0  0  0  0
   38.9570   32.9890   41.7170 C   0  0  0  0  0  0  0  0  0  0  0  0
   39.8590   33.2380   41.1840 H   0  0  0  0  0  0  0  0  0  0  0  0
   38.0260   33.7120   41.0450 C   0  0  0  0  0  3  0  0  0  0  0  0
   36.6740   33.5850   41.5340 C   0  0  0  0  0  3  0  0  0  0  0  0
   36.8110   32.3830   42.9980 S   0  0  0  0  0  0  0  0  0  0  0  0
  1  2  1  0  0  0  0
  2  3  2  0  0  0  0
  2  7  1  0  0  0  0
  3  8  1  0  0  0  0
  4  9  1  0  0  0  0
  4  3  1  0  0  0  0
  5  4  2  0  0  0  0
  6  5  1  0  0  0  0
  6  1  2  0  0  0  0
 10  5  1  0  0  0  0
 11 12  1  6  0  0  0
 11  1  1  0  0  0  0
 11 22  1  0  0  0  0
 13 14  2  0  0  0  0
 13 18  1  0  0  0  0
 14 15  1  0  0  0  0
 15 21  1  0  0  0  0
 15 16  2  0  0  0  0
 17 16  1  0  0  0  0
 17 11  1  0  0  0  0
 18 17  2  0  0  0  0
 19 13  1  0  0  0  0
 20 14  1  0  0  0  0
 22 23  1  0  0  0  0
 24  6  1  0  0  0  0
 25 24  2  0  0  0  0
 26 28  1  0  0  0  0
 26 25  1  0  0  0  0
 27 26  1  0  0  0  0
 29 26  1  0  0  0  0
 30 35  1  0  0  0  0
 30 29  1  0  0  0  0
 31 30  2  0  0  0  0
 32 31  1  0  0  0  0
 33 34  2  0  0  0  0
 33 31  1  0  0  0  0
 34 35  1  0  0  0  0
M  END
>  <minimizedAffinity>
-5.6987915

>  <minimizedRMSD>
0.955503821

$$$$
