
 OpenBabel03262523413D

 35 37  0  0  1  0  0  0  0  0999 V2000
   39.0050   32.0250   47.4710 C   0  0  0  0  0  0  0  0  0  0  0  0
   37.9910   31.0750   47.5470 C   0  0  0  0  0  0  0  0  0  0  0  0
   37.0060   31.1160   48.5130 C   0  0  0  0  0  0  0  0  0  0  0  0
   37.1110   32.1500   49.3740 N   0  0  0  0  0  0  0  0  0  0  0  0
   38.0760   33.0860   49.3330 C   0  0  0  0  0  0  0  0  0  0  0  0
   39.0210   33.0120   48.3730 N   0  0  0  0  0  0  0  0  0  0  0  0
   35.9910   30.1560   48.5770 N   0  0  0  0  0  0  0  0  0  0  0  0
   36.0930   29.1880   49.6340 C   0  0  0  0  0  0  0  0  0  0  0  0
   34.9180   28.2830   49.7800 C   0  0  0  0  0  0  0  0  0  0  0  0
   33.8960   28.3640   48.8570 N   0  0  0  0  0  0  0  0  0  0  0  0
   34.0320   29.0080   47.6420 C   0  0  0  0  0  0  0  0  0  0  0  0
   34.9340   30.2090   47.6010 C   0  0  2  0  0  0  0  0  0  0  0  0
   39.7860   32.0110   46.7220 H   0  0  0  0  0  0  0  0  0  0  0  0
   38.0770   30.3250   46.7790 H   0  0  0  0  0  0  0  0  0  0  0  0
   38.0960   33.8890   50.0600 H   0  0  0  0  0  0  0  0  0  0  0  0
   36.3280   29.7530   50.5630 H   0  0  0  0  0  0  0  0  0  0  0  0
   37.0370   28.6140   49.4060 H   0  0  0  0  0  0  0  0  0  0  0  0
   34.4760   28.4770   50.8000 H   0  0  0  0  0  0  0  0  0  0  0  0
   35.2970   27.2390   49.8440 H   0  0  0  0  0  0  0  0  0  0  0  0
   32.9510   28.3040   49.2550 H   0  0  0  0  0  0  0  0  0  0  0  0
   34.4310   28.2270   46.9160 H   0  0  0  0  0  0  0  0  0  0  0  0
   33.0420   29.2910   47.2740 H   0  0  0  0  0  0  0  0  0  0  0  0
   34.3670   31.1470   47.8040 H   0  0  0  0  0  0  0  0  0  0  0  0
   35.4230   30.3000   46.1830 C   0  0  0  0  0  0  0  0  0  0  0  0
   35.4590   31.2930   45.7510 H   0  0  0  0  0  0  0  0  0  0  0  0
   36.4770   29.8880   46.1610 H   0  0  0  0  0  0  0  0  0  0  0  0
   34.5860   29.3040   45.3820 C   0  0  0  0  0  0  0  0  0  0  0  0
   34.4170   28.3690   45.8960 H   0  0  0  0  0  0  0  0  0  0  0  0
   33.6860   29.7700   44.9580 H   0  0  0  0  0  0  0  0  0  0  0  0
   35.4000   28.9470   44.1180 C   0  0  0  0  0  0  0  0  0  0  0  0
   35.1780   28.0030   43.1760 C   0  0  0  0  0  0  0  0  0  0  0  0
   34.2990   27.3900   43.3060 H   0  0  0  0  0  0  0  0  0  0  0  0
   36.0680   27.9100   42.1620 C   0  0  0  0  0  3  0  0  0  0  0  0
   37.1610   28.7860   42.1420 C   0  0  0  0  0  3  0  0  0  0  0  0
   36.8170   29.7840   43.7220 S   0  0  0  0  0  0  0  0  0  0  0  0
  1  2  2  0  0  0  0
  1  6  1  0  0  0  0
  2  3  1  0  0  0  0
  3  7  1  0  0  0  0
  3  4  2  0  0  0  0
  5  4  1  0  0  0  0
  5 15  1  0  0  0  0
  6  5  2  0  0  0  0
  7  8  1  0  0  0  0
  8  9  1  0  0  0  0
  8 16  1  0  0  0  0
  9 19  1  0  0  0  0
  9 18  1  0  0  0  0
 10 20  1  0  0  0  0
 10  9  1  0  0  0  0
 11 10  1  0  0  0  0
 12 11  1  0  0  0  0
 12 23  1  1  0  0  0
 12  7  1  0  0  0  0
 13  1  1  0  0  0  0
 14  2  1  0  0  0  0
 17  8  1  0  0  0  0
 21 11  1  0  0  0  0
 22 11  1  0  0  0  0
 24 12  1  0  0  0  0
 25 24  1  0  0  0  0
 26 24  1  0  0  0  0
 27 28  1  0  0  0  0
 27 24  1  0  0  0  0
 29 27  1  0  0  0  0
 30 27  1  0  0  0  0
 31 32  1  0  0  0  0
 31 30  2  0  0  0  0
 33 31  1  0  0  0  0
 34 33  2  0  0  0  0
 34 35  1  0  0  0  0
 35 30  1  0  0  0  0
M  END
>  <minimizedAffinity>
-4.62297344

>  <minimizedRMSD>
7.54334688

$$$$
