
 OpenBabel03272509463D

 22 23  0  0  0  0  0  0  0  0999 V2000
   34.1430   28.4510   48.5300 C   0  0  0  0  0  0  0  0  0  0  0  0
   33.2200   29.0370   48.7000 H   0  0  0  0  0  0  0  0  0  0  0  0
   34.7890   29.0550   47.8600 H   0  0  0  0  0  0  0  0  0  0  0  0
   33.8500   27.0870   47.9530 C   0  0  0  0  0  0  0  0  0  0  0  0
   33.0860   26.6400   48.6530 H   0  0  0  0  0  0  0  0  0  0  0  0
   34.7090   26.4210   47.9570 H   0  0  0  0  0  0  0  0  0  0  0  0
   33.2720   27.2690   46.5950 C   0  0  0  0  0  0  0  0  0  0  0  0
   32.2520   26.6760   45.9260 C   0  0  0  0  0  0  0  0  0  0  0  0
   31.7370   25.8950   46.5000 H   0  0  0  0  0  0  0  0  0  0  0  0
   31.9360   27.0480   44.6680 C   0  0  0  0  0  3  0  0  0  0  0  0
   32.6990   28.0490   44.1150 C   0  0  0  0  0  3  0  0  0  0  0  0
   33.9310   28.4600   45.4960 S   0  0  0  0  0  0  0  0  0  0  0  0
   34.7300   28.3040   49.8210 O   0  0  0  0  0  0  0  0  0  0  0  0
   37.3630   30.2420   51.4040 C   0  0  0  0  0  0  0  0  0  0  0  0
   38.0650   30.6720   50.2820 C   0  0  0  0  0  0  0  0  0  0  0  0
   37.6070   30.2780   49.0300 C   0  0  0  0  0  0  0  0  0  0  0  0
   36.4830   29.4880   49.0000 N   0  0  0  0  0  0  0  0  0  0  0  0
   35.8300   29.0930   50.1130 C   0  0  0  0  0  0  0  0  0  0  0  0
   36.2870   29.4820   51.3110 N   0  0  0  0  0  0  0  0  0  0  0  0
   37.7380   30.5620   52.3810 H   0  0  0  0  0  0  0  0  0  0  0  0
   38.9490   31.2920   50.2980 H   0  0  0  0  0  0  0  0  0  0  0  0
   38.1000   30.5710   48.1160 H   0  0  0  0  0  0  0  0  0  0  0  0
  1  2  1  0  0  0  0
  1 13  1  0  0  0  0
  3  1  1  0  0  0  0
  4  6  1  0  0  0  0
  4  1  1  0  0  0  0
  4  5  1  0  0  0  0
  7  4  1  0  0  0  0
  8  9  1  0  0  0  0
  8  7  2  0  0  0  0
 10  8  1  0  0  0  0
 11 10  2  0  0  0  0
 11 12  1  0  0  0  0
 12  7  1  0  0  0  0
 13 18  1  0  0  0  0
 14 20  1  0  0  0  0
 15 21  1  0  0  0  0
 15 14  2  0  0  0  0
 16 15  1  0  0  0  0
 17 16  2  0  0  0  0
 17 18  1  0  0  0  0
 18 19  2  0  0  0  0
 19 14  1  0  0  0  0
 22 16  1  0  0  0  0
M  END
>  <minimizedAffinity>
-3.5660274

>  <minimizedRMSD>
0.0867933929

$$$$
