
 OpenBabel03272509463D

 22 23  0  0  0  0  0  0  0  0999 V2000
   34.2170   28.4060   48.4420 C   0  0  0  0  0  0  0  0  0  0  0  0
   33.3420   29.0770   48.5270 H   0  0  0  0  0  0  0  0  0  0  0  0
   34.9410   28.9040   47.7650 H   0  0  0  0  0  0  0  0  0  0  0  0
   33.8330   27.0330   47.9460 C   0  0  0  0  0  0  0  0  0  0  0  0
   32.9900   26.7110   48.6230 H   0  0  0  0  0  0  0  0  0  0  0  0
   34.6240   26.2950   48.0550 H   0  0  0  0  0  0  0  0  0  0  0  0
   33.3580   27.1600   46.5430 C   0  0  0  0  0  0  0  0  0  0  0  0
   33.8830   27.7190   45.4250 C   0  0  0  0  0  0  0  0  0  0  0  0
   34.8670   28.1790   45.5750 H   0  0  0  0  0  0  0  0  0  0  0  0
   33.2150   27.6880   44.2520 C   0  0  0  0  0  3  0  0  0  0  0  0
   31.9900   27.0650   44.2610 C   0  0  0  0  0  3  0  0  0  0  0  0
   31.8100   26.5010   46.0620 S   0  0  0  0  0  0  0  0  0  0  0  0
   34.7340   28.3040   49.7680 O   0  0  0  0  0  0  0  0  0  0  0  0
   37.3380   30.2260   51.4140 C   0  0  0  0  0  0  0  0  0  0  0  0
   38.0600   30.6670   50.3080 C   0  0  0  0  0  0  0  0  0  0  0  0
   37.6230   30.2850   49.0450 C   0  0  0  0  0  0  0  0  0  0  0  0
   36.5010   29.4950   48.9880 N   0  0  0  0  0  0  0  0  0  0  0  0
   35.8280   29.0900   50.0860 C   0  0  0  0  0  0  0  0  0  0  0  0
   36.2650   29.4670   51.2950 N   0  0  0  0  0  0  0  0  0  0  0  0
   37.6980   30.5380   52.4000 H   0  0  0  0  0  0  0  0  0  0  0  0
   38.9430   31.2870   50.3450 H   0  0  0  0  0  0  0  0  0  0  0  0
   38.1330   30.5870   48.1420 H   0  0  0  0  0  0  0  0  0  0  0  0
  1  2  1  0  0  0  0
  1 13  1  0  0  0  0
  3  1  1  0  0  0  0
  4  6  1  0  0  0  0
  4  1  1  0  0  0  0
  4  5  1  0  0  0  0
  7  4  1  0  0  0  0
  8  9  1  0  0  0  0
  8  7  2  0  0  0  0
 10 11  2  0  0  0  0
 10  8  1  0  0  0  0
 11 12  1  0  0  0  0
 12  7  1  0  0  0  0
 13 18  1  0  0  0  0
 14 20  1  0  0  0  0
 15 21  1  0  0  0  0
 15 14  2  0  0  0  0
 16 15  1  0  0  0  0
 17 16  2  0  0  0  0
 17 18  1  0  0  0  0
 18 19  2  0  0  0  0
 19 14  1  0  0  0  0
 22 16  1  0  0  0  0
M  END
>  <minimizedAffinity>
-3.59672093

>  <minimizedRMSD>
0.174997076

$$$$
