
 OpenBabel03272504213D

 36 38  0  0  1  0  0  0  0  0999 V2000
   36.8400   31.5870   48.6550 O   0  0  0  0  0  0  0  0  0  0  0  0
   38.8670   32.4010   47.8380 C   0  0  2  0  0  0  0  0  0  0  0  0
   38.2010   31.3880   48.7420 C   0  0  1  0  0  0  0  0  0  0  0  0
   38.7130   31.9230   50.0810 C   0  0  0  0  0  0  0  0  0  0  0  0
   38.3810   33.2700   49.9680 O   0  0  0  0  0  0  0  0  0  0  0  0
   38.6610   33.6590   48.6810 C   0  0  0  0  0  0  0  0  0  0  0  0
   39.9270   32.1590   47.7190 H   0  0  0  0  0  0  0  0  0  0  0  0
   38.5280   30.3500   48.5690 H   0  0  0  0  0  0  0  0  0  0  0  0
   39.7890   31.7410   50.1650 H   0  0  0  0  0  0  0  0  0  0  0  0
   38.1030   31.4440   50.8550 H   0  0  0  0  0  0  0  0  0  0  0  0
   39.5940   34.2680   48.6120 H   0  0  0  0  0  0  0  0  0  0  0  0
   37.8570   34.3030   48.2460 H   0  0  0  0  0  0  0  0  0  0  0  0
   38.1540   32.4410   46.6430 O   0  0  0  0  0  0  0  0  0  0  0  0
   38.8080   31.8670   45.5250 C   0  0  0  0  0  0  0  0  0  0  0  0
   40.1880   31.7090   45.3700 C   0  0  0  0  0  0  0  0  0  0  0  0
   40.8450   32.0450   46.1560 H   0  0  0  0  0  0  0  0  0  0  0  0
   40.6660   31.1350   44.2290 C   0  0  0  0  0  3  0  0  0  0  0  0
   39.7240   30.7110   43.2210 C   0  0  0  0  0  3  0  0  0  0  0  0
   38.1490   31.1320   43.9010 S   0  0  0  0  0  0  0  0  0  0  0  0
   35.9400   29.8450   46.9490 O   0  0  0  0  0  0  0  0  0  0  0  0
   35.9780   30.1660   48.4230 P   0  0  1  0  0  0  0  0  0  0  0  0
   36.7530   28.8740   49.2250 O   0  0  0  0  0  0  0  0  0  0  0  0
   37.4400   29.1820   49.8650 H   0  0  0  0  0  0  0  0  0  0  0  0
   34.3970   30.3360   49.0280 O   0  0  0  0  0  0  0  0  0  0  0  0
   34.1280   29.2040   49.7710 C   0  0  0  0  0  0  0  0  0  0  0  0
   33.6150   29.4840   50.7350 H   0  0  0  0  0  0  0  0  0  0  0  0
   35.0380   28.6660   50.1000 H   0  0  0  0  0  0  0  0  0  0  0  0
   33.2680   28.2250   49.0710 C   0  0  0  0  0  0  0  0  0  0  0  0
   33.8970   27.3330   48.2360 C   0  0  0  0  0  0  0  0  0  0  0  0
   33.1410   26.3840   47.5460 C   0  0  0  0  0  0  0  0  0  0  0  0
   31.7920   26.4020   47.7470 N   0  0  0  0  0  0  0  0  0  0  0  0
   31.1990   27.2870   48.5700 C   0  0  0  0  0  0  0  0  0  0  0  0
   31.9330   28.2060   49.2380 N   0  0  0  0  0  0  0  0  0  0  0  0
   34.9470   27.2410   48.0140 H   0  0  0  0  0  0  0  0  0  0  0  0
   33.5350   25.6500   46.8770 H   0  0  0  0  0  0  0  0  0  0  0  0
   30.1260   27.2130   48.6560 H   0  0  0  0  0  0  0  0  0  0  0  0
  1  3  1  0  0  0  0
  2  7  1  6  0  0  0
  2  6  1  0  0  0  0
  2  3  1  0  0  0  0
  3  8  1  6  0  0  0
  3  4  1  0  0  0  0
  4  9  1  0  0  0  0
  4 10  1  0  0  0  0
  5  4  1  0  0  0  0
  6  5  1  0  0  0  0
 11  6  1  0  0  0  0
 12  6  1  0  0  0  0
 13  2  1  0  0  0  0
 14 13  1  0  0  0  0
 15 14  2  0  0  0  0
 15 16  1  0  0  0  0
 17 15  1  0  0  0  0
 18 19  1  0  0  0  0
 18 17  2  0  0  0  0
 19 14  1  0  0  0  0
 21 20  2  6  0  0  0
 21  1  1  0  0  0  0
 21 24  1  0  0  0  0
 21 22  1  0  0  0  0
 22 23  1  0  0  0  0
 24 25  1  0  0  0  0
 25 27  1  0  0  0  0
 25 26  1  0  0  0  0
 28 33  1  0  0  0  0
 28 25  1  0  0  0  0
 29 28  2  0  0  0  0
 30 31  2  0  0  0  0
 30 29  1  0  0  0  0
 31 32  1  0  0  0  0
 32 36  1  0  0  0  0
 32 33  2  0  0  0  0
 34 29  1  0  0  0  0
 35 30  1  0  0  0  0
M  END
>  <minimizedAffinity>
-4.54641819

>  <minimizedRMSD>
0.350375205

$$$$
