
 OpenBabel03272507203D

 27 29  0  0  1  0  0  0  0  0999 V2000
   36.9010   31.2460   49.3150 C   0  0  0  0  0  0  0  0  0  0  0  0
   37.2110   32.4200   49.9920 C   0  0  0  0  0  0  0  0  0  0  0  0
   38.1470   33.2380   49.3670 C   0  0  0  0  0  0  0  0  0  0  0  0
   38.7040   32.8900   48.1740 N   0  0  0  0  0  0  0  0  0  0  0  0
   38.3740   31.7330   47.5430 C   0  0  0  0  0  0  0  0  0  0  0  0
   37.4630   30.9010   48.1200 N   0  0  0  0  0  0  0  0  0  0  0  0
   36.7710   32.6860   50.9240 H   0  0  0  0  0  0  0  0  0  0  0  0
   38.4640   34.1780   49.8040 H   0  0  0  0  0  0  0  0  0  0  0  0
   35.8890   30.3510   49.9560 C   0  0  1  0  0  0  0  0  0  0  0  0
   34.7100   29.8780   49.2330 C   0  0  2  0  0  0  0  0  0  0  0  0
   35.8820   28.9470   49.3130 C   0  0  0  0  0  0  0  0  0  0  0  0
   35.9840   30.3300   51.0780 H   0  0  0  0  0  0  0  0  0  0  0  0
   33.8110   29.7640   49.8940 H   0  0  0  0  0  0  0  0  0  0  0  0
   35.7160   28.0920   50.0270 H   0  0  0  0  0  0  0  0  0  0  0  0
   36.5030   28.7550   48.4370 H   0  0  0  0  0  0  0  0  0  0  0  0
   34.4200   30.4930   48.0240 O   0  0  0  0  0  0  0  0  0  0  0  0
   33.7230   30.0330   46.9580 C   0  0  0  0  0  0  0  0  0  0  0  0
   33.9010   28.8930   46.4820 O   0  0  0  0  0  0  0  0  0  0  0  0
   32.8400   31.0350   46.5490 N   0  0  0  0  0  0  0  0  0  0  0  0
   33.1650   31.7540   45.8960 H   0  0  0  0  0  0  0  0  0  0  0  0
   31.9460   30.7930   47.0630 H   0  0  0  0  0  0  0  0  0  0  0  0
   39.0290   31.4900   46.3040 C   0  0  0  0  0  0  0  0  0  0  0  0
   39.0530   30.4570   45.4310 C   0  0  0  0  0  0  0  0  0  0  0  0
   38.4300   29.5960   45.7240 H   0  0  0  0  0  0  0  0  0  0  0  0
   39.7880   30.4940   44.2930 C   0  0  0  0  0  3  0  0  0  0  0  0
   40.5150   31.6500   44.0740 C   0  0  0  0  0  3  0  0  0  0  0  0
   40.0760   32.6800   45.6060 S   0  0  0  0  0  0  0  0  0  0  0  0
  1  9  1  0  0  0  0
  1  2  1  0  0  0  0
  2  7  1  0  0  0  0
  3  8  1  0  0  0  0
  3  2  2  0  0  0  0
  4  3  1  0  0  0  0
  5  6  1  0  0  0  0
  5  4  2  0  0  0  0
  6  1  2  0  0  0  0
  9 12  1  1  0  0  0
 10 11  1  0  0  0  0
 10 13  1  1  0  0  0
 10  9  1  0  0  0  0
 11  9  1  0  0  0  0
 11 14  1  0  0  0  0
 15 11  1  0  0  0  0
 16 10  1  0  0  0  0
 17 16  1  0  0  0  0
 18 17  2  0  0  0  0
 19 17  1  0  0  0  0
 19 21  1  0  0  0  0
 20 19  1  0  0  0  0
 22  5  1  0  0  0  0
 23 24  1  0  0  0  0
 23 22  2  0  0  0  0
 25 23  1  0  0  0  0
 26 25  2  0  0  0  0
 26 27  1  0  0  0  0
 27 22  1  0  0  0  0
M  END
>  <minimizedAffinity>
-5.75351667

>  <minimizedRMSD>
2.59440184

$$$$
