
 OpenBabel03272507023D

 43 46  0  0  1  0  0  0  0  0999 V2000
   35.0370   30.0030   49.0330 C   0  0  2  0  0  0  0  0  0  0  0  0
   35.9080   30.6420   48.0090 C   0  0  0  0  0  0  0  0  0  0  0  0
   37.2850   30.0060   47.9420 C   0  0  2  0  0  0  0  0  0  0  0  0
   37.9890   30.0280   49.2490 C   0  0  0  0  0  0  0  0  0  0  0  0
   37.0850   29.7080   50.4200 C   0  0  0  0  0  0  0  0  0  0  0  0
   35.7910   29.0810   49.9630 C   0  0  0  0  0  0  0  0  0  0  0  0
   34.5330   30.7360   49.7290 H   0  0  0  0  0  0  0  0  0  0  0  0
   36.1140   31.6870   48.4120 H   0  0  0  0  0  0  0  0  0  0  0  0
   35.5720   30.6800   46.9830 H   0  0  0  0  0  0  0  0  0  0  0  0
   37.1190   28.9460   47.6560 H   0  0  0  0  0  0  0  0  0  0  0  0
   38.7310   29.1760   49.2230 H   0  0  0  0  0  0  0  0  0  0  0  0
   38.5430   30.9060   49.5310 H   0  0  0  0  0  0  0  0  0  0  0  0
   37.5760   29.1320   51.2020 H   0  0  0  0  0  0  0  0  0  0  0  0
   36.7790   30.6720   50.9000 H   0  0  0  0  0  0  0  0  0  0  0  0
   35.9810   28.0960   49.4470 H   0  0  0  0  0  0  0  0  0  0  0  0
   35.1670   28.8810   50.8430 H   0  0  0  0  0  0  0  0  0  0  0  0
   38.0980   30.6110   46.9350 N   0  0  1  0  0  0  0  0  0  0  0  0
   37.8930   30.0380   45.6150 C   0  0  0  0  0  0  0  0  0  0  0  0
   38.9310   30.8340   44.8210 C   0  0  0  0  0  0  0  0  0  0  0  0
   38.7540   32.2030   45.4100 C   0  0  0  0  0  0  0  0  0  0  0  0
   38.0520   31.9960   46.7820 C   0  0  2  0  0  0  0  0  0  0  0  0
   38.1080   28.9730   45.5460 H   0  0  0  0  0  0  0  0  0  0  0  0
   36.8890   30.3210   45.2040 H   0  0  0  0  0  0  0  0  0  0  0  0
   38.5680   30.8770   43.7640 H   0  0  0  0  0  0  0  0  0  0  0  0
   39.9300   30.4020   44.9200 H   0  0  0  0  0  0  0  0  0  0  0  0
   38.1740   32.8820   44.7640 H   0  0  0  0  0  0  0  0  0  0  0  0
   39.7610   32.6460   45.5400 H   0  0  0  0  0  0  0  0  0  0  0  0
   37.0130   32.3340   46.6060 H   0  0  0  0  0  0  0  0  0  0  0  0
   38.7160   32.8950   47.6540 C   0  0  0  0  0  0  0  0  0  0  0  0
   39.8530   33.6790   47.5290 C   0  0  0  0  0  0  0  0  0  0  0  0
   40.3740   33.6230   46.5850 H   0  0  0  0  0  0  0  0  0  0  0  0
   40.2600   34.4680   48.5740 C   0  0  0  0  0  3  0  0  0  0  0  0
   39.4720   34.4420   49.7660 C   0  0  0  0  0  3  0  0  0  0  0  0
   38.1290   33.2680   49.3820 S   0  0  0  0  0  0  0  0  0  0  0  0
   33.9360   29.2100   48.4370 C   0  0  0  0  0  0  0  0  0  0  0  0
   33.6330   29.5450   47.1150 C   0  0  0  0  0  0  0  0  0  0  0  0
   32.6050   28.8110   46.4950 C   0  0  0  0  0  0  0  0  0  0  0  0
   31.9620   27.8180   47.2120 N   0  0  0  0  0  0  0  0  0  0  0  0
   32.2970   27.5310   48.4990 C   0  0  0  0  0  0  0  0  0  0  0  0
   33.2630   28.2250   49.0740 N   0  0  0  0  0  0  0  0  0  0  0  0
   33.9410   30.2390   46.3600 H   0  0  0  0  0  0  0  0  0  0  0  0
   32.1900   28.8690   45.5110 H   0  0  0  0  0  0  0  0  0  0  0  0
   31.7830   26.7550   49.0340 H   0  0  0  0  0  0  0  0  0  0  0  0
  1  7  1  1  0  0  0
  1  6  1  0  0  0  0
  2  8  1  0  0  0  0
  2  1  1  0  0  0  0
  3 10  1  6  0  0  0
  3  2  1  0  0  0  0
  3  4  1  0  0  0  0
  4 12  1  0  0  0  0
  4  5  1  0  0  0  0
  5 14  1  0  0  0  0
  5 13  1  0  0  0  0
  6  5  1  0  0  0  0
  6 16  1  0  0  0  0
  9  2  1  0  0  0  0
 11  4  1  0  0  0  0
 15  6  1  0  0  0  0
 17 18  1  6  0  0  0
 17  3  1  0  0  0  0
 19 25  1  0  0  0  0
 19 20  1  0  0  0  0
 19 18  1  0  0  0  0
 20 27  1  0  0  0  0
 20 21  1  0  0  0  0
 21 28  1  6  0  0  0
 21 17  1  0  0  0  0
 21 29  1  0  0  0  0
 22 18  1  0  0  0  0
 23 18  1  0  0  0  0
 24 19  1  0  0  0  0
 26 20  1  0  0  0  0
 29 34  1  0  0  0  0
 30 29  2  0  0  0  0
 30 32  1  0  0  0  0
 31 30  1  0  0  0  0
 32 33  2  0  0  0  0
 34 33  1  0  0  0  0
 35  1  1  0  0  0  0
 35 40  1  0  0  0  0
 36 35  2  0  0  0  0
 37 36  1  0  0  0  0
 37 38  2  0  0  0  0
 38 39  1  0  0  0  0
 39 43  1  0  0  0  0
 39 40  2  0  0  0  0
 41 36  1  0  0  0  0
 42 37  1  0  0  0  0
M  END
>  <minimizedAffinity>
-5.17638969

>  <minimizedRMSD>
1.21291089

$$$$
