
 OpenBabel03272507453D

 30 32  0  0  0  0  0  0  0  0999 V2000
   34.9940   29.1420   47.9130 N   0  0  0  0  0  0  0  0  0  0  0  0
   34.0460   29.9430   47.1890 C   0  0  0  0  0  0  0  0  0  0  0  0
   32.6420   29.4940   47.1660 C   0  0  0  0  0  0  0  0  0  0  0  0
   32.3890   28.0270   47.2920 C   0  0  0  0  0  0  0  0  0  0  0  0
   33.4590   27.2760   48.0270 C   0  0  0  0  0  0  0  0  0  0  0  0
   34.8260   27.7710   47.5020 C   0  0  0  0  0  0  0  0  0  0  0  0
   34.4350   30.0200   46.1430 H   0  0  0  0  0  0  0  0  0  0  0  0
   34.1090   30.9760   47.6110 H   0  0  0  0  0  0  0  0  0  0  0  0
   32.0840   30.0360   47.9760 H   0  0  0  0  0  0  0  0  0  0  0  0
   32.1590   29.8350   46.2250 H   0  0  0  0  0  0  0  0  0  0  0  0
   32.2740   27.5680   46.2910 H   0  0  0  0  0  0  0  0  0  0  0  0
   33.4440   27.4500   49.1080 H   0  0  0  0  0  0  0  0  0  0  0  0
   33.3860   26.2110   47.7380 H   0  0  0  0  0  0  0  0  0  0  0  0
   35.6370   27.1270   47.8940 H   0  0  0  0  0  0  0  0  0  0  0  0
   34.8140   27.6290   46.4060 H   0  0  0  0  0  0  0  0  0  0  0  0
   35.9370   29.6200   48.8720 C   0  0  0  0  0  0  0  0  0  0  0  0
   35.8840   29.3600   50.2400 C   0  0  0  0  0  0  0  0  0  0  0  0
   36.8830   29.9000   51.0350 C   0  0  0  0  0  0  0  0  0  0  0  0
   37.8630   30.6540   50.4660 N   0  0  0  0  0  0  0  0  0  0  0  0
   37.8770   30.8810   49.1380 C   0  0  0  0  0  0  0  0  0  0  0  0
   36.9210   30.3650   48.3650 N   0  0  0  0  0  0  0  0  0  0  0  0
   35.0620   28.7490   50.5800 H   0  0  0  0  0  0  0  0  0  0  0  0
   36.8260   29.6900   52.0810 H   0  0  0  0  0  0  0  0  0  0  0  0
   38.6670   31.4860   48.6900 H   0  0  0  0  0  0  0  0  0  0  0  0
   31.1230   27.8260   48.0200 C   0  0  0  0  0  0  0  0  0  0  0  0
   30.8960   27.7470   49.3490 C   0  0  0  0  0  0  0  0  0  0  0  0
   31.7460   27.8410   50.0440 H   0  0  0  0  0  0  0  0  0  0  0  0
   29.6120   27.5540   49.7980 C   0  0  0  0  0  3  0  0  0  0  0  0
   28.6280   27.4500   48.8640 C   0  0  0  0  0  3  0  0  0  0  0  0
   29.5130   27.6290   47.2690 S   0  0  0  0  0  0  0  0  0  0  0  0
  1 16  1  0  0  0  0
  2  8  1  0  0  0  0
  2  1  1  0  0  0  0
  3  2  1  0  0  0  0
  3  4  1  0  0  0  0
  3  9  1  0  0  0  0
  4 25  1  0  0  0  0
  4  5  1  0  0  0  0
  5 12  1  0  0  0  0
  6 14  1  0  0  0  0
  6  1  1  0  0  0  0
  6  5  1  0  0  0  0
  7  2  1  0  0  0  0
 10  3  1  0  0  0  0
 11  4  1  0  0  0  0
 13  5  1  0  0  0  0
 15  6  1  0  0  0  0
 16 17  1  0  0  0  0
 17 22  1  0  0  0  0
 17 18  2  0  0  0  0
 18 23  1  0  0  0  0
 19 18  1  0  0  0  0
 20 19  2  0  0  0  0
 21 16  2  0  0  0  0
 21 20  1  0  0  0  0
 24 20  1  0  0  0  0
 25 26  2  0  0  0  0
 26 28  1  0  0  0  0
 26 27  1  0  0  0  0
 29 28  2  0  0  0  0
 30 25  1  0  0  0  0
 30 29  1  0  0  0  0
M  END
>  <minimizedAffinity>
-3.88696313

>  <minimizedRMSD>
7.18621254

$$$$
