
 OpenBabel03262520083D

 15 16  0  0  0  0  0  0  0  0999 V2000
   39.9300   22.6410   37.3490 C   0  0  0  0  0  0  0  0  0  0  0  0
   39.2710   23.3860   38.3490 C   0  0  0  0  0  0  0  0  0  0  0  0
   37.8920   23.5750   38.2250 C   0  0  0  0  0  0  0  0  0  0  0  0
   37.2560   23.0320   37.1470 N   0  0  0  0  0  0  0  0  0  0  0  0
   37.9230   22.3260   36.2120 C   0  0  0  0  0  0  0  0  0  0  0  0
   39.2450   22.1260   36.3020 N   0  0  0  0  0  0  0  0  0  0  0  0
   41.0020   22.5010   37.4580 H   0  0  0  0  0  0  0  0  0  0  0  0
   39.7690   23.8160   39.2010 H   0  0  0  0  0  0  0  0  0  0  0  0
   37.3800   24.1490   38.9950 H   0  0  0  0  0  0  0  0  0  0  0  0
   37.2210   21.7530   35.0650 C   0  0  0  0  0  0  0  0  0  0  0  0
   36.1170   20.9840   35.0540 C   0  0  0  0  0  0  0  0  0  0  0  0
   35.6280   20.7150   36.0050 H   0  0  0  0  0  0  0  0  0  0  0  0
   35.6140   20.5440   33.8520 C   0  0  0  0  0  3  0  0  0  0  0  0
   36.3020   20.9370   32.7240 C   0  0  0  0  0  3  0  0  0  0  0  0
   37.6770   21.9460   33.4130 S   0  0  0  0  0  0  0  0  0  0  0  0
  1  7  1  0  0  0  0
  1  2  1  0  0  0  0
  2  8  1  0  0  0  0
  3  2  2  0  0  0  0
  3  9  1  0  0  0  0
  4  3  1  0  0  0  0
  5  6  1  0  0  0  0
  5  4  2  0  0  0  0
  6  1  2  0  0  0  0
 10  5  1  0  0  0  0
 11 10  2  0  0  0  0
 11 12  1  0  0  0  0
 13 11  1  0  0  0  0
 14 15  1  0  0  0  0
 14 13  2  0  0  0  0
 15 10  1  0  0  0  0
M  END
>  <minimizedAffinity>
-3.67307758

$$$$

 OpenBabel03262520083D

 15 16  0  0  0  0  0  0  0  0999 V2000
   37.4700   25.7160   32.9630 C   0  0  0  0  0  0  0  0  0  0  0  0
   36.9620   27.0000   33.2470 C   0  0  0  0  0  0  0  0  0  0  0  0
   36.9780   27.4330   34.5760 C   0  0  0  0  0  0  0  0  0  0  0  0
   37.4830   26.5960   35.5260 N   0  0  0  0  0  0  0  0  0  0  0  0
   37.9590   25.3740   35.2130 C   0  0  0  0  0  0  0  0  0  0  0  0
   37.9590   24.9280   33.9500 N   0  0  0  0  0  0  0  0  0  0  0  0
   37.4520   25.3910   31.9270 H   0  0  0  0  0  0  0  0  0  0  0  0
   36.5630   27.6650   32.5000 H   0  0  0  0  0  0  0  0  0  0  0  0
   36.5870   28.4240   34.7990 H   0  0  0  0  0  0  0  0  0  0  0  0
   38.4960   24.4920   36.2490 C   0  0  0  0  0  0  0  0  0  0  0  0
   38.0710   24.3260   37.5150 C   0  0  0  0  0  0  0  0  0  0  0  0
   37.2060   24.9050   37.8820 H   0  0  0  0  0  0  0  0  0  0  0  0
   38.7240   23.4360   38.3340 C   0  0  0  0  0  3  0  0  0  0  0  0
   39.7920   22.7660   37.7760 C   0  0  0  0  0  3  0  0  0  0  0  0
   39.8430   23.4320   36.0620 S   0  0  0  0  0  0  0  0  0  0  0  0
  1  2  2  0  0  0  0
  1  6  1  0  0  0  0
  2  3  1  0  0  0  0
  3  9  1  0  0  0  0
  3  4  2  0  0  0  0
  5  4  1  0  0  0  0
  5 10  1  0  0  0  0
  6  5  2  0  0  0  0
  7  1  1  0  0  0  0
  8  2  1  0  0  0  0
 10 11  2  0  0  0  0
 11 12  1  0  0  0  0
 11 13  1  0  0  0  0
 14 13  2  0  0  0  0
 15 10  1  0  0  0  0
 15 14  1  0  0  0  0
M  END
>  <minimizedAffinity>
-3.58425093

$$$$

 OpenBabel03262520083D

 15 16  0  0  0  0  0  0  0  0999 V2000
   37.0670   27.4850   34.5820 C   0  0  0  0  0  0  0  0  0  0  0  0
   36.9310   27.0800   33.2380 C   0  0  0  0  0  0  0  0  0  0  0  0
   37.3280   25.7830   32.9000 C   0  0  0  0  0  0  0  0  0  0  0  0
   37.8240   24.9780   33.8830 N   0  0  0  0  0  0  0  0  0  0  0  0
   37.9390   25.4040   35.1570 C   0  0  0  0  0  0  0  0  0  0  0  0
   37.5670   26.6400   35.5140 N   0  0  0  0  0  0  0  0  0  0  0  0
   36.7550   28.4950   34.8310 H   0  0  0  0  0  0  0  0  0  0  0  0
   36.5390   27.7110   32.4590 H   0  0  0  0  0  0  0  0  0  0  0  0
   37.2240   25.4670   31.8640 H   0  0  0  0  0  0  0  0  0  0  0  0
   38.4740   24.5240   36.1950 C   0  0  0  0  0  0  0  0  0  0  0  0
   38.0310   24.3420   37.4530 C   0  0  0  0  0  0  0  0  0  0  0  0
   37.1500   24.9010   37.8080 H   0  0  0  0  0  0  0  0  0  0  0  0
   38.6860   23.4570   38.2760 C   0  0  0  0  0  3  0  0  0  0  0  0
   39.7760   22.8110   37.7320 C   0  0  0  0  0  3  0  0  0  0  0  0
   39.8440   23.4910   36.0240 S   0  0  0  0  0  0  0  0  0  0  0  0
  1  7  1  0  0  0  0
  1  6  1  0  0  0  0
  2  1  2  0  0  0  0
  3  2  1  0  0  0  0
  3  4  2  0  0  0  0
  4  5  1  0  0  0  0
  5  6  2  0  0  0  0
  5 10  1  0  0  0  0
  8  2  1  0  0  0  0
  9  3  1  0  0  0  0
 10 11  2  0  0  0  0
 11 12  1  0  0  0  0
 11 13  1  0  0  0  0
 14 13  2  0  0  0  0
 15 10  1  0  0  0  0
 15 14  1  0  0  0  0
M  END
>  <minimizedAffinity>
-3.57923985

$$$$

 OpenBabel03262520083D

 15 16  0  0  0  0  0  0  0  0999 V2000
   39.8630   23.0350   36.7900 C   0  0  0  0  0  0  0  0  0  0  0  0
   39.3290   23.0180   38.0950 C   0  0  0  0  0  0  0  0  0  0  0  0
   38.2890   23.9040   38.3900 C   0  0  0  0  0  0  0  0  0  0  0  0
   37.8450   24.7360   37.4050 N   0  0  0  0  0  0  0  0  0  0  0  0
   38.3830   24.7220   36.1690 C   0  0  0  0  0  0  0  0  0  0  0  0
   39.3800   23.8850   35.8530 N   0  0  0  0  0  0  0  0  0  0  0  0
   40.6710   22.3420   36.5740 H   0  0  0  0  0  0  0  0  0  0  0  0
   39.6770   22.3630   38.8750 H   0  0  0  0  0  0  0  0  0  0  0  0
   37.8750   23.8940   39.3970 H   0  0  0  0  0  0  0  0  0  0  0  0
   37.8920   25.6230   35.1280 C   0  0  0  0  0  0  0  0  0  0  0  0
   37.4650   26.8940   35.2490 C   0  0  0  0  0  0  0  0  0  0  0  0
   37.4620   27.3770   36.2400 H   0  0  0  0  0  0  0  0  0  0  0  0
   37.0390   27.5710   34.1310 C   0  0  0  0  0  3  0  0  0  0  0  0
   37.0830   26.8720   32.9430 C   0  0  0  0  0  3  0  0  0  0  0  0
   37.7450   25.2340   33.4540 S   0  0  0  0  0  0  0  0  0  0  0  0
  1  2  1  0  0  0  0
  2  3  2  0  0  0  0
  2  8  1  0  0  0  0
  3  9  1  0  0  0  0
  4  3  1  0  0  0  0
  5  4  2  0  0  0  0
  6  5  1  0  0  0  0
  6  1  2  0  0  0  0
  7  1  1  0  0  0  0
 10 11  2  0  0  0  0
 10  5  1  0  0  0  0
 11 12  1  0  0  0  0
 13 11  1  0  0  0  0
 14 15  1  0  0  0  0
 14 13  2  0  0  0  0
 15 10  1  0  0  0  0
M  END
>  <minimizedAffinity>
-3.56283379

$$$$

 OpenBabel03262520083D

 15 16  0  0  0  0  0  0  0  0999 V2000
   38.2470   23.8930   38.2750 C   0  0  0  0  0  0  0  0  0  0  0  0
   39.3310   23.0220   38.0420 C   0  0  0  0  0  0  0  0  0  0  0  0
   39.9310   23.0420   36.7800 C   0  0  0  0  0  0  0  0  0  0  0  0
   39.4410   23.9010   35.8420 N   0  0  0  0  0  0  0  0  0  0  0  0
   38.4020   24.7200   36.1040 C   0  0  0  0  0  0  0  0  0  0  0  0
   37.8050   24.7250   37.3030 N   0  0  0  0  0  0  0  0  0  0  0  0
   37.7900   23.8670   39.2600 H   0  0  0  0  0  0  0  0  0  0  0  0
   39.7220   22.3420   38.7810 H   0  0  0  0  0  0  0  0  0  0  0  0
   40.7680   22.3710   36.5970 H   0  0  0  0  0  0  0  0  0  0  0  0
   37.8920   25.6330   35.0820 C   0  0  0  0  0  0  0  0  0  0  0  0
   37.4610   26.9000   35.2280 C   0  0  0  0  0  0  0  0  0  0  0  0
   37.4680   27.3690   36.2250 H   0  0  0  0  0  0  0  0  0  0  0  0
   37.0160   27.5910   34.1250 C   0  0  0  0  0  3  0  0  0  0  0  0
   37.0490   26.9100   32.9260 C   0  0  0  0  0  3  0  0  0  0  0  0
   37.7260   25.2690   33.4050 S   0  0  0  0  0  0  0  0  0  0  0  0
  1  7  1  0  0  0  0
  2  1  1  0  0  0  0
  2  8  1  0  0  0  0
  3  2  2  0  0  0  0
  4  5  2  0  0  0  0
  4  3  1  0  0  0  0
  5  6  1  0  0  0  0
  6  1  2  0  0  0  0
  9  3  1  0  0  0  0
 10 11  2  0  0  0  0
 10  5  1  0  0  0  0
 11 12  1  0  0  0  0
 13 11  1  0  0  0  0
 14 15  1  0  0  0  0
 14 13  2  0  0  0  0
 15 10  1  0  0  0  0
M  END
>  <minimizedAffinity>
-3.55762219

$$$$

 OpenBabel03262520083D

 15 16  0  0  0  0  0  0  0  0999 V2000
   38.3390   24.2290   36.2200 C   0  0  0  0  0  0  0  0  0  0  0  0
   37.7330   24.1880   37.4920 C   0  0  0  0  0  0  0  0  0  0  0  0
   38.3990   23.5070   38.5160 C   0  0  0  0  0  0  0  0  0  0  0  0
   39.5970   22.9210   38.2330 N   0  0  0  0  0  0  0  0  0  0  0  0
   40.1440   22.9830   37.0020 C   0  0  0  0  0  0  0  0  0  0  0  0
   39.5320   23.6270   36.0000 N   0  0  0  0  0  0  0  0  0  0  0  0
   37.8110   24.7610   35.4340 H   0  0  0  0  0  0  0  0  0  0  0  0
   36.7870   24.6500   37.7200 H   0  0  0  0  0  0  0  0  0  0  0  0
   37.9340   23.4740   39.4990 H   0  0  0  0  0  0  0  0  0  0  0  0
   41.4300   22.3460   36.7210 C   0  0  0  0  0  0  0  0  0  0  0  0
   41.8590   21.1230   37.0830 C   0  0  0  0  0  0  0  0  0  0  0  0
   41.1990   20.4640   37.6710 H   0  0  0  0  0  0  0  0  0  0  0  0
   43.1180   20.7140   36.7120 C   0  0  0  0  0  3  0  0  0  0  0  0
   43.8600   21.6160   35.9790 C   0  0  0  0  0  3  0  0  0  0  0  0
   42.7250   23.0550   35.8300 S   0  0  0  0  0  0  0  0  0  0  0  0
  1  2  1  0  0  0  0
  2  8  1  0  0  0  0
  2  3  2  0  0  0  0
  3  9  1  0  0  0  0
  4  3  1  0  0  0  0
  5  4  2  0  0  0  0
  6  1  2  0  0  0  0
  6  5  1  0  0  0  0
  7  1  1  0  0  0  0
 10  5  1  0  0  0  0
 10 11  2  0  0  0  0
 11 12  1  0  0  0  0
 13 11  1  0  0  0  0
 14 13  2  0  0  0  0
 15 14  1  0  0  0  0
 15 10  1  0  0  0  0
M  END
>  <minimizedAffinity>
-3.3474381

$$$$

 OpenBabel03262520083D

 15 16  0  0  0  0  0  0  0  0999 V2000
   36.3420   23.2610   31.7930 C   0  0  0  0  0  0  0  0  0  0  0  0
   35.4050   23.9960   31.0380 C   0  0  0  0  0  0  0  0  0  0  0  0
   35.4060   25.3880   31.1650 C   0  0  0  0  0  0  0  0  0  0  0  0
   36.3100   25.9620   32.0090 N   0  0  0  0  0  0  0  0  0  0  0  0
   37.1910   25.2230   32.7140 C   0  0  0  0  0  0  0  0  0  0  0  0
   37.2160   23.8880   32.6150 N   0  0  0  0  0  0  0  0  0  0  0  0
   36.3300   22.1800   31.6850 H   0  0  0  0  0  0  0  0  0  0  0  0
   34.6900   23.5470   30.3700 H   0  0  0  0  0  0  0  0  0  0  0  0
   34.6850   25.9590   30.5840 H   0  0  0  0  0  0  0  0  0  0  0  0
   38.1520   25.8600   33.6140 C   0  0  0  0  0  0  0  0  0  0  0  0
   37.9120   26.6580   34.6710 C   0  0  0  0  0  0  0  0  0  0  0  0
   36.8730   26.9030   34.9470 H   0  0  0  0  0  0  0  0  0  0  0  0
   38.9720   27.1580   35.3910 C   0  0  0  0  0  3  0  0  0  0  0  0
   40.2290   26.7910   34.9590 C   0  0  0  0  0  3  0  0  0  0  0  0
   39.8670   25.7190   33.5090 S   0  0  0  0  0  0  0  0  0  0  0  0
  1  6  1  0  0  0  0
  2  3  1  0  0  0  0
  2  1  2  0  0  0  0
  3  4  2  0  0  0  0
  4  5  1  0  0  0  0
  5 10  1  0  0  0  0
  6  5  2  0  0  0  0
  7  1  1  0  0  0  0
  8  2  1  0  0  0  0
  9  3  1  0  0  0  0
 10 11  2  0  0  0  0
 11 12  1  0  0  0  0
 11 13  1  0  0  0  0
 14 13  2  0  0  0  0
 15 10  1  0  0  0  0
 15 14  1  0  0  0  0
M  END
>  <minimizedAffinity>
-3.27363849

$$$$

 OpenBabel03262520083D

 15 16  0  0  0  0  0  0  0  0999 V2000
   39.5990   22.7800   37.1660 C   0  0  0  0  0  0  0  0  0  0  0  0
   38.5910   23.1560   38.0770 C   0  0  0  0  0  0  0  0  0  0  0  0
   37.8970   24.3450   37.8330 C   0  0  0  0  0  0  0  0  0  0  0  0
   38.2280   25.0770   36.7320 N   0  0  0  0  0  0  0  0  0  0  0  0
   39.2000   24.6820   35.8850 C   0  0  0  0  0  0  0  0  0  0  0  0
   39.8840   23.5490   36.0890 N   0  0  0  0  0  0  0  0  0  0  0  0
   40.1310   21.8540   37.3670 H   0  0  0  0  0  0  0  0  0  0  0  0
   38.3250   22.5810   38.9470 H   0  0  0  0  0  0  0  0  0  0  0  0
   37.1170   24.6380   38.5350 H   0  0  0  0  0  0  0  0  0  0  0  0
   39.5390   25.4830   34.7100 C   0  0  0  0  0  0  0  0  0  0  0  0
   40.2300   26.6370   34.6490 C   0  0  0  0  0  0  0  0  0  0  0  0
   40.6200   27.0900   35.5760 H   0  0  0  0  0  0  0  0  0  0  0  0
   40.4400   27.2330   33.4290 C   0  0  0  0  0  3  0  0  0  0  0  0
   39.9090   26.5830   32.3340 C   0  0  0  0  0  3  0  0  0  0  0  0
   39.1090   25.1070   33.0830 S   0  0  0  0  0  0  0  0  0  0  0  0
  1  7  1  0  0  0  0
  1  2  1  0  0  0  0
  2  8  1  0  0  0  0
  3  2  2  0  0  0  0
  3  9  1  0  0  0  0
  4  3  1  0  0  0  0
  5  6  1  0  0  0  0
  5  4  2  0  0  0  0
  6  1  2  0  0  0  0
 10  5  1  0  0  0  0
 11 10  2  0  0  0  0
 11 12  1  0  0  0  0
 13 11  1  0  0  0  0
 14 15  1  0  0  0  0
 14 13  2  0  0  0  0
 15 10  1  0  0  0  0
M  END
>  <minimizedAffinity>
-3.25430202

$$$$

 OpenBabel03262520083D

 15 16  0  0  0  0  0  0  0  0999 V2000
   37.0110   27.2990   33.7420 C   0  0  0  0  0  0  0  0  0  0  0  0
   36.7770   27.3230   32.3520 C   0  0  0  0  0  0  0  0  0  0  0  0
   36.0210   28.3770   31.8310 C   0  0  0  0  0  0  0  0  0  0  0  0
   35.5510   29.3260   32.6910 N   0  0  0  0  0  0  0  0  0  0  0  0
   35.7970   29.2660   34.0150 C   0  0  0  0  0  0  0  0  0  0  0  0
   36.5180   28.2710   34.5460 N   0  0  0  0  0  0  0  0  0  0  0  0
   37.6000   26.4750   34.1330 H   0  0  0  0  0  0  0  0  0  0  0  0
   37.1460   26.5760   31.6690 H   0  0  0  0  0  0  0  0  0  0  0  0
   35.8380   28.3990   30.7580 H   0  0  0  0  0  0  0  0  0  0  0  0
   35.2830   30.2950   34.9190 C   0  0  0  0  0  0  0  0  0  0  0  0
   35.9720   31.1670   35.6780 C   0  0  0  0  0  0  0  0  0  0  0  0
   37.0740   31.1550   35.6610 H   0  0  0  0  0  0  0  0  0  0  0  0
   35.2870   32.0610   36.4670 C   0  0  0  0  0  3  0  0  0  0  0  0
   33.9100   31.9890   36.4140 C   0  0  0  0  0  3  0  0  0  0  0  0
   33.6170   30.6230   35.2180 S   0  0  0  0  0  0  0  0  0  0  0  0
  1  7  1  0  0  0  0
  1  6  1  0  0  0  0
  2  1  2  0  0  0  0
  3  2  1  0  0  0  0
  3  4  2  0  0  0  0
  4  5  1  0  0  0  0
  5  6  2  0  0  0  0
  5 10  1  0  0  0  0
  8  2  1  0  0  0  0
  9  3  1  0  0  0  0
 10 15  1  0  0  0  0
 10 11  2  0  0  0  0
 11 13  1  0  0  0  0
 12 11  1  0  0  0  0
 14 13  2  0  0  0  0
 15 14  1  0  0  0  0
M  END
>  <minimizedAffinity>
-3.2490437

$$$$
