
 OpenBabel03272506303D

 31 33  0  0  1  0  0  0  0  0999 V2000
   33.3100   28.7270   47.7930 C   0  0  1  0  0  0  0  0  0  0  0  0
   33.4000   29.0140   46.3640 C   0  0  0  0  0  0  0  0  0  0  0  0
   34.0550   27.9960   45.4960 C   0  0  0  0  0  0  0  0  0  0  0  0
   33.8820   26.5790   45.8810 C   0  0  0  0  0  0  0  0  0  0  0  0
   33.7680   26.2860   47.3230 C   0  0  0  0  0  0  0  0  0  0  0  0
   32.9970   27.2900   48.0980 C   0  0  2  0  0  0  0  0  0  0  0  0
   32.4220   29.2920   48.2200 H   0  0  0  0  0  0  0  0  0  0  0  0
   33.7950   29.9850   46.0680 H   0  0  0  0  0  0  0  0  0  0  0  0
   32.3280   29.0520   45.9870 H   0  0  0  0  0  0  0  0  0  0  0  0
   35.1490   28.2600   45.4710 H   0  0  0  0  0  0  0  0  0  0  0  0
   33.7080   28.1380   44.4500 H   0  0  0  0  0  0  0  0  0  0  0  0
   33.0260   26.1470   45.3280 H   0  0  0  0  0  0  0  0  0  0  0  0
   34.8000   26.0310   45.5060 H   0  0  0  0  0  0  0  0  0  0  0  0
   33.2280   25.3080   47.4330 H   0  0  0  0  0  0  0  0  0  0  0  0
   34.7990   26.1820   47.7570 H   0  0  0  0  0  0  0  0  0  0  0  0
   32.9420   27.0620   49.1580 H   0  0  0  0  0  0  0  0  0  0  0  0
   35.2840   30.2790   48.1820 C   0  0  0  0  0  0  0  0  0  0  0  0
   34.4220   29.2460   48.6250 C   0  0  0  0  0  0  0  0  0  0  0  0
   34.6830   28.7570   49.8910 C   0  0  0  0  0  0  0  0  0  0  0  0
   35.7090   29.2620   50.6270 N   0  0  0  0  0  0  0  0  0  0  0  0
   36.5010   30.2490   50.1570 C   0  0  0  0  0  0  0  0  0  0  0  0
   36.2760   30.7530   48.9260 N   0  0  0  0  0  0  0  0  0  0  0  0
   35.1920   30.7500   47.2190 H   0  0  0  0  0  0  0  0  0  0  0  0
   34.1370   27.9790   50.3930 H   0  0  0  0  0  0  0  0  0  0  0  0
   37.2940   30.5970   50.8030 H   0  0  0  0  0  0  0  0  0  0  0  0
   31.5280   27.0860   47.6490 C   0  0  0  0  0  0  0  0  0  0  0  0
   31.0850   26.0080   47.0920 C   0  0  0  0  0  0  0  0  0  0  0  0
   31.6120   25.0670   46.8400 H   0  0  0  0  0  0  0  0  0  0  0  0
   29.7820   25.8520   46.6950 C   0  0  0  0  0  3  0  0  0  0  0  0
   28.9710   26.9030   46.9190 C   0  0  0  0  0  3  0  0  0  0  0  0
   30.1410   28.1350   47.7260 S   0  0  0  0  0  0  0  0  0  0  0  0
  1  6  1  0  0  0  0
  1  7  1  1  0  0  0
  1 18  1  0  0  0  0
  2  1  1  0  0  0  0
  3  4  1  0  0  0  0
  3  2  1  0  0  0  0
  4  5  1  0  0  0  0
  5 14  1  0  0  0  0
  5 15  1  0  0  0  0
  5  6  1  0  0  0  0
  6 16  1  1  0  0  0
  8  2  1  0  0  0  0
  9  2  1  0  0  0  0
 10  3  1  0  0  0  0
 11  3  1  0  0  0  0
 12  4  1  0  0  0  0
 13  4  1  0  0  0  0
 17 18  2  0  0  0  0
 17 22  1  0  0  0  0
 18 19  1  0  0  0  0
 19 24  1  0  0  0  0
 19 20  2  0  0  0  0
 21 20  1  0  0  0  0
 21 25  1  0  0  0  0
 22 21  2  0  0  0  0
 23 17  1  0  0  0  0
 26 31  1  0  0  0  0
 26  6  1  0  0  0  0
 27 26  2  0  0  0  0
 28 27  1  0  0  0  0
 29 30  2  0  0  0  0
 29 27  1  0  0  0  0
 30 31  1  0  0  0  0
M  END
>  <minimizedAffinity>
-4.04586315

>  <minimizedRMSD>
2.62664151

$$$$
