
 OpenBabel03272507193D

 27 29  0  0  1  0  0  0  0  0999 V2000
   37.6610   31.3390   49.4400 C   0  0  0  0  0  0  0  0  0  0  0  0
   38.2900   32.5640   49.6350 C   0  0  0  0  0  0  0  0  0  0  0  0
   38.9100   33.0990   48.5110 C   0  0  0  0  0  0  0  0  0  0  0  0
   38.8880   32.4490   47.3150 N   0  0  0  0  0  0  0  0  0  0  0  0
   38.2620   31.2530   47.1650 C   0  0  0  0  0  0  0  0  0  0  0  0
   37.6420   30.6910   48.2390 N   0  0  0  0  0  0  0  0  0  0  0  0
   38.3030   33.0660   50.5730 H   0  0  0  0  0  0  0  0  0  0  0  0
   39.4310   34.0490   48.5460 H   0  0  0  0  0  0  0  0  0  0  0  0
   36.9750   30.7420   50.6280 C   0  0  1  0  0  0  0  0  0  0  0  0
   36.1710   29.5260   50.5230 C   0  0  2  0  0  0  0  0  0  0  0  0
   37.5810   29.3740   51.0080 C   0  0  0  0  0  0  0  0  0  0  0  0
   36.9120   31.4600   51.4920 H   0  0  0  0  0  0  0  0  0  0  0  0
   35.2950   29.5220   51.2230 H   0  0  0  0  0  0  0  0  0  0  0  0
   37.6460   29.1660   52.1120 H   0  0  0  0  0  0  0  0  0  0  0  0
   38.3450   28.9300   50.3690 H   0  0  0  0  0  0  0  0  0  0  0  0
   35.8470   29.0900   49.2460 O   0  0  0  0  0  0  0  0  0  0  0  0
   34.6440   28.7600   48.7180 C   0  0  0  0  0  0  0  0  0  0  0  0
   34.2580   27.5780   48.6150 O   0  0  0  0  0  0  0  0  0  0  0  0
   33.9930   29.9390   48.3480 N   0  0  0  0  0  0  0  0  0  0  0  0
   34.1720   30.3420   47.4230 H   0  0  0  0  0  0  0  0  0  0  0  0
   33.4020   30.1660   49.1970 H   0  0  0  0  0  0  0  0  0  0  0  0
   38.3130   30.6810   45.8630 C   0  0  0  0  0  0  0  0  0  0  0  0
   39.2960   30.1550   45.0970 C   0  0  0  0  0  0  0  0  0  0  0  0
   40.2930   30.1580   45.5660 H   0  0  0  0  0  0  0  0  0  0  0  0
   39.0580   29.6680   43.8550 C   0  0  0  0  0  3  0  0  0  0  0  0
   37.7480   29.7410   43.4130 C   0  0  0  0  0  3  0  0  0  0  0  0
   36.8830   30.5510   44.8950 S   0  0  0  0  0  0  0  0  0  0  0  0
  1  2  1  0  0  0  0
  1  9  1  0  0  0  0
  2  7  1  0  0  0  0
  3  8  1  0  0  0  0
  3  2  2  0  0  0  0
  4  3  1  0  0  0  0
  5  4  2  0  0  0  0
  5  6  1  0  0  0  0
  6  1  2  0  0  0  0
  9 11  1  0  0  0  0
  9 12  1  1  0  0  0
 10  9  1  0  0  0  0
 10 11  1  0  0  0  0
 10 13  1  1  0  0  0
 11 14  1  0  0  0  0
 15 11  1  0  0  0  0
 16 10  1  0  0  0  0
 17 16  1  0  0  0  0
 18 17  2  0  0  0  0
 19 17  1  0  0  0  0
 19 21  1  0  0  0  0
 20 19  1  0  0  0  0
 22  5  1  0  0  0  0
 23 24  1  0  0  0  0
 23 22  2  0  0  0  0
 25 23  1  0  0  0  0
 26 25  2  0  0  0  0
 26 27  1  0  0  0  0
 27 22  1  0  0  0  0
M  END
>  <minimizedAffinity>
-5.50992775

>  <minimizedRMSD>
1.17829287

$$$$
