
 OpenBabel03272506303D

 31 33  0  0  1  0  0  0  0  0999 V2000
   33.8360   28.9750   47.4190 C   0  0  1  0  0  0  0  0  0  0  0  0
   33.7860   28.8800   45.9630 C   0  0  0  0  0  0  0  0  0  0  0  0
   34.1030   27.5600   45.3480 C   0  0  0  0  0  0  0  0  0  0  0  0
   33.7080   26.3560   46.1090 C   0  0  0  0  0  0  0  0  0  0  0  0
   33.7360   26.4550   47.5810 C   0  0  0  0  0  0  0  0  0  0  0  0
   33.2900   27.7640   48.1210 C   0  0  2  0  0  0  0  0  0  0  0  0
   33.1430   29.8130   47.7510 H   0  0  0  0  0  0  0  0  0  0  0  0
   34.3210   29.6350   45.3880 H   0  0  0  0  0  0  0  0  0  0  0  0
   32.7010   29.0650   45.6770 H   0  0  0  0  0  0  0  0  0  0  0  0
   35.2150   27.5560   45.1670 H   0  0  0  0  0  0  0  0  0  0  0  0
   33.6530   27.5180   44.3330 H   0  0  0  0  0  0  0  0  0  0  0  0
   32.7170   26.0060   45.7620 H   0  0  0  0  0  0  0  0  0  0  0  0
   34.4410   25.5410   45.8210 H   0  0  0  0  0  0  0  0  0  0  0  0
   33.0340   25.6810   47.9910 H   0  0  0  0  0  0  0  0  0  0  0  0
   34.7750   26.2290   47.9430 H   0  0  0  0  0  0  0  0  0  0  0  0
   33.3350   27.8190   49.2040 H   0  0  0  0  0  0  0  0  0  0  0  0
   35.9650   30.3600   47.3430 C   0  0  0  0  0  0  0  0  0  0  0  0
   35.1310   29.4170   47.9910 C   0  0  0  0  0  0  0  0  0  0  0  0
   35.6020   28.9380   49.1990 C   0  0  0  0  0  0  0  0  0  0  0  0
   36.7930   29.3710   49.6950 N   0  0  0  0  0  0  0  0  0  0  0  0
   37.5490   30.2740   49.0350 C   0  0  0  0  0  0  0  0  0  0  0  0
   37.1220   30.7640   47.8540 N   0  0  0  0  0  0  0  0  0  0  0  0
   35.7180   30.8130   46.3980 H   0  0  0  0  0  0  0  0  0  0  0  0
   35.1080   28.2230   49.8320 H   0  0  0  0  0  0  0  0  0  0  0  0
   38.4820   30.5670   49.4960 H   0  0  0  0  0  0  0  0  0  0  0  0
   31.7630   27.7940   47.8610 C   0  0  0  0  0  0  0  0  0  0  0  0
   31.1560   28.7390   47.2230 C   0  0  0  0  0  0  0  0  0  0  0  0
   31.5600   29.6560   46.7540 H   0  0  0  0  0  0  0  0  0  0  0  0
   29.8020   28.7480   47.0120 C   0  0  0  0  0  3  0  0  0  0  0  0
   29.1210   27.7010   47.5140 C   0  0  0  0  0  3  0  0  0  0  0  0
   30.4950   26.6880   48.3070 S   0  0  0  0  0  0  0  0  0  0  0  0
  1  7  1  1  0  0  0
  1 18  1  0  0  0  0
  1  6  1  0  0  0  0
  2  1  1  0  0  0  0
  3  2  1  0  0  0  0
  3  4  1  0  0  0  0
  4  5  1  0  0  0  0
  5 15  1  0  0  0  0
  5 14  1  0  0  0  0
  5  6  1  0  0  0  0
  6 16  1  1  0  0  0
  8  2  1  0  0  0  0
  9  2  1  0  0  0  0
 10  3  1  0  0  0  0
 11  3  1  0  0  0  0
 12  4  1  0  0  0  0
 13  4  1  0  0  0  0
 17 22  2  0  0  0  0
 17 18  1  0  0  0  0
 18 19  2  0  0  0  0
 19 20  1  0  0  0  0
 19 24  1  0  0  0  0
 21 25  1  0  0  0  0
 21 20  2  0  0  0  0
 22 21  1  0  0  0  0
 23 17  1  0  0  0  0
 26  6  1  0  0  0  0
 26 31  1  0  0  0  0
 27 26  2  0  0  0  0
 28 27  1  0  0  0  0
 29 27  1  0  0  0  0
 29 30  2  0  0  0  0
 30 31  1  0  0  0  0
M  END
>  <minimizedAffinity>
-4.12534761

>  <minimizedRMSD>
2.08369136

$$$$
