
 OpenBabel03272509113D

 25 27  0  0  0  0  0  0  0  0999 V2000
   37.1640   30.8840   47.8940 C   0  0  0  0  0  0  0  0  0  0  0  0
   37.3370   30.8610   46.4820 C   0  0  0  0  0  0  0  0  0  0  0  0
   36.2930   30.4190   45.6970 C   0  0  0  0  0  0  0  0  0  0  0  0
   35.1280   30.0190   46.3010 N   0  0  0  0  0  0  0  0  0  0  0  0
   35.0030   30.0570   47.6590 C   0  0  0  0  0  0  0  0  0  0  0  0
   35.9990   30.4800   48.4370 N   0  0  0  0  0  0  0  0  0  0  0  0
   37.9450   31.2180   48.5530 H   0  0  0  0  0  0  0  0  0  0  0  0
   34.0320   29.7120   47.9960 H   0  0  0  0  0  0  0  0  0  0  0  0
   36.3670   30.3520   44.2490 C   0  0  0  0  0  0  0  0  0  0  0  0
   36.1280   31.5110   43.5560 C   0  0  0  0  0  0  0  0  0  0  0  0
   36.1860   31.5230   42.1520 C   0  0  0  0  0  0  0  0  0  0  0  0
   36.4900   30.3340   41.4980 C   0  0  0  0  0  0  0  0  0  0  0  0
   36.7360   29.1550   42.1630 C   0  0  0  0  0  0  0  0  0  0  0  0
   36.6660   29.1940   43.5570 C   0  0  0  0  0  0  0  0  0  0  0  0
   35.8730   32.4930   43.8990 H   0  0  0  0  0  0  0  0  0  0  0  0
   36.0120   32.3850   41.5240 H   0  0  0  0  0  0  0  0  0  0  0  0
   36.5470   30.2920   40.4090 H   0  0  0  0  0  0  0  0  0  0  0  0
   36.9670   28.2610   41.6160 H   0  0  0  0  0  0  0  0  0  0  0  0
   36.8560   28.2770   44.1010 H   0  0  0  0  0  0  0  0  0  0  0  0
   38.6110   31.3030   46.0080 C   0  0  0  0  0  0  0  0  0  0  0  0
   39.5610   30.4960   45.2570 C   0  0  0  0  0  0  0  0  0  0  0  0
   39.2960   29.4830   45.0300 H   0  0  0  0  0  0  0  0  0  0  0  0
   40.7250   31.0950   44.8960 C   0  0  0  0  0  3  0  0  0  0  0  0
   40.9930   32.4750   45.2510 C   0  0  0  0  0  3  0  0  0  0  0  0
   39.4760   32.9580   46.1660 S   0  0  0  0  0  0  0  0  0  0  0  0
  1  6  1  0  0  0  0
  1  7  1  0  0  0  0
  2  1  2  0  0  0  0
  3  4  2  0  0  0  0
  3  2  1  0  0  0  0
  4  5  1  0  0  0  0
  5  8  1  0  0  0  0
  5  6  2  0  0  0  0
  9  3  1  0  0  0  0
 10 15  1  0  0  0  0
 10  9  2  0  0  0  0
 11 10  1  0  0  0  0
 12 11  2  0  0  0  0
 12 13  1  0  0  0  0
 13 14  2  0  0  0  0
 14 19  1  0  0  0  0
 14  9  1  0  0  0  0
 16 11  1  0  0  0  0
 17 12  1  0  0  0  0
 18 13  1  0  0  0  0
 20 25  1  0  0  0  0
 20  2  1  0  0  0  0
 21 20  2  0  0  0  0
 22 21  1  0  0  0  0
 23 24  2  0  0  0  0
 23 21  1  0  0  0  0
 24 25  1  0  0  0  0
M  END
>  <minimizedAffinity>
-3.85547209

>  <minimizedRMSD>
5.04576683

$$$$
