
 OpenBabel03262520083D

 15 16  0  0  0  0  0  0  0  0999 V2000
   38.0550   33.1550   49.4850 C   0  0  0  0  0  0  0  0  0  0  0  0
   38.9940   33.1940   48.4340 C   0  0  0  0  0  0  0  0  0  0  0  0
   38.9180   32.2070   47.4470 C   0  0  0  0  0  0  0  0  0  0  0  0
   37.9430   31.2600   47.5510 N   0  0  0  0  0  0  0  0  0  0  0  0
   37.0630   31.2560   48.5730 C   0  0  0  0  0  0  0  0  0  0  0  0
   37.1080   32.1880   49.5330 N   0  0  0  0  0  0  0  0  0  0  0  0
   38.1250   33.9280   50.2440 H   0  0  0  0  0  0  0  0  0  0  0  0
   39.7650   33.9410   48.3480 H   0  0  0  0  0  0  0  0  0  0  0  0
   39.6410   32.2350   46.6350 H   0  0  0  0  0  0  0  0  0  0  0  0
   36.0250   30.2300   48.6640 C   0  0  0  0  0  0  0  0  0  0  0  0
   35.9540   29.1780   49.5000 C   0  0  0  0  0  0  0  0  0  0  0  0
   36.7550   29.0130   50.2390 H   0  0  0  0  0  0  0  0  0  0  0  0
   34.8800   28.3240   49.4180 C   0  0  0  0  0  0  0  0  0  0  0  0
   33.9360   28.6230   48.4580 C   0  0  0  0  0  0  0  0  0  0  0  0
   34.6130   30.1450   47.6780 S   0  0  0  0  0  0  0  0  0  0  0  0
  1  6  1  0  0  0  0
  1  7  1  0  0  0  0
  2  1  2  0  0  0  0
  3  4  2  0  0  0  0
  3  2  1  0  0  0  0
  4  5  1  0  0  0  0
  5 10  1  0  0  0  0
  5  6  2  0  0  0  0
  8  2  1  0  0  0  0
  9  3  1  0  0  0  0
 10 11  2  0  0  0  0
 11 12  1  0  0  0  0
 13 11  1  0  0  0  0
 14 13  2  0  0  0  0
 15 14  1  0  0  0  0
 15 10  1  0  0  0  0
M  END
>  <minimizedAffinity>
-4.31056786

>  <minimizedRMSD>
2.83536267

$$$$
