
 OpenBabel03272509123D

 25 27  0  0  0  0  0  0  0  0999 V2000
   35.2010   25.6480   30.7890 C   0  0  0  0  0  0  0  0  0  0  0  0
   36.0710   26.3090   31.7000 C   0  0  0  0  0  0  0  0  0  0  0  0
   36.8610   25.5440   32.5320 C   0  0  0  0  0  0  0  0  0  0  0  0
   36.7810   24.1770   32.4520 N   0  0  0  0  0  0  0  0  0  0  0  0
   35.9340   23.5810   31.5650 C   0  0  0  0  0  0  0  0  0  0  0  0
   35.1620   24.3010   30.7520 N   0  0  0  0  0  0  0  0  0  0  0  0
   34.5630   26.1950   30.1190 H   0  0  0  0  0  0  0  0  0  0  0  0
   35.9760   22.4990   31.6130 H   0  0  0  0  0  0  0  0  0  0  0  0
   37.7780   26.1190   33.4990 C   0  0  0  0  0  0  0  0  0  0  0  0
   37.2920   26.3470   34.7610 C   0  0  0  0  0  0  0  0  0  0  0  0
   38.1220   26.8980   35.7520 C   0  0  0  0  0  0  0  0  0  0  0  0
   39.4360   27.2000   35.4120 C   0  0  0  0  0  0  0  0  0  0  0  0
   39.9550   26.9830   34.1560 C   0  0  0  0  0  0  0  0  0  0  0  0
   39.0900   26.4340   33.2070 C   0  0  0  0  0  0  0  0  0  0  0  0
   36.3190   26.1850   35.1780 H   0  0  0  0  0  0  0  0  0  0  0  0
   37.8280   27.1120   36.7690 H   0  0  0  0  0  0  0  0  0  0  0  0
   40.1200   27.6300   36.1460 H   0  0  0  0  0  0  0  0  0  0  0  0
   40.9760   27.2330   33.9400 H   0  0  0  0  0  0  0  0  0  0  0  0
   39.4770   26.2550   32.2110 H   0  0  0  0  0  0  0  0  0  0  0  0
   36.0310   27.7370   31.6640 C   0  0  0  0  0  0  0  0  0  0  0  0
   36.6710   28.5770   30.6630 C   0  0  0  0  0  0  0  0  0  0  0  0
   37.2200   28.0990   29.8760 H   0  0  0  0  0  0  0  0  0  0  0  0
   36.5220   29.9210   30.8010 C   0  0  0  0  0  3  0  0  0  0  0  0
   35.7560   30.4740   31.9000 C   0  0  0  0  0  3  0  0  0  0  0  0
   35.2090   28.9750   32.8070 S   0  0  0  0  0  0  0  0  0  0  0  0
  1  2  1  0  0  0  0
  2  3  2  0  0  0  0
  3  9  1  0  0  0  0
  4  3  1  0  0  0  0
  5  8  1  0  0  0  0
  5  4  2  0  0  0  0
  6  1  2  0  0  0  0
  6  5  1  0  0  0  0
  7  1  1  0  0  0  0
  9 10  1  0  0  0  0
 10 15  1  0  0  0  0
 10 11  2  0  0  0  0
 11 16  1  0  0  0  0
 12 11  1  0  0  0  0
 12 17  1  0  0  0  0
 13 12  2  0  0  0  0
 14  9  2  0  0  0  0
 14 13  1  0  0  0  0
 18 13  1  0  0  0  0
 19 14  1  0  0  0  0
 20  2  1  0  0  0  0
 20 25  1  0  0  0  0
 21 23  1  0  0  0  0
 21 20  2  0  0  0  0
 22 21  1  0  0  0  0
 23 24  2  0  0  0  0
 24 25  1  0  0  0  0
M  END
>  <minimizedAffinity>
-4.71823215

$$$$

 OpenBabel03272509123D

 25 27  0  0  0  0  0  0  0  0999 V2000
   38.1210   23.4780   32.3090 C   0  0  0  0  0  0  0  0  0  0  0  0
   38.5540   23.7040   33.6460 C   0  0  0  0  0  0  0  0  0  0  0  0
   38.1350   22.8350   34.6310 C   0  0  0  0  0  0  0  0  0  0  0  0
   37.3210   21.7860   34.2910 N   0  0  0  0  0  0  0  0  0  0  0  0
   36.9280   21.6030   32.9970 C   0  0  0  0  0  0  0  0  0  0  0  0
   37.3200   22.4310   32.0290 N   0  0  0  0  0  0  0  0  0  0  0  0
   38.4160   24.1240   31.5030 H   0  0  0  0  0  0  0  0  0  0  0  0
   36.2870   20.7370   32.8760 H   0  0  0  0  0  0  0  0  0  0  0  0
   38.5150   22.9800   36.0250 C   0  0  0  0  0  0  0  0  0  0  0  0
   37.6100   23.5860   36.8590 C   0  0  0  0  0  0  0  0  0  0  0  0
   37.9070   23.7580   38.2220 C   0  0  0  0  0  0  0  0  0  0  0  0
   39.1330   23.2980   38.6890 C   0  0  0  0  0  0  0  0  0  0  0  0
   40.0620   22.6860   37.8790 C   0  0  0  0  0  0  0  0  0  0  0  0
   39.7210   22.5390   36.5330 C   0  0  0  0  0  0  0  0  0  0  0  0
   36.6430   24.0010   36.6620 H   0  0  0  0  0  0  0  0  0  0  0  0
   37.2590   24.2220   38.9510 H   0  0  0  0  0  0  0  0  0  0  0  0
   39.4100   23.4080   39.7390 H   0  0  0  0  0  0  0  0  0  0  0  0
   40.9970   22.3470   38.2840 H   0  0  0  0  0  0  0  0  0  0  0  0
   40.4370   22.0600   35.8770 H   0  0  0  0  0  0  0  0  0  0  0  0
   39.3940   24.8450   33.8370 C   0  0  0  0  0  0  0  0  0  0  0  0
   38.9630   26.1370   34.3490 C   0  0  0  0  0  0  0  0  0  0  0  0
   37.9320   26.2600   34.6120 H   0  0  0  0  0  0  0  0  0  0  0  0
   39.9130   27.1030   34.4570 C   0  0  0  0  0  3  0  0  0  0  0  0
   41.2870   26.8390   34.0770 C   0  0  0  0  0  3  0  0  0  0  0  0
   41.2260   25.0910   33.5230 S   0  0  0  0  0  0  0  0  0  0  0  0
  1  2  1  0  0  0  0
  2 20  1  0  0  0  0
  2  3  2  0  0  0  0
  3  9  1  0  0  0  0
  4  3  1  0  0  0  0
  5  4  2  0  0  0  0
  6  1  2  0  0  0  0
  6  5  1  0  0  0  0
  7  1  1  0  0  0  0
  8  5  1  0  0  0  0
  9 14  2  0  0  0  0
  9 10  1  0  0  0  0
 10 11  2  0  0  0  0
 11 12  1  0  0  0  0
 11 16  1  0  0  0  0
 12 17  1  0  0  0  0
 13 18  1  0  0  0  0
 13 12  2  0  0  0  0
 14 13  1  0  0  0  0
 15 10  1  0  0  0  0
 19 14  1  0  0  0  0
 20 21  2  0  0  0  0
 21 23  1  0  0  0  0
 21 22  1  0  0  0  0
 24 23  2  0  0  0  0
 25 20  1  0  0  0  0
 25 24  1  0  0  0  0
M  END
>  <minimizedAffinity>
-4.63586092

$$$$

 OpenBabel03272509123D

 25 27  0  0  0  0  0  0  0  0999 V2000
   37.2460   25.4790   32.5720 C   0  0  0  0  0  0  0  0  0  0  0  0
   37.1990   24.0580   32.5190 C   0  0  0  0  0  0  0  0  0  0  0  0
   36.2330   23.4580   31.7390 C   0  0  0  0  0  0  0  0  0  0  0  0
   35.3550   24.2490   31.0430 N   0  0  0  0  0  0  0  0  0  0  0  0
   35.4330   25.6090   31.1200 C   0  0  0  0  0  0  0  0  0  0  0  0
   36.3590   26.2090   31.8680 N   0  0  0  0  0  0  0  0  0  0  0  0
   37.9780   25.9980   33.1640 H   0  0  0  0  0  0  0  0  0  0  0  0
   34.6780   26.1030   30.5210 H   0  0  0  0  0  0  0  0  0  0  0  0
   36.0960   22.0180   31.6210 C   0  0  0  0  0  0  0  0  0  0  0  0
   35.0940   21.4240   32.3460 C   0  0  0  0  0  0  0  0  0  0  0  0
   34.8980   20.0340   32.2780 C   0  0  0  0  0  0  0  0  0  0  0  0
   35.7450   19.2920   31.4620 C   0  0  0  0  0  0  0  0  0  0  0  0
   36.7580   19.8560   30.7230 C   0  0  0  0  0  0  0  0  0  0  0  0
   36.9120   21.2410   30.8240 C   0  0  0  0  0  0  0  0  0  0  0  0
   34.3740   21.8410   33.0200 H   0  0  0  0  0  0  0  0  0  0  0  0
   34.1380   19.4810   32.8110 H   0  0  0  0  0  0  0  0  0  0  0  0
   35.6330   18.2090   31.3770 H   0  0  0  0  0  0  0  0  0  0  0  0
   37.3880   19.2430   30.1060 H   0  0  0  0  0  0  0  0  0  0  0  0
   37.7040   21.7070   30.2500 H   0  0  0  0  0  0  0  0  0  0  0  0
   38.1790   23.3790   33.3070 C   0  0  0  0  0  0  0  0  0  0  0  0
   37.9640   22.8320   34.6390 C   0  0  0  0  0  0  0  0  0  0  0  0
   36.9930   22.9380   35.0790 H   0  0  0  0  0  0  0  0  0  0  0  0
   39.0240   22.2210   35.2300 C   0  0  0  0  0  3  0  0  0  0  0  0
   40.3010   22.1260   34.5520 C   0  0  0  0  0  3  0  0  0  0  0  0
   39.9740   22.9680   32.9540 S   0  0  0  0  0  0  0  0  0  0  0  0
  1  7  1  0  0  0  0
  2  1  1  0  0  0  0
  2 20  1  0  0  0  0
  3  2  2  0  0  0  0
  4  5  2  0  0  0  0
  4  3  1  0  0  0  0
  5  6  1  0  0  0  0
  6  1  2  0  0  0  0
  8  5  1  0  0  0  0
  9  3  1  0  0  0  0
  9 10  1  0  0  0  0
 10 15  1  0  0  0  0
 11 10  2  0  0  0  0
 11 16  1  0  0  0  0
 12 11  1  0  0  0  0
 13 14  1  0  0  0  0
 13 12  2  0  0  0  0
 14  9  2  0  0  0  0
 17 12  1  0  0  0  0
 18 13  1  0  0  0  0
 19 14  1  0  0  0  0
 20 21  2  0  0  0  0
 21 22  1  0  0  0  0
 21 23  1  0  0  0  0
 24 23  2  0  0  0  0
 25 20  1  0  0  0  0
 25 24  1  0  0  0  0
M  END
>  <minimizedAffinity>
-4.48986197

$$$$

 OpenBabel03272509123D

 25 27  0  0  0  0  0  0  0  0999 V2000
   36.9720   24.3420   32.3380 C   0  0  0  0  0  0  0  0  0  0  0  0
   37.1050   25.7580   32.3920 C   0  0  0  0  0  0  0  0  0  0  0  0
   36.1800   26.5340   31.7260 C   0  0  0  0  0  0  0  0  0  0  0  0
   35.1660   25.9170   31.0390 N   0  0  0  0  0  0  0  0  0  0  0  0
   35.0730   24.5560   31.0110 C   0  0  0  0  0  0  0  0  0  0  0  0
   35.9560   23.7870   31.6470 N   0  0  0  0  0  0  0  0  0  0  0  0
   37.6650   23.6900   32.8370 H   0  0  0  0  0  0  0  0  0  0  0  0
   34.2260   24.2090   30.4310 H   0  0  0  0  0  0  0  0  0  0  0  0
   36.2290   27.9850   31.7140 C   0  0  0  0  0  0  0  0  0  0  0  0
   36.8160   28.5810   30.6270 C   0  0  0  0  0  0  0  0  0  0  0  0
   36.8960   29.9810   30.5440 C   0  0  0  0  0  0  0  0  0  0  0  0
   36.3670   30.7310   31.5880 C   0  0  0  0  0  0  0  0  0  0  0  0
   35.7710   30.1650   32.6920 C   0  0  0  0  0  0  0  0  0  0  0  0
   35.7160   28.7700   32.7270 C   0  0  0  0  0  0  0  0  0  0  0  0
   37.2750   28.1570   29.7570 H   0  0  0  0  0  0  0  0  0  0  0  0
   37.3380   30.5370   29.7300 H   0  0  0  0  0  0  0  0  0  0  0  0
   36.4050   31.8220   31.5700 H   0  0  0  0  0  0  0  0  0  0  0  0
   35.3760   30.7840   33.4740 H   0  0  0  0  0  0  0  0  0  0  0  0
   35.2520   28.3020   33.5870 H   0  0  0  0  0  0  0  0  0  0  0  0
   38.2190   26.2440   33.1440 C   0  0  0  0  0  0  0  0  0  0  0  0
   38.1960   26.6010   34.5550 C   0  0  0  0  0  0  0  0  0  0  0  0
   37.2750   26.4920   35.0900 H   0  0  0  0  0  0  0  0  0  0  0  0
   39.3610   27.0490   35.0940 C   0  0  0  0  0  3  0  0  0  0  0  0
   40.5590   27.1590   34.2870 C   0  0  0  0  0  3  0  0  0  0  0  0
   39.9920   26.5850   32.6380 S   0  0  0  0  0  0  0  0  0  0  0  0
  1  2  1  0  0  0  0
  1  7  1  0  0  0  0
  2 20  1  0  0  0  0
  3  2  2  0  0  0  0
  4  3  1  0  0  0  0
  5  4  2  0  0  0  0
  5  6  1  0  0  0  0
  6  1  2  0  0  0  0
  8  5  1  0  0  0  0
  9  3  1  0  0  0  0
  9 14  1  0  0  0  0
 10  9  2  0  0  0  0
 11 10  1  0  0  0  0
 11 12  2  0  0  0  0
 12 13  1  0  0  0  0
 13 14  2  0  0  0  0
 13 18  1  0  0  0  0
 14 19  1  0  0  0  0
 15 10  1  0  0  0  0
 16 11  1  0  0  0  0
 17 12  1  0  0  0  0
 20 21  2  0  0  0  0
 21 22  1  0  0  0  0
 21 23  1  0  0  0  0
 24 23  2  0  0  0  0
 25 20  1  0  0  0  0
 25 24  1  0  0  0  0
M  END
>  <minimizedAffinity>
-4.44872284

$$$$

 OpenBabel03272509123D

 25 27  0  0  0  0  0  0  0  0999 V2000
   37.1610   25.7570   32.7580 C   0  0  0  0  0  0  0  0  0  0  0  0
   37.7850   24.8520   33.6620 C   0  0  0  0  0  0  0  0  0  0  0  0
   38.0560   25.2820   34.9440 C   0  0  0  0  0  0  0  0  0  0  0  0
   37.7150   26.5620   35.3020 N   0  0  0  0  0  0  0  0  0  0  0  0
   37.1180   27.3980   34.4050 C   0  0  0  0  0  0  0  0  0  0  0  0
   36.8480   27.0030   33.1610 N   0  0  0  0  0  0  0  0  0  0  0  0
   36.9280   25.4740   31.7470 H   0  0  0  0  0  0  0  0  0  0  0  0
   36.9070   28.3750   34.8240 H   0  0  0  0  0  0  0  0  0  0  0  0
   38.6930   24.4420   35.9410 C   0  0  0  0  0  0  0  0  0  0  0  0
   38.0120   24.2360   37.1130 C   0  0  0  0  0  0  0  0  0  0  0  0
   38.5650   23.4310   38.1230 C   0  0  0  0  0  0  0  0  0  0  0  0
   39.8110   22.8580   37.8950 C   0  0  0  0  0  0  0  0  0  0  0  0
   40.5210   23.0440   36.7310 C   0  0  0  0  0  0  0  0  0  0  0  0
   39.9290   23.8520   35.7590 C   0  0  0  0  0  0  0  0  0  0  0  0
   37.0640   24.6060   37.4470 H   0  0  0  0  0  0  0  0  0  0  0  0
   38.1030   23.2130   39.0750 H   0  0  0  0  0  0  0  0  0  0  0  0
   40.2820   22.2240   38.6490 H   0  0  0  0  0  0  0  0  0  0  0  0
   41.4800   22.5810   36.6000 H   0  0  0  0  0  0  0  0  0  0  0  0
   40.4700   24.0130   34.8340 H   0  0  0  0  0  0  0  0  0  0  0  0
   38.0820   23.5580   33.1330 C   0  0  0  0  0  0  0  0  0  0  0  0
   39.0880   23.2670   32.1220 C   0  0  0  0  0  0  0  0  0  0  0  0
   39.6650   24.0810   31.7330 H   0  0  0  0  0  0  0  0  0  0  0  0
   39.2210   21.9690   31.7450 C   0  0  0  0  0  3  0  0  0  0  0  0
   38.3930   20.9350   32.3330 C   0  0  0  0  0  3  0  0  0  0  0  0
   37.3450   21.8760   33.5090 S   0  0  0  0  0  0  0  0  0  0  0  0
  1  6  2  0  0  0  0
  1  2  1  0  0  0  0
  2  3  2  0  0  0  0
  3  4  1  0  0  0  0
  3  9  1  0  0  0  0
  5  8  1  0  0  0  0
  5  4  2  0  0  0  0
  6  5  1  0  0  0  0
  7  1  1  0  0  0  0
  9 10  1  0  0  0  0
 10 15  1  0  0  0  0
 10 11  2  0  0  0  0
 11 16  1  0  0  0  0
 12 11  1  0  0  0  0
 12 17  1  0  0  0  0
 13 12  2  0  0  0  0
 14  9  2  0  0  0  0
 14 13  1  0  0  0  0
 18 13  1  0  0  0  0
 19 14  1  0  0  0  0
 20 25  1  0  0  0  0
 20  2  1  0  0  0  0
 21 20  2  0  0  0  0
 22 21  1  0  0  0  0
 23 21  1  0  0  0  0
 23 24  2  0  0  0  0
 24 25  1  0  0  0  0
M  END
>  <minimizedAffinity>
-4.43575001

$$$$

 OpenBabel03272509123D

 25 27  0  0  0  0  0  0  0  0999 V2000
   35.6200   31.9620   35.8390 C   0  0  0  0  0  0  0  0  0  0  0  0
   34.7650   30.9500   35.3200 C   0  0  0  0  0  0  0  0  0  0  0  0
   33.4890   30.8380   35.8320 C   0  0  0  0  0  0  0  0  0  0  0  0
   33.0900   31.7020   36.8200 N   0  0  0  0  0  0  0  0  0  0  0  0
   33.9410   32.6580   37.2910 C   0  0  0  0  0  0  0  0  0  0  0  0
   35.1780   32.7840   36.8100 N   0  0  0  0  0  0  0  0  0  0  0  0
   36.6230   32.0930   35.4770 H   0  0  0  0  0  0  0  0  0  0  0  0
   33.4930   33.2660   38.0680 H   0  0  0  0  0  0  0  0  0  0  0  0
   32.5400   29.8380   35.3760 C   0  0  0  0  0  0  0  0  0  0  0  0
   32.1360   28.8990   36.2900 C   0  0  0  0  0  0  0  0  0  0  0  0
   31.2160   27.9020   35.9220 C   0  0  0  0  0  0  0  0  0  0  0  0
   30.7380   27.9010   34.6160 C   0  0  0  0  0  0  0  0  0  0  0  0
   31.1230   28.8290   33.6760 C   0  0  0  0  0  0  0  0  0  0  0  0
   32.0390   29.7980   34.0900 C   0  0  0  0  0  0  0  0  0  0  0  0
   32.4100   28.7520   37.3140 H   0  0  0  0  0  0  0  0  0  0  0  0
   30.8410   27.1240   36.5710 H   0  0  0  0  0  0  0  0  0  0  0  0
   30.0220   27.1480   34.2820 H   0  0  0  0  0  0  0  0  0  0  0  0
   30.7270   28.7890   32.6790 H   0  0  0  0  0  0  0  0  0  0  0  0
   32.3570   30.5390   33.3670 H   0  0  0  0  0  0  0  0  0  0  0  0
   35.3320   30.1270   34.2980 C   0  0  0  0  0  0  0  0  0  0  0  0
   35.9370   28.8200   34.5040 C   0  0  0  0  0  0  0  0  0  0  0  0
   35.9650   28.4250   35.5000 H   0  0  0  0  0  0  0  0  0  0  0  0
   36.4260   28.1890   33.4040 C   0  0  0  0  0  3  0  0  0  0  0  0
   36.3390   28.8040   32.0950 C   0  0  0  0  0  3  0  0  0  0  0  0
   35.5020   30.3980   32.4510 S   0  0  0  0  0  0  0  0  0  0  0  0
  1  6  1  0  0  0  0
  2  3  1  0  0  0  0
  2  1  2  0  0  0  0
  3  4  2  0  0  0  0
  4  5  1  0  0  0  0
  5  8  1  0  0  0  0
  6  5  2  0  0  0  0
  7  1  1  0  0  0  0
  9  3  1  0  0  0  0
  9 10  1  0  0  0  0
 10 15  1  0  0  0  0
 11 10  2  0  0  0  0
 11 16  1  0  0  0  0
 12 11  1  0  0  0  0
 13 14  1  0  0  0  0
 13 12  2  0  0  0  0
 14  9  2  0  0  0  0
 17 12  1  0  0  0  0
 18 13  1  0  0  0  0
 19 14  1  0  0  0  0
 20 21  2  0  0  0  0
 20  2  1  0  0  0  0
 21 22  1  0  0  0  0
 23 21  1  0  0  0  0
 24 25  1  0  0  0  0
 24 23  2  0  0  0  0
 25 20  1  0  0  0  0
M  END
>  <minimizedAffinity>
-4.38532162

$$$$

 OpenBabel03272509123D

 25 27  0  0  0  0  0  0  0  0999 V2000
   39.3570   25.4370   29.5880 C   0  0  0  0  0  0  0  0  0  0  0  0
   38.8410   25.6020   30.9040 C   0  0  0  0  0  0  0  0  0  0  0  0
   39.1970   26.7280   31.6160 C   0  0  0  0  0  0  0  0  0  0  0  0
   40.0330   27.6470   31.0340 N   0  0  0  0  0  0  0  0  0  0  0  0
   40.5070   27.4510   29.7700 C   0  0  0  0  0  0  0  0  0  0  0  0
   40.1750   26.3710   29.0640 N   0  0  0  0  0  0  0  0  0  0  0  0
   39.1120   24.5790   28.9890 H   0  0  0  0  0  0  0  0  0  0  0  0
   41.1550   28.2550   29.4400 H   0  0  0  0  0  0  0  0  0  0  0  0
   38.7310   26.9900   32.9660 C   0  0  0  0  0  0  0  0  0  0  0  0
   39.6220   26.7780   33.9870 C   0  0  0  0  0  0  0  0  0  0  0  0
   39.2420   27.0130   35.3190 C   0  0  0  0  0  0  0  0  0  0  0  0
   37.9490   27.4610   35.5630 C   0  0  0  0  0  0  0  0  0  0  0  0
   37.0310   27.6840   34.5620 C   0  0  0  0  0  0  0  0  0  0  0  0
   37.4570   27.4360   33.2550 C   0  0  0  0  0  0  0  0  0  0  0  0
   40.6340   26.4290   33.9730 H   0  0  0  0  0  0  0  0  0  0  0  0
   39.8730   26.8750   36.1850 H   0  0  0  0  0  0  0  0  0  0  0  0
   37.6070   27.6590   36.5810 H   0  0  0  0  0  0  0  0  0  0  0  0
   36.0430   28.0310   34.7980 H   0  0  0  0  0  0  0  0  0  0  0  0
   36.7510   27.6040   32.4510 H   0  0  0  0  0  0  0  0  0  0  0  0
   37.9880   24.5530   31.3690 C   0  0  0  0  0  0  0  0  0  0  0  0
   36.5970   24.3610   30.9860 C   0  0  0  0  0  0  0  0  0  0  0  0
   36.1610   25.0550   30.2960 H   0  0  0  0  0  0  0  0  0  0  0  0
   35.9490   23.3030   31.5390 C   0  0  0  0  0  3  0  0  0  0  0  0
   36.6270   22.4160   32.4640 C   0  0  0  0  0  3  0  0  0  0  0  0
   38.3110   23.1400   32.5570 S   0  0  0  0  0  0  0  0  0  0  0  0
  1  2  1  0  0  0  0
  2 20  1  0  0  0  0
  2  3  2  0  0  0  0
  3  9  1  0  0  0  0
  4  3  1  0  0  0  0
  5  4  2  0  0  0  0
  6  1  2  0  0  0  0
  6  5  1  0  0  0  0
  7  1  1  0  0  0  0
  8  5  1  0  0  0  0
  9 14  2  0  0  0  0
  9 10  1  0  0  0  0
 10 11  2  0  0  0  0
 11 12  1  0  0  0  0
 11 16  1  0  0  0  0
 12 17  1  0  0  0  0
 13 18  1  0  0  0  0
 13 12  2  0  0  0  0
 14 13  1  0  0  0  0
 15 10  1  0  0  0  0
 19 14  1  0  0  0  0
 20 25  1  0  0  0  0
 21 20  2  0  0  0  0
 21 23  1  0  0  0  0
 22 21  1  0  0  0  0
 23 24  2  0  0  0  0
 24 25  1  0  0  0  0
M  END
>  <minimizedAffinity>
-4.33953333

$$$$

 OpenBabel03272509123D

 25 27  0  0  0  0  0  0  0  0999 V2000
   36.5480   28.8050   31.7990 C   0  0  0  0  0  0  0  0  0  0  0  0
   35.8870   29.7420   32.6400 C   0  0  0  0  0  0  0  0  0  0  0  0
   35.7620   29.4510   33.9820 C   0  0  0  0  0  0  0  0  0  0  0  0
   36.2780   28.2730   34.4580 N   0  0  0  0  0  0  0  0  0  0  0  0
   36.9050   27.4000   33.6180 C   0  0  0  0  0  0  0  0  0  0  0  0
   37.0370   27.6610   32.3180 N   0  0  0  0  0  0  0  0  0  0  0  0
   36.6730   28.9810   30.7460 H   0  0  0  0  0  0  0  0  0  0  0  0
   37.2610   26.5140   34.1310 H   0  0  0  0  0  0  0  0  0  0  0  0
   35.1010   30.3360   34.9240 C   0  0  0  0  0  0  0  0  0  0  0  0
   35.8960   31.2010   35.6320 C   0  0  0  0  0  0  0  0  0  0  0  0
   35.3260   32.0900   36.5590 C   0  0  0  0  0  0  0  0  0  0  0  0
   33.9470   32.0620   36.7320 C   0  0  0  0  0  0  0  0  0  0  0  0
   33.1210   31.2080   36.0380 C   0  0  0  0  0  0  0  0  0  0  0  0
   33.7350   30.3440   35.1290 C   0  0  0  0  0  0  0  0  0  0  0  0
   36.9570   31.3410   35.6280 H   0  0  0  0  0  0  0  0  0  0  0  0
   35.8710   32.8050   37.1590 H   0  0  0  0  0  0  0  0  0  0  0  0
   33.4570   32.7330   37.4400 H   0  0  0  0  0  0  0  0  0  0  0  0
   32.0610   31.2220   36.2050 H   0  0  0  0  0  0  0  0  0  0  0  0
   33.1050   29.6620   34.5710 H   0  0  0  0  0  0  0  0  0  0  0  0
   35.4000   30.9180   31.9900 C   0  0  0  0  0  0  0  0  0  0  0  0
   36.1880   32.1020   31.6810 C   0  0  0  0  0  0  0  0  0  0  0  0
   37.2240   32.1070   31.9550 H   0  0  0  0  0  0  0  0  0  0  0  0
   35.5430   33.1240   31.0600 C   0  0  0  0  0  3  0  0  0  0  0  0
   34.1360   33.0220   30.7270 C   0  0  0  0  0  3  0  0  0  0  0  0
   33.6950   31.3510   31.3440 S   0  0  0  0  0  0  0  0  0  0  0  0
  1  6  2  0  0  0  0
  1  2  1  0  0  0  0
  2  3  2  0  0  0  0
  3  4  1  0  0  0  0
  3  9  1  0  0  0  0
  5  8  1  0  0  0  0
  5  4  2  0  0  0  0
  6  5  1  0  0  0  0
  7  1  1  0  0  0  0
  9 14  2  0  0  0  0
  9 10  1  0  0  0  0
 10 11  2  0  0  0  0
 11 12  1  0  0  0  0
 11 16  1  0  0  0  0
 12 17  1  0  0  0  0
 13 18  1  0  0  0  0
 13 12  2  0  0  0  0
 14 13  1  0  0  0  0
 15 10  1  0  0  0  0
 19 14  1  0  0  0  0
 20  2  1  0  0  0  0
 21 22  1  0  0  0  0
 21 20  2  0  0  0  0
 23 21  1  0  0  0  0
 24 23  2  0  0  0  0
 24 25  1  0  0  0  0
 25 20  1  0  0  0  0
M  END
>  <minimizedAffinity>
-4.33469963

$$$$

 OpenBabel03272509123D

 25 27  0  0  0  0  0  0  0  0999 V2000
   39.5080   25.5310   32.1980 C   0  0  0  0  0  0  0  0  0  0  0  0
   39.2060   24.7480   33.3460 C   0  0  0  0  0  0  0  0  0  0  0  0
   39.5570   25.2340   34.5880 C   0  0  0  0  0  0  0  0  0  0  0  0
   40.1820   26.4520   34.6730 N   0  0  0  0  0  0  0  0  0  0  0  0
   40.4540   27.1730   33.5470 C   0  0  0  0  0  0  0  0  0  0  0  0
   40.1240   26.7210   32.3370 N   0  0  0  0  0  0  0  0  0  0  0  0
   39.2580   25.2000   31.2070 H   0  0  0  0  0  0  0  0  0  0  0  0
   40.9490   28.1120   33.7640 H   0  0  0  0  0  0  0  0  0  0  0  0
   39.2990   24.5130   35.8210 C   0  0  0  0  0  0  0  0  0  0  0  0
   38.1810   24.8690   36.5310 C   0  0  0  0  0  0  0  0  0  0  0  0
   37.8650   24.2120   37.7330 C   0  0  0  0  0  0  0  0  0  0  0  0
   38.7150   23.2020   38.1700 C   0  0  0  0  0  0  0  0  0  0  0  0
   39.8430   22.8200   37.4820 C   0  0  0  0  0  0  0  0  0  0  0  0
   40.1140   23.5030   36.2940 C   0  0  0  0  0  0  0  0  0  0  0  0
   37.4410   25.6200   36.3440 H   0  0  0  0  0  0  0  0  0  0  0  0
   37.0090   24.4240   38.3570 H   0  0  0  0  0  0  0  0  0  0  0  0
   38.5120   22.6620   39.0970 H   0  0  0  0  0  0  0  0  0  0  0  0
   40.4700   22.0350   37.8590 H   0  0  0  0  0  0  0  0  0  0  0  0
   40.9980   23.2200   35.7350 H   0  0  0  0  0  0  0  0  0  0  0  0
   38.5590   23.4990   33.0900 C   0  0  0  0  0  0  0  0  0  0  0  0
   37.1600   23.3300   32.7280 C   0  0  0  0  0  0  0  0  0  0  0  0
   36.5490   24.2060   32.6400 H   0  0  0  0  0  0  0  0  0  0  0  0
   36.7270   22.0580   32.5250 C   0  0  0  0  0  3  0  0  0  0  0  0
   37.6320   20.9340   32.6670 C   0  0  0  0  0  3  0  0  0  0  0  0
   39.2150   21.7430   33.1220 S   0  0  0  0  0  0  0  0  0  0  0  0
  1  6  2  0  0  0  0
  1  2  1  0  0  0  0
  2  3  2  0  0  0  0
  3  4  1  0  0  0  0
  3  9  1  0  0  0  0
  5  8  1  0  0  0  0
  5  4  2  0  0  0  0
  6  5  1  0  0  0  0
  7  1  1  0  0  0  0
  9 14  2  0  0  0  0
  9 10  1  0  0  0  0
 10 11  2  0  0  0  0
 11 12  1  0  0  0  0
 11 16  1  0  0  0  0
 12 17  1  0  0  0  0
 13 18  1  0  0  0  0
 13 12  2  0  0  0  0
 14 13  1  0  0  0  0
 15 10  1  0  0  0  0
 19 14  1  0  0  0  0
 20 25  1  0  0  0  0
 20  2  1  0  0  0  0
 21 20  2  0  0  0  0
 22 21  1  0  0  0  0
 23 24  2  0  0  0  0
 23 21  1  0  0  0  0
 24 25  1  0  0  0  0
M  END
>  <minimizedAffinity>
-4.23910713

$$$$
