
 OpenBabel03272509383D

 27 29  0  0  1  0  0  0  0  0999 V2000
   36.8620   31.1530   48.3400 C   0  0  0  0  0  0  0  0  0  0  0  0
   36.6720   31.7160   49.6280 C   0  0  0  0  0  0  0  0  0  0  0  0
   37.4970   32.7620   50.0710 C   0  0  0  0  0  0  0  0  0  0  0  0
   38.4950   33.2480   49.2530 C   0  0  0  0  0  0  0  0  0  0  0  0
   38.6350   32.6700   48.0230 C   0  0  0  0  0  0  0  0  0  0  0  0
   37.8430   31.6290   47.5430 C   0  0  0  0  0  0  0  0  0  0  0  0
   35.8740   31.2940   50.2240 H   0  0  0  0  0  0  0  0  0  0  0  0
   37.2230   33.0700   51.0520 H   0  0  0  0  0  0  0  0  0  0  0  0
   39.0850   34.0520   49.6610 H   0  0  0  0  0  0  0  0  0  0  0  0
   39.4660   33.1610   47.4860 H   0  0  0  0  0  0  0  0  0  0  0  0
   38.2300   31.2850   46.2030 C   0  0  0  0  0  0  0  0  0  0  0  0
   37.9750   32.3470   45.1810 C   0  0  0  0  0  0  0  0  0  0  0  0
   37.4450   33.3110   45.3310 H   0  0  0  0  0  0  0  0  0  0  0  0
   38.3770   32.2620   43.9070 C   0  0  0  0  0  3  0  0  0  0  0  0
   39.0720   31.0690   43.5960 C   0  0  0  0  0  3  0  0  0  0  0  0
   39.1160   30.1820   45.0480 S   0  0  0  0  0  0  0  0  0  0  0  0
   35.9710   30.0610   47.9500 C   0  0  1  0  0  3  0  0  0  0  0  0
   36.0790   29.0030   48.6940 O   0  0  0  0  0  1  0  0  0  0  0  0
   32.7900   30.5510   46.2850 C   0  0  0  0  0  0  0  0  0  0  0  0
   33.0540   30.2560   44.9570 C   0  0  0  0  0  0  0  0  0  0  0  0
   34.3530   29.8700   44.6130 C   0  0  0  0  0  0  0  0  0  0  0  0
   35.3290   29.7940   45.5860 N   0  0  0  0  0  0  0  0  0  0  0  0
   35.0260   30.0890   46.8460 C   0  0  0  0  0  0  0  0  0  0  0  0
   33.7660   30.4610   47.1780 N   0  0  0  0  0  0  0  0  0  0  0  0
   31.7650   30.8390   46.4620 H   0  0  0  0  0  0  0  0  0  0  0  0
   32.3920   30.2780   44.1220 H   0  0  0  0  0  0  0  0  0  0  0  0
   34.6470   29.6190   43.5900 H   0  0  0  0  0  0  0  0  0  0  0  0
  1  2  1  0  0  0  0
  2  3  2  0  0  0  0
  2  7  1  0  0  0  0
  3  8  1  0  0  0  0
  4  9  1  0  0  0  0
  4  3  1  0  0  0  0
  5  4  2  0  0  0  0
  6  5  1  0  0  0  0
  6  1  2  0  0  0  0
 10  5  1  0  0  0  0
 11  6  1  0  0  0  0
 12 13  1  0  0  0  0
 12 11  2  0  0  0  0
 14 12  1  0  0  0  0
 15 14  2  0  0  0  0
 15 16  1  0  0  0  0
 16 11  1  0  0  0  0
 17  1  1  0  0  0  0
 17 18  1  1  0  0  0
 19 25  1  0  0  0  0
 19 24  1  0  0  0  0
 20 19  2  0  0  0  0
 21 20  1  0  0  0  0
 21 22  2  0  0  0  0
 22 23  1  0  0  0  0
 23 24  2  0  0  0  0
 23 17  1  0  0  0  0
 26 20  1  0  0  0  0
 27 21  1  0  0  0  0
M  END
>  <minimizedAffinity>
-5.26244068

>  <minimizedRMSD>
1.84823453

$$$$
