
 OpenBabel03262522333D

 24 26  0  0  0  0  0  0  0  0999 V2000
   38.3200   24.7650   36.1170 C   0  0  0  0  0  0  0  0  0  0  0  0
   37.7740   24.7160   37.3920 C   0  0  0  0  0  0  0  0  0  0  0  0
   38.2070   23.8800   38.3960 C   0  0  0  0  0  0  0  0  0  0  0  0
   39.2620   23.0090   38.1560 C   0  0  0  0  0  0  0  0  0  0  0  0
   39.7710   23.0870   36.8930 C   0  0  0  0  0  0  0  0  0  0  0  0
   39.3490   23.8970   35.9220 N   0  0  0  0  0  0  0  0  0  0  0  0
   36.9480   25.3840   37.6120 H   0  0  0  0  0  0  0  0  0  0  0  0
   37.7180   23.9100   39.3680 H   0  0  0  0  0  0  0  0  0  0  0  0
   39.6090   22.3540   38.9300 H   0  0  0  0  0  0  0  0  0  0  0  0
   37.4510   26.9720   35.2950 C   0  0  0  0  0  0  0  0  0  0  0  0
   37.8430   25.6550   35.0850 C   0  0  0  0  0  0  0  0  0  0  0  0
   37.7740   25.1420   33.7850 C   0  0  0  0  0  0  0  0  0  0  0  0
   37.3240   25.9730   32.7930 N   0  0  0  0  0  0  0  0  0  0  0  0
   36.9520   27.2530   33.0500 C   0  0  0  0  0  0  0  0  0  0  0  0
   37.0120   27.7650   34.3020 N   0  0  0  0  0  0  0  0  0  0  0  0
   37.5160   27.3300   36.3030 H   0  0  0  0  0  0  0  0  0  0  0  0
   38.0430   24.1450   33.4800 H   0  0  0  0  0  0  0  0  0  0  0  0
   36.6020   27.8820   32.2460 H   0  0  0  0  0  0  0  0  0  0  0  0
   40.8850   22.1960   36.5740 C   0  0  0  0  0  0  0  0  0  0  0  0
   41.6650   21.3950   37.4890 C   0  0  0  0  0  0  0  0  0  0  0  0
   41.4380   21.4220   38.5400 H   0  0  0  0  0  0  0  0  0  0  0  0
   42.6490   20.6540   36.9150 C   0  0  0  0  0  3  0  0  0  0  0  0
   42.8940   20.6630   35.5440 C   0  0  0  0  0  3  0  0  0  0  0  0
   41.5510   21.8840   34.9720 S   0  0  0  0  0  0  0  0  0  0  0  0
  1  2  1  0  0  0  0
  2  7  1  0  0  0  0
  2  3  2  0  0  0  0
  3  8  1  0  0  0  0
  4  3  1  0  0  0  0
  4  9  1  0  0  0  0
  5  4  2  0  0  0  0
  6  1  2  0  0  0  0
  6  5  1  0  0  0  0
 10 16  1  0  0  0  0
 11 10  1  0  0  0  0
 11  1  1  0  0  0  0
 12 11  2  0  0  0  0
 13 14  2  0  0  0  0
 13 12  1  0  0  0  0
 14 15  1  0  0  0  0
 15 10  2  0  0  0  0
 17 12  1  0  0  0  0
 18 14  1  0  0  0  0
 19  5  1  0  0  0  0
 19 20  2  0  0  0  0
 20 21  1  0  0  0  0
 22 20  1  0  0  0  0
 23 22  2  0  0  0  0
 24 23  1  0  0  0  0
 24 19  1  0  0  0  0
M  END
>  <minimizedAffinity>
-4.85127401

$$$$

 OpenBabel03262522333D

 24 26  0  0  0  0  0  0  0  0999 V2000
   40.0340   22.9040   36.7520 C   0  0  0  0  0  0  0  0  0  0  0  0
   39.4480   22.9250   38.0110 C   0  0  0  0  0  0  0  0  0  0  0  0
   38.4200   23.7620   38.3800 C   0  0  0  0  0  0  0  0  0  0  0  0
   37.9060   24.6640   37.4580 C   0  0  0  0  0  0  0  0  0  0  0  0
   38.5070   24.6130   36.2350 C   0  0  0  0  0  0  0  0  0  0  0  0
   39.5020   23.8010   35.8800 N   0  0  0  0  0  0  0  0  0  0  0  0
   39.8280   22.2320   38.7550 H   0  0  0  0  0  0  0  0  0  0  0  0
   38.0220   23.7090   39.3920 H   0  0  0  0  0  0  0  0  0  0  0  0
   37.1050   25.3210   37.7340 H   0  0  0  0  0  0  0  0  0  0  0  0
   41.5740   21.8050   35.1010 C   0  0  0  0  0  0  0  0  0  0  0  0
   41.1110   22.0110   36.3960 C   0  0  0  0  0  0  0  0  0  0  0  0
   41.7240   21.3060   37.4390 C   0  0  0  0  0  0  0  0  0  0  0  0
   42.7480   20.4540   37.1190 N   0  0  0  0  0  0  0  0  0  0  0  0
   43.1640   20.2890   35.8370 C   0  0  0  0  0  0  0  0  0  0  0  0
   42.5820   20.9620   34.8170 N   0  0  0  0  0  0  0  0  0  0  0  0
   41.0810   22.3610   34.3300 H   0  0  0  0  0  0  0  0  0  0  0  0
   41.4680   21.3670   38.4830 H   0  0  0  0  0  0  0  0  0  0  0  0
   43.9740   19.6100   35.6190 H   0  0  0  0  0  0  0  0  0  0  0  0
   38.0120   25.5380   35.2170 C   0  0  0  0  0  0  0  0  0  0  0  0
   37.6230   26.9180   35.3920 C   0  0  0  0  0  0  0  0  0  0  0  0
   37.6880   27.3660   36.3680 H   0  0  0  0  0  0  0  0  0  0  0  0
   37.1970   27.5470   34.2640 C   0  0  0  0  0  3  0  0  0  0  0  0
   37.1360   26.9110   33.0270 C   0  0  0  0  0  3  0  0  0  0  0  0
   37.7670   25.1820   33.5080 S   0  0  0  0  0  0  0  0  0  0  0  0
  1  2  1  0  0  0  0
  2  3  2  0  0  0  0
  2  7  1  0  0  0  0
  3  8  1  0  0  0  0
  4  9  1  0  0  0  0
  4  3  1  0  0  0  0
  5  4  2  0  0  0  0
  6  5  1  0  0  0  0
  6  1  2  0  0  0  0
 10 11  1  0  0  0  0
 11  1  1  0  0  0  0
 11 12  2  0  0  0  0
 12 17  1  0  0  0  0
 13 12  1  0  0  0  0
 14 13  2  0  0  0  0
 15 10  2  0  0  0  0
 15 14  1  0  0  0  0
 16 10  1  0  0  0  0
 18 14  1  0  0  0  0
 19 20  2  0  0  0  0
 19  5  1  0  0  0  0
 20 21  1  0  0  0  0
 22 20  1  0  0  0  0
 23 24  1  0  0  0  0
 23 22  2  0  0  0  0
 24 19  1  0  0  0  0
M  END
>  <minimizedAffinity>
-4.77712154

$$$$

 OpenBabel03262522333D

 24 26  0  0  0  0  0  0  0  0999 V2000
   36.6370   27.9230   33.6210 C   0  0  0  0  0  0  0  0  0  0  0  0
   36.6640   28.4160   32.3230 C   0  0  0  0  0  0  0  0  0  0  0  0
   36.1700   29.6430   31.9430 C   0  0  0  0  0  0  0  0  0  0  0  0
   35.5950   30.4750   32.8950 C   0  0  0  0  0  0  0  0  0  0  0  0
   35.5860   29.9560   34.1560 C   0  0  0  0  0  0  0  0  0  0  0  0
   36.0660   28.7670   34.5210 N   0  0  0  0  0  0  0  0  0  0  0  0
   37.1070   27.7900   31.5560 H   0  0  0  0  0  0  0  0  0  0  0  0
   36.2350   29.9480   30.9000 H   0  0  0  0  0  0  0  0  0  0  0  0
   35.2070   31.4330   32.6110 H   0  0  0  0  0  0  0  0  0  0  0  0
   37.5670   26.2730   35.2690 C   0  0  0  0  0  0  0  0  0  0  0  0
   37.1660   26.6310   33.9870 C   0  0  0  0  0  0  0  0  0  0  0  0
   37.2780   25.6770   32.9680 C   0  0  0  0  0  0  0  0  0  0  0  0
   37.7780   24.4450   33.2980 N   0  0  0  0  0  0  0  0  0  0  0  0
   38.1560   24.1460   34.5670 C   0  0  0  0  0  0  0  0  0  0  0  0
   38.0540   25.0560   35.5640 N   0  0  0  0  0  0  0  0  0  0  0  0
   37.4670   27.0280   36.0230 H   0  0  0  0  0  0  0  0  0  0  0  0
   37.0070   25.8170   31.9350 H   0  0  0  0  0  0  0  0  0  0  0  0
   38.5460   23.1650   34.7930 H   0  0  0  0  0  0  0  0  0  0  0  0
   34.9950   30.7820   35.2060 C   0  0  0  0  0  0  0  0  0  0  0  0
   35.6700   31.7050   36.0900 C   0  0  0  0  0  0  0  0  0  0  0  0
   36.7350   31.8360   36.0030 H   0  0  0  0  0  0  0  0  0  0  0  0
   34.8680   32.3460   36.9800 C   0  0  0  0  0  3  0  0  0  0  0  0
   33.4940   32.1330   37.0420 C   0  0  0  0  0  3  0  0  0  0  0  0
   33.2910   30.8490   35.6520 S   0  0  0  0  0  0  0  0  0  0  0  0
  1 11  1  0  0  0  0
  1  6  1  0  0  0  0
  2  1  2  0  0  0  0
  3  2  1  0  0  0  0
  3  4  2  0  0  0  0
  4  5  1  0  0  0  0
  5  6  2  0  0  0  0
  5 19  1  0  0  0  0
  7  2  1  0  0  0  0
  8  3  1  0  0  0  0
  9  4  1  0  0  0  0
 10 15  1  0  0  0  0
 10 16  1  0  0  0  0
 11 10  2  0  0  0  0
 12 13  2  0  0  0  0
 12 11  1  0  0  0  0
 13 14  1  0  0  0  0
 14 18  1  0  0  0  0
 14 15  2  0  0  0  0
 17 12  1  0  0  0  0
 19 24  1  0  0  0  0
 19 20  2  0  0  0  0
 20 22  1  0  0  0  0
 21 20  1  0  0  0  0
 22 23  2  0  0  0  0
 24 23  1  0  0  0  0
M  END
>  <minimizedAffinity>
-4.76624537

$$$$

 OpenBabel03262522333D

 24 26  0  0  0  0  0  0  0  0999 V2000
   36.1470   23.1310   31.9050 C   0  0  0  0  0  0  0  0  0  0  0  0
   35.3590   23.9590   31.1160 C   0  0  0  0  0  0  0  0  0  0  0  0
   35.4670   25.3310   31.0740 C   0  0  0  0  0  0  0  0  0  0  0  0
   36.4160   25.9690   31.8620 C   0  0  0  0  0  0  0  0  0  0  0  0
   37.1690   25.1230   32.6210 C   0  0  0  0  0  0  0  0  0  0  0  0
   37.0630   23.7950   32.6600 N   0  0  0  0  0  0  0  0  0  0  0  0
   34.6080   23.4920   30.4890 H   0  0  0  0  0  0  0  0  0  0  0  0
   34.8050   25.9010   30.4240 H   0  0  0  0  0  0  0  0  0  0  0  0
   36.5090   27.0360   31.8370 H   0  0  0  0  0  0  0  0  0  0  0  0
   36.2580   20.8590   30.8410 C   0  0  0  0  0  0  0  0  0  0  0  0
   36.0100   21.6940   31.9250 C   0  0  0  0  0  0  0  0  0  0  0  0
   35.5970   21.1120   33.1290 C   0  0  0  0  0  0  0  0  0  0  0  0
   35.4620   19.7490   33.1660 N   0  0  0  0  0  0  0  0  0  0  0  0
   35.7170   18.9780   32.0790 C   0  0  0  0  0  0  0  0  0  0  0  0
   36.1170   19.5250   30.9070 N   0  0  0  0  0  0  0  0  0  0  0  0
   36.5720   21.3410   29.9370 H   0  0  0  0  0  0  0  0  0  0  0  0
   35.3700   21.6340   34.0430 H   0  0  0  0  0  0  0  0  0  0  0  0
   35.6010   17.9060   32.1420 H   0  0  0  0  0  0  0  0  0  0  0  0
   38.1880   25.7300   33.4740 C   0  0  0  0  0  0  0  0  0  0  0  0
   37.9850   26.5910   34.6180 C   0  0  0  0  0  0  0  0  0  0  0  0
   36.9830   26.8430   34.9180 H   0  0  0  0  0  0  0  0  0  0  0  0
   39.1210   27.0150   35.2310 C   0  0  0  0  0  3  0  0  0  0  0  0
   40.3920   26.6530   34.7930 C   0  0  0  0  0  3  0  0  0  0  0  0
   39.9340   25.5560   33.3080 S   0  0  0  0  0  0  0  0  0  0  0  0
  1 11  1  0  0  0  0
  1  6  1  0  0  0  0
  2  1  2  0  0  0  0
  3  2  1  0  0  0  0
  3  4  2  0  0  0  0
  4  5  1  0  0  0  0
  5  6  2  0  0  0  0
  5 19  1  0  0  0  0
  7  2  1  0  0  0  0
  8  3  1  0  0  0  0
  9  4  1  0  0  0  0
 10 15  2  0  0  0  0
 10 11  1  0  0  0  0
 11 12  2  0  0  0  0
 12 13  1  0  0  0  0
 12 17  1  0  0  0  0
 14 18  1  0  0  0  0
 14 13  2  0  0  0  0
 15 14  1  0  0  0  0
 16 10  1  0  0  0  0
 19 20  2  0  0  0  0
 20 21  1  0  0  0  0
 20 22  1  0  0  0  0
 23 22  2  0  0  0  0
 24 19  1  0  0  0  0
 24 23  1  0  0  0  0
M  END
>  <minimizedAffinity>
-4.70918846

$$$$

 OpenBabel03262522333D

 24 26  0  0  0  0  0  0  0  0999 V2000
   38.4530   25.6840   33.2100 C   0  0  0  0  0  0  0  0  0  0  0  0
   39.1850   26.8630   33.1580 C   0  0  0  0  0  0  0  0  0  0  0  0
   40.3250   27.1080   33.8890 C   0  0  0  0  0  0  0  0  0  0  0  0
   40.8100   26.1330   34.7510 C   0  0  0  0  0  0  0  0  0  0  0  0
   40.0650   24.9900   34.7750 C   0  0  0  0  0  0  0  0  0  0  0  0
   38.9600   24.7560   34.0650 N   0  0  0  0  0  0  0  0  0  0  0  0
   38.8330   27.6450   32.4940 H   0  0  0  0  0  0  0  0  0  0  0  0
   40.8350   28.0640   33.7840 H   0  0  0  0  0  0  0  0  0  0  0  0
   41.6960   26.3120   35.3250 H   0  0  0  0  0  0  0  0  0  0  0  0
   36.7660   24.2060   32.0830 C   0  0  0  0  0  0  0  0  0  0  0  0
   37.2610   25.4580   32.4290 C   0  0  0  0  0  0  0  0  0  0  0  0
   36.5620   26.5900   31.9930 C   0  0  0  0  0  0  0  0  0  0  0  0
   35.4280   26.3940   31.2500 N   0  0  0  0  0  0  0  0  0  0  0  0
   34.9860   25.1490   30.9390 C   0  0  0  0  0  0  0  0  0  0  0  0
   35.6500   24.0430   31.3520 N   0  0  0  0  0  0  0  0  0  0  0  0
   37.3270   23.3630   32.4340 H   0  0  0  0  0  0  0  0  0  0  0  0
   36.8310   27.6150   32.1850 H   0  0  0  0  0  0  0  0  0  0  0  0
   34.0880   25.0290   30.3520 H   0  0  0  0  0  0  0  0  0  0  0  0
   40.5200   23.9220   35.6620 C   0  0  0  0  0  0  0  0  0  0  0  0
   41.8770   23.4770   35.8830 C   0  0  0  0  0  0  0  0  0  0  0  0
   42.6840   23.9560   35.3560 H   0  0  0  0  0  0  0  0  0  0  0  0
   42.0130   22.4560   36.7690 C   0  0  0  0  0  3  0  0  0  0  0  0
   40.9280   21.8760   37.4200 C   0  0  0  0  0  3  0  0  0  0  0  0
   39.5070   22.9090   36.6880 S   0  0  0  0  0  0  0  0  0  0  0  0
  1  6  1  0  0  0  0
  2  1  2  0  0  0  0
  2  3  1  0  0  0  0
  3  4  2  0  0  0  0
  4  5  1  0  0  0  0
  4  9  1  0  0  0  0
  5 19  1  0  0  0  0
  6  5  2  0  0  0  0
  7  2  1  0  0  0  0
  8  3  1  0  0  0  0
 10 11  1  0  0  0  0
 10 16  1  0  0  0  0
 11  1  1  0  0  0  0
 12 17  1  0  0  0  0
 12 11  2  0  0  0  0
 13 12  1  0  0  0  0
 14 13  2  0  0  0  0
 14 15  1  0  0  0  0
 15 10  2  0  0  0  0
 18 14  1  0  0  0  0
 19 20  2  0  0  0  0
 19 24  1  0  0  0  0
 20 22  1  0  0  0  0
 21 20  1  0  0  0  0
 22 23  2  0  0  0  0
 24 23  1  0  0  0  0
M  END
>  <minimizedAffinity>
-4.65763521

$$$$

 OpenBabel03262522333D

 24 26  0  0  0  0  0  0  0  0999 V2000
   35.5330   29.9710   33.2320 C   0  0  0  0  0  0  0  0  0  0  0  0
   35.9310   30.7160   32.1300 C   0  0  0  0  0  0  0  0  0  0  0  0
   36.3730   30.1790   30.9420 C   0  0  0  0  0  0  0  0  0  0  0  0
   36.4430   28.8000   30.7970 C   0  0  0  0  0  0  0  0  0  0  0  0
   36.0440   28.1030   31.9000 C   0  0  0  0  0  0  0  0  0  0  0  0
   35.6150   28.6260   33.0490 N   0  0  0  0  0  0  0  0  0  0  0  0
   35.8880   31.7970   32.2110 H   0  0  0  0  0  0  0  0  0  0  0  0
   36.6650   30.8420   30.1300 H   0  0  0  0  0  0  0  0  0  0  0  0
   36.7850   28.3700   29.8770 H   0  0  0  0  0  0  0  0  0  0  0  0
   35.8800   31.2430   35.3690 C   0  0  0  0  0  0  0  0  0  0  0  0
   35.0710   30.5660   34.4630 C   0  0  0  0  0  0  0  0  0  0  0  0
   33.7070   30.4440   34.7560 C   0  0  0  0  0  0  0  0  0  0  0  0
   33.2510   31.0030   35.9210 N   0  0  0  0  0  0  0  0  0  0  0  0
   34.0840   31.6550   36.7720 C   0  0  0  0  0  0  0  0  0  0  0  0
   35.4050   31.7810   36.5050 N   0  0  0  0  0  0  0  0  0  0  0  0
   36.9180   31.3150   35.1120 H   0  0  0  0  0  0  0  0  0  0  0  0
   32.9690   29.9480   34.1490 H   0  0  0  0  0  0  0  0  0  0  0  0
   33.6920   32.0840   37.6820 H   0  0  0  0  0  0  0  0  0  0  0  0
   36.0920   26.6450   31.8140 C   0  0  0  0  0  0  0  0  0  0  0  0
   35.2520   25.7800   31.0180 C   0  0  0  0  0  0  0  0  0  0  0  0
   34.4850   26.2110   30.3980 H   0  0  0  0  0  0  0  0  0  0  0  0
   35.5180   24.4520   31.1300 C   0  0  0  0  0  3  0  0  0  0  0  0
   36.5260   23.9540   31.9520 C   0  0  0  0  0  3  0  0  0  0  0  0
   37.2030   25.5800   32.6730 S   0  0  0  0  0  0  0  0  0  0  0  0
  1 11  1  0  0  0  0
  2  7  1  0  0  0  0
  2  1  2  0  0  0  0
  3  2  1  0  0  0  0
  4  3  2  0  0  0  0
  4  5  1  0  0  0  0
  5  6  2  0  0  0  0
  6  1  1  0  0  0  0
  8  3  1  0  0  0  0
  9  4  1  0  0  0  0
 10 15  1  0  0  0  0
 11 12  1  0  0  0  0
 11 10  2  0  0  0  0
 12 13  2  0  0  0  0
 13 14  1  0  0  0  0
 14 18  1  0  0  0  0
 15 14  2  0  0  0  0
 16 10  1  0  0  0  0
 17 12  1  0  0  0  0
 19  5  1  0  0  0  0
 19 24  1  0  0  0  0
 20 22  1  0  0  0  0
 20 19  2  0  0  0  0
 21 20  1  0  0  0  0
 22 23  2  0  0  0  0
 23 24  1  0  0  0  0
M  END
>  <minimizedAffinity>
-4.65352249

$$$$

 OpenBabel03262522333D

 24 26  0  0  0  0  0  0  0  0999 V2000
   36.0970   28.3940   32.1770 C   0  0  0  0  0  0  0  0  0  0  0  0
   36.4220   29.2830   31.1610 C   0  0  0  0  0  0  0  0  0  0  0  0
   36.3160   30.6520   31.2570 C   0  0  0  0  0  0  0  0  0  0  0  0
   35.8550   31.2230   32.4360 C   0  0  0  0  0  0  0  0  0  0  0  0
   35.5460   30.3190   33.4090 C   0  0  0  0  0  0  0  0  0  0  0  0
   35.6500   28.9930   33.3130 N   0  0  0  0  0  0  0  0  0  0  0  0
   36.7860   28.8690   30.2260 H   0  0  0  0  0  0  0  0  0  0  0  0
   36.5950   31.2730   30.4070 H   0  0  0  0  0  0  0  0  0  0  0  0
   35.7680   32.2880   32.5220 H   0  0  0  0  0  0  0  0  0  0  0  0
   35.5510   26.1920   31.1020 C   0  0  0  0  0  0  0  0  0  0  0  0
   36.2220   26.9620   32.0450 C   0  0  0  0  0  0  0  0  0  0  0  0
   37.0840   26.3140   32.9370 C   0  0  0  0  0  0  0  0  0  0  0  0
   37.2150   24.9550   32.8260 N   0  0  0  0  0  0  0  0  0  0  0  0
   36.5360   24.2480   31.8870 C   0  0  0  0  0  0  0  0  0  0  0  0
   35.6980   24.8590   31.0160 N   0  0  0  0  0  0  0  0  0  0  0  0
   34.9000   26.7220   30.4360 H   0  0  0  0  0  0  0  0  0  0  0  0
   37.6630   26.7830   33.7150 H   0  0  0  0  0  0  0  0  0  0  0  0
   36.6620   23.1780   31.8260 H   0  0  0  0  0  0  0  0  0  0  0  0
   35.0550   30.8540   34.6770 C   0  0  0  0  0  0  0  0  0  0  0  0
   35.8050   31.5710   35.6820 C   0  0  0  0  0  0  0  0  0  0  0  0
   36.8530   31.7600   35.5260 H   0  0  0  0  0  0  0  0  0  0  0  0
   35.0900   31.9570   36.7720 C   0  0  0  0  0  3  0  0  0  0  0  0
   33.7330   31.6820   36.9160 C   0  0  0  0  0  3  0  0  0  0  0  0
   33.4060   30.7500   35.2890 S   0  0  0  0  0  0  0  0  0  0  0  0
  1  6  1  0  0  0  0
  2  3  1  0  0  0  0
  2  1  2  0  0  0  0
  3  4  2  0  0  0  0
  4  9  1  0  0  0  0
  4  5  1  0  0  0  0
  5 19  1  0  0  0  0
  6  5  2  0  0  0  0
  7  2  1  0  0  0  0
  8  3  1  0  0  0  0
 10 11  1  0  0  0  0
 11  1  1  0  0  0  0
 11 12  2  0  0  0  0
 12 17  1  0  0  0  0
 13 12  1  0  0  0  0
 14 13  2  0  0  0  0
 15 10  2  0  0  0  0
 15 14  1  0  0  0  0
 16 10  1  0  0  0  0
 18 14  1  0  0  0  0
 19 24  1  0  0  0  0
 19 20  2  0  0  0  0
 20 22  1  0  0  0  0
 21 20  1  0  0  0  0
 22 23  2  0  0  0  0
 24 23  1  0  0  0  0
M  END
>  <minimizedAffinity>
-4.64741468

$$$$

 OpenBabel03262522333D

 24 26  0  0  0  0  0  0  0  0999 V2000
   35.7440   29.4630   34.0620 C   0  0  0  0  0  0  0  0  0  0  0  0
   35.8560   29.7000   32.6990 C   0  0  0  0  0  0  0  0  0  0  0  0
   36.4590   28.8460   31.8040 C   0  0  0  0  0  0  0  0  0  0  0  0
   37.0080   27.6540   32.2580 C   0  0  0  0  0  0  0  0  0  0  0  0
   36.8780   27.4570   33.6010 C   0  0  0  0  0  0  0  0  0  0  0  0
   36.2930   28.2860   34.4660 N   0  0  0  0  0  0  0  0  0  0  0  0
   35.4370   30.6240   32.3120 H   0  0  0  0  0  0  0  0  0  0  0  0
   36.5010   29.1150   30.7500 H   0  0  0  0  0  0  0  0  0  0  0  0
   37.4800   26.9810   31.5710 H   0  0  0  0  0  0  0  0  0  0  0  0
   33.7270   30.5080   35.1320 C   0  0  0  0  0  0  0  0  0  0  0  0
   35.1020   30.3800   34.9750 C   0  0  0  0  0  0  0  0  0  0  0  0
   35.9370   31.1920   35.7510 C   0  0  0  0  0  0  0  0  0  0  0  0
   35.3450   32.0680   36.6230 N   0  0  0  0  0  0  0  0  0  0  0  0
   33.9950   32.1550   36.7390 C   0  0  0  0  0  0  0  0  0  0  0  0
   33.1740   31.3770   35.9960 N   0  0  0  0  0  0  0  0  0  0  0  0
   33.1200   29.8710   34.5210 H   0  0  0  0  0  0  0  0  0  0  0  0
   37.0140   31.1990   35.7320 H   0  0  0  0  0  0  0  0  0  0  0  0
   33.5610   32.8560   37.4360 H   0  0  0  0  0  0  0  0  0  0  0  0
   37.4340   26.2200   34.1450 C   0  0  0  0  0  0  0  0  0  0  0  0
   37.7460   25.9230   35.5240 C   0  0  0  0  0  0  0  0  0  0  0  0
   37.5660   26.6680   36.2790 H   0  0  0  0  0  0  0  0  0  0  0  0
   38.2570   24.6830   35.7470 C   0  0  0  0  0  3  0  0  0  0  0  0
   38.4680   23.7620   34.7250 C   0  0  0  0  0  3  0  0  0  0  0  0
   37.8630   24.7740   33.2320 S   0  0  0  0  0  0  0  0  0  0  0  0
  1  6  1  0  0  0  0
  1 11  1  0  0  0  0
  2  1  2  0  0  0  0
  3  4  2  0  0  0  0
  3  2  1  0  0  0  0
  4  5  1  0  0  0  0
  5 19  1  0  0  0  0
  5  6  2  0  0  0  0
  7  2  1  0  0  0  0
  8  3  1  0  0  0  0
  9  4  1  0  0  0  0
 10 15  1  0  0  0  0
 11 10  2  0  0  0  0
 11 12  1  0  0  0  0
 12 13  2  0  0  0  0
 13 14  1  0  0  0  0
 14 18  1  0  0  0  0
 15 14  2  0  0  0  0
 16 10  1  0  0  0  0
 17 12  1  0  0  0  0
 19 20  2  0  0  0  0
 20 22  1  0  0  0  0
 20 21  1  0  0  0  0
 23 22  2  0  0  0  0
 24 19  1  0  0  0  0
 24 23  1  0  0  0  0
M  END
>  <minimizedAffinity>
-4.5828433

$$$$

 OpenBabel03262522333D

 24 26  0  0  0  0  0  0  0  0999 V2000
   38.1430   24.8180   34.7650 C   0  0  0  0  0  0  0  0  0  0  0  0
   38.4330   24.1460   33.5850 C   0  0  0  0  0  0  0  0  0  0  0  0
   38.1600   24.6270   32.3250 C   0  0  0  0  0  0  0  0  0  0  0  0
   37.5520   25.8670   32.1810 C   0  0  0  0  0  0  0  0  0  0  0  0
   37.2830   26.4960   33.3610 C   0  0  0  0  0  0  0  0  0  0  0  0
   37.5490   26.0280   34.5800 N   0  0  0  0  0  0  0  0  0  0  0  0
   38.9090   23.1740   33.6630 H   0  0  0  0  0  0  0  0  0  0  0  0
   38.4230   24.0290   31.4540 H   0  0  0  0  0  0  0  0  0  0  0  0
   37.3340   26.2520   31.2050 H   0  0  0  0  0  0  0  0  0  0  0  0
   37.8140   24.6740   37.2500 C   0  0  0  0  0  0  0  0  0  0  0  0
   38.4450   24.2870   36.0730 C   0  0  0  0  0  0  0  0  0  0  0  0
   39.4460   23.3120   36.1470 C   0  0  0  0  0  0  0  0  0  0  0  0
   39.7450   22.7960   37.3810 N   0  0  0  0  0  0  0  0  0  0  0  0
   39.0990   23.2080   38.5010 C   0  0  0  0  0  0  0  0  0  0  0  0
   38.1290   24.1500   38.4470 N   0  0  0  0  0  0  0  0  0  0  0  0
   37.0540   25.4220   37.1540 H   0  0  0  0  0  0  0  0  0  0  0  0
   40.0150   22.9200   35.3210 H   0  0  0  0  0  0  0  0  0  0  0  0
   39.3590   22.7810   39.4580 H   0  0  0  0  0  0  0  0  0  0  0  0
   36.6430   27.8070   33.2800 C   0  0  0  0  0  0  0  0  0  0  0  0
   36.1060   28.5950   34.3660 C   0  0  0  0  0  0  0  0  0  0  0  0
   36.1600   28.2160   35.3710 H   0  0  0  0  0  0  0  0  0  0  0  0
   35.5630   29.7870   34.0010 C   0  0  0  0  0  3  0  0  0  0  0  0
   35.5240   30.2220   32.6790 C   0  0  0  0  0  3  0  0  0  0  0  0
   36.3700   28.7520   31.8180 S   0  0  0  0  0  0  0  0  0  0  0  0
  1 11  1  0  0  0  0
  2  7  1  0  0  0  0
  2  1  2  0  0  0  0
  3  2  1  0  0  0  0
  4  3  2  0  0  0  0
  4  5  1  0  0  0  0
  5  6  2  0  0  0  0
  6  1  1  0  0  0  0
  8  3  1  0  0  0  0
  9  4  1  0  0  0  0
 10 15  1  0  0  0  0
 11 12  1  0  0  0  0
 11 10  2  0  0  0  0
 12 13  2  0  0  0  0
 13 14  1  0  0  0  0
 14 18  1  0  0  0  0
 15 14  2  0  0  0  0
 16 10  1  0  0  0  0
 17 12  1  0  0  0  0
 19  5  1  0  0  0  0
 19 20  2  0  0  0  0
 20 21  1  0  0  0  0
 22 20  1  0  0  0  0
 23 22  2  0  0  0  0
 24 23  1  0  0  0  0
 24 19  1  0  0  0  0
M  END
>  <minimizedAffinity>
-4.49160385

$$$$
