
 OpenBabel03272507193D

 27 29  0  0  1  0  0  0  0  0999 V2000
   37.6980   31.3220   49.4450 C   0  0  0  0  0  0  0  0  0  0  0  0
   38.3110   32.5560   49.6310 C   0  0  0  0  0  0  0  0  0  0  0  0
   38.9090   33.1000   48.5000 C   0  0  0  0  0  0  0  0  0  0  0  0
   38.8810   32.4490   47.3040 N   0  0  0  0  0  0  0  0  0  0  0  0
   38.2720   31.2430   47.1620 C   0  0  0  0  0  0  0  0  0  0  0  0
   37.6740   30.6730   48.2440 N   0  0  0  0  0  0  0  0  0  0  0  0
   38.3270   33.0590   50.5690 H   0  0  0  0  0  0  0  0  0  0  0  0
   39.4150   34.0580   48.5280 H   0  0  0  0  0  0  0  0  0  0  0  0
   37.0360   30.7150   50.6410 C   0  0  1  0  0  0  0  0  0  0  0  0
   36.1600   29.5500   50.5290 C   0  0  2  0  0  0  0  0  0  0  0  0
   37.5810   29.3000   50.9370 C   0  0  0  0  0  0  0  0  0  0  0  0
   37.0550   31.3990   51.5340 H   0  0  0  0  0  0  0  0  0  0  0  0
   35.3200   29.5650   51.2700 H   0  0  0  0  0  0  0  0  0  0  0  0
   37.6850   29.0450   52.0280 H   0  0  0  0  0  0  0  0  0  0  0  0
   38.2870   28.8420   50.2440 H   0  0  0  0  0  0  0  0  0  0  0  0
   35.7520   29.1860   49.2530 O   0  0  0  0  0  0  0  0  0  0  0  0
   34.5340   28.7940   48.8080 C   0  0  0  0  0  0  0  0  0  0  0  0
   34.3790   28.1760   47.7350 O   0  0  0  0  0  0  0  0  0  0  0  0
   33.5780   29.2050   49.7390 N   0  0  0  0  0  0  0  0  0  0  0  0
   33.1850   30.1490   49.6720 H   0  0  0  0  0  0  0  0  0  0  0  0
   33.4680   28.3570   50.3630 H   0  0  0  0  0  0  0  0  0  0  0  0
   38.3160   30.6730   45.8600 C   0  0  0  0  0  0  0  0  0  0  0  0
   39.2950   30.1440   45.0890 C   0  0  0  0  0  0  0  0  0  0  0  0
   40.2940   30.1440   45.5540 H   0  0  0  0  0  0  0  0  0  0  0  0
   39.0500   29.6590   43.8480 C   0  0  0  0  0  3  0  0  0  0  0  0
   37.7390   29.7340   43.4120 C   0  0  0  0  0  3  0  0  0  0  0  0
   36.8820   30.5460   44.8980 S   0  0  0  0  0  0  0  0  0  0  0  0
  1  2  1  0  0  0  0
  1  9  1  0  0  0  0
  2  7  1  0  0  0  0
  3  8  1  0  0  0  0
  3  2  2  0  0  0  0
  4  3  1  0  0  0  0
  5  4  2  0  0  0  0
  5  6  1  0  0  0  0
  6  1  2  0  0  0  0
  9 11  1  0  0  0  0
  9 12  1  1  0  0  0
 10  9  1  0  0  0  0
 10 11  1  0  0  0  0
 10 13  1  1  0  0  0
 11 14  1  0  0  0  0
 15 11  1  0  0  0  0
 16 10  1  0  0  0  0
 17 16  1  0  0  0  0
 17 19  1  0  0  0  0
 18 17  2  0  0  0  0
 19 21  1  0  0  0  0
 20 19  1  0  0  0  0
 22  5  1  0  0  0  0
 23 24  1  0  0  0  0
 23 22  2  0  0  0  0
 25 23  1  0  0  0  0
 26 25  2  0  0  0  0
 26 27  1  0  0  0  0
 27 22  1  0  0  0  0
M  END
>  <minimizedAffinity>
-5.46481323

>  <minimizedRMSD>
1.11956501

$$$$
