
 OpenBabel03272504033D

 38 41  0  0  0  0  0  0  0  0999 V2000
   34.4860   29.3800   50.2450 C   0  0  0  0  0  0  0  0  0  0  0  0
   34.1830   29.0750   51.2460 H   0  0  0  0  0  0  0  0  0  0  0  0
   33.7640   30.2040   49.9670 H   0  0  0  0  0  0  0  0  0  0  0  0
   35.8150   30.0250   50.2250 C   0  0  0  0  0  0  0  0  0  0  0  0
   36.7670   29.8070   51.2220 C   0  0  0  0  0  0  0  0  0  0  0  0
   37.8770   30.5410   50.9140 C   0  0  0  0  0  0  0  0  0  0  0  0
   37.6110   31.1850   49.7690 N   0  0  0  0  0  0  0  0  0  0  0  0
   36.3890   30.8580   49.3910 N   0  0  0  0  0  0  0  0  0  0  0  0
   36.7390   29.1960   52.1100 H   0  0  0  0  0  0  0  0  0  0  0  0
   38.8520   30.7070   51.3550 H   0  0  0  0  0  0  0  0  0  0  0  0
   38.3810   32.0780   48.9840 C   0  0  0  0  0  0  0  0  0  0  0  0
   38.7730   33.2440   49.5980 C   0  0  0  0  0  0  0  0  0  0  0  0
   39.5300   34.2350   48.9860 C   0  0  0  0  0  0  0  0  0  0  0  0
   39.8950   33.9960   47.6680 C   0  0  0  0  0  0  0  0  0  0  0  0
   39.5110   32.8280   47.0320 C   0  0  0  0  0  0  0  0  0  0  0  0
   38.7590   31.8720   47.6780 C   0  0  0  0  0  0  0  0  0  0  0  0
   38.5000   33.4600   50.6350 H   0  0  0  0  0  0  0  0  0  0  0  0
   39.8150   35.1440   49.5190 H   0  0  0  0  0  0  0  0  0  0  0  0
   40.4880   34.7290   47.1270 H   0  0  0  0  0  0  0  0  0  0  0  0
   39.7740   32.6070   46.0100 H   0  0  0  0  0  0  0  0  0  0  0  0
   38.4260   30.9340   47.2300 H   0  0  0  0  0  0  0  0  0  0  0  0
   34.3460   28.2800   49.2670 C   0  0  0  0  0  0  0  0  0  0  0  0
   33.6470   27.5320   49.7230 H   0  0  0  0  0  0  0  0  0  0  0  0
   35.3340   27.7390   49.2640 H   0  0  0  0  0  0  0  0  0  0  0  0
   33.8880   28.5860   47.9470 C   0  0  0  0  0  0  0  0  0  0  0  0
   32.6090   28.2380   47.5710 C   0  0  0  0  0  0  0  0  0  0  0  0
   32.1190   28.5230   46.2780 C   0  0  0  0  0  0  0  0  0  0  0  0
   33.0090   29.1630   45.4410 N   0  0  0  0  0  0  0  0  0  0  0  0
   34.2520   29.4830   45.8540 C   0  0  0  0  0  0  0  0  0  0  0  0
   34.6800   29.1940   47.0940 N   0  0  0  0  0  0  0  0  0  0  0  0
   31.9380   27.7310   48.2690 H   0  0  0  0  0  0  0  0  0  0  0  0
   31.1170   28.2550   45.9710 H   0  0  0  0  0  0  0  0  0  0  0  0
   35.1700   30.1710   44.9140 C   0  0  0  0  0  0  0  0  0  0  0  0
   36.4770   30.4500   45.0680 C   0  0  0  0  0  0  0  0  0  0  0  0
   36.9800   30.1570   45.9800 H   0  0  0  0  0  0  0  0  0  0  0  0
   37.1230   31.1040   44.0470 C   0  0  0  0  0  0  0  0  0  0  0  0
   36.3960   31.4360   42.9270 C   0  0  0  0  0  0  0  0  0  0  0  0
   34.6920   30.7690   43.3720 S   0  0  0  0  0  0  0  0  0  0  0  0
  1  2  1  0  0  0  0
  3  1  1  0  0  0  0
  4  1  1  0  0  0  0
  4  5  1  0  0  0  0
  5  9  1  0  0  0  0
  6  5  2  0  0  0  0
  6 10  1  0  0  0  0
  7  6  1  0  0  0  0
  8  7  1  0  0  0  0
  8  4  2  0  0  0  0
 11 12  1  0  0  0  0
 11  7  1  0  0  0  0
 12 17  1  0  0  0  0
 13 18  1  0  0  0  0
 13 12  2  0  0  0  0
 14 13  1  0  0  0  0
 15 14  2  0  0  0  0
 15 16  1  0  0  0  0
 16 11  2  0  0  0  0
 19 14  1  0  0  0  0
 20 15  1  0  0  0  0
 21 16  1  0  0  0  0
 22 23  1  0  0  0  0
 22  1  1  0  0  0  0
 24 22  1  0  0  0  0
 25 22  1  0  0  0  0
 26 25  1  0  0  0  0
 26 31  1  0  0  0  0
 27 26  2  0  0  0  0
 28 29  2  0  0  0  0
 28 27  1  0  0  0  0
 29 30  1  0  0  0  0
 30 25  2  0  0  0  0
 32 27  1  0  0  0  0
 33 34  2  0  0  0  0
 33 29  1  0  0  0  0
 34 35  1  0  0  0  0
 36 34  1  0  0  0  0
 37 38  1  0  0  0  0
 37 36  2  0  0  0  0
 38 33  1  0  0  0  0
M  END
>  <minimizedAffinity>
-6.06432247

>  <minimizedRMSD>
1.51081061

$$$$
