
 OpenBabel03272506303D

 31 33  0  0  1  0  0  0  0  0999 V2000
   33.5960   29.0820   48.5660 C   0  0  1  0  0  0  0  0  0  0  0  0
   33.4150   29.5700   47.2020 C   0  0  0  0  0  0  0  0  0  0  0  0
   33.9410   28.7260   46.0920 C   0  0  0  0  0  0  0  0  0  0  0  0
   33.8940   27.2620   46.2870 C   0  0  0  0  0  0  0  0  0  0  0  0
   34.0530   26.7640   47.6660 C   0  0  0  0  0  0  0  0  0  0  0  0
   33.3970   27.5990   48.7040 C   0  0  2  0  0  0  0  0  0  0  0  0
   32.7790   29.5240   49.2200 H   0  0  0  0  0  0  0  0  0  0  0  0
   33.7140   30.5960   46.9890 H   0  0  0  0  0  0  0  0  0  0  0  0
   32.2920   29.5920   47.0260 H   0  0  0  0  0  0  0  0  0  0  0  0
   35.0020   29.0600   45.9180 H   0  0  0  0  0  0  0  0  0  0  0  0
   33.4060   28.9900   45.1550 H   0  0  0  0  0  0  0  0  0  0  0  0
   32.9690   26.8570   45.8320 H   0  0  0  0  0  0  0  0  0  0  0  0
   34.7490   26.8310   45.6810 H   0  0  0  0  0  0  0  0  0  0  0  0
   33.5790   25.7480   47.7220 H   0  0  0  0  0  0  0  0  0  0  0  0
   35.1490   26.6660   47.8950 H   0  0  0  0  0  0  0  0  0  0  0  0
   33.5430   27.2230   49.7120 H   0  0  0  0  0  0  0  0  0  0  0  0
   35.6910   30.5130   48.6970 C   0  0  0  0  0  0  0  0  0  0  0  0
   34.8200   29.5490   49.2610 C   0  0  0  0  0  0  0  0  0  0  0  0
   35.1830   29.0770   50.5070 C   0  0  0  0  0  0  0  0  0  0  0  0
   36.3100   29.5340   51.1160 N   0  0  0  0  0  0  0  0  0  0  0  0
   37.1060   30.4560   50.5340 C   0  0  0  0  0  0  0  0  0  0  0  0
   36.7840   30.9410   49.3180 N   0  0  0  0  0  0  0  0  0  0  0  0
   35.5260   30.9640   47.7340 H   0  0  0  0  0  0  0  0  0  0  0  0
   34.6460   28.3480   51.0880 H   0  0  0  0  0  0  0  0  0  0  0  0
   37.9840   30.7680   51.0830 H   0  0  0  0  0  0  0  0  0  0  0  0
   31.8800   27.3670   48.4910 C   0  0  0  0  0  0  0  0  0  0  0  0
   31.3890   26.5830   47.5900 C   0  0  0  0  0  0  0  0  0  0  0  0
   31.8990   25.9510   46.8390 H   0  0  0  0  0  0  0  0  0  0  0  0
   30.0420   26.3980   47.4130 C   0  0  0  0  0  3  0  0  0  0  0  0
   29.2400   27.0910   48.2440 C   0  0  0  0  0  3  0  0  0  0  0  0
   30.4870   28.0260   49.2990 S   0  0  0  0  0  0  0  0  0  0  0  0
  1  6  1  0  0  0  0
  1  7  1  1  0  0  0
  1 18  1  0  0  0  0
  2  1  1  0  0  0  0
  3  4  1  0  0  0  0
  3  2  1  0  0  0  0
  4  5  1  0  0  0  0
  5 14  1  0  0  0  0
  5 15  1  0  0  0  0
  5  6  1  0  0  0  0
  6 16  1  1  0  0  0
  8  2  1  0  0  0  0
  9  2  1  0  0  0  0
 10  3  1  0  0  0  0
 11  3  1  0  0  0  0
 12  4  1  0  0  0  0
 13  4  1  0  0  0  0
 17 18  2  0  0  0  0
 17 22  1  0  0  0  0
 18 19  1  0  0  0  0
 19 24  1  0  0  0  0
 19 20  2  0  0  0  0
 21 25  1  0  0  0  0
 21 20  1  0  0  0  0
 22 21  2  0  0  0  0
 23 17  1  0  0  0  0
 26  6  1  0  0  0  0
 26 31  1  0  0  0  0
 27 26  2  0  0  0  0
 28 27  1  0  0  0  0
 29 27  1  0  0  0  0
 29 30  2  0  0  0  0
 30 31  1  0  0  0  0
M  END
>  <minimizedAffinity>
-4.23793268

>  <minimizedRMSD>
1.82481623

$$$$
