
 OpenBabel03272504053D

 38 41  0  0  0  0  0  0  0  0999 V2000
   37.6840   26.1580   32.5760 C   0  0  0  0  0  0  0  0  0  0  0  0
   38.7220   25.8870   32.7680 H   0  0  0  0  0  0  0  0  0  0  0  0
   37.7280   26.8250   31.6640 H   0  0  0  0  0  0  0  0  0  0  0  0
   36.8630   25.0040   32.1560 C   0  0  0  0  0  0  0  0  0  0  0  0
   35.7700   25.1360   31.2990 C   0  0  0  0  0  0  0  0  0  0  0  0
   35.2290   23.8970   31.1100 C   0  0  0  0  0  0  0  0  0  0  0  0
   35.9680   23.0380   31.8260 N   0  0  0  0  0  0  0  0  0  0  0  0
   36.9220   23.7230   32.4290 N   0  0  0  0  0  0  0  0  0  0  0  0
   35.3440   26.0030   30.8200 H   0  0  0  0  0  0  0  0  0  0  0  0
   34.3990   23.4830   30.5510 H   0  0  0  0  0  0  0  0  0  0  0  0
   35.8790   21.6360   32.0080 C   0  0  0  0  0  0  0  0  0  0  0  0
   36.1310   20.8610   30.9010 C   0  0  0  0  0  0  0  0  0  0  0  0
   36.0900   19.4720   30.8920 C   0  0  0  0  0  0  0  0  0  0  0  0
   35.7700   18.8640   32.0980 C   0  0  0  0  0  0  0  0  0  0  0  0
   35.5120   19.6260   33.2240 C   0  0  0  0  0  0  0  0  0  0  0  0
   35.5640   21.0020   33.1880 C   0  0  0  0  0  0  0  0  0  0  0  0
   36.3860   21.3110   29.9380 H   0  0  0  0  0  0  0  0  0  0  0  0
   36.2990   18.9040   29.9830 H   0  0  0  0  0  0  0  0  0  0  0  0
   35.7200   17.7800   32.1620 H   0  0  0  0  0  0  0  0  0  0  0  0
   35.2600   19.1910   34.1770 H   0  0  0  0  0  0  0  0  0  0  0  0
   35.3710   21.6550   34.0400 H   0  0  0  0  0  0  0  0  0  0  0  0
   37.0980   26.9270   33.6950 C   0  0  0  0  0  0  0  0  0  0  0  0
   37.9030   27.0290   34.4700 H   0  0  0  0  0  0  0  0  0  0  0  0
   36.3540   26.2400   34.1880 H   0  0  0  0  0  0  0  0  0  0  0  0
   36.5540   28.2230   33.4320 C   0  0  0  0  0  0  0  0  0  0  0  0
   36.5940   28.7330   32.1540 C   0  0  0  0  0  0  0  0  0  0  0  0
   36.0680   30.0080   31.8530 C   0  0  0  0  0  0  0  0  0  0  0  0
   35.5220   30.6850   32.9230 N   0  0  0  0  0  0  0  0  0  0  0  0
   35.5060   30.1440   34.1580 C   0  0  0  0  0  0  0  0  0  0  0  0
   36.0180   28.9270   34.4020 N   0  0  0  0  0  0  0  0  0  0  0  0
   37.0370   28.1600   31.3340 H   0  0  0  0  0  0  0  0  0  0  0  0
   36.0930   30.4200   30.8530 H   0  0  0  0  0  0  0  0  0  0  0  0
   34.9070   30.9140   35.2760 C   0  0  0  0  0  0  0  0  0  0  0  0
   35.5070   31.7610   36.1310 C   0  0  0  0  0  0  0  0  0  0  0  0
   36.5700   31.9440   36.0400 H   0  0  0  0  0  0  0  0  0  0  0  0
   34.7350   32.3620   37.0950 C   0  0  0  0  0  3  0  0  0  0  0  0
   33.3920   32.0620   37.1300 C   0  0  0  0  0  3  0  0  0  0  0  0
   33.2380   30.8510   35.6970 S   0  0  0  0  0  0  0  0  0  0  0  0
  1  2  1  0  0  0  0
  1 22  1  0  0  0  0
  3  1  1  0  0  0  0
  4  8  2  0  0  0  0
  4  1  1  0  0  0  0
  5  4  1  0  0  0  0
  6  5  2  0  0  0  0
  6  7  1  0  0  0  0
  7 11  1  0  0  0  0
  7  8  1  0  0  0  0
  9  5  1  0  0  0  0
 10  6  1  0  0  0  0
 11 16  1  0  0  0  0
 12 11  2  0  0  0  0
 13 12  1  0  0  0  0
 13 14  2  0  0  0  0
 14 19  1  0  0  0  0
 14 15  1  0  0  0  0
 15 20  1  0  0  0  0
 16 15  2  0  0  0  0
 16 21  1  0  0  0  0
 17 12  1  0  0  0  0
 18 13  1  0  0  0  0
 22 24  1  0  0  0  0
 22 23  1  0  0  0  0
 25 22  1  0  0  0  0
 25 30  1  0  0  0  0
 26 25  2  0  0  0  0
 27 26  1  0  0  0  0
 27 28  2  0  0  0  0
 28 29  1  0  0  0  0
 29 30  2  0  0  0  0
 29 33  1  0  0  0  0
 31 26  1  0  0  0  0
 32 27  1  0  0  0  0
 33 38  1  0  0  0  0
 33 34  2  0  0  0  0
 34 36  1  0  0  0  0
 35 34  1  0  0  0  0
 36 37  2  0  0  0  0
 38 37  1  0  0  0  0
M  END
>  <minimizedAffinity>
-5.98423243

$$$$

 OpenBabel03272504053D

 38 41  0  0  0  0  0  0  0  0999 V2000
   37.6560   26.1990   33.6130 C   0  0  0  0  0  0  0  0  0  0  0  0
   36.9950   25.3430   33.7400 H   0  0  0  0  0  0  0  0  0  0  0  0
   38.0710   26.0850   32.5670 H   0  0  0  0  0  0  0  0  0  0  0  0
   36.9260   27.4830   33.5880 C   0  0  0  0  0  0  0  0  0  0  0  0
   36.6110   28.1420   32.3990 C   0  0  0  0  0  0  0  0  0  0  0  0
   35.9420   29.2890   32.7150 C   0  0  0  0  0  0  0  0  0  0  0  0
   35.8510   29.3290   34.0520 N   0  0  0  0  0  0  0  0  0  0  0  0
   36.4400   28.2500   34.5340 N   0  0  0  0  0  0  0  0  0  0  0  0
   36.8100   27.8850   31.3710 H   0  0  0  0  0  0  0  0  0  0  0  0
   35.5010   30.1130   32.1690 H   0  0  0  0  0  0  0  0  0  0  0  0
   35.2690   30.2720   34.9340 C   0  0  0  0  0  0  0  0  0  0  0  0
   33.8960   30.2720   35.0060 C   0  0  0  0  0  0  0  0  0  0  0  0
   33.1540   31.1240   35.8140 C   0  0  0  0  0  0  0  0  0  0  0  0
   33.8820   32.0200   36.5850 C   0  0  0  0  0  0  0  0  0  0  0  0
   35.2640   32.0370   36.5270 C   0  0  0  0  0  0  0  0  0  0  0  0
   35.9600   31.1730   35.7110 C   0  0  0  0  0  0  0  0  0  0  0  0
   33.2960   29.5770   34.4110 H   0  0  0  0  0  0  0  0  0  0  0  0
   32.0630   31.0820   35.8330 H   0  0  0  0  0  0  0  0  0  0  0  0
   33.3650   32.7170   37.2400 H   0  0  0  0  0  0  0  0  0  0  0  0
   35.8640   32.7180   37.1090 H   0  0  0  0  0  0  0  0  0  0  0  0
   37.0470   31.1390   35.6230 H   0  0  0  0  0  0  0  0  0  0  0  0
   38.7810   26.1750   34.5730 C   0  0  0  0  0  0  0  0  0  0  0  0
   38.7780   27.1680   35.0940 H   0  0  0  0  0  0  0  0  0  0  0  0
   39.7210   26.2150   33.9530 H   0  0  0  0  0  0  0  0  0  0  0  0
   38.8220   25.1420   35.5610 C   0  0  0  0  0  0  0  0  0  0  0  0
   37.8520   25.0920   36.5370 C   0  0  0  0  0  0  0  0  0  0  0  0
   37.8580   24.0890   37.5300 C   0  0  0  0  0  0  0  0  0  0  0  0
   38.8940   23.1840   37.4430 N   0  0  0  0  0  0  0  0  0  0  0  0
   39.8220   23.2740   36.4690 C   0  0  0  0  0  0  0  0  0  0  0  0
   39.7800   24.2450   35.5430 N   0  0  0  0  0  0  0  0  0  0  0  0
   37.0480   25.8320   36.5670 H   0  0  0  0  0  0  0  0  0  0  0  0
   37.1010   24.0390   38.3010 H   0  0  0  0  0  0  0  0  0  0  0  0
   40.9170   22.2740   36.4200 C   0  0  0  0  0  0  0  0  0  0  0  0
   41.4600   21.5700   37.4300 C   0  0  0  0  0  0  0  0  0  0  0  0
   41.0880   21.7110   38.4360 H   0  0  0  0  0  0  0  0  0  0  0  0
   42.4750   20.6940   37.1340 C   0  0  0  0  0  3  0  0  0  0  0  0
   42.8780   20.5870   35.8230 C   0  0  0  0  0  3  0  0  0  0  0  0
   41.7320   21.8150   34.9740 S   0  0  0  0  0  0  0  0  0  0  0  0
  1  2  1  0  0  0  0
  1 22  1  0  0  0  0
  3  1  1  0  0  0  0
  4  1  1  0  0  0  0
  4  8  2  0  0  0  0
  5  6  2  0  0  0  0
  5  4  1  0  0  0  0
  6  7  1  0  0  0  0
  7  8  1  0  0  0  0
  7 11  1  0  0  0  0
  9  5  1  0  0  0  0
 10  6  1  0  0  0  0
 11 12  2  0  0  0  0
 11 16  1  0  0  0  0
 12 13  1  0  0  0  0
 13 18  1  0  0  0  0
 13 14  2  0  0  0  0
 14 19  1  0  0  0  0
 15 14  1  0  0  0  0
 15 20  1  0  0  0  0
 16 15  2  0  0  0  0
 17 12  1  0  0  0  0
 21 16  1  0  0  0  0
 22 23  1  0  0  0  0
 22 25  1  0  0  0  0
 24 22  1  0  0  0  0
 25 26  1  0  0  0  0
 26 31  1  0  0  0  0
 26 27  2  0  0  0  0
 27 32  1  0  0  0  0
 28 27  1  0  0  0  0
 29 28  2  0  0  0  0
 30 25  2  0  0  0  0
 30 29  1  0  0  0  0
 33 29  1  0  0  0  0
 33 34  2  0  0  0  0
 34 35  1  0  0  0  0
 36 34  1  0  0  0  0
 37 36  2  0  0  0  0
 38 37  1  0  0  0  0
 38 33  1  0  0  0  0
M  END
>  <minimizedAffinity>
-5.88001347

$$$$

 OpenBabel03272504053D

 38 41  0  0  0  0  0  0  0  0999 V2000
   37.6550   26.1430   35.0210 C   0  0  0  0  0  0  0  0  0  0  0  0
   36.5800   26.1880   35.1960 H   0  0  0  0  0  0  0  0  0  0  0  0
   38.0570   27.1000   35.4690 H   0  0  0  0  0  0  0  0  0  0  0  0
   38.3110   25.0650   35.7890 C   0  0  0  0  0  0  0  0  0  0  0  0
   37.7100   24.4620   36.8950 C   0  0  0  0  0  0  0  0  0  0  0  0
   38.5660   23.5140   37.3760 C   0  0  0  0  0  0  0  0  0  0  0  0
   39.6520   23.5370   36.5910 N   0  0  0  0  0  0  0  0  0  0  0  0
   39.4680   24.4620   35.6670 N   0  0  0  0  0  0  0  0  0  0  0  0
   36.7550   24.6330   37.3660 H   0  0  0  0  0  0  0  0  0  0  0  0
   38.5640   22.7990   38.1900 H   0  0  0  0  0  0  0  0  0  0  0  0
   40.8520   22.7830   36.6110 C   0  0  0  0  0  0  0  0  0  0  0  0
   41.8790   23.2530   35.8270 C   0  0  0  0  0  0  0  0  0  0  0  0
   43.1240   22.6470   35.7220 C   0  0  0  0  0  0  0  0  0  0  0  0
   43.3050   21.4930   36.4720 C   0  0  0  0  0  0  0  0  0  0  0  0
   42.2840   21.0030   37.2680 C   0  0  0  0  0  0  0  0  0  0  0  0
   41.0640   21.6380   37.3420 C   0  0  0  0  0  0  0  0  0  0  0  0
   41.7660   24.1590   35.2250 H   0  0  0  0  0  0  0  0  0  0  0  0
   43.9060   23.0620   35.0830 H   0  0  0  0  0  0  0  0  0  0  0  0
   44.2560   20.9660   36.4380 H   0  0  0  0  0  0  0  0  0  0  0  0
   42.3860   20.1110   37.8640 H   0  0  0  0  0  0  0  0  0  0  0  0
   40.2230   21.3010   37.9500 H   0  0  0  0  0  0  0  0  0  0  0  0
   37.9790   26.1240   33.5780 C   0  0  0  0  0  0  0  0  0  0  0  0
   38.9680   25.6040   33.4790 H   0  0  0  0  0  0  0  0  0  0  0  0
   38.2220   27.1880   33.2990 H   0  0  0  0  0  0  0  0  0  0  0  0
   37.0540   25.5190   32.6710 C   0  0  0  0  0  0  0  0  0  0  0  0
   36.2720   26.3140   31.8620 C   0  0  0  0  0  0  0  0  0  0  0  0
   35.3470   25.7560   30.9540 C   0  0  0  0  0  0  0  0  0  0  0  0
   35.2930   24.3780   30.9450 N   0  0  0  0  0  0  0  0  0  0  0  0
   36.0780   23.6410   31.7570 C   0  0  0  0  0  0  0  0  0  0  0  0
   36.9460   24.2120   32.6070 N   0  0  0  0  0  0  0  0  0  0  0  0
   36.3490   27.4040   31.9030 H   0  0  0  0  0  0  0  0  0  0  0  0
   34.7280   26.3690   30.3130 H   0  0  0  0  0  0  0  0  0  0  0  0
   35.9800   22.1620   31.7080 C   0  0  0  0  0  0  0  0  0  0  0  0
   35.0170   21.3650   32.2060 C   0  0  0  0  0  0  0  0  0  0  0  0
   34.1760   21.8080   32.7220 H   0  0  0  0  0  0  0  0  0  0  0  0
   35.1480   20.0080   32.0350 C   0  0  0  0  0  3  0  0  0  0  0  0
   36.2570   19.5430   31.3650 C   0  0  0  0  0  3  0  0  0  0  0  0
   37.1550   21.1470   30.9620 S   0  0  0  0  0  0  0  0  0  0  0  0
  1  2  1  0  0  0  0
  1  3  1  0  0  0  0
  1  4  1  0  0  0  0
  4  5  1  0  0  0  0
  5  9  1  0  0  0  0
  5  6  2  0  0  0  0
  6 10  1  0  0  0  0
  7 11  1  0  0  0  0
  7  6  1  0  0  0  0
  8  4  2  0  0  0  0
  8  7  1  0  0  0  0
 11 16  1  0  0  0  0
 12 11  2  0  0  0  0
 13 12  1  0  0  0  0
 13 14  2  0  0  0  0
 14 15  1  0  0  0  0
 15 16  2  0  0  0  0
 15 20  1  0  0  0  0
 16 21  1  0  0  0  0
 17 12  1  0  0  0  0
 18 13  1  0  0  0  0
 19 14  1  0  0  0  0
 22  1  1  0  0  0  0
 23 22  1  0  0  0  0
 24 22  1  0  0  0  0
 25 22  1  0  0  0  0
 26 31  1  0  0  0  0
 26 25  2  0  0  0  0
 27 26  1  0  0  0  0
 28 27  2  0  0  0  0
 28 29  1  0  0  0  0
 29 30  2  0  0  0  0
 30 25  1  0  0  0  0
 32 27  1  0  0  0  0
 33 29  1  0  0  0  0
 33 34  2  0  0  0  0
 34 35  1  0  0  0  0
 36 34  1  0  0  0  0
 37 36  2  0  0  0  0
 38 37  1  0  0  0  0
 38 33  1  0  0  0  0
M  END
>  <minimizedAffinity>
-5.87337637

$$$$

 OpenBabel03272504053D

 38 41  0  0  0  0  0  0  0  0999 V2000
   38.4440   27.0040   34.6640 C   0  0  0  0  0  0  0  0  0  0  0  0
   38.3340   27.8480   35.3450 H   0  0  0  0  0  0  0  0  0  0  0  0
   39.3740   27.2390   34.0660 H   0  0  0  0  0  0  0  0  0  0  0  0
   38.7600   25.7440   35.3670 C   0  0  0  0  0  0  0  0  0  0  0  0
   37.8250   25.0730   36.1570 C   0  0  0  0  0  0  0  0  0  0  0  0
   38.4220   23.9540   36.6610 C   0  0  0  0  0  0  0  0  0  0  0  0
   39.6790   23.9420   36.1950 N   0  0  0  0  0  0  0  0  0  0  0  0
   39.8430   25.0090   35.4360 N   0  0  0  0  0  0  0  0  0  0  0  0
   36.7980   25.3050   36.3930 H   0  0  0  0  0  0  0  0  0  0  0  0
   38.1300   23.1350   37.3060 H   0  0  0  0  0  0  0  0  0  0  0  0
   40.7500   23.0330   36.3830 C   0  0  0  0  0  0  0  0  0  0  0  0
   41.8610   23.2320   35.5990 C   0  0  0  0  0  0  0  0  0  0  0  0
   43.0040   22.4430   35.6450 C   0  0  0  0  0  0  0  0  0  0  0  0
   42.9840   21.3950   36.5560 C   0  0  0  0  0  0  0  0  0  0  0  0
   41.8750   21.1780   37.3550 C   0  0  0  0  0  0  0  0  0  0  0  0
   40.7620   21.9860   37.2750 C   0  0  0  0  0  0  0  0  0  0  0  0
   41.9060   24.0490   34.8730 H   0  0  0  0  0  0  0  0  0  0  0  0
   43.8600   22.6450   34.9980 H   0  0  0  0  0  0  0  0  0  0  0  0
   43.8450   20.7370   36.6450 H   0  0  0  0  0  0  0  0  0  0  0  0
   41.8220   20.3760   38.0720 H   0  0  0  0  0  0  0  0  0  0  0  0
   39.8600   21.8660   37.8770 H   0  0  0  0  0  0  0  0  0  0  0  0
   37.3000   26.8930   33.7340 C   0  0  0  0  0  0  0  0  0  0  0  0
   36.6070   26.1250   34.1680 H   0  0  0  0  0  0  0  0  0  0  0  0
   37.6980   26.3850   32.8100 H   0  0  0  0  0  0  0  0  0  0  0  0
   36.5430   28.0670   33.4280 C   0  0  0  0  0  0  0  0  0  0  0  0
   36.2940   28.3970   32.1150 C   0  0  0  0  0  0  0  0  0  0  0  0
   35.5510   29.5460   31.7720 C   0  0  0  0  0  0  0  0  0  0  0  0
   35.1050   30.2970   32.8400 N   0  0  0  0  0  0  0  0  0  0  0  0
   35.3750   29.9340   34.1100 C   0  0  0  0  0  0  0  0  0  0  0  0
   36.0860   28.8310   34.3940 N   0  0  0  0  0  0  0  0  0  0  0  0
   36.6670   27.7710   31.2990 H   0  0  0  0  0  0  0  0  0  0  0  0
   35.3480   29.8160   30.7440 H   0  0  0  0  0  0  0  0  0  0  0  0
   34.8730   30.7760   35.2240 C   0  0  0  0  0  0  0  0  0  0  0  0
   35.5590   31.6150   36.0200 C   0  0  0  0  0  0  0  0  0  0  0  0
   36.6250   31.7320   35.8760 H   0  0  0  0  0  0  0  0  0  0  0  0
   34.8670   32.2940   36.9940 C   0  0  0  0  0  3  0  0  0  0  0  0
   33.5130   32.0760   37.0980 C   0  0  0  0  0  3  0  0  0  0  0  0
   33.2240   30.8270   35.7190 S   0  0  0  0  0  0  0  0  0  0  0  0
  1  2  1  0  0  0  0
  1  4  1  0  0  0  0
  3  1  1  0  0  0  0
  4  8  2  0  0  0  0
  4  5  1  0  0  0  0
  5  9  1  0  0  0  0
  5  6  2  0  0  0  0
  6 10  1  0  0  0  0
  7 11  1  0  0  0  0
  7  6  1  0  0  0  0
  8  7  1  0  0  0  0
 11 16  1  0  0  0  0
 12 13  1  0  0  0  0
 12 11  2  0  0  0  0
 13 14  2  0  0  0  0
 14 19  1  0  0  0  0
 14 15  1  0  0  0  0
 15 20  1  0  0  0  0
 16 15  2  0  0  0  0
 16 21  1  0  0  0  0
 17 12  1  0  0  0  0
 18 13  1  0  0  0  0
 22 23  1  0  0  0  0
 22  1  1  0  0  0  0
 24 22  1  0  0  0  0
 25 22  1  0  0  0  0
 25 30  1  0  0  0  0
 26 25  2  0  0  0  0
 27 26  1  0  0  0  0
 27 28  2  0  0  0  0
 28 29  1  0  0  0  0
 29 30  2  0  0  0  0
 29 33  1  0  0  0  0
 31 26  1  0  0  0  0
 32 27  1  0  0  0  0
 33 38  1  0  0  0  0
 33 34  2  0  0  0  0
 34 36  1  0  0  0  0
 35 34  1  0  0  0  0
 36 37  2  0  0  0  0
 38 37  1  0  0  0  0
M  END
>  <minimizedAffinity>
-5.82079315

$$$$

 OpenBabel03272504053D

 38 41  0  0  0  0  0  0  0  0999 V2000
   38.4890   25.7710   33.9140 C   0  0  0  0  0  0  0  0  0  0  0  0
   39.5360   25.4810   33.8410 H   0  0  0  0  0  0  0  0  0  0  0  0
   38.4430   26.7960   33.4390 H   0  0  0  0  0  0  0  0  0  0  0  0
   37.6060   24.9310   33.0800 C   0  0  0  0  0  0  0  0  0  0  0  0
   36.6270   25.4730   32.2450 C   0  0  0  0  0  0  0  0  0  0  0  0
   35.9900   24.4430   31.6160 C   0  0  0  0  0  0  0  0  0  0  0  0
   36.5590   23.3100   32.0520 N   0  0  0  0  0  0  0  0  0  0  0  0
   37.5070   23.6340   32.9120 N   0  0  0  0  0  0  0  0  0  0  0  0
   36.3430   26.4960   32.0550 H   0  0  0  0  0  0  0  0  0  0  0  0
   35.1860   24.3420   30.8980 H   0  0  0  0  0  0  0  0  0  0  0  0
   36.3120   21.9480   31.7500 C   0  0  0  0  0  0  0  0  0  0  0  0
   35.2310   21.3720   32.3740 C   0  0  0  0  0  0  0  0  0  0  0  0
   34.8380   20.0520   32.2000 C   0  0  0  0  0  0  0  0  0  0  0  0
   35.6110   19.2960   31.3290 C   0  0  0  0  0  0  0  0  0  0  0  0
   36.7030   19.8560   30.6900 C   0  0  0  0  0  0  0  0  0  0  0  0
   37.0580   21.1710   30.8940 C   0  0  0  0  0  0  0  0  0  0  0  0
   34.6040   21.9430   33.0650 H   0  0  0  0  0  0  0  0  0  0  0  0
   33.9700   19.6440   32.7220 H   0  0  0  0  0  0  0  0  0  0  0  0
   35.3600   18.2540   31.1460 H   0  0  0  0  0  0  0  0  0  0  0  0
   37.3270   19.3020   30.0090 H   0  0  0  0  0  0  0  0  0  0  0  0
   37.9060   21.6680   30.4190 H   0  0  0  0  0  0  0  0  0  0  0  0
   38.0440   25.8830   35.3200 C   0  0  0  0  0  0  0  0  0  0  0  0
   36.9230   25.9180   35.3000 H   0  0  0  0  0  0  0  0  0  0  0  0
   38.3260   26.9210   35.6550 H   0  0  0  0  0  0  0  0  0  0  0  0
   38.4510   24.8790   36.2540 C   0  0  0  0  0  0  0  0  0  0  0  0
   37.8090   24.7750   37.4680 C   0  0  0  0  0  0  0  0  0  0  0  0
   38.1810   23.7970   38.4160 C   0  0  0  0  0  0  0  0  0  0  0  0
   39.2180   22.9730   38.0330 N   0  0  0  0  0  0  0  0  0  0  0  0
   39.8170   23.1140   36.8330 C   0  0  0  0  0  0  0  0  0  0  0  0
   39.4330   24.0580   35.9590 N   0  0  0  0  0  0  0  0  0  0  0  0
   36.9900   25.4500   37.7290 H   0  0  0  0  0  0  0  0  0  0  0  0
   37.6840   23.7050   39.3720 H   0  0  0  0  0  0  0  0  0  0  0  0
   40.9290   22.2020   36.4700 C   0  0  0  0  0  0  0  0  0  0  0  0
   41.6880   21.4370   37.2760 C   0  0  0  0  0  0  0  0  0  0  0  0
   41.5080   21.4490   38.3430 H   0  0  0  0  0  0  0  0  0  0  0  0
   42.6690   20.6670   36.7000 C   0  0  0  0  0  3  0  0  0  0  0  0
   42.8190   20.7230   35.3340 C   0  0  0  0  0  3  0  0  0  0  0  0
   41.4740   21.9500   34.8560 S   0  0  0  0  0  0  0  0  0  0  0  0
  1 22  1  0  0  0  0
  2  1  1  0  0  0  0
  3  1  1  0  0  0  0
  4  1  1  0  0  0  0
  5  4  1  0  0  0  0
  6  7  1  0  0  0  0
  6  5  2  0  0  0  0
  7  8  1  0  0  0  0
  8  4  2  0  0  0  0
  9  5  1  0  0  0  0
 10  6  1  0  0  0  0
 11  7  1  0  0  0  0
 11 12  1  0  0  0  0
 12 17  1  0  0  0  0
 13 12  2  0  0  0  0
 13 18  1  0  0  0  0
 14 13  1  0  0  0  0
 15 16  1  0  0  0  0
 15 14  2  0  0  0  0
 16 11  2  0  0  0  0
 19 14  1  0  0  0  0
 20 15  1  0  0  0  0
 21 16  1  0  0  0  0
 22 24  1  0  0  0  0
 22 25  1  0  0  0  0
 23 22  1  0  0  0  0
 25 26  1  0  0  0  0
 26 31  1  0  0  0  0
 26 27  2  0  0  0  0
 27 32  1  0  0  0  0
 28 27  1  0  0  0  0
 29 28  2  0  0  0  0
 30 25  2  0  0  0  0
 30 29  1  0  0  0  0
 33 29  1  0  0  0  0
 33 34  2  0  0  0  0
 34 35  1  0  0  0  0
 36 34  1  0  0  0  0
 37 36  2  0  0  0  0
 38 37  1  0  0  0  0
 38 33  1  0  0  0  0
M  END
>  <minimizedAffinity>
-5.7847805

$$$$

 OpenBabel03272504053D

 38 41  0  0  0  0  0  0  0  0999 V2000
   37.1750   26.2970   31.6100 C   0  0  0  0  0  0  0  0  0  0  0  0
   37.7340   26.7450   30.7900 H   0  0  0  0  0  0  0  0  0  0  0  0
   36.9410   25.2480   31.2570 H   0  0  0  0  0  0  0  0  0  0  0  0
   37.9970   26.1080   32.8230 C   0  0  0  0  0  0  0  0  0  0  0  0
   39.1180   26.8920   33.0960 C   0  0  0  0  0  0  0  0  0  0  0  0
   39.6510   26.4710   34.2800 C   0  0  0  0  0  0  0  0  0  0  0  0
   38.8810   25.4640   34.7160 N   0  0  0  0  0  0  0  0  0  0  0  0
   37.9160   25.2770   33.8340 N   0  0  0  0  0  0  0  0  0  0  0  0
   39.5690   27.7030   32.5460 H   0  0  0  0  0  0  0  0  0  0  0  0
   40.4940   26.7470   34.9010 H   0  0  0  0  0  0  0  0  0  0  0  0
   38.9490   24.6520   35.8740 C   0  0  0  0  0  0  0  0  0  0  0  0
   38.0440   24.9340   36.8690 C   0  0  0  0  0  0  0  0  0  0  0  0
   37.9630   24.2450   38.0730 C   0  0  0  0  0  0  0  0  0  0  0  0
   38.8730   23.2110   38.2450 C   0  0  0  0  0  0  0  0  0  0  0  0
   39.7930   22.9110   37.2560 C   0  0  0  0  0  0  0  0  0  0  0  0
   39.8370   23.6210   36.0770 C   0  0  0  0  0  0  0  0  0  0  0  0
   37.3150   25.7420   36.7620 H   0  0  0  0  0  0  0  0  0  0  0  0
   37.2230   24.5110   38.8310 H   0  0  0  0  0  0  0  0  0  0  0  0
   38.8660   22.6290   39.1640 H   0  0  0  0  0  0  0  0  0  0  0  0
   40.5140   22.1170   37.3530 H   0  0  0  0  0  0  0  0  0  0  0  0
   40.5380   23.4320   35.2620 H   0  0  0  0  0  0  0  0  0  0  0  0
   35.9010   27.0050   31.8620 C   0  0  0  0  0  0  0  0  0  0  0  0
   35.4440   26.5300   32.7700 H   0  0  0  0  0  0  0  0  0  0  0  0
   35.2040   26.6960   31.0330 H   0  0  0  0  0  0  0  0  0  0  0  0
   35.9270   28.4220   32.0540 C   0  0  0  0  0  0  0  0  0  0  0  0
   36.3860   29.2400   31.0460 C   0  0  0  0  0  0  0  0  0  0  0  0
   36.4270   30.6420   31.1970 C   0  0  0  0  0  0  0  0  0  0  0  0
   35.9790   31.1150   32.4120 N   0  0  0  0  0  0  0  0  0  0  0  0
   35.5390   30.2750   33.3700 C   0  0  0  0  0  0  0  0  0  0  0  0
   35.5160   28.9450   33.1870 N   0  0  0  0  0  0  0  0  0  0  0  0
   36.7320   28.8200   30.0970 H   0  0  0  0  0  0  0  0  0  0  0  0
   36.7860   31.2950   30.4120 H   0  0  0  0  0  0  0  0  0  0  0  0
   35.0670   30.8350   34.6610 C   0  0  0  0  0  0  0  0  0  0  0  0
   35.7640   31.5190   35.5860 C   0  0  0  0  0  0  0  0  0  0  0  0
   36.8150   31.7180   35.4210 H   0  0  0  0  0  0  0  0  0  0  0  0
   35.1020   31.9400   36.7140 C   0  0  0  0  0  3  0  0  0  0  0  0
   33.7650   31.6360   36.8320 C   0  0  0  0  0  3  0  0  0  0  0  0
   33.4490   30.6960   35.2320 S   0  0  0  0  0  0  0  0  0  0  0  0
  1 22  1  0  0  0  0
  1  4  1  0  0  0  0
  2  1  1  0  0  0  0
  3  1  1  0  0  0  0
  4  5  1  0  0  0  0
  4  8  2  0  0  0  0
  5  6  2  0  0  0  0
  6  7  1  0  0  0  0
  6 10  1  0  0  0  0
  7 11  1  0  0  0  0
  8  7  1  0  0  0  0
  9  5  1  0  0  0  0
 11 16  2  0  0  0  0
 11 12  1  0  0  0  0
 12 13  2  0  0  0  0
 13 14  1  0  0  0  0
 13 18  1  0  0  0  0
 14 19  1  0  0  0  0
 15 20  1  0  0  0  0
 15 14  2  0  0  0  0
 16 15  1  0  0  0  0
 17 12  1  0  0  0  0
 21 16  1  0  0  0  0
 22 25  1  0  0  0  0
 22 23  1  0  0  0  0
 24 22  1  0  0  0  0
 25 30  1  0  0  0  0
 26 27  1  0  0  0  0
 26 25  2  0  0  0  0
 27 28  2  0  0  0  0
 28 29  1  0  0  0  0
 29 33  1  0  0  0  0
 30 29  2  0  0  0  0
 31 26  1  0  0  0  0
 32 27  1  0  0  0  0
 33 38  1  0  0  0  0
 33 34  2  0  0  0  0
 34 36  1  0  0  0  0
 35 34  1  0  0  0  0
 36 37  2  0  0  0  0
 38 37  1  0  0  0  0
M  END
>  <minimizedAffinity>
-5.77718735

$$$$

 OpenBabel03272504053D

 38 41  0  0  0  0  0  0  0  0999 V2000
   37.9370   26.7210   32.5460 C   0  0  0  0  0  0  0  0  0  0  0  0
   38.7870   27.1850   32.0470 H   0  0  0  0  0  0  0  0  0  0  0  0
   38.3200   26.4560   33.5760 H   0  0  0  0  0  0  0  0  0  0  0  0
   36.8320   27.6700   32.7900 C   0  0  0  0  0  0  0  0  0  0  0  0
   35.8540   27.9430   31.8320 C   0  0  0  0  0  0  0  0  0  0  0  0
   34.9860   28.8530   32.3620 C   0  0  0  0  0  0  0  0  0  0  0  0
   35.4180   29.1270   33.6010 N   0  0  0  0  0  0  0  0  0  0  0  0
   36.5070   28.4130   33.8200 N   0  0  0  0  0  0  0  0  0  0  0  0
   35.7140   27.5630   30.8330 H   0  0  0  0  0  0  0  0  0  0  0  0
   34.0910   29.3650   32.0300 H   0  0  0  0  0  0  0  0  0  0  0  0
   34.9210   29.9900   34.6080 C   0  0  0  0  0  0  0  0  0  0  0  0
   35.8440   30.7990   35.2270 C   0  0  0  0  0  0  0  0  0  0  0  0
   35.5400   31.7060   36.2350 C   0  0  0  0  0  0  0  0  0  0  0  0
   34.2070   31.7700   36.6140 C   0  0  0  0  0  0  0  0  0  0  0  0
   33.2610   30.9640   36.0040 C   0  0  0  0  0  0  0  0  0  0  0  0
   33.6080   30.0780   35.0080 C   0  0  0  0  0  0  0  0  0  0  0  0
   36.9020   30.7700   34.9490 H   0  0  0  0  0  0  0  0  0  0  0  0
   36.3140   32.3250   36.6940 H   0  0  0  0  0  0  0  0  0  0  0  0
   33.8980   32.4580   37.3980 H   0  0  0  0  0  0  0  0  0  0  0  0
   32.2180   30.9850   36.2720 H   0  0  0  0  0  0  0  0  0  0  0  0
   32.9090   29.4190   34.4910 H   0  0  0  0  0  0  0  0  0  0  0  0
   37.5100   25.4780   31.8660 C   0  0  0  0  0  0  0  0  0  0  0  0
   38.1620   25.3680   30.9600 H   0  0  0  0  0  0  0  0  0  0  0  0
   36.4960   25.6960   31.4270 H   0  0  0  0  0  0  0  0  0  0  0  0
   37.5360   24.2490   32.5970 C   0  0  0  0  0  0  0  0  0  0  0  0
   37.0760   23.0930   32.0070 C   0  0  0  0  0  0  0  0  0  0  0  0
   37.0850   21.8610   32.6950 C   0  0  0  0  0  0  0  0  0  0  0  0
   37.5830   21.9100   33.9800 N   0  0  0  0  0  0  0  0  0  0  0  0
   38.0220   23.0660   34.5160 C   0  0  0  0  0  0  0  0  0  0  0  0
   37.9960   24.2190   33.8270 N   0  0  0  0  0  0  0  0  0  0  0  0
   36.6900   23.1010   30.9840 H   0  0  0  0  0  0  0  0  0  0  0  0
   36.7270   20.9460   32.2420 H   0  0  0  0  0  0  0  0  0  0  0  0
   38.5480   23.0650   35.9040 C   0  0  0  0  0  0  0  0  0  0  0  0
   39.7420   22.6350   36.3500 C   0  0  0  0  0  0  0  0  0  0  0  0
   40.4550   22.2240   35.6490 H   0  0  0  0  0  0  0  0  0  0  0  0
   40.0030   22.7380   37.6950 C   0  0  0  0  0  3  0  0  0  0  0  0
   39.0300   23.2740   38.5060 C   0  0  0  0  0  3  0  0  0  0  0  0
   37.6670   23.6490   37.2630 S   0  0  0  0  0  0  0  0  0  0  0  0
  1  4  1  0  0  0  0
  1  3  1  0  0  0  0
  2  1  1  0  0  0  0
  4  8  2  0  0  0  0
  5  6  2  0  0  0  0
  5  4  1  0  0  0  0
  6  7  1  0  0  0  0
  7  8  1  0  0  0  0
  7 11  1  0  0  0  0
  9  5  1  0  0  0  0
 10  6  1  0  0  0  0
 11 16  2  0  0  0  0
 11 12  1  0  0  0  0
 12 13  2  0  0  0  0
 13 14  1  0  0  0  0
 13 18  1  0  0  0  0
 14 19  1  0  0  0  0
 15 20  1  0  0  0  0
 15 14  2  0  0  0  0
 16 15  1  0  0  0  0
 17 12  1  0  0  0  0
 21 16  1  0  0  0  0
 22  1  1  0  0  0  0
 22 25  1  0  0  0  0
 23 22  1  0  0  0  0
 24 22  1  0  0  0  0
 25 30  1  0  0  0  0
 26 25  2  0  0  0  0
 26 27  1  0  0  0  0
 27 28  2  0  0  0  0
 28 29  1  0  0  0  0
 29 33  1  0  0  0  0
 30 29  2  0  0  0  0
 31 26  1  0  0  0  0
 32 27  1  0  0  0  0
 33 34  2  0  0  0  0
 33 38  1  0  0  0  0
 34 36  1  0  0  0  0
 35 34  1  0  0  0  0
 36 37  2  0  0  0  0
 38 37  1  0  0  0  0
M  END
>  <minimizedAffinity>
-5.77544737

$$$$

 OpenBabel03272504053D

 38 41  0  0  0  0  0  0  0  0999 V2000
   37.1980   26.5010   31.7290 C   0  0  0  0  0  0  0  0  0  0  0  0
   36.7890   27.4770   31.4710 H   0  0  0  0  0  0  0  0  0  0  0  0
   38.2200   26.4830   31.2460 H   0  0  0  0  0  0  0  0  0  0  0  0
   37.4660   26.3610   33.1750 C   0  0  0  0  0  0  0  0  0  0  0  0
   37.2080   27.3860   34.0870 C   0  0  0  0  0  0  0  0  0  0  0  0
   37.5600   26.9450   35.3290 C   0  0  0  0  0  0  0  0  0  0  0  0
   38.0170   25.6930   35.1820 N   0  0  0  0  0  0  0  0  0  0  0  0
   37.9470   25.3810   33.9010 N   0  0  0  0  0  0  0  0  0  0  0  0
   36.8080   28.3770   33.9460 H   0  0  0  0  0  0  0  0  0  0  0  0
   37.5540   27.3500   36.3340 H   0  0  0  0  0  0  0  0  0  0  0  0
   38.5160   24.7510   36.1160 C   0  0  0  0  0  0  0  0  0  0  0  0
   37.8870   24.7150   37.3380 C   0  0  0  0  0  0  0  0  0  0  0  0
   38.2380   23.8580   38.3740 C   0  0  0  0  0  0  0  0  0  0  0  0
   39.2970   22.9970   38.1200 C   0  0  0  0  0  0  0  0  0  0  0  0
   39.9430   23.0180   36.8960 C   0  0  0  0  0  0  0  0  0  0  0  0
   39.5610   23.8850   35.8960 C   0  0  0  0  0  0  0  0  0  0  0  0
   37.0510   25.3810   37.5670 H   0  0  0  0  0  0  0  0  0  0  0  0
   37.7060   23.8710   39.3270 H   0  0  0  0  0  0  0  0  0  0  0  0
   39.6260   22.2990   38.8860 H   0  0  0  0  0  0  0  0  0  0  0  0
   40.7690   22.3660   36.6610 H   0  0  0  0  0  0  0  0  0  0  0  0
   40.0300   23.9480   34.9130 H   0  0  0  0  0  0  0  0  0  0  0  0
   36.3910   25.3970   31.1660 C   0  0  0  0  0  0  0  0  0  0  0  0
   35.9380   25.7830   30.2160 H   0  0  0  0  0  0  0  0  0  0  0  0
   35.5000   25.2840   31.8460 H   0  0  0  0  0  0  0  0  0  0  0  0
   37.0290   24.1470   30.8910 C   0  0  0  0  0  0  0  0  0  0  0  0
   38.2250   24.1260   30.2090 C   0  0  0  0  0  0  0  0  0  0  0  0
   38.8860   22.9130   29.9190 C   0  0  0  0  0  0  0  0  0  0  0  0
   38.2470   21.7760   30.3650 N   0  0  0  0  0  0  0  0  0  0  0  0
   37.0760   21.8460   31.0290 C   0  0  0  0  0  0  0  0  0  0  0  0
   36.4790   23.0210   31.2850 N   0  0  0  0  0  0  0  0  0  0  0  0
   38.6960   25.0540   29.8740 H   0  0  0  0  0  0  0  0  0  0  0  0
   39.8260   22.8840   29.3840 H   0  0  0  0  0  0  0  0  0  0  0  0
   36.4300   20.5910   31.4880 C   0  0  0  0  0  0  0  0  0  0  0  0
   35.1560   20.3930   31.8720 C   0  0  0  0  0  0  0  0  0  0  0  0
   34.4640   21.2240   31.8670 H   0  0  0  0  0  0  0  0  0  0  0  0
   34.7880   19.1280   32.2600 C   0  0  0  0  0  3  0  0  0  0  0  0
   35.7430   18.1380   32.2330 C   0  0  0  0  0  3  0  0  0  0  0  0
   37.2490   19.0820   31.6160 S   0  0  0  0  0  0  0  0  0  0  0  0
  1  4  1  0  0  0  0
  2  1  1  0  0  0  0
  3  1  1  0  0  0  0
  4  8  2  0  0  0  0
  4  5  1  0  0  0  0
  5  6  2  0  0  0  0
  6 10  1  0  0  0  0
  7  6  1  0  0  0  0
  7 11  1  0  0  0  0
  8  7  1  0  0  0  0
  9  5  1  0  0  0  0
 11 12  1  0  0  0  0
 12 17  1  0  0  0  0
 12 13  2  0  0  0  0
 13 18  1  0  0  0  0
 14 13  1  0  0  0  0
 14 19  1  0  0  0  0
 15 14  2  0  0  0  0
 16 11  2  0  0  0  0
 16 15  1  0  0  0  0
 20 15  1  0  0  0  0
 21 16  1  0  0  0  0
 22  1  1  0  0  0  0
 22 24  1  0  0  0  0
 23 22  1  0  0  0  0
 25 22  1  0  0  0  0
 25 30  1  0  0  0  0
 26 25  2  0  0  0  0
 27 26  1  0  0  0  0
 27 28  2  0  0  0  0
 28 29  1  0  0  0  0
 29 30  2  0  0  0  0
 29 33  1  0  0  0  0
 31 26  1  0  0  0  0
 32 27  1  0  0  0  0
 33 38  1  0  0  0  0
 33 34  2  0  0  0  0
 34 36  1  0  0  0  0
 35 34  1  0  0  0  0
 37 36  2  0  0  0  0
 38 37  1  0  0  0  0
M  END
>  <minimizedAffinity>
-5.75054598

$$$$

 OpenBabel03272504053D

 38 41  0  0  0  0  0  0  0  0999 V2000
   38.0530   26.1450   30.6490 C   0  0  0  0  0  0  0  0  0  0  0  0
   38.5700   26.0720   29.6930 H   0  0  0  0  0  0  0  0  0  0  0  0
   37.3940   27.0570   30.5480 H   0  0  0  0  0  0  0  0  0  0  0  0
   37.1130   25.0270   30.8740 C   0  0  0  0  0  0  0  0  0  0  0  0
   35.7440   25.2270   31.0580 C   0  0  0  0  0  0  0  0  0  0  0  0
   35.1600   24.0070   31.2400 C   0  0  0  0  0  0  0  0  0  0  0  0
   36.1380   23.0930   31.1690 N   0  0  0  0  0  0  0  0  0  0  0  0
   37.2750   23.7290   30.9520 N   0  0  0  0  0  0  0  0  0  0  0  0
   35.1540   26.1290   31.0730 H   0  0  0  0  0  0  0  0  0  0  0  0
   34.1570   23.6380   31.4160 H   0  0  0  0  0  0  0  0  0  0  0  0
   36.1260   21.6810   31.2830 C   0  0  0  0  0  0  0  0  0  0  0  0
   35.0670   21.1350   31.9690 C   0  0  0  0  0  0  0  0  0  0  0  0
   34.8890   19.7730   32.1790 C   0  0  0  0  0  0  0  0  0  0  0  0
   35.8650   18.9420   31.6470 C   0  0  0  0  0  0  0  0  0  0  0  0
   36.9390   19.4710   30.9530 C   0  0  0  0  0  0  0  0  0  0  0  0
   37.0760   20.8290   30.7680 C   0  0  0  0  0  0  0  0  0  0  0  0
   34.2830   21.7650   32.3990 H   0  0  0  0  0  0  0  0  0  0  0  0
   34.0280   19.3920   32.7330 H   0  0  0  0  0  0  0  0  0  0  0  0
   35.7880   17.8650   31.7740 H   0  0  0  0  0  0  0  0  0  0  0  0
   37.7160   18.8590   30.5260 H   0  0  0  0  0  0  0  0  0  0  0  0
   37.8980   21.3050   30.2310 H   0  0  0  0  0  0  0  0  0  0  0  0
   38.9930   26.3630   31.7700 C   0  0  0  0  0  0  0  0  0  0  0  0
   39.5370   27.3180   31.5500 H   0  0  0  0  0  0  0  0  0  0  0  0
   39.7960   25.5800   31.6600 H   0  0  0  0  0  0  0  0  0  0  0  0
   38.4750   26.4300   33.1010 C   0  0  0  0  0  0  0  0  0  0  0  0
   37.6020   27.4390   33.4440 C   0  0  0  0  0  0  0  0  0  0  0  0
   37.0680   27.5400   34.7460 C   0  0  0  0  0  0  0  0  0  0  0  0
   37.4860   26.5660   35.6280 N   0  0  0  0  0  0  0  0  0  0  0  0
   38.3430   25.5980   35.2470 C   0  0  0  0  0  0  0  0  0  0  0  0
   38.8280   25.5370   33.9960 N   0  0  0  0  0  0  0  0  0  0  0  0
   37.2980   28.1910   32.7100 H   0  0  0  0  0  0  0  0  0  0  0  0
   36.3820   28.3270   35.0270 H   0  0  0  0  0  0  0  0  0  0  0  0
   38.7610   24.5730   36.2350 C   0  0  0  0  0  0  0  0  0  0  0  0
   38.2280   24.2980   37.4390 C   0  0  0  0  0  0  0  0  0  0  0  0
   37.3780   24.8700   37.7870 H   0  0  0  0  0  0  0  0  0  0  0  0
   38.7950   23.2920   38.1830 C   0  0  0  0  0  3  0  0  0  0  0  0
   39.8750   22.6230   37.6530 C   0  0  0  0  0  3  0  0  0  0  0  0
   40.0810   23.4930   35.9960 S   0  0  0  0  0  0  0  0  0  0  0  0
  1  4  1  0  0  0  0
  1 22  1  0  0  0  0
  2  1  1  0  0  0  0
  3  1  1  0  0  0  0
  4  8  2  0  0  0  0
  4  5  1  0  0  0  0
  5  9  1  0  0  0  0
  5  6  2  0  0  0  0
  6 10  1  0  0  0  0
  7  6  1  0  0  0  0
  7 11  1  0  0  0  0
  8  7  1  0  0  0  0
 11 12  1  0  0  0  0
 12 13  2  0  0  0  0
 12 17  1  0  0  0  0
 13 18  1  0  0  0  0
 14 19  1  0  0  0  0
 14 13  1  0  0  0  0
 15 14  2  0  0  0  0
 16 15  1  0  0  0  0
 16 11  2  0  0  0  0
 20 15  1  0  0  0  0
 21 16  1  0  0  0  0
 22 25  1  0  0  0  0
 23 22  1  0  0  0  0
 24 22  1  0  0  0  0
 25 26  2  0  0  0  0
 25 30  1  0  0  0  0
 26 27  1  0  0  0  0
 27 32  1  0  0  0  0
 27 28  2  0  0  0  0
 29 28  1  0  0  0  0
 29 33  1  0  0  0  0
 30 29  2  0  0  0  0
 31 26  1  0  0  0  0
 33 34  2  0  0  0  0
 34 35  1  0  0  0  0
 34 36  1  0  0  0  0
 37 36  2  0  0  0  0
 38 33  1  0  0  0  0
 38 37  1  0  0  0  0
M  END
>  <minimizedAffinity>
-5.69555807

$$$$
