
 OpenBabel03272505073D

 30 32  0  0  1  0  0  0  0  0999 V2000
   36.2310   23.2100   31.3460 C   0  0  0  0  0  0  0  0  0  0  0  0
   37.1650   23.7670   32.2260 C   0  0  0  0  0  0  0  0  0  0  0  0
   37.0550   25.1140   32.5060 C   0  0  0  0  0  0  0  0  0  0  0  0
   36.0490   25.8270   31.9120 N   0  0  0  0  0  0  0  0  0  0  0  0
   35.1690   25.2640   31.0730 C   0  0  0  0  0  0  0  0  0  0  0  0
   35.2540   23.9380   30.7810 N   0  0  0  0  0  0  0  0  0  0  0  0
   37.8810   25.8930   33.3620 N   0  0  0  0  0  0  0  0  0  0  0  0
   38.2920   25.4510   34.6690 C   0  0  0  0  0  0  0  0  0  0  0  0
   39.6940   25.6860   35.0460 C   0  0  0  0  0  0  0  0  0  0  0  0
   40.3380   26.9240   34.5220 C   0  0  0  0  0  0  0  0  0  0  0  0
   39.9690   27.0790   33.0640 C   0  0  0  0  0  0  0  0  0  0  0  0
   38.4180   27.1920   33.0890 C   0  0  1  0  0  0  0  0  0  0  0  0
   36.3380   22.1470   31.1420 H   0  0  0  0  0  0  0  0  0  0  0  0
   37.9570   23.2690   32.7110 H   0  0  0  0  0  0  0  0  0  0  0  0
   34.3960   25.8830   30.6370 H   0  0  0  0  0  0  0  0  0  0  0  0
   37.5610   25.8320   35.4140 H   0  0  0  0  0  0  0  0  0  0  0  0
   38.1370   24.3330   34.6680 H   0  0  0  0  0  0  0  0  0  0  0  0
   40.3420   24.8160   34.7620 H   0  0  0  0  0  0  0  0  0  0  0  0
   39.7530   25.7150   36.1590 H   0  0  0  0  0  0  0  0  0  0  0  0
   41.4540   26.7730   34.5630 H   0  0  0  0  0  0  0  0  0  0  0  0
   40.0920   27.8470   35.0550 H   0  0  0  0  0  0  0  0  0  0  0  0
   40.2810   26.2360   32.4460 H   0  0  0  0  0  0  0  0  0  0  0  0
   40.3780   28.0580   32.7310 H   0  0  0  0  0  0  0  0  0  0  0  0
   38.1970   27.9050   33.9050 H   0  0  0  0  0  0  0  0  0  0  0  0
   37.9660   27.7940   31.8190 C   0  0  0  0  0  0  0  0  0  0  0  0
   36.9660   28.7290   31.6430 C   0  0  0  0  0  0  0  0  0  0  0  0
   36.4010   29.0930   32.4880 H   0  0  0  0  0  0  0  0  0  0  0  0
   36.6980   29.1890   30.3950 C   0  0  0  0  0  3  0  0  0  0  0  0
   37.5350   28.6180   29.3240 C   0  0  0  0  0  3  0  0  0  0  0  0
   38.6600   27.4370   30.2640 S   0  0  0  0  0  0  0  0  0  0  0  0
  1  2  1  0  0  0  0
  2  3  2  0  0  0  0
  2 14  1  0  0  0  0
  3  7  1  0  0  0  0
  4  3  1  0  0  0  0
  5  4  2  0  0  0  0
  6  5  1  0  0  0  0
  6  1  2  0  0  0  0
  7  8  1  0  0  0  0
  8  9  1  0  0  0  0
  8 16  1  0  0  0  0
  9 19  1  0  0  0  0
 10 20  1  0  0  0  0
 10  9  1  0  0  0  0
 10 21  1  0  0  0  0
 11 12  1  0  0  0  0
 11 10  1  0  0  0  0
 12  7  1  0  0  0  0
 12 24  1  1  0  0  0
 13  1  1  0  0  0  0
 15  5  1  0  0  0  0
 17  8  1  0  0  0  0
 18  9  1  0  0  0  0
 22 11  1  0  0  0  0
 23 11  1  0  0  0  0
 25 12  1  0  0  0  0
 26 25  2  0  0  0  0
 26 27  1  0  0  0  0
 28 26  1  0  0  0  0
 29 30  1  0  0  0  0
 29 28  2  0  0  0  0
 30 25  1  0  0  0  0
M  END
>  <minimizedAffinity>
-4.54592991

$$$$

 OpenBabel03272505073D

 30 32  0  0  1  0  0  0  0  0999 V2000
   38.3740   26.0610   36.0450 C   0  0  0  0  0  0  0  0  0  0  0  0
   37.7740   25.1440   35.1760 C   0  0  0  0  0  0  0  0  0  0  0  0
   38.0460   25.2660   33.8290 C   0  0  0  0  0  0  0  0  0  0  0  0
   38.8800   26.2700   33.4180 N   0  0  0  0  0  0  0  0  0  0  0  0
   39.4400   27.1340   34.2750 C   0  0  0  0  0  0  0  0  0  0  0  0
   39.1890   27.0350   35.6080 N   0  0  0  0  0  0  0  0  0  0  0  0
   37.5560   24.4570   32.7670 N   0  0  0  0  0  0  0  0  0  0  0  0
   37.5150   23.0200   32.8320 C   0  0  0  0  0  0  0  0  0  0  0  0
   36.3010   22.3600   32.3280 C   0  0  0  0  0  0  0  0  0  0  0  0
   35.6130   23.0010   31.1700 C   0  0  0  0  0  0  0  0  0  0  0  0
   35.5520   24.4920   31.4110 C   0  0  0  0  0  0  0  0  0  0  0  0
   37.0470   24.9090   31.5070 C   0  0  1  0  0  0  0  0  0  0  0  0
   38.1440   25.9440   37.1010 H   0  0  0  0  0  0  0  0  0  0  0  0
   37.1260   24.3530   35.4350 H   0  0  0  0  0  0  0  0  0  0  0  0
   40.0910   27.9060   33.8860 H   0  0  0  0  0  0  0  0  0  0  0  0
   38.4540   22.6220   32.3910 H   0  0  0  0  0  0  0  0  0  0  0  0
   37.5910   22.7690   33.9300 H   0  0  0  0  0  0  0  0  0  0  0  0
   35.5440   22.2240   33.1430 H   0  0  0  0  0  0  0  0  0  0  0  0
   36.5700   21.3190   32.0320 H   0  0  0  0  0  0  0  0  0  0  0  0
   34.5500   22.6280   31.1540 H   0  0  0  0  0  0  0  0  0  0  0  0
   36.0630   22.8130   30.1910 H   0  0  0  0  0  0  0  0  0  0  0  0
   35.0200   24.7620   32.3240 H   0  0  0  0  0  0  0  0  0  0  0  0
   35.1280   24.9500   30.4900 H   0  0  0  0  0  0  0  0  0  0  0  0
   37.5410   24.3980   30.6600 H   0  0  0  0  0  0  0  0  0  0  0  0
   37.1490   26.3660   31.2850 C   0  0  0  0  0  0  0  0  0  0  0  0
   38.1280   27.0410   30.5850 C   0  0  0  0  0  0  0  0  0  0  0  0
   38.9500   26.5030   30.1370 H   0  0  0  0  0  0  0  0  0  0  0  0
   38.0490   28.3900   30.4660 C   0  0  0  0  0  3  0  0  0  0  0  0
   36.8830   29.0090   31.1200 C   0  0  0  0  0  3  0  0  0  0  0  0
   35.9920   27.5280   31.8650 S   0  0  0  0  0  0  0  0  0  0  0  0
  1 13  1  0  0  0  0
  2 14  1  0  0  0  0
  2  1  2  0  0  0  0
  3  2  1  0  0  0  0
  4  3  2  0  0  0  0
  4  5  1  0  0  0  0
  5  6  2  0  0  0  0
  6  1  1  0  0  0  0
  7  8  1  0  0  0  0
  7  3  1  0  0  0  0
  8 17  1  0  0  0  0
  9  8  1  0  0  0  0
  9 18  1  0  0  0  0
 10 11  1  0  0  0  0
 10  9  1  0  0  0  0
 11 12  1  0  0  0  0
 11 22  1  0  0  0  0
 12 24  1  6  0  0  0
 12  7  1  0  0  0  0
 15  5  1  0  0  0  0
 16  8  1  0  0  0  0
 19  9  1  0  0  0  0
 20 10  1  0  0  0  0
 21 10  1  0  0  0  0
 23 11  1  0  0  0  0
 25 12  1  0  0  0  0
 25 30  1  0  0  0  0
 26 25  2  0  0  0  0
 27 26  1  0  0  0  0
 28 26  1  0  0  0  0
 28 29  2  0  0  0  0
 29 30  1  0  0  0  0
M  END
>  <minimizedAffinity>
-4.40772581

$$$$

 OpenBabel03272505073D

 30 32  0  0  1  0  0  0  0  0999 V2000
   30.9890   28.1940   35.4800 C   0  0  0  0  0  0  0  0  0  0  0  0
   31.7010   29.2770   36.0070 C   0  0  0  0  0  0  0  0  0  0  0  0
   32.3900   30.0810   35.1220 C   0  0  0  0  0  0  0  0  0  0  0  0
   32.3430   29.7770   33.7890 N   0  0  0  0  0  0  0  0  0  0  0  0
   31.6530   28.7320   33.3140 C   0  0  0  0  0  0  0  0  0  0  0  0
   30.9640   27.9240   34.1640 N   0  0  0  0  0  0  0  0  0  0  0  0
   33.1750   31.2280   35.4220 N   0  0  0  0  0  0  0  0  0  0  0  0
   32.7430   32.2570   36.3310 C   0  0  0  0  0  0  0  0  0  0  0  0
   33.7420   32.7770   37.2790 C   0  0  0  0  0  0  0  0  0  0  0  0
   35.1530   32.8480   36.8040 C   0  0  0  0  0  0  0  0  0  0  0  0
   35.4810   31.5650   36.0730 C   0  0  0  0  0  0  0  0  0  0  0  0
   34.4680   31.5460   34.8940 C   0  0  1  0  0  0  0  0  0  0  0  0
   30.4540   27.5760   36.1970 H   0  0  0  0  0  0  0  0  0  0  0  0
   31.7720   29.5580   37.0210 H   0  0  0  0  0  0  0  0  0  0  0  0
   31.6550   28.5470   32.2480 H   0  0  0  0  0  0  0  0  0  0  0  0
   32.2300   33.0500   35.7460 H   0  0  0  0  0  0  0  0  0  0  0  0
   31.9230   31.7860   36.9470 H   0  0  0  0  0  0  0  0  0  0  0  0
   33.7320   32.1970   38.2380 H   0  0  0  0  0  0  0  0  0  0  0  0
   33.4300   33.8040   37.5800 H   0  0  0  0  0  0  0  0  0  0  0  0
   35.8190   32.8870   37.7120 H   0  0  0  0  0  0  0  0  0  0  0  0
   35.3930   33.7000   36.1600 H   0  0  0  0  0  0  0  0  0  0  0  0
   35.3670   30.6730   36.6910 H   0  0  0  0  0  0  0  0  0  0  0  0
   36.5010   31.6900   35.6470 H   0  0  0  0  0  0  0  0  0  0  0  0
   34.4980   32.5690   34.4750 H   0  0  0  0  0  0  0  0  0  0  0  0
   34.9610   30.6140   33.8600 C   0  0  0  0  0  0  0  0  0  0  0  0
   35.5610   29.3860   34.0540 C   0  0  0  0  0  0  0  0  0  0  0  0
   35.7320   29.0130   35.0520 H   0  0  0  0  0  0  0  0  0  0  0  0
   35.9340   28.6520   32.9770 C   0  0  0  0  0  3  0  0  0  0  0  0
   35.6480   29.2670   31.6690 C   0  0  0  0  0  3  0  0  0  0  0  0
   34.8410   30.8990   32.1480 S   0  0  0  0  0  0  0  0  0  0  0  0
  1  2  1  0  0  0  0
  1 13  1  0  0  0  0
  2 14  1  0  0  0  0
  3  7  1  0  0  0  0
  3  2  2  0  0  0  0
  4  3  1  0  0  0  0
  5  4  2  0  0  0  0
  5  6  1  0  0  0  0
  6  1  2  0  0  0  0
  7  8  1  0  0  0  0
  8 17  1  0  0  0  0
  8  9  1  0  0  0  0
  9 19  1  0  0  0  0
  9 18  1  0  0  0  0
 10  9  1  0  0  0  0
 10 20  1  0  0  0  0
 11 22  1  0  0  0  0
 11 10  1  0  0  0  0
 12 24  1  6  0  0  0
 12  7  1  0  0  0  0
 12 11  1  0  0  0  0
 15  5  1  0  0  0  0
 16  8  1  0  0  0  0
 21 10  1  0  0  0  0
 23 11  1  0  0  0  0
 25 26  2  0  0  0  0
 25 12  1  0  0  0  0
 26 27  1  0  0  0  0
 28 26  1  0  0  0  0
 29 30  1  0  0  0  0
 29 28  2  0  0  0  0
 30 25  1  0  0  0  0
M  END
>  <minimizedAffinity>
-4.37842274

$$$$

 OpenBabel03272505073D

 30 32  0  0  1  0  0  0  0  0999 V2000
   39.2610   26.6610   35.6630 C   0  0  0  0  0  0  0  0  0  0  0  0
   38.4600   27.5610   34.9500 C   0  0  0  0  0  0  0  0  0  0  0  0
   37.4650   27.0370   34.1510 C   0  0  0  0  0  0  0  0  0  0  0  0
   37.3160   25.6770   34.0970 N   0  0  0  0  0  0  0  0  0  0  0  0
   38.0990   24.8410   34.7910 C   0  0  0  0  0  0  0  0  0  0  0  0
   39.0870   25.3320   35.5870 N   0  0  0  0  0  0  0  0  0  0  0  0
   36.5360   27.7480   33.3430 N   0  0  0  0  0  0  0  0  0  0  0  0
   35.8280   28.9130   33.8030 C   0  0  0  0  0  0  0  0  0  0  0  0
   35.7160   30.0430   32.8680 C   0  0  0  0  0  0  0  0  0  0  0  0
   35.5960   29.7130   31.4190 C   0  0  0  0  0  0  0  0  0  0  0  0
   36.5940   28.6260   31.0890 C   0  0  0  0  0  0  0  0  0  0  0  0
   36.1570   27.4410   31.9960 C   0  0  1  0  0  0  0  0  0  0  0  0
   40.0370   27.0990   36.2860 H   0  0  0  0  0  0  0  0  0  0  0  0
   38.5280   28.6130   34.9540 H   0  0  0  0  0  0  0  0  0  0  0  0
   37.9290   23.7760   34.7050 H   0  0  0  0  0  0  0  0  0  0  0  0
   34.8540   28.5880   34.2270 H   0  0  0  0  0  0  0  0  0  0  0  0
   36.4130   29.2850   34.6950 H   0  0  0  0  0  0  0  0  0  0  0  0
   36.5720   30.7560   32.9870 H   0  0  0  0  0  0  0  0  0  0  0  0
   34.8210   30.6440   33.1560 H   0  0  0  0  0  0  0  0  0  0  0  0
   35.9010   30.6260   30.8330 H   0  0  0  0  0  0  0  0  0  0  0  0
   34.6010   29.4020   31.0860 H   0  0  0  0  0  0  0  0  0  0  0  0
   37.6260   28.9080   31.2970 H   0  0  0  0  0  0  0  0  0  0  0  0
   36.4110   28.3320   30.0310 H   0  0  0  0  0  0  0  0  0  0  0  0
   35.0590   27.3840   31.8830 H   0  0  0  0  0  0  0  0  0  0  0  0
   36.7380   26.1930   31.4590 C   0  0  0  0  0  0  0  0  0  0  0  0
   36.1330   24.9550   31.3750 C   0  0  0  0  0  0  0  0  0  0  0  0
   35.1270   24.8120   31.7390 H   0  0  0  0  0  0  0  0  0  0  0  0
   36.8170   23.9190   30.8290 C   0  0  0  0  0  3  0  0  0  0  0  0
   38.1800   24.2390   30.3700 C   0  0  0  0  0  3  0  0  0  0  0  0
   38.3380   26.0670   30.7880 S   0  0  0  0  0  0  0  0  0  0  0  0
  1 13  1  0  0  0  0
  2 14  1  0  0  0  0
  2  1  2  0  0  0  0
  3  2  1  0  0  0  0
  4  3  2  0  0  0  0
  4  5  1  0  0  0  0
  5  6  2  0  0  0  0
  6  1  1  0  0  0  0
  7  8  1  0  0  0  0
  7  3  1  0  0  0  0
  8 16  1  0  0  0  0
  8 17  1  0  0  0  0
  9 18  1  0  0  0  0
  9 19  1  0  0  0  0
  9  8  1  0  0  0  0
 10  9  1  0  0  0  0
 11 22  1  0  0  0  0
 11 10  1  0  0  0  0
 11 12  1  0  0  0  0
 12 24  1  6  0  0  0
 12  7  1  0  0  0  0
 15  5  1  0  0  0  0
 20 10  1  0  0  0  0
 21 10  1  0  0  0  0
 23 11  1  0  0  0  0
 25 12  1  0  0  0  0
 26 25  2  0  0  0  0
 26 27  1  0  0  0  0
 28 26  1  0  0  0  0
 29 30  1  0  0  0  0
 29 28  2  0  0  0  0
 30 25  1  0  0  0  0
M  END
>  <minimizedAffinity>
-4.37000895

$$$$

 OpenBabel03272505073D

 30 32  0  0  1  0  0  0  0  0999 V2000
   39.4210   22.0190   34.4630 C   0  0  0  0  0  0  0  0  0  0  0  0
   40.4780   22.9220   34.3120 C   0  0  0  0  0  0  0  0  0  0  0  0
   40.3570   24.1560   34.9180 C   0  0  0  0  0  0  0  0  0  0  0  0
   39.2190   24.4280   35.6260 N   0  0  0  0  0  0  0  0  0  0  0  0
   38.2220   23.5420   35.7530 C   0  0  0  0  0  0  0  0  0  0  0  0
   38.3160   22.3190   35.1670 N   0  0  0  0  0  0  0  0  0  0  0  0
   41.2940   25.2260   34.9030 N   0  0  0  0  0  0  0  0  0  0  0  0
   42.7040   25.0350   35.1200 C   0  0  0  0  0  0  0  0  0  0  0  0
   43.6230   25.7740   34.2400 C   0  0  0  0  0  0  0  0  0  0  0  0
   43.1890   27.1280   33.7910 C   0  0  0  0  0  0  0  0  0  0  0  0
   41.7340   27.0560   33.3840 C   0  0  0  0  0  0  0  0  0  0  0  0
   41.0110   26.6120   34.6860 C   0  0  1  0  0  0  0  0  0  0  0  0
   39.5400   21.0530   33.9770 H   0  0  0  0  0  0  0  0  0  0  0  0
   41.3760   22.7670   33.7800 H   0  0  0  0  0  0  0  0  0  0  0  0
   37.3490   23.8200   36.3280 H   0  0  0  0  0  0  0  0  0  0  0  0
   42.9150   25.1740   36.2020 H   0  0  0  0  0  0  0  0  0  0  0  0
   42.8890   23.9370   34.9350 H   0  0  0  0  0  0  0  0  0  0  0  0
   43.8810   25.1760   33.3270 H   0  0  0  0  0  0  0  0  0  0  0  0
   44.5960   25.8870   34.7730 H   0  0  0  0  0  0  0  0  0  0  0  0
   43.7760   27.3860   32.8650 H   0  0  0  0  0  0  0  0  0  0  0  0
   43.3190   27.9320   34.5210 H   0  0  0  0  0  0  0  0  0  0  0  0
   41.5440   26.3450   32.5790 H   0  0  0  0  0  0  0  0  0  0  0  0
   41.4140   28.0960   33.1510 H   0  0  0  0  0  0  0  0  0  0  0  0
   41.4420   27.2470   35.4830 H   0  0  0  0  0  0  0  0  0  0  0  0
   39.5750   26.9400   34.5670 C   0  0  0  0  0  0  0  0  0  0  0  0
   38.7300   27.3810   35.5650 C   0  0  0  0  0  0  0  0  0  0  0  0
   39.0930   27.5090   36.5730 H   0  0  0  0  0  0  0  0  0  0  0  0
   37.4350   27.6540   35.2660 C   0  0  0  0  0  3  0  0  0  0  0  0
   37.0590   27.4410   33.8570 C   0  0  0  0  0  3  0  0  0  0  0  0
   38.6700   26.8490   33.0840 S   0  0  0  0  0  0  0  0  0  0  0  0
  1  6  1  0  0  0  0
  2  1  2  0  0  0  0
  2  3  1  0  0  0  0
  3  4  2  0  0  0  0
  4  5  1  0  0  0  0
  5 15  1  0  0  0  0
  6  5  2  0  0  0  0
  7  3  1  0  0  0  0
  7  8  1  0  0  0  0
  8 16  1  0  0  0  0
  9 19  1  0  0  0  0
  9  8  1  0  0  0  0
 10  9  1  0  0  0  0
 10 21  1  0  0  0  0
 11 10  1  0  0  0  0
 11 12  1  0  0  0  0
 12  7  1  0  0  0  0
 12 24  1  1  0  0  0
 13  1  1  0  0  0  0
 14  2  1  0  0  0  0
 17  8  1  0  0  0  0
 18  9  1  0  0  0  0
 20 10  1  0  0  0  0
 22 11  1  0  0  0  0
 23 11  1  0  0  0  0
 25 12  1  0  0  0  0
 25 26  2  0  0  0  0
 26 27  1  0  0  0  0
 28 26  1  0  0  0  0
 29 28  2  0  0  0  0
 30 29  1  0  0  0  0
 30 25  1  0  0  0  0
M  END
>  <minimizedAffinity>
-4.36465693

$$$$

 OpenBabel03272505073D

 30 32  0  0  1  0  0  0  0  0999 V2000
   35.7410   23.4660   31.2060 C   0  0  0  0  0  0  0  0  0  0  0  0
   35.5240   24.8100   31.5310 C   0  0  0  0  0  0  0  0  0  0  0  0
   36.6180   25.5600   31.9130 C   0  0  0  0  0  0  0  0  0  0  0  0
   37.8450   24.9550   31.9540 N   0  0  0  0  0  0  0  0  0  0  0  0
   38.0200   23.6650   31.6370 C   0  0  0  0  0  0  0  0  0  0  0  0
   36.9590   22.9040   31.2570 N   0  0  0  0  0  0  0  0  0  0  0  0
   36.6430   26.9320   32.2850 N   0  0  0  0  0  0  0  0  0  0  0  0
   35.9460   27.9560   31.5500 C   0  0  0  0  0  0  0  0  0  0  0  0
   35.2230   28.9690   32.3340 C   0  0  0  0  0  0  0  0  0  0  0  0
   35.8200   29.3670   33.6410 C   0  0  0  0  0  0  0  0  0  0  0  0
   36.2790   28.1200   34.3610 C   0  0  0  0  0  0  0  0  0  0  0  0
   37.3350   27.5080   33.3980 C   0  0  1  0  0  0  0  0  0  0  0  0
   34.8630   22.8970   30.9080 H   0  0  0  0  0  0  0  0  0  0  0  0
   34.6060   25.3280   31.5170 H   0  0  0  0  0  0  0  0  0  0  0  0
   39.0170   23.2470   31.6890 H   0  0  0  0  0  0  0  0  0  0  0  0
   36.6440   28.3870   30.8010 H   0  0  0  0  0  0  0  0  0  0  0  0
   35.1750   27.4080   30.9340 H   0  0  0  0  0  0  0  0  0  0  0  0
   34.1630   28.6560   32.5230 H   0  0  0  0  0  0  0  0  0  0  0  0
   35.1270   29.8870   31.7080 H   0  0  0  0  0  0  0  0  0  0  0  0
   35.0010   29.8240   34.2660 H   0  0  0  0  0  0  0  0  0  0  0  0
   36.6510   30.0760   33.5830 H   0  0  0  0  0  0  0  0  0  0  0  0
   35.4740   27.4070   34.5490 H   0  0  0  0  0  0  0  0  0  0  0  0
   36.8070   28.4560   35.2800 H   0  0  0  0  0  0  0  0  0  0  0  0
   37.9670   28.3620   33.0890 H   0  0  0  0  0  0  0  0  0  0  0  0
   38.1800   26.5640   34.1570 C   0  0  0  0  0  0  0  0  0  0  0  0
   37.7750   25.6700   35.1280 C   0  0  0  0  0  0  0  0  0  0  0  0
   36.7380   25.6150   35.4230 H   0  0  0  0  0  0  0  0  0  0  0  0
   38.6940   24.8600   35.7090 C   0  0  0  0  0  3  0  0  0  0  0  0
   40.0760   25.0290   35.2230 C   0  0  0  0  0  3  0  0  0  0  0  0
   39.8960   26.3870   33.9320 S   0  0  0  0  0  0  0  0  0  0  0  0
  1  6  2  0  0  0  0
  1  2  1  0  0  0  0
  2  3  2  0  0  0  0
  3  4  1  0  0  0  0
  3  7  1  0  0  0  0
  5 15  1  0  0  0  0
  5  4  2  0  0  0  0
  6  5  1  0  0  0  0
  7 12  1  0  0  0  0
  8  7  1  0  0  0  0
  8  9  1  0  0  0  0
  9 18  1  0  0  0  0
  9 10  1  0  0  0  0
 10 20  1  0  0  0  0
 10 11  1  0  0  0  0
 11 22  1  0  0  0  0
 11 23  1  0  0  0  0
 12 24  1  6  0  0  0
 12 25  1  0  0  0  0
 12 11  1  0  0  0  0
 13  1  1  0  0  0  0
 14  2  1  0  0  0  0
 16  8  1  0  0  0  0
 17  8  1  0  0  0  0
 19  9  1  0  0  0  0
 21 10  1  0  0  0  0
 25 26  2  0  0  0  0
 26 27  1  0  0  0  0
 26 28  1  0  0  0  0
 29 28  2  0  0  0  0
 30 25  1  0  0  0  0
 30 29  1  0  0  0  0
M  END
>  <minimizedAffinity>
-4.3471508

$$$$

 OpenBabel03272505073D

 30 32  0  0  1  0  0  0  0  0999 V2000
   38.1570   24.1410   37.8960 C   0  0  0  0  0  0  0  0  0  0  0  0
   37.9850   24.8990   36.7330 C   0  0  0  0  0  0  0  0  0  0  0  0
   38.7020   24.5260   35.6150 C   0  0  0  0  0  0  0  0  0  0  0  0
   39.5370   23.4450   35.7020 N   0  0  0  0  0  0  0  0  0  0  0  0
   39.6810   22.7390   36.8310 C   0  0  0  0  0  0  0  0  0  0  0  0
   38.9850   23.0840   37.9480 N   0  0  0  0  0  0  0  0  0  0  0  0
   38.6900   25.1400   34.3320 N   0  0  0  0  0  0  0  0  0  0  0  0
   37.4780   25.5410   33.6670 C   0  0  0  0  0  0  0  0  0  0  0  0
   37.4840   26.8500   32.9950 C   0  0  0  0  0  0  0  0  0  0  0  0
   38.7680   27.2870   32.3760 C   0  0  0  0  0  0  0  0  0  0  0  0
   39.8940   26.9880   33.3390 C   0  0  0  0  0  0  0  0  0  0  0  0
   39.8250   25.4450   33.5150 C   0  0  1  0  0  0  0  0  0  0  0  0
   37.5810   24.4540   38.7640 H   0  0  0  0  0  0  0  0  0  0  0  0
   37.3580   25.7380   36.6080 H   0  0  0  0  0  0  0  0  0  0  0  0
   40.3570   21.8940   36.8340 H   0  0  0  0  0  0  0  0  0  0  0  0
   37.1430   24.7070   33.0140 H   0  0  0  0  0  0  0  0  0  0  0  0
   36.6960   25.5950   34.4790 H   0  0  0  0  0  0  0  0  0  0  0  0
   37.1440   27.6640   33.6870 H   0  0  0  0  0  0  0  0  0  0  0  0
   36.7080   26.8320   32.1950 H   0  0  0  0  0  0  0  0  0  0  0  0
   38.7270   28.4070   32.2570 H   0  0  0  0  0  0  0  0  0  0  0  0
   38.9990   26.8420   31.4030 H   0  0  0  0  0  0  0  0  0  0  0  0
   39.7850   27.4890   34.3020 H   0  0  0  0  0  0  0  0  0  0  0  0
   40.8430   27.2310   32.8100 H   0  0  0  0  0  0  0  0  0  0  0  0
   39.7110   25.0460   32.4900 H   0  0  0  0  0  0  0  0  0  0  0  0
   41.1180   24.9700   34.0490 C   0  0  0  0  0  0  0  0  0  0  0  0
   41.9230   25.5970   34.9790 C   0  0  0  0  0  0  0  0  0  0  0  0
   41.6390   26.5530   35.3920 H   0  0  0  0  0  0  0  0  0  0  0  0
   43.0750   24.9980   35.3710 C   0  0  0  0  0  3  0  0  0  0  0  0
   43.3530   23.6970   34.7370 C   0  0  0  0  0  3  0  0  0  0  0  0
   41.8690   23.4650   33.6030 S   0  0  0  0  0  0  0  0  0  0  0  0
  1  6  1  0  0  0  0
  1 13  1  0  0  0  0
  2  1  2  0  0  0  0
  3  4  2  0  0  0  0
  3  2  1  0  0  0  0
  4  5  1  0  0  0  0
  5 15  1  0  0  0  0
  5  6  2  0  0  0  0
  7  3  1  0  0  0  0
  8  7  1  0  0  0  0
  8 17  1  0  0  0  0
  9  8  1  0  0  0  0
  9 18  1  0  0  0  0
 10  9  1  0  0  0  0
 10 11  1  0  0  0  0
 11 12  1  0  0  0  0
 11 22  1  0  0  0  0
 12 24  1  6  0  0  0
 12 25  1  0  0  0  0
 12  7  1  0  0  0  0
 14  2  1  0  0  0  0
 16  8  1  0  0  0  0
 19  9  1  0  0  0  0
 20 10  1  0  0  0  0
 21 10  1  0  0  0  0
 23 11  1  0  0  0  0
 25 26  2  0  0  0  0
 26 28  1  0  0  0  0
 26 27  1  0  0  0  0
 29 28  2  0  0  0  0
 30 25  1  0  0  0  0
 30 29  1  0  0  0  0
M  END
>  <minimizedAffinity>
-4.3024435

$$$$

 OpenBabel03272505073D

 30 32  0  0  1  0  0  0  0  0999 V2000
   36.5060   28.8260   30.4580 C   0  0  0  0  0  0  0  0  0  0  0  0
   36.4400   27.4300   30.5160 C   0  0  0  0  0  0  0  0  0  0  0  0
   36.3730   26.8440   31.7640 C   0  0  0  0  0  0  0  0  0  0  0  0
   36.3740   27.6520   32.8680 N   0  0  0  0  0  0  0  0  0  0  0  0
   36.4380   28.9870   32.7800 C   0  0  0  0  0  0  0  0  0  0  0  0
   36.5040   29.5910   31.5630 N   0  0  0  0  0  0  0  0  0  0  0  0
   36.3000   25.4570   32.0690 N   0  0  0  0  0  0  0  0  0  0  0  0
   35.4270   24.5470   31.3740 C   0  0  0  0  0  0  0  0  0  0  0  0
   35.9830   23.2360   31.0030 C   0  0  0  0  0  0  0  0  0  0  0  0
   36.9770   22.6340   31.9370 C   0  0  0  0  0  0  0  0  0  0  0  0
   37.9470   23.7100   32.3670 C   0  0  0  0  0  0  0  0  0  0  0  0
   37.0420   24.7580   33.0740 C   0  0  1  0  0  0  0  0  0  0  0  0
   36.5570   29.2640   29.4640 H   0  0  0  0  0  0  0  0  0  0  0  0
   36.4350   26.7590   29.7020 H   0  0  0  0  0  0  0  0  0  0  0  0
   36.4350   29.5700   33.6920 H   0  0  0  0  0  0  0  0  0  0  0  0
   34.4690   24.4820   31.9340 H   0  0  0  0  0  0  0  0  0  0  0  0
   35.1560   25.0710   30.4110 H   0  0  0  0  0  0  0  0  0  0  0  0
   36.4450   23.2650   29.9820 H   0  0  0  0  0  0  0  0  0  0  0  0
   35.1360   22.5190   30.8960 H   0  0  0  0  0  0  0  0  0  0  0  0
   37.5710   21.8700   31.3580 H   0  0  0  0  0  0  0  0  0  0  0  0
   36.5590   22.1500   32.8240 H   0  0  0  0  0  0  0  0  0  0  0  0
   38.4840   24.1680   31.5350 H   0  0  0  0  0  0  0  0  0  0  0  0
   38.6100   23.2560   33.1360 H   0  0  0  0  0  0  0  0  0  0  0  0
   36.3800   24.1650   33.7330 H   0  0  0  0  0  0  0  0  0  0  0  0
   37.8870   25.6170   33.9290 C   0  0  0  0  0  0  0  0  0  0  0  0
   37.5720   26.1360   35.1680 C   0  0  0  0  0  0  0  0  0  0  0  0
   36.6090   25.9430   35.6140 H   0  0  0  0  0  0  0  0  0  0  0  0
   38.4880   26.8940   35.8220 C   0  0  0  0  0  3  0  0  0  0  0  0
   39.7640   27.0870   35.1120 C   0  0  0  0  0  3  0  0  0  0  0  0
   39.5010   26.1200   33.5180 S   0  0  0  0  0  0  0  0  0  0  0  0
  1  2  2  0  0  0  0
  1  6  1  0  0  0  0
  2  3  1  0  0  0  0
  3  7  1  0  0  0  0
  3  4  2  0  0  0  0
  5  4  1  0  0  0  0
  5 15  1  0  0  0  0
  6  5  2  0  0  0  0
  7 12  1  0  0  0  0
  8 16  1  0  0  0  0
  8  7  1  0  0  0  0
  9  8  1  0  0  0  0
  9 10  1  0  0  0  0
 10 11  1  0  0  0  0
 10 21  1  0  0  0  0
 11 12  1  0  0  0  0
 11 23  1  0  0  0  0
 12 24  1  1  0  0  0
 12 25  1  0  0  0  0
 13  1  1  0  0  0  0
 14  2  1  0  0  0  0
 17  8  1  0  0  0  0
 18  9  1  0  0  0  0
 19  9  1  0  0  0  0
 20 10  1  0  0  0  0
 22 11  1  0  0  0  0
 25 26  2  0  0  0  0
 26 27  1  0  0  0  0
 26 28  1  0  0  0  0
 29 28  2  0  0  0  0
 30 25  1  0  0  0  0
 30 29  1  0  0  0  0
M  END
>  <minimizedAffinity>
-4.28134394

$$$$

 OpenBabel03272505073D

 30 32  0  0  1  0  0  0  0  0999 V2000
   38.0680   27.5290   35.4670 C   0  0  0  0  0  0  0  0  0  0  0  0
   39.3240   26.9290   35.6120 C   0  0  0  0  0  0  0  0  0  0  0  0
   39.5950   25.8170   34.8410 C   0  0  0  0  0  0  0  0  0  0  0  0
   38.6290   25.3640   33.9840 N   0  0  0  0  0  0  0  0  0  0  0  0
   37.4350   25.9600   33.8670 C   0  0  0  0  0  0  0  0  0  0  0  0
   37.1420   27.0580   34.6150 N   0  0  0  0  0  0  0  0  0  0  0  0
   40.7900   25.0480   34.8160 N   0  0  0  0  0  0  0  0  0  0  0  0
   42.1020   25.6400   34.7790 C   0  0  0  0  0  0  0  0  0  0  0  0
   43.1300   25.0470   35.6490 C   0  0  0  0  0  0  0  0  0  0  0  0
   43.0630   23.5730   35.8680 C   0  0  0  0  0  0  0  0  0  0  0  0
   41.6230   23.1890   36.1220 C   0  0  0  0  0  0  0  0  0  0  0  0
   40.8930   23.6200   34.8180 C   0  0  1  0  0  0  0  0  0  0  0  0
   37.8790   28.4030   36.0850 H   0  0  0  0  0  0  0  0  0  0  0  0
   40.1040   27.2340   36.2530 H   0  0  0  0  0  0  0  0  0  0  0  0
   36.7150   25.5520   33.1710 H   0  0  0  0  0  0  0  0  0  0  0  0
   42.4160   25.7330   33.7180 H   0  0  0  0  0  0  0  0  0  0  0  0
   41.9580   26.7060   35.1250 H   0  0  0  0  0  0  0  0  0  0  0  0
   43.1470   25.5420   36.6540 H   0  0  0  0  0  0  0  0  0  0  0  0
   44.1290   25.2820   35.2130 H   0  0  0  0  0  0  0  0  0  0  0  0
   43.6350   23.3410   36.8100 H   0  0  0  0  0  0  0  0  0  0  0  0
   43.4620   22.9570   35.0570 H   0  0  0  0  0  0  0  0  0  0  0  0
   41.1870   23.6900   36.9880 H   0  0  0  0  0  0  0  0  0  0  0  0
   41.5920   22.0790   36.1810 H   0  0  0  0  0  0  0  0  0  0  0  0
   41.5380   23.2550   33.9970 H   0  0  0  0  0  0  0  0  0  0  0  0
   39.6020   22.9060   34.7380 C   0  0  0  0  0  0  0  0  0  0  0  0
   38.7290   22.6340   35.7710 C   0  0  0  0  0  0  0  0  0  0  0  0
   38.9640   22.9370   36.7800 H   0  0  0  0  0  0  0  0  0  0  0  0
   37.5710   21.9800   35.5070 C   0  0  0  0  0  3  0  0  0  0  0  0
   37.3640   21.6180   34.0930 C   0  0  0  0  0  3  0  0  0  0  0  0
   38.9180   22.2840   33.2650 S   0  0  0  0  0  0  0  0  0  0  0  0
  1  2  1  0  0  0  0
  1 13  1  0  0  0  0
  2 14  1  0  0  0  0
  3  2  2  0  0  0  0
  4  3  1  0  0  0  0
  5  4  2  0  0  0  0
  5  6  1  0  0  0  0
  6  1  2  0  0  0  0
  7 12  1  0  0  0  0
  7  3  1  0  0  0  0
  8  7  1  0  0  0  0
  8 17  1  0  0  0  0
  8  9  1  0  0  0  0
  9 10  1  0  0  0  0
  9 18  1  0  0  0  0
 10 11  1  0  0  0  0
 10 20  1  0  0  0  0
 11 23  1  0  0  0  0
 11 22  1  0  0  0  0
 12 24  1  6  0  0  0
 12 11  1  0  0  0  0
 15  5  1  0  0  0  0
 16  8  1  0  0  0  0
 19  9  1  0  0  0  0
 21 10  1  0  0  0  0
 25 12  1  0  0  0  0
 25 26  2  0  0  0  0
 26 27  1  0  0  0  0
 28 26  1  0  0  0  0
 29 28  2  0  0  0  0
 30 29  1  0  0  0  0
 30 25  1  0  0  0  0
M  END
>  <minimizedAffinity>
-4.27556944

$$$$
