
 OpenBabel03272509383D

 27 29  0  0  1  0  0  0  0  0999 V2000
   35.9960   29.5730   48.8790 C   0  0  0  0  0  0  0  0  0  0  0  0
   36.0380   29.4520   50.2900 C   0  0  0  0  0  0  0  0  0  0  0  0
   37.0150   30.1360   51.0310 C   0  0  0  0  0  0  0  0  0  0  0  0
   37.9390   30.9320   50.3850 C   0  0  0  0  0  0  0  0  0  0  0  0
   37.8530   31.0130   49.0240 C   0  0  0  0  0  0  0  0  0  0  0  0
   36.9040   30.3510   48.2490 C   0  0  0  0  0  0  0  0  0  0  0  0
   35.2890   28.8150   50.7410 H   0  0  0  0  0  0  0  0  0  0  0  0
   36.9080   29.9410   52.0710 H   0  0  0  0  0  0  0  0  0  0  0  0
   38.6550   31.4260   51.0190 H   0  0  0  0  0  0  0  0  0  0  0  0
   38.6500   31.6820   48.6520 H   0  0  0  0  0  0  0  0  0  0  0  0
   37.0710   30.6840   46.8620 C   0  0  0  0  0  0  0  0  0  0  0  0
   37.8960   31.9050   46.6030 C   0  0  0  0  0  0  0  0  0  0  0  0
   38.3020   32.6150   47.3540 H   0  0  0  0  0  0  0  0  0  0  0  0
   38.2650   32.3040   45.3790 C   0  0  0  0  0  3  0  0  0  0  0  0
   37.8040   31.4700   44.3320 C   0  0  0  0  0  3  0  0  0  0  0  0
   36.9230   30.2320   45.0990 S   0  0  0  0  0  0  0  0  0  0  0  0
   34.9560   28.8250   48.1740 C   0  0  1  0  0  3  0  0  0  0  0  0
   34.7610   27.6290   48.6400 O   0  0  0  0  0  1  0  0  0  0  0  0
   32.8400   31.1040   46.3140 C   0  0  0  0  0  0  0  0  0  0  0  0
   32.6600   30.4770   45.0910 C   0  0  0  0  0  0  0  0  0  0  0  0
   33.2700   29.2350   44.8910 C   0  0  0  0  0  0  0  0  0  0  0  0
   34.0270   28.6700   45.8970 N   0  0  0  0  0  0  0  0  0  0  0  0
   34.1710   29.3120   47.0510 C   0  0  0  0  0  0  0  0  0  0  0  0
   33.5780   30.5150   47.2440 N   0  0  0  0  0  0  0  0  0  0  0  0
   32.3360   32.0560   46.3830 H   0  0  0  0  0  0  0  0  0  0  0  0
   32.1040   30.8090   44.2440 H   0  0  0  0  0  0  0  0  0  0  0  0
   33.1780   28.6720   43.9580 H   0  0  0  0  0  0  0  0  0  0  0  0
  1  2  1  0  0  0  0
  2  7  1  0  0  0  0
  2  3  2  0  0  0  0
  3  8  1  0  0  0  0
  4  9  1  0  0  0  0
  4  3  1  0  0  0  0
  5  4  2  0  0  0  0
  6  1  2  0  0  0  0
  6  5  1  0  0  0  0
 10  5  1  0  0  0  0
 11  6  1  0  0  0  0
 12 11  2  0  0  0  0
 12 13  1  0  0  0  0
 14 12  1  0  0  0  0
 15 16  1  0  0  0  0
 15 14  2  0  0  0  0
 16 11  1  0  0  0  0
 17 18  1  1  0  0  0
 17  1  1  0  0  0  0
 19 25  1  0  0  0  0
 19 24  1  0  0  0  0
 20 19  2  0  0  0  0
 21 20  1  0  0  0  0
 21 22  2  0  0  0  0
 22 23  1  0  0  0  0
 23 24  2  0  0  0  0
 23 17  1  0  0  0  0
 26 20  1  0  0  0  0
 27 21  1  0  0  0  0
M  END
>  <minimizedAffinity>
-5.01333284

>  <minimizedRMSD>
0.66300559

$$$$
