
 OpenBabel03272506303D

 31 33  0  0  1  0  0  0  0  0999 V2000
   33.8390   28.9980   48.2180 C   0  0  1  0  0  0  0  0  0  0  0  0
   33.4590   29.5360   46.9150 C   0  0  0  0  0  0  0  0  0  0  0  0
   33.7410   28.6980   45.7150 C   0  0  0  0  0  0  0  0  0  0  0  0
   33.6430   27.2330   45.8850 C   0  0  0  0  0  0  0  0  0  0  0  0
   34.0050   26.6870   47.2080 C   0  0  0  0  0  0  0  0  0  0  0  0
   33.5820   27.5240   48.3590 C   0  0  2  0  0  0  0  0  0  0  0  0
   33.1710   29.4640   49.0100 H   0  0  0  0  0  0  0  0  0  0  0  0
   33.7760   30.5500   46.6750 H   0  0  0  0  0  0  0  0  0  0  0  0
   32.3260   29.6220   46.9330 H   0  0  0  0  0  0  0  0  0  0  0  0
   34.7750   28.9800   45.3700 H   0  0  0  0  0  0  0  0  0  0  0  0
   33.0710   29.0180   44.8880 H   0  0  0  0  0  0  0  0  0  0  0  0
   32.6340   26.8910   45.5870 H   0  0  0  0  0  0  0  0  0  0  0  0
   34.3580   26.7750   45.1350 H   0  0  0  0  0  0  0  0  0  0  0  0
   33.4890   25.6960   47.3230 H   0  0  0  0  0  0  0  0  0  0  0  0
   35.1160   26.5240   47.2450 H   0  0  0  0  0  0  0  0  0  0  0  0
   33.8740   27.1110   49.3190 H   0  0  0  0  0  0  0  0  0  0  0  0
   35.9780   30.3600   48.0570 C   0  0  0  0  0  0  0  0  0  0  0  0
   35.1880   29.3790   48.7040 C   0  0  0  0  0  0  0  0  0  0  0  0
   35.7540   28.8040   49.8260 C   0  0  0  0  0  0  0  0  0  0  0  0
   36.9910   29.1840   50.2440 N   0  0  0  0  0  0  0  0  0  0  0  0
   37.7030   30.1260   49.5900 C   0  0  0  0  0  0  0  0  0  0  0  0
   37.1830   30.7100   48.4920 N   0  0  0  0  0  0  0  0  0  0  0  0
   35.6580   30.8860   47.1740 H   0  0  0  0  0  0  0  0  0  0  0  0
   35.3050   28.0480   50.4440 H   0  0  0  0  0  0  0  0  0  0  0  0
   38.6780   30.3720   49.9860 H   0  0  0  0  0  0  0  0  0  0  0  0
   32.0400   27.3790   48.4010 C   0  0  0  0  0  0  0  0  0  0  0  0
   31.2840   27.9620   49.2710 C   0  0  0  0  0  0  0  0  0  0  0  0
   31.5470   28.6410   50.1050 H   0  0  0  0  0  0  0  0  0  0  0  0
   29.9220   27.8140   49.2970 C   0  0  0  0  0  3  0  0  0  0  0  0
   29.4000   27.0140   48.3480 C   0  0  0  0  0  3  0  0  0  0  0  0
   30.9360   26.4730   47.4070 S   0  0  0  0  0  0  0  0  0  0  0  0
  1  6  1  0  0  0  0
  1 18  1  0  0  0  0
  1  7  1  1  0  0  0
  2  9  1  0  0  0  0
  2  1  1  0  0  0  0
  3  4  1  0  0  0  0
  3  2  1  0  0  0  0
  4  5  1  0  0  0  0
  5 15  1  0  0  0  0
  5 14  1  0  0  0  0
  5  6  1  0  0  0  0
  6 26  1  0  0  0  0
  6 16  1  1  0  0  0
  8  2  1  0  0  0  0
 10  3  1  0  0  0  0
 11  3  1  0  0  0  0
 12  4  1  0  0  0  0
 13  4  1  0  0  0  0
 17 22  2  0  0  0  0
 17 18  1  0  0  0  0
 18 19  2  0  0  0  0
 19 20  1  0  0  0  0
 19 24  1  0  0  0  0
 21 25  1  0  0  0  0
 21 20  2  0  0  0  0
 22 21  1  0  0  0  0
 23 17  1  0  0  0  0
 26 27  2  0  0  0  0
 27 29  1  0  0  0  0
 27 28  1  0  0  0  0
 30 29  2  0  0  0  0
 31 30  1  0  0  0  0
 31 26  1  0  0  0  0
M  END
>  <minimizedAffinity>
-4.61091805

>  <minimizedRMSD>
1.76352

$$$$
