
 OpenBabel03272506513D

 31 33  0  0  1  0  0  0  0  0999 V2000
   34.7140   30.5180   48.9850 C   0  0  1  0  0  0  0  0  0  0  0  0
   34.1740   30.3010   47.6420 C   0  0  0  0  0  0  0  0  0  0  0  0
   34.2280   28.9000   47.1020 C   0  0  0  0  0  0  0  0  0  0  0  0
   34.0200   27.8080   48.0780 C   0  0  1  0  0  0  0  0  0  0  0  0
   34.5570   28.0200   49.4540 C   0  0  0  0  0  0  0  0  0  0  0  0
   34.3560   29.4170   49.9410 C   0  0  0  0  0  0  0  0  0  0  0  0
   34.1950   31.4250   49.4320 H   0  0  0  0  0  0  0  0  0  0  0  0
   34.4730   30.9770   46.8540 H   0  0  0  0  0  0  0  0  0  0  0  0
   33.0530   30.4900   47.7310 H   0  0  0  0  0  0  0  0  0  0  0  0
   33.4980   28.8060   46.2840 H   0  0  0  0  0  0  0  0  0  0  0  0
   35.2260   28.7890   46.6290 H   0  0  0  0  0  0  0  0  0  0  0  0
   34.5910   26.9100   47.6850 H   0  0  0  0  0  0  0  0  0  0  0  0
   34.0810   27.3470   50.1630 H   0  0  0  0  0  0  0  0  0  0  0  0
   35.6530   27.8290   49.4330 H   0  0  0  0  0  0  0  0  0  0  0  0
   33.2310   29.5130   50.0790 H   0  0  0  0  0  0  0  0  0  0  0  0
   34.7550   29.5080   50.9410 H   0  0  0  0  0  0  0  0  0  0  0  0
   36.9030   31.2340   47.9070 C   0  0  0  0  0  0  0  0  0  0  0  0
   36.1450   30.9060   49.0570 C   0  0  0  0  0  0  0  0  0  0  0  0
   36.7960   30.9590   50.2750 C   0  0  0  0  0  0  0  0  0  0  0  0
   38.1090   31.3160   50.3270 N   0  0  0  0  0  0  0  0  0  0  0  0
   38.7960   31.6240   49.1950 C   0  0  0  0  0  0  0  0  0  0  0  0
   38.1820   31.5790   47.9880 N   0  0  0  0  0  0  0  0  0  0  0  0
   36.4660   31.2150   46.9220 H   0  0  0  0  0  0  0  0  0  0  0  0
   36.3740   30.7470   51.2420 H   0  0  0  0  0  0  0  0  0  0  0  0
   39.8390   31.9130   49.1920 H   0  0  0  0  0  0  0  0  0  0  0  0
   32.6000   27.3840   48.0320 C   0  0  0  0  0  0  0  0  0  0  0  0
   31.4970   27.5410   48.7470 C   0  0  0  0  0  0  0  0  0  0  0  0
   31.6790   28.1570   49.6170 H   0  0  0  0  0  0  0  0  0  0  0  0
   30.3010   26.9950   48.4230 C   0  0  0  0  0  0  0  0  0  0  0  0
   30.3550   26.2020   47.1810 C   0  0  0  0  0  0  0  0  0  0  0  0
   32.1610   26.3680   46.6570 S   0  0  0  0  0  0  0  0  0  0  0  0
  1 18  1  0  0  0  0
  1  7  1  1  0  0  0
  1  6  1  0  0  0  0
  2  9  1  0  0  0  0
  2  1  1  0  0  0  0
  3  2  1  0  0  0  0
  3  4  1  0  0  0  0
  4 12  1  6  0  0  0
  4  5  1  0  0  0  0
  5  6  1  0  0  0  0
  5 13  1  0  0  0  0
  6 15  1  0  0  0  0
  6 16  1  0  0  0  0
  8  2  1  0  0  0  0
 10  3  1  0  0  0  0
 11  3  1  0  0  0  0
 14  5  1  0  0  0  0
 17 22  2  0  0  0  0
 17 18  1  0  0  0  0
 18 19  2  0  0  0  0
 19 20  1  0  0  0  0
 19 24  1  0  0  0  0
 21 20  2  0  0  0  0
 22 21  1  0  0  0  0
 23 17  1  0  0  0  0
 25 21  1  0  0  0  0
 26  4  1  0  0  0  0
 26 27  2  0  0  0  0
 27 28  1  0  0  0  0
 29 27  1  0  0  0  0
 30 29  2  0  0  0  0
 31 30  1  0  0  0  0
 31 26  1  0  0  0  0
M  END
>  <minimizedAffinity>
-5.08101225

>  <minimizedRMSD>
1.39624321

$$$$
