
 OpenBabel03272506193D

 31 33  0  0  0  0  0  0  0  0999 V2000
   37.3420   27.0360   33.6990 C   0  0  0  0  0  0  0  0  0  0  0  0
   37.5460   26.9020   35.1910 C   0  0  0  0  0  0  0  0  0  0  0  0
   38.9410   27.2490   35.6180 C   0  0  0  0  0  0  0  0  0  0  0  0
   40.0100   26.4960   34.8790 C   0  0  0  0  0  0  0  0  0  0  0  0
   39.7250   26.3400   33.4160 C   0  0  0  0  0  0  0  0  0  0  0  0
   38.6070   27.2480   32.9410 C   0  0  0  0  0  0  0  0  0  0  0  0
   36.8210   26.1370   33.3140 H   0  0  0  0  0  0  0  0  0  0  0  0
   36.8540   27.5310   35.7630 H   0  0  0  0  0  0  0  0  0  0  0  0
   37.4050   25.8210   35.4670 H   0  0  0  0  0  0  0  0  0  0  0  0
   39.0300   27.0080   36.6880 H   0  0  0  0  0  0  0  0  0  0  0  0
   39.0780   28.3430   35.4900 H   0  0  0  0  0  0  0  0  0  0  0  0
   40.9540   27.1040   34.9680 H   0  0  0  0  0  0  0  0  0  0  0  0
   40.2670   25.5270   35.3440 H   0  0  0  0  0  0  0  0  0  0  0  0
   40.6070   26.5870   32.7930 H   0  0  0  0  0  0  0  0  0  0  0  0
   39.4700   25.2930   33.2350 H   0  0  0  0  0  0  0  0  0  0  0  0
   38.9550   28.2880   33.1560 H   0  0  0  0  0  0  0  0  0  0  0  0
   38.4780   27.0780   31.8750 H   0  0  0  0  0  0  0  0  0  0  0  0
   36.4450   28.1980   33.4120 C   0  0  0  0  0  0  0  0  0  0  0  0
   36.0380   28.9460   34.5340 C   0  0  0  0  0  0  0  0  0  0  0  0
   35.1820   30.0340   34.2680 C   0  0  0  0  0  0  0  0  0  0  0  0
   34.7980   30.3050   32.9910 N   0  0  0  0  0  0  0  0  0  0  0  0
   35.2240   29.5460   31.9480 C   0  0  0  0  0  0  0  0  0  0  0  0
   36.0330   28.5100   32.1590 N   0  0  0  0  0  0  0  0  0  0  0  0
   36.3030   28.7820   35.5480 H   0  0  0  0  0  0  0  0  0  0  0  0
   34.9210   29.7620   30.9520 H   0  0  0  0  0  0  0  0  0  0  0  0
   34.7100   30.8550   35.3160 C   0  0  0  0  0  0  0  0  0  0  0  0
   35.3970   31.7510   36.1080 C   0  0  0  0  0  0  0  0  0  0  0  0
   36.4580   31.8810   35.9410 H   0  0  0  0  0  0  0  0  0  0  0  0
   34.7290   32.4440   37.0730 C   0  0  0  0  0  3  0  0  0  0  0  0
   33.3390   32.1800   37.1890 C   0  0  0  0  0  3  0  0  0  0  0  0
   33.0390   30.9340   35.8960 S   0  0  0  0  0  0  0  0  0  0  0  0
  1  2  1  0  0  0  0
  2  9  1  0  0  0  0
  2  3  1  0  0  0  0
  2  8  1  0  0  0  0
  3 10  1  0  0  0  0
  4 12  1  0  0  0  0
  4 13  1  0  0  0  0
  4  3  1  0  0  0  0
  5  4  1  0  0  0  0
  6 16  1  0  0  0  0
  6  5  1  0  0  0  0
  6  1  1  0  0  0  0
  7  1  1  0  0  0  0
 11  3  1  0  0  0  0
 14  5  1  0  0  0  0
 15  5  1  0  0  0  0
 17  6  1  0  0  0  0
 18  1  1  0  0  0  0
 18 19  1  0  0  0  0
 19 24  1  0  0  0  0
 20 19  2  0  0  0  0
 20 26  1  0  0  0  0
 21 20  1  0  0  0  0
 22 23  1  0  0  0  0
 22 21  2  0  0  0  0
 23 18  2  0  0  0  0
 25 22  1  0  0  0  0
 26 31  1  0  0  0  0
 26 27  2  0  0  0  0
 27 29  1  0  0  0  0
 28 27  1  0  0  0  0
 29 30  2  0  0  0  0
 31 30  1  0  0  0  0
M  END
>  <minimizedAffinity>
-5.09376526

$$$$

 OpenBabel03272506193D

 31 33  0  0  0  0  0  0  0  0999 V2000
   37.6500   27.1030   33.2830 C   0  0  0  0  0  0  0  0  0  0  0  0
   39.0500   27.1330   32.7140 C   0  0  0  0  0  0  0  0  0  0  0  0
   40.0440   26.4240   33.5840 C   0  0  0  0  0  0  0  0  0  0  0  0
   40.0550   26.8970   35.0100 C   0  0  0  0  0  0  0  0  0  0  0  0
   38.6850   27.1660   35.5570 C   0  0  0  0  0  0  0  0  0  0  0  0
   37.5870   26.5940   34.6830 C   0  0  0  0  0  0  0  0  0  0  0  0
   37.2080   28.1180   33.2340 H   0  0  0  0  0  0  0  0  0  0  0  0
   39.1010   26.6880   31.7140 H   0  0  0  0  0  0  0  0  0  0  0  0
   39.3890   28.2050   32.6780 H   0  0  0  0  0  0  0  0  0  0  0  0
   41.0430   26.6000   33.1580 H   0  0  0  0  0  0  0  0  0  0  0  0
   39.8270   25.3360   33.5370 H   0  0  0  0  0  0  0  0  0  0  0  0
   40.4970   26.0630   35.6230 H   0  0  0  0  0  0  0  0  0  0  0  0
   40.7330   27.7500   35.1840 H   0  0  0  0  0  0  0  0  0  0  0  0
   38.5450   26.7180   36.5600 H   0  0  0  0  0  0  0  0  0  0  0  0
   38.5720   28.2480   35.6540 H   0  0  0  0  0  0  0  0  0  0  0  0
   37.7760   25.4930   34.6470 H   0  0  0  0  0  0  0  0  0  0  0  0
   36.6370   26.8250   35.1590 H   0  0  0  0  0  0  0  0  0  0  0  0
   36.7790   26.2230   32.4440 C   0  0  0  0  0  0  0  0  0  0  0  0
   37.0230   24.8410   32.5550 C   0  0  0  0  0  0  0  0  0  0  0  0
   36.2130   24.0090   31.7550 C   0  0  0  0  0  0  0  0  0  0  0  0
   35.2680   24.5530   30.9420 N   0  0  0  0  0  0  0  0  0  0  0  0
   35.0790   25.8970   30.8780 C   0  0  0  0  0  0  0  0  0  0  0  0
   35.8240   26.7150   31.6180 N   0  0  0  0  0  0  0  0  0  0  0  0
   37.7430   24.3610   33.1680 H   0  0  0  0  0  0  0  0  0  0  0  0
   34.3390   26.3180   30.2410 H   0  0  0  0  0  0  0  0  0  0  0  0
   36.3690   22.6060   31.7840 C   0  0  0  0  0  0  0  0  0  0  0  0
   35.6180   21.6250   31.1710 C   0  0  0  0  0  0  0  0  0  0  0  0
   34.7730   21.9230   30.5660 H   0  0  0  0  0  0  0  0  0  0  0  0
   35.9560   20.3150   31.3410 C   0  0  0  0  0  3  0  0  0  0  0  0
   37.0880   20.0580   32.1590 C   0  0  0  0  0  3  0  0  0  0  0  0
   37.6300   21.7230   32.6590 S   0  0  0  0  0  0  0  0  0  0  0  0
  1  6  1  0  0  0  0
  2  1  1  0  0  0  0
  2  3  1  0  0  0  0
  3  4  1  0  0  0  0
  4 13  1  0  0  0  0
  4  5  1  0  0  0  0
  4 12  1  0  0  0  0
  5 15  1  0  0  0  0
  5 14  1  0  0  0  0
  6 17  1  0  0  0  0
  6  5  1  0  0  0  0
  7  1  1  0  0  0  0
  8  2  1  0  0  0  0
  9  2  1  0  0  0  0
 10  3  1  0  0  0  0
 11  3  1  0  0  0  0
 16  6  1  0  0  0  0
 18 19  1  0  0  0  0
 18  1  1  0  0  0  0
 19 24  1  0  0  0  0
 20 26  1  0  0  0  0
 20 19  2  0  0  0  0
 21 20  1  0  0  0  0
 22 21  2  0  0  0  0
 22 23  1  0  0  0  0
 23 18  2  0  0  0  0
 25 22  1  0  0  0  0
 26 31  1  0  0  0  0
 27 29  1  0  0  0  0
 27 26  2  0  0  0  0
 28 27  1  0  0  0  0
 29 30  2  0  0  0  0
 30 31  1  0  0  0  0
M  END
>  <minimizedAffinity>
-4.98093462

$$$$

 OpenBabel03272506193D

 31 33  0  0  0  0  0  0  0  0999 V2000
   38.3000   26.8690   32.9120 C   0  0  0  0  0  0  0  0  0  0  0  0
   39.6580   26.9000   33.5740 C   0  0  0  0  0  0  0  0  0  0  0  0
   39.5950   26.5980   35.0410 C   0  0  0  0  0  0  0  0  0  0  0  0
   38.6290   27.4610   35.8010 C   0  0  0  0  0  0  0  0  0  0  0  0
   37.3480   27.7110   35.0630 C   0  0  0  0  0  0  0  0  0  0  0  0
   37.1690   26.7830   33.8780 C   0  0  0  0  0  0  0  0  0  0  0  0
   38.1780   27.7650   32.2720 H   0  0  0  0  0  0  0  0  0  0  0  0
   40.3600   26.1940   33.1150 H   0  0  0  0  0  0  0  0  0  0  0  0
   40.0590   27.9480   33.4970 H   0  0  0  0  0  0  0  0  0  0  0  0
   40.6010   26.7620   35.4570 H   0  0  0  0  0  0  0  0  0  0  0  0
   39.3340   25.5250   35.1600 H   0  0  0  0  0  0  0  0  0  0  0  0
   38.3640   26.8990   36.7400 H   0  0  0  0  0  0  0  0  0  0  0  0
   39.0740   28.4030   36.1650 H   0  0  0  0  0  0  0  0  0  0  0  0
   36.4620   27.5590   35.7100 H   0  0  0  0  0  0  0  0  0  0  0  0
   37.3490   28.7530   34.7360 H   0  0  0  0  0  0  0  0  0  0  0  0
   37.1710   25.7500   34.3040 H   0  0  0  0  0  0  0  0  0  0  0  0
   36.2150   27.0250   33.4140 H   0  0  0  0  0  0  0  0  0  0  0  0
   38.2060   25.6850   32.0020 C   0  0  0  0  0  0  0  0  0  0  0  0
   37.4280   24.6120   32.4770 C   0  0  0  0  0  0  0  0  0  0  0  0
   37.3490   23.4890   31.6270 C   0  0  0  0  0  0  0  0  0  0  0  0
   38.0000   23.4880   30.4330 N   0  0  0  0  0  0  0  0  0  0  0  0
   38.7360   24.5560   30.0280 C   0  0  0  0  0  0  0  0  0  0  0  0
   38.8360   25.6350   30.8030 N   0  0  0  0  0  0  0  0  0  0  0  0
   36.9000   24.5550   33.3950 H   0  0  0  0  0  0  0  0  0  0  0  0
   39.2440   24.5510   29.0940 H   0  0  0  0  0  0  0  0  0  0  0  0
   36.5960   22.3530   32.0000 C   0  0  0  0  0  0  0  0  0  0  0  0
   35.5370   21.7500   31.3560 C   0  0  0  0  0  0  0  0  0  0  0  0
   35.1930   22.1710   30.4210 H   0  0  0  0  0  0  0  0  0  0  0  0
   34.9550   20.6470   31.9080 C   0  0  0  0  0  3  0  0  0  0  0  0
   35.5020   20.1960   33.1380 C   0  0  0  0  0  3  0  0  0  0  0  0
   36.8450   21.3820   33.4600 S   0  0  0  0  0  0  0  0  0  0  0  0
  1  2  1  0  0  0  0
  1  6  1  0  0  0  0
  2  3  1  0  0  0  0
  3 11  1  0  0  0  0
  3 10  1  0  0  0  0
  3  4  1  0  0  0  0
  4 13  1  0  0  0  0
  4 12  1  0  0  0  0
  5 14  1  0  0  0  0
  5  4  1  0  0  0  0
  6 16  1  0  0  0  0
  6  5  1  0  0  0  0
  7  1  1  0  0  0  0
  8  2  1  0  0  0  0
  9  2  1  0  0  0  0
 15  5  1  0  0  0  0
 17  6  1  0  0  0  0
 18 19  1  0  0  0  0
 18  1  1  0  0  0  0
 19 24  1  0  0  0  0
 20 26  1  0  0  0  0
 20 19  2  0  0  0  0
 21 20  1  0  0  0  0
 22 21  2  0  0  0  0
 22 23  1  0  0  0  0
 23 18  2  0  0  0  0
 25 22  1  0  0  0  0
 26 31  1  0  0  0  0
 27 29  1  0  0  0  0
 27 26  2  0  0  0  0
 28 27  1  0  0  0  0
 29 30  2  0  0  0  0
 30 31  1  0  0  0  0
M  END
>  <minimizedAffinity>
-4.89731646

$$$$

 OpenBabel03272506193D

 31 33  0  0  0  0  0  0  0  0999 V2000
   38.7290   24.9670   35.8600 C   0  0  0  0  0  0  0  0  0  0  0  0
   39.8680   23.9740   35.8240 C   0  0  0  0  0  0  0  0  0  0  0  0
   39.5740   22.7260   36.6020 C   0  0  0  0  0  0  0  0  0  0  0  0
   39.1500   22.9770   38.0220 C   0  0  0  0  0  0  0  0  0  0  0  0
   38.2270   24.1500   38.1680 C   0  0  0  0  0  0  0  0  0  0  0  0
   37.6630   24.6150   36.8400 C   0  0  0  0  0  0  0  0  0  0  0  0
   39.1250   25.9770   36.0850 H   0  0  0  0  0  0  0  0  0  0  0  0
   40.1290   23.6780   34.8020 H   0  0  0  0  0  0  0  0  0  0  0  0
   40.7560   24.4430   36.3300 H   0  0  0  0  0  0  0  0  0  0  0  0
   40.4930   22.1220   36.6220 H   0  0  0  0  0  0  0  0  0  0  0  0
   38.7890   22.1580   36.0580 H   0  0  0  0  0  0  0  0  0  0  0  0
   38.5800   22.0660   38.3550 H   0  0  0  0  0  0  0  0  0  0  0  0
   39.9960   23.0410   38.7280 H   0  0  0  0  0  0  0  0  0  0  0  0
   37.3540   23.9120   38.8070 H   0  0  0  0  0  0  0  0  0  0  0  0
   38.7860   24.9560   38.6490 H   0  0  0  0  0  0  0  0  0  0  0  0
   37.1060   23.7380   36.4280 H   0  0  0  0  0  0  0  0  0  0  0  0
   37.0010   25.4540   37.0420 H   0  0  0  0  0  0  0  0  0  0  0  0
   38.0900   25.0540   34.5110 C   0  0  0  0  0  0  0  0  0  0  0  0
   37.6830   26.3420   34.1120 C   0  0  0  0  0  0  0  0  0  0  0  0
   37.0680   26.4260   32.8460 C   0  0  0  0  0  0  0  0  0  0  0  0
   36.8980   25.3060   32.0930 N   0  0  0  0  0  0  0  0  0  0  0  0
   37.3130   24.0890   32.5320 C   0  0  0  0  0  0  0  0  0  0  0  0
   37.8980   23.9690   33.7220 N   0  0  0  0  0  0  0  0  0  0  0  0
   37.7870   27.2480   34.6540 H   0  0  0  0  0  0  0  0  0  0  0  0
   37.1790   23.2160   31.9400 H   0  0  0  0  0  0  0  0  0  0  0  0
   36.6180   27.6670   32.3420 C   0  0  0  0  0  0  0  0  0  0  0  0
   36.1200   28.7610   33.0170 C   0  0  0  0  0  0  0  0  0  0  0  0
   36.0420   28.7130   34.0950 H   0  0  0  0  0  0  0  0  0  0  0  0
   35.7420   29.8680   32.3160 C   0  0  0  0  0  3  0  0  0  0  0  0
   35.8960   29.8030   30.9060 C   0  0  0  0  0  3  0  0  0  0  0  0
   36.5850   28.1390   30.6360 S   0  0  0  0  0  0  0  0  0  0  0  0
  1  7  1  0  0  0  0
  1  6  1  0  0  0  0
  2  1  1  0  0  0  0
  2  9  1  0  0  0  0
  2  3  1  0  0  0  0
  3 10  1  0  0  0  0
  3  4  1  0  0  0  0
  4  5  1  0  0  0  0
  4 12  1  0  0  0  0
  4 13  1  0  0  0  0
  5 15  1  0  0  0  0
  5 14  1  0  0  0  0
  6 17  1  0  0  0  0
  6  5  1  0  0  0  0
  8  2  1  0  0  0  0
 11  3  1  0  0  0  0
 16  6  1  0  0  0  0
 18  1  1  0  0  0  0
 19 18  1  0  0  0  0
 19 24  1  0  0  0  0
 20 19  2  0  0  0  0
 21 22  2  0  0  0  0
 21 20  1  0  0  0  0
 22 23  1  0  0  0  0
 23 18  2  0  0  0  0
 25 22  1  0  0  0  0
 26 20  1  0  0  0  0
 26 27  2  0  0  0  0
 27 28  1  0  0  0  0
 29 27  1  0  0  0  0
 30 29  2  0  0  0  0
 31 30  1  0  0  0  0
 31 26  1  0  0  0  0
M  END
>  <minimizedAffinity>
-4.82068825

$$$$

 OpenBabel03272506193D

 31 33  0  0  0  0  0  0  0  0999 V2000
   38.9060   24.4950   35.7620 C   0  0  0  0  0  0  0  0  0  0  0  0
   40.1050   23.6780   36.1860 C   0  0  0  0  0  0  0  0  0  0  0  0
   39.7710   22.6610   37.2360 C   0  0  0  0  0  0  0  0  0  0  0  0
   39.0810   23.2340   38.4420 C   0  0  0  0  0  0  0  0  0  0  0  0
   38.0610   24.2780   38.1040 C   0  0  0  0  0  0  0  0  0  0  0  0
   37.7110   24.2930   36.6290 C   0  0  0  0  0  0  0  0  0  0  0  0
   39.1770   25.5690   35.7430 H   0  0  0  0  0  0  0  0  0  0  0  0
   40.5670   23.1510   35.3430 H   0  0  0  0  0  0  0  0  0  0  0  0
   40.8500   24.3730   36.6630 H   0  0  0  0  0  0  0  0  0  0  0  0
   40.7150   22.2040   37.5680 H   0  0  0  0  0  0  0  0  0  0  0  0
   39.1430   21.8750   36.7670 H   0  0  0  0  0  0  0  0  0  0  0  0
   38.5320   22.3830   38.9340 H   0  0  0  0  0  0  0  0  0  0  0  0
   39.7800   23.5900   39.2200 H   0  0  0  0  0  0  0  0  0  0  0  0
   37.1080   24.1170   38.6450 H   0  0  0  0  0  0  0  0  0  0  0  0
   38.4610   25.2470   38.4110 H   0  0  0  0  0  0  0  0  0  0  0  0
   37.3060   23.2750   36.4080 H   0  0  0  0  0  0  0  0  0  0  0  0
   36.9610   25.0670   36.4790 H   0  0  0  0  0  0  0  0  0  0  0  0
   38.5140   24.1350   34.3640 C   0  0  0  0  0  0  0  0  0  0  0  0
   37.8100   22.9240   34.2210 C   0  0  0  0  0  0  0  0  0  0  0  0
   37.4520   22.5750   32.9040 C   0  0  0  0  0  0  0  0  0  0  0  0
   37.7870   23.3880   31.8660 N   0  0  0  0  0  0  0  0  0  0  0  0
   38.4680   24.5460   32.0660 C   0  0  0  0  0  0  0  0  0  0  0  0
   38.8240   24.9100   33.2970 N   0  0  0  0  0  0  0  0  0  0  0  0
   37.5230   22.2510   34.9900 H   0  0  0  0  0  0  0  0  0  0  0  0
   38.7280   25.1790   31.2520 H   0  0  0  0  0  0  0  0  0  0  0  0
   36.7440   21.3810   32.6400 C   0  0  0  0  0  0  0  0  0  0  0  0
   35.9440   20.6310   33.4760 C   0  0  0  0  0  0  0  0  0  0  0  0
   35.8070   20.9630   34.4960 H   0  0  0  0  0  0  0  0  0  0  0  0
   35.3520   19.4970   33.0010 C   0  0  0  0  0  3  0  0  0  0  0  0
   35.6140   19.1730   31.6440 C   0  0  0  0  0  3  0  0  0  0  0  0
   36.7110   20.5180   31.0950 S   0  0  0  0  0  0  0  0  0  0  0  0
  1  2  1  0  0  0  0
  1  6  1  0  0  0  0
  2  9  1  0  0  0  0
  2  3  1  0  0  0  0
  3 10  1  0  0  0  0
  3  4  1  0  0  0  0
  4 12  1  0  0  0  0
  4 13  1  0  0  0  0
  5 15  1  0  0  0  0
  5  4  1  0  0  0  0
  5 14  1  0  0  0  0
  6  5  1  0  0  0  0
  7  1  1  0  0  0  0
  8  2  1  0  0  0  0
 11  3  1  0  0  0  0
 16  6  1  0  0  0  0
 17  6  1  0  0  0  0
 18  1  1  0  0  0  0
 19 18  1  0  0  0  0
 19 24  1  0  0  0  0
 20 19  2  0  0  0  0
 21 22  2  0  0  0  0
 21 20  1  0  0  0  0
 22 23  1  0  0  0  0
 23 18  2  0  0  0  0
 25 22  1  0  0  0  0
 26 20  1  0  0  0  0
 26 27  2  0  0  0  0
 27 28  1  0  0  0  0
 29 27  1  0  0  0  0
 30 29  2  0  0  0  0
 31 30  1  0  0  0  0
 31 26  1  0  0  0  0
M  END
>  <minimizedAffinity>
-4.78531694

$$$$

 OpenBabel03272506193D

 31 33  0  0  0  0  0  0  0  0999 V2000
   35.7190   22.0600   31.2000 C   0  0  0  0  0  0  0  0  0  0  0  0
   34.9240   21.4620   32.3380 C   0  0  0  0  0  0  0  0  0  0  0  0
   35.7220   20.4920   33.1560 C   0  0  0  0  0  0  0  0  0  0  0  0
   36.3710   19.4030   32.3500 C   0  0  0  0  0  0  0  0  0  0  0  0
   36.9400   19.8850   31.0490 C   0  0  0  0  0  0  0  0  0  0  0  0
   37.0350   21.3960   30.9800 C   0  0  0  0  0  0  0  0  0  0  0  0
   35.1200   22.0210   30.2690 H   0  0  0  0  0  0  0  0  0  0  0  0
   34.5300   22.2280   33.0170 H   0  0  0  0  0  0  0  0  0  0  0  0
   34.0790   20.8640   31.8980 H   0  0  0  0  0  0  0  0  0  0  0  0
   35.0360   20.0210   33.8770 H   0  0  0  0  0  0  0  0  0  0  0  0
   36.4880   21.0650   33.7200 H   0  0  0  0  0  0  0  0  0  0  0  0
   37.2320   19.0160   32.9630 H   0  0  0  0  0  0  0  0  0  0  0  0
   35.7240   18.5200   32.2030 H   0  0  0  0  0  0  0  0  0  0  0  0
   37.9660   19.5030   30.8790 H   0  0  0  0  0  0  0  0  0  0  0  0
   36.3040   19.5050   30.2460 H   0  0  0  0  0  0  0  0  0  0  0  0
   37.7040   21.6920   31.8250 H   0  0  0  0  0  0  0  0  0  0  0  0
   37.4660   21.6530   30.0150 H   0  0  0  0  0  0  0  0  0  0  0  0
   35.9840   23.5070   31.4720 C   0  0  0  0  0  0  0  0  0  0  0  0
   37.1000   23.7800   32.2850 C   0  0  0  0  0  0  0  0  0  0  0  0
   37.3440   25.1420   32.5540 C   0  0  0  0  0  0  0  0  0  0  0  0
   36.5260   26.0990   32.0370 N   0  0  0  0  0  0  0  0  0  0  0  0
   35.4630   25.7730   31.2570 C   0  0  0  0  0  0  0  0  0  0  0  0
   35.1990   24.4970   30.9810 N   0  0  0  0  0  0  0  0  0  0  0  0
   37.7710   23.0800   32.7150 H   0  0  0  0  0  0  0  0  0  0  0  0
   34.8250   26.5230   30.8550 H   0  0  0  0  0  0  0  0  0  0  0  0
   38.4360   25.5350   33.3590 C   0  0  0  0  0  0  0  0  0  0  0  0
   38.6810   26.7410   33.9810 C   0  0  0  0  0  0  0  0  0  0  0  0
   37.9600   27.5380   33.8660 H   0  0  0  0  0  0  0  0  0  0  0  0
   39.8170   26.8980   34.7190 C   0  0  0  0  0  3  0  0  0  0  0  0
   40.6820   25.7740   34.7900 C   0  0  0  0  0  3  0  0  0  0  0  0
   39.8240   24.5210   33.7850 S   0  0  0  0  0  0  0  0  0  0  0  0
  1 18  1  0  0  0  0
  1  2  1  0  0  0  0
  2  8  1  0  0  0  0
  2  3  1  0  0  0  0
  3 11  1  0  0  0  0
  3 10  1  0  0  0  0
  4 12  1  0  0  0  0
  4  3  1  0  0  0  0
  5  4  1  0  0  0  0
  6  5  1  0  0  0  0
  6  1  1  0  0  0  0
  6 16  1  0  0  0  0
  7  1  1  0  0  0  0
  9  2  1  0  0  0  0
 13  4  1  0  0  0  0
 14  5  1  0  0  0  0
 15  5  1  0  0  0  0
 17  6  1  0  0  0  0
 18 19  1  0  0  0  0
 19 20  2  0  0  0  0
 19 24  1  0  0  0  0
 20 26  1  0  0  0  0
 21 20  1  0  0  0  0
 22 21  2  0  0  0  0
 23 22  1  0  0  0  0
 23 18  2  0  0  0  0
 25 22  1  0  0  0  0
 26 31  1  0  0  0  0
 26 27  2  0  0  0  0
 27 29  1  0  0  0  0
 28 27  1  0  0  0  0
 29 30  2  0  0  0  0
 31 30  1  0  0  0  0
M  END
>  <minimizedAffinity>
-4.75487137

$$$$

 OpenBabel03272506193D

 31 33  0  0  0  0  0  0  0  0999 V2000
   36.9890   22.4990   31.3060 C   0  0  0  0  0  0  0  0  0  0  0  0
   35.5080   22.1980   31.3050 C   0  0  0  0  0  0  0  0  0  0  0  0
   35.1980   20.8090   31.7760 C   0  0  0  0  0  0  0  0  0  0  0  0
   35.9450   19.7340   31.0380 C   0  0  0  0  0  0  0  0  0  0  0  0
   37.3710   20.0930   30.7480 C   0  0  0  0  0  0  0  0  0  0  0  0
   37.8400   21.2980   31.5400 C   0  0  0  0  0  0  0  0  0  0  0  0
   37.2710   22.9760   30.3470 H   0  0  0  0  0  0  0  0  0  0  0  0
   34.9420   22.8990   31.9300 H   0  0  0  0  0  0  0  0  0  0  0  0
   35.1420   22.2470   30.2420 H   0  0  0  0  0  0  0  0  0  0  0  0
   34.1210   20.6400   31.6270 H   0  0  0  0  0  0  0  0  0  0  0  0
   35.4170   20.7570   32.8630 H   0  0  0  0  0  0  0  0  0  0  0  0
   35.9630   18.8320   31.7120 H   0  0  0  0  0  0  0  0  0  0  0  0
   35.4260   19.3830   30.1290 H   0  0  0  0  0  0  0  0  0  0  0  0
   38.0660   19.2680   31.0030 H   0  0  0  0  0  0  0  0  0  0  0  0
   37.4560   20.2840   29.6760 H   0  0  0  0  0  0  0  0  0  0  0  0
   37.7270   21.0130   32.6140 H   0  0  0  0  0  0  0  0  0  0  0  0
   38.8800   21.4770   31.2770 H   0  0  0  0  0  0  0  0  0  0  0  0
   37.3050   23.4910   32.3790 C   0  0  0  0  0  0  0  0  0  0  0  0
   37.9300   22.9690   33.5270 C   0  0  0  0  0  0  0  0  0  0  0  0
   38.2170   23.8990   34.5470 C   0  0  0  0  0  0  0  0  0  0  0  0
   37.8910   25.2100   34.3880 N   0  0  0  0  0  0  0  0  0  0  0  0
   37.2880   25.6560   33.2550 C   0  0  0  0  0  0  0  0  0  0  0  0
   37.0010   24.8070   32.2690 N   0  0  0  0  0  0  0  0  0  0  0  0
   38.2070   21.9600   33.7080 H   0  0  0  0  0  0  0  0  0  0  0  0
   37.0350   26.6810   33.1340 H   0  0  0  0  0  0  0  0  0  0  0  0
   38.8430   23.4880   35.7440 C   0  0  0  0  0  0  0  0  0  0  0  0
   38.4380   23.6560   37.0510 C   0  0  0  0  0  0  0  0  0  0  0  0
   37.5070   24.1740   37.2420 H   0  0  0  0  0  0  0  0  0  0  0  0
   39.2120   23.1710   38.0640 C   0  0  0  0  0  3  0  0  0  0  0  0
   40.4090   22.5110   37.6790 C   0  0  0  0  0  3  0  0  0  0  0  0
   40.3790   22.6140   35.8610 S   0  0  0  0  0  0  0  0  0  0  0  0
  1  6  1  0  0  0  0
  1 18  1  0  0  0  0
  2  1  1  0  0  0  0
  2  3  1  0  0  0  0
  2  8  1  0  0  0  0
  3 11  1  0  0  0  0
  4 12  1  0  0  0  0
  4  3  1  0  0  0  0
  5 14  1  0  0  0  0
  5  4  1  0  0  0  0
  5  6  1  0  0  0  0
  6 16  1  0  0  0  0
  7  1  1  0  0  0  0
  9  2  1  0  0  0  0
 10  3  1  0  0  0  0
 13  4  1  0  0  0  0
 15  5  1  0  0  0  0
 17  6  1  0  0  0  0
 18 19  1  0  0  0  0
 19 24  1  0  0  0  0
 19 20  2  0  0  0  0
 20 26  1  0  0  0  0
 21 20  1  0  0  0  0
 22 21  2  0  0  0  0
 23 18  2  0  0  0  0
 23 22  1  0  0  0  0
 25 22  1  0  0  0  0
 26 31  1  0  0  0  0
 26 27  2  0  0  0  0
 27 28  1  0  0  0  0
 27 29  1  0  0  0  0
 30 29  2  0  0  0  0
 31 30  1  0  0  0  0
M  END
>  <minimizedAffinity>
-4.74251318

$$$$

 OpenBabel03272506193D

 31 33  0  0  0  0  0  0  0  0999 V2000
   41.5410   22.4740   37.2240 C   0  0  0  0  0  0  0  0  0  0  0  0
   42.2030   23.4840   36.3150 C   0  0  0  0  0  0  0  0  0  0  0  0
   42.8190   22.8550   35.1010 C   0  0  0  0  0  0  0  0  0  0  0  0
   43.7700   21.7340   35.4110 C   0  0  0  0  0  0  0  0  0  0  0  0
   43.2990   20.8430   36.5210 C   0  0  0  0  0  0  0  0  0  0  0  0
   41.8370   21.0600   36.8590 C   0  0  0  0  0  0  0  0  0  0  0  0
   41.8460   22.6620   38.2720 H   0  0  0  0  0  0  0  0  0  0  0  0
   41.5050   24.2570   35.9740 H   0  0  0  0  0  0  0  0  0  0  0  0
   43.0560   23.9540   36.8780 H   0  0  0  0  0  0  0  0  0  0  0  0
   43.3770   23.6390   34.5670 H   0  0  0  0  0  0  0  0  0  0  0  0
   41.9980   22.4960   34.4450 H   0  0  0  0  0  0  0  0  0  0  0  0
   43.8350   21.0990   34.4840 H   0  0  0  0  0  0  0  0  0  0  0  0
   44.8080   22.0720   35.5800 H   0  0  0  0  0  0  0  0  0  0  0  0
   43.4000   19.7710   36.2620 H   0  0  0  0  0  0  0  0  0  0  0  0
   43.9260   21.0380   37.3940 H   0  0  0  0  0  0  0  0  0  0  0  0
   41.2760   20.8320   35.9200 H   0  0  0  0  0  0  0  0  0  0  0  0
   41.5810   20.3700   37.6590 H   0  0  0  0  0  0  0  0  0  0  0  0
   40.0560   22.6490   37.1800 C   0  0  0  0  0  0  0  0  0  0  0  0
   39.4090   22.0900   36.0610 C   0  0  0  0  0  0  0  0  0  0  0  0
   38.0110   22.2650   36.0090 C   0  0  0  0  0  0  0  0  0  0  0  0
   37.3700   22.9390   37.0020 N   0  0  0  0  0  0  0  0  0  0  0  0
   38.0490   23.4560   38.0590 C   0  0  0  0  0  0  0  0  0  0  0  0
   39.3700   23.3120   38.1430 N   0  0  0  0  0  0  0  0  0  0  0  0
   39.8550   21.5580   35.2590 H   0  0  0  0  0  0  0  0  0  0  0  0
   37.5440   23.9830   38.8320 H   0  0  0  0  0  0  0  0  0  0  0  0
   37.2580   21.7470   34.9330 C   0  0  0  0  0  0  0  0  0  0  0  0
   36.1300   20.9540   34.9500 C   0  0  0  0  0  0  0  0  0  0  0  0
   35.7210   20.6570   35.9060 H   0  0  0  0  0  0  0  0  0  0  0  0
   35.5620   20.5670   33.7720 C   0  0  0  0  0  3  0  0  0  0  0  0
   36.1970   21.0250   32.5880 C   0  0  0  0  0  3  0  0  0  0  0  0
   37.5980   22.0040   33.2140 S   0  0  0  0  0  0  0  0  0  0  0  0
  1  7  1  0  0  0  0
  2  9  1  0  0  0  0
  2  1  1  0  0  0  0
  3  4  1  0  0  0  0
  3  2  1  0  0  0  0
  4 13  1  0  0  0  0
  4  5  1  0  0  0  0
  5  6  1  0  0  0  0
  5 15  1  0  0  0  0
  6  1  1  0  0  0  0
  6 17  1  0  0  0  0
  8  2  1  0  0  0  0
 10  3  1  0  0  0  0
 11  3  1  0  0  0  0
 12  4  1  0  0  0  0
 14  5  1  0  0  0  0
 16  6  1  0  0  0  0
 18  1  1  0  0  0  0
 18 23  1  0  0  0  0
 19 18  2  0  0  0  0
 20 19  1  0  0  0  0
 20 21  2  0  0  0  0
 21 22  1  0  0  0  0
 22 23  2  0  0  0  0
 22 25  1  0  0  0  0
 24 19  1  0  0  0  0
 26 27  2  0  0  0  0
 26 20  1  0  0  0  0
 27 28  1  0  0  0  0
 29 27  1  0  0  0  0
 30 31  1  0  0  0  0
 30 29  2  0  0  0  0
 31 26  1  0  0  0  0
M  END
>  <minimizedAffinity>
-4.7028079

$$$$

 OpenBabel03272506193D

 31 33  0  0  0  0  0  0  0  0999 V2000
   41.4030   22.7770   36.7340 C   0  0  0  0  0  0  0  0  0  0  0  0
   41.8440   22.7660   35.2880 C   0  0  0  0  0  0  0  0  0  0  0  0
   41.9710   21.3800   34.7310 C   0  0  0  0  0  0  0  0  0  0  0  0
   42.8470   20.4720   35.5470 C   0  0  0  0  0  0  0  0  0  0  0  0
   42.6610   20.6380   37.0260 C   0  0  0  0  0  0  0  0  0  0  0  0
   41.4150   21.4300   37.3700 C   0  0  0  0  0  0  0  0  0  0  0  0
   42.0440   23.4700   37.3130 H   0  0  0  0  0  0  0  0  0  0  0  0
   41.1600   23.3270   34.6410 H   0  0  0  0  0  0  0  0  0  0  0  0
   42.8770   23.2090   35.2360 H   0  0  0  0  0  0  0  0  0  0  0  0
   42.4100   21.4650   33.7250 H   0  0  0  0  0  0  0  0  0  0  0  0
   40.9510   20.9530   34.6370 H   0  0  0  0  0  0  0  0  0  0  0  0
   42.5440   19.4180   35.2930 H   0  0  0  0  0  0  0  0  0  0  0  0
   43.9140   20.5230   35.2680 H   0  0  0  0  0  0  0  0  0  0  0  0
   42.5600   19.6630   37.5420 H   0  0  0  0  0  0  0  0  0  0  0  0
   43.5510   21.1350   37.4200 H   0  0  0  0  0  0  0  0  0  0  0  0
   40.5630   20.8490   36.9390 H   0  0  0  0  0  0  0  0  0  0  0  0
   41.3550   21.4890   38.4540 H   0  0  0  0  0  0  0  0  0  0  0  0
   40.0090   23.3100   36.8340 C   0  0  0  0  0  0  0  0  0  0  0  0
   39.6180   24.1920   35.8090 C   0  0  0  0  0  0  0  0  0  0  0  0
   38.3090   24.7060   35.9080 C   0  0  0  0  0  0  0  0  0  0  0  0
   37.5090   24.3450   36.9480 N   0  0  0  0  0  0  0  0  0  0  0  0
   37.9430   23.4870   37.9090 C   0  0  0  0  0  0  0  0  0  0  0  0
   39.1730   22.9800   37.8500 N   0  0  0  0  0  0  0  0  0  0  0  0
   40.1950   24.5100   34.9780 H   0  0  0  0  0  0  0  0  0  0  0  0
   37.3150   23.2070   38.7190 H   0  0  0  0  0  0  0  0  0  0  0  0
   37.8090   25.6010   34.9360 C   0  0  0  0  0  0  0  0  0  0  0  0
   37.3520   26.8930   35.0840 C   0  0  0  0  0  0  0  0  0  0  0  0
   37.3560   27.3340   36.0710 H   0  0  0  0  0  0  0  0  0  0  0  0
   36.9080   27.5780   33.9910 C   0  0  0  0  0  3  0  0  0  0  0  0
   36.9550   26.8850   32.7530 C   0  0  0  0  0  3  0  0  0  0  0  0
   37.6400   25.2600   33.2070 S   0  0  0  0  0  0  0  0  0  0  0  0
  1 18  1  0  0  0  0
  1  7  1  0  0  0  0
  1  6  1  0  0  0  0
  2  1  1  0  0  0  0
  3  2  1  0  0  0  0
  3  4  1  0  0  0  0
  4  5  1  0  0  0  0
  5  6  1  0  0  0  0
  5 15  1  0  0  0  0
  5 14  1  0  0  0  0
  6 17  1  0  0  0  0
  8  2  1  0  0  0  0
  9  2  1  0  0  0  0
 10  3  1  0  0  0  0
 11  3  1  0  0  0  0
 12  4  1  0  0  0  0
 13  4  1  0  0  0  0
 16  6  1  0  0  0  0
 18 23  1  0  0  0  0
 19 20  1  0  0  0  0
 19 18  2  0  0  0  0
 20 21  2  0  0  0  0
 21 22  1  0  0  0  0
 22 25  1  0  0  0  0
 23 22  2  0  0  0  0
 24 19  1  0  0  0  0
 26 27  2  0  0  0  0
 26 20  1  0  0  0  0
 27 28  1  0  0  0  0
 29 27  1  0  0  0  0
 30 31  1  0  0  0  0
 30 29  2  0  0  0  0
 31 26  1  0  0  0  0
M  END
>  <minimizedAffinity>
-4.68881226

$$$$
