
 OpenBabel03272506183D

 31 33  0  0  0  0  0  0  0  0999 V2000
   35.4730   30.2940   49.8720 C   0  0  0  0  0  0  0  0  0  0  0  0
   36.4380   31.1880   49.1280 C   0  0  0  0  0  0  0  0  0  0  0  0
   37.8690   30.7800   49.3150 C   0  0  0  0  0  0  0  0  0  0  0  0
   38.2840   30.6520   50.7530 C   0  0  0  0  0  0  0  0  0  0  0  0
   37.2380   30.0200   51.6210 C   0  0  0  0  0  0  0  0  0  0  0  0
   36.1400   29.3530   50.8150 C   0  0  0  0  0  0  0  0  0  0  0  0
   34.7390   30.9160   50.4210 H   0  0  0  0  0  0  0  0  0  0  0  0
   36.2340   31.2140   48.0510 H   0  0  0  0  0  0  0  0  0  0  0  0
   36.3600   32.2230   49.5620 H   0  0  0  0  0  0  0  0  0  0  0  0
   38.4980   31.5500   48.8440 H   0  0  0  0  0  0  0  0  0  0  0  0
   38.0250   29.8200   48.7790 H   0  0  0  0  0  0  0  0  0  0  0  0
   39.1810   29.9720   50.7710 H   0  0  0  0  0  0  0  0  0  0  0  0
   38.6520   31.5980   51.1900 H   0  0  0  0  0  0  0  0  0  0  0  0
   37.6620   29.2340   52.2750 H   0  0  0  0  0  0  0  0  0  0  0  0
   36.8200   30.8000   52.2620 H   0  0  0  0  0  0  0  0  0  0  0  0
   36.6530   28.5720   50.2020 H   0  0  0  0  0  0  0  0  0  0  0  0
   35.4380   28.9150   51.5210 H   0  0  0  0  0  0  0  0  0  0  0  0
   34.6870   29.4740   48.8990 C   0  0  0  0  0  0  0  0  0  0  0  0
   34.3290   30.1250   47.7030 C   0  0  0  0  0  0  0  0  0  0  0  0
   33.5770   29.3600   46.7890 C   0  0  0  0  0  0  0  0  0  0  0  0
   33.2410   28.0760   47.0870 N   0  0  0  0  0  0  0  0  0  0  0  0
   33.6160   27.5000   48.2590 C   0  0  0  0  0  0  0  0  0  0  0  0
   34.3270   28.1920   49.1480 N   0  0  0  0  0  0  0  0  0  0  0  0
   34.5610   31.1200   47.4170 H   0  0  0  0  0  0  0  0  0  0  0  0
   33.3510   26.4970   48.4880 H   0  0  0  0  0  0  0  0  0  0  0  0
   33.1620   29.9100   45.5560 C   0  0  0  0  0  0  0  0  0  0  0  0
   33.5820   29.6150   44.2760 C   0  0  0  0  0  0  0  0  0  0  0  0
   34.3420   28.8560   44.1420 H   0  0  0  0  0  0  0  0  0  0  0  0
   33.0350   30.2810   43.2190 C   0  0  0  0  0  3  0  0  0  0  0  0
   32.0490   31.2520   43.5300 C   0  0  0  0  0  3  0  0  0  0  0  0
   31.9410   31.1740   45.3460 S   0  0  0  0  0  0  0  0  0  0  0  0
  1  7  1  0  0  0  0
  1  6  1  0  0  0  0
  2  3  1  0  0  0  0
  2  9  1  0  0  0  0
  2  1  1  0  0  0  0
  3  4  1  0  0  0  0
  4 12  1  0  0  0  0
  4 13  1  0  0  0  0
  4  5  1  0  0  0  0
  5 15  1  0  0  0  0
  5 14  1  0  0  0  0
  6 17  1  0  0  0  0
  6  5  1  0  0  0  0
  8  2  1  0  0  0  0
 10  3  1  0  0  0  0
 11  3  1  0  0  0  0
 16  6  1  0  0  0  0
 18 23  1  0  0  0  0
 18  1  1  0  0  0  0
 19 18  2  0  0  0  0
 20 21  2  0  0  0  0
 20 19  1  0  0  0  0
 21 22  1  0  0  0  0
 22 25  1  0  0  0  0
 22 23  2  0  0  0  0
 24 19  1  0  0  0  0
 26 20  1  0  0  0  0
 27 26  2  0  0  0  0
 28 27  1  0  0  0  0
 29 30  2  0  0  0  0
 29 27  1  0  0  0  0
 30 31  1  0  0  0  0
 31 26  1  0  0  0  0
M  END
>  <minimizedAffinity>
-5.14596319

>  <minimizedRMSD>
0.312424719

$$$$
