
 OpenBabel03272509383D

 27 29  0  0  1  0  0  0  0  0999 V2000
   36.0730   29.6030   49.0070 C   0  0  0  0  0  0  0  0  0  0  0  0
   36.0690   29.6500   50.4240 C   0  0  0  0  0  0  0  0  0  0  0  0
   37.0350   30.4030   51.1100 C   0  0  0  0  0  0  0  0  0  0  0  0
   37.9930   31.1020   50.4060 C   0  0  0  0  0  0  0  0  0  0  0  0
   37.9510   31.0230   49.0430 C   0  0  0  0  0  0  0  0  0  0  0  0
   37.0140   30.2870   48.3200 C   0  0  0  0  0  0  0  0  0  0  0  0
   35.2950   29.0820   50.9220 H   0  0  0  0  0  0  0  0  0  0  0  0
   36.8920   30.3340   52.1630 H   0  0  0  0  0  0  0  0  0  0  0  0
   38.6980   31.6590   51.0010 H   0  0  0  0  0  0  0  0  0  0  0  0
   38.7710   31.6310   48.6210 H   0  0  0  0  0  0  0  0  0  0  0  0
   37.2310   30.4510   46.9100 C   0  0  0  0  0  0  0  0  0  0  0  0
   38.6660   30.5610   46.5030 C   0  0  0  0  0  0  0  0  0  0  0  0
   39.5520   30.6230   47.1680 H   0  0  0  0  0  0  0  0  0  0  0  0
   39.0740   30.5940   45.2270 C   0  0  0  0  0  3  0  0  0  0  0  0
   38.0240   30.5190   44.2800 C   0  0  0  0  0  3  0  0  0  0  0  0
   36.5950   30.4090   45.1980 S   0  0  0  0  0  0  0  0  0  0  0  0
   35.0420   28.7910   48.3620 C   0  0  1  0  0  3  0  0  0  0  0  0
   34.9340   27.5930   48.8500 O   0  0  0  0  0  1  0  0  0  0  0  0
   32.9100   31.0300   46.4710 C   0  0  0  0  0  0  0  0  0  0  0  0
   32.5570   30.2950   45.3510 C   0  0  0  0  0  0  0  0  0  0  0  0
   33.0520   28.9930   45.2340 C   0  0  0  0  0  0  0  0  0  0  0  0
   33.8690   28.4760   46.2190 N   0  0  0  0  0  0  0  0  0  0  0  0
   34.1790   29.2210   47.2730 C   0  0  0  0  0  0  0  0  0  0  0  0
   33.6980   30.4830   47.3860 N   0  0  0  0  0  0  0  0  0  0  0  0
   32.4850   32.0220   46.4820 H   0  0  0  0  0  0  0  0  0  0  0  0
   31.9400   30.5810   44.5300 H   0  0  0  0  0  0  0  0  0  0  0  0
   32.8220   28.3450   44.3830 H   0  0  0  0  0  0  0  0  0  0  0  0
  1  2  1  0  0  0  0
  2  7  1  0  0  0  0
  2  3  2  0  0  0  0
  3  8  1  0  0  0  0
  4  9  1  0  0  0  0
  4  3  1  0  0  0  0
  5  4  2  0  0  0  0
  6  1  2  0  0  0  0
  6  5  1  0  0  0  0
 10  5  1  0  0  0  0
 11  6  1  0  0  0  0
 12 11  2  0  0  0  0
 12 13  1  0  0  0  0
 14 12  1  0  0  0  0
 15 16  1  0  0  0  0
 15 14  2  0  0  0  0
 16 11  1  0  0  0  0
 17 18  1  1  0  0  0
 17  1  1  0  0  0  0
 19 25  1  0  0  0  0
 19 24  1  0  0  0  0
 20 19  2  0  0  0  0
 21 20  1  0  0  0  0
 21 22  2  0  0  0  0
 22 23  1  0  0  0  0
 23 24  2  0  0  0  0
 23 17  1  0  0  0  0
 26 20  1  0  0  0  0
 27 21  1  0  0  0  0
M  END
>  <minimizedAffinity>
-4.97544765

>  <minimizedRMSD>
0.46196714

$$$$
