
 OpenBabel03272507203D

 27 29  0  0  1  0  0  0  0  0999 V2000
   37.3220   31.2560   49.4120 C   0  0  0  0  0  0  0  0  0  0  0  0
   38.2820   32.2600   49.4720 C   0  0  0  0  0  0  0  0  0  0  0  0
   38.7860   32.6740   48.2430 C   0  0  0  0  0  0  0  0  0  0  0  0
   38.3530   32.1180   47.0780 N   0  0  0  0  0  0  0  0  0  0  0  0
   37.4110   31.1390   47.0620 C   0  0  0  0  0  0  0  0  0  0  0  0
   36.8900   30.7020   48.2420 N   0  0  0  0  0  0  0  0  0  0  0  0
   38.6160   32.6890   50.3860 H   0  0  0  0  0  0  0  0  0  0  0  0
   39.5390   33.4500   48.1690 H   0  0  0  0  0  0  0  0  0  0  0  0
   36.7520   30.7970   50.7160 C   0  0  1  0  0  0  0  0  0  0  0  0
   36.0400   29.5260   50.8420 C   0  0  2  0  0  0  0  0  0  0  0  0
   37.4830   29.5440   51.2480 C   0  0  0  0  0  0  0  0  0  0  0  0
   36.6820   31.6290   51.4710 H   0  0  0  0  0  0  0  0  0  0  0  0
   35.2080   29.5660   51.5920 H   0  0  0  0  0  0  0  0  0  0  0  0
   37.6250   29.5090   52.3640 H   0  0  0  0  0  0  0  0  0  0  0  0
   38.2420   29.0640   50.6300 H   0  0  0  0  0  0  0  0  0  0  0  0
   35.6790   28.8840   49.6650 O   0  0  0  0  0  0  0  0  0  0  0  0
   34.4720   28.4240   49.2590 C   0  0  0  0  0  0  0  0  0  0  0  0
   34.3490   27.4400   48.5020 O   0  0  0  0  0  0  0  0  0  0  0  0
   33.4850   29.2310   49.8300 N   0  0  0  0  0  0  0  0  0  0  0  0
   33.2030   30.0920   49.3520 H   0  0  0  0  0  0  0  0  0  0  0  0
   33.2300   28.7110   50.7160 H   0  0  0  0  0  0  0  0  0  0  0  0
   37.0470   30.6460   45.7780 C   0  0  0  0  0  0  0  0  0  0  0  0
   35.8900   30.2270   45.2170 C   0  0  0  0  0  0  0  0  0  0  0  0
   35.0150   30.2680   45.8860 H   0  0  0  0  0  0  0  0  0  0  0  0
   35.8280   29.7950   43.9340 C   0  0  0  0  0  3  0  0  0  0  0  0
   37.0180   29.8070   43.2280 C   0  0  0  0  0  3  0  0  0  0  0  0
   38.2300   30.4770   44.5250 S   0  0  0  0  0  0  0  0  0  0  0  0
  1  2  1  0  0  0  0
  1  9  1  0  0  0  0
  2  7  1  0  0  0  0
  3  2  2  0  0  0  0
  4  3  1  0  0  0  0
  5  4  2  0  0  0  0
  5  6  1  0  0  0  0
  6  1  2  0  0  0  0
  8  3  1  0  0  0  0
  9 10  1  0  0  0  0
  9 11  1  0  0  0  0
  9 12  1  1  0  0  0
 10 11  1  0  0  0  0
 10 13  1  1  0  0  0
 11 14  1  0  0  0  0
 15 11  1  0  0  0  0
 16 10  1  0  0  0  0
 17 16  1  0  0  0  0
 17 19  1  0  0  0  0
 18 17  2  0  0  0  0
 19 21  1  0  0  0  0
 20 19  1  0  0  0  0
 22  5  1  0  0  0  0
 23 22  2  0  0  0  0
 23 24  1  0  0  0  0
 25 23  1  0  0  0  0
 26 25  2  0  0  0  0
 26 27  1  0  0  0  0
 27 22  1  0  0  0  0
M  END
>  <minimizedAffinity>
-5.26059532

>  <minimizedRMSD>
0.358704567

$$$$
