
 OpenBabel03272509393D

 27 29  0  0  1  0  0  0  0  0999 V2000
   37.6910   25.1910   33.4670 C   0  0  0  0  0  0  0  0  0  0  0  0
   37.1180   26.2060   32.6590 C   0  0  0  0  0  0  0  0  0  0  0  0
   36.7890   27.4520   33.2160 C   0  0  0  0  0  0  0  0  0  0  0  0
   37.0240   27.6940   34.5530 C   0  0  0  0  0  0  0  0  0  0  0  0
   37.5780   26.6820   35.2860 C   0  0  0  0  0  0  0  0  0  0  0  0
   37.9180   25.4300   34.7770 C   0  0  0  0  0  0  0  0  0  0  0  0
   36.9560   25.9590   31.6190 H   0  0  0  0  0  0  0  0  0  0  0  0
   36.3720   28.0980   32.4800 H   0  0  0  0  0  0  0  0  0  0  0  0
   36.7490   28.6730   34.9080 H   0  0  0  0  0  0  0  0  0  0  0  0
   37.7090   27.0210   36.3290 H   0  0  0  0  0  0  0  0  0  0  0  0
   38.5110   24.6190   35.8030 C   0  0  0  0  0  0  0  0  0  0  0  0
   37.8200   24.6770   37.1280 C   0  0  0  0  0  0  0  0  0  0  0  0
   36.9770   25.3360   37.4190 H   0  0  0  0  0  0  0  0  0  0  0  0
   38.1490   23.9010   38.1700 C   0  0  0  0  0  3  0  0  0  0  0  0
   39.2180   23.0090   37.9150 C   0  0  0  0  0  3  0  0  0  0  0  0
   39.6750   23.3030   36.3020 S   0  0  0  0  0  0  0  0  0  0  0  0
   37.9990   23.9160   32.8200 C   0  0  1  0  0  3  0  0  0  0  0  0
   39.2120   23.8380   32.3630 O   0  0  0  0  0  1  0  0  0  0  0  0
   35.5240   21.8150   31.2120 C   0  0  0  0  0  0  0  0  0  0  0  0
   35.3160   20.7840   32.1150 C   0  0  0  0  0  0  0  0  0  0  0  0
   36.0340   20.8050   33.3150 C   0  0  0  0  0  0  0  0  0  0  0  0
   36.9210   21.8320   33.5690 N   0  0  0  0  0  0  0  0  0  0  0  0
   37.0850   22.7960   32.6700 C   0  0  0  0  0  0  0  0  0  0  0  0
   36.3870   22.7750   31.5080 N   0  0  0  0  0  0  0  0  0  0  0  0
   34.9300   21.7210   30.3150 H   0  0  0  0  0  0  0  0  0  0  0  0
   34.6670   19.9430   32.0340 H   0  0  0  0  0  0  0  0  0  0  0  0
   35.9310   20.0320   34.0820 H   0  0  0  0  0  0  0  0  0  0  0  0
  1  6  1  0  0  0  0
  2  3  1  0  0  0  0
  2  1  2  0  0  0  0
  3  4  2  0  0  0  0
  4  9  1  0  0  0  0
  4  5  1  0  0  0  0
  5 10  1  0  0  0  0
  6  5  2  0  0  0  0
  6 11  1  0  0  0  0
  7  2  1  0  0  0  0
  8  3  1  0  0  0  0
 11 16  1  0  0  0  0
 11 12  2  0  0  0  0
 12 13  1  0  0  0  0
 12 14  1  0  0  0  0
 15 14  2  0  0  0  0
 16 15  1  0  0  0  0
 17 18  1  1  0  0  0
 17  1  1  0  0  0  0
 19 24  2  0  0  0  0
 19 20  1  0  0  0  0
 20 21  2  0  0  0  0
 21 22  1  0  0  0  0
 21 27  1  0  0  0  0
 23 17  1  0  0  0  0
 23 22  2  0  0  0  0
 24 23  1  0  0  0  0
 25 19  1  0  0  0  0
 26 20  1  0  0  0  0
M  END
>  <minimizedAffinity>
-5.13229799

$$$$

 OpenBabel03272509393D

 27 29  0  0  1  0  0  0  0  0999 V2000
   38.8180   23.7890   36.0210 C   0  0  0  0  0  0  0  0  0  0  0  0
   37.8400   24.4530   36.8040 C   0  0  0  0  0  0  0  0  0  0  0  0
   37.8460   24.3220   38.2030 C   0  0  0  0  0  0  0  0  0  0  0  0
   38.8060   23.5480   38.8190 C   0  0  0  0  0  0  0  0  0  0  0  0
   39.7230   22.9300   38.0180 C   0  0  0  0  0  0  0  0  0  0  0  0
   39.7550   23.0280   36.6280 C   0  0  0  0  0  0  0  0  0  0  0  0
   37.1140   25.0460   36.2660 H   0  0  0  0  0  0  0  0  0  0  0  0
   37.0530   24.8820   38.6390 H   0  0  0  0  0  0  0  0  0  0  0  0
   38.7480   23.4970   39.8940 H   0  0  0  0  0  0  0  0  0  0  0  0
   40.4230   22.3520   38.6480 H   0  0  0  0  0  0  0  0  0  0  0  0
   40.8670   22.2890   36.1000 C   0  0  0  0  0  0  0  0  0  0  0  0
   41.6150   21.4750   37.1080 C   0  0  0  0  0  0  0  0  0  0  0  0
   41.4620   21.4560   38.2060 H   0  0  0  0  0  0  0  0  0  0  0  0
   42.6020   20.6260   36.7900 C   0  0  0  0  0  3  0  0  0  0  0  0
   42.8870   20.5610   35.4040 C   0  0  0  0  0  3  0  0  0  0  0  0
   41.8010   21.6450   34.6690 S   0  0  0  0  0  0  0  0  0  0  0  0
   38.7440   23.9640   34.5710 C   0  0  1  0  0  3  0  0  0  0  0  0
   39.5570   24.8640   34.1080 O   0  0  0  0  0  1  0  0  0  0  0  0
   36.5600   23.4370   31.7280 C   0  0  0  0  0  0  0  0  0  0  0  0
   36.2180   22.0960   31.8080 C   0  0  0  0  0  0  0  0  0  0  0  0
   36.7400   21.3450   32.8650 C   0  0  0  0  0  0  0  0  0  0  0  0
   37.5710   21.9430   33.7910 N   0  0  0  0  0  0  0  0  0  0  0  0
   37.8690   23.2320   33.6700 C   0  0  0  0  0  0  0  0  0  0  0  0
   37.3620   23.9590   32.6440 N   0  0  0  0  0  0  0  0  0  0  0  0
   36.1150   23.9400   30.8830 H   0  0  0  0  0  0  0  0  0  0  0  0
   35.5930   21.5250   31.1610 H   0  0  0  0  0  0  0  0  0  0  0  0
   36.5210   20.2820   33.0040 H   0  0  0  0  0  0  0  0  0  0  0  0
  1  6  2  0  0  0  0
  1  2  1  0  0  0  0
  2  3  2  0  0  0  0
  3  8  1  0  0  0  0
  3  4  1  0  0  0  0
  4  9  1  0  0  0  0
  5 10  1  0  0  0  0
  5  4  2  0  0  0  0
  6  5  1  0  0  0  0
  7  2  1  0  0  0  0
 11  6  1  0  0  0  0
 11 12  2  0  0  0  0
 12 13  1  0  0  0  0
 14 12  1  0  0  0  0
 15 14  2  0  0  0  0
 16 15  1  0  0  0  0
 16 11  1  0  0  0  0
 17 18  1  6  0  0  0
 17  1  1  0  0  0  0
 19 20  2  0  0  0  0
 19 24  1  0  0  0  0
 20 21  1  0  0  0  0
 21 27  1  0  0  0  0
 21 22  2  0  0  0  0
 23 22  1  0  0  0  0
 23 17  1  0  0  0  0
 24 23  2  0  0  0  0
 25 19  1  0  0  0  0
 26 20  1  0  0  0  0
M  END
>  <minimizedAffinity>
-5.11101198

$$$$

 OpenBabel03272509393D

 27 29  0  0  1  0  0  0  0  0999 V2000
   37.1270   24.6980   32.4260 C   0  0  0  0  0  0  0  0  0  0  0  0
   36.7750   26.0340   32.1080 C   0  0  0  0  0  0  0  0  0  0  0  0
   35.6560   26.2980   31.3010 C   0  0  0  0  0  0  0  0  0  0  0  0
   34.8940   25.2560   30.8160 C   0  0  0  0  0  0  0  0  0  0  0  0
   35.2780   23.9890   31.1520 C   0  0  0  0  0  0  0  0  0  0  0  0
   36.3800   23.6790   31.9460 C   0  0  0  0  0  0  0  0  0  0  0  0
   37.4090   26.8090   32.5170 H   0  0  0  0  0  0  0  0  0  0  0  0
   35.5300   27.3450   31.1600 H   0  0  0  0  0  0  0  0  0  0  0  0
   34.0510   25.5370   30.2070 H   0  0  0  0  0  0  0  0  0  0  0  0
   34.5770   23.2660   30.6970 H   0  0  0  0  0  0  0  0  0  0  0  0
   36.4760   22.2590   32.1360 C   0  0  0  0  0  0  0  0  0  0  0  0
   35.1640   21.5530   32.2680 C   0  0  0  0  0  0  0  0  0  0  0  0
   34.1560   22.0110   32.3280 H   0  0  0  0  0  0  0  0  0  0  0  0
   35.0420   20.2200   32.3280 C   0  0  0  0  0  3  0  0  0  0  0  0
   36.2710   19.5210   32.2560 C   0  0  0  0  0  3  0  0  0  0  0  0
   37.4670   20.7250   32.1150 S   0  0  0  0  0  0  0  0  0  0  0  0
   38.3090   24.4990   33.2640 C   0  0  1  0  0  3  0  0  0  0  0  0
   39.4320   24.6080   32.6220 O   0  0  0  0  0  1  0  0  0  0  0  0
   38.6850   22.5130   36.2710 C   0  0  0  0  0  0  0  0  0  0  0  0
   38.3970   23.3970   37.2990 C   0  0  0  0  0  0  0  0  0  0  0  0
   38.0570   24.7110   36.9620 C   0  0  0  0  0  0  0  0  0  0  0  0
   38.0170   25.0940   35.6370 N   0  0  0  0  0  0  0  0  0  0  0  0
   38.3020   24.2080   34.6880 C   0  0  0  0  0  0  0  0  0  0  0  0
   38.6310   22.9350   35.0160 N   0  0  0  0  0  0  0  0  0  0  0  0
   38.9360   21.5230   36.6190 H   0  0  0  0  0  0  0  0  0  0  0  0
   38.3950   23.2240   38.3500 H   0  0  0  0  0  0  0  0  0  0  0  0
   37.8150   25.4720   37.7100 H   0  0  0  0  0  0  0  0  0  0  0  0
  1 17  1  0  0  0  0
  2  1  1  0  0  0  0
  2  7  1  0  0  0  0
  3  2  2  0  0  0  0
  4  5  2  0  0  0  0
  4  3  1  0  0  0  0
  5  6  1  0  0  0  0
  6 11  1  0  0  0  0
  6  1  2  0  0  0  0
  8  3  1  0  0  0  0
  9  4  1  0  0  0  0
 10  5  1  0  0  0  0
 11 12  2  0  0  0  0
 12 14  1  0  0  0  0
 12 13  1  0  0  0  0
 15 14  2  0  0  0  0
 16 11  1  0  0  0  0
 16 15  1  0  0  0  0
 17 18  1  1  0  0  0
 17 23  1  0  0  0  0
 19 25  1  0  0  0  0
 19 20  1  0  0  0  0
 20 26  1  0  0  0  0
 21 20  2  0  0  0  0
 21 27  1  0  0  0  0
 22 21  1  0  0  0  0
 23 24  1  0  0  0  0
 23 22  2  0  0  0  0
 24 19  2  0  0  0  0
M  END
>  <minimizedAffinity>
-5.08244658

$$$$

 OpenBabel03272509393D

 27 29  0  0  1  0  0  0  0  0999 V2000
   39.1410   26.3130   34.0540 C   0  0  0  0  0  0  0  0  0  0  0  0
   40.3590   27.0060   34.2690 C   0  0  0  0  0  0  0  0  0  0  0  0
   41.1620   27.3770   33.1780 C   0  0  0  0  0  0  0  0  0  0  0  0
   40.7680   27.0680   31.8940 C   0  0  0  0  0  0  0  0  0  0  0  0
   39.5870   26.3990   31.7440 C   0  0  0  0  0  0  0  0  0  0  0  0
   38.7590   26.0090   32.7950 C   0  0  0  0  0  0  0  0  0  0  0  0
   40.6160   27.2210   35.2970 H   0  0  0  0  0  0  0  0  0  0  0  0
   42.0350   27.8900   33.5080 H   0  0  0  0  0  0  0  0  0  0  0  0
   41.4350   27.3870   31.1100 H   0  0  0  0  0  0  0  0  0  0  0  0
   39.4040   26.2250   30.6680 H   0  0  0  0  0  0  0  0  0  0  0  0
   37.5810   25.3620   32.2890 C   0  0  0  0  0  0  0  0  0  0  0  0
   36.5510   26.2860   31.7220 C   0  0  0  0  0  0  0  0  0  0  0  0
   36.5610   27.3950   31.7360 H   0  0  0  0  0  0  0  0  0  0  0  0
   35.4440   25.8670   31.0940 C   0  0  0  0  0  3  0  0  0  0  0  0
   35.3230   24.4590   31.0090 C   0  0  0  0  0  3  0  0  0  0  0  0
   36.7080   23.8400   31.7810 S   0  0  0  0  0  0  0  0  0  0  0  0
   38.3600   25.9510   35.2380 C   0  0  1  0  0  3  0  0  0  0  0  0
   37.2940   26.6720   35.4040 O   0  0  0  0  0  1  0  0  0  0  0  0
   38.1410   24.0110   38.2900 C   0  0  0  0  0  0  0  0  0  0  0  0
   39.0770   23.0030   38.1180 C   0  0  0  0  0  0  0  0  0  0  0  0
   39.8130   22.9830   36.9300 C   0  0  0  0  0  0  0  0  0  0  0  0
   39.5960   23.9490   35.9690 N   0  0  0  0  0  0  0  0  0  0  0  0
   38.6870   24.8940   36.1810 C   0  0  0  0  0  0  0  0  0  0  0  0
   37.9750   24.9130   37.3340 N   0  0  0  0  0  0  0  0  0  0  0  0
   37.6200   23.9510   39.2330 H   0  0  0  0  0  0  0  0  0  0  0  0
   39.3320   22.2070   38.7790 H   0  0  0  0  0  0  0  0  0  0  0  0
   40.5700   22.2240   36.7130 H   0  0  0  0  0  0  0  0  0  0  0  0
  1  2  1  0  0  0  0
  1 17  1  0  0  0  0
  2  7  1  0  0  0  0
  3  8  1  0  0  0  0
  3  2  2  0  0  0  0
  4  3  1  0  0  0  0
  5  4  2  0  0  0  0
  5  6  1  0  0  0  0
  6  1  2  0  0  0  0
  9  4  1  0  0  0  0
 10  5  1  0  0  0  0
 11  6  1  0  0  0  0
 12 13  1  0  0  0  0
 12 11  2  0  0  0  0
 14 12  1  0  0  0  0
 15 14  2  0  0  0  0
 15 16  1  0  0  0  0
 16 11  1  0  0  0  0
 17 18  1  6  0  0  0
 17 23  1  0  0  0  0
 19 25  1  0  0  0  0
 20 19  1  0  0  0  0
 20 26  1  0  0  0  0
 21 20  2  0  0  0  0
 22 23  2  0  0  0  0
 22 21  1  0  0  0  0
 23 24  1  0  0  0  0
 24 19  2  0  0  0  0
 27 21  1  0  0  0  0
M  END
>  <minimizedAffinity>
-4.95845985

$$$$

 OpenBabel03272509393D

 27 29  0  0  1  0  0  0  0  0999 V2000
   38.3120   23.4100   35.2500 C   0  0  0  0  0  0  0  0  0  0  0  0
   38.5950   22.6740   36.4280 C   0  0  0  0  0  0  0  0  0  0  0  0
   38.5700   23.3090   37.6810 C   0  0  0  0  0  0  0  0  0  0  0  0
   38.2700   24.6520   37.7680 C   0  0  0  0  0  0  0  0  0  0  0  0
   38.0060   25.3130   36.6020 C   0  0  0  0  0  0  0  0  0  0  0  0
   38.0210   24.7260   35.3380 C   0  0  0  0  0  0  0  0  0  0  0  0
   38.8240   21.6260   36.2980 H   0  0  0  0  0  0  0  0  0  0  0  0
   38.8020   22.6200   38.4590 H   0  0  0  0  0  0  0  0  0  0  0  0
   38.2680   25.0680   38.7620 H   0  0  0  0  0  0  0  0  0  0  0  0
   37.7820   26.3700   36.8290 H   0  0  0  0  0  0  0  0  0  0  0  0
   37.6620   25.6900   34.3360 C   0  0  0  0  0  0  0  0  0  0  0  0
   37.0110   26.9300   34.8610 C   0  0  0  0  0  0  0  0  0  0  0  0
   36.6990   27.1350   35.9050 H   0  0  0  0  0  0  0  0  0  0  0  0
   36.7170   27.9920   34.1000 C   0  0  0  0  0  3  0  0  0  0  0  0
   37.0750   27.8470   32.7380 C   0  0  0  0  0  3  0  0  0  0  0  0
   37.7700   26.2980   32.6170 S   0  0  0  0  0  0  0  0  0  0  0  0
   38.3640   22.6840   33.9800 C   0  0  1  0  0  3  0  0  0  0  0  0
   39.5670   22.5120   33.5220 O   0  0  0  0  0  1  0  0  0  0  0  0
   35.4810   20.5900   33.3230 C   0  0  0  0  0  0  0  0  0  0  0  0
   35.0080   21.0410   32.1010 C   0  0  0  0  0  0  0  0  0  0  0  0
   35.6920   22.0860   31.4730 C   0  0  0  0  0  0  0  0  0  0  0  0
   36.8050   22.6390   32.0740 N   0  0  0  0  0  0  0  0  0  0  0  0
   37.2190   22.1710   33.2470 C   0  0  0  0  0  0  0  0  0  0  0  0
   36.5550   21.1570   33.8530 N   0  0  0  0  0  0  0  0  0  0  0  0
   34.8950   19.7830   33.7350 H   0  0  0  0  0  0  0  0  0  0  0  0
   34.1670   20.6990   31.5420 H   0  0  0  0  0  0  0  0  0  0  0  0
   35.3870   22.5010   30.5080 H   0  0  0  0  0  0  0  0  0  0  0  0
  1  6  2  0  0  0  0
  1  2  1  0  0  0  0
  2  3  2  0  0  0  0
  3  4  1  0  0  0  0
  3  8  1  0  0  0  0
  4  9  1  0  0  0  0
  5 10  1  0  0  0  0
  5  4  2  0  0  0  0
  6  5  1  0  0  0  0
  7  2  1  0  0  0  0
 11 12  2  0  0  0  0
 11  6  1  0  0  0  0
 12 13  1  0  0  0  0
 14 12  1  0  0  0  0
 15 14  2  0  0  0  0
 16 15  1  0  0  0  0
 16 11  1  0  0  0  0
 17 18  1  1  0  0  0
 17  1  1  0  0  0  0
 19 25  1  0  0  0  0
 19 24  1  0  0  0  0
 20 19  2  0  0  0  0
 21 22  2  0  0  0  0
 21 20  1  0  0  0  0
 22 23  1  0  0  0  0
 23 24  2  0  0  0  0
 23 17  1  0  0  0  0
 26 20  1  0  0  0  0
 27 21  1  0  0  0  0
M  END
>  <minimizedAffinity>
-4.95599031

$$$$

 OpenBabel03272509393D

 27 29  0  0  1  0  0  0  0  0999 V2000
   39.0460   23.9730   36.0190 C   0  0  0  0  0  0  0  0  0  0  0  0
   38.0290   24.6520   36.7370 C   0  0  0  0  0  0  0  0  0  0  0  0
   37.8580   24.4180   38.1110 C   0  0  0  0  0  0  0  0  0  0  0  0
   38.6800   23.5270   38.7670 C   0  0  0  0  0  0  0  0  0  0  0  0
   39.6430   22.9000   38.0270 C   0  0  0  0  0  0  0  0  0  0  0  0
   39.8480   23.0980   36.6640 C   0  0  0  0  0  0  0  0  0  0  0  0
   37.4160   25.3390   36.1700 H   0  0  0  0  0  0  0  0  0  0  0  0
   37.0590   25.0050   38.4980 H   0  0  0  0  0  0  0  0  0  0  0  0
   38.4900   23.4020   39.8200 H   0  0  0  0  0  0  0  0  0  0  0  0
   40.2190   22.2230   38.6840 H   0  0  0  0  0  0  0  0  0  0  0  0
   40.9610   22.3150   36.2070 C   0  0  0  0  0  0  0  0  0  0  0  0
   41.6120   21.4740   37.2600 C   0  0  0  0  0  0  0  0  0  0  0  0
   41.3890   21.4650   38.3460 H   0  0  0  0  0  0  0  0  0  0  0  0
   42.5830   20.5870   37.0050 C   0  0  0  0  0  3  0  0  0  0  0  0
   42.9530   20.5070   35.6410 C   0  0  0  0  0  3  0  0  0  0  0  0
   41.9580   21.6310   34.8380 S   0  0  0  0  0  0  0  0  0  0  0  0
   39.1590   24.2610   34.5890 C   0  0  1  0  0  3  0  0  0  0  0  0
   38.5530   23.4000   33.8300 O   0  0  0  0  0  1  0  0  0  0  0  0
   41.7840   26.7310   34.2140 C   0  0  0  0  0  0  0  0  0  0  0  0
   41.4110   27.4530   33.0910 C   0  0  0  0  0  0  0  0  0  0  0  0
   40.2260   27.0950   32.4410 C   0  0  0  0  0  0  0  0  0  0  0  0
   39.4650   26.0490   32.9220 N   0  0  0  0  0  0  0  0  0  0  0  0
   39.8660   25.3870   34.0020 C   0  0  0  0  0  0  0  0  0  0  0  0
   41.0150   25.7360   34.6320 N   0  0  0  0  0  0  0  0  0  0  0  0
   42.7090   27.0730   34.6520 H   0  0  0  0  0  0  0  0  0  0  0  0
   41.9090   28.2720   32.6260 H   0  0  0  0  0  0  0  0  0  0  0  0
   39.8580   27.6120   31.5490 H   0  0  0  0  0  0  0  0  0  0  0  0
  1  6  2  0  0  0  0
  1  2  1  0  0  0  0
  2  3  2  0  0  0  0
  3  8  1  0  0  0  0
  3  4  1  0  0  0  0
  4  9  1  0  0  0  0
  5 10  1  0  0  0  0
  5  4  2  0  0  0  0
  6  5  1  0  0  0  0
  7  2  1  0  0  0  0
 11  6  1  0  0  0  0
 11 12  2  0  0  0  0
 12 13  1  0  0  0  0
 14 12  1  0  0  0  0
 15 14  2  0  0  0  0
 16 15  1  0  0  0  0
 16 11  1  0  0  0  0
 17 18  1  1  0  0  0
 17  1  1  0  0  0  0
 19 24  1  0  0  0  0
 19 25  1  0  0  0  0
 20 19  2  0  0  0  0
 21 22  2  0  0  0  0
 21 20  1  0  0  0  0
 22 23  1  0  0  0  0
 23 17  1  0  0  0  0
 23 24  2  0  0  0  0
 26 20  1  0  0  0  0
 27 21  1  0  0  0  0
M  END
>  <minimizedAffinity>
-4.94367552

$$$$

 OpenBabel03272509393D

 27 29  0  0  1  0  0  0  0  0999 V2000
   38.2260   25.1660   35.4450 C   0  0  0  0  0  0  0  0  0  0  0  0
   38.2510   26.3890   36.1620 C   0  0  0  0  0  0  0  0  0  0  0  0
   37.9160   27.5920   35.5210 C   0  0  0  0  0  0  0  0  0  0  0  0
   37.5590   27.5880   34.1890 C   0  0  0  0  0  0  0  0  0  0  0  0
   37.5510   26.3830   33.5450 C   0  0  0  0  0  0  0  0  0  0  0  0
   37.8790   25.1660   34.1390 C   0  0  0  0  0  0  0  0  0  0  0  0
   38.5390   26.3310   37.2030 H   0  0  0  0  0  0  0  0  0  0  0  0
   37.9820   28.4130   36.1950 H   0  0  0  0  0  0  0  0  0  0  0  0
   37.3130   28.5480   33.7670 H   0  0  0  0  0  0  0  0  0  0  0  0
   37.2460   26.5360   32.4940 H   0  0  0  0  0  0  0  0  0  0  0  0
   37.7310   24.0940   33.1950 C   0  0  0  0  0  0  0  0  0  0  0  0
   36.7610   24.3600   32.0880 C   0  0  0  0  0  0  0  0  0  0  0  0
   36.0920   25.2380   31.9760 H   0  0  0  0  0  0  0  0  0  0  0  0
   36.5780   23.5360   31.0480 C   0  0  0  0  0  3  0  0  0  0  0  0
   37.3860   22.3740   31.0790 C   0  0  0  0  0  3  0  0  0  0  0  0
   38.3100   22.5060   32.5030 S   0  0  0  0  0  0  0  0  0  0  0  0
   38.5950   23.9550   36.1760 C   0  0  1  0  0  3  0  0  0  0  0  0
   37.5960   23.3700   36.7640 O   0  0  0  0  0  1  0  0  0  0  0  0
   41.2180   21.7490   37.3530 C   0  0  0  0  0  0  0  0  0  0  0  0
   42.3380   22.1440   36.6400 C   0  0  0  0  0  0  0  0  0  0  0  0
   42.2040   23.2000   35.7330 C   0  0  0  0  0  0  0  0  0  0  0  0
   40.9790   23.8140   35.5690 N   0  0  0  0  0  0  0  0  0  0  0  0
   39.9340   23.3970   36.2760 C   0  0  0  0  0  0  0  0  0  0  0  0
   40.0670   22.3750   37.1560 N   0  0  0  0  0  0  0  0  0  0  0  0
   41.4110   20.9300   38.0300 H   0  0  0  0  0  0  0  0  0  0  0  0
   43.3280   21.7520   36.6770 H   0  0  0  0  0  0  0  0  0  0  0  0
   43.0360   23.5750   35.1310 H   0  0  0  0  0  0  0  0  0  0  0  0
  1  2  1  0  0  0  0
  1 17  1  0  0  0  0
  2  7  1  0  0  0  0
  3  2  2  0  0  0  0
  3  8  1  0  0  0  0
  4  3  1  0  0  0  0
  5  6  1  0  0  0  0
  5  4  2  0  0  0  0
  6  1  2  0  0  0  0
  9  4  1  0  0  0  0
 10  5  1  0  0  0  0
 11  6  1  0  0  0  0
 12 11  2  0  0  0  0
 13 12  1  0  0  0  0
 14 15  2  0  0  0  0
 14 12  1  0  0  0  0
 15 16  1  0  0  0  0
 16 11  1  0  0  0  0
 17 23  1  0  0  0  0
 17 18  1  6  0  0  0
 19 25  1  0  0  0  0
 20 26  1  0  0  0  0
 20 19  2  0  0  0  0
 21 20  1  0  0  0  0
 22 21  2  0  0  0  0
 22 23  1  0  0  0  0
 23 24  2  0  0  0  0
 24 19  1  0  0  0  0
 27 21  1  0  0  0  0
M  END
>  <minimizedAffinity>
-4.90823317

$$$$

 OpenBabel03272509393D

 27 29  0  0  1  0  0  0  0  0999 V2000
   37.4950   27.1960   34.2680 C   0  0  0  0  0  0  0  0  0  0  0  0
   36.8370   28.2650   34.9270 C   0  0  0  0  0  0  0  0  0  0  0  0
   35.8770   29.0310   34.2450 C   0  0  0  0  0  0  0  0  0  0  0  0
   35.5710   28.7440   32.9320 C   0  0  0  0  0  0  0  0  0  0  0  0
   36.2340   27.7040   32.3460 C   0  0  0  0  0  0  0  0  0  0  0  0
   37.1950   26.9190   32.9800 C   0  0  0  0  0  0  0  0  0  0  0  0
   37.1190   28.4430   35.9550 H   0  0  0  0  0  0  0  0  0  0  0  0
   35.4790   29.7890   34.8780 H   0  0  0  0  0  0  0  0  0  0  0  0
   34.8240   29.3730   32.4770 H   0  0  0  0  0  0  0  0  0  0  0  0
   35.8840   27.5940   31.3040 H   0  0  0  0  0  0  0  0  0  0  0  0
   37.6650   25.8910   32.0950 C   0  0  0  0  0  0  0  0  0  0  0  0
   36.6600   24.8300   31.7750 C   0  0  0  0  0  0  0  0  0  0  0  0
   35.6490   24.7060   32.2130 H   0  0  0  0  0  0  0  0  0  0  0  0
   36.8690   23.8590   30.8760 C   0  0  0  0  0  3  0  0  0  0  0  0
   38.1340   23.9160   30.2420 C   0  0  0  0  0  3  0  0  0  0  0  0
   38.9160   25.2680   30.9190 S   0  0  0  0  0  0  0  0  0  0  0  0
   38.4890   26.4470   35.0380 C   0  0  1  0  0  3  0  0  0  0  0  0
   39.6540   27.0190   35.0880 O   0  0  0  0  0  1  0  0  0  0  0  0
   37.9020   24.1980   37.8180 C   0  0  0  0  0  0  0  0  0  0  0  0
   37.7990   22.9490   37.2260 C   0  0  0  0  0  0  0  0  0  0  0  0
   37.9410   22.8640   35.8380 C   0  0  0  0  0  0  0  0  0  0  0  0
   38.1740   24.0050   35.0980 N   0  0  0  0  0  0  0  0  0  0  0  0
   38.2630   25.1800   35.7120 C   0  0  0  0  0  0  0  0  0  0  0  0
   38.1270   25.2610   37.0580 N   0  0  0  0  0  0  0  0  0  0  0  0
   37.7800   24.1730   38.8900 H   0  0  0  0  0  0  0  0  0  0  0  0
   37.6210   22.0040   37.6850 H   0  0  0  0  0  0  0  0  0  0  0  0
   37.8750   21.9180   35.2910 H   0  0  0  0  0  0  0  0  0  0  0  0
  1  2  1  0  0  0  0
  1 17  1  0  0  0  0
  2  7  1  0  0  0  0
  3  8  1  0  0  0  0
  3  2  2  0  0  0  0
  4  3  1  0  0  0  0
  5  4  2  0  0  0  0
  5  6  1  0  0  0  0
  6  1  2  0  0  0  0
  9  4  1  0  0  0  0
 10  5  1  0  0  0  0
 11  6  1  0  0  0  0
 12 11  2  0  0  0  0
 12 13  1  0  0  0  0
 14 12  1  0  0  0  0
 15 14  2  0  0  0  0
 15 16  1  0  0  0  0
 16 11  1  0  0  0  0
 17 18  1  1  0  0  0
 17 23  1  0  0  0  0
 19 25  1  0  0  0  0
 20 26  1  0  0  0  0
 20 19  1  0  0  0  0
 21 20  2  0  0  0  0
 22 23  2  0  0  0  0
 22 21  1  0  0  0  0
 23 24  1  0  0  0  0
 24 19  2  0  0  0  0
 27 21  1  0  0  0  0
M  END
>  <minimizedAffinity>
-4.83368015

$$$$

 OpenBabel03272509393D

 27 29  0  0  1  0  0  0  0  0999 V2000
   39.0850   26.4590   33.6370 C   0  0  0  0  0  0  0  0  0  0  0  0
   39.8410   27.2500   32.7350 C   0  0  0  0  0  0  0  0  0  0  0  0
   41.2350   27.3430   32.8740 C   0  0  0  0  0  0  0  0  0  0  0  0
   41.8740   26.6640   33.8900 C   0  0  0  0  0  0  0  0  0  0  0  0
   41.0980   25.9170   34.7300 C   0  0  0  0  0  0  0  0  0  0  0  0
   39.7140   25.7970   34.6320 C   0  0  0  0  0  0  0  0  0  0  0  0
   39.2860   27.7590   31.9590 H   0  0  0  0  0  0  0  0  0  0  0  0
   41.6500   27.9700   32.1210 H   0  0  0  0  0  0  0  0  0  0  0  0
   42.9440   26.7830   33.9310 H   0  0  0  0  0  0  0  0  0  0  0  0
   41.7450   25.4340   35.4850 H   0  0  0  0  0  0  0  0  0  0  0  0
   39.2170   24.9090   35.6460 C   0  0  0  0  0  0  0  0  0  0  0  0
   40.1170   23.7600   35.9710 C   0  0  0  0  0  0  0  0  0  0  0  0
   41.0600   23.4780   35.4590 H   0  0  0  0  0  0  0  0  0  0  0  0
   39.8870   22.8970   36.9690 C   0  0  0  0  0  3  0  0  0  0  0  0
   38.7050   23.1610   37.7030 C   0  0  0  0  0  3  0  0  0  0  0  0
   38.0230   24.5410   36.9780 S   0  0  0  0  0  0  0  0  0  0  0  0
   37.6360   26.4150   33.4350 C   0  0  1  0  0  3  0  0  0  0  0  0
   36.9850   27.3180   34.1030 O   0  0  0  0  0  1  0  0  0  0  0  0
   36.7230   23.2030   32.0290 C   0  0  0  0  0  0  0  0  0  0  0  0
   35.7250   23.5050   31.1150 C   0  0  0  0  0  0  0  0  0  0  0  0
   35.3530   24.8440   30.9650 C   0  0  0  0  0  0  0  0  0  0  0  0
   35.9750   25.8210   31.7170 N   0  0  0  0  0  0  0  0  0  0  0  0
   36.9250   25.4800   32.5800 C   0  0  0  0  0  0  0  0  0  0  0  0
   37.2860   24.1810   32.7240 N   0  0  0  0  0  0  0  0  0  0  0  0
   36.9480   22.1490   32.0810 H   0  0  0  0  0  0  0  0  0  0  0  0
   35.1750   22.8470   30.4840 H   0  0  0  0  0  0  0  0  0  0  0  0
   34.5760   25.1700   30.2670 H   0  0  0  0  0  0  0  0  0  0  0  0
  1  6  1  0  0  0  0
  2  3  1  0  0  0  0
  2  1  2  0  0  0  0
  3  4  2  0  0  0  0
  4  9  1  0  0  0  0
  4  5  1  0  0  0  0
  5 10  1  0  0  0  0
  6  5  2  0  0  0  0
  6 11  1  0  0  0  0
  7  2  1  0  0  0  0
  8  3  1  0  0  0  0
 11 12  2  0  0  0  0
 11 16  1  0  0  0  0
 12 14  1  0  0  0  0
 13 12  1  0  0  0  0
 14 15  2  0  0  0  0
 16 15  1  0  0  0  0
 17  1  1  0  0  0  0
 17 18  1  6  0  0  0
 19 25  1  0  0  0  0
 19 24  1  0  0  0  0
 20 19  2  0  0  0  0
 21 20  1  0  0  0  0
 21 22  2  0  0  0  0
 22 23  1  0  0  0  0
 23 24  2  0  0  0  0
 23 17  1  0  0  0  0
 26 20  1  0  0  0  0
 27 21  1  0  0  0  0
M  END
>  <minimizedAffinity>
-4.8186636

$$$$
