
 OpenBabel03272506523D

 31 33  0  0  1  0  0  0  0  0999 V2000
   39.2400   25.5470   34.6420 C   0  0  1  0  0  0  0  0  0  0  0  0
   38.5820   25.0490   33.4320 C   0  0  0  0  0  0  0  0  0  0  0  0
   37.1940   25.5530   33.1530 C   0  0  0  0  0  0  0  0  0  0  0  0
   36.9150   26.9580   33.5220 C   0  0  1  0  0  0  0  0  0  0  0  0
   37.5880   27.4810   34.7480 C   0  0  0  0  0  0  0  0  0  0  0  0
   38.9990   27.0100   34.8750 C   0  0  0  0  0  0  0  0  0  0  0  0
   40.3640   25.4950   34.4780 H   0  0  0  0  0  0  0  0  0  0  0  0
   38.5990   23.9860   33.2400 H   0  0  0  0  0  0  0  0  0  0  0  0
   39.1810   25.4780   32.5620 H   0  0  0  0  0  0  0  0  0  0  0  0
   36.9680   25.4000   32.0880 H   0  0  0  0  0  0  0  0  0  0  0  0
   36.5040   24.8810   33.7070 H   0  0  0  0  0  0  0  0  0  0  0  0
   35.8070   27.0170   33.7580 H   0  0  0  0  0  0  0  0  0  0  0  0
   37.5970   28.5680   34.7490 H   0  0  0  0  0  0  0  0  0  0  0  0
   37.0310   27.1090   35.6360 H   0  0  0  0  0  0  0  0  0  0  0  0
   39.5510   27.5290   34.0270 H   0  0  0  0  0  0  0  0  0  0  0  0
   39.4360   27.4260   35.7710 H   0  0  0  0  0  0  0  0  0  0  0  0
   38.0620   25.0070   36.8300 C   0  0  0  0  0  0  0  0  0  0  0  0
   39.0600   24.7270   35.8660 C   0  0  0  0  0  0  0  0  0  0  0  0
   39.8800   23.6410   36.1070 C   0  0  0  0  0  0  0  0  0  0  0  0
   39.7050   22.8960   37.2330 N   0  0  0  0  0  0  0  0  0  0  0  0
   38.7310   23.2030   38.1310 C   0  0  0  0  0  0  0  0  0  0  0  0
   37.9140   24.2630   37.9190 N   0  0  0  0  0  0  0  0  0  0  0  0
   37.3840   25.8370   36.7120 H   0  0  0  0  0  0  0  0  0  0  0  0
   40.6820   23.2860   35.4830 H   0  0  0  0  0  0  0  0  0  0  0  0
   38.5580   22.6390   39.0380 H   0  0  0  0  0  0  0  0  0  0  0  0
   37.0750   27.8120   32.3210 C   0  0  0  0  0  0  0  0  0  0  0  0
   37.9500   27.9880   31.3420 C   0  0  0  0  0  0  0  0  0  0  0  0
   38.7910   27.3170   31.4430 H   0  0  0  0  0  0  0  0  0  0  0  0
   37.8000   28.8960   30.3490 C   0  0  0  0  0  3  0  0  0  0  0  0
   36.5530   29.6740   30.4710 C   0  0  0  0  0  3  0  0  0  0  0  0
   35.7680   28.9620   32.0330 S   0  0  0  0  0  0  0  0  0  0  0  0
  1  7  1  6  0  0  0
  1  6  1  0  0  0  0
  1 18  1  0  0  0  0
  2  1  1  0  0  0  0
  3  2  1  0  0  0  0
  3  4  1  0  0  0  0
  3 11  1  0  0  0  0
  4 12  1  1  0  0  0
  4  5  1  0  0  0  0
  5 13  1  0  0  0  0
  5  6  1  0  0  0  0
  5 14  1  0  0  0  0
  6 16  1  0  0  0  0
  8  2  1  0  0  0  0
  9  2  1  0  0  0  0
 10  3  1  0  0  0  0
 15  6  1  0  0  0  0
 17 22  1  0  0  0  0
 18 19  1  0  0  0  0
 18 17  2  0  0  0  0
 19 20  2  0  0  0  0
 20 21  1  0  0  0  0
 21 25  1  0  0  0  0
 22 21  2  0  0  0  0
 23 17  1  0  0  0  0
 24 19  1  0  0  0  0
 26  4  1  0  0  0  0
 27 28  1  0  0  0  0
 27 26  2  0  0  0  0
 29 30  2  0  0  0  0
 29 27  1  0  0  0  0
 30 31  1  0  0  0  0
 31 26  1  0  0  0  0
M  END
>  <minimizedAffinity>
-4.79450369

$$$$

 OpenBabel03272506523D

 31 33  0  0  1  0  0  0  0  0999 V2000
   38.3730   27.1350   34.0970 C   0  0  1  0  0  0  0  0  0  0  0  0
   38.5670   27.0710   35.5470 C   0  0  0  0  0  0  0  0  0  0  0  0
   38.0730   25.8370   36.2490 C   0  0  0  0  0  0  0  0  0  0  0  0
   38.2040   24.5610   35.5110 C   0  0  1  0  0  0  0  0  0  0  0  0
   38.0190   24.6150   34.0310 C   0  0  0  0  0  0  0  0  0  0  0  0
   38.6410   25.8240   33.4160 C   0  0  0  0  0  0  0  0  0  0  0  0
   39.1730   27.8180   33.6650 H   0  0  0  0  0  0  0  0  0  0  0  0
   38.2870   27.9300   36.1400 H   0  0  0  0  0  0  0  0  0  0  0  0
   39.6950   27.0080   35.7010 H   0  0  0  0  0  0  0  0  0  0  0  0
   38.5800   25.7530   37.2210 H   0  0  0  0  0  0  0  0  0  0  0  0
   37.0030   26.0210   36.4820 H   0  0  0  0  0  0  0  0  0  0  0  0
   37.3690   23.8880   35.8780 H   0  0  0  0  0  0  0  0  0  0  0  0
   38.4520   23.7380   33.5560 H   0  0  0  0  0  0  0  0  0  0  0  0
   36.9270   24.6570   33.8180 H   0  0  0  0  0  0  0  0  0  0  0  0
   39.7610   25.6630   33.5370 H   0  0  0  0  0  0  0  0  0  0  0  0
   38.4840   25.8040   32.3470 H   0  0  0  0  0  0  0  0  0  0  0  0
   36.2870   28.5310   34.5020 C   0  0  0  0  0  0  0  0  0  0  0  0
   37.1210   27.7840   33.6360 C   0  0  0  0  0  0  0  0  0  0  0  0
   36.7210   27.6740   32.3170 C   0  0  0  0  0  0  0  0  0  0  0  0
   35.5700   28.2740   31.9060 N   0  0  0  0  0  0  0  0  0  0  0  0
   34.8010   28.9840   32.7750 C   0  0  0  0  0  0  0  0  0  0  0  0
   35.1700   29.1060   34.0730 N   0  0  0  0  0  0  0  0  0  0  0  0
   36.5310   28.6620   35.5440 H   0  0  0  0  0  0  0  0  0  0  0  0
   37.2320   27.1510   31.5290 H   0  0  0  0  0  0  0  0  0  0  0  0
   33.8800   29.4750   32.4900 H   0  0  0  0  0  0  0  0  0  0  0  0
   39.4420   23.8760   35.9510 C   0  0  0  0  0  0  0  0  0  0  0  0
   40.6950   23.7390   35.5440 C   0  0  0  0  0  0  0  0  0  0  0  0
   40.8710   24.2850   34.6270 H   0  0  0  0  0  0  0  0  0  0  0  0
   41.6270   23.0070   36.1990 C   0  0  0  0  0  3  0  0  0  0  0  0
   41.0990   22.3730   37.4220 C   0  0  0  0  0  3  0  0  0  0  0  0
   39.2990   22.9420   37.4420 S   0  0  0  0  0  0  0  0  0  0  0  0
  1  7  1  6  0  0  0
  1  2  1  0  0  0  0
  2  9  1  0  0  0  0
  2  8  1  0  0  0  0
  2  3  1  0  0  0  0
  3 11  1  0  0  0  0
  3 10  1  0  0  0  0
  4 12  1  1  0  0  0
  4 26  1  0  0  0  0
  4  3  1  0  0  0  0
  5  4  1  0  0  0  0
  6 15  1  0  0  0  0
  6  5  1  0  0  0  0
  6  1  1  0  0  0  0
 13  5  1  0  0  0  0
 14  5  1  0  0  0  0
 16  6  1  0  0  0  0
 17 23  1  0  0  0  0
 18  1  1  0  0  0  0
 18 17  2  0  0  0  0
 19 18  1  0  0  0  0
 20 19  2  0  0  0  0
 20 21  1  0  0  0  0
 21 22  2  0  0  0  0
 22 17  1  0  0  0  0
 24 19  1  0  0  0  0
 25 21  1  0  0  0  0
 26 31  1  0  0  0  0
 27 26  2  0  0  0  0
 27 29  1  0  0  0  0
 28 27  1  0  0  0  0
 29 30  2  0  0  0  0
 30 31  1  0  0  0  0
M  END
>  <minimizedAffinity>
-4.67190695

$$$$

 OpenBabel03272506523D

 31 33  0  0  1  0  0  0  0  0999 V2000
   39.9740   26.8190   34.7410 C   0  0  1  0  0  0  0  0  0  0  0  0
   39.6640   27.1070   33.3400 C   0  0  0  0  0  0  0  0  0  0  0  0
   38.2950   26.7270   32.8500 C   0  0  0  0  0  0  0  0  0  0  0  0
   37.1830   26.8820   33.8150 C   0  0  1  0  0  0  0  0  0  0  0  0
   37.4880   26.6020   35.2480 C   0  0  0  0  0  0  0  0  0  0  0  0
   38.8270   27.1160   35.6630 C   0  0  0  0  0  0  0  0  0  0  0  0
   40.7740   27.5510   35.0830 H   0  0  0  0  0  0  0  0  0  0  0  0
   40.3830   26.8180   32.5860 H   0  0  0  0  0  0  0  0  0  0  0  0
   39.6500   28.2440   33.2580 H   0  0  0  0  0  0  0  0  0  0  0  0
   38.0720   27.2980   31.9370 H   0  0  0  0  0  0  0  0  0  0  0  0
   38.3640   25.6660   32.5330 H   0  0  0  0  0  0  0  0  0  0  0  0
   36.4020   26.1100   33.5330 H   0  0  0  0  0  0  0  0  0  0  0  0
   36.7420   27.0520   35.8980 H   0  0  0  0  0  0  0  0  0  0  0  0
   37.4960   25.4980   35.3930 H   0  0  0  0  0  0  0  0  0  0  0  0
   38.7210   28.2480   35.6320 H   0  0  0  0  0  0  0  0  0  0  0  0
   38.9880   26.8940   36.7080 H   0  0  0  0  0  0  0  0  0  0  0  0
   39.8740   24.3770   35.4430 C   0  0  0  0  0  0  0  0  0  0  0  0
   40.6110   25.5060   35.0110 C   0  0  0  0  0  0  0  0  0  0  0  0
   41.9730   25.3420   34.8460 C   0  0  0  0  0  0  0  0  0  0  0  0
   42.5460   24.1320   35.0970 N   0  0  0  0  0  0  0  0  0  0  0  0
   41.7960   23.0750   35.5100 C   0  0  0  0  0  0  0  0  0  0  0  0
   40.4580   23.2100   35.6800 N   0  0  0  0  0  0  0  0  0  0  0  0
   38.8070   24.4270   35.5950 H   0  0  0  0  0  0  0  0  0  0  0  0
   42.6790   26.0870   34.5240 H   0  0  0  0  0  0  0  0  0  0  0  0
   42.2100   22.0980   35.7200 H   0  0  0  0  0  0  0  0  0  0  0  0
   36.5130   28.1810   33.5720 C   0  0  0  0  0  0  0  0  0  0  0  0
   35.8570   29.1000   34.2640 C   0  0  0  0  0  0  0  0  0  0  0  0
   35.7890   28.8300   35.3090 H   0  0  0  0  0  0  0  0  0  0  0  0
   35.3410   30.2290   33.7220 C   0  0  0  0  0  3  0  0  0  0  0  0
   35.5860   30.3300   32.2720 C   0  0  0  0  0  3  0  0  0  0  0  0
   36.5470   28.7470   31.9000 S   0  0  0  0  0  0  0  0  0  0  0  0
  1 18  1  0  0  0  0
  1  7  1  1  0  0  0
  1  6  1  0  0  0  0
  2  1  1  0  0  0  0
  3  2  1  0  0  0  0
  3  4  1  0  0  0  0
  4 12  1  6  0  0  0
  4  5  1  0  0  0  0
  5 14  1  0  0  0  0
  5  6  1  0  0  0  0
  5 13  1  0  0  0  0
  6 16  1  0  0  0  0
  8  2  1  0  0  0  0
  9  2  1  0  0  0  0
 10  3  1  0  0  0  0
 11  3  1  0  0  0  0
 15  6  1  0  0  0  0
 17 23  1  0  0  0  0
 17 22  1  0  0  0  0
 18 17  2  0  0  0  0
 19 18  1  0  0  0  0
 19 20  2  0  0  0  0
 20 21  1  0  0  0  0
 21 22  2  0  0  0  0
 21 25  1  0  0  0  0
 24 19  1  0  0  0  0
 26  4  1  0  0  0  0
 26 27  2  0  0  0  0
 27 28  1  0  0  0  0
 29 27  1  0  0  0  0
 30 29  2  0  0  0  0
 31 30  1  0  0  0  0
 31 26  1  0  0  0  0
M  END
>  <minimizedAffinity>
-4.66322708

$$$$

 OpenBabel03272506523D

 31 33  0  0  1  0  0  0  0  0999 V2000
   38.1890   23.9730   35.5530 C   0  0  1  0  0  0  0  0  0  0  0  0
   37.9210   25.1730   36.3480 C   0  0  0  0  0  0  0  0  0  0  0  0
   38.5700   26.4510   35.8970 C   0  0  0  0  0  0  0  0  0  0  0  0
   38.6980   26.6450   34.4350 C   0  0  1  0  0  0  0  0  0  0  0  0
   38.9620   25.4290   33.6120 C   0  0  0  0  0  0  0  0  0  0  0  0
   38.1850   24.2410   34.0760 C   0  0  0  0  0  0  0  0  0  0  0  0
   37.3150   23.2590   35.6870 H   0  0  0  0  0  0  0  0  0  0  0  0
   38.0170   25.1080   37.4220 H   0  0  0  0  0  0  0  0  0  0  0  0
   36.8120   25.3930   36.2020 H   0  0  0  0  0  0  0  0  0  0  0  0
   38.0260   27.3000   36.3340 H   0  0  0  0  0  0  0  0  0  0  0  0
   39.5780   26.4670   36.3620 H   0  0  0  0  0  0  0  0  0  0  0  0
   39.6100   27.3000   34.2760 H   0  0  0  0  0  0  0  0  0  0  0  0
   38.7110   25.6060   32.5690 H   0  0  0  0  0  0  0  0  0  0  0  0
   40.0420   25.1760   33.7010 H   0  0  0  0  0  0  0  0  0  0  0  0
   37.1030   24.4950   33.8350 H   0  0  0  0  0  0  0  0  0  0  0  0
   38.4080   23.3970   33.4400 H   0  0  0  0  0  0  0  0  0  0  0  0
   40.2250   22.5270   35.0730 C   0  0  0  0  0  0  0  0  0  0  0  0
   39.3420   23.1460   35.9900 C   0  0  0  0  0  0  0  0  0  0  0  0
   39.5940   22.9520   37.3340 C   0  0  0  0  0  0  0  0  0  0  0  0
   40.6550   22.1920   37.7220 N   0  0  0  0  0  0  0  0  0  0  0  0
   41.4770   21.6170   36.8040 C   0  0  0  0  0  0  0  0  0  0  0  0
   41.2520   21.7910   35.4790 N   0  0  0  0  0  0  0  0  0  0  0  0
   40.0940   22.6320   34.0080 H   0  0  0  0  0  0  0  0  0  0  0  0
   39.0310   23.3490   38.1610 H   0  0  0  0  0  0  0  0  0  0  0  0
   42.3310   21.0060   37.0690 H   0  0  0  0  0  0  0  0  0  0  0  0
   37.5670   27.4760   33.9590 C   0  0  0  0  0  0  0  0  0  0  0  0
   36.5800   28.1930   34.4750 C   0  0  0  0  0  0  0  0  0  0  0  0
   36.6020   28.1680   35.5560 H   0  0  0  0  0  0  0  0  0  0  0  0
   35.6660   28.8640   33.7360 C   0  0  0  0  0  3  0  0  0  0  0  0
   35.8850   28.7140   32.2850 C   0  0  0  0  0  3  0  0  0  0  0  0
   37.4100   27.6040   32.2060 S   0  0  0  0  0  0  0  0  0  0  0  0
  1  7  1  1  0  0  0
  1 18  1  0  0  0  0
  1  2  1  0  0  0  0
  2  8  1  0  0  0  0
  3 10  1  0  0  0  0
  3  2  1  0  0  0  0
  3 11  1  0  0  0  0
  4 12  1  6  0  0  0
  4  3  1  0  0  0  0
  5 14  1  0  0  0  0
  5  6  1  0  0  0  0
  5  4  1  0  0  0  0
  6  1  1  0  0  0  0
  9  2  1  0  0  0  0
 13  5  1  0  0  0  0
 15  6  1  0  0  0  0
 16  6  1  0  0  0  0
 17 22  2  0  0  0  0
 17 18  1  0  0  0  0
 18 19  2  0  0  0  0
 19 20  1  0  0  0  0
 19 24  1  0  0  0  0
 21 25  1  0  0  0  0
 21 20  2  0  0  0  0
 22 21  1  0  0  0  0
 23 17  1  0  0  0  0
 26  4  1  0  0  0  0
 26 27  2  0  0  0  0
 27 28  1  0  0  0  0
 29 27  1  0  0  0  0
 30 29  2  0  0  0  0
 31 30  1  0  0  0  0
 31 26  1  0  0  0  0
M  END
>  <minimizedAffinity>
-4.65145159

$$$$

 OpenBabel03272506523D

 31 33  0  0  1  0  0  0  0  0999 V2000
   37.0810   27.8860   32.4980 C   0  0  1  0  0  0  0  0  0  0  0  0
   36.7250   29.0160   31.6370 C   0  0  0  0  0  0  0  0  0  0  0  0
   35.4750   29.7740   31.9860 C   0  0  0  0  0  0  0  0  0  0  0  0
   35.1770   29.9260   33.4280 C   0  0  1  0  0  0  0  0  0  0  0  0
   35.5440   28.7850   34.3180 C   0  0  0  0  0  0  0  0  0  0  0  0
   36.8550   28.1700   33.9540 C   0  0  0  0  0  0  0  0  0  0  0  0
   38.2060   27.7370   32.4370 H   0  0  0  0  0  0  0  0  0  0  0  0
   36.7410   28.8690   30.5670 H   0  0  0  0  0  0  0  0  0  0  0  0
   37.5420   29.7940   31.8040 H   0  0  0  0  0  0  0  0  0  0  0  0
   35.5170   30.7650   31.5130 H   0  0  0  0  0  0  0  0  0  0  0  0
   34.6390   29.2380   31.4900 H   0  0  0  0  0  0  0  0  0  0  0  0
   34.0490   30.0060   33.5170 H   0  0  0  0  0  0  0  0  0  0  0  0
   35.6010   29.1070   35.3540 H   0  0  0  0  0  0  0  0  0  0  0  0
   34.7650   27.9970   34.2120 H   0  0  0  0  0  0  0  0  0  0  0  0
   37.6250   28.9660   34.2130 H   0  0  0  0  0  0  0  0  0  0  0  0
   37.0710   27.3600   34.6360 H   0  0  0  0  0  0  0  0  0  0  0  0
   35.5170   26.4140   31.1350 C   0  0  0  0  0  0  0  0  0  0  0  0
   36.5630   26.5590   32.0790 C   0  0  0  0  0  0  0  0  0  0  0  0
   37.0970   25.4000   32.6090 C   0  0  0  0  0  0  0  0  0  0  0  0
   36.6130   24.1900   32.2160 N   0  0  0  0  0  0  0  0  0  0  0  0
   35.6080   24.0990   31.3060 C   0  0  0  0  0  0  0  0  0  0  0  0
   35.0660   25.2210   30.7700 N   0  0  0  0  0  0  0  0  0  0  0  0
   35.0500   27.2710   30.6770 H   0  0  0  0  0  0  0  0  0  0  0  0
   37.8920   25.3270   33.3290 H   0  0  0  0  0  0  0  0  0  0  0  0
   35.1940   23.1580   30.9670 H   0  0  0  0  0  0  0  0  0  0  0  0
   35.6720   31.2460   33.8850 C   0  0  0  0  0  0  0  0  0  0  0  0
   36.0650   32.3940   33.3530 C   0  0  0  0  0  0  0  0  0  0  0  0
   36.0090   32.3640   32.2740 H   0  0  0  0  0  0  0  0  0  0  0  0
   36.4810   33.4590   34.0770 C   0  0  0  0  0  3  0  0  0  0  0  0
   36.4510   33.2080   35.5300 C   0  0  0  0  0  3  0  0  0  0  0  0
   35.8130   31.4350   35.6340 S   0  0  0  0  0  0  0  0  0  0  0  0
  1  7  1  6  0  0  0
  1  6  1  0  0  0  0
  2  9  1  0  0  0  0
  2  3  1  0  0  0  0
  2  1  1  0  0  0  0
  3  4  1  0  0  0  0
  4 12  1  1  0  0  0
  4 26  1  0  0  0  0
  4  5  1  0  0  0  0
  5 13  1  0  0  0  0
  6 15  1  0  0  0  0
  6  5  1  0  0  0  0
  6 16  1  0  0  0  0
  8  2  1  0  0  0  0
 10  3  1  0  0  0  0
 11  3  1  0  0  0  0
 14  5  1  0  0  0  0
 17 18  1  0  0  0  0
 18  1  1  0  0  0  0
 18 19  2  0  0  0  0
 19 24  1  0  0  0  0
 20 19  1  0  0  0  0
 21 20  2  0  0  0  0
 22 17  2  0  0  0  0
 22 21  1  0  0  0  0
 23 17  1  0  0  0  0
 25 21  1  0  0  0  0
 26 31  1  0  0  0  0
 27 26  2  0  0  0  0
 27 29  1  0  0  0  0
 28 27  1  0  0  0  0
 29 30  2  0  0  0  0
 30 31  1  0  0  0  0
M  END
>  <minimizedAffinity>
-4.61803532

$$$$

 OpenBabel03272506523D

 31 33  0  0  1  0  0  0  0  0999 V2000
   36.6830   27.0500   33.1900 C   0  0  1  0  0  0  0  0  0  0  0  0
   37.4750   25.8620   32.8660 C   0  0  0  0  0  0  0  0  0  0  0  0
   38.8440   25.7650   33.4780 C   0  0  0  0  0  0  0  0  0  0  0  0
   38.9920   26.3000   34.8500 C   0  0  1  0  0  0  0  0  0  0  0  0
   38.1830   27.5050   35.1960 C   0  0  0  0  0  0  0  0  0  0  0  0
   36.8020   27.4530   34.6310 C   0  0  0  0  0  0  0  0  0  0  0  0
   35.5830   26.7790   33.0890 H   0  0  0  0  0  0  0  0  0  0  0  0
   37.5480   25.5620   31.8310 H   0  0  0  0  0  0  0  0  0  0  0  0
   36.9250   24.9890   33.3490 H   0  0  0  0  0  0  0  0  0  0  0  0
   39.1700   24.7150   33.4560 H   0  0  0  0  0  0  0  0  0  0  0  0
   39.5280   26.3080   32.7930 H   0  0  0  0  0  0  0  0  0  0  0  0
   40.0690   26.6430   34.9480 H   0  0  0  0  0  0  0  0  0  0  0  0
   38.0990   27.6170   36.2740 H   0  0  0  0  0  0  0  0  0  0  0  0
   38.6860   28.3990   34.7640 H   0  0  0  0  0  0  0  0  0  0  0  0
   36.2890   26.6160   35.2050 H   0  0  0  0  0  0  0  0  0  0  0  0
   36.2630   28.3430   34.9210 H   0  0  0  0  0  0  0  0  0  0  0  0
   37.6510   28.1540   31.1130 C   0  0  0  0  0  0  0  0  0  0  0  0
   36.8140   28.1950   32.2540 C   0  0  0  0  0  0  0  0  0  0  0  0
   36.1060   29.3620   32.4740 C   0  0  0  0  0  0  0  0  0  0  0  0
   36.2350   30.4050   31.6080 N   0  0  0  0  0  0  0  0  0  0  0  0
   37.0510   30.3190   30.5240 C   0  0  0  0  0  0  0  0  0  0  0  0
   37.7560   29.1870   30.2860 N   0  0  0  0  0  0  0  0  0  0  0  0
   38.2340   27.2790   30.8750 H   0  0  0  0  0  0  0  0  0  0  0  0
   35.4270   29.5630   33.2830 H   0  0  0  0  0  0  0  0  0  0  0  0
   37.1820   31.1240   29.8120 H   0  0  0  0  0  0  0  0  0  0  0  0
   38.8770   25.1840   35.8170 C   0  0  0  0  0  0  0  0  0  0  0  0
   38.1230   24.8450   36.8520 C   0  0  0  0  0  0  0  0  0  0  0  0
   37.3710   25.5970   37.0520 H   0  0  0  0  0  0  0  0  0  0  0  0
   38.2810   23.7030   37.5620 C   0  0  0  0  0  3  0  0  0  0  0  0
   39.3890   22.8690   37.0600 C   0  0  0  0  0  3  0  0  0  0  0  0
   40.0480   23.8790   35.6080 S   0  0  0  0  0  0  0  0  0  0  0  0
  1  7  1  6  0  0  0
  1  6  1  0  0  0  0
  2  1  1  0  0  0  0
  2  9  1  0  0  0  0
  2  3  1  0  0  0  0
  3  4  1  0  0  0  0
  4 12  1  1  0  0  0
  4  5  1  0  0  0  0
  4 26  1  0  0  0  0
  5 13  1  0  0  0  0
  6 16  1  0  0  0  0
  6  5  1  0  0  0  0
  6 15  1  0  0  0  0
  8  2  1  0  0  0  0
 10  3  1  0  0  0  0
 11  3  1  0  0  0  0
 14  5  1  0  0  0  0
 17 18  1  0  0  0  0
 18 19  2  0  0  0  0
 18  1  1  0  0  0  0
 19 24  1  0  0  0  0
 20 19  1  0  0  0  0
 21 20  2  0  0  0  0
 22 21  1  0  0  0  0
 22 17  2  0  0  0  0
 23 17  1  0  0  0  0
 25 21  1  0  0  0  0
 26 27  2  0  0  0  0
 27 28  1  0  0  0  0
 27 29  1  0  0  0  0
 30 29  2  0  0  0  0
 31 26  1  0  0  0  0
 31 30  1  0  0  0  0
M  END
>  <minimizedAffinity>
-4.58129263

$$$$

 OpenBabel03272506523D

 31 33  0  0  1  0  0  0  0  0999 V2000
   37.0040   27.1340   33.5550 C   0  0  1  0  0  0  0  0  0  0  0  0
   38.1310   26.7580   32.6990 C   0  0  0  0  0  0  0  0  0  0  0  0
   39.5090   27.0850   33.1990 C   0  0  0  0  0  0  0  0  0  0  0  0
   39.7260   26.9690   34.6580 C   0  0  1  0  0  0  0  0  0  0  0  0
   38.5830   27.3410   35.5430 C   0  0  0  0  0  0  0  0  0  0  0  0
   37.2680   26.8740   35.0100 C   0  0  0  0  0  0  0  0  0  0  0  0
   36.1360   26.4380   33.3230 H   0  0  0  0  0  0  0  0  0  0  0  0
   38.0840   27.0130   31.6500 H   0  0  0  0  0  0  0  0  0  0  0  0
   38.1350   25.6170   32.6860 H   0  0  0  0  0  0  0  0  0  0  0  0
   40.2390   26.4560   32.6680 H   0  0  0  0  0  0  0  0  0  0  0  0
   39.7170   28.1260   32.8750 H   0  0  0  0  0  0  0  0  0  0  0  0
   40.5430   27.7100   34.9230 H   0  0  0  0  0  0  0  0  0  0  0  0
   38.7100   26.9180   36.5360 H   0  0  0  0  0  0  0  0  0  0  0  0
   38.5400   28.4510   35.6090 H   0  0  0  0  0  0  0  0  0  0  0  0
   37.3110   25.7410   35.0940 H   0  0  0  0  0  0  0  0  0  0  0  0
   36.4820   27.1620   35.6940 H   0  0  0  0  0  0  0  0  0  0  0  0
   35.7310   29.2040   34.3050 C   0  0  0  0  0  0  0  0  0  0  0  0
   36.4130   28.4720   33.3030 C   0  0  0  0  0  0  0  0  0  0  0  0
   36.5110   29.0560   32.0540 C   0  0  0  0  0  0  0  0  0  0  0  0
   35.9640   30.2830   31.8350 N   0  0  0  0  0  0  0  0  0  0  0  0
   35.3190   30.9500   32.8290 C   0  0  0  0  0  0  0  0  0  0  0  0
   35.2080   30.3990   34.0630 N   0  0  0  0  0  0  0  0  0  0  0  0
   35.6130   28.8150   35.3030 H   0  0  0  0  0  0  0  0  0  0  0  0
   36.9940   28.6450   31.1850 H   0  0  0  0  0  0  0  0  0  0  0  0
   34.8700   31.9260   32.6980 H   0  0  0  0  0  0  0  0  0  0  0  0
   40.3260   25.6470   34.9530 C   0  0  0  0  0  0  0  0  0  0  0  0
   39.9310   24.4480   35.3550 C   0  0  0  0  0  0  0  0  0  0  0  0
   38.8620   24.4220   35.5140 H   0  0  0  0  0  0  0  0  0  0  0  0
   40.7670   23.3990   35.5400 C   0  0  0  0  0  3  0  0  0  0  0  0
   42.1730   23.7310   35.2450 C   0  0  0  0  0  3  0  0  0  0  0  0
   42.0750   25.5460   34.7340 S   0  0  0  0  0  0  0  0  0  0  0  0
  1  7  1  6  0  0  0
  1  6  1  0  0  0  0
  2  3  1  0  0  0  0
  2  1  1  0  0  0  0
  3  4  1  0  0  0  0
  4 12  1  1  0  0  0
  4 26  1  0  0  0  0
  4  5  1  0  0  0  0
  5 14  1  0  0  0  0
  5 13  1  0  0  0  0
  6 15  1  0  0  0  0
  6  5  1  0  0  0  0
  6 16  1  0  0  0  0
  8  2  1  0  0  0  0
  9  2  1  0  0  0  0
 10  3  1  0  0  0  0
 11  3  1  0  0  0  0
 17 23  1  0  0  0  0
 18  1  1  0  0  0  0
 18 17  2  0  0  0  0
 19 18  1  0  0  0  0
 20 19  2  0  0  0  0
 20 21  1  0  0  0  0
 21 22  2  0  0  0  0
 22 17  1  0  0  0  0
 24 19  1  0  0  0  0
 25 21  1  0  0  0  0
 26 27  2  0  0  0  0
 27 28  1  0  0  0  0
 27 29  1  0  0  0  0
 30 29  2  0  0  0  0
 31 26  1  0  0  0  0
 31 30  1  0  0  0  0
M  END
>  <minimizedAffinity>
-4.57777166

$$$$

 OpenBabel03272506523D

 31 33  0  0  1  0  0  0  0  0999 V2000
   36.7040   27.0330   33.1290 C   0  0  1  0  0  0  0  0  0  0  0  0
   37.5810   25.9010   32.8250 C   0  0  0  0  0  0  0  0  0  0  0  0
   38.9210   25.8710   33.5050 C   0  0  0  0  0  0  0  0  0  0  0  0
   38.9680   26.3850   34.8920 C   0  0  1  0  0  0  0  0  0  0  0  0
   38.0720   27.5330   35.2180 C   0  0  0  0  0  0  0  0  0  0  0  0
   36.7260   27.4120   34.5810 C   0  0  0  0  0  0  0  0  0  0  0  0
   35.6290   26.7010   32.9670 H   0  0  0  0  0  0  0  0  0  0  0  0
   37.7230   25.6270   31.7890 H   0  0  0  0  0  0  0  0  0  0  0  0
   37.0600   24.9860   33.2630 H   0  0  0  0  0  0  0  0  0  0  0  0
   39.3100   24.8430   33.4800 H   0  0  0  0  0  0  0  0  0  0  0  0
   39.6050   26.4680   32.8660 H   0  0  0  0  0  0  0  0  0  0  0  0
   40.0160   26.7870   35.0520 H   0  0  0  0  0  0  0  0  0  0  0  0
   37.9270   27.6170   36.2920 H   0  0  0  0  0  0  0  0  0  0  0  0
   38.5420   28.4630   34.8290 H   0  0  0  0  0  0  0  0  0  0  0  0
   36.2360   26.5340   35.1130 H   0  0  0  0  0  0  0  0  0  0  0  0
   36.1210   28.2630   34.8600 H   0  0  0  0  0  0  0  0  0  0  0  0
   36.1150   29.4130   32.4530 C   0  0  0  0  0  0  0  0  0  0  0  0
   36.8130   28.2030   32.2220 C   0  0  0  0  0  0  0  0  0  0  0  0
   37.6180   28.1460   31.1000 C   0  0  0  0  0  0  0  0  0  0  0  0
   37.7100   29.2270   30.2760 N   0  0  0  0  0  0  0  0  0  0  0  0
   37.0200   30.3680   30.5400 C   0  0  0  0  0  0  0  0  0  0  0  0
   36.2240   30.4510   31.6330 N   0  0  0  0  0  0  0  0  0  0  0  0
   35.4680   29.5340   33.3070 H   0  0  0  0  0  0  0  0  0  0  0  0
   38.2170   27.3140   30.7770 H   0  0  0  0  0  0  0  0  0  0  0  0
   37.0650   31.2490   29.9120 H   0  0  0  0  0  0  0  0  0  0  0  0
   38.8710   25.2430   35.8320 C   0  0  0  0  0  0  0  0  0  0  0  0
   38.1370   24.8780   36.8720 C   0  0  0  0  0  0  0  0  0  0  0  0
   37.3910   25.6250   37.1070 H   0  0  0  0  0  0  0  0  0  0  0  0
   38.3080   23.7180   37.5480 C   0  0  0  0  0  3  0  0  0  0  0  0
   39.4040   22.8960   37.0020 C   0  0  0  0  0  3  0  0  0  0  0  0
   40.0350   23.9440   35.5640 S   0  0  0  0  0  0  0  0  0  0  0  0
  1  7  1  6  0  0  0
  1  6  1  0  0  0  0
  2  1  1  0  0  0  0
  2  9  1  0  0  0  0
  2  3  1  0  0  0  0
  3  4  1  0  0  0  0
  4 12  1  1  0  0  0
  4  5  1  0  0  0  0
  4 26  1  0  0  0  0
  5 13  1  0  0  0  0
  6 16  1  0  0  0  0
  6 15  1  0  0  0  0
  6  5  1  0  0  0  0
  8  2  1  0  0  0  0
 10  3  1  0  0  0  0
 11  3  1  0  0  0  0
 14  5  1  0  0  0  0
 17 23  1  0  0  0  0
 18 17  1  0  0  0  0
 18  1  1  0  0  0  0
 19 18  2  0  0  0  0
 20 21  2  0  0  0  0
 20 19  1  0  0  0  0
 21 22  1  0  0  0  0
 22 17  2  0  0  0  0
 24 19  1  0  0  0  0
 25 21  1  0  0  0  0
 26 27  2  0  0  0  0
 27 28  1  0  0  0  0
 27 29  1  0  0  0  0
 30 29  2  0  0  0  0
 31 26  1  0  0  0  0
 31 30  1  0  0  0  0
M  END
>  <minimizedAffinity>
-4.54682112

$$$$

 OpenBabel03272506523D

 31 33  0  0  1  0  0  0  0  0999 V2000
   37.9060   26.1470   34.9520 C   0  0  1  0  0  0  0  0  0  0  0  0
   38.2000   24.7810   34.5150 C   0  0  0  0  0  0  0  0  0  0  0  0
   39.4680   24.5700   33.7350 C   0  0  0  0  0  0  0  0  0  0  0  0
   40.6290   25.3990   34.1280 C   0  0  1  0  0  0  0  0  0  0  0  0
   40.3420   26.7910   34.5840 C   0  0  0  0  0  0  0  0  0  0  0  0
   39.1230   26.8750   35.4430 C   0  0  0  0  0  0  0  0  0  0  0  0
   37.2510   26.0870   35.8790 H   0  0  0  0  0  0  0  0  0  0  0  0
   37.4140   24.2150   34.0370 H   0  0  0  0  0  0  0  0  0  0  0  0
   38.3970   24.1910   35.4710 H   0  0  0  0  0  0  0  0  0  0  0  0
   39.7420   23.5060   33.7830 H   0  0  0  0  0  0  0  0  0  0  0  0
   39.2130   24.7680   32.6730 H   0  0  0  0  0  0  0  0  0  0  0  0
   41.2610   25.5300   33.1950 H   0  0  0  0  0  0  0  0  0  0  0  0
   41.1790   27.1910   35.1510 H   0  0  0  0  0  0  0  0  0  0  0  0
   40.1600   27.4220   33.6860 H   0  0  0  0  0  0  0  0  0  0  0  0
   39.4120   26.3360   36.4020 H   0  0  0  0  0  0  0  0  0  0  0  0
   38.9720   27.9000   35.7500 H   0  0  0  0  0  0  0  0  0  0  0  0
   36.7850   26.5520   32.7050 C   0  0  0  0  0  0  0  0  0  0  0  0
   37.0760   26.9610   34.0300 C   0  0  0  0  0  0  0  0  0  0  0  0
   36.5490   28.1690   34.4450 C   0  0  0  0  0  0  0  0  0  0  0  0
   35.7880   28.9070   33.5900 N   0  0  0  0  0  0  0  0  0  0  0  0
   35.5350   28.4730   32.3260 C   0  0  0  0  0  0  0  0  0  0  0  0
   36.0400   27.2910   31.8940 N   0  0  0  0  0  0  0  0  0  0  0  0
   37.1600   25.6220   32.3090 H   0  0  0  0  0  0  0  0  0  0  0  0
   36.6660   28.6260   35.4110 H   0  0  0  0  0  0  0  0  0  0  0  0
   34.9370   29.0270   31.6150 H   0  0  0  0  0  0  0  0  0  0  0  0
   41.4910   24.6170   35.0440 C   0  0  0  0  0  0  0  0  0  0  0  0
   41.3980   23.5450   35.8160 C   0  0  0  0  0  0  0  0  0  0  0  0
   40.4100   23.1100   35.7640 H   0  0  0  0  0  0  0  0  0  0  0  0
   42.4160   23.0640   36.5680 C   0  0  0  0  0  3  0  0  0  0  0  0
   43.6480   23.8640   36.4390 C   0  0  0  0  0  3  0  0  0  0  0  0
   43.1410   25.2180   35.2250 S   0  0  0  0  0  0  0  0  0  0  0  0
  1  6  1  0  0  0  0
  1  7  1  1  0  0  0
  2  1  1  0  0  0  0
  2  9  1  0  0  0  0
  3 10  1  0  0  0  0
  3  4  1  0  0  0  0
  3  2  1  0  0  0  0
  4 12  1  6  0  0  0
  4  5  1  0  0  0  0
  4 26  1  0  0  0  0
  5 13  1  0  0  0  0
  5  6  1  0  0  0  0
  6 16  1  0  0  0  0
  6 15  1  0  0  0  0
  8  2  1  0  0  0  0
 11  3  1  0  0  0  0
 14  5  1  0  0  0  0
 17 18  1  0  0  0  0
 18 19  2  0  0  0  0
 18  1  1  0  0  0  0
 19 24  1  0  0  0  0
 20 19  1  0  0  0  0
 21 20  2  0  0  0  0
 22 21  1  0  0  0  0
 22 17  2  0  0  0  0
 23 17  1  0  0  0  0
 25 21  1  0  0  0  0
 26 31  1  0  0  0  0
 26 27  2  0  0  0  0
 27 29  1  0  0  0  0
 28 27  1  0  0  0  0
 30 29  2  0  0  0  0
 31 30  1  0  0  0  0
M  END
>  <minimizedAffinity>
-4.52209806

$$$$
