
 OpenBabel03272509383D

 27 29  0  0  1  0  0  0  0  0999 V2000
   36.3870   30.6750   48.5280 C   0  0  0  0  0  0  0  0  0  0  0  0
   36.3770   31.2850   49.8080 C   0  0  0  0  0  0  0  0  0  0  0  0
   37.2060   32.3890   50.0710 C   0  0  0  0  0  0  0  0  0  0  0  0
   38.0310   32.8830   49.0830 C   0  0  0  0  0  0  0  0  0  0  0  0
   38.0000   32.2580   47.8690 C   0  0  0  0  0  0  0  0  0  0  0  0
   37.1980   31.1600   47.5630 C   0  0  0  0  0  0  0  0  0  0  0  0
   35.7110   30.8540   50.5420 H   0  0  0  0  0  0  0  0  0  0  0  0
   37.0780   32.7280   51.0720 H   0  0  0  0  0  0  0  0  0  0  0  0
   38.6350   33.7320   49.3590 H   0  0  0  0  0  0  0  0  0  0  0  0
   38.7060   32.7630   47.1850 H   0  0  0  0  0  0  0  0  0  0  0  0
   37.3810   30.7750   46.1920 C   0  0  0  0  0  0  0  0  0  0  0  0
   38.7880   30.4300   45.8180 C   0  0  0  0  0  0  0  0  0  0  0  0
   39.6960   30.5300   46.4490 H   0  0  0  0  0  0  0  0  0  0  0  0
   39.1370   29.9320   44.6250 C   0  0  0  0  0  3  0  0  0  0  0  0
   38.0540   29.7550   43.7300 C   0  0  0  0  0  3  0  0  0  0  0  0
   36.6760   30.2770   44.5830 S   0  0  0  0  0  0  0  0  0  0  0  0
   35.5040   29.5250   48.3300 C   0  0  1  0  0  3  0  0  0  0  0  0
   35.7250   28.5450   49.1520 O   0  0  0  0  0  1  0  0  0  0  0  0
   32.7790   30.6390   46.2170 C   0  0  0  0  0  0  0  0  0  0  0  0
   32.4450   29.5170   45.4750 C   0  0  0  0  0  0  0  0  0  0  0  0
   33.1630   28.3390   45.7030 C   0  0  0  0  0  0  0  0  0  0  0  0
   34.1730   28.3190   46.6440 N   0  0  0  0  0  0  0  0  0  0  0  0
   34.4550   29.4220   47.3280 C   0  0  0  0  0  0  0  0  0  0  0  0
   33.7570   30.5630   47.1080 N   0  0  0  0  0  0  0  0  0  0  0  0
   32.1760   31.5020   45.9780 H   0  0  0  0  0  0  0  0  0  0  0  0
   31.6950   29.4080   44.7270 H   0  0  0  0  0  0  0  0  0  0  0  0
   32.9650   27.4090   45.1630 H   0  0  0  0  0  0  0  0  0  0  0  0
  1  2  1  0  0  0  0
  2  3  2  0  0  0  0
  2  7  1  0  0  0  0
  3  8  1  0  0  0  0
  4  9  1  0  0  0  0
  4  3  1  0  0  0  0
  5  4  2  0  0  0  0
  6  5  1  0  0  0  0
  6  1  2  0  0  0  0
 10  5  1  0  0  0  0
 11  6  1  0  0  0  0
 12 11  2  0  0  0  0
 12 13  1  0  0  0  0
 14 12  1  0  0  0  0
 15 16  1  0  0  0  0
 15 14  2  0  0  0  0
 16 11  1  0  0  0  0
 17  1  1  0  0  0  0
 17 18  1  1  0  0  0
 19 24  1  0  0  0  0
 20 21  1  0  0  0  0
 20 19  2  0  0  0  0
 21 22  2  0  0  0  0
 22 23  1  0  0  0  0
 23 17  1  0  0  0  0
 24 23  2  0  0  0  0
 25 19  1  0  0  0  0
 26 20  1  0  0  0  0
 27 21  1  0  0  0  0
M  END
>  <minimizedAffinity>
-5.21730137

>  <minimizedRMSD>
1.3261466

$$$$
