
 OpenBabel03272506183D

 31 33  0  0  0  0  0  0  0  0999 V2000
   35.4750   30.3110   49.9100 C   0  0  0  0  0  0  0  0  0  0  0  0
   36.4360   31.2150   49.1740 C   0  0  0  0  0  0  0  0  0  0  0  0
   37.8670   30.7950   49.3360 C   0  0  0  0  0  0  0  0  0  0  0  0
   38.2980   30.6350   50.7660 C   0  0  0  0  0  0  0  0  0  0  0  0
   37.2570   29.9910   51.6320 C   0  0  0  0  0  0  0  0  0  0  0  0
   36.1470   29.3470   50.8260 C   0  0  0  0  0  0  0  0  0  0  0  0
   34.7500   30.9250   50.4800 H   0  0  0  0  0  0  0  0  0  0  0  0
   36.2210   31.2650   48.1000 H   0  0  0  0  0  0  0  0  0  0  0  0
   36.3690   32.2420   49.6300 H   0  0  0  0  0  0  0  0  0  0  0  0
   38.4950   31.5710   48.8740 H   0  0  0  0  0  0  0  0  0  0  0  0
   38.0110   29.8450   48.7790 H   0  0  0  0  0  0  0  0  0  0  0  0
   39.1910   29.9500   50.7600 H   0  0  0  0  0  0  0  0  0  0  0  0
   38.6750   31.5690   51.2180 H   0  0  0  0  0  0  0  0  0  0  0  0
   37.6850   29.1890   52.2650 H   0  0  0  0  0  0  0  0  0  0  0  0
   36.8520   30.7600   52.2940 H   0  0  0  0  0  0  0  0  0  0  0  0
   36.6480   28.5760   50.1910 H   0  0  0  0  0  0  0  0  0  0  0  0
   35.4500   28.8980   51.5300 H   0  0  0  0  0  0  0  0  0  0  0  0
   34.6730   29.5160   48.9290 C   0  0  0  0  0  0  0  0  0  0  0  0
   34.2500   30.2130   47.7810 C   0  0  0  0  0  0  0  0  0  0  0  0
   33.4830   29.4700   46.8610 C   0  0  0  0  0  0  0  0  0  0  0  0
   33.1940   28.1640   47.1080 N   0  0  0  0  0  0  0  0  0  0  0  0
   33.6320   27.5440   48.2350 C   0  0  0  0  0  0  0  0  0  0  0  0
   34.3590   28.2130   49.1290 N   0  0  0  0  0  0  0  0  0  0  0  0
   34.4420   31.2270   47.5360 H   0  0  0  0  0  0  0  0  0  0  0  0
   33.4040   26.5230   48.4250 H   0  0  0  0  0  0  0  0  0  0  0  0
   33.0030   30.0660   45.6740 C   0  0  0  0  0  0  0  0  0  0  0  0
   32.0920   31.0890   45.5090 C   0  0  0  0  0  0  0  0  0  0  0  0
   31.6500   31.5350   46.3900 H   0  0  0  0  0  0  0  0  0  0  0  0
   31.7730   31.5090   44.2510 C   0  0  0  0  0  3  0  0  0  0  0  0
   32.4240   30.8400   43.1810 C   0  0  0  0  0  3  0  0  0  0  0  0
   33.4790   29.6210   44.0270 S   0  0  0  0  0  0  0  0  0  0  0  0
  1  7  1  0  0  0  0
  1  6  1  0  0  0  0
  2  3  1  0  0  0  0
  2  9  1  0  0  0  0
  2  1  1  0  0  0  0
  3  4  1  0  0  0  0
  4 13  1  0  0  0  0
  4  5  1  0  0  0  0
  5 14  1  0  0  0  0
  5 15  1  0  0  0  0
  6 17  1  0  0  0  0
  6  5  1  0  0  0  0
  8  2  1  0  0  0  0
 10  3  1  0  0  0  0
 11  3  1  0  0  0  0
 12  4  1  0  0  0  0
 16  6  1  0  0  0  0
 18 23  1  0  0  0  0
 18  1  1  0  0  0  0
 19 18  2  0  0  0  0
 20 21  2  0  0  0  0
 20 19  1  0  0  0  0
 21 22  1  0  0  0  0
 22 25  1  0  0  0  0
 22 23  2  0  0  0  0
 24 19  1  0  0  0  0
 26 20  1  0  0  0  0
 27 26  2  0  0  0  0
 27 28  1  0  0  0  0
 29 27  1  0  0  0  0
 30 31  1  0  0  0  0
 30 29  2  0  0  0  0
 31 26  1  0  0  0  0
M  END
>  <minimizedAffinity>
-5.18018055

>  <minimizedRMSD>
0.314879239

$$$$
