
 OpenBabel03272506183D

 31 33  0  0  0  0  0  0  0  0999 V2000
   35.5350   30.3090   49.8380 C   0  0  0  0  0  0  0  0  0  0  0  0
   36.4630   31.2310   49.0810 C   0  0  0  0  0  0  0  0  0  0  0  0
   37.9070   30.8600   49.2430 C   0  0  0  0  0  0  0  0  0  0  0  0
   38.3500   30.7380   50.6730 C   0  0  0  0  0  0  0  0  0  0  0  0
   37.3350   30.0760   51.5560 C   0  0  0  0  0  0  0  0  0  0  0  0
   36.2420   29.3830   50.7660 C   0  0  0  0  0  0  0  0  0  0  0  0
   34.7940   30.9090   50.4010 H   0  0  0  0  0  0  0  0  0  0  0  0
   36.2410   31.2550   48.0080 H   0  0  0  0  0  0  0  0  0  0  0  0
   36.3650   32.2620   49.5200 H   0  0  0  0  0  0  0  0  0  0  0  0
   38.5090   31.6480   48.7650 H   0  0  0  0  0  0  0  0  0  0  0  0
   38.0790   29.9060   48.7010 H   0  0  0  0  0  0  0  0  0  0  0  0
   39.2650   30.0820   50.6740 H   0  0  0  0  0  0  0  0  0  0  0  0
   38.6990   31.6920   51.1070 H   0  0  0  0  0  0  0  0  0  0  0  0
   37.7900   29.2990   52.2000 H   0  0  0  0  0  0  0  0  0  0  0  0
   36.9080   30.8430   52.2060 H   0  0  0  0  0  0  0  0  0  0  0  0
   36.7640   28.6170   50.1410 H   0  0  0  0  0  0  0  0  0  0  0  0
   35.5630   28.9240   51.4810 H   0  0  0  0  0  0  0  0  0  0  0  0
   34.7550   29.4720   48.8740 C   0  0  0  0  0  0  0  0  0  0  0  0
   34.1490   30.1700   47.8120 C   0  0  0  0  0  0  0  0  0  0  0  0
   33.4010   29.3860   46.9100 C   0  0  0  0  0  0  0  0  0  0  0  0
   33.3000   28.0420   47.0940 N   0  0  0  0  0  0  0  0  0  0  0  0
   33.9090   27.4240   48.1390 C   0  0  0  0  0  0  0  0  0  0  0  0
   34.6230   28.1300   49.0130 N   0  0  0  0  0  0  0  0  0  0  0  0
   34.1910   31.2130   47.6190 H   0  0  0  0  0  0  0  0  0  0  0  0
   33.8270   26.3730   48.2800 H   0  0  0  0  0  0  0  0  0  0  0  0
   32.7490   29.9800   45.8070 C   0  0  0  0  0  0  0  0  0  0  0  0
   31.4290   30.3500   45.6610 C   0  0  0  0  0  0  0  0  0  0  0  0
   30.7490   30.1830   46.4870 H   0  0  0  0  0  0  0  0  0  0  0  0
   31.0130   30.9140   44.4910 C   0  0  0  0  0  3  0  0  0  0  0  0
   32.0020   31.0780   43.4870 C   0  0  0  0  0  3  0  0  0  0  0  0
   33.5070   30.4110   44.2670 S   0  0  0  0  0  0  0  0  0  0  0  0
  1  7  1  0  0  0  0
  1  6  1  0  0  0  0
  2  3  1  0  0  0  0
  2  9  1  0  0  0  0
  2  1  1  0  0  0  0
  3  4  1  0  0  0  0
  4 12  1  0  0  0  0
  4 13  1  0  0  0  0
  4  5  1  0  0  0  0
  5 14  1  0  0  0  0
  5 15  1  0  0  0  0
  6 17  1  0  0  0  0
  6  5  1  0  0  0  0
  8  2  1  0  0  0  0
 10  3  1  0  0  0  0
 11  3  1  0  0  0  0
 16  6  1  0  0  0  0
 18 23  1  0  0  0  0
 18  1  1  0  0  0  0
 19 18  2  0  0  0  0
 20 21  2  0  0  0  0
 20 19  1  0  0  0  0
 21 22  1  0  0  0  0
 22 25  1  0  0  0  0
 22 23  2  0  0  0  0
 24 19  1  0  0  0  0
 26 20  1  0  0  0  0
 27 26  2  0  0  0  0
 27 28  1  0  0  0  0
 29 27  1  0  0  0  0
 30 31  1  0  0  0  0
 30 29  2  0  0  0  0
 31 26  1  0  0  0  0
M  END
>  <minimizedAffinity>
-5.16092539

>  <minimizedRMSD>
0.38482812

$$$$
