
 OpenBabel03272500563D

 32 34  0  0  0  0  0  0  0  0999 V2000
   38.1980   31.9030   47.4090 C   0  0  0  0  0  0  0  0  0  0  0  0
   38.7350   32.7850   48.3000 C   0  0  0  0  0  0  0  0  0  0  0  0
   38.2940   32.8750   49.6260 C   0  0  0  0  0  0  0  0  0  0  0  0
   37.2260   31.9750   50.0250 C   0  0  0  0  0  0  0  0  0  0  0  0
   36.7350   31.1240   49.0970 C   0  0  0  0  0  0  0  0  0  0  0  0
   37.1660   31.0480   47.8240 C   0  0  0  0  0  0  0  0  0  0  0  0
   39.5460   33.4750   48.0200 H   0  0  0  0  0  0  0  0  0  0  0  0
   38.7630   33.5970   50.2810 H   0  0  0  0  0  0  0  0  0  0  0  0
   36.9970   32.1550   51.0520 H   0  0  0  0  0  0  0  0  0  0  0  0
   35.9880   30.5490   49.6200 H   0  0  0  0  0  0  0  0  0  0  0  0
   40.0170   31.2530   45.9070 C   0  0  0  0  0  0  0  0  0  0  0  0
   38.7730   31.9180   46.0830 C   0  0  0  0  0  0  0  0  0  0  0  0
   38.2640   32.4960   44.9470 C   0  0  0  0  0  0  0  0  0  0  0  0
   38.9250   32.4150   43.7740 N   0  0  0  0  0  0  0  0  0  0  0  0
   40.0700   31.7960   43.6350 C   0  0  0  0  0  0  0  0  0  0  0  0
   40.6170   31.2140   44.7010 N   0  0  0  0  0  0  0  0  0  0  0  0
   40.4810   30.7690   46.7780 H   0  0  0  0  0  0  0  0  0  0  0  0
   37.3090   32.9950   45.1350 H   0  0  0  0  0  0  0  0  0  0  0  0
   40.5070   31.7960   42.6430 H   0  0  0  0  0  0  0  0  0  0  0  0
   35.1680   30.0430   47.0940 C   0  0  0  0  0  0  0  0  0  0  0  0
   34.6000   30.6920   48.0600 O   0  0  0  0  0  0  0  0  0  0  0  0
   36.6060   30.1750   46.9240 N   0  0  0  0  0  0  0  0  0  0  0  0
   37.1350   29.6530   46.1930 H   0  0  0  0  0  0  0  0  0  0  0  0
   34.4030   29.2560   46.2740 O   0  0  0  0  0  0  0  0  0  0  0  0
   33.0220   29.3560   46.1490 C   0  0  0  0  0  0  0  0  0  0  0  0
   32.4580   30.1510   45.2670 O   0  0  0  0  0  0  0  0  0  0  0  0
   32.0530   28.5880   46.9500 C   0  0  0  0  0  0  0  0  0  0  0  0
   32.2310   27.8060   48.0150 C   0  0  0  0  0  0  0  0  0  0  0  0
   33.2350   27.6790   48.3970 H   0  0  0  0  0  0  0  0  0  0  0  0
   31.1660   27.1820   48.6070 C   0  0  0  0  0  3  0  0  0  0  0  0
   29.8940   27.4410   47.9930 C   0  0  0  0  0  3  0  0  0  0  0  0
   30.3740   28.6020   46.5700 S   0  0  0  0  0  0  0  0  0  0  0  0
  1  6  2  0  0  0  0
  1  2  1  0  0  0  0
  2  3  2  0  0  0  0
  3  4  1  0  0  0  0
  3  8  1  0  0  0  0
  4  9  1  0  0  0  0
  5 10  1  0  0  0  0
  5  4  2  0  0  0  0
  6  5  1  0  0  0  0
  7  2  1  0  0  0  0
 11 12  1  0  0  0  0
 11 17  1  0  0  0  0
 12  1  1  0  0  0  0
 13 18  1  0  0  0  0
 13 12  2  0  0  0  0
 14 13  1  0  0  0  0
 15 14  2  0  0  0  0
 15 16  1  0  0  0  0
 16 11  2  0  0  0  0
 19 15  1  0  0  0  0
 20 21  2  0  0  0  0
 22 20  1  0  0  0  0
 22  6  1  0  0  0  0
 23 22  1  0  0  0  0
 24 20  1  0  0  0  0
 25 24  1  0  0  0  0
 25 27  1  0  0  0  0
 26 25  2  0  0  0  0
 27 28  2  0  0  0  0
 28 29  1  0  0  0  0
 28 30  1  0  0  0  0
 31 30  2  0  0  0  0
 32 27  1  0  0  0  0
 32 31  1  0  0  0  0
M  END
>  <minimizedAffinity>
-5.74662638

>  <minimizedRMSD>
1.40136623

$$$$
