
 OpenBabel03272500563D

 32 34  0  0  0  0  0  0  0  0999 V2000
   38.1100   31.9190   47.4370 C   0  0  0  0  0  0  0  0  0  0  0  0
   38.5540   32.8540   48.3260 C   0  0  0  0  0  0  0  0  0  0  0  0
   38.0490   32.9480   49.6290 C   0  0  0  0  0  0  0  0  0  0  0  0
   37.0210   31.9950   50.0050 C   0  0  0  0  0  0  0  0  0  0  0  0
   36.6230   31.0930   49.0800 C   0  0  0  0  0  0  0  0  0  0  0  0
   37.1140   31.0140   47.8280 C   0  0  0  0  0  0  0  0  0  0  0  0
   39.3340   33.5850   48.0620 H   0  0  0  0  0  0  0  0  0  0  0  0
   38.4450   33.7130   50.2840 H   0  0  0  0  0  0  0  0  0  0  0  0
   36.7360   32.1850   51.0160 H   0  0  0  0  0  0  0  0  0  0  0  0
   35.8890   30.4870   49.5850 H   0  0  0  0  0  0  0  0  0  0  0  0
   40.0060   31.2970   46.0190 C   0  0  0  0  0  0  0  0  0  0  0  0
   38.7430   31.9380   46.1370 C   0  0  0  0  0  0  0  0  0  0  0  0
   38.2710   32.4980   44.9750 C   0  0  0  0  0  0  0  0  0  0  0  0
   38.9840   32.4230   43.8320 N   0  0  0  0  0  0  0  0  0  0  0  0
   40.1470   31.8270   43.7470 C   0  0  0  0  0  0  0  0  0  0  0  0
   40.6580   31.2640   44.8400 N   0  0  0  0  0  0  0  0  0  0  0  0
   40.4420   30.8290   46.9130 H   0  0  0  0  0  0  0  0  0  0  0  0
   37.2980   32.9780   45.1170 H   0  0  0  0  0  0  0  0  0  0  0  0
   40.6260   31.8300   42.7760 H   0  0  0  0  0  0  0  0  0  0  0  0
   35.2000   29.9590   46.9570 C   0  0  0  0  0  0  0  0  0  0  0  0
   34.5370   30.6630   47.8190 O   0  0  0  0  0  0  0  0  0  0  0  0
   36.6480   30.0860   46.9290 N   0  0  0  0  0  0  0  0  0  0  0  0
   37.2480   29.5240   46.2890 H   0  0  0  0  0  0  0  0  0  0  0  0
   34.5220   29.1230   46.1100 O   0  0  0  0  0  0  0  0  0  0  0  0
   33.4220   29.4960   45.3470 C   0  0  0  0  0  0  0  0  0  0  0  0
   33.4460   30.5440   44.5540 O   0  0  0  0  0  0  0  0  0  0  0  0
   32.1400   28.7690   45.3170 C   0  0  0  0  0  0  0  0  0  0  0  0
   31.8160   27.5980   44.7700 C   0  0  0  0  0  0  0  0  0  0  0  0
   32.5850   27.0470   44.2450 H   0  0  0  0  0  0  0  0  0  0  0  0
   30.5410   27.1100   44.8700 C   0  0  0  0  0  3  0  0  0  0  0  0
   29.6280   27.9490   45.5930 C   0  0  0  0  0  3  0  0  0  0  0  0
   30.7340   29.4130   46.0760 S   0  0  0  0  0  0  0  0  0  0  0  0
  1  6  2  0  0  0  0
  1  2  1  0  0  0  0
  2  3  2  0  0  0  0
  3  4  1  0  0  0  0
  3  8  1  0  0  0  0
  4  9  1  0  0  0  0
  5 10  1  0  0  0  0
  5  4  2  0  0  0  0
  6  5  1  0  0  0  0
  7  2  1  0  0  0  0
 11 12  1  0  0  0  0
 11 17  1  0  0  0  0
 12  1  1  0  0  0  0
 13 18  1  0  0  0  0
 13 12  2  0  0  0  0
 14 13  1  0  0  0  0
 15 14  2  0  0  0  0
 15 16  1  0  0  0  0
 16 11  2  0  0  0  0
 19 15  1  0  0  0  0
 20 21  2  0  0  0  0
 22 20  1  0  0  0  0
 22  6  1  0  0  0  0
 23 22  1  0  0  0  0
 24 20  1  0  0  0  0
 25 24  1  0  0  0  0
 26 25  2  0  0  0  0
 27 25  1  0  0  0  0
 27 32  1  0  0  0  0
 28 30  1  0  0  0  0
 28 27  2  0  0  0  0
 29 28  1  0  0  0  0
 30 31  2  0  0  0  0
 31 32  1  0  0  0  0
M  END
>  <minimizedAffinity>
-5.18300295

>  <minimizedRMSD>
0.181270197

$$$$
