
 OpenBabel03272500563D

 32 34  0  0  0  0  0  0  0  0999 V2000
   38.1100   31.9190   47.4370 C   0  0  0  0  0  0  0  0  0  0  0  0
   38.5540   32.8530   48.3260 C   0  0  0  0  0  0  0  0  0  0  0  0
   38.0500   32.9470   49.6290 C   0  0  0  0  0  0  0  0  0  0  0  0
   37.0210   31.9950   50.0060 C   0  0  0  0  0  0  0  0  0  0  0  0
   36.6230   31.0930   49.0800 C   0  0  0  0  0  0  0  0  0  0  0  0
   37.1140   31.0140   47.8290 C   0  0  0  0  0  0  0  0  0  0  0  0
   39.3340   33.5840   48.0630 H   0  0  0  0  0  0  0  0  0  0  0  0
   38.4450   33.7120   50.2850 H   0  0  0  0  0  0  0  0  0  0  0  0
   36.7360   32.1850   51.0170 H   0  0  0  0  0  0  0  0  0  0  0  0
   35.8890   30.4870   49.5850 H   0  0  0  0  0  0  0  0  0  0  0  0
   40.0060   31.2970   46.0200 C   0  0  0  0  0  0  0  0  0  0  0  0
   38.7430   31.9380   46.1370 C   0  0  0  0  0  0  0  0  0  0  0  0
   38.2710   32.4980   44.9760 C   0  0  0  0  0  0  0  0  0  0  0  0
   38.9840   32.4240   43.8330 N   0  0  0  0  0  0  0  0  0  0  0  0
   40.1470   31.8270   43.7480 C   0  0  0  0  0  0  0  0  0  0  0  0
   40.6580   31.2640   44.8400 N   0  0  0  0  0  0  0  0  0  0  0  0
   40.4410   30.8280   46.9130 H   0  0  0  0  0  0  0  0  0  0  0  0
   37.2990   32.9780   45.1180 H   0  0  0  0  0  0  0  0  0  0  0  0
   40.6260   31.8300   42.7760 H   0  0  0  0  0  0  0  0  0  0  0  0
   35.2000   29.9600   46.9580 C   0  0  0  0  0  0  0  0  0  0  0  0
   34.5360   30.6620   47.8200 O   0  0  0  0  0  0  0  0  0  0  0  0
   36.6470   30.0870   46.9290 N   0  0  0  0  0  0  0  0  0  0  0  0
   37.2470   29.5250   46.2890 H   0  0  0  0  0  0  0  0  0  0  0  0
   34.5210   29.1240   46.1110 O   0  0  0  0  0  0  0  0  0  0  0  0
   33.4200   29.4970   45.3490 C   0  0  0  0  0  0  0  0  0  0  0  0
   33.4430   30.5460   44.5570 O   0  0  0  0  0  0  0  0  0  0  0  0
   32.1390   28.7680   45.3200 C   0  0  0  0  0  0  0  0  0  0  0  0
   31.8170   27.5960   44.7750 C   0  0  0  0  0  0  0  0  0  0  0  0
   32.5860   27.0430   44.2540 H   0  0  0  0  0  0  0  0  0  0  0  0
   30.5420   27.1070   44.8750 C   0  0  0  0  0  3  0  0  0  0  0  0
   29.6260   27.9470   45.5940 C   0  0  0  0  0  3  0  0  0  0  0  0
   30.7310   29.4140   46.0750 S   0  0  0  0  0  0  0  0  0  0  0  0
  1  6  2  0  0  0  0
  1  2  1  0  0  0  0
  2  3  2  0  0  0  0
  3  4  1  0  0  0  0
  3  8  1  0  0  0  0
  4  9  1  0  0  0  0
  5 10  1  0  0  0  0
  5  4  2  0  0  0  0
  6  5  1  0  0  0  0
  7  2  1  0  0  0  0
 11 12  1  0  0  0  0
 11 17  1  0  0  0  0
 12  1  1  0  0  0  0
 13 18  1  0  0  0  0
 13 12  2  0  0  0  0
 14 13  1  0  0  0  0
 15 14  2  0  0  0  0
 15 16  1  0  0  0  0
 16 11  2  0  0  0  0
 19 15  1  0  0  0  0
 20 21  2  0  0  0  0
 22 20  1  0  0  0  0
 22  6  1  0  0  0  0
 23 22  1  0  0  0  0
 24 20  1  0  0  0  0
 25 24  1  0  0  0  0
 26 25  2  0  0  0  0
 27 25  1  0  0  0  0
 27 32  1  0  0  0  0
 28 30  1  0  0  0  0
 28 27  2  0  0  0  0
 29 28  1  0  0  0  0
 30 31  2  0  0  0  0
 31 32  1  0  0  0  0
M  END
>  <minimizedAffinity>
-5.18368816

>  <minimizedRMSD>
0.23553896

$$$$
