
 OpenBabel03272500563D

 32 34  0  0  0  0  0  0  0  0999 V2000
   38.1030   31.8900   47.4290 C   0  0  0  0  0  0  0  0  0  0  0  0
   38.6780   32.8250   48.2400 C   0  0  0  0  0  0  0  0  0  0  0  0
   38.3100   32.9800   49.5820 C   0  0  0  0  0  0  0  0  0  0  0  0
   37.2780   32.0930   50.0880 C   0  0  0  0  0  0  0  0  0  0  0  0
   36.7470   31.1880   49.2350 C   0  0  0  0  0  0  0  0  0  0  0  0
   37.1070   31.0490   47.9450 C   0  0  0  0  0  0  0  0  0  0  0  0
   39.4630   33.5060   47.8780 H   0  0  0  0  0  0  0  0  0  0  0  0
   38.8060   33.7410   50.1710 H   0  0  0  0  0  0  0  0  0  0  0  0
   37.1050   32.3250   51.1150 H   0  0  0  0  0  0  0  0  0  0  0  0
   36.0370   30.6350   49.8290 H   0  0  0  0  0  0  0  0  0  0  0  0
   39.8280   31.1520   45.8580 C   0  0  0  0  0  0  0  0  0  0  0  0
   38.6030   31.8410   46.0730 C   0  0  0  0  0  0  0  0  0  0  0  0
   38.0370   32.3750   44.9430 C   0  0  0  0  0  0  0  0  0  0  0  0
   38.6290   32.2350   43.7390 N   0  0  0  0  0  0  0  0  0  0  0  0
   39.7590   31.5950   43.5640 C   0  0  0  0  0  0  0  0  0  0  0  0
   40.3580   31.0540   44.6230 N   0  0  0  0  0  0  0  0  0  0  0  0
   40.3350   30.7010   46.7220 H   0  0  0  0  0  0  0  0  0  0  0  0
   37.0990   32.8940   45.1610 H   0  0  0  0  0  0  0  0  0  0  0  0
   40.1390   31.5470   42.5510 H   0  0  0  0  0  0  0  0  0  0  0  0
   35.0820   29.9980   47.3730 C   0  0  0  0  0  0  0  0  0  0  0  0
   34.5570   30.7020   48.3250 O   0  0  0  0  0  0  0  0  0  0  0  0
   36.5080   30.1230   47.1260 N   0  0  0  0  0  0  0  0  0  0  0  0
   37.0050   29.5610   46.4020 H   0  0  0  0  0  0  0  0  0  0  0  0
   34.2820   29.1640   46.6370 O   0  0  0  0  0  0  0  0  0  0  0  0
   33.1100   29.5540   45.9990 C   0  0  0  0  0  0  0  0  0  0  0  0
   33.0420   30.6470   45.2730 O   0  0  0  0  0  0  0  0  0  0  0  0
   31.8460   28.7980   46.0400 C   0  0  0  0  0  0  0  0  0  0  0  0
   31.5900   27.5510   46.4340 C   0  0  0  0  0  0  0  0  0  0  0  0
   32.4120   26.9480   46.7940 H   0  0  0  0  0  0  0  0  0  0  0  0
   30.3160   27.0500   46.3830 C   0  0  0  0  0  3  0  0  0  0  0  0
   29.3270   27.9640   45.8850 C   0  0  0  0  0  3  0  0  0  0  0  0
   30.3660   29.5110   45.5240 S   0  0  0  0  0  0  0  0  0  0  0  0
  1  6  2  0  0  0  0
  1  2  1  0  0  0  0
  2  3  2  0  0  0  0
  3  4  1  0  0  0  0
  3  8  1  0  0  0  0
  4  9  1  0  0  0  0
  5 10  1  0  0  0  0
  5  4  2  0  0  0  0
  6  5  1  0  0  0  0
  7  2  1  0  0  0  0
 11 12  1  0  0  0  0
 11 17  1  0  0  0  0
 12  1  1  0  0  0  0
 13 18  1  0  0  0  0
 13 12  2  0  0  0  0
 14 13  1  0  0  0  0
 15 14  2  0  0  0  0
 15 16  1  0  0  0  0
 16 11  2  0  0  0  0
 19 15  1  0  0  0  0
 20 21  2  0  0  0  0
 22 20  1  0  0  0  0
 22  6  1  0  0  0  0
 23 22  1  0  0  0  0
 24 20  1  0  0  0  0
 25 27  1  0  0  0  0
 25 24  1  0  0  0  0
 26 25  2  0  0  0  0
 27 28  2  0  0  0  0
 28 29  1  0  0  0  0
 30 28  1  0  0  0  0
 31 30  2  0  0  0  0
 32 31  1  0  0  0  0
 32 27  1  0  0  0  0
M  END
>  <minimizedAffinity>
-5.22814512

>  <minimizedRMSD>
0.642328441

$$$$
