
 OpenBabel03272500543D

 29 31  0  0  0  0  0  0  0  0999 V2000
   37.3030   31.1130   43.1780 C   0  0  0  0  0  0  0  0  0  0  0  0
   37.7480   30.6550   41.9410 C   0  0  0  0  0  0  0  0  0  0  0  0
   39.0010   30.9650   41.4410 C   0  0  0  0  0  0  0  0  0  0  0  0
   39.8670   31.7810   42.2140 C   0  0  0  0  0  0  0  0  0  0  0  0
   39.3930   32.2120   43.4240 C   0  0  0  0  0  0  0  0  0  0  0  0
   38.1650   31.9080   43.9230 C   0  0  0  0  0  0  0  0  0  0  0  0
   37.0970   30.0220   41.3240 H   0  0  0  0  0  0  0  0  0  0  0  0
   39.2560   30.5500   40.4540 H   0  0  0  0  0  0  0  0  0  0  0  0
   40.7850   31.9300   41.6980 H   0  0  0  0  0  0  0  0  0  0  0  0
   40.1730   32.8400   43.8010 H   0  0  0  0  0  0  0  0  0  0  0  0
   35.7930   29.5540   44.2520 C   0  0  0  0  0  0  0  0  0  0  0  0
   35.9430   30.7480   43.5260 C   0  0  0  0  0  0  0  0  0  0  0  0
   34.7710   31.4510   43.2190 C   0  0  0  0  0  0  0  0  0  0  0  0
   33.5810   30.9750   43.6150 N   0  0  0  0  0  0  0  0  0  0  0  0
   33.4490   29.8370   44.3050 C   0  0  0  0  0  0  0  0  0  0  0  0
   34.5580   29.1410   44.6140 N   0  0  0  0  0  0  0  0  0  0  0  0
   36.5760   28.8900   44.5730 H   0  0  0  0  0  0  0  0  0  0  0  0
   34.9380   32.3690   42.6570 H   0  0  0  0  0  0  0  0  0  0  0  0
   32.4520   29.5480   44.5710 H   0  0  0  0  0  0  0  0  0  0  0  0
   38.2920   31.5220   46.2240 C   0  0  0  0  0  0  0  0  0  0  0  0
   39.0130   30.5330   45.9190 O   0  0  0  0  0  0  0  0  0  0  0  0
   37.7080   32.3260   45.1780 N   0  0  0  0  0  0  0  0  0  0  0  0
   37.0510   33.0980   45.3310 H   0  0  0  0  0  0  0  0  0  0  0  0
   38.0170   31.9000   47.6310 C   0  0  0  0  0  0  0  0  0  0  0  0
   38.4130   32.7630   48.5150 C   0  0  0  0  0  0  0  0  0  0  0  0
   39.1770   33.4080   48.1060 H   0  0  0  0  0  0  0  0  0  0  0  0
   37.8720   32.7720   49.7690 C   0  0  0  0  0  3  0  0  0  0  0  0
   36.8660   31.7820   50.0170 C   0  0  0  0  0  3  0  0  0  0  0  0
   36.7840   30.8940   48.3640 S   0  0  0  0  0  0  0  0  0  0  0  0
  1 12  1  0  0  0  0
  1  6  1  0  0  0  0
  2  1  2  0  0  0  0
  3  2  1  0  0  0  0
  3  4  2  0  0  0  0
  4  5  1  0  0  0  0
  5 10  1  0  0  0  0
  5  6  2  0  0  0  0
  6 22  1  0  0  0  0
  7  2  1  0  0  0  0
  8  3  1  0  0  0  0
  9  4  1  0  0  0  0
 11 17  1  0  0  0  0
 11 16  1  0  0  0  0
 12 11  2  0  0  0  0
 13 12  1  0  0  0  0
 13 14  2  0  0  0  0
 14 15  1  0  0  0  0
 15 19  1  0  0  0  0
 15 16  2  0  0  0  0
 18 13  1  0  0  0  0
 20 24  1  0  0  0  0
 21 20  2  0  0  0  0
 22 23  1  0  0  0  0
 22 20  1  0  0  0  0
 24 29  1  0  0  0  0
 24 25  2  0  0  0  0
 25 27  1  0  0  0  0
 26 25  1  0  0  0  0
 27 28  2  0  0  0  0
 29 28  1  0  0  0  0
M  END
>  <minimizedAffinity>
-4.61484909

>  <minimizedRMSD>
5.14254332

$$$$
