
 OpenBabel03272508153D

 27 29  0  0  0  0  0  0  0  0999 V2000
   32.5140   28.0550   48.8180 Cl  0  0  0  0  0  0  0  0  0  0  0  0
   33.3350   28.8290   47.5020 C   0  0  0  0  0  0  0  0  0  0  0  0
   32.5620   28.9880   46.3870 C   0  0  0  0  0  0  0  0  0  0  0  0
   33.1290   29.6250   45.2690 C   0  0  0  0  0  0  0  0  0  0  0  0
   34.4160   30.0780   45.2800 C   0  0  0  0  0  0  0  0  0  0  0  0
   35.1720   29.9000   46.4260 C   0  0  0  0  0  0  0  0  0  0  0  0
   36.8240   30.4870   46.4670 Cl  0  0  0  0  0  0  0  0  0  0  0  0
   34.6200   29.2780   47.5170 C   0  0  0  0  0  0  0  0  0  0  0  0
   32.6050   29.8000   44.3420 H   0  0  0  0  0  0  0  0  0  0  0  0
   34.8900   30.5770   44.4320 H   0  0  0  0  0  0  0  0  0  0  0  0
   30.9650   27.2670   45.6200 C   0  0  0  0  0  0  0  0  0  0  0  0
   31.1750   28.5790   46.1400 C   0  0  0  0  0  0  0  0  0  0  0  0
   30.0670   29.3670   46.3690 C   0  0  0  0  0  0  0  0  0  0  0  0
   28.8390   28.8490   46.0880 N   0  0  0  0  0  0  0  0  0  0  0  0
   28.6730   27.6130   45.6010 C   0  0  0  0  0  0  0  0  0  0  0  0
   29.7330   26.8190   45.3660 N   0  0  0  0  0  0  0  0  0  0  0  0
   31.8530   26.6600   45.4460 H   0  0  0  0  0  0  0  0  0  0  0  0
   30.2350   30.3620   46.7630 H   0  0  0  0  0  0  0  0  0  0  0  0
   27.6500   27.3100   45.4170 H   0  0  0  0  0  0  0  0  0  0  0  0
   35.4010   29.0520   48.7260 C   0  0  0  0  0  0  0  0  0  0  0  0
   35.4690   27.9840   49.4110 O   0  0  0  0  0  0  0  0  0  0  0  0
   36.2330   30.1500   49.2800 C   0  0  0  0  0  0  0  0  0  0  0  0
   35.9090   31.4180   49.5690 C   0  0  0  0  0  0  0  0  0  0  0  0
   34.8800   31.7910   49.4230 H   0  0  0  0  0  0  0  0  0  0  0  0
   36.8220   32.2780   50.0460 C   0  0  0  0  0  3  0  0  0  0  0  0
   38.1130   31.7750   50.2200 C   0  0  0  0  0  3  0  0  0  0  0  0
   37.9450   29.9730   49.6540 S   0  0  0  0  0  0  0  0  0  0  0  0
  2  8  1  0  0  0  0
  2  1  1  0  0  0  0
  3  2  2  0  0  0  0
  4  5  2  0  0  0  0
  4  3  1  0  0  0  0
  5  6  1  0  0  0  0
  6  7  1  0  0  0  0
  6  8  2  0  0  0  0
  8 20  1  0  0  0  0
  9  4  1  0  0  0  0
 10  5  1  0  0  0  0
 11 12  1  0  0  0  0
 12 13  2  0  0  0  0
 12  3  1  0  0  0  0
 13 18  1  0  0  0  0
 14 13  1  0  0  0  0
 15 14  2  0  0  0  0
 16 15  1  0  0  0  0
 16 11  2  0  0  0  0
 17 11  1  0  0  0  0
 19 15  1  0  0  0  0
 20 22  1  0  0  0  0
 20 21  2  0  0  0  0
 22 23  2  0  0  0  0
 22 27  1  0  0  0  0
 23 25  1  0  0  0  0
 24 23  1  0  0  0  0
 25 26  2  0  0  0  0
 27 26  1  0  0  0  0
M  END
>  <minimizedAffinity>
-4.07964563

>  <minimizedRMSD>
5.10592079

$$$$
