
 OpenBabel03272508153D

 27 29  0  0  0  0  0  0  0  0999 V2000
   34.8250   30.6770   47.3840 Cl  0  0  0  0  0  0  0  0  0  0  0  0
   36.1630   30.4780   46.3000 C   0  0  0  0  0  0  0  0  0  0  0  0
   35.8370   29.8510   45.1310 C   0  0  0  0  0  0  0  0  0  0  0  0
   36.8480   29.6600   44.1740 C   0  0  0  0  0  0  0  0  0  0  0  0
   38.1280   30.0810   44.3900 C   0  0  0  0  0  0  0  0  0  0  0  0
   38.4250   30.7120   45.5860 C   0  0  0  0  0  0  0  0  0  0  0  0
   40.0590   31.2740   45.8800 Cl  0  0  0  0  0  0  0  0  0  0  0  0
   37.4380   30.8980   46.5210 C   0  0  0  0  0  0  0  0  0  0  0  0
   36.6950   29.1770   43.2200 H   0  0  0  0  0  0  0  0  0  0  0  0
   38.9380   29.9500   43.6700 H   0  0  0  0  0  0  0  0  0  0  0  0
   34.2440   27.9650   45.0550 C   0  0  0  0  0  0  0  0  0  0  0  0
   34.5480   29.3090   44.6840 C   0  0  0  0  0  0  0  0  0  0  0  0
   33.6190   29.9970   43.9340 C   0  0  0  0  0  0  0  0  0  0  0  0
   32.4660   29.3580   43.5920 N   0  0  0  0  0  0  0  0  0  0  0  0
   32.2070   28.0960   43.9560 C   0  0  0  0  0  0  0  0  0  0  0  0
   33.0930   27.3960   44.6870 N   0  0  0  0  0  0  0  0  0  0  0  0
   34.9910   27.4380   45.6490 H   0  0  0  0  0  0  0  0  0  0  0  0
   33.8580   31.0170   43.6560 H   0  0  0  0  0  0  0  0  0  0  0  0
   31.2590   27.6930   43.6250 H   0  0  0  0  0  0  0  0  0  0  0  0
   37.7280   31.5330   47.8000 C   0  0  0  0  0  0  0  0  0  0  0  0
   38.1850   32.7020   47.9940 O   0  0  0  0  0  0  0  0  0  0  0  0
   37.4900   30.7870   49.0620 C   0  0  0  0  0  0  0  0  0  0  0  0
   37.7500   29.5100   49.3730 C   0  0  0  0  0  0  0  0  0  0  0  0
   38.2320   28.8340   48.6460 H   0  0  0  0  0  0  0  0  0  0  0  0
   37.4340   29.0070   50.5760 C   0  0  0  0  0  3  0  0  0  0  0  0
   36.8240   29.8890   51.4720 C   0  0  0  0  0  3  0  0  0  0  0  0
   36.7290   31.5020   50.4810 S   0  0  0  0  0  0  0  0  0  0  0  0
  2  8  1  0  0  0  0
  2  1  1  0  0  0  0
  3  2  2  0  0  0  0
  4  5  2  0  0  0  0
  4  3  1  0  0  0  0
  5  6  1  0  0  0  0
  6  7  1  0  0  0  0
  6  8  2  0  0  0  0
  8 20  1  0  0  0  0
  9  4  1  0  0  0  0
 10  5  1  0  0  0  0
 11 17  1  0  0  0  0
 12 11  2  0  0  0  0
 12  3  1  0  0  0  0
 13 12  1  0  0  0  0
 14 13  2  0  0  0  0
 14 15  1  0  0  0  0
 15 16  2  0  0  0  0
 16 11  1  0  0  0  0
 18 13  1  0  0  0  0
 19 15  1  0  0  0  0
 20 21  2  0  0  0  0
 20 22  1  0  0  0  0
 22 23  2  0  0  0  0
 22 27  1  0  0  0  0
 23 25  1  0  0  0  0
 24 23  1  0  0  0  0
 25 26  2  0  0  0  0
 27 26  1  0  0  0  0
M  END
>  <minimizedAffinity>
-3.98122072

>  <minimizedRMSD>
3.56833863

$$$$
