
 OpenBabel03272508503D

 26 28  0  0  1  0  0  0  0  0999 V2000
   38.2200   30.7040   46.3690 C   0  0  2  0  0  0  0  0  0  0  0  0
   39.6210   30.8950   46.0180 C   0  0  0  0  0  0  0  0  0  0  0  0
   38.5340   31.8990   45.5960 C   0  0  1  0  0  0  0  0  0  0  0  0
   37.5840   29.9610   45.7980 H   0  0  0  0  0  0  0  0  0  0  0  0
   40.3650   31.1910   46.7820 H   0  0  0  0  0  0  0  0  0  0  0  0
   40.0650   30.3380   45.1940 H   0  0  0  0  0  0  0  0  0  0  0  0
   38.7710   32.8750   46.0310 H   0  0  0  0  0  0  0  0  0  0  0  0
   35.9120   30.8010   49.2710 C   0  0  0  0  0  0  0  0  0  0  0  0
   36.7970   31.1360   50.3290 C   0  0  0  0  0  0  0  0  0  0  0  0
   38.1900   31.3280   50.0350 C   0  0  0  0  0  0  0  0  0  0  0  0
   38.5840   31.1750   48.7390 N   0  0  0  0  0  0  0  0  0  0  0  0
   37.6950   30.8530   47.7620 C   0  0  0  0  0  0  0  0  0  0  0  0
   36.3800   30.6640   47.9870 N   0  0  0  0  0  0  0  0  0  0  0  0
   34.8950   30.6790   49.5870 H   0  0  0  0  0  0  0  0  0  0  0  0
   36.4500   31.2460   51.3270 H   0  0  0  0  0  0  0  0  0  0  0  0
   38.8810   31.5790   50.8020 H   0  0  0  0  0  0  0  0  0  0  0  0
   38.8830   32.8430   43.3410 C   0  0  0  0  0  0  0  0  0  0  0  0
   39.7930   33.5670   43.8090 O   0  0  0  0  0  0  0  0  0  0  0  0
   38.2280   31.8600   44.1640 N   0  0  0  0  0  0  0  0  0  0  0  0
   37.5640   31.1360   43.8250 H   0  0  0  0  0  0  0  0  0  0  0  0
   38.3300   32.8390   41.9600 C   0  0  0  0  0  0  0  0  0  0  0  0
   37.0730   33.3800   41.6660 C   0  0  0  0  0  0  0  0  0  0  0  0
   36.4320   33.8300   42.4120 H   0  0  0  0  0  0  0  0  0  0  0  0
   36.5950   33.3660   40.4100 C   0  0  0  0  0  3  0  0  0  0  0  0
   37.4870   32.7410   39.3740 C   0  0  0  0  0  3  0  0  0  0  0  0
   38.9630   32.2490   40.4640 S   0  0  0  0  0  0  0  0  0  0  0  0
  1  4  1  6  0  0  0
  1 12  1  0  0  0  0
  2  1  1  0  0  0  0
  2  5  1  0  0  0  0
  3  2  1  0  0  0  0
  3  7  1  1  0  0  0
  3  1  1  0  0  0  0
  6  2  1  0  0  0  0
  8 14  1  0  0  0  0
  8  9  1  0  0  0  0
  9 15  1  0  0  0  0
 10  9  2  0  0  0  0
 10 16  1  0  0  0  0
 11 10  1  0  0  0  0
 12 13  1  0  0  0  0
 12 11  2  0  0  0  0
 13  8  2  0  0  0  0
 17 18  2  0  0  0  0
 17 19  1  0  0  0  0
 19  3  1  0  0  0  0
 20 19  1  0  0  0  0
 21 17  1  0  0  0  0
 22 21  2  0  0  0  0
 22 23  1  0  0  0  0
 24 22  1  0  0  0  0
 25 24  2  0  0  0  0
 25 26  1  0  0  0  0
 26 21  1  0  0  0  0
M  END
>  <minimizedAffinity>
-4.24056482

>  <minimizedRMSD>
8.38273716

$$$$
