
 OpenBabel03272508503D

 26 28  0  0  1  0  0  0  0  0999 V2000
   38.0880   31.3650   44.0430 C   0  0  2  0  0  0  0  0  0  0  0  0
   37.7940   29.9400   43.9550 C   0  0  0  0  0  0  0  0  0  0  0  0
   37.0260   30.8710   44.9110 C   0  0  1  0  0  0  0  0  0  0  0  0
   38.9970   31.7250   44.6160 H   0  0  0  0  0  0  0  0  0  0  0  0
   37.2730   29.5200   43.0750 H   0  0  0  0  0  0  0  0  0  0  0  0
   38.4330   29.2120   44.4520 H   0  0  0  0  0  0  0  0  0  0  0  0
   35.9650   30.8510   44.6420 H   0  0  0  0  0  0  0  0  0  0  0  0
   36.1680   33.5650   41.7570 C   0  0  0  0  0  0  0  0  0  0  0  0
   37.2040   34.1340   40.9710 C   0  0  0  0  0  0  0  0  0  0  0  0
   38.5650   33.7540   41.2330 C   0  0  0  0  0  0  0  0  0  0  0  0
   38.7820   32.8570   42.2360 N   0  0  0  0  0  0  0  0  0  0  0  0
   37.7530   32.3410   42.9610 C   0  0  0  0  0  0  0  0  0  0  0  0
   36.4620   32.6660   42.7520 N   0  0  0  0  0  0  0  0  0  0  0  0
   35.1890   33.9080   41.4870 H   0  0  0  0  0  0  0  0  0  0  0  0
   36.9920   34.8300   40.1980 H   0  0  0  0  0  0  0  0  0  0  0  0
   39.3640   34.1590   40.6650 H   0  0  0  0  0  0  0  0  0  0  0  0
   36.2680   30.3850   47.2100 C   0  0  0  0  0  0  0  0  0  0  0  0
   35.1210   30.1560   46.7600 O   0  0  0  0  0  0  0  0  0  0  0  0
   37.3640   30.6670   46.3220 N   0  0  0  0  0  0  0  0  0  0  0  0
   38.3640   30.7360   46.5990 H   0  0  0  0  0  0  0  0  0  0  0  0
   36.7100   30.4140   48.6310 C   0  0  0  0  0  0  0  0  0  0  0  0
   37.9150   31.0100   49.0170 C   0  0  0  0  0  0  0  0  0  0  0  0
   38.5940   31.4810   48.3210 H   0  0  0  0  0  0  0  0  0  0  0  0
   38.2930   31.0220   50.3080 C   0  0  0  0  0  3  0  0  0  0  0  0
   37.3490   30.3660   51.2760 C   0  0  0  0  0  3  0  0  0  0  0  0
   35.9850   29.8050   50.0760 S   0  0  0  0  0  0  0  0  0  0  0  0
  1  4  1  1  0  0  0
  1  3  1  0  0  0  0
  2  1  1  0  0  0  0
  2  6  1  0  0  0  0
  2  3  1  0  0  0  0
  3  7  1  6  0  0  0
  3 19  1  0  0  0  0
  5  2  1  0  0  0  0
  8 13  1  0  0  0  0
  9 10  1  0  0  0  0
  9  8  2  0  0  0  0
 10 11  2  0  0  0  0
 11 12  1  0  0  0  0
 12  1  1  0  0  0  0
 13 12  2  0  0  0  0
 14  8  1  0  0  0  0
 15  9  1  0  0  0  0
 16 10  1  0  0  0  0
 17 21  1  0  0  0  0
 18 17  2  0  0  0  0
 19 20  1  0  0  0  0
 19 17  1  0  0  0  0
 21 22  2  0  0  0  0
 21 26  1  0  0  0  0
 22 24  1  0  0  0  0
 23 22  1  0  0  0  0
 24 25  2  0  0  0  0
 26 25  1  0  0  0  0
M  END
>  <minimizedAffinity>
-4.39454317

>  <minimizedRMSD>
4.01465559

$$$$
