
 OpenBabel03272508503D

 26 28  0  0  1  0  0  0  0  0999 V2000
   37.7340   31.5490   44.0220 C   0  0  2  0  0  0  0  0  0  0  0  0
   37.7680   30.1020   43.8600 C   0  0  0  0  0  0  0  0  0  0  0  0
   36.7990   30.7860   44.8400 C   0  0  1  0  0  0  0  0  0  0  0  0
   38.5310   32.0740   44.6320 H   0  0  0  0  0  0  0  0  0  0  0  0
   37.3660   29.6210   42.9480 H   0  0  0  0  0  0  0  0  0  0  0  0
   38.5490   29.5100   44.3370 H   0  0  0  0  0  0  0  0  0  0  0  0
   35.7730   30.5430   44.5460 H   0  0  0  0  0  0  0  0  0  0  0  0
   35.4060   33.6090   42.0000 C   0  0  0  0  0  0  0  0  0  0  0  0
   36.2880   34.1920   41.0530 C   0  0  0  0  0  0  0  0  0  0  0  0
   37.6870   33.8690   41.1160 C   0  0  0  0  0  0  0  0  0  0  0  0
   38.0880   33.0100   42.0960 N   0  0  0  0  0  0  0  0  0  0  0  0
   37.2010   32.4800   42.9800 C   0  0  0  0  0  0  0  0  0  0  0  0
   35.8820   32.7510   42.9610 N   0  0  0  0  0  0  0  0  0  0  0  0
   34.3840   33.9090   41.8730 H   0  0  0  0  0  0  0  0  0  0  0  0
   35.9360   34.8570   40.3040 H   0  0  0  0  0  0  0  0  0  0  0  0
   38.3760   34.2860   40.4240 H   0  0  0  0  0  0  0  0  0  0  0  0
   36.0710   30.3350   47.1560 C   0  0  0  0  0  0  0  0  0  0  0  0
   34.9130   30.1200   46.7270 O   0  0  0  0  0  0  0  0  0  0  0  0
   37.1570   30.5900   46.2470 N   0  0  0  0  0  0  0  0  0  0  0  0
   38.1620   30.6470   46.5080 H   0  0  0  0  0  0  0  0  0  0  0  0
   36.5360   30.3700   48.5690 C   0  0  0  0  0  0  0  0  0  0  0  0
   36.4010   29.2650   49.4170 C   0  0  0  0  0  0  0  0  0  0  0  0
   35.9590   28.3290   49.1080 H   0  0  0  0  0  0  0  0  0  0  0  0
   36.8300   29.3210   50.6900 C   0  0  0  0  0  3  0  0  0  0  0  0
   37.4450   30.6230   51.1210 C   0  0  0  0  0  3  0  0  0  0  0  0
   37.2910   31.6100   49.5070 S   0  0  0  0  0  0  0  0  0  0  0  0
  1  4  1  1  0  0  0
  1  3  1  0  0  0  0
  2  1  1  0  0  0  0
  2  6  1  0  0  0  0
  2  3  1  0  0  0  0
  3  7  1  6  0  0  0
  3 19  1  0  0  0  0
  5  2  1  0  0  0  0
  8 13  1  0  0  0  0
  9 10  1  0  0  0  0
  9  8  2  0  0  0  0
 10 11  2  0  0  0  0
 11 12  1  0  0  0  0
 12  1  1  0  0  0  0
 13 12  2  0  0  0  0
 14  8  1  0  0  0  0
 15  9  1  0  0  0  0
 16 10  1  0  0  0  0
 17 21  1  0  0  0  0
 18 17  2  0  0  0  0
 19 20  1  0  0  0  0
 19 17  1  0  0  0  0
 21 22  2  0  0  0  0
 21 26  1  0  0  0  0
 22 24  1  0  0  0  0
 23 22  1  0  0  0  0
 24 25  2  0  0  0  0
 26 25  1  0  0  0  0
M  END
>  <minimizedAffinity>
-4.29892635

>  <minimizedRMSD>
4.20186234

$$$$
