
 OpenBabel03272507413D

 38 41  0  0  0  0  0  0  0  0999 V2000
   38.2010   32.2290   47.2940 C   0  0  0  0  0  0  0  0  0  0  0  0
   37.8090   32.6570   48.5510 C   0  0  0  0  0  0  0  0  0  0  0  0
   38.5710   33.5860   49.2330 C   0  0  0  0  0  0  0  0  0  0  0  0
   39.7320   34.0890   48.6510 C   0  0  0  0  0  0  0  0  0  0  0  0
   40.1110   33.6540   47.3990 C   0  0  0  0  0  0  0  0  0  0  0  0
   39.3330   32.7320   46.7490 C   0  0  0  0  0  0  0  0  0  0  0  0
   38.3280   33.9660   50.2150 H   0  0  0  0  0  0  0  0  0  0  0  0
   40.3270   34.8170   49.1900 H   0  0  0  0  0  0  0  0  0  0  0  0
   41.0190   34.0530   46.9540 H   0  0  0  0  0  0  0  0  0  0  0  0
   39.7530   32.2750   45.4050 C   0  0  0  0  0  0  0  0  0  0  0  0
   40.5770   31.2270   45.0600 C   0  0  0  0  0  0  0  0  0  0  0  0
   40.6630   31.2060   43.6680 C   0  0  0  0  0  0  0  0  0  0  0  0
   39.8710   32.2620   43.2510 C   0  0  0  0  0  0  0  0  0  0  0  0
   39.3430   32.8790   44.2960 O   0  0  0  0  0  0  0  0  0  0  0  0
   41.0570   30.5570   45.7560 H   0  0  0  0  0  0  0  0  0  0  0  0
   41.2270   30.5150   43.0530 H   0  0  0  0  0  0  0  0  0  0  0  0
   39.6810   32.5770   42.2180 H   0  0  0  0  0  0  0  0  0  0  0  0
   36.6850   30.5020   46.1240 N   0  0  0  0  0  0  0  0  0  0  0  0
   37.3590   31.2680   46.6550 C   0  0  0  0  0  0  0  0  0  0  0  0
   36.6850   32.2450   49.2450 O   0  0  0  0  0  0  0  0  0  0  0  0
   36.6440   31.1810   50.0870 C   0  0  0  0  0  0  0  0  0  0  0  0
   35.5470   30.3550   49.8270 C   0  0  0  0  0  0  0  0  0  0  0  0
   35.3400   29.2160   50.5890 C   0  0  0  0  0  0  0  0  0  0  0  0
   36.2350   28.9380   51.5820 N   0  0  0  0  0  0  0  0  0  0  0  0
   37.2960   29.7670   51.8100 C   0  0  0  0  0  0  0  0  0  0  0  0
   37.4750   30.8430   51.0770 N   0  0  0  0  0  0  0  0  0  0  0  0
   34.5410   28.5270   50.4710 H   0  0  0  0  0  0  0  0  0  0  0  0
   38.0000   29.5280   52.6090 H   0  0  0  0  0  0  0  0  0  0  0  0
   34.2100   29.4710   48.0020 C   0  0  0  0  0  0  0  0  0  0  0  0
   34.6740   28.2650   47.8150 O   0  0  0  0  0  0  0  0  0  0  0  0
   34.5800   30.5390   48.8470 N   0  0  0  0  0  0  0  0  0  0  0  0
   34.0910   31.4190   48.6730 H   0  0  0  0  0  0  0  0  0  0  0  0
   33.0540   29.5880   47.0570 C   0  0  0  0  0  0  0  0  0  0  0  0
   32.8590   30.6310   46.2950 C   0  0  0  0  0  0  0  0  0  0  0  0
   33.4310   31.5670   46.1760 H   0  0  0  0  0  0  0  0  0  0  0  0
   31.8730   30.8700   45.4070 C   0  0  0  0  0  3  0  0  0  0  0  0
   30.9790   29.7070   45.4140 C   0  0  0  0  0  3  0  0  0  0  0  0
   31.7660   28.5190   46.7110 S   0  0  0  0  0  0  0  0  0  0  0  0
  1  2  1  0  0  0  0
  2  3  2  0  0  0  0
  2 20  1  0  0  0  0
  3  7  1  0  0  0  0
  4  8  1  0  0  0  0
  4  3  1  0  0  0  0
  5  4  2  0  0  0  0
  6  1  2  0  0  0  0
  6  5  1  0  0  0  0
  9  5  1  0  0  0  0
 10  6  1  0  0  0  0
 11 10  2  0  0  0  0
 11 15  1  0  0  0  0
 12 11  1  0  0  0  0
 13 12  2  0  0  0  0
 13 14  1  0  0  0  0
 14 10  1  0  0  0  0
 16 12  1  0  0  0  0
 17 13  1  0  0  0  0
 18 19  3  0  0  0  0
 19  1  1  0  0  0  0
 20 21  1  0  0  0  0
 21 26  1  0  0  0  0
 22 21  2  0  0  0  0
 22 23  1  0  0  0  0
 23 24  2  0  0  0  0
 24 25  1  0  0  0  0
 25 28  1  0  0  0  0
 26 25  2  0  0  0  0
 27 23  1  0  0  0  0
 29 31  1  0  0  0  0
 30 29  2  0  0  0  0
 31 22  1  0  0  0  0
 32 31  1  0  0  0  0
 33 29  1  0  0  0  0
 34 33  2  0  0  0  0
 35 34  1  0  0  0  0
 36 37  2  0  0  0  0
 36 34  1  0  0  0  0
 37 38  1  0  0  0  0
 38 33  1  0  0  0  0
M  END
>  <minimizedAffinity>
-6.00951385

>  <minimizedRMSD>
0.293765873

$$$$
