
 OpenBabel03272507403D

 38 41  0  0  0  0  0  0  0  0999 V2000
   38.2010   32.2280   47.2940 C   0  0  0  0  0  0  0  0  0  0  0  0
   37.8090   32.6570   48.5490 C   0  0  0  0  0  0  0  0  0  0  0  0
   38.5710   33.5860   49.2310 C   0  0  0  0  0  0  0  0  0  0  0  0
   39.7320   34.0880   48.6500 C   0  0  0  0  0  0  0  0  0  0  0  0
   40.1110   33.6530   47.3970 C   0  0  0  0  0  0  0  0  0  0  0  0
   39.3330   32.7310   46.7480 C   0  0  0  0  0  0  0  0  0  0  0  0
   38.3270   33.9660   50.2130 H   0  0  0  0  0  0  0  0  0  0  0  0
   40.3270   34.8170   49.1880 H   0  0  0  0  0  0  0  0  0  0  0  0
   41.0190   34.0520   46.9520 H   0  0  0  0  0  0  0  0  0  0  0  0
   39.7530   32.2740   45.4040 C   0  0  0  0  0  0  0  0  0  0  0  0
   40.5750   31.2240   45.0590 C   0  0  0  0  0  0  0  0  0  0  0  0
   40.6620   31.2030   43.6670 C   0  0  0  0  0  0  0  0  0  0  0  0
   39.8730   32.2620   43.2500 C   0  0  0  0  0  0  0  0  0  0  0  0
   39.3460   32.8790   44.2950 O   0  0  0  0  0  0  0  0  0  0  0  0
   41.0530   30.5520   45.7550 H   0  0  0  0  0  0  0  0  0  0  0  0
   41.2240   30.5110   43.0520 H   0  0  0  0  0  0  0  0  0  0  0  0
   39.6840   32.5780   42.2170 H   0  0  0  0  0  0  0  0  0  0  0  0
   36.6850   30.5010   46.1240 N   0  0  0  0  0  0  0  0  0  0  0  0
   37.3590   31.2670   46.6550 C   0  0  0  0  0  0  0  0  0  0  0  0
   36.6850   32.2440   49.2450 O   0  0  0  0  0  0  0  0  0  0  0  0
   36.6440   31.1800   50.0860 C   0  0  0  0  0  0  0  0  0  0  0  0
   35.5460   30.3550   49.8260 C   0  0  0  0  0  0  0  0  0  0  0  0
   35.3400   29.2150   50.5880 C   0  0  0  0  0  0  0  0  0  0  0  0
   36.2350   28.9380   51.5810 N   0  0  0  0  0  0  0  0  0  0  0  0
   37.2950   29.7660   51.8090 C   0  0  0  0  0  0  0  0  0  0  0  0
   37.4750   30.8420   51.0760 N   0  0  0  0  0  0  0  0  0  0  0  0
   34.5410   28.5260   50.4700 H   0  0  0  0  0  0  0  0  0  0  0  0
   38.0000   29.5270   52.6080 H   0  0  0  0  0  0  0  0  0  0  0  0
   34.2090   29.4700   48.0020 C   0  0  0  0  0  0  0  0  0  0  0  0
   34.6720   28.2630   47.8160 O   0  0  0  0  0  0  0  0  0  0  0  0
   34.5800   30.5390   48.8460 N   0  0  0  0  0  0  0  0  0  0  0  0
   34.0920   31.4190   48.6710 H   0  0  0  0  0  0  0  0  0  0  0  0
   33.0530   29.5880   47.0570 C   0  0  0  0  0  0  0  0  0  0  0  0
   32.8600   30.6300   46.2930 C   0  0  0  0  0  0  0  0  0  0  0  0
   33.4320   31.5650   46.1740 H   0  0  0  0  0  0  0  0  0  0  0  0
   31.8730   30.8680   45.4060 C   0  0  0  0  0  3  0  0  0  0  0  0
   30.9790   29.7070   45.4140 C   0  0  0  0  0  3  0  0  0  0  0  0
   31.7640   28.5190   46.7120 S   0  0  0  0  0  0  0  0  0  0  0  0
  1  2  1  0  0  0  0
  2  3  2  0  0  0  0
  2 20  1  0  0  0  0
  3  7  1  0  0  0  0
  4  8  1  0  0  0  0
  4  3  1  0  0  0  0
  5  4  2  0  0  0  0
  6  1  2  0  0  0  0
  6  5  1  0  0  0  0
  9  5  1  0  0  0  0
 10  6  1  0  0  0  0
 11 10  2  0  0  0  0
 11 15  1  0  0  0  0
 12 11  1  0  0  0  0
 13 12  2  0  0  0  0
 13 14  1  0  0  0  0
 14 10  1  0  0  0  0
 16 12  1  0  0  0  0
 17 13  1  0  0  0  0
 18 19  3  0  0  0  0
 19  1  1  0  0  0  0
 20 21  1  0  0  0  0
 21 26  1  0  0  0  0
 22 21  2  0  0  0  0
 22 23  1  0  0  0  0
 23 24  2  0  0  0  0
 24 25  1  0  0  0  0
 25 28  1  0  0  0  0
 26 25  2  0  0  0  0
 27 23  1  0  0  0  0
 29 31  1  0  0  0  0
 30 29  2  0  0  0  0
 31 22  1  0  0  0  0
 32 31  1  0  0  0  0
 33 29  1  0  0  0  0
 34 33  2  0  0  0  0
 35 34  1  0  0  0  0
 36 37  2  0  0  0  0
 36 34  1  0  0  0  0
 37 38  1  0  0  0  0
 38 33  1  0  0  0  0
M  END
>  <minimizedAffinity>
-6.00819635

>  <minimizedRMSD>
0.335427135

$$$$
