
 OpenBabel03272503243D

 29 31  0  0  1  0  0  0  0  0999 V2000
   36.4130   29.8160   49.3250 N   0  0  0  0  0  0  0  0  0  0  0  0
   37.0590   31.0730   49.1670 C   0  0  1  0  0  0  0  0  0  0  0  0
   37.6110   31.4050   50.5340 C   0  0  0  0  0  0  0  0  0  0  0  0
   37.2550   30.1640   51.3890 C   0  0  0  0  0  0  0  0  0  0  0  0
   37.1260   29.1180   50.3470 C   0  0  0  0  0  0  0  0  0  0  0  0
   36.2200   31.8790   49.0120 H   0  0  0  0  0  0  0  0  0  0  0  0
   38.6980   31.5500   50.4660 H   0  0  0  0  0  0  0  0  0  0  0  0
   37.0640   32.2260   51.0210 H   0  0  0  0  0  0  0  0  0  0  0  0
   38.1780   29.9690   51.9880 H   0  0  0  0  0  0  0  0  0  0  0  0
   36.3640   30.3130   51.9900 H   0  0  0  0  0  0  0  0  0  0  0  0
   38.0910   28.6980   50.0240 H   0  0  0  0  0  0  0  0  0  0  0  0
   36.5250   28.2520   50.7470 H   0  0  0  0  0  0  0  0  0  0  0  0
   35.2710   29.3670   48.6090 C   0  0  0  0  0  0  0  0  0  0  0  0
   34.5990   30.2850   47.7840 C   0  0  0  0  0  0  0  0  0  0  0  0
   33.4790   29.8640   47.0600 C   0  0  0  0  0  0  0  0  0  0  0  0
   33.1110   28.5330   47.2220 N   0  0  0  0  0  0  0  0  0  0  0  0
   33.7810   27.6990   48.0170 C   0  0  0  0  0  0  0  0  0  0  0  0
   34.8820   28.0900   48.7340 N   0  0  0  0  0  0  0  0  0  0  0  0
   34.8770   31.3190   47.6520 H   0  0  0  0  0  0  0  0  0  0  0  0
   32.9480   30.5530   46.4220 H   0  0  0  0  0  0  0  0  0  0  0  0
   33.4070   26.6830   48.0680 H   0  0  0  0  0  0  0  0  0  0  0  0
   37.9380   31.2640   48.0490 C   0  0  0  0  0  0  0  0  0  0  0  0
   38.9430   31.9090   48.1500 O   0  0  0  0  0  0  0  0  0  0  0  0
   38.1060   30.9410   46.5860 C   0  0  0  0  0  0  0  0  0  0  0  0
   37.1400   30.7100   45.7250 C   0  0  0  0  0  0  0  0  0  0  0  0
   36.0640   30.6810   45.7610 H   0  0  0  0  0  0  0  0  0  0  0  0
   37.3290   30.4110   44.4290 C   0  0  0  0  0  3  0  0  0  0  0  0
   38.7110   30.3580   44.0400 C   0  0  0  0  0  3  0  0  0  0  0  0
   39.5700   30.7760   45.7070 S   0  0  0  0  0  0  0  0  0  0  0  0
  1  5  1  0  0  0  0
  2  6  1  6  0  0  0
  2  1  1  0  0  0  0
  2  3  1  0  0  0  0
  3  8  1  0  0  0  0
  3  4  1  0  0  0  0
  4  9  1  0  0  0  0
  4 10  1  0  0  0  0
  5 12  1  0  0  0  0
  5  4  1  0  0  0  0
  7  3  1  0  0  0  0
 11  5  1  0  0  0  0
 13 18  1  0  0  0  0
 13  1  1  0  0  0  0
 14 13  2  0  0  0  0
 15 16  2  0  0  0  0
 15 14  1  0  0  0  0
 16 17  1  0  0  0  0
 17 21  1  0  0  0  0
 17 18  2  0  0  0  0
 19 14  1  0  0  0  0
 20 15  1  0  0  0  0
 22 23  2  0  0  0  0
 22  2  1  0  0  0  0
 24 22  1  0  0  0  0
 25 26  1  0  0  0  0
 25 24  2  0  0  0  0
 27 25  1  0  0  0  0
 28 27  2  0  0  0  0
 28 29  1  0  0  0  0
 29 24  1  0  0  0  0
M  END
>  <minimizedAffinity>
-5.04809761

>  <minimizedRMSD>
0.854186594

$$$$
