
 OpenBabel03272503243D

 29 31  0  0  1  0  0  0  0  0999 V2000
   36.4140   29.8130   49.2480 N   0  0  0  0  0  0  0  0  0  0  0  0
   37.0680   31.0530   49.0110 C   0  0  1  0  0  0  0  0  0  0  0  0
   37.6540   31.4490   50.3450 C   0  0  0  0  0  0  0  0  0  0  0  0
   37.3070   30.2570   51.2710 C   0  0  0  0  0  0  0  0  0  0  0  0
   37.1440   29.1610   50.2880 C   0  0  0  0  0  0  0  0  0  0  0  0
   36.2340   31.8590   48.8330 H   0  0  0  0  0  0  0  0  0  0  0  0
   38.7420   31.5790   50.2460 H   0  0  0  0  0  0  0  0  0  0  0  0
   37.1270   32.3000   50.8020 H   0  0  0  0  0  0  0  0  0  0  0  0
   38.2410   30.0840   51.8590 H   0  0  0  0  0  0  0  0  0  0  0  0
   36.4310   30.4460   51.8840 H   0  0  0  0  0  0  0  0  0  0  0  0
   38.0960   28.7150   49.9650 H   0  0  0  0  0  0  0  0  0  0  0  0
   36.5430   28.3230   50.7460 H   0  0  0  0  0  0  0  0  0  0  0  0
   35.2510   29.3400   48.5820 C   0  0  0  0  0  0  0  0  0  0  0  0
   34.5580   30.2280   47.7420 C   0  0  0  0  0  0  0  0  0  0  0  0
   33.4170   29.7840   47.0660 C   0  0  0  0  0  0  0  0  0  0  0  0
   33.0510   28.4600   47.2890 N   0  0  0  0  0  0  0  0  0  0  0  0
   33.7420   27.6560   48.0960 C   0  0  0  0  0  0  0  0  0  0  0  0
   34.8630   28.0700   48.7670 N   0  0  0  0  0  0  0  0  0  0  0  0
   34.8340   31.2560   47.5630 H   0  0  0  0  0  0  0  0  0  0  0  0
   32.8690   30.4490   46.4170 H   0  0  0  0  0  0  0  0  0  0  0  0
   33.3670   26.6440   48.1960 H   0  0  0  0  0  0  0  0  0  0  0  0
   37.9230   31.1770   47.8650 C   0  0  0  0  0  0  0  0  0  0  0  0
   38.9850   31.7260   47.9360 O   0  0  0  0  0  0  0  0  0  0  0  0
   38.0110   30.8580   46.3930 C   0  0  0  0  0  0  0  0  0  0  0  0
   36.9990   30.6910   45.5720 C   0  0  0  0  0  0  0  0  0  0  0  0
   35.9250   30.7220   45.6540 H   0  0  0  0  0  0  0  0  0  0  0  0
   37.1150   30.3920   44.2670 C   0  0  0  0  0  3  0  0  0  0  0  0
   38.4750   30.2650   43.8210 C   0  0  0  0  0  3  0  0  0  0  0  0
   39.4260   30.6170   45.4530 S   0  0  0  0  0  0  0  0  0  0  0  0
  1  5  1  0  0  0  0
  2  6  1  6  0  0  0
  2  1  1  0  0  0  0
  2  3  1  0  0  0  0
  3  8  1  0  0  0  0
  3  4  1  0  0  0  0
  4  9  1  0  0  0  0
  4 10  1  0  0  0  0
  5 12  1  0  0  0  0
  5  4  1  0  0  0  0
  7  3  1  0  0  0  0
 11  5  1  0  0  0  0
 13 18  1  0  0  0  0
 13  1  1  0  0  0  0
 14 13  2  0  0  0  0
 15 16  2  0  0  0  0
 15 14  1  0  0  0  0
 16 17  1  0  0  0  0
 17 21  1  0  0  0  0
 17 18  2  0  0  0  0
 19 14  1  0  0  0  0
 20 15  1  0  0  0  0
 22 23  2  0  0  0  0
 22  2  1  0  0  0  0
 24 22  1  0  0  0  0
 25 26  1  0  0  0  0
 25 24  2  0  0  0  0
 27 25  1  0  0  0  0
 28 27  2  0  0  0  0
 28 29  1  0  0  0  0
 29 24  1  0  0  0  0
M  END
>  <minimizedAffinity>
-5.04705572

>  <minimizedRMSD>
0.843731225

$$$$
