
 OpenBabel03272503243D

 29 31  0  0  1  0  0  0  0  0999 V2000
   36.3940   29.8910   49.2410 N   0  0  0  0  0  0  0  0  0  0  0  0
   36.9730   31.1790   49.0770 C   0  0  1  0  0  0  0  0  0  0  0  0
   37.5620   31.5190   50.4260 C   0  0  0  0  0  0  0  0  0  0  0  0
   37.3010   30.2500   51.2750 C   0  0  0  0  0  0  0  0  0  0  0  0
   37.1810   29.2140   50.2220 C   0  0  0  0  0  0  0  0  0  0  0  0
   36.0900   31.9460   48.9690 H   0  0  0  0  0  0  0  0  0  0  0  0
   38.6380   31.7180   50.3180 H   0  0  0  0  0  0  0  0  0  0  0  0
   36.9960   32.3050   50.9480 H   0  0  0  0  0  0  0  0  0  0  0  0
   38.2550   30.0920   51.8340 H   0  0  0  0  0  0  0  0  0  0  0  0
   36.4290   30.3470   51.9130 H   0  0  0  0  0  0  0  0  0  0  0  0
   38.1500   28.8460   49.8550 H   0  0  0  0  0  0  0  0  0  0  0  0
   36.6370   28.3150   50.6330 H   0  0  0  0  0  0  0  0  0  0  0  0
   35.2470   29.3970   48.5630 C   0  0  0  0  0  0  0  0  0  0  0  0
   34.5490   30.2710   47.7130 C   0  0  0  0  0  0  0  0  0  0  0  0
   33.4230   29.8050   47.0260 C   0  0  0  0  0  0  0  0  0  0  0  0
   33.0770   28.4770   47.2490 N   0  0  0  0  0  0  0  0  0  0  0  0
   33.7710   27.6860   48.0660 C   0  0  0  0  0  0  0  0  0  0  0  0
   34.8780   28.1210   48.7480 N   0  0  0  0  0  0  0  0  0  0  0  0
   34.8100   31.3020   47.5340 H   0  0  0  0  0  0  0  0  0  0  0  0
   32.8710   30.4600   46.3690 H   0  0  0  0  0  0  0  0  0  0  0  0
   33.4130   26.6680   48.1650 H   0  0  0  0  0  0  0  0  0  0  0  0
   37.7950   31.4290   47.9290 C   0  0  0  0  0  0  0  0  0  0  0  0
   38.6350   32.2840   47.9370 O   0  0  0  0  0  0  0  0  0  0  0  0
   38.0390   30.9850   46.5080 C   0  0  0  0  0  0  0  0  0  0  0  0
   37.1200   30.6680   45.6250 C   0  0  0  0  0  0  0  0  0  0  0  0
   36.0430   30.6270   45.6110 H   0  0  0  0  0  0  0  0  0  0  0  0
   37.3750   30.2620   44.3690 C   0  0  0  0  0  3  0  0  0  0  0  0
   38.7770   30.1970   44.0550 C   0  0  0  0  0  3  0  0  0  0  0  0
   39.5470   30.7660   45.7200 S   0  0  0  0  0  0  0  0  0  0  0  0
  1  5  1  0  0  0  0
  2  6  1  6  0  0  0
  2  1  1  0  0  0  0
  2  3  1  0  0  0  0
  3  8  1  0  0  0  0
  3  4  1  0  0  0  0
  4  9  1  0  0  0  0
  4 10  1  0  0  0  0
  5 12  1  0  0  0  0
  5  4  1  0  0  0  0
  7  3  1  0  0  0  0
 11  5  1  0  0  0  0
 13 18  1  0  0  0  0
 13  1  1  0  0  0  0
 14 13  2  0  0  0  0
 15 16  2  0  0  0  0
 15 14  1  0  0  0  0
 16 17  1  0  0  0  0
 17 21  1  0  0  0  0
 17 18  2  0  0  0  0
 19 14  1  0  0  0  0
 20 15  1  0  0  0  0
 22 23  2  0  0  0  0
 22  2  1  0  0  0  0
 24 22  1  0  0  0  0
 25 24  2  0  0  0  0
 26 25  1  0  0  0  0
 27 25  1  0  0  0  0
 28 27  2  0  0  0  0
 28 29  1  0  0  0  0
 29 24  1  0  0  0  0
M  END
>  <minimizedAffinity>
-5.0347209

>  <minimizedRMSD>
0.790370941

$$$$
