
 OpenBabel03272503243D

 29 31  0  0  1  0  0  0  0  0999 V2000
   36.7970   30.2160   48.8270 N   0  0  0  0  0  0  0  0  0  0  0  0
   37.3240   31.5130   48.5780 C   0  0  1  0  0  0  0  0  0  0  0  0
   37.8140   32.0030   49.9200 C   0  0  0  0  0  0  0  0  0  0  0  0
   37.5610   30.8040   50.8670 C   0  0  0  0  0  0  0  0  0  0  0  0
   37.5530   29.6730   49.9110 C   0  0  0  0  0  0  0  0  0  0  0  0
   36.4160   32.2200   48.3480 H   0  0  0  0  0  0  0  0  0  0  0  0
   38.8840   32.2470   49.8560 H   0  0  0  0  0  0  0  0  0  0  0  0
   37.1810   32.8030   50.3330 H   0  0  0  0  0  0  0  0  0  0  0  0
   38.4850   30.7470   51.4920 H   0  0  0  0  0  0  0  0  0  0  0  0
   36.6470   30.9130   51.4430 H   0  0  0  0  0  0  0  0  0  0  0  0
   38.5590   29.3240   49.6350 H   0  0  0  0  0  0  0  0  0  0  0  0
   37.0280   28.7870   50.3720 H   0  0  0  0  0  0  0  0  0  0  0  0
   35.7180   29.6040   48.1350 C   0  0  0  0  0  0  0  0  0  0  0  0
   35.3400   30.1350   46.8900 C   0  0  0  0  0  0  0  0  0  0  0  0
   34.2880   29.5430   46.1840 C   0  0  0  0  0  0  0  0  0  0  0  0
   33.6850   28.4460   46.7890 N   0  0  0  0  0  0  0  0  0  0  0  0
   34.0800   27.9790   47.9730 C   0  0  0  0  0  0  0  0  0  0  0  0
   35.1090   28.5420   48.6820 N   0  0  0  0  0  0  0  0  0  0  0  0
   35.8020   30.9850   46.4120 H   0  0  0  0  0  0  0  0  0  0  0  0
   33.9800   29.9360   45.2260 H   0  0  0  0  0  0  0  0  0  0  0  0
   33.5400   27.1190   48.3520 H   0  0  0  0  0  0  0  0  0  0  0  0
   38.2040   31.7000   47.4590 C   0  0  0  0  0  0  0  0  0  0  0  0
   39.2970   32.1700   47.5980 O   0  0  0  0  0  0  0  0  0  0  0  0
   38.2950   31.5290   45.9640 C   0  0  0  0  0  0  0  0  0  0  0  0
   37.8330   32.3590   45.0570 C   0  0  0  0  0  0  0  0  0  0  0  0
   37.3130   33.3020   45.0670 H   0  0  0  0  0  0  0  0  0  0  0  0
   37.9200   32.1650   43.7290 C   0  0  0  0  0  3  0  0  0  0  0  0
   38.5790   30.9420   43.3650 C   0  0  0  0  0  3  0  0  0  0  0  0
   38.9920   30.2220   45.0970 S   0  0  0  0  0  0  0  0  0  0  0  0
  1  5  1  0  0  0  0
  2  6  1  6  0  0  0
  2  1  1  0  0  0  0
  2  3  1  0  0  0  0
  3  8  1  0  0  0  0
  3  4  1  0  0  0  0
  4 10  1  0  0  0  0
  4  9  1  0  0  0  0
  5 12  1  0  0  0  0
  5  4  1  0  0  0  0
  7  3  1  0  0  0  0
 11  5  1  0  0  0  0
 13 18  1  0  0  0  0
 13  1  1  0  0  0  0
 14 13  2  0  0  0  0
 15 16  2  0  0  0  0
 15 14  1  0  0  0  0
 16 17  1  0  0  0  0
 17 21  1  0  0  0  0
 17 18  2  0  0  0  0
 19 14  1  0  0  0  0
 20 15  1  0  0  0  0
 22 23  2  0  0  0  0
 22  2  1  0  0  0  0
 24 22  1  0  0  0  0
 25 26  1  0  0  0  0
 25 24  2  0  0  0  0
 27 25  1  0  0  0  0
 28 27  2  0  0  0  0
 28 29  1  0  0  0  0
 29 24  1  0  0  0  0
M  END
>  <minimizedAffinity>
-4.88240147

>  <minimizedRMSD>
1.32821512

$$$$
