
 OpenBabel03272503243D

 29 31  0  0  1  0  0  0  0  0999 V2000
   36.2920   29.9790   48.9670 N   0  0  0  0  0  0  0  0  0  0  0  0
   36.8970   31.2280   48.6560 C   0  0  1  0  0  0  0  0  0  0  0  0
   37.4770   31.7170   49.9620 C   0  0  0  0  0  0  0  0  0  0  0  0
   37.1840   30.5650   50.9540 C   0  0  0  0  0  0  0  0  0  0  0  0
   37.0540   29.4120   50.0330 C   0  0  0  0  0  0  0  0  0  0  0  0
   36.0300   31.9910   48.4440 H   0  0  0  0  0  0  0  0  0  0  0  0
   38.5580   31.8830   49.8450 H   0  0  0  0  0  0  0  0  0  0  0  0
   36.9210   32.5710   50.3770 H   0  0  0  0  0  0  0  0  0  0  0  0
   38.1280   30.4590   51.5410 H   0  0  0  0  0  0  0  0  0  0  0  0
   36.3060   30.7540   51.5650 H   0  0  0  0  0  0  0  0  0  0  0  0
   38.0210   28.9850   49.7250 H   0  0  0  0  0  0  0  0  0  0  0  0
   36.4900   28.5780   50.5420 H   0  0  0  0  0  0  0  0  0  0  0  0
   35.1430   29.4260   48.3390 C   0  0  0  0  0  0  0  0  0  0  0  0
   34.4080   30.2420   47.4610 C   0  0  0  0  0  0  0  0  0  0  0  0
   33.2790   29.7180   46.8220 C   0  0  0  0  0  0  0  0  0  0  0  0
   32.9680   28.3950   47.1180 N   0  0  0  0  0  0  0  0  0  0  0  0
   33.6970   27.6620   47.9580 C   0  0  0  0  0  0  0  0  0  0  0  0
   34.8070   28.1540   48.5940 N   0  0  0  0  0  0  0  0  0  0  0  0
   34.6410   31.2680   47.2260 H   0  0  0  0  0  0  0  0  0  0  0  0
   32.7000   30.3270   46.1450 H   0  0  0  0  0  0  0  0  0  0  0  0
   33.3630   26.6420   48.1150 H   0  0  0  0  0  0  0  0  0  0  0  0
   37.7360   31.3210   47.4970 C   0  0  0  0  0  0  0  0  0  0  0  0
   38.9230   31.4570   47.5960 O   0  0  0  0  0  0  0  0  0  0  0  0
   37.7030   31.3370   45.9890 C   0  0  0  0  0  0  0  0  0  0  0  0
   37.0810   30.4750   45.2170 C   0  0  0  0  0  0  0  0  0  0  0  0
   36.4730   29.5990   45.3700 H   0  0  0  0  0  0  0  0  0  0  0  0
   37.0860   30.5130   43.8730 C   0  0  0  0  0  3  0  0  0  0  0  0
   37.8460   31.6020   43.3260 C   0  0  0  0  0  3  0  0  0  0  0  0
   38.4720   32.4490   44.9330 S   0  0  0  0  0  0  0  0  0  0  0  0
  1  5  1  0  0  0  0
  2  6  1  6  0  0  0
  2  1  1  0  0  0  0
  2  3  1  0  0  0  0
  3  8  1  0  0  0  0
  3  4  1  0  0  0  0
  4  9  1  0  0  0  0
  4 10  1  0  0  0  0
  5 12  1  0  0  0  0
  5  4  1  0  0  0  0
  7  3  1  0  0  0  0
 11  5  1  0  0  0  0
 13 18  1  0  0  0  0
 13  1  1  0  0  0  0
 14 13  2  0  0  0  0
 15 16  2  0  0  0  0
 15 14  1  0  0  0  0
 16 17  1  0  0  0  0
 17 21  1  0  0  0  0
 17 18  2  0  0  0  0
 19 14  1  0  0  0  0
 20 15  1  0  0  0  0
 22 23  2  0  0  0  0
 22  2  1  0  0  0  0
 24 22  1  0  0  0  0
 25 26  1  0  0  0  0
 25 24  2  0  0  0  0
 27 25  1  0  0  0  0
 28 27  2  0  0  0  0
 28 29  1  0  0  0  0
 29 24  1  0  0  0  0
M  END
>  <minimizedAffinity>
-4.95207739

>  <minimizedRMSD>
1.2628684

$$$$
