
 OpenBabel03272503253D

 29 31  0  0  1  0  0  0  0  0999 V2000
   38.2940   23.1320   36.2120 N   0  0  0  0  0  0  0  0  0  0  0  0
   37.6680   24.3050   36.7190 C   0  0  1  0  0  0  0  0  0  0  0  0
   38.0190   24.3340   38.1880 C   0  0  0  0  0  0  0  0  0  0  0  0
   38.9500   23.1100   38.3710 C   0  0  0  0  0  0  0  0  0  0  0  0
   39.4710   22.9300   36.9960 C   0  0  0  0  0  0  0  0  0  0  0  0
   36.5110   24.1080   36.7220 H   0  0  0  0  0  0  0  0  0  0  0  0
   38.5380   25.2740   38.4230 H   0  0  0  0  0  0  0  0  0  0  0  0
   37.1570   24.1080   38.8320 H   0  0  0  0  0  0  0  0  0  0  0  0
   39.7730   23.4850   39.0270 H   0  0  0  0  0  0  0  0  0  0  0  0
   38.4290   22.2460   38.7710 H   0  0  0  0  0  0  0  0  0  0  0  0
   40.3040   23.6060   36.7500 H   0  0  0  0  0  0  0  0  0  0  0  0
   39.8700   21.8820   36.8720 H   0  0  0  0  0  0  0  0  0  0  0  0
   37.8180   22.3230   35.1460 C   0  0  0  0  0  0  0  0  0  0  0  0
   36.6130   21.6220   35.3300 C   0  0  0  0  0  0  0  0  0  0  0  0
   36.1170   20.8280   34.2910 C   0  0  0  0  0  0  0  0  0  0  0  0
   36.8800   20.7960   33.1280 N   0  0  0  0  0  0  0  0  0  0  0  0
   38.0160   21.4790   33.0020 C   0  0  0  0  0  0  0  0  0  0  0  0
   38.5200   22.2640   34.0060 N   0  0  0  0  0  0  0  0  0  0  0  0
   36.0150   21.6410   36.2270 H   0  0  0  0  0  0  0  0  0  0  0  0
   35.1950   20.2800   34.4110 H   0  0  0  0  0  0  0  0  0  0  0  0
   38.5290   21.3810   32.0520 H   0  0  0  0  0  0  0  0  0  0  0  0
   37.8110   25.5340   35.9930 C   0  0  0  0  0  0  0  0  0  0  0  0
   38.4660   26.4400   36.4250 O   0  0  0  0  0  0  0  0  0  0  0  0
   37.3820   26.2390   34.7300 C   0  0  0  0  0  0  0  0  0  0  0  0
   36.9270   27.4670   34.6410 C   0  0  0  0  0  0  0  0  0  0  0  0
   36.7340   28.2710   35.3320 H   0  0  0  0  0  0  0  0  0  0  0  0
   36.5410   28.0580   33.4970 C   0  0  0  0  0  3  0  0  0  0  0  0
   36.6690   27.2170   32.3390 C   0  0  0  0  0  3  0  0  0  0  0  0
   37.3670   25.6120   33.1320 S   0  0  0  0  0  0  0  0  0  0  0  0
  1  2  1  0  0  0  0
  1  5  1  0  0  0  0
  2  6  1  6  0  0  0
  2  3  1  0  0  0  0
  3  4  1  0  0  0  0
  3  7  1  0  0  0  0
  3  8  1  0  0  0  0
  4 10  1  0  0  0  0
  4  9  1  0  0  0  0
  5  4  1  0  0  0  0
 11  5  1  0  0  0  0
 12  5  1  0  0  0  0
 13 14  1  0  0  0  0
 13  1  1  0  0  0  0
 14 19  1  0  0  0  0
 15 20  1  0  0  0  0
 15 14  2  0  0  0  0
 16 15  1  0  0  0  0
 17 16  2  0  0  0  0
 17 18  1  0  0  0  0
 18 13  2  0  0  0  0
 21 17  1  0  0  0  0
 22 23  2  0  0  0  0
 22  2  1  0  0  0  0
 24 22  1  0  0  0  0
 25 24  2  0  0  0  0
 25 26  1  0  0  0  0
 27 25  1  0  0  0  0
 28 29  1  0  0  0  0
 28 27  2  0  0  0  0
 29 24  1  0  0  0  0
M  END
>  <minimizedAffinity>
-4.78437662

$$$$

 OpenBabel03272503253D

 29 31  0  0  1  0  0  0  0  0999 V2000
   38.0090   27.3690   31.8670 N   0  0  0  0  0  0  0  0  0  0  0  0
   36.6990   27.2820   31.3210 C   0  0  1  0  0  0  0  0  0  0  0  0
   36.7220   28.1730   30.1010 C   0  0  0  0  0  0  0  0  0  0  0  0
   38.1890   28.6630   30.0270 C   0  0  0  0  0  0  0  0  0  0  0  0
   38.8930   27.5900   30.7670 C   0  0  0  0  0  0  0  0  0  0  0  0
   35.9780   27.8470   32.0540 H   0  0  0  0  0  0  0  0  0  0  0  0
   36.4470   27.5870   29.2130 H   0  0  0  0  0  0  0  0  0  0  0  0
   36.1420   29.0960   30.2440 H   0  0  0  0  0  0  0  0  0  0  0  0
   38.4490   28.5900   28.9430 H   0  0  0  0  0  0  0  0  0  0  0  0
   38.3180   29.6570   30.4440 H   0  0  0  0  0  0  0  0  0  0  0  0
   39.0950   26.6960   30.1580 H   0  0  0  0  0  0  0  0  0  0  0  0
   39.8980   27.9640   31.1180 H   0  0  0  0  0  0  0  0  0  0  0  0
   38.3510   27.2720   33.2420 C   0  0  0  0  0  0  0  0  0  0  0  0
   39.6630   26.8930   33.5760 C   0  0  0  0  0  0  0  0  0  0  0  0
   40.0280   26.8000   34.9230 C   0  0  0  0  0  0  0  0  0  0  0  0
   39.0330   27.0980   35.8480 N   0  0  0  0  0  0  0  0  0  0  0  0
   37.8020   27.4530   35.4820 C   0  0  0  0  0  0  0  0  0  0  0  0
   37.4230   27.5510   34.1680 N   0  0  0  0  0  0  0  0  0  0  0  0
   40.4410   26.6600   32.8660 H   0  0  0  0  0  0  0  0  0  0  0  0
   41.0290   26.5100   35.2020 H   0  0  0  0  0  0  0  0  0  0  0  0
   37.1060   27.6630   36.2860 H   0  0  0  0  0  0  0  0  0  0  0  0
   36.0980   25.9880   31.1680 C   0  0  0  0  0  0  0  0  0  0  0  0
   34.9140   25.8640   31.0260 O   0  0  0  0  0  0  0  0  0  0  0  0
   36.4150   24.5140   31.1310 C   0  0  0  0  0  0  0  0  0  0  0  0
   35.5970   23.5340   31.4390 C   0  0  0  0  0  0  0  0  0  0  0  0
   34.5750   23.4570   31.7720 H   0  0  0  0  0  0  0  0  0  0  0  0
   35.9210   22.2300   31.4070 C   0  0  0  0  0  3  0  0  0  0  0  0
   37.2740   21.9790   30.9950 C   0  0  0  0  0  3  0  0  0  0  0  0
   37.9020   23.7710   30.7020 S   0  0  0  0  0  0  0  0  0  0  0  0
  1 13  1  0  0  0  0
  2  1  1  0  0  0  0
  2  6  1  1  0  0  0
  3  8  1  0  0  0  0
  3  2  1  0  0  0  0
  4  3  1  0  0  0  0
  4 10  1  0  0  0  0
  4  5  1  0  0  0  0
  5 12  1  0  0  0  0
  5  1  1  0  0  0  0
  7  3  1  0  0  0  0
  9  4  1  0  0  0  0
 11  5  1  0  0  0  0
 13 14  2  0  0  0  0
 13 18  1  0  0  0  0
 14 15  1  0  0  0  0
 15 20  1  0  0  0  0
 15 16  2  0  0  0  0
 17 16  1  0  0  0  0
 17 21  1  0  0  0  0
 18 17  2  0  0  0  0
 19 14  1  0  0  0  0
 22  2  1  0  0  0  0
 23 22  2  0  0  0  0
 24 22  1  0  0  0  0
 24 25  2  0  0  0  0
 25 26  1  0  0  0  0
 27 25  1  0  0  0  0
 28 27  2  0  0  0  0
 29 28  1  0  0  0  0
 29 24  1  0  0  0  0
M  END
>  <minimizedAffinity>
-4.59667158

$$$$

 OpenBabel03272503253D

 29 31  0  0  1  0  0  0  0  0999 V2000
   38.5540   25.7390   35.3900 N   0  0  0  0  0  0  0  0  0  0  0  0
   37.4320   25.7690   34.5170 C   0  0  1  0  0  0  0  0  0  0  0  0
   36.9310   27.1930   34.5680 C   0  0  0  0  0  0  0  0  0  0  0  0
   37.9510   27.9110   35.4870 C   0  0  0  0  0  0  0  0  0  0  0  0
   39.1400   27.0410   35.3400 C   0  0  0  0  0  0  0  0  0  0  0  0
   36.5710   25.1630   35.0370 H   0  0  0  0  0  0  0  0  0  0  0  0
   36.9320   27.6200   33.5550 H   0  0  0  0  0  0  0  0  0  0  0  0
   35.9780   27.2860   35.1090 H   0  0  0  0  0  0  0  0  0  0  0  0
   38.1450   28.8850   34.9740 H   0  0  0  0  0  0  0  0  0  0  0  0
   37.5920   28.0150   36.5060 H   0  0  0  0  0  0  0  0  0  0  0  0
   39.7230   27.2430   34.4290 H   0  0  0  0  0  0  0  0  0  0  0  0
   39.8440   27.2060   36.2060 H   0  0  0  0  0  0  0  0  0  0  0  0
   38.9830   24.6290   36.1650 C   0  0  0  0  0  0  0  0  0  0  0  0
   40.0710   23.8720   35.6970 C   0  0  0  0  0  0  0  0  0  0  0  0
   40.5200   22.7800   36.4470 C   0  0  0  0  0  0  0  0  0  0  0  0
   39.8320   22.5260   37.6290 N   0  0  0  0  0  0  0  0  0  0  0  0
   38.8050   23.2730   38.0310 C   0  0  0  0  0  0  0  0  0  0  0  0
   38.3490   24.3480   37.3120 N   0  0  0  0  0  0  0  0  0  0  0  0
   40.6110   24.0610   34.7820 H   0  0  0  0  0  0  0  0  0  0  0  0
   41.3530   22.1850   36.1060 H   0  0  0  0  0  0  0  0  0  0  0  0
   38.3420   22.9850   38.9680 H   0  0  0  0  0  0  0  0  0  0  0  0
   37.5480   25.1680   33.2190 C   0  0  0  0  0  0  0  0  0  0  0  0
   38.0270   25.7640   32.2970 O   0  0  0  0  0  0  0  0  0  0  0  0
   37.2420   23.9080   32.4490 C   0  0  0  0  0  0  0  0  0  0  0  0
   36.1280   23.6390   31.8080 C   0  0  0  0  0  0  0  0  0  0  0  0
   35.1930   24.1470   31.6370 H   0  0  0  0  0  0  0  0  0  0  0  0
   35.8860   22.4960   31.1430 C   0  0  0  0  0  3  0  0  0  0  0  0
   36.9740   21.5590   31.1850 C   0  0  0  0  0  3  0  0  0  0  0  0
   38.2500   22.5340   32.2410 S   0  0  0  0  0  0  0  0  0  0  0  0
  1 13  1  0  0  0  0
  2  3  1  0  0  0  0
  2  6  1  1  0  0  0
  2  1  1  0  0  0  0
  3  8  1  0  0  0  0
  3  4  1  0  0  0  0
  4 10  1  0  0  0  0
  5  1  1  0  0  0  0
  5  4  1  0  0  0  0
  5 12  1  0  0  0  0
  7  3  1  0  0  0  0
  9  4  1  0  0  0  0
 11  5  1  0  0  0  0
 13 18  1  0  0  0  0
 14 13  2  0  0  0  0
 14 15  1  0  0  0  0
 15 16  2  0  0  0  0
 16 17  1  0  0  0  0
 17 21  1  0  0  0  0
 18 17  2  0  0  0  0
 19 14  1  0  0  0  0
 20 15  1  0  0  0  0
 22  2  1  0  0  0  0
 23 22  2  0  0  0  0
 24 22  1  0  0  0  0
 25 24  2  0  0  0  0
 26 25  1  0  0  0  0
 27 28  2  0  0  0  0
 27 25  1  0  0  0  0
 28 29  1  0  0  0  0
 29 24  1  0  0  0  0
M  END
>  <minimizedAffinity>
-4.57143545

$$$$

 OpenBabel03272503253D

 29 31  0  0  1  0  0  0  0  0999 V2000
   37.1610   24.8700   32.5050 N   0  0  0  0  0  0  0  0  0  0  0  0
   38.1600   25.4180   33.3560 C   0  0  1  0  0  0  0  0  0  0  0  0
   38.4410   26.7930   32.7970 C   0  0  0  0  0  0  0  0  0  0  0  0
   37.4350   26.9310   31.6280 C   0  0  0  0  0  0  0  0  0  0  0  0
   36.3820   25.9710   32.0330 C   0  0  0  0  0  0  0  0  0  0  0  0
   39.1560   24.8340   33.1460 H   0  0  0  0  0  0  0  0  0  0  0  0
   38.2610   27.5500   33.5740 H   0  0  0  0  0  0  0  0  0  0  0  0
   39.4240   26.8570   32.3080 H   0  0  0  0  0  0  0  0  0  0  0  0
   37.0390   27.9700   31.7260 H   0  0  0  0  0  0  0  0  0  0  0  0
   37.8870   26.7220   30.6630 H   0  0  0  0  0  0  0  0  0  0  0  0
   35.6760   26.3790   32.7710 H   0  0  0  0  0  0  0  0  0  0  0  0
   35.7650   25.6790   31.1350 H   0  0  0  0  0  0  0  0  0  0  0  0
   36.9960   23.4960   32.1850 C   0  0  0  0  0  0  0  0  0  0  0  0
   35.8160   23.1030   31.5300 C   0  0  0  0  0  0  0  0  0  0  0  0
   35.6350   21.7580   31.1940 C   0  0  0  0  0  0  0  0  0  0  0  0
   36.6660   20.8940   31.5470 N   0  0  0  0  0  0  0  0  0  0  0  0
   37.7670   21.3150   32.1680 C   0  0  0  0  0  0  0  0  0  0  0  0
   37.9670   22.6290   32.5060 N   0  0  0  0  0  0  0  0  0  0  0  0
   35.0110   23.7650   31.2520 H   0  0  0  0  0  0  0  0  0  0  0  0
   34.7360   21.4340   30.6920 H   0  0  0  0  0  0  0  0  0  0  0  0
   38.5070   20.5570   32.3960 H   0  0  0  0  0  0  0  0  0  0  0  0
   37.9900   25.3180   34.7770 C   0  0  0  0  0  0  0  0  0  0  0  0
   37.3020   26.0920   35.3790 O   0  0  0  0  0  0  0  0  0  0  0  0
   38.4140   24.5170   35.9830 C   0  0  0  0  0  0  0  0  0  0  0  0
   37.8430   24.5280   37.1650 C   0  0  0  0  0  0  0  0  0  0  0  0
   37.0020   25.0340   37.6110 H   0  0  0  0  0  0  0  0  0  0  0  0
   38.2590   23.8100   38.2220 C   0  0  0  0  0  3  0  0  0  0  0  0
   39.4140   23.0000   37.9540 C   0  0  0  0  0  3  0  0  0  0  0  0
   39.7370   23.4300   36.1080 S   0  0  0  0  0  0  0  0  0  0  0  0
  1  2  1  0  0  0  0
  2  6  1  6  0  0  0
  2 22  1  0  0  0  0
  3  2  1  0  0  0  0
  3  7  1  0  0  0  0
  4  9  1  0  0  0  0
  4  5  1  0  0  0  0
  4  3  1  0  0  0  0
  5  1  1  0  0  0  0
  5 11  1  0  0  0  0
  8  3  1  0  0  0  0
 10  4  1  0  0  0  0
 12  5  1  0  0  0  0
 13  1  1  0  0  0  0
 13 18  1  0  0  0  0
 14 13  2  0  0  0  0
 15 14  1  0  0  0  0
 15 16  2  0  0  0  0
 16 17  1  0  0  0  0
 17 21  1  0  0  0  0
 17 18  2  0  0  0  0
 19 14  1  0  0  0  0
 20 15  1  0  0  0  0
 22 23  2  0  0  0  0
 22 24  1  0  0  0  0
 24 29  1  0  0  0  0
 24 25  2  0  0  0  0
 25 26  1  0  0  0  0
 25 27  1  0  0  0  0
 28 27  2  0  0  0  0
 29 28  1  0  0  0  0
M  END
>  <minimizedAffinity>
-4.56627607

$$$$

 OpenBabel03272503253D

 29 31  0  0  1  0  0  0  0  0999 V2000
   38.3620   25.2770   33.7710 N   0  0  0  0  0  0  0  0  0  0  0  0
   37.3000   25.7730   32.9650 C   0  0  1  0  0  0  0  0  0  0  0  0
   37.8300   27.0530   32.3620 C   0  0  0  0  0  0  0  0  0  0  0  0
   39.2910   27.1250   32.8700 C   0  0  0  0  0  0  0  0  0  0  0  0
   39.5750   25.6980   33.1460 C   0  0  0  0  0  0  0  0  0  0  0  0
   36.4570   26.1470   33.6920 H   0  0  0  0  0  0  0  0  0  0  0  0
   37.7870   26.9870   31.2650 H   0  0  0  0  0  0  0  0  0  0  0  0
   37.3570   27.9480   32.7900 H   0  0  0  0  0  0  0  0  0  0  0  0
   39.8780   27.4480   31.9750 H   0  0  0  0  0  0  0  0  0  0  0  0
   39.4020   27.7810   33.7280 H   0  0  0  0  0  0  0  0  0  0  0  0
   39.8490   25.1220   32.2490 H   0  0  0  0  0  0  0  0  0  0  0  0
   40.4500   25.6130   33.8540 H   0  0  0  0  0  0  0  0  0  0  0  0
   38.2230   24.5270   34.9690 C   0  0  0  0  0  0  0  0  0  0  0  0
   38.1180   25.2260   36.1840 C   0  0  0  0  0  0  0  0  0  0  0  0
   37.9690   24.5110   37.3760 C   0  0  0  0  0  0  0  0  0  0  0  0
   37.9380   23.1250   37.2580 N   0  0  0  0  0  0  0  0  0  0  0  0
   38.0410   22.5070   36.0830 C   0  0  0  0  0  0  0  0  0  0  0  0
   38.1870   23.1880   34.9020 N   0  0  0  0  0  0  0  0  0  0  0  0
   38.1410   26.3000   36.2850 H   0  0  0  0  0  0  0  0  0  0  0  0
   37.8870   25.0280   38.3200 H   0  0  0  0  0  0  0  0  0  0  0  0
   38.0040   21.4250   36.1070 H   0  0  0  0  0  0  0  0  0  0  0  0
   36.6220   24.8700   32.0800 C   0  0  0  0  0  0  0  0  0  0  0  0
   35.7240   25.2410   31.3790 O   0  0  0  0  0  0  0  0  0  0  0  0
   36.5800   23.4290   31.6380 C   0  0  0  0  0  0  0  0  0  0  0  0
   35.5190   22.6560   31.6050 C   0  0  0  0  0  0  0  0  0  0  0  0
   34.4750   22.7680   31.8450 H   0  0  0  0  0  0  0  0  0  0  0  0
   35.5230   21.3690   31.2180 C   0  0  0  0  0  3  0  0  0  0  0  0
   36.8180   20.8850   30.8270 C   0  0  0  0  0  3  0  0  0  0  0  0
   37.8890   22.4580   31.0980 S   0  0  0  0  0  0  0  0  0  0  0  0
  1 13  1  0  0  0  0
  2  6  1  1  0  0  0
  2  1  1  0  0  0  0
  3  8  1  0  0  0  0
  3  4  1  0  0  0  0
  3  2  1  0  0  0  0
  4  5  1  0  0  0  0
  4 10  1  0  0  0  0
  5  1  1  0  0  0  0
  5 12  1  0  0  0  0
  7  3  1  0  0  0  0
  9  4  1  0  0  0  0
 11  5  1  0  0  0  0
 13 14  1  0  0  0  0
 14 19  1  0  0  0  0
 14 15  2  0  0  0  0
 15 20  1  0  0  0  0
 16 15  1  0  0  0  0
 17 21  1  0  0  0  0
 17 16  2  0  0  0  0
 18 13  2  0  0  0  0
 18 17  1  0  0  0  0
 22  2  1  0  0  0  0
 23 22  2  0  0  0  0
 24 22  1  0  0  0  0
 25 24  2  0  0  0  0
 25 26  1  0  0  0  0
 27 25  1  0  0  0  0
 28 29  1  0  0  0  0
 28 27  2  0  0  0  0
 29 24  1  0  0  0  0
M  END
>  <minimizedAffinity>
-4.56283617

$$$$

 OpenBabel03272503253D

 29 31  0  0  1  0  0  0  0  0999 V2000
   38.1270   23.0430   36.1340 N   0  0  0  0  0  0  0  0  0  0  0  0
   37.7190   24.3500   36.5190 C   0  0  1  0  0  0  0  0  0  0  0  0
   38.2220   24.5170   37.9340 C   0  0  0  0  0  0  0  0  0  0  0  0
   38.9950   23.2040   38.2100 C   0  0  0  0  0  0  0  0  0  0  0  0
   39.3420   22.7750   36.8350 C   0  0  0  0  0  0  0  0  0  0  0  0
   36.5530   24.3260   36.6490 H   0  0  0  0  0  0  0  0  0  0  0  0
   38.8830   25.3940   37.9880 H   0  0  0  0  0  0  0  0  0  0  0  0
   37.4090   24.5050   38.6750 H   0  0  0  0  0  0  0  0  0  0  0  0
   39.9240   23.5370   38.7340 H   0  0  0  0  0  0  0  0  0  0  0  0
   38.4080   22.4850   38.7720 H   0  0  0  0  0  0  0  0  0  0  0  0
   40.2270   23.2840   36.4260 H   0  0  0  0  0  0  0  0  0  0  0  0
   39.5820   21.6720   36.8290 H   0  0  0  0  0  0  0  0  0  0  0  0
   37.4390   22.1820   35.2380 C   0  0  0  0  0  0  0  0  0  0  0  0
   37.8800   22.1190   33.9050 C   0  0  0  0  0  0  0  0  0  0  0  0
   37.2260   21.2710   33.0060 C   0  0  0  0  0  0  0  0  0  0  0  0
   36.1620   20.5370   33.5200 N   0  0  0  0  0  0  0  0  0  0  0  0
   35.7810   20.6310   34.7940 C   0  0  0  0  0  0  0  0  0  0  0  0
   36.4080   21.4550   35.6920 N   0  0  0  0  0  0  0  0  0  0  0  0
   38.7040   22.6840   33.4970 H   0  0  0  0  0  0  0  0  0  0  0  0
   37.5480   21.2080   31.9780 H   0  0  0  0  0  0  0  0  0  0  0  0
   34.9400   20.0140   35.0870 H   0  0  0  0  0  0  0  0  0  0  0  0
   37.9480   25.4410   35.6160 C   0  0  0  0  0  0  0  0  0  0  0  0
   37.0870   26.2390   35.3720 O   0  0  0  0  0  0  0  0  0  0  0  0
   38.9890   26.0530   34.7130 C   0  0  0  0  0  0  0  0  0  0  0  0
   40.2260   26.3470   35.0390 C   0  0  0  0  0  0  0  0  0  0  0  0
   40.8310   26.2640   35.9270 H   0  0  0  0  0  0  0  0  0  0  0  0
   41.1230   26.9060   34.2090 C   0  0  0  0  0  3  0  0  0  0  0  0
   40.6110   27.1660   32.8920 C   0  0  0  0  0  3  0  0  0  0  0  0
   38.8080   26.5250   33.0720 S   0  0  0  0  0  0  0  0  0  0  0  0
  1  2  1  0  0  0  0
  1  5  1  0  0  0  0
  2  6  1  1  0  0  0
  2  3  1  0  0  0  0
  3  7  1  0  0  0  0
  3  4  1  0  0  0  0
  3  8  1  0  0  0  0
  4  9  1  0  0  0  0
  4 10  1  0  0  0  0
  5  4  1  0  0  0  0
 11  5  1  0  0  0  0
 12  5  1  0  0  0  0
 13 18  1  0  0  0  0
 13  1  1  0  0  0  0
 14 13  2  0  0  0  0
 15 16  2  0  0  0  0
 15 14  1  0  0  0  0
 16 17  1  0  0  0  0
 17 21  1  0  0  0  0
 17 18  2  0  0  0  0
 19 14  1  0  0  0  0
 20 15  1  0  0  0  0
 22  2  1  0  0  0  0
 23 22  2  0  0  0  0
 24 25  2  0  0  0  0
 24 22  1  0  0  0  0
 25 26  1  0  0  0  0
 27 25  1  0  0  0  0
 28 29  1  0  0  0  0
 28 27  2  0  0  0  0
 29 24  1  0  0  0  0
M  END
>  <minimizedAffinity>
-4.55908394

$$$$

 OpenBabel03272503253D

 29 31  0  0  1  0  0  0  0  0999 V2000
   34.9440   29.6460   32.6680 N   0  0  0  0  0  0  0  0  0  0  0  0
   35.5990   28.6870   31.8480 C   0  0  1  0  0  0  0  0  0  0  0  0
   36.2790   29.4940   30.7670 C   0  0  0  0  0  0  0  0  0  0  0  0
   35.9770   30.9620   31.1550 C   0  0  0  0  0  0  0  0  0  0  0  0
   35.7330   30.8360   32.6100 C   0  0  0  0  0  0  0  0  0  0  0  0
   34.7660   28.1020   31.2630 H   0  0  0  0  0  0  0  0  0  0  0  0
   37.3590   29.2870   30.7780 H   0  0  0  0  0  0  0  0  0  0  0  0
   35.7950   29.3760   29.7860 H   0  0  0  0  0  0  0  0  0  0  0  0
   36.9460   31.4940   30.9920 H   0  0  0  0  0  0  0  0  0  0  0  0
   35.1480   31.3800   30.5930 H   0  0  0  0  0  0  0  0  0  0  0  0
   36.6550   30.8000   33.2100 H   0  0  0  0  0  0  0  0  0  0  0  0
   35.1520   31.7300   32.9790 H   0  0  0  0  0  0  0  0  0  0  0  0
   33.7330   29.4480   33.3840 C   0  0  0  0  0  0  0  0  0  0  0  0
   33.7280   29.7010   34.7660 C   0  0  0  0  0  0  0  0  0  0  0  0
   32.5460   29.5240   35.4910 C   0  0  0  0  0  0  0  0  0  0  0  0
   31.4390   29.0990   34.7630 N   0  0  0  0  0  0  0  0  0  0  0  0
   31.4930   28.8730   33.4520 C   0  0  0  0  0  0  0  0  0  0  0  0
   32.6410   29.0400   32.7210 N   0  0  0  0  0  0  0  0  0  0  0  0
   34.5810   30.0310   35.3390 H   0  0  0  0  0  0  0  0  0  0  0  0
   32.5200   29.7110   36.5540 H   0  0  0  0  0  0  0  0  0  0  0  0
   30.5710   28.5450   32.9850 H   0  0  0  0  0  0  0  0  0  0  0  0
   36.3760   27.6560   32.4740 C   0  0  0  0  0  0  0  0  0  0  0  0
   36.2750   26.5100   32.1400 O   0  0  0  0  0  0  0  0  0  0  0  0
   37.4020   27.4150   33.5530 C   0  0  0  0  0  0  0  0  0  0  0  0
   37.2390   27.6150   34.8400 C   0  0  0  0  0  0  0  0  0  0  0  0
   36.4400   27.9660   35.4720 H   0  0  0  0  0  0  0  0  0  0  0  0
   38.1830   27.4020   35.7720 C   0  0  0  0  0  3  0  0  0  0  0  0
   39.4270   26.9190   35.2380 C   0  0  0  0  0  3  0  0  0  0  0  0
   39.0110   26.8470   33.3630 S   0  0  0  0  0  0  0  0  0  0  0  0
  1 13  1  0  0  0  0
  2  6  1  6  0  0  0
  2 22  1  0  0  0  0
  2  1  1  0  0  0  0
  3  7  1  0  0  0  0
  3  4  1  0  0  0  0
  3  2  1  0  0  0  0
  4  5  1  0  0  0  0
  5  1  1  0  0  0  0
  5 12  1  0  0  0  0
  5 11  1  0  0  0  0
  8  3  1  0  0  0  0
  9  4  1  0  0  0  0
 10  4  1  0  0  0  0
 13 14  1  0  0  0  0
 14 19  1  0  0  0  0
 14 15  2  0  0  0  0
 15 20  1  0  0  0  0
 16 15  1  0  0  0  0
 17 16  2  0  0  0  0
 18 13  2  0  0  0  0
 18 17  1  0  0  0  0
 21 17  1  0  0  0  0
 22 24  1  0  0  0  0
 23 22  2  0  0  0  0
 24 25  2  0  0  0  0
 25 26  1  0  0  0  0
 25 27  1  0  0  0  0
 28 27  2  0  0  0  0
 29 24  1  0  0  0  0
 29 28  1  0  0  0  0
M  END
>  <minimizedAffinity>
-4.55192614

$$$$

 OpenBabel03272503253D

 29 31  0  0  1  0  0  0  0  0999 V2000
   36.9920   25.4280   32.3680 N   0  0  0  0  0  0  0  0  0  0  0  0
   36.0120   24.5500   31.8290 C   0  0  1  0  0  0  0  0  0  0  0  0
   35.1930   25.4040   30.8900 C   0  0  0  0  0  0  0  0  0  0  0  0
   35.8950   26.7840   30.9370 C   0  0  0  0  0  0  0  0  0  0  0  0
   37.2630   26.4020   31.3590 C   0  0  0  0  0  0  0  0  0  0  0  0
   35.2570   24.2990   32.6920 H   0  0  0  0  0  0  0  0  0  0  0  0
   35.2220   24.9710   29.8800 H   0  0  0  0  0  0  0  0  0  0  0  0
   34.1840   25.6080   31.2780 H   0  0  0  0  0  0  0  0  0  0  0  0
   35.9220   27.1150   29.8710 H   0  0  0  0  0  0  0  0  0  0  0  0
   35.3980   27.4820   31.6020 H   0  0  0  0  0  0  0  0  0  0  0  0
   37.8930   26.0390   30.5330 H   0  0  0  0  0  0  0  0  0  0  0  0
   37.7950   27.2990   31.7890 H   0  0  0  0  0  0  0  0  0  0  0  0
   37.5660   25.3470   33.6650 C   0  0  0  0  0  0  0  0  0  0  0  0
   38.3770   24.2390   33.9660 C   0  0  0  0  0  0  0  0  0  0  0  0
   38.9630   24.1410   35.2320 C   0  0  0  0  0  0  0  0  0  0  0  0
   38.6860   25.1790   36.1160 N   0  0  0  0  0  0  0  0  0  0  0  0
   37.9100   26.2100   35.7840 C   0  0  0  0  0  0  0  0  0  0  0  0
   37.3270   26.3260   34.5490 N   0  0  0  0  0  0  0  0  0  0  0  0
   38.5980   23.4290   33.2870 H   0  0  0  0  0  0  0  0  0  0  0  0
   39.5880   23.2980   35.4840 H   0  0  0  0  0  0  0  0  0  0  0  0
   37.7610   26.9620   36.5500 H   0  0  0  0  0  0  0  0  0  0  0  0
   36.4260   23.2650   31.3430 C   0  0  0  0  0  0  0  0  0  0  0  0
   37.3330   23.1540   30.5680 O   0  0  0  0  0  0  0  0  0  0  0  0
   36.1090   21.7930   31.4240 C   0  0  0  0  0  0  0  0  0  0  0  0
   35.0800   21.2510   32.0340 C   0  0  0  0  0  0  0  0  0  0  0  0
   34.2380   21.6140   32.5990 H   0  0  0  0  0  0  0  0  0  0  0  0
   34.8380   19.9300   32.0970 C   0  0  0  0  0  3  0  0  0  0  0  0
   35.8200   19.1280   31.4220 C   0  0  0  0  0  3  0  0  0  0  0  0
   37.0090   20.4870   30.7660 S   0  0  0  0  0  0  0  0  0  0  0  0
  1 13  1  0  0  0  0
  2  1  1  0  0  0  0
  2  6  1  1  0  0  0
  3  4  1  0  0  0  0
  3  8  1  0  0  0  0
  3  2  1  0  0  0  0
  4  5  1  0  0  0  0
  4 10  1  0  0  0  0
  5 12  1  0  0  0  0
  5  1  1  0  0  0  0
  7  3  1  0  0  0  0
  9  4  1  0  0  0  0
 11  5  1  0  0  0  0
 13 14  2  0  0  0  0
 13 18  1  0  0  0  0
 14 15  1  0  0  0  0
 15 20  1  0  0  0  0
 15 16  2  0  0  0  0
 17 16  1  0  0  0  0
 17 21  1  0  0  0  0
 18 17  2  0  0  0  0
 19 14  1  0  0  0  0
 22 24  1  0  0  0  0
 22  2  1  0  0  0  0
 23 22  2  0  0  0  0
 24 25  2  0  0  0  0
 25 27  1  0  0  0  0
 25 26  1  0  0  0  0
 28 27  2  0  0  0  0
 29 28  1  0  0  0  0
 29 24  1  0  0  0  0
M  END
>  <minimizedAffinity>
-4.52379799

$$$$

 OpenBabel03272503253D

 29 31  0  0  1  0  0  0  0  0999 V2000
   38.5280   24.0200   36.1190 N   0  0  0  0  0  0  0  0  0  0  0  0
   39.5670   23.1400   35.7090 C   0  0  1  0  0  0  0  0  0  0  0  0
   40.0920   22.5300   36.9880 C   0  0  0  0  0  0  0  0  0  0  0  0
   39.1720   23.1200   38.0850 C   0  0  0  0  0  0  0  0  0  0  0  0
   37.9600   23.4550   37.3010 C   0  0  0  0  0  0  0  0  0  0  0  0
   40.4620   23.8050   35.3410 H   0  0  0  0  0  0  0  0  0  0  0  0
   40.0070   21.4360   36.9360 H   0  0  0  0  0  0  0  0  0  0  0  0
   41.0920   22.9040   37.2540 H   0  0  0  0  0  0  0  0  0  0  0  0
   38.9470   22.2520   38.7520 H   0  0  0  0  0  0  0  0  0  0  0  0
   39.6230   23.9630   38.5990 H   0  0  0  0  0  0  0  0  0  0  0  0
   37.3000   22.5930   37.1230 H   0  0  0  0  0  0  0  0  0  0  0  0
   37.3410   24.2140   37.8610 H   0  0  0  0  0  0  0  0  0  0  0  0
   38.1540   25.2300   35.4760 C   0  0  0  0  0  0  0  0  0  0  0  0
   38.3670   26.4410   36.1590 C   0  0  0  0  0  0  0  0  0  0  0  0
   38.0170   27.6460   35.5420 C   0  0  0  0  0  0  0  0  0  0  0  0
   37.4710   27.5450   34.2670 N   0  0  0  0  0  0  0  0  0  0  0  0
   37.2880   26.3730   33.6600 C   0  0  0  0  0  0  0  0  0  0  0  0
   37.6240   25.1800   34.2450 N   0  0  0  0  0  0  0  0  0  0  0  0
   38.7900   26.5290   37.1470 H   0  0  0  0  0  0  0  0  0  0  0  0
   38.1710   28.5860   36.0490 H   0  0  0  0  0  0  0  0  0  0  0  0
   36.8550   26.4110   32.6680 H   0  0  0  0  0  0  0  0  0  0  0  0
   39.3240   22.2440   34.6150 C   0  0  0  0  0  0  0  0  0  0  0  0
   40.2280   21.7500   34.0020 O   0  0  0  0  0  0  0  0  0  0  0  0
   38.2210   21.6060   33.8100 C   0  0  0  0  0  0  0  0  0  0  0  0
   36.9510   21.5480   34.1380 C   0  0  0  0  0  0  0  0  0  0  0  0
   36.3520   21.8860   34.9670 H   0  0  0  0  0  0  0  0  0  0  0  0
   35.9970   20.9560   33.3990 C   0  0  0  0  0  3  0  0  0  0  0  0
   36.4850   20.3720   32.1810 C   0  0  0  0  0  3  0  0  0  0  0  0
   38.3560   20.7950   32.3020 S   0  0  0  0  0  0  0  0  0  0  0  0
  1  5  1  0  0  0  0
  2  6  1  6  0  0  0
  2  1  1  0  0  0  0
  2  3  1  0  0  0  0
  3  8  1  0  0  0  0
  3  4  1  0  0  0  0
  4 10  1  0  0  0  0
  4  9  1  0  0  0  0
  5 12  1  0  0  0  0
  5  4  1  0  0  0  0
  7  3  1  0  0  0  0
 11  5  1  0  0  0  0
 13  1  1  0  0  0  0
 13 14  1  0  0  0  0
 14 19  1  0  0  0  0
 15 20  1  0  0  0  0
 15 14  2  0  0  0  0
 16 15  1  0  0  0  0
 17 18  1  0  0  0  0
 17 16  2  0  0  0  0
 18 13  2  0  0  0  0
 21 17  1  0  0  0  0
 22  2  1  0  0  0  0
 23 22  2  0  0  0  0
 24 25  2  0  0  0  0
 24 22  1  0  0  0  0
 25 26  1  0  0  0  0
 27 25  1  0  0  0  0
 28 29  1  0  0  0  0
 28 27  2  0  0  0  0
 29 24  1  0  0  0  0
M  END
>  <minimizedAffinity>
-4.49462271

$$$$
