
 OpenBabel03272508423D

 17 18  0  0  0  0  0  0  0  0999 V2000
   37.6410   30.0930   51.3060 C   0  0  0  0  0  0  0  0  0  0  0  0
   38.2650   31.0510   50.4920 C   0  0  0  0  0  0  0  0  0  0  0  0
   37.5520   31.5390   49.3850 C   0  0  0  0  0  0  0  0  0  0  0  0
   36.3040   31.0620   49.1580 N   0  0  0  0  0  0  0  0  0  0  0  0
   35.7340   30.1370   49.9660 C   0  0  0  0  0  0  0  0  0  0  0  0
   36.3910   29.6640   51.0190 N   0  0  0  0  0  0  0  0  0  0  0  0
   38.2350   29.7580   52.1360 H   0  0  0  0  0  0  0  0  0  0  0  0
   39.2610   31.3980   50.7140 H   0  0  0  0  0  0  0  0  0  0  0  0
   38.0070   32.2710   48.7470 H   0  0  0  0  0  0  0  0  0  0  0  0
   34.4010   29.6160   49.7340 C   0  0  0  0  0  0  0  0  0  0  0  0
   33.4990   29.6000   50.6160 O   0  0  0  0  0  0  0  0  0  0  0  0
   34.0620   29.0760   48.4210 C   0  0  0  0  0  0  0  0  0  0  0  0
   33.8110   29.6990   47.2650 C   0  0  0  0  0  0  0  0  0  0  0  0
   33.8510   30.7980   47.2430 H   0  0  0  0  0  0  0  0  0  0  0  0
   33.5090   29.0330   46.1250 C   0  0  0  0  0  3  0  0  0  0  0  0
   33.4870   27.5950   46.2810 C   0  0  0  0  0  3  0  0  0  0  0  0
   33.9100   27.3640   48.0840 S   0  0  0  0  0  0  0  0  0  0  0  0
  1  7  1  0  0  0  0
  2  8  1  0  0  0  0
  2  1  2  0  0  0  0
  3  2  1  0  0  0  0
  4  3  2  0  0  0  0
  4  5  1  0  0  0  0
  5  6  2  0  0  0  0
  6  1  1  0  0  0  0
  9  3  1  0  0  0  0
 10  5  1  0  0  0  0
 10 11  2  0  0  0  0
 12 10  1  0  0  0  0
 13 12  2  0  0  0  0
 14 13  1  0  0  0  0
 15 16  2  0  0  0  0
 15 13  1  0  0  0  0
 16 17  1  0  0  0  0
 17 12  1  0  0  0  0
M  END
>  <minimizedAffinity>
-3.82240796

>  <minimizedRMSD>
2.50120401

$$$$
