
 OpenBabel03272508423D

 17 18  0  0  0  0  0  0  0  0999 V2000
   36.7500   31.6570   49.9730 C   0  0  0  0  0  0  0  0  0  0  0  0
   37.8500   30.9380   50.4660 C   0  0  0  0  0  0  0  0  0  0  0  0
   37.7840   29.5360   50.4410 C   0  0  0  0  0  0  0  0  0  0  0  0
   36.6670   28.9500   49.9460 N   0  0  0  0  0  0  0  0  0  0  0  0
   35.6240   29.6770   49.4780 C   0  0  0  0  0  0  0  0  0  0  0  0
   35.6670   31.0040   49.4920 N   0  0  0  0  0  0  0  0  0  0  0  0
   36.8590   32.7240   50.0180 H   0  0  0  0  0  0  0  0  0  0  0  0
   38.7150   31.4510   50.8510 H   0  0  0  0  0  0  0  0  0  0  0  0
   38.6100   28.9630   50.8130 H   0  0  0  0  0  0  0  0  0  0  0  0
   34.4220   29.0630   48.9480 C   0  0  0  0  0  0  0  0  0  0  0  0
   33.4500   28.7060   49.6680 O   0  0  0  0  0  0  0  0  0  0  0  0
   34.3100   28.8330   47.5110 C   0  0  0  0  0  0  0  0  0  0  0  0
   34.6390   29.6140   46.4780 C   0  0  0  0  0  0  0  0  0  0  0  0
   35.0710   30.6050   46.6880 H   0  0  0  0  0  0  0  0  0  0  0  0
   34.4640   29.2380   45.1900 C   0  0  0  0  0  3  0  0  0  0  0  0
   33.8890   27.9180   45.0440 C   0  0  0  0  0  3  0  0  0  0  0  0
   33.6640   27.3630   46.8110 S   0  0  0  0  0  0  0  0  0  0  0  0
  1  7  1  0  0  0  0
  1  2  1  0  0  0  0
  2  8  1  0  0  0  0
  3  2  2  0  0  0  0
  3  9  1  0  0  0  0
  4  3  1  0  0  0  0
  5  6  1  0  0  0  0
  5  4  2  0  0  0  0
  6  1  2  0  0  0  0
 10  5  1  0  0  0  0
 10 11  2  0  0  0  0
 12 10  1  0  0  0  0
 13 14  1  0  0  0  0
 13 12  2  0  0  0  0
 15 13  1  0  0  0  0
 16 15  2  0  0  0  0
 16 17  1  0  0  0  0
 17 12  1  0  0  0  0
M  END
>  <minimizedAffinity>
-3.66796136

>  <minimizedRMSD>
2.90687609

$$$$
