
 OpenBabel03262522093D

 17 18  0  0  0  0  0  0  0  0999 V2000
   36.6510   21.5220   36.0420 C   0  0  0  0  0  0  0  0  0  0  0  0
   37.6820   22.1140   35.2850 C   0  0  0  0  0  0  0  0  0  0  0  0
   37.6510   21.9400   33.8900 C   0  0  0  0  0  0  0  0  0  0  0  0
   36.6450   21.2180   33.3350 N   0  0  0  0  0  0  0  0  0  0  0  0
   35.6710   20.6640   34.1040 C   0  0  0  0  0  0  0  0  0  0  0  0
   35.6610   20.8060   35.4440 N   0  0  0  0  0  0  0  0  0  0  0  0
   36.6740   21.6540   37.1120 H   0  0  0  0  0  0  0  0  0  0  0  0
   38.4400   22.3950   33.3070 H   0  0  0  0  0  0  0  0  0  0  0  0
   34.9260   20.1140   33.5460 H   0  0  0  0  0  0  0  0  0  0  0  0
   38.7280   22.8750   35.9650 C   0  0  0  0  0  0  0  0  0  0  0  0
   39.5210   22.2270   36.6350 O   0  0  0  0  0  0  0  0  0  0  0  0
   38.7980   24.3020   35.8410 C   0  0  0  0  0  0  0  0  0  0  0  0
   38.0780   25.2970   36.4470 C   0  0  0  0  0  0  0  0  0  0  0  0
   37.3100   25.0060   37.1500 H   0  0  0  0  0  0  0  0  0  0  0  0
   38.3870   26.5930   36.1140 C   0  0  0  0  0  3  0  0  0  0  0  0
   39.3820   26.8330   35.2080 C   0  0  0  0  0  3  0  0  0  0  0  0
   39.9520   25.1430   34.7660 S   0  0  0  0  0  0  0  0  0  0  0  0
  1  7  1  0  0  0  0
  2 10  1  0  0  0  0
  2  1  2  0  0  0  0
  3  2  1  0  0  0  0
  4  3  2  0  0  0  0
  4  5  1  0  0  0  0
  5  6  2  0  0  0  0
  6  1  1  0  0  0  0
  8  3  1  0  0  0  0
  9  5  1  0  0  0  0
 10 11  2  0  0  0  0
 12 10  1  0  0  0  0
 12 13  2  0  0  0  0
 13 14  1  0  0  0  0
 15 13  1  0  0  0  0
 16 15  2  0  0  0  0
 17 16  1  0  0  0  0
 17 12  1  0  0  0  0
M  END
>  <minimizedAffinity>
-3.79390788

$$$$

 OpenBabel03262522093D

 17 18  0  0  0  0  0  0  0  0999 V2000
   40.0850   22.6330   37.5980 C   0  0  0  0  0  0  0  0  0  0  0  0
   39.4650   23.0380   36.3990 C   0  0  0  0  0  0  0  0  0  0  0  0
   40.0580   22.6360   35.1890 C   0  0  0  0  0  0  0  0  0  0  0  0
   41.1870   21.8860   35.2220 N   0  0  0  0  0  0  0  0  0  0  0  0
   41.7530   21.5180   36.4010 C   0  0  0  0  0  0  0  0  0  0  0  0
   41.2180   21.8790   37.5850 N   0  0  0  0  0  0  0  0  0  0  0  0
   39.6320   22.9400   38.5270 H   0  0  0  0  0  0  0  0  0  0  0  0
   39.5830   22.9460   34.2680 H   0  0  0  0  0  0  0  0  0  0  0  0
   42.6480   20.9210   36.2970 H   0  0  0  0  0  0  0  0  0  0  0  0
   38.2490   23.8470   36.4560 C   0  0  0  0  0  0  0  0  0  0  0  0
   37.2980   23.3550   37.0490 O   0  0  0  0  0  0  0  0  0  0  0  0
   38.1970   25.1410   35.8410 C   0  0  0  0  0  0  0  0  0  0  0  0
   38.3770   26.3950   36.3620 C   0  0  0  0  0  0  0  0  0  0  0  0
   38.5980   26.4750   37.4170 H   0  0  0  0  0  0  0  0  0  0  0  0
   38.2600   27.4590   35.5010 C   0  0  0  0  0  3  0  0  0  0  0  0
   37.9750   27.2290   34.1850 C   0  0  0  0  0  3  0  0  0  0  0  0
   37.8530   25.3960   34.1060 S   0  0  0  0  0  0  0  0  0  0  0  0
  1  7  1  0  0  0  0
  2 10  1  0  0  0  0
  2  1  2  0  0  0  0
  3  4  2  0  0  0  0
  3  2  1  0  0  0  0
  4  5  1  0  0  0  0
  5  6  2  0  0  0  0
  6  1  1  0  0  0  0
  8  3  1  0  0  0  0
  9  5  1  0  0  0  0
 10 11  2  0  0  0  0
 12 13  2  0  0  0  0
 12 10  1  0  0  0  0
 13 14  1  0  0  0  0
 15 13  1  0  0  0  0
 16 15  2  0  0  0  0
 17 16  1  0  0  0  0
 17 12  1  0  0  0  0
M  END
>  <minimizedAffinity>
-3.75444627

$$$$

 OpenBabel03262522093D

 17 18  0  0  0  0  0  0  0  0999 V2000
   37.6780   24.0340   36.7480 C   0  0  0  0  0  0  0  0  0  0  0  0
   38.5120   23.2010   35.9740 C   0  0  0  0  0  0  0  0  0  0  0  0
   39.5750   22.5540   36.6270 C   0  0  0  0  0  0  0  0  0  0  0  0
   39.7560   22.7520   37.9570 N   0  0  0  0  0  0  0  0  0  0  0  0
   38.9280   23.5650   38.6650 C   0  0  0  0  0  0  0  0  0  0  0  0
   37.8960   24.2050   38.0800 N   0  0  0  0  0  0  0  0  0  0  0  0
   36.8630   24.5310   36.2490 H   0  0  0  0  0  0  0  0  0  0  0  0
   40.2160   21.9130   36.0350 H   0  0  0  0  0  0  0  0  0  0  0  0
   39.1740   23.6420   39.7150 H   0  0  0  0  0  0  0  0  0  0  0  0
   38.2450   23.0440   34.5460 C   0  0  0  0  0  0  0  0  0  0  0  0
   38.9020   23.7500   33.7910 O   0  0  0  0  0  0  0  0  0  0  0  0
   37.2630   22.1090   34.0790 C   0  0  0  0  0  0  0  0  0  0  0  0
   36.4890   21.2030   34.7530 C   0  0  0  0  0  0  0  0  0  0  0  0
   36.6010   21.1440   35.8260 H   0  0  0  0  0  0  0  0  0  0  0  0
   35.6250   20.4340   34.0100 C   0  0  0  0  0  3  0  0  0  0  0  0
   35.5760   20.6020   32.6550 C   0  0  0  0  0  3  0  0  0  0  0  0
   36.8160   21.9260   32.3580 S   0  0  0  0  0  0  0  0  0  0  0  0
  1  6  1  0  0  0  0
  2  3  1  0  0  0  0
  2  1  2  0  0  0  0
  3  4  2  0  0  0  0
  4  5  1  0  0  0  0
  5  9  1  0  0  0  0
  6  5  2  0  0  0  0
  7  1  1  0  0  0  0
  8  3  1  0  0  0  0
 10  2  1  0  0  0  0
 11 10  2  0  0  0  0
 12 10  1  0  0  0  0
 12 13  2  0  0  0  0
 13 14  1  0  0  0  0
 15 13  1  0  0  0  0
 16 15  2  0  0  0  0
 17 16  1  0  0  0  0
 17 12  1  0  0  0  0
M  END
>  <minimizedAffinity>
-3.63313174

$$$$

 OpenBabel03262522093D

 17 18  0  0  0  0  0  0  0  0999 V2000
   36.8910   27.7470   34.5800 C   0  0  0  0  0  0  0  0  0  0  0  0
   38.0560   27.1170   34.0970 C   0  0  0  0  0  0  0  0  0  0  0  0
   38.3380   27.2310   32.7240 C   0  0  0  0  0  0  0  0  0  0  0  0
   37.4900   27.9320   31.9300 N   0  0  0  0  0  0  0  0  0  0  0  0
   36.3770   28.5220   32.4380 C   0  0  0  0  0  0  0  0  0  0  0  0
   36.0690   28.4400   33.7480 N   0  0  0  0  0  0  0  0  0  0  0  0
   36.6730   27.6610   35.6330 H   0  0  0  0  0  0  0  0  0  0  0  0
   39.2320   26.7490   32.3520 H   0  0  0  0  0  0  0  0  0  0  0  0
   35.7830   29.0510   31.7060 H   0  0  0  0  0  0  0  0  0  0  0  0
   38.9140   26.3820   35.0240 C   0  0  0  0  0  0  0  0  0  0  0  0
   40.0040   26.8850   35.2690 O   0  0  0  0  0  0  0  0  0  0  0  0
   38.4820   25.1420   35.6000 C   0  0  0  0  0  0  0  0  0  0  0  0
   38.0460   24.8370   36.8620 C   0  0  0  0  0  0  0  0  0  0  0  0
   38.0020   25.6380   37.5860 H   0  0  0  0  0  0  0  0  0  0  0  0
   37.6980   23.5320   37.1110 C   0  0  0  0  0  3  0  0  0  0  0  0
   37.7990   22.6080   36.1100 C   0  0  0  0  0  3  0  0  0  0  0  0
   38.4250   23.6010   34.6960 S   0  0  0  0  0  0  0  0  0  0  0  0
  1  7  1  0  0  0  0
  2  1  1  0  0  0  0
  2 10  1  0  0  0  0
  3  2  2  0  0  0  0
  4  5  2  0  0  0  0
  4  3  1  0  0  0  0
  5  6  1  0  0  0  0
  6  1  2  0  0  0  0
  8  3  1  0  0  0  0
  9  5  1  0  0  0  0
 10 11  2  0  0  0  0
 10 12  1  0  0  0  0
 12 13  2  0  0  0  0
 13 15  1  0  0  0  0
 13 14  1  0  0  0  0
 16 15  2  0  0  0  0
 17 12  1  0  0  0  0
 17 16  1  0  0  0  0
M  END
>  <minimizedAffinity>
-3.6271832

$$$$

 OpenBabel03262522093D

 17 18  0  0  0  0  0  0  0  0999 V2000
   38.0640   24.9010   36.7510 C   0  0  0  0  0  0  0  0  0  0  0  0
   38.3180   25.1960   35.3970 C   0  0  0  0  0  0  0  0  0  0  0  0
   38.2750   24.1330   34.4770 C   0  0  0  0  0  0  0  0  0  0  0  0
   37.9930   22.8830   34.9220 N   0  0  0  0  0  0  0  0  0  0  0  0
   37.7550   22.6430   36.2380 C   0  0  0  0  0  0  0  0  0  0  0  0
   37.7850   23.6320   37.1540 N   0  0  0  0  0  0  0  0  0  0  0  0
   38.0970   25.7140   37.4570 H   0  0  0  0  0  0  0  0  0  0  0  0
   38.4690   24.3580   33.4370 H   0  0  0  0  0  0  0  0  0  0  0  0
   37.5430   21.6080   36.4680 H   0  0  0  0  0  0  0  0  0  0  0  0
   38.6140   26.5720   35.0040 C   0  0  0  0  0  0  0  0  0  0  0  0
   39.6790   27.0310   35.3960 O   0  0  0  0  0  0  0  0  0  0  0  0
   37.6910   27.3240   34.2040 C   0  0  0  0  0  0  0  0  0  0  0  0
   36.6010   28.0760   34.5530 C   0  0  0  0  0  0  0  0  0  0  0  0
   36.3520   28.1460   35.6020 H   0  0  0  0  0  0  0  0  0  0  0  0
   35.9030   28.6860   33.5380 C   0  0  0  0  0  3  0  0  0  0  0  0
   36.3170   28.5200   32.2470 C   0  0  0  0  0  3  0  0  0  0  0  0
   37.7900   27.4350   32.4230 S   0  0  0  0  0  0  0  0  0  0  0  0
  1  6  1  0  0  0  0
  1  7  1  0  0  0  0
  2  1  2  0  0  0  0
  3  4  2  0  0  0  0
  3  2  1  0  0  0  0
  4  5  1  0  0  0  0
  5  9  1  0  0  0  0
  5  6  2  0  0  0  0
  8  3  1  0  0  0  0
 10 11  2  0  0  0  0
 10  2  1  0  0  0  0
 12 13  2  0  0  0  0
 12 10  1  0  0  0  0
 13 14  1  0  0  0  0
 15 13  1  0  0  0  0
 16 17  1  0  0  0  0
 16 15  2  0  0  0  0
 17 12  1  0  0  0  0
M  END
>  <minimizedAffinity>
-3.62589812

$$$$

 OpenBabel03262522093D

 17 18  0  0  0  0  0  0  0  0999 V2000
   36.5600   23.9040   31.9450 C   0  0  0  0  0  0  0  0  0  0  0  0
   37.1900   25.0280   32.5160 C   0  0  0  0  0  0  0  0  0  0  0  0
   36.6570   26.2960   32.2190 C   0  0  0  0  0  0  0  0  0  0  0  0
   35.5750   26.3860   31.4070 N   0  0  0  0  0  0  0  0  0  0  0  0
   34.9990   25.2750   30.8770 C   0  0  0  0  0  0  0  0  0  0  0  0
   35.4760   24.0410   31.1350 N   0  0  0  0  0  0  0  0  0  0  0  0
   36.9670   22.9320   32.1700 H   0  0  0  0  0  0  0  0  0  0  0  0
   37.1390   27.1600   32.6580 H   0  0  0  0  0  0  0  0  0  0  0  0
   34.1440   25.4770   30.2470 H   0  0  0  0  0  0  0  0  0  0  0  0
   38.3520   24.8390   33.3800 C   0  0  0  0  0  0  0  0  0  0  0  0
   39.4480   25.0240   32.8640 O   0  0  0  0  0  0  0  0  0  0  0  0
   38.1950   24.4560   34.7530 C   0  0  0  0  0  0  0  0  0  0  0  0
   38.0630   25.2090   35.8900 C   0  0  0  0  0  0  0  0  0  0  0  0
   38.0740   26.2840   35.7860 H   0  0  0  0  0  0  0  0  0  0  0  0
   37.9280   24.5360   37.0800 C   0  0  0  0  0  3  0  0  0  0  0  0
   37.9300   23.1700   37.0820 C   0  0  0  0  0  3  0  0  0  0  0  0
   38.1360   22.7570   35.3030 S   0  0  0  0  0  0  0  0  0  0  0  0
  1  7  1  0  0  0  0
  1  2  1  0  0  0  0
  2 10  1  0  0  0  0
  3  2  2  0  0  0  0
  3  8  1  0  0  0  0
  4  3  1  0  0  0  0
  5  6  1  0  0  0  0
  5  4  2  0  0  0  0
  6  1  2  0  0  0  0
  9  5  1  0  0  0  0
 10 12  1  0  0  0  0
 11 10  2  0  0  0  0
 12 17  1  0  0  0  0
 12 13  2  0  0  0  0
 13 15  1  0  0  0  0
 14 13  1  0  0  0  0
 15 16  2  0  0  0  0
 17 16  1  0  0  0  0
M  END
>  <minimizedAffinity>
-3.61043024

$$$$

 OpenBabel03262522093D

 17 18  0  0  0  0  0  0  0  0999 V2000
   37.6320   24.2750   36.9140 C   0  0  0  0  0  0  0  0  0  0  0  0
   38.4980   23.6540   35.9920 C   0  0  0  0  0  0  0  0  0  0  0  0
   39.5750   22.9110   36.5070 C   0  0  0  0  0  0  0  0  0  0  0  0
   39.7370   22.8230   37.8510 N   0  0  0  0  0  0  0  0  0  0  0  0
   38.8770   23.4390   38.7040 C   0  0  0  0  0  0  0  0  0  0  0  0
   37.8310   24.1600   38.2550 N   0  0  0  0  0  0  0  0  0  0  0  0
   36.8050   24.8460   36.5220 H   0  0  0  0  0  0  0  0  0  0  0  0
   40.2410   22.4330   35.8010 H   0  0  0  0  0  0  0  0  0  0  0  0
   39.1110   23.2940   39.7500 H   0  0  0  0  0  0  0  0  0  0  0  0
   38.2500   23.8020   34.5600 C   0  0  0  0  0  0  0  0  0  0  0  0
   37.8740   22.7970   33.9680 O   0  0  0  0  0  0  0  0  0  0  0  0
   38.4450   25.0630   33.9050 C   0  0  0  0  0  0  0  0  0  0  0  0
   39.5310   25.8960   33.8590 C   0  0  0  0  0  0  0  0  0  0  0  0
   40.4200   25.5950   34.3940 H   0  0  0  0  0  0  0  0  0  0  0  0
   39.4050   27.0570   33.1340 C   0  0  0  0  0  3  0  0  0  0  0  0
   38.2250   27.3270   32.5010 C   0  0  0  0  0  3  0  0  0  0  0  0
   37.1860   25.8720   32.9280 S   0  0  0  0  0  0  0  0  0  0  0  0
  1  6  1  0  0  0  0
  2  3  1  0  0  0  0
  2  1  2  0  0  0  0
  3  4  2  0  0  0  0
  4  5  1  0  0  0  0
  5  9  1  0  0  0  0
  6  5  2  0  0  0  0
  7  1  1  0  0  0  0
  8  3  1  0  0  0  0
 10  2  1  0  0  0  0
 11 10  2  0  0  0  0
 12 10  1  0  0  0  0
 13 12  2  0  0  0  0
 13 14  1  0  0  0  0
 15 13  1  0  0  0  0
 16 17  1  0  0  0  0
 16 15  2  0  0  0  0
 17 12  1  0  0  0  0
M  END
>  <minimizedAffinity>
-3.60791659

$$$$

 OpenBabel03262522093D

 17 18  0  0  0  0  0  0  0  0999 V2000
   37.7860   24.4940   36.8660 C   0  0  0  0  0  0  0  0  0  0  0  0
   38.7570   23.9740   35.9880 C   0  0  0  0  0  0  0  0  0  0  0  0
   39.7410   23.1270   36.5300 C   0  0  0  0  0  0  0  0  0  0  0  0
   39.7160   22.8490   37.8580 N   0  0  0  0  0  0  0  0  0  0  0  0
   38.7610   23.3740   38.6690 C   0  0  0  0  0  0  0  0  0  0  0  0
   37.7990   24.1890   38.1920 N   0  0  0  0  0  0  0  0  0  0  0  0
   37.0310   25.1440   36.4530 H   0  0  0  0  0  0  0  0  0  0  0  0
   40.4870   22.7260   35.8580 H   0  0  0  0  0  0  0  0  0  0  0  0
   38.8480   23.0780   39.7050 H   0  0  0  0  0  0  0  0  0  0  0  0
   38.7090   24.3260   34.5710 C   0  0  0  0  0  0  0  0  0  0  0  0
   37.9480   23.6670   33.8740 O   0  0  0  0  0  0  0  0  0  0  0  0
   39.5190   25.3870   34.0480 C   0  0  0  0  0  0  0  0  0  0  0  0
   40.3060   26.3150   34.6780 C   0  0  0  0  0  0  0  0  0  0  0  0
   40.3570   26.2830   35.7570 H   0  0  0  0  0  0  0  0  0  0  0  0
   40.9710   27.2200   33.8860 C   0  0  0  0  0  3  0  0  0  0  0  0
   40.8230   27.1590   32.5290 C   0  0  0  0  0  3  0  0  0  0  0  0
   39.6750   25.7420   32.3030 S   0  0  0  0  0  0  0  0  0  0  0  0
  1  6  1  0  0  0  0
  2  3  1  0  0  0  0
  2  1  2  0  0  0  0
  3  4  2  0  0  0  0
  4  5  1  0  0  0  0
  5  9  1  0  0  0  0
  6  5  2  0  0  0  0
  7  1  1  0  0  0  0
  8  3  1  0  0  0  0
 10  2  1  0  0  0  0
 11 10  2  0  0  0  0
 12 10  1  0  0  0  0
 12 13  2  0  0  0  0
 13 14  1  0  0  0  0
 15 13  1  0  0  0  0
 16 15  2  0  0  0  0
 17 16  1  0  0  0  0
 17 12  1  0  0  0  0
M  END
>  <minimizedAffinity>
-3.60064697

$$$$

 OpenBabel03262522093D

 17 18  0  0  0  0  0  0  0  0999 V2000
   38.3290   26.0450   36.4130 C   0  0  0  0  0  0  0  0  0  0  0  0
   38.1790   24.8380   35.7010 C   0  0  0  0  0  0  0  0  0  0  0  0
   37.9380   24.9210   34.3180 C   0  0  0  0  0  0  0  0  0  0  0  0
   37.8610   26.1420   33.7320 N   0  0  0  0  0  0  0  0  0  0  0  0
   38.0110   27.2810   34.4570 C   0  0  0  0  0  0  0  0  0  0  0  0
   38.2440   27.2480   35.7840 N   0  0  0  0  0  0  0  0  0  0  0  0
   38.5130   25.9830   37.4730 H   0  0  0  0  0  0  0  0  0  0  0  0
   37.8230   23.9960   33.7700 H   0  0  0  0  0  0  0  0  0  0  0  0
   37.9290   28.1900   33.8770 H   0  0  0  0  0  0  0  0  0  0  0  0
   38.2760   23.5660   36.4130 C   0  0  0  0  0  0  0  0  0  0  0  0
   37.2400   23.1410   36.9090 O   0  0  0  0  0  0  0  0  0  0  0  0
   39.5280   22.8730   36.5140 C   0  0  0  0  0  0  0  0  0  0  0  0
   40.2830   22.5300   37.6040 C   0  0  0  0  0  0  0  0  0  0  0  0
   39.9130   22.8070   38.5810 H   0  0  0  0  0  0  0  0  0  0  0  0
   41.4580   21.8570   37.3720 C   0  0  0  0  0  3  0  0  0  0  0  0
   41.8190   21.5630   36.0870 C   0  0  0  0  0  3  0  0  0  0  0  0
   40.4370   22.2650   35.1000 S   0  0  0  0  0  0  0  0  0  0  0  0
  1  7  1  0  0  0  0
  2 10  1  0  0  0  0
  2  1  2  0  0  0  0
  3  2  1  0  0  0  0
  4  3  2  0  0  0  0
  4  5  1  0  0  0  0
  5  6  2  0  0  0  0
  6  1  1  0  0  0  0
  8  3  1  0  0  0  0
  9  5  1  0  0  0  0
 10 12  1  0  0  0  0
 10 11  2  0  0  0  0
 12 13  2  0  0  0  0
 13 14  1  0  0  0  0
 15 13  1  0  0  0  0
 16 15  2  0  0  0  0
 17 16  1  0  0  0  0
 17 12  1  0  0  0  0
M  END
>  <minimizedAffinity>
-3.5611167

$$$$
