
 OpenBabel03262522083D

 17 18  0  0  0  0  0  0  0  0999 V2000
   37.2910   29.7460   49.8000 C   0  0  0  0  0  0  0  0  0  0  0  0
   36.5320   30.4080   48.8140 C   0  0  0  0  0  0  0  0  0  0  0  0
   35.1340   30.4290   48.9700 C   0  0  0  0  0  0  0  0  0  0  0  0
   34.5790   29.8190   50.0480 N   0  0  0  0  0  0  0  0  0  0  0  0
   35.3490   29.1910   50.9740 C   0  0  0  0  0  0  0  0  0  0  0  0
   36.6920   29.1480   50.8650 N   0  0  0  0  0  0  0  0  0  0  0  0
   38.3620   29.7290   49.6820 H   0  0  0  0  0  0  0  0  0  0  0  0
   34.5500   30.9380   48.2150 H   0  0  0  0  0  0  0  0  0  0  0  0
   34.7910   28.7450   51.7850 H   0  0  0  0  0  0  0  0  0  0  0  0
   37.2120   31.0380   47.6850 C   0  0  0  0  0  0  0  0  0  0  0  0
   36.9510   30.5900   46.5750 O   0  0  0  0  0  0  0  0  0  0  0  0
   38.1330   32.1180   47.8900 C   0  0  0  0  0  0  0  0  0  0  0  0
   39.1780   32.5710   47.1290 C   0  0  0  0  0  0  0  0  0  0  0  0
   39.3860   32.0550   46.2030 H   0  0  0  0  0  0  0  0  0  0  0  0
   39.8840   33.6490   47.6050 C   0  0  0  0  0  3  0  0  0  0  0  0
   39.5230   34.2160   48.7940 C   0  0  0  0  0  3  0  0  0  0  0  0
   38.0910   33.1920   49.3200 S   0  0  0  0  0  0  0  0  0  0  0  0
  1  6  1  0  0  0  0
  2  3  1  0  0  0  0
  2  1  2  0  0  0  0
  3  4  2  0  0  0  0
  4  5  1  0  0  0  0
  5  9  1  0  0  0  0
  6  5  2  0  0  0  0
  7  1  1  0  0  0  0
  8  3  1  0  0  0  0
 10 12  1  0  0  0  0
 10  2  1  0  0  0  0
 11 10  2  0  0  0  0
 12 17  1  0  0  0  0
 13 15  1  0  0  0  0
 13 12  2  0  0  0  0
 14 13  1  0  0  0  0
 15 16  2  0  0  0  0
 16 17  1  0  0  0  0
M  END
>  <minimizedAffinity>
-4.10294819

>  <minimizedRMSD>
2.99222064

$$$$
