
 OpenBabel03272501303D

 17 18  0  0  0  0  0  0  0  0999 V2000
   37.5680   30.2720   50.8880 C   0  0  0  0  0  0  0  0  0  0  0  0
   38.2480   31.2310   50.1240 C   0  0  0  0  0  0  0  0  0  0  0  0
   37.9980   31.2670   48.7620 C   0  0  0  0  0  0  0  0  0  0  0  0
   37.1040   30.3640   48.2470 N   0  0  0  0  0  0  0  0  0  0  0  0
   36.4700   29.4620   48.9980 C   0  0  0  0  0  0  0  0  0  0  0  0
   36.6980   29.4090   50.3290 N   0  0  0  0  0  0  0  0  0  0  0  0
   37.6840   30.1520   51.9580 H   0  0  0  0  0  0  0  0  0  0  0  0
   38.9190   31.8780   50.6380 H   0  0  0  0  0  0  0  0  0  0  0  0
   35.7860   28.8010   48.4810 H   0  0  0  0  0  0  0  0  0  0  0  0
   38.6820   32.2400   47.9460 C   0  0  0  0  0  0  0  0  0  0  0  0
   39.1700   33.3170   48.3930 O   0  0  0  0  0  0  0  0  0  0  0  0
   38.8400   32.0060   46.5120 C   0  0  0  0  0  0  0  0  0  0  0  0
   38.0520   32.2960   45.4800 C   0  0  0  0  0  0  0  0  0  0  0  0
   37.0950   32.8060   45.6800 H   0  0  0  0  0  0  0  0  0  0  0  0
   38.4340   31.9660   44.2130 C   0  0  0  0  0  3  0  0  0  0  0  0
   39.6390   31.3350   44.0690 C   0  0  0  0  0  3  0  0  0  0  0  0
   40.2400   31.2150   45.7960 S   0  0  0  0  0  0  0  0  0  0  0  0
  1  7  1  0  0  0  0
  2  8  1  0  0  0  0
  2  1  2  0  0  0  0
  3  2  1  0  0  0  0
  4  3  2  0  0  0  0
  4  5  1  0  0  0  0
  5  6  2  0  0  0  0
  6  1  1  0  0  0  0
  9  5  1  0  0  0  0
 10 11  2  0  0  0  0
 10  3  1  0  0  0  0
 12 10  1  0  0  0  0
 13 14  1  0  0  0  0
 13 12  2  0  0  0  0
 15 13  1  0  0  0  0
 16 15  2  0  0  0  0
 16 17  1  0  0  0  0
 17 12  1  0  0  0  0
M  END
>  <minimizedAffinity>
-4.45414448

>  <minimizedRMSD>
1.76778209

$$$$
