
 OpenBabel03272501293D

 17 18  0  0  0  0  0  0  0  0999 V2000
   37.4460   29.8730   50.9180 C   0  0  0  0  0  0  0  0  0  0  0  0
   38.1620   30.8870   50.2680 C   0  0  0  0  0  0  0  0  0  0  0  0
   37.8040   31.1970   48.9650 C   0  0  0  0  0  0  0  0  0  0  0  0
   36.7730   30.4940   48.3970 N   0  0  0  0  0  0  0  0  0  0  0  0
   36.1080   29.5340   49.0400 C   0  0  0  0  0  0  0  0  0  0  0  0
   36.4400   29.2150   50.3110 N   0  0  0  0  0  0  0  0  0  0  0  0
   37.6370   29.5470   51.9330 H   0  0  0  0  0  0  0  0  0  0  0  0
   38.9430   31.3600   50.8140 H   0  0  0  0  0  0  0  0  0  0  0  0
   35.3120   29.0480   48.4900 H   0  0  0  0  0  0  0  0  0  0  0  0
   38.5220   32.2340   48.2650 C   0  0  0  0  0  0  0  0  0  0  0  0
   38.6550   33.4150   48.6980 O   0  0  0  0  0  0  0  0  0  0  0  0
   39.1460   31.9430   46.9760 C   0  0  0  0  0  0  0  0  0  0  0  0
   39.2170   30.8200   46.2670 C   0  0  0  0  0  0  0  0  0  0  0  0
   38.7380   29.9140   46.6700 H   0  0  0  0  0  0  0  0  0  0  0  0
   39.8710   30.8070   45.0680 C   0  0  0  0  0  3  0  0  0  0  0  0
   40.4330   31.9830   44.6530 C   0  0  0  0  0  3  0  0  0  0  0  0
   40.0120   33.1350   46.0150 S   0  0  0  0  0  0  0  0  0  0  0  0
  1  7  1  0  0  0  0
  2  8  1  0  0  0  0
  2  1  2  0  0  0  0
  3  2  1  0  0  0  0
  4  3  2  0  0  0  0
  4  5  1  0  0  0  0
  5  6  2  0  0  0  0
  6  1  1  0  0  0  0
  9  5  1  0  0  0  0
 10 11  2  0  0  0  0
 10  3  1  0  0  0  0
 12 10  1  0  0  0  0
 13 14  1  0  0  0  0
 13 12  2  0  0  0  0
 15 13  1  0  0  0  0
 16 15  2  0  0  0  0
 16 17  1  0  0  0  0
 17 12  1  0  0  0  0
M  END
>  <minimizedAffinity>
-4.70338917

>  <minimizedRMSD>
1.95416057

$$$$
