
 OpenBabel03272501293D

 17 18  0  0  0  0  0  0  0  0999 V2000
   37.5160   30.2480   51.2720 C   0  0  0  0  0  0  0  0  0  0  0  0
   38.1490   31.0750   50.3340 C   0  0  0  0  0  0  0  0  0  0  0  0
   37.8460   30.8830   48.9950 C   0  0  0  0  0  0  0  0  0  0  0  0
   36.9480   29.8980   48.6730 N   0  0  0  0  0  0  0  0  0  0  0  0
   36.3600   29.1250   49.5880 C   0  0  0  0  0  0  0  0  0  0  0  0
   36.6400   29.2940   50.8990 N   0  0  0  0  0  0  0  0  0  0  0  0
   37.6750   30.3060   52.3410 H   0  0  0  0  0  0  0  0  0  0  0  0
   38.8280   31.8050   50.7070 H   0  0  0  0  0  0  0  0  0  0  0  0
   35.6680   28.3800   49.2150 H   0  0  0  0  0  0  0  0  0  0  0  0
   38.4810   31.7160   48.0030 C   0  0  0  0  0  0  0  0  0  0  0  0
   38.9140   32.8810   48.2340 O   0  0  0  0  0  0  0  0  0  0  0  0
   38.6510   31.2210   46.6390 C   0  0  0  0  0  0  0  0  0  0  0  0
   37.7760   30.7260   45.7660 C   0  0  0  0  0  0  0  0  0  0  0  0
   36.7190   30.6520   46.0690 H   0  0  0  0  0  0  0  0  0  0  0  0
   38.1940   30.3250   44.5300 C   0  0  0  0  0  3  0  0  0  0  0  0
   39.5260   30.4580   44.2500 C   0  0  0  0  0  3  0  0  0  0  0  0
   40.1940   31.1760   45.7980 S   0  0  0  0  0  0  0  0  0  0  0  0
  1  7  1  0  0  0  0
  2  8  1  0  0  0  0
  2  1  2  0  0  0  0
  3  2  1  0  0  0  0
  4  3  2  0  0  0  0
  4  5  1  0  0  0  0
  5  6  2  0  0  0  0
  6  1  1  0  0  0  0
  9  5  1  0  0  0  0
 10 11  2  0  0  0  0
 10  3  1  0  0  0  0
 12 10  1  0  0  0  0
 13 14  1  0  0  0  0
 13 12  2  0  0  0  0
 15 13  1  0  0  0  0
 16 15  2  0  0  0  0
 16 17  1  0  0  0  0
 17 12  1  0  0  0  0
M  END
>  <minimizedAffinity>
-4.52419281

>  <minimizedRMSD>
1.04978931

$$$$
