
 OpenBabel03272505093D

 26 28  0  0  0  0  0  0  0  0999 V2000
   35.7340   30.3100   46.4950 Cl  0  0  0  0  0  0  0  0  0  0  0  0
   35.5260   29.7280   48.1210 C   0  0  0  0  0  0  0  0  0  0  0  0
   36.3480   30.2820   49.0780 C   0  0  0  0  0  0  0  0  0  0  0  0
   36.2010   29.8330   50.3840 C   0  0  0  0  0  0  0  0  0  0  0  0
   35.2630   28.8730   50.6820 C   0  0  0  0  0  0  0  0  0  0  0  0
   34.4750   28.3660   49.6620 C   0  0  0  0  0  0  0  0  0  0  0  0
   34.5720   28.7680   48.3510 C   0  0  0  0  0  0  0  0  0  0  0  0
   36.8340   30.2520   51.1540 H   0  0  0  0  0  0  0  0  0  0  0  0
   35.1760   28.5470   51.7140 H   0  0  0  0  0  0  0  0  0  0  0  0
   33.7360   27.6040   49.9210 H   0  0  0  0  0  0  0  0  0  0  0  0
   38.2320   33.4060   49.1910 C   0  0  0  0  0  0  0  0  0  0  0  0
   39.1700   33.2770   48.1470 C   0  0  0  0  0  0  0  0  0  0  0  0
   39.1430   32.0940   47.4020 C   0  0  0  0  0  0  0  0  0  0  0  0
   38.2160   31.1670   47.7440 N   0  0  0  0  0  0  0  0  0  0  0  0
   37.3400   31.3060   48.7310 C   0  0  0  0  0  0  0  0  0  0  0  0
   37.3660   32.4290   49.4400 N   0  0  0  0  0  0  0  0  0  0  0  0
   38.2920   34.3270   49.7310 H   0  0  0  0  0  0  0  0  0  0  0  0
   39.8800   34.0580   47.9300 H   0  0  0  0  0  0  0  0  0  0  0  0
   39.8200   31.9280   46.6000 H   0  0  0  0  0  0  0  0  0  0  0  0
   33.5740   28.1330   47.0350 S   0  0  0  0  0  0  0  0  0  0  0  0
   31.9440   27.7300   47.6170 C   0  0  0  0  0  0  0  0  0  0  0  0
   31.4780   27.6870   48.9630 C   0  0  0  0  0  0  0  0  0  0  0  0
   32.1900   27.9260   49.7330 H   0  0  0  0  0  0  0  0  0  0  0  0
   30.1640   27.3450   49.1480 C   0  0  0  0  0  0  0  0  0  0  0  0
   29.3710   27.0650   48.0710 C   0  0  0  0  0  0  0  0  0  0  0  0
   30.4560   27.2650   46.5910 S   0  0  0  0  0  0  0  0  0  0  0  0
  1  2  1  0  0  0  0
  2  7  2  0  0  0  0
  2  3  1  0  0  0  0
  3  4  2  0  0  0  0
  4  5  1  0  0  0  0
  4  8  1  0  0  0  0
  5  9  1  0  0  0  0
  6 10  1  0  0  0  0
  6  5  2  0  0  0  0
  7  6  1  0  0  0  0
 11 16  1  0  0  0  0
 11 17  1  0  0  0  0
 12 11  2  0  0  0  0
 13 14  2  0  0  0  0
 13 12  1  0  0  0  0
 14 15  1  0  0  0  0
 15  3  1  0  0  0  0
 15 16  2  0  0  0  0
 18 12  1  0  0  0  0
 19 13  1  0  0  0  0
 20 21  1  0  0  0  0
 20  7  1  0  0  0  0
 21 22  2  0  0  0  0
 22 24  1  0  0  0  0
 22 23  1  0  0  0  0
 25 24  2  0  0  0  0
 26 21  1  0  0  0  0
 26 25  1  0  0  0  0
M  END
>  <minimizedAffinity>
-5.62988377

>  <minimizedRMSD>
2.80789471

$$$$
