
 OpenBabel03272504563D

 30 32  0  0  1  0  0  0  0  0999 V2000
   36.4020   30.0590   49.4850 C   0  0  1  0  0  0  0  0  0  0  0  0
   35.0570   30.4650   49.8170 C   0  0  0  0  0  0  0  0  0  0  0  0
   35.3110   29.6030   48.6220 C   0  0  2  0  0  0  0  0  0  0  0  0
   36.9420   29.2130   50.0360 H   0  0  0  0  0  0  0  0  0  0  0  0
   34.8890   30.2160   50.8470 H   0  0  0  0  0  0  0  0  0  0  0  0
   34.7990   31.5230   49.6050 H   0  0  0  0  0  0  0  0  0  0  0  0
   34.8940   30.0600   47.7400 H   0  0  0  0  0  0  0  0  0  0  0  0
   37.3720   31.0370   48.8870 C   0  0  0  0  0  0  0  0  0  0  0  0
   37.5160   32.2590   49.5800 C   0  0  0  0  0  0  0  0  0  0  0  0
   38.4120   33.1370   49.0200 C   0  0  0  0  0  0  0  0  0  0  0  0
   39.0810   32.8100   47.8910 N   0  0  0  0  0  0  0  0  0  0  0  0
   38.9160   31.6190   47.2500 C   0  0  0  0  0  0  0  0  0  0  0  0
   38.0290   30.7130   47.7750 N   0  0  0  0  0  0  0  0  0  0  0  0
   39.6120   31.2460   46.0950 N   0  0  0  0  0  0  0  0  0  0  0  0
   36.9940   32.5270   50.4710 H   0  0  0  0  0  0  0  0  0  0  0  0
   38.5800   34.0970   49.4890 H   0  0  0  0  0  0  0  0  0  0  0  0
   40.2340   30.4080   46.0240 H   0  0  0  0  0  0  0  0  0  0  0  0
   39.4180   31.9300   45.3160 H   0  0  0  0  0  0  0  0  0  0  0  0
   34.9560   28.2580   48.7650 O   0  0  0  0  0  0  0  0  0  0  0  0
   33.2670   26.5200   47.8850 O   0  0  0  0  0  0  0  0  0  0  0  0
   33.4390   27.9850   48.1290 P   0  0  1  0  0  0  0  0  0  0  0  0
   32.2530   28.3590   49.3440 O   0  0  0  0  0  0  0  0  0  0  0  0
   32.7140   28.2430   50.2120 H   0  0  0  0  0  0  0  0  0  0  0  0
   33.2000   28.9450   46.7970 O   0  0  0  0  0  0  0  0  0  0  0  0
   32.3420   29.5930   46.1640 C   0  0  0  0  0  0  0  0  0  0  0  0
   31.0040   29.2600   46.1740 C   0  0  0  0  0  0  0  0  0  0  0  0
   30.4750   28.4400   46.6880 H   0  0  0  0  0  0  0  0  0  0  0  0
   29.9160   29.7970   45.5810 C   0  0  0  0  0  3  0  0  0  0  0  0
   30.3460   30.9900   44.7710 C   0  0  0  0  0  3  0  0  0  0  0  0
   32.2510   31.1230   45.0100 S   0  0  0  0  0  0  0  0  0  0  0  0
  1  2  1  0  0  0  0
  1  4  1  1  0  0  0
  2  5  1  0  0  0  0
  3  7  1  6  0  0  0
  3 19  1  0  0  0  0
  3  1  1  0  0  0  0
  3  2  1  0  0  0  0
  6  2  1  0  0  0  0
  8  1  1  0  0  0  0
  8  9  1  0  0  0  0
  9 15  1  0  0  0  0
 10 16  1  0  0  0  0
 10  9  2  0  0  0  0
 11 10  1  0  0  0  0
 12 13  1  0  0  0  0
 12 11  2  0  0  0  0
 13  8  2  0  0  0  0
 14 12  1  0  0  0  0
 17 14  1  0  0  0  0
 18 14  1  0  0  0  0
 21 20  2  6  0  0  0
 21 19  1  0  0  0  0
 21 22  1  0  0  0  0
 22 23  1  0  0  0  0
 24 21  1  0  0  0  0
 25 26  2  0  0  0  0
 25 24  1  0  0  0  0
 26 27  1  0  0  0  0
 28 26  1  0  0  0  0
 29 30  1  0  0  0  0
 29 28  2  0  0  0  0
 30 25  1  0  0  0  0
M  END
>  <minimizedAffinity>
-5.06647444

>  <minimizedRMSD>
3.21125865

$$$$
