
 OpenBabel03272504573D

 30 32  0  0  1  0  0  0  0  0999 V2000
   37.2500   29.6320   49.9000 C   0  0  1  0  0  0  0  0  0  0  0  0
   36.8760   29.9380   51.2610 C   0  0  0  0  0  0  0  0  0  0  0  0
   35.8260   29.7600   50.2120 C   0  0  2  0  0  0  0  0  0  0  0  0
   37.5600   28.5810   49.5710 H   0  0  0  0  0  0  0  0  0  0  0  0
   37.3670   29.2290   51.8990 H   0  0  0  0  0  0  0  0  0  0  0  0
   37.0550   30.9810   51.5950 H   0  0  0  0  0  0  0  0  0  0  0  0
   35.1890   30.6270   50.1740 H   0  0  0  0  0  0  0  0  0  0  0  0
   37.8450   30.6870   49.0130 C   0  0  0  0  0  0  0  0  0  0  0  0
   38.1690   31.9080   49.6450 C   0  0  0  0  0  0  0  0  0  0  0  0
   38.7170   32.8580   48.8170 C   0  0  0  0  0  0  0  0  0  0  0  0
   38.9130   32.5960   47.5050 N   0  0  0  0  0  0  0  0  0  0  0  0
   38.5880   31.4040   46.9310 C   0  0  0  0  0  0  0  0  0  0  0  0
   38.0360   30.4270   47.7210 N   0  0  0  0  0  0  0  0  0  0  0  0
   38.8000   31.0990   45.5820 N   0  0  0  0  0  0  0  0  0  0  0  0
   38.0200   32.1250   50.6800 H   0  0  0  0  0  0  0  0  0  0  0  0
   38.9930   33.8220   49.2230 H   0  0  0  0  0  0  0  0  0  0  0  0
   39.3970   30.3110   45.2410 H   0  0  0  0  0  0  0  0  0  0  0  0
   38.2740   31.7760   44.9670 H   0  0  0  0  0  0  0  0  0  0  0  0
   35.1150   28.5570   50.2710 O   0  0  0  0  0  0  0  0  0  0  0  0
   34.0950   27.0350   48.4570 O   0  0  0  0  0  0  0  0  0  0  0  0
   34.0660   28.4350   48.9800 P   0  0  1  0  0  0  0  0  0  0  0  0
   32.4420   28.6420   49.5640 O   0  0  0  0  0  0  0  0  0  0  0  0
   32.4640   28.3740   50.5160 H   0  0  0  0  0  0  0  0  0  0  0  0
   34.4120   29.6060   47.8560 O   0  0  0  0  0  0  0  0  0  0  0  0
   34.2530   29.9330   46.6620 C   0  0  0  0  0  0  0  0  0  0  0  0
   33.0550   30.4130   46.1760 C   0  0  0  0  0  0  0  0  0  0  0  0
   32.0940   30.5870   46.6900 H   0  0  0  0  0  0  0  0  0  0  0  0
   32.6540   30.8210   44.9540 C   0  0  0  0  0  3  0  0  0  0  0  0
   33.8070   30.6930   43.9970 C   0  0  0  0  0  3  0  0  0  0  0  0
   35.2710   30.0020   45.0390 S   0  0  0  0  0  0  0  0  0  0  0  0
  1  4  1  6  0  0  0
  1  3  1  0  0  0  0
  1  2  1  0  0  0  0
  2  6  1  0  0  0  0
  2  5  1  0  0  0  0
  3  7  1  6  0  0  0
  3 19  1  0  0  0  0
  3  2  1  0  0  0  0
  8  9  1  0  0  0  0
  8  1  1  0  0  0  0
  9 15  1  0  0  0  0
 10 16  1  0  0  0  0
 10  9  2  0  0  0  0
 11 10  1  0  0  0  0
 12 11  2  0  0  0  0
 12 13  1  0  0  0  0
 13  8  2  0  0  0  0
 14 12  1  0  0  0  0
 17 14  1  0  0  0  0
 18 14  1  0  0  0  0
 21 20  2  6  0  0  0
 21 22  1  0  0  0  0
 21 19  1  0  0  0  0
 22 23  1  0  0  0  0
 24 21  1  0  0  0  0
 25 24  1  0  0  0  0
 26 25  2  0  0  0  0
 26 27  1  0  0  0  0
 28 26  1  0  0  0  0
 29 28  2  0  0  0  0
 29 30  1  0  0  0  0
 30 25  1  0  0  0  0
M  END
>  <minimizedAffinity>
-5.39912128

>  <minimizedRMSD>
2.42869711

$$$$
