
 OpenBabel03272504573D

 30 32  0  0  1  0  0  0  0  0999 V2000
   36.4320   29.2330   49.8880 C   0  0  1  0  0  0  0  0  0  0  0  0
   35.5410   29.3230   51.0200 C   0  0  0  0  0  0  0  0  0  0  0  0
   34.9930   29.1500   49.6400 C   0  0  2  0  0  0  0  0  0  0  0  0
   37.0030   28.2750   49.6310 H   0  0  0  0  0  0  0  0  0  0  0  0
   35.8670   28.6050   51.7470 H   0  0  0  0  0  0  0  0  0  0  0  0
   35.4170   30.3310   51.4680 H   0  0  0  0  0  0  0  0  0  0  0  0
   34.2850   29.9320   49.4210 H   0  0  0  0  0  0  0  0  0  0  0  0
   37.1370   30.4530   49.3700 C   0  0  0  0  0  0  0  0  0  0  0  0
   36.8630   31.6580   50.0540 C   0  0  0  0  0  0  0  0  0  0  0  0
   37.5220   32.7600   49.5680 C   0  0  0  0  0  0  0  0  0  0  0  0
   38.3600   32.6510   48.5130 N   0  0  0  0  0  0  0  0  0  0  0  0
   38.6010   31.4690   47.8770 C   0  0  0  0  0  0  0  0  0  0  0  0
   37.9610   30.3420   48.3300 N   0  0  0  0  0  0  0  0  0  0  0  0
   39.4790   31.3240   46.7980 N   0  0  0  0  0  0  0  0  0  0  0  0
   36.2050   31.7550   50.8890 H   0  0  0  0  0  0  0  0  0  0  0  0
   37.3670   33.7230   50.0370 H   0  0  0  0  0  0  0  0  0  0  0  0
   40.3170   30.6970   46.7980 H   0  0  0  0  0  0  0  0  0  0  0  0
   39.1740   31.9340   45.9930 H   0  0  0  0  0  0  0  0  0  0  0  0
   34.5090   27.8720   49.3410 O   0  0  0  0  0  0  0  0  0  0  0  0
   32.7470   26.6130   47.9420 O   0  0  0  0  0  0  0  0  0  0  0  0
   33.1080   27.9740   48.4410 P   0  0  1  0  0  0  0  0  0  0  0  0
   31.7980   28.4040   49.5000 O   0  0  0  0  0  0  0  0  0  0  0  0
   32.0680   28.0920   50.4000 H   0  0  0  0  0  0  0  0  0  0  0  0
   33.2760   29.1280   47.2600 O   0  0  0  0  0  0  0  0  0  0  0  0
   32.7980   29.5450   46.1850 C   0  0  0  0  0  0  0  0  0  0  0  0
   32.4370   30.8630   45.9940 C   0  0  0  0  0  0  0  0  0  0  0  0
   32.4920   31.7240   46.6800 H   0  0  0  0  0  0  0  0  0  0  0  0
   31.9140   31.5330   44.9470 C   0  0  0  0  0  3  0  0  0  0  0  0
   31.7180   30.5700   43.8060 C   0  0  0  0  0  3  0  0  0  0  0  0
   32.3290   28.8650   44.4550 S   0  0  0  0  0  0  0  0  0  0  0  0
  1  4  1  6  0  0  0
  1  2  1  0  0  0  0
  2  6  1  0  0  0  0
  2  5  1  0  0  0  0
  3  7  1  6  0  0  0
  3  1  1  0  0  0  0
  3  2  1  0  0  0  0
  8  1  1  0  0  0  0
  8  9  1  0  0  0  0
  9 15  1  0  0  0  0
 10 16  1  0  0  0  0
 10  9  2  0  0  0  0
 11 10  1  0  0  0  0
 12 13  1  0  0  0  0
 12 11  2  0  0  0  0
 13  8  2  0  0  0  0
 14 12  1  0  0  0  0
 17 14  1  0  0  0  0
 18 14  1  0  0  0  0
 19  3  1  0  0  0  0
 21 20  2  6  0  0  0
 21 19  1  0  0  0  0
 21 22  1  0  0  0  0
 22 23  1  0  0  0  0
 24 21  1  0  0  0  0
 25 24  1  0  0  0  0
 26 25  2  0  0  0  0
 26 27  1  0  0  0  0
 28 26  1  0  0  0  0
 29 30  1  0  0  0  0
 29 28  2  0  0  0  0
 30 25  1  0  0  0  0
M  END
>  <minimizedAffinity>
-5.41212606

>  <minimizedRMSD>
3.16087031

$$$$
