
 OpenBabel03272504563D

 30 32  0  0  1  0  0  0  0  0999 V2000
   36.8030   29.3920   49.9400 C   0  0  1  0  0  0  0  0  0  0  0  0
   36.2180   29.5110   51.2540 C   0  0  0  0  0  0  0  0  0  0  0  0
   35.3440   29.3750   50.0490 C   0  0  2  0  0  0  0  0  0  0  0  0
   37.2500   28.4110   49.5530 H   0  0  0  0  0  0  0  0  0  0  0  0
   36.6790   28.7730   51.8820 H   0  0  0  0  0  0  0  0  0  0  0  0
   36.2540   30.5200   51.7160 H   0  0  0  0  0  0  0  0  0  0  0  0
   34.6410   30.1910   50.0080 H   0  0  0  0  0  0  0  0  0  0  0  0
   37.4160   30.5840   49.2620 C   0  0  0  0  0  0  0  0  0  0  0  0
   37.2730   31.8150   49.9400 C   0  0  0  0  0  0  0  0  0  0  0  0
   37.8460   32.8900   49.3060 C   0  0  0  0  0  0  0  0  0  0  0  0
   38.4870   32.7330   48.1260 N   0  0  0  0  0  0  0  0  0  0  0  0
   38.6050   31.5270   47.5020 C   0  0  0  0  0  0  0  0  0  0  0  0
   38.0460   30.4260   48.1000 N   0  0  0  0  0  0  0  0  0  0  0  0
   39.2810   31.3320   46.2930 N   0  0  0  0  0  0  0  0  0  0  0  0
   36.7710   31.9500   50.8720 H   0  0  0  0  0  0  0  0  0  0  0  0
   37.7810   33.8710   49.7600 H   0  0  0  0  0  0  0  0  0  0  0  0
   40.1020   30.6950   46.1710 H   0  0  0  0  0  0  0  0  0  0  0  0
   38.8450   31.9180   45.5320 H   0  0  0  0  0  0  0  0  0  0  0  0
   34.7440   28.1240   49.8800 O   0  0  0  0  0  0  0  0  0  0  0  0
   33.6550   26.8410   47.9270 O   0  0  0  0  0  0  0  0  0  0  0  0
   33.6530   28.1650   48.6190 P   0  0  1  0  0  0  0  0  0  0  0  0
   32.0490   28.3020   49.2770 O   0  0  0  0  0  0  0  0  0  0  0  0
   32.1000   27.9180   50.1880 H   0  0  0  0  0  0  0  0  0  0  0  0
   33.9700   29.4650   47.6370 O   0  0  0  0  0  0  0  0  0  0  0  0
   33.8210   29.9150   46.4830 C   0  0  0  0  0  0  0  0  0  0  0  0
   32.6840   30.5900   46.0900 C   0  0  0  0  0  0  0  0  0  0  0  0
   31.7730   30.8440   46.6560 H   0  0  0  0  0  0  0  0  0  0  0  0
   32.3040   31.1550   44.9250 C   0  0  0  0  0  3  0  0  0  0  0  0
   33.4000   30.9580   43.9120 C   0  0  0  0  0  3  0  0  0  0  0  0
   34.7880   29.9900   44.8280 S   0  0  0  0  0  0  0  0  0  0  0  0
  1  4  1  6  0  0  0
  1  3  1  0  0  0  0
  1  2  1  0  0  0  0
  2  6  1  0  0  0  0
  2  5  1  0  0  0  0
  3  7  1  6  0  0  0
  3  2  1  0  0  0  0
  8  1  1  0  0  0  0
  8  9  1  0  0  0  0
  9 15  1  0  0  0  0
 10 16  1  0  0  0  0
 10  9  2  0  0  0  0
 11 10  1  0  0  0  0
 12 13  1  0  0  0  0
 12 11  2  0  0  0  0
 13  8  2  0  0  0  0
 14 12  1  0  0  0  0
 17 14  1  0  0  0  0
 18 14  1  0  0  0  0
 19  3  1  0  0  0  0
 21 20  2  6  0  0  0
 21 22  1  0  0  0  0
 21 19  1  0  0  0  0
 22 23  1  0  0  0  0
 24 21  1  0  0  0  0
 25 24  1  0  0  0  0
 26 25  2  0  0  0  0
 26 27  1  0  0  0  0
 28 26  1  0  0  0  0
 29 30  1  0  0  0  0
 29 28  2  0  0  0  0
 30 25  1  0  0  0  0
M  END
>  <minimizedAffinity>
-5.4438138

>  <minimizedRMSD>
2.84113741

$$$$
