
 OpenBabel03272504573D

 30 32  0  0  1  0  0  0  0  0999 V2000
   37.0150   31.5450   48.6970 C   0  0  1  0  0  0  0  0  0  0  0  0
   36.2070   30.9420   47.6640 C   0  0  0  0  0  0  0  0  0  0  0  0
   37.1930   30.1180   48.4280 C   0  0  2  0  0  0  0  0  0  0  0  0
   36.6070   31.7730   49.7410 H   0  0  0  0  0  0  0  0  0  0  0  0
   35.1830   31.1900   47.8680 H   0  0  0  0  0  0  0  0  0  0  0  0
   36.4870   31.1860   46.6180 H   0  0  0  0  0  0  0  0  0  0  0  0
   37.8680   29.6240   47.7490 H   0  0  0  0  0  0  0  0  0  0  0  0
   38.1630   32.4470   48.3420 C   0  0  0  0  0  0  0  0  0  0  0  0
   38.5280   33.3910   49.3270 C   0  0  0  0  0  0  0  0  0  0  0  0
   39.5820   34.2020   48.9860 C   0  0  0  0  0  0  0  0  0  0  0  0
   40.1930   34.0680   47.7870 N   0  0  0  0  0  0  0  0  0  0  0  0
   39.8120   33.1440   46.8610 C   0  0  0  0  0  0  0  0  0  0  0  0
   38.7610   32.3130   47.1600 N   0  0  0  0  0  0  0  0  0  0  0  0
   40.4400   32.9690   45.6220 N   0  0  0  0  0  0  0  0  0  0  0  0
   38.0540   33.5040   50.2770 H   0  0  0  0  0  0  0  0  0  0  0  0
   39.9240   34.9530   49.6860 H   0  0  0  0  0  0  0  0  0  0  0  0
   40.8910   32.0790   45.3090 H   0  0  0  0  0  0  0  0  0  0  0  0
   40.3910   33.8590   45.0590 H   0  0  0  0  0  0  0  0  0  0  0  0
   36.6450   29.2550   49.3820 O   0  0  0  0  0  0  0  0  0  0  0  0
   34.6280   27.6860   49.7300 O   0  0  0  0  0  0  0  0  0  0  0  0
   35.0440   28.9420   49.0340 P   0  0  1  0  0  0  0  0  0  0  0  0
   34.0650   30.1800   49.7630 O   0  0  0  0  0  0  0  0  0  0  0  0
   34.5940   30.5250   50.5260 H   0  0  0  0  0  0  0  0  0  0  0  0
   34.8110   28.9380   47.3910 O   0  0  0  0  0  0  0  0  0  0  0  0
   33.9810   28.6920   46.4930 C   0  0  0  0  0  0  0  0  0  0  0  0
   32.6300   28.5700   46.7420 C   0  0  0  0  0  0  0  0  0  0  0  0
   32.0670   28.6570   47.6870 H   0  0  0  0  0  0  0  0  0  0  0  0
   31.5650   28.3130   45.9520 C   0  0  0  0  0  3  0  0  0  0  0  0
   32.0440   28.1400   44.5370 C   0  0  0  0  0  3  0  0  0  0  0  0
   33.9530   28.3780   44.6010 S   0  0  0  0  0  0  0  0  0  0  0  0
  1  4  1  1  0  0  0
  2  5  1  0  0  0  0
  2  3  1  0  0  0  0
  2  1  1  0  0  0  0
  3  7  1  6  0  0  0
  3  1  1  0  0  0  0
  3 19  1  0  0  0  0
  6  2  1  0  0  0  0
  8  1  1  0  0  0  0
  8  9  1  0  0  0  0
  9 15  1  0  0  0  0
 10  9  2  0  0  0  0
 10 16  1  0  0  0  0
 11 10  1  0  0  0  0
 12 13  1  0  0  0  0
 12 11  2  0  0  0  0
 13  8  2  0  0  0  0
 14 12  1  0  0  0  0
 17 14  1  0  0  0  0
 18 14  1  0  0  0  0
 21 19  1  0  0  0  0
 21 20  2  1  0  0  0
 21 22  1  0  0  0  0
 22 23  1  0  0  0  0
 24 21  1  0  0  0  0
 25 26  2  0  0  0  0
 25 24  1  0  0  0  0
 26 27  1  0  0  0  0
 28 26  1  0  0  0  0
 29 30  1  0  0  0  0
 29 28  2  0  0  0  0
 30 25  1  0  0  0  0
M  END
>  <minimizedAffinity>
-4.42504311

>  <minimizedRMSD>
1.79779053

$$$$
