
 OpenBabel03272508083D

 26 28  0  0  0  0  0  0  0  0999 V2000
   38.3800   32.7940   47.4410 O   0  0  0  0  0  0  0  0  0  0  0  0
   38.1620   31.4830   46.7710 P   0  0  2  0  0  0  0  0  0  0  0  0
   36.7070   31.5110   45.8820 O   0  0  0  0  0  0  0  0  0  0  0  0
   36.7550   30.9290   45.0840 H   0  0  0  0  0  0  0  0  0  0  0  0
   38.1690   30.1540   47.8170 O   0  0  0  0  0  0  0  0  0  0  0  0
   37.2530   30.2440   51.4060 C   0  0  0  0  0  0  0  0  0  0  0  0
   38.0370   30.5010   50.2680 C   0  0  0  0  0  0  0  0  0  0  0  0
   37.5900   30.0300   49.0330 C   0  0  0  0  0  0  0  0  0  0  0  0
   36.4150   29.3420   48.9980 N   0  0  0  0  0  0  0  0  0  0  0  0
   35.6940   29.1160   50.1100 C   0  0  0  0  0  0  0  0  0  0  0  0
   36.1060   29.5630   51.3090 N   0  0  0  0  0  0  0  0  0  0  0  0
   37.7150   30.6630   52.2790 H   0  0  0  0  0  0  0  0  0  0  0  0
   38.9590   31.0300   50.2270 H   0  0  0  0  0  0  0  0  0  0  0  0
   34.7520   28.5640   50.0720 H   0  0  0  0  0  0  0  0  0  0  0  0
   39.4200   31.2970   45.6430 O   0  0  0  0  0  0  0  0  0  0  0  0
   39.1990   30.5630   44.4860 C   0  0  0  0  0  0  0  0  0  0  0  0
   39.0650   29.1970   44.3500 C   0  0  0  0  0  0  0  0  0  0  0  0
   39.1470   28.6510   45.2790 H   0  0  0  0  0  0  0  0  0  0  0  0
   38.8470   28.6340   43.1200 C   0  0  0  0  0  0  0  0  0  0  0  0
   38.7520   29.3920   41.9690 C   0  0  0  0  0  0  0  0  0  0  0  0
   38.8830   30.7600   42.0820 C   0  0  0  0  0  0  0  0  0  0  0  0
   38.7870   31.5200   40.9330 C   0  0  0  0  0  0  0  0  0  0  0  0
   38.9120   32.8930   40.9940 C   0  0  0  0  0  0  0  0  0  0  0  0
   39.1310   33.4940   42.2140 C   0  0  0  0  0  0  0  0  0  0  0  0
   39.2220   32.7140   43.3480 C   0  0  0  0  0  0  0  0  0  0  0  0
   39.1040   31.3360   43.3280 C   0  0  0  0  0  0  0  0  0  0  0  0
  2  1  2  1  0  0  0
  2  5  1  0  0  0  0
  3  2  1  0  0  0  0
  4  3  1  0  0  0  0
  5  8  1  0  0  0  0
  6 12  1  0  0  0  0
  7  6  2  0  0  0  0
  8  7  1  0  0  0  0
  9  8  2  0  0  0  0
  9 10  1  0  0  0  0
 10 11  2  0  0  0  0
 11  6  1  0  0  0  0
 13  7  1  0  0  0  0
 14 10  1  0  0  0  0
 15  2  1  0  0  0  0
 16 15  1  0  0  0  0
 17 16  1  0  0  0  0
 17 18  1  0  0  0  0
 19 17  2  0  0  0  0
 20 21  2  0  0  0  0
 20 19  1  0  0  0  0
 21 26  1  0  0  0  0
 22 23  2  0  0  0  0
 22 21  1  0  0  0  0
 23 24  1  0  0  0  0
 24 25  2  0  0  0  0
 26 25  1  0  0  0  0
 26 16  2  0  0  0  0
M  END
>  <minimizedAffinity>
-4.9889617

>  <minimizedRMSD>
4.15945292

$$$$
