
 OpenBabel03272508093D

 26 28  0  0  0  0  0  0  0  0999 V2000
   39.4740   27.3080   33.6170 O   0  0  0  0  0  0  0  0  0  0  0  0
   38.6220   26.6990   34.6760 P   0  0  2  0  0  0  0  0  0  0  0  0
   38.7920   27.5610   36.1360 O   0  0  0  0  0  0  0  0  0  0  0  0
   37.9610   27.5390   36.6730 H   0  0  0  0  0  0  0  0  0  0  0  0
   38.9120   25.0540   34.9440 O   0  0  0  0  0  0  0  0  0  0  0  0
   39.7150   22.8060   37.7770 C   0  0  0  0  0  0  0  0  0  0  0  0
   39.8360   23.3470   36.4860 C   0  0  0  0  0  0  0  0  0  0  0  0
   38.9810   24.3860   36.1170 C   0  0  0  0  0  0  0  0  0  0  0  0
   38.0700   24.8200   37.0340 N   0  0  0  0  0  0  0  0  0  0  0  0
   37.9850   24.2750   38.2590 C   0  0  0  0  0  0  0  0  0  0  0  0
   38.8000   23.2740   38.6340 N   0  0  0  0  0  0  0  0  0  0  0  0
   40.4310   22.0200   37.9210 H   0  0  0  0  0  0  0  0  0  0  0  0
   40.5220   23.0560   35.7270 H   0  0  0  0  0  0  0  0  0  0  0  0
   37.2520   24.6300   38.9870 H   0  0  0  0  0  0  0  0  0  0  0  0
   37.0090   26.8950   34.1770 O   0  0  0  0  0  0  0  0  0  0  0  0
   36.7310   27.6390   33.0390 C   0  0  0  0  0  0  0  0  0  0  0  0
   36.8960   27.2790   31.7180 C   0  0  0  0  0  0  0  0  0  0  0  0
   37.2940   26.2850   31.5770 H   0  0  0  0  0  0  0  0  0  0  0  0
   36.5660   28.1470   30.7100 C   0  0  0  0  0  3  0  0  0  0  0  0
   36.0600   29.4080   30.9590 C   0  0  0  0  0  3  0  0  0  0  0  0
   35.8870   29.7880   32.2730 C   0  0  0  0  0  0  0  0  0  0  0  0
   35.3800   31.0480   32.5230 C   0  0  0  0  0  3  0  0  0  0  0  0
   35.1900   31.4760   33.8210 C   0  0  0  0  0  3  0  0  0  0  0  0
   35.5090   30.6300   34.8610 C   0  0  0  0  0  3  0  0  0  0  0  0
   36.0140   29.3760   34.5850 C   0  0  0  0  0  3  0  0  0  0  0  0
   36.2200   28.9120   33.2990 C   0  0  0  0  0  0  0  0  0  0  0  0
  2  1  2  6  0  0  0
  2  5  1  0  0  0  0
  2  3  1  0  0  0  0
  3  4  1  0  0  0  0
  5  8  1  0  0  0  0
  6 12  1  0  0  0  0
  6 11  1  0  0  0  0
  7  6  2  0  0  0  0
  8  7  1  0  0  0  0
  8  9  2  0  0  0  0
  9 10  1  0  0  0  0
 10 11  2  0  0  0  0
 10 14  1  0  0  0  0
 13  7  1  0  0  0  0
 15  2  1  0  0  0  0
 16 26  1  0  0  0  0
 16 15  1  0  0  0  0
 17 16  2  0  0  0  0
 18 17  1  0  0  0  0
 19 20  2  0  0  0  0
 19 17  1  0  0  0  0
 20 21  1  0  0  0  0
 21 22  2  0  0  0  0
 21 26  1  0  0  0  0
 22 23  1  0  0  0  0
 23 24  2  0  0  0  0
 25 24  1  0  0  0  0
 26 25  2  0  0  0  0
M  END
>  <minimizedAffinity>
-5.72713375

$$$$

 OpenBabel03272508093D

 26 28  0  0  0  0  0  0  0  0999 V2000
   39.4380   27.1770   33.8770 O   0  0  0  0  0  0  0  0  0  0  0  0
   38.3160   26.5940   34.6630 P   0  0  2  0  0  0  0  0  0  0  0  0
   38.1230   27.4400   36.1310 O   0  0  0  0  0  0  0  0  0  0  0  0
   37.1800   27.4460   36.4280 H   0  0  0  0  0  0  0  0  0  0  0  0
   38.4660   24.9380   34.9710 O   0  0  0  0  0  0  0  0  0  0  0  0
   39.7710   22.8480   37.7380 C   0  0  0  0  0  0  0  0  0  0  0  0
   39.6970   23.3560   36.4300 C   0  0  0  0  0  0  0  0  0  0  0  0
   38.7240   24.3140   36.1430 C   0  0  0  0  0  0  0  0  0  0  0  0
   37.8940   24.7050   37.1510 N   0  0  0  0  0  0  0  0  0  0  0  0
   37.9970   24.1940   38.3900 C   0  0  0  0  0  0  0  0  0  0  0  0
   38.9280   23.2710   38.6860 N   0  0  0  0  0  0  0  0  0  0  0  0
   40.5600   22.1240   37.8120 H   0  0  0  0  0  0  0  0  0  0  0  0
   40.3110   23.0950   35.6010 H   0  0  0  0  0  0  0  0  0  0  0  0
   37.3290   24.5140   39.1920 H   0  0  0  0  0  0  0  0  0  0  0  0
   36.9000   26.8560   33.7590 O   0  0  0  0  0  0  0  0  0  0  0  0
   36.4680   28.1540   33.5260 C   0  0  0  0  0  0  0  0  0  0  0  0
   35.8750   29.0320   34.4080 C   0  0  0  0  0  0  0  0  0  0  0  0
   35.7410   28.6350   35.4040 H   0  0  0  0  0  0  0  0  0  0  0  0
   35.5090   30.2900   34.0040 C   0  0  0  0  0  3  0  0  0  0  0  0
   35.7100   30.7370   32.7120 C   0  0  0  0  0  3  0  0  0  0  0  0
   36.3010   29.8740   31.8140 C   0  0  0  0  0  0  0  0  0  0  0  0
   36.5030   30.3200   30.5220 C   0  0  0  0  0  3  0  0  0  0  0  0
   37.0900   29.4940   29.5860 C   0  0  0  0  0  3  0  0  0  0  0  0
   37.4720   28.2230   29.9550 C   0  0  0  0  0  3  0  0  0  0  0  0
   37.2600   27.8010   31.2520 C   0  0  0  0  0  3  0  0  0  0  0  0
   36.6750   28.5970   32.2190 C   0  0  0  0  0  0  0  0  0  0  0  0
  2  1  2  6  0  0  0
  2  5  1  0  0  0  0
  2  3  1  0  0  0  0
  3  4  1  0  0  0  0
  5  8  1  0  0  0  0
  6 12  1  0  0  0  0
  6 11  1  0  0  0  0
  7  6  2  0  0  0  0
  8  7  1  0  0  0  0
  8  9  2  0  0  0  0
  9 10  1  0  0  0  0
 10 11  2  0  0  0  0
 10 14  1  0  0  0  0
 13  7  1  0  0  0  0
 15  2  1  0  0  0  0
 16 15  1  0  0  0  0
 16 17  1  0  0  0  0
 17 18  1  0  0  0  0
 19 17  2  0  0  0  0
 20 19  1  0  0  0  0
 21 26  1  0  0  0  0
 21 20  2  0  0  0  0
 22 21  1  0  0  0  0
 23 24  1  0  0  0  0
 23 22  2  0  0  0  0
 24 25  2  0  0  0  0
 25 26  1  0  0  0  0
 26 16  2  0  0  0  0
M  END
>  <minimizedAffinity>
-5.60548115

$$$$

 OpenBabel03272508093D

 26 28  0  0  0  0  0  0  0  0999 V2000
   40.0830   26.9950   35.2370 O   0  0  0  0  0  0  0  0  0  0  0  0
   38.8710   26.6460   34.4470 P   0  0  2  0  0  0  0  0  0  0  0  0
   39.1670   26.8710   32.7830 O   0  0  0  0  0  0  0  0  0  0  0  0
   38.6480   26.2370   32.2300 H   0  0  0  0  0  0  0  0  0  0  0  0
   37.4760   27.4880   34.9000 O   0  0  0  0  0  0  0  0  0  0  0  0
   34.9190   29.7160   33.4100 C   0  0  0  0  0  0  0  0  0  0  0  0
   35.7970   29.2410   34.3990 C   0  0  0  0  0  0  0  0  0  0  0  0
   36.5730   28.1170   34.1140 C   0  0  0  0  0  0  0  0  0  0  0  0
   36.4350   27.5380   32.8880 N   0  0  0  0  0  0  0  0  0  0  0  0
   35.5830   28.0230   31.9690 C   0  0  0  0  0  0  0  0  0  0  0  0
   34.8270   29.1050   32.2230 N   0  0  0  0  0  0  0  0  0  0  0  0
   34.3900   30.5790   33.7640 H   0  0  0  0  0  0  0  0  0  0  0  0
   35.9510   29.6440   35.3710 H   0  0  0  0  0  0  0  0  0  0  0  0
   35.4800   27.5530   30.9890 H   0  0  0  0  0  0  0  0  0  0  0  0
   38.6040   24.9820   34.6740 O   0  0  0  0  0  0  0  0  0  0  0  0
   38.6570   24.4500   35.9540 C   0  0  0  0  0  0  0  0  0  0  0  0
   37.8410   24.7250   37.0320 C   0  0  0  0  0  0  0  0  0  0  0  0
   37.0690   25.4520   36.8270 H   0  0  0  0  0  0  0  0  0  0  0  0
   38.0380   24.1010   38.2360 C   0  0  0  0  0  3  0  0  0  0  0  0
   39.0470   23.1770   38.4320 C   0  0  0  0  0  3  0  0  0  0  0  0
   39.8740   22.8880   37.3670 C   0  0  0  0  0  0  0  0  0  0  0  0
   40.8830   21.9650   37.5610 C   0  0  0  0  0  3  0  0  0  0  0  0
   41.7380   21.6420   36.5270 C   0  0  0  0  0  3  0  0  0  0  0  0
   41.5710   22.2490   35.3020 C   0  0  0  0  0  3  0  0  0  0  0  0
   40.5550   23.1670   35.1330 C   0  0  0  0  0  3  0  0  0  0  0  0
   39.6790   23.5190   36.1430 C   0  0  0  0  0  0  0  0  0  0  0  0
  2 15  1  0  0  0  0
  2  5  1  0  0  0  0
  2  1  2  1  0  0  0
  3  2  1  0  0  0  0
  4  3  1  0  0  0  0
  6 12  1  0  0  0  0
  6  7  1  0  0  0  0
  7 13  1  0  0  0  0
  8  7  2  0  0  0  0
  8  5  1  0  0  0  0
  9  8  1  0  0  0  0
 10 11  1  0  0  0  0
 10  9  2  0  0  0  0
 11  6  2  0  0  0  0
 14 10  1  0  0  0  0
 15 16  1  0  0  0  0
 16 26  2  0  0  0  0
 16 17  1  0  0  0  0
 17 19  2  0  0  0  0
 18 17  1  0  0  0  0
 19 20  1  0  0  0  0
 21 22  1  0  0  0  0
 21 20  2  0  0  0  0
 23 22  2  0  0  0  0
 24 23  1  0  0  0  0
 25 24  2  0  0  0  0
 25 26  1  0  0  0  0
 26 21  1  0  0  0  0
M  END
>  <minimizedAffinity>
-5.51935911

$$$$

 OpenBabel03272508093D

 26 28  0  0  0  0  0  0  0  0999 V2000
   37.0230   26.3460   31.3020 O   0  0  0  0  0  0  0  0  0  0  0  0
   37.3990   24.9070   31.3760 P   0  0  2  0  0  0  0  0  0  0  0  0
   38.0180   24.3830   29.8770 O   0  0  0  0  0  0  0  0  0  0  0  0
   38.6940   23.6700   29.9890 H   0  0  0  0  0  0  0  0  0  0  0  0
   36.1470   23.8820   31.8700 O   0  0  0  0  0  0  0  0  0  0  0  0
   35.1870   20.3060   31.9680 C   0  0  0  0  0  0  0  0  0  0  0  0
   35.0740   21.6800   32.2420 C   0  0  0  0  0  0  0  0  0  0  0  0
   36.0480   22.5410   31.7360 C   0  0  0  0  0  0  0  0  0  0  0  0
   37.0610   22.0000   31.0020 N   0  0  0  0  0  0  0  0  0  0  0  0
   37.1340   20.6790   30.7630 C   0  0  0  0  0  0  0  0  0  0  0  0
   36.2050   19.8340   31.2400 N   0  0  0  0  0  0  0  0  0  0  0  0
   34.3740   19.7680   32.4170 H   0  0  0  0  0  0  0  0  0  0  0  0
   34.3120   22.1640   32.8060 H   0  0  0  0  0  0  0  0  0  0  0  0
   37.9490   20.2550   30.1720 H   0  0  0  0  0  0  0  0  0  0  0  0
   38.6720   24.7940   32.4970 O   0  0  0  0  0  0  0  0  0  0  0  0
   38.5920   25.4880   33.6950 C   0  0  0  0  0  0  0  0  0  0  0  0
   38.7490   26.8410   33.9150 C   0  0  0  0  0  0  0  0  0  0  0  0
   38.9610   27.4120   33.0220 H   0  0  0  0  0  0  0  0  0  0  0  0
   38.6350   27.3630   35.1770 C   0  0  0  0  0  3  0  0  0  0  0  0
   38.3610   26.5750   36.2780 C   0  0  0  0  0  3  0  0  0  0  0  0
   38.2010   25.2200   36.0810 C   0  0  0  0  0  0  0  0  0  0  0  0
   37.9280   24.4320   37.1810 C   0  0  0  0  0  3  0  0  0  0  0  0
   37.7590   23.0700   37.0360 C   0  0  0  0  0  3  0  0  0  0  0  0
   37.8660   22.5090   35.7820 C   0  0  0  0  0  3  0  0  0  0  0  0
   38.1400   23.3180   34.6990 C   0  0  0  0  0  3  0  0  0  0  0  0
   38.3160   24.6850   34.8030 C   0  0  0  0  0  0  0  0  0  0  0  0
  2  1  2  6  0  0  0
  2  5  1  0  0  0  0
  2 15  1  0  0  0  0
  3  4  1  0  0  0  0
  3  2  1  0  0  0  0
  6  7  1  0  0  0  0
  6 12  1  0  0  0  0
  7 13  1  0  0  0  0
  8  5  1  0  0  0  0
  8  7  2  0  0  0  0
  9  8  1  0  0  0  0
 10  9  2  0  0  0  0
 10 11  1  0  0  0  0
 11  6  2  0  0  0  0
 14 10  1  0  0  0  0
 15 16  1  0  0  0  0
 16 17  2  0  0  0  0
 16 26  1  0  0  0  0
 17 19  1  0  0  0  0
 18 17  1  0  0  0  0
 19 20  2  0  0  0  0
 21 20  1  0  0  0  0
 21 22  1  0  0  0  0
 23 22  2  0  0  0  0
 24 23  1  0  0  0  0
 25 26  1  0  0  0  0
 25 24  2  0  0  0  0
 26 21  2  0  0  0  0
M  END
>  <minimizedAffinity>
-5.40176153

$$$$

 OpenBabel03272508093D

 26 28  0  0  0  0  0  0  0  0999 V2000
   36.7350   27.1790   34.8120 O   0  0  0  0  0  0  0  0  0  0  0  0
   38.1840   26.8380   34.7820 P   0  0  2  0  0  0  0  0  0  0  0  0
   38.9660   27.4670   36.1600 O   0  0  0  0  0  0  0  0  0  0  0  0
   39.7270   26.9010   36.4390 H   0  0  0  0  0  0  0  0  0  0  0  0
   38.9910   27.3440   33.3840 O   0  0  0  0  0  0  0  0  0  0  0  0
   42.2010   26.8040   31.6160 C   0  0  0  0  0  0  0  0  0  0  0  0
   40.8220   27.0390   31.7410 C   0  0  0  0  0  0  0  0  0  0  0  0
   40.2760   27.1270   33.0220 C   0  0  0  0  0  0  0  0  0  0  0  0
   41.1130   26.9760   34.0860 N   0  0  0  0  0  0  0  0  0  0  0  0
   42.4290   26.7510   33.9250 C   0  0  0  0  0  0  0  0  0  0  0  0
   42.9740   26.6650   32.6990 N   0  0  0  0  0  0  0  0  0  0  0  0
   42.4800   26.7610   30.5810 H   0  0  0  0  0  0  0  0  0  0  0  0
   40.1160   27.1660   30.9550 H   0  0  0  0  0  0  0  0  0  0  0  0
   43.0920   26.6330   34.7840 H   0  0  0  0  0  0  0  0  0  0  0  0
   38.2880   25.1450   34.8910 O   0  0  0  0  0  0  0  0  0  0  0  0
   38.4330   24.5470   36.1350 C   0  0  0  0  0  0  0  0  0  0  0  0
   37.6400   24.6940   37.2540 C   0  0  0  0  0  0  0  0  0  0  0  0
   36.8050   25.3650   37.1190 H   0  0  0  0  0  0  0  0  0  0  0  0
   37.9330   24.0210   38.4110 C   0  0  0  0  0  3  0  0  0  0  0  0
   39.0200   23.1740   38.5180 C   0  0  0  0  0  3  0  0  0  0  0  0
   39.8250   23.0130   37.4100 C   0  0  0  0  0  0  0  0  0  0  0  0
   40.9120   22.1670   37.5150 C   0  0  0  0  0  3  0  0  0  0  0  0
   41.7490   21.9740   36.4350 C   0  0  0  0  0  3  0  0  0  0  0  0
   41.4860   22.6330   35.2540 C   0  0  0  0  0  3  0  0  0  0  0  0
   40.3940   23.4730   35.1750 C   0  0  0  0  0  3  0  0  0  0  0  0
   39.5330   23.6940   36.2330 C   0  0  0  0  0  0  0  0  0  0  0  0
  2  1  2  6  0  0  0
  2 15  1  0  0  0  0
  2  3  1  0  0  0  0
  3  4  1  0  0  0  0
  5  2  1  0  0  0  0
  6  7  2  0  0  0  0
  6 11  1  0  0  0  0
  7  8  1  0  0  0  0
  8  5  1  0  0  0  0
  8  9  2  0  0  0  0
 10  9  1  0  0  0  0
 10 14  1  0  0  0  0
 11 10  2  0  0  0  0
 12  6  1  0  0  0  0
 13  7  1  0  0  0  0
 15 16  1  0  0  0  0
 16 26  2  0  0  0  0
 16 17  1  0  0  0  0
 17 19  2  0  0  0  0
 18 17  1  0  0  0  0
 19 20  1  0  0  0  0
 21 22  1  0  0  0  0
 21 20  2  0  0  0  0
 23 22  2  0  0  0  0
 24 23  1  0  0  0  0
 25 24  2  0  0  0  0
 25 26  1  0  0  0  0
 26 21  1  0  0  0  0
M  END
>  <minimizedAffinity>
-5.34647369

$$$$

 OpenBabel03272508093D

 26 28  0  0  0  0  0  0  0  0999 V2000
   36.1660   30.9970   35.7540 O   0  0  0  0  0  0  0  0  0  0  0  0
   35.2320   30.6130   34.6610 P   0  0  2  0  0  0  0  0  0  0  0  0
   35.7330   31.3080   33.1870 O   0  0  0  0  0  0  0  0  0  0  0  0
   35.4920   30.7400   32.4140 H   0  0  0  0  0  0  0  0  0  0  0  0
   33.6120   31.0040   34.9570 O   0  0  0  0  0  0  0  0  0  0  0  0
   30.9490   29.0220   36.6020 C   0  0  0  0  0  0  0  0  0  0  0  0
   32.0200   29.9290   36.5230 C   0  0  0  0  0  0  0  0  0  0  0  0
   32.5870   30.1810   35.2740 C   0  0  0  0  0  0  0  0  0  0  0  0
   32.0710   29.5300   34.1940 N   0  0  0  0  0  0  0  0  0  0  0  0
   31.0460   28.6680   34.3110 C   0  0  0  0  0  0  0  0  0  0  0  0
   30.4850   28.4130   35.5060 N   0  0  0  0  0  0  0  0  0  0  0  0
   30.6150   28.9270   37.6170 H   0  0  0  0  0  0  0  0  0  0  0  0
   32.4670   30.4690   37.3240 H   0  0  0  0  0  0  0  0  0  0  0  0
   30.6390   28.1510   33.4400 H   0  0  0  0  0  0  0  0  0  0  0  0
   35.3630   28.9290   34.4760 O   0  0  0  0  0  0  0  0  0  0  0  0
   36.2110   28.4110   33.5070 C   0  0  0  0  0  0  0  0  0  0  0  0
   36.0490   28.4120   32.1380 C   0  0  0  0  0  0  0  0  0  0  0  0
   35.1370   28.8830   31.8010 H   0  0  0  0  0  0  0  0  0  0  0  0
   36.9960   27.8510   31.3210 C   0  0  0  0  0  3  0  0  0  0  0  0
   38.1440   27.2640   31.8170 C   0  0  0  0  0  3  0  0  0  0  0  0
   38.3250   27.2520   33.1840 C   0  0  0  0  0  0  0  0  0  0  0  0
   39.4720   26.6660   33.6820 C   0  0  0  0  0  3  0  0  0  0  0  0
   39.6990   26.6280   35.0430 C   0  0  0  0  0  3  0  0  0  0  0  0
   38.7700   27.1830   35.8950 C   0  0  0  0  0  3  0  0  0  0  0  0
   37.6320   27.7630   35.3730 C   0  0  0  0  0  3  0  0  0  0  0  0
   37.3680   27.8200   34.0170 C   0  0  0  0  0  0  0  0  0  0  0  0
  2  5  1  0  0  0  0
  2  1  2  1  0  0  0
  3  2  1  0  0  0  0
  4  3  1  0  0  0  0
  5  8  1  0  0  0  0
  6 12  1  0  0  0  0
  7  6  1  0  0  0  0
  7 13  1  0  0  0  0
  8  7  2  0  0  0  0
  9 10  2  0  0  0  0
  9  8  1  0  0  0  0
 10 11  1  0  0  0  0
 11  6  2  0  0  0  0
 14 10  1  0  0  0  0
 15  2  1  0  0  0  0
 16 26  1  0  0  0  0
 16 15  1  0  0  0  0
 17 16  2  0  0  0  0
 18 17  1  0  0  0  0
 19 20  2  0  0  0  0
 19 17  1  0  0  0  0
 20 21  1  0  0  0  0
 21 22  2  0  0  0  0
 21 26  1  0  0  0  0
 22 23  1  0  0  0  0
 23 24  2  0  0  0  0
 25 24  1  0  0  0  0
 26 25  2  0  0  0  0
M  END
>  <minimizedAffinity>
-5.19448042

$$$$

 OpenBabel03272508093D

 26 28  0  0  0  0  0  0  0  0999 V2000
   37.1010   25.5620   33.2170 O   0  0  0  0  0  0  0  0  0  0  0  0
   38.4370   24.9270   33.0450 P   0  0  2  0  0  0  0  0  0  0  0  0
   39.2550   25.6260   31.7230 O   0  0  0  0  0  0  0  0  0  0  0  0
   40.2350   25.6230   31.8560 H   0  0  0  0  0  0  0  0  0  0  0  0
   38.3930   23.2450   32.8670 O   0  0  0  0  0  0  0  0  0  0  0  0
   35.8950   20.7820   34.0560 C   0  0  0  0  0  0  0  0  0  0  0  0
   37.0510   21.5780   34.1170 C   0  0  0  0  0  0  0  0  0  0  0  0
   37.3480   22.4030   33.0320 C   0  0  0  0  0  0  0  0  0  0  0  0
   36.4980   22.3900   31.9670 N   0  0  0  0  0  0  0  0  0  0  0  0
   35.4010   21.6130   31.9470 C   0  0  0  0  0  0  0  0  0  0  0  0
   35.0970   20.8120   32.9820 N   0  0  0  0  0  0  0  0  0  0  0  0
   35.7930   20.2020   34.9540 H   0  0  0  0  0  0  0  0  0  0  0  0
   37.7530   21.6340   34.9140 H   0  0  0  0  0  0  0  0  0  0  0  0
   34.7250   21.6100   31.0890 H   0  0  0  0  0  0  0  0  0  0  0  0
   39.3390   25.3060   34.4350 O   0  0  0  0  0  0  0  0  0  0  0  0
   39.0510   24.6680   35.6330 C   0  0  0  0  0  0  0  0  0  0  0  0
   37.9760   24.8670   36.4730 C   0  0  0  0  0  0  0  0  0  0  0  0
   37.2830   25.6230   36.1330 H   0  0  0  0  0  0  0  0  0  0  0  0
   37.8470   24.1410   37.6280 C   0  0  0  0  0  3  0  0  0  0  0  0
   38.7720   23.1860   38.0060 C   0  0  0  0  0  3  0  0  0  0  0  0
   39.8540   22.9710   37.1800 C   0  0  0  0  0  0  0  0  0  0  0  0
   40.7790   22.0180   37.5560 C   0  0  0  0  0  3  0  0  0  0  0  0
   41.8800   21.7660   36.7630 C   0  0  0  0  0  3  0  0  0  0  0  0
   42.0430   22.4760   35.5940 C   0  0  0  0  0  3  0  0  0  0  0  0
   41.1050   23.4230   35.2400 C   0  0  0  0  0  3  0  0  0  0  0  0
   39.9900   23.7060   36.0070 C   0  0  0  0  0  0  0  0  0  0  0  0
  2  1  2  1  0  0  0
  2 15  1  0  0  0  0
  3  4  1  0  0  0  0
  3  2  1  0  0  0  0
  5  8  1  0  0  0  0
  5  2  1  0  0  0  0
  6  7  1  0  0  0  0
  6 12  1  0  0  0  0
  7 13  1  0  0  0  0
  8  7  2  0  0  0  0
  9  8  1  0  0  0  0
 10  9  2  0  0  0  0
 10 11  1  0  0  0  0
 11  6  2  0  0  0  0
 14 10  1  0  0  0  0
 15 16  1  0  0  0  0
 16 26  2  0  0  0  0
 16 17  1  0  0  0  0
 17 19  2  0  0  0  0
 18 17  1  0  0  0  0
 19 20  1  0  0  0  0
 21 22  1  0  0  0  0
 21 20  2  0  0  0  0
 23 22  2  0  0  0  0
 24 23  1  0  0  0  0
 25 24  2  0  0  0  0
 25 26  1  0  0  0  0
 26 21  1  0  0  0  0
M  END
>  <minimizedAffinity>
-5.17504644

$$$$

 OpenBabel03272508093D

 26 28  0  0  0  0  0  0  0  0999 V2000
   36.2080   29.9640   31.8880 O   0  0  0  0  0  0  0  0  0  0  0  0
   35.5880   29.1950   33.0020 P   0  0  2  0  0  0  0  0  0  0  0  0
   33.9230   28.9740   32.7080 O   0  0  0  0  0  0  0  0  0  0  0  0
   33.5930   28.1260   33.0960 H   0  0  0  0  0  0  0  0  0  0  0  0
   35.8140   29.8790   34.5320 O   0  0  0  0  0  0  0  0  0  0  0  0
   34.9310   32.8800   36.5170 C   0  0  0  0  0  0  0  0  0  0  0  0
   35.6500   31.7190   36.1840 C   0  0  0  0  0  0  0  0  0  0  0  0
   35.2770   31.0100   35.0430 C   0  0  0  0  0  0  0  0  0  0  0  0
   34.2290   31.4820   34.3110 N   0  0  0  0  0  0  0  0  0  0  0  0
   33.5650   32.5970   34.6630 C   0  0  0  0  0  0  0  0  0  0  0  0
   33.9110   33.2950   35.7580 N   0  0  0  0  0  0  0  0  0  0  0  0
   35.3270   33.3200   37.4120 H   0  0  0  0  0  0  0  0  0  0  0  0
   36.4740   31.2990   36.7110 H   0  0  0  0  0  0  0  0  0  0  0  0
   32.7280   32.9680   34.0690 H   0  0  0  0  0  0  0  0  0  0  0  0
   36.2970   27.6500   32.9820 O   0  0  0  0  0  0  0  0  0  0  0  0
   37.4050   27.3970   33.7790 C   0  0  0  0  0  0  0  0  0  0  0  0
   37.4590   27.2410   35.1480 C   0  0  0  0  0  0  0  0  0  0  0  0
   36.5020   27.3330   35.6410 H   0  0  0  0  0  0  0  0  0  0  0  0
   38.6500   26.9920   35.7770 C   0  0  0  0  0  3  0  0  0  0  0  0
   39.8420   26.8860   35.0860 C   0  0  0  0  0  3  0  0  0  0  0  0
   39.8100   27.0380   33.7150 C   0  0  0  0  0  0  0  0  0  0  0  0
   41.0000   26.9320   33.0230 C   0  0  0  0  0  3  0  0  0  0  0  0
   41.0200   27.0770   31.6500 C   0  0  0  0  0  3  0  0  0  0  0  0
   39.8420   27.3270   30.9830 C   0  0  0  0  0  3  0  0  0  0  0  0
   38.6660   27.4290   31.6980 C   0  0  0  0  0  3  0  0  0  0  0  0
   38.6030   27.2910   33.0720 C   0  0  0  0  0  0  0  0  0  0  0  0
  2  1  2  6  0  0  0
  2  5  1  0  0  0  0
  3  2  1  0  0  0  0
  3  4  1  0  0  0  0
  5  8  1  0  0  0  0
  6 12  1  0  0  0  0
  7  6  1  0  0  0  0
  7 13  1  0  0  0  0
  8  7  2  0  0  0  0
  9 10  2  0  0  0  0
  9  8  1  0  0  0  0
 10 11  1  0  0  0  0
 11  6  2  0  0  0  0
 14 10  1  0  0  0  0
 15  2  1  0  0  0  0
 15 16  1  0  0  0  0
 16 17  1  0  0  0  0
 17 18  1  0  0  0  0
 17 19  2  0  0  0  0
 20 19  1  0  0  0  0
 21 20  2  0  0  0  0
 22 21  1  0  0  0  0
 23 22  2  0  0  0  0
 24 23  1  0  0  0  0
 24 25  2  0  0  0  0
 25 26  1  0  0  0  0
 26 21  1  0  0  0  0
 26 16  2  0  0  0  0
M  END
>  <minimizedAffinity>
-5.14357662

$$$$

 OpenBabel03272508093D

 26 28  0  0  0  0  0  0  0  0999 V2000
   35.8270   30.3300   31.8110 O   0  0  0  0  0  0  0  0  0  0  0  0
   35.2060   29.4500   32.8390 P   0  0  2  0  0  0  0  0  0  0  0  0
   33.5140   29.4090   32.6340 O   0  0  0  0  0  0  0  0  0  0  0  0
   33.1330   28.5400   32.9130 H   0  0  0  0  0  0  0  0  0  0  0  0
   35.5800   29.8690   34.4340 O   0  0  0  0  0  0  0  0  0  0  0  0
   34.9970   32.6620   36.7960 C   0  0  0  0  0  0  0  0  0  0  0  0
   35.7320   31.6610   36.1400 C   0  0  0  0  0  0  0  0  0  0  0  0
   35.0840   30.8790   35.1840 C   0  0  0  0  0  0  0  0  0  0  0  0
   33.7660   31.1290   34.9400 N   0  0  0  0  0  0  0  0  0  0  0  0
   33.0970   32.0960   35.5900 C   0  0  0  0  0  0  0  0  0  0  0  0
   33.7050   32.8610   36.5130 N   0  0  0  0  0  0  0  0  0  0  0  0
   35.6190   33.1820   37.5000 H   0  0  0  0  0  0  0  0  0  0  0  0
   36.7570   31.4160   36.2830 H   0  0  0  0  0  0  0  0  0  0  0  0
   32.0420   32.2900   35.3870 H   0  0  0  0  0  0  0  0  0  0  0  0
   35.7720   27.8750   32.5390 O   0  0  0  0  0  0  0  0  0  0  0  0
   37.0740   27.6900   32.0960 C   0  0  0  0  0  0  0  0  0  0  0  0
   37.5580   27.7560   30.8060 C   0  0  0  0  0  0  0  0  0  0  0  0
   36.8070   27.9830   30.0640 H   0  0  0  0  0  0  0  0  0  0  0  0
   38.8870   27.5440   30.5460 C   0  0  0  0  0  3  0  0  0  0  0  0
   39.7970   27.2570   31.5440 C   0  0  0  0  0  3  0  0  0  0  0  0
   39.3340   27.1860   32.8410 C   0  0  0  0  0  0  0  0  0  0  0  0
   40.2430   26.8990   33.8410 C   0  0  0  0  0  3  0  0  0  0  0  0
   39.8290   26.8160   35.1540 C   0  0  0  0  0  3  0  0  0  0  0  0
   38.5010   27.0240   35.4550 C   0  0  0  0  0  3  0  0  0  0  0  0
   37.6120   27.3100   34.4390 C   0  0  0  0  0  3  0  0  0  0  0  0
   37.9870   27.4000   33.1110 C   0  0  0  0  0  0  0  0  0  0  0  0
  2  1  2  6  0  0  0
  2  5  1  0  0  0  0
  3  2  1  0  0  0  0
  3  4  1  0  0  0  0
  5  8  1  0  0  0  0
  6 12  1  0  0  0  0
  7 13  1  0  0  0  0
  7  6  2  0  0  0  0
  8  7  1  0  0  0  0
  9  8  2  0  0  0  0
  9 10  1  0  0  0  0
 10 11  2  0  0  0  0
 11  6  1  0  0  0  0
 14 10  1  0  0  0  0
 15  2  1  0  0  0  0
 16 15  1  0  0  0  0
 16 26  1  0  0  0  0
 17 16  2  0  0  0  0
 18 17  1  0  0  0  0
 19 17  1  0  0  0  0
 19 20  2  0  0  0  0
 20 21  1  0  0  0  0
 21 26  2  0  0  0  0
 21 22  1  0  0  0  0
 22 23  2  0  0  0  0
 23 24  1  0  0  0  0
 25 24  2  0  0  0  0
 26 25  1  0  0  0  0
M  END
>  <minimizedAffinity>
-5.11693716

$$$$
