
 OpenBabel03272503503D

 39 42  0  0  1  0  0  0  0  0999 V2000
   33.2000   27.2740   45.8810 C   0  0  1  0  0  0  0  0  0  0  0  0
   33.8730   27.4440   47.2600 C   0  0  2  0  0  0  0  0  0  0  0  0
   33.6760   26.2460   47.8670 O   0  0  0  0  0  0  0  0  0  0  0  0
   34.0090   25.3130   46.8980 C   0  0  0  0  0  0  0  0  0  0  0  0
   33.5850   25.8540   45.5490 C   0  0  2  0  0  0  0  0  0  0  0  0
   33.6310   28.0150   45.1790 H   0  0  0  0  0  0  0  0  0  0  0  0
   34.9320   27.6770   47.0050 H   0  0  0  0  0  0  0  0  0  0  0  0
   35.0690   25.0090   46.9200 H   0  0  0  0  0  0  0  0  0  0  0  0
   33.4000   24.4040   47.0900 H   0  0  0  0  0  0  0  0  0  0  0  0
   32.7000   25.3190   45.1580 H   0  0  0  0  0  0  0  0  0  0  0  0
   31.8420   27.4970   45.9780 O   0  0  0  0  0  0  0  0  0  0  0  0
   31.5400   28.1560   45.3010 H   0  0  0  0  0  0  0  0  0  0  0  0
   33.2390   28.5260   47.8170 O   0  0  0  0  0  0  0  0  0  0  0  0
   35.3320   29.7690   46.7850 O   0  0  0  0  0  0  0  0  0  0  0  0
   34.0670   29.9780   47.6130 P   0  0  1  0  0  0  0  0  0  0  0  0
   33.1280   31.0610   46.7120 O   0  0  0  0  0  0  0  0  0  0  0  0
   32.3980   31.3520   47.3420 H   0  0  0  0  0  0  0  0  0  0  0  0
   34.3710   30.5960   49.1750 O   0  0  0  0  0  0  0  0  0  0  0  0
   35.6170   30.4810   49.7740 C   0  0  0  0  0  0  0  0  0  0  0  0
   35.9800   29.4560   50.6810 C   0  0  0  0  0  0  0  0  0  0  0  0
   37.2670   29.4740   51.2000 C   0  0  0  0  0  0  0  0  0  0  0  0
   38.1190   30.4780   50.8110 N   0  0  0  0  0  0  0  0  0  0  0  0
   37.7420   31.4480   49.9400 C   0  0  0  0  0  0  0  0  0  0  0  0
   36.4870   31.4530   49.4180 N   0  0  0  0  0  0  0  0  0  0  0  0
   35.2340   28.7360   50.9020 H   0  0  0  0  0  0  0  0  0  0  0  0
   37.5360   28.7040   51.8780 H   0  0  0  0  0  0  0  0  0  0  0  0
   38.4240   32.2310   49.6450 H   0  0  0  0  0  0  0  0  0  0  0  0
   34.6380   25.8270   44.6750 O   0  0  0  0  0  0  0  0  0  0  0  0
   34.6540   25.0270   43.5630 C   0  0  0  0  0  0  0  0  0  0  0  0
   33.8400   24.9570   42.4710 C   0  0  0  0  0  0  0  0  0  0  0  0
   33.0230   25.6560   42.4590 H   0  0  0  0  0  0  0  0  0  0  0  0
   34.0160   24.0720   41.4350 C   0  0  0  0  0  3  0  0  0  0  0  0
   35.0620   23.1730   41.4430 C   0  0  0  0  0  3  0  0  0  0  0  0
   35.9130   23.2190   42.5490 C   0  0  0  0  0  0  0  0  0  0  0  0
   36.9410   22.3000   42.5050 C   0  0  0  0  0  3  0  0  0  0  0  0
   37.8350   22.2650   43.5480 C   0  0  0  0  0  3  0  0  0  0  0  0
   37.6880   23.1380   44.6010 C   0  0  0  0  0  3  0  0  0  0  0  0
   36.6500   24.0430   44.6120 C   0  0  0  0  0  3  0  0  0  0  0  0
   35.7220   24.1230   43.5930 C   0  0  0  0  0  0  0  0  0  0  0  0
  1  6  1  6  0  0  0
  1 11  1  0  0  0  0
  1  2  1  0  0  0  0
  2  7  1  6  0  0  0
  2 13  1  0  0  0  0
  2  3  1  0  0  0  0
  4  8  1  0  0  0  0
  4  9  1  0  0  0  0
  4  3  1  0  0  0  0
  5 10  1  6  0  0  0
  5  1  1  0  0  0  0
  5  4  1  0  0  0  0
 12 11  1  0  0  0  0
 15 14  2  6  0  0  0
 15 13  1  0  0  0  0
 15 18  1  0  0  0  0
 16 17  1  0  0  0  0
 16 15  1  0  0  0  0
 18 19  1  0  0  0  0
 19 20  1  0  0  0  0
 20 25  1  0  0  0  0
 20 21  2  0  0  0  0
 21 26  1  0  0  0  0
 22 21  1  0  0  0  0
 23 22  2  0  0  0  0
 24 19  2  0  0  0  0
 24 23  1  0  0  0  0
 27 23  1  0  0  0  0
 28  5  1  0  0  0  0
 29 39  1  0  0  0  0
 29 28  1  0  0  0  0
 30 29  2  0  0  0  0
 31 30  1  0  0  0  0
 32 33  2  0  0  0  0
 32 30  1  0  0  0  0
 33 34  1  0  0  0  0
 34 39  1  0  0  0  0
 35 34  2  0  0  0  0
 35 36  1  0  0  0  0
 36 37  2  0  0  0  0
 37 38  1  0  0  0  0
 39 38  2  0  0  0  0
M  END
>  <minimizedAffinity>
-4.35176516

>  <minimizedRMSD>
1.31751776

$$$$
