
 OpenBabel03272506433D

 34 37  0  0  1  0  0  0  0  0999 V2000
   32.4450   28.6990   47.5300 C   0  0  2  0  0  0  0  0  0  0  0  0
   33.7050   28.7180   48.3820 C   0  0  1  0  0  0  0  0  0  0  0  0
   34.0840   27.4280   48.5980 O   0  0  0  0  0  0  0  0  0  0  0  0
   33.3090   26.5910   47.8250 C   0  0  0  0  0  0  0  0  0  0  0  0
   32.7350   27.4600   46.6920 C   0  0  1  0  0  0  0  0  0  0  0  0
   31.5470   28.5530   48.1510 H   0  0  0  0  0  0  0  0  0  0  0  0
   33.4870   29.3000   49.2970 H   0  0  0  0  0  0  0  0  0  0  0  0
   33.9880   25.8430   47.3640 H   0  0  0  0  0  0  0  0  0  0  0  0
   32.4910   26.1290   48.4000 H   0  0  0  0  0  0  0  0  0  0  0  0
   33.5270   27.7300   45.9930 H   0  0  0  0  0  0  0  0  0  0  0  0
   32.3570   29.8410   46.7380 O   0  0  0  0  0  0  0  0  0  0  0  0
   31.8300   30.5260   47.2150 H   0  0  0  0  0  0  0  0  0  0  0  0
   34.9910   29.5270   47.3800 S   0  0  0  0  0  0  0  0  0  0  0  0
   37.6150   29.8000   50.3320 C   0  0  0  0  0  0  0  0  0  0  0  0
   38.2400   31.0280   50.1600 C   0  0  0  0  0  0  0  0  0  0  0  0
   37.8340   31.8140   49.0800 C   0  0  0  0  0  0  0  0  0  0  0  0
   36.8540   31.3420   48.2570 N   0  0  0  0  0  0  0  0  0  0  0  0
   36.2750   30.1330   48.4680 C   0  0  0  0  0  0  0  0  0  0  0  0
   36.6450   29.3580   49.4970 N   0  0  0  0  0  0  0  0  0  0  0  0
   37.9640   29.2300   51.1790 H   0  0  0  0  0  0  0  0  0  0  0  0
   39.0180   31.3990   50.8160 H   0  0  0  0  0  0  0  0  0  0  0  0
   38.2630   32.7930   48.8610 H   0  0  0  0  0  0  0  0  0  0  0  0
   31.5960   26.8830   46.1960 O   0  0  0  0  0  0  0  0  0  0  0  0
   31.4320   25.5130   46.0910 C   0  0  0  0  0  0  0  0  0  0  0  0
   32.2400   24.4780   46.5050 C   0  0  0  0  0  0  0  0  0  0  0  0
   33.1440   24.8150   46.9900 H   0  0  0  0  0  0  0  0  0  0  0  0
   31.8790   23.1650   46.2960 C   0  0  0  0  0  3  0  0  0  0  0  0
   30.7130   22.8300   45.6740 C   0  0  0  0  0  3  0  0  0  0  0  0
   29.8700   23.8460   45.2400 C   0  0  0  0  0  0  0  0  0  0  0  0
   28.7210   23.4440   44.6250 C   0  0  0  0  0  3  0  0  0  0  0  0
   27.8470   24.4110   44.1750 C   0  0  0  0  0  3  0  0  0  0  0  0
   28.1520   25.7440   44.3540 C   0  0  0  0  0  3  0  0  0  0  0  0
   29.3270   26.0880   44.9820 C   0  0  0  0  0  3  0  0  0  0  0  0
   30.2370   25.1730   45.4520 C   0  0  0  0  0  0  0  0  0  0  0  0
  1  6  1  1  0  0  0
  1  2  1  0  0  0  0
  2  3  1  0  0  0  0
  2  7  1  1  0  0  0
  4  9  1  0  0  0  0
  4  3  1  0  0  0  0
  5 10  1  6  0  0  0
  5  1  1  0  0  0  0
  5  4  1  0  0  0  0
  8  4  1  0  0  0  0
 11 12  1  0  0  0  0
 11  1  1  0  0  0  0
 13  2  1  0  0  0  0
 13 18  1  0  0  0  0
 14 20  1  0  0  0  0
 15 14  1  0  0  0  0
 15 21  1  0  0  0  0
 16 15  2  0  0  0  0
 17 18  2  0  0  0  0
 17 16  1  0  0  0  0
 18 19  1  0  0  0  0
 19 14  2  0  0  0  0
 22 16  1  0  0  0  0
 23  5  1  0  0  0  0
 24 23  1  0  0  0  0
 24 25  1  0  0  0  0
 25 26  1  0  0  0  0
 27 25  2  0  0  0  0
 28 27  1  0  0  0  0
 29 34  1  0  0  0  0
 29 28  2  0  0  0  0
 30 29  1  0  0  0  0
 31 32  1  0  0  0  0
 31 30  2  0  0  0  0
 32 33  2  0  0  0  0
 33 34  1  0  0  0  0
 34 24  2  0  0  0  0
M  END
>  <minimizedAffinity>
-4.52655458

>  <minimizedRMSD>
3.11345959

$$$$
