
 OpenBabel03272506433D

 34 37  0  0  1  0  0  0  0  0999 V2000
   32.4030   28.3380   47.6090 C   0  0  2  0  0  0  0  0  0  0  0  0
   33.6950   28.3530   48.4110 C   0  0  1  0  0  0  0  0  0  0  0  0
   34.2480   27.1100   48.3400 O   0  0  0  0  0  0  0  0  0  0  0  0
   33.5460   26.3530   47.4290 C   0  0  0  0  0  0  0  0  0  0  0  0
   32.8030   27.3490   46.5200 C   0  0  1  0  0  0  0  0  0  0  0  0
   31.5670   27.9460   48.2090 H   0  0  0  0  0  0  0  0  0  0  0  0
   33.4550   28.6990   49.4340 H   0  0  0  0  0  0  0  0  0  0  0  0
   34.2880   25.8160   46.8020 H   0  0  0  0  0  0  0  0  0  0  0  0
   32.8260   25.6740   47.9150 H   0  0  0  0  0  0  0  0  0  0  0  0
   33.5150   27.8630   45.8730 H   0  0  0  0  0  0  0  0  0  0  0  0
   32.1260   29.5950   47.0790 O   0  0  0  0  0  0  0  0  0  0  0  0
   31.5430   30.0890   47.7030 H   0  0  0  0  0  0  0  0  0  0  0  0
   34.8110   29.5190   47.5690 S   0  0  0  0  0  0  0  0  0  0  0  0
   37.4420   29.5170   50.5270 C   0  0  0  0  0  0  0  0  0  0  0  0
   38.0440   30.7680   50.4880 C   0  0  0  0  0  0  0  0  0  0  0  0
   37.6190   31.6590   49.5020 C   0  0  0  0  0  0  0  0  0  0  0  0
   36.6440   31.2610   48.6340 N   0  0  0  0  0  0  0  0  0  0  0  0
   36.0880   30.0260   48.7140 C   0  0  0  0  0  0  0  0  0  0  0  0
   36.4770   29.1510   49.6520 N   0  0  0  0  0  0  0  0  0  0  0  0
   37.8040   28.8650   51.3060 H   0  0  0  0  0  0  0  0  0  0  0  0
   38.8180   31.0790   51.1790 H   0  0  0  0  0  0  0  0  0  0  0  0
   38.0290   32.6630   49.3890 H   0  0  0  0  0  0  0  0  0  0  0  0
   31.7220   26.7360   45.9450 O   0  0  0  0  0  0  0  0  0  0  0  0
   31.3100   27.0020   44.6510 C   0  0  0  0  0  0  0  0  0  0  0  0
   30.9370   28.1860   44.0530 C   0  0  0  0  0  0  0  0  0  0  0  0
   30.9790   29.0300   44.7240 H   0  0  0  0  0  0  0  0  0  0  0  0
   30.5560   28.2270   42.7300 C   0  0  0  0  0  3  0  0  0  0  0  0
   30.5310   27.1060   41.9540 C   0  0  0  0  0  3  0  0  0  0  0  0
   30.9000   25.8920   42.5200 C   0  0  0  0  0  0  0  0  0  0  0  0
   30.8540   24.8100   41.6900 C   0  0  0  0  0  3  0  0  0  0  0  0
   31.2110   23.5800   42.2000 C   0  0  0  0  0  3  0  0  0  0  0  0
   31.6020   23.4740   43.5180 C   0  0  0  0  0  3  0  0  0  0  0  0
   31.6290   24.6010   44.3050 C   0  0  0  0  0  3  0  0  0  0  0  0
   31.2850   25.8530   43.8580 C   0  0  0  0  0  0  0  0  0  0  0  0
  1  6  1  1  0  0  0
  1  2  1  0  0  0  0
  2  7  1  1  0  0  0
  3  2  1  0  0  0  0
  4  9  1  0  0  0  0
  4  3  1  0  0  0  0
  5 10  1  6  0  0  0
  5  4  1  0  0  0  0
  5  1  1  0  0  0  0
  8  4  1  0  0  0  0
 11  1  1  0  0  0  0
 11 12  1  0  0  0  0
 13  2  1  0  0  0  0
 13 18  1  0  0  0  0
 14 20  1  0  0  0  0
 15 14  1  0  0  0  0
 15 21  1  0  0  0  0
 16 15  2  0  0  0  0
 17 18  2  0  0  0  0
 17 16  1  0  0  0  0
 18 19  1  0  0  0  0
 19 14  2  0  0  0  0
 22 16  1  0  0  0  0
 23  5  1  0  0  0  0
 24 23  1  0  0  0  0
 25 24  1  0  0  0  0
 25 26  1  0  0  0  0
 27 25  2  0  0  0  0
 28 29  2  0  0  0  0
 28 27  1  0  0  0  0
 29 34  1  0  0  0  0
 30 31  2  0  0  0  0
 30 29  1  0  0  0  0
 31 32  1  0  0  0  0
 32 33  2  0  0  0  0
 34 33  1  0  0  0  0
 34 24  2  0  0  0  0
M  END
>  <minimizedAffinity>
-3.78063345

>  <minimizedRMSD>
0.997695506

$$$$
