
 OpenBabel03272508573D

 42 46  0  0  1  0  0  0  0  0999 V2000
   39.1650   31.4360   43.3370 C   0  0  0  0  0  0  0  0  0  0  0  0
   40.1860   30.5210   43.5090 C   0  0  0  0  0  0  0  0  0  0  0  0
   40.8990   30.1500   42.3850 C   0  0  0  0  0  0  0  0  0  0  0  0
   40.5660   30.6950   41.1770 C   0  0  0  0  0  0  0  0  0  0  0  0
   39.5290   31.6230   41.0070 C   0  0  0  0  0  0  0  0  0  0  0  0
   38.8580   31.9600   42.1260 N   0  0  0  0  0  0  0  0  0  0  0  0
   40.4550   30.0840   44.4620 H   0  0  0  0  0  0  0  0  0  0  0  0
   41.7150   29.4490   42.3880 H   0  0  0  0  0  0  0  0  0  0  0  0
   41.0950   30.4350   40.2760 H   0  0  0  0  0  0  0  0  0  0  0  0
   38.3880   31.8510   44.5220 C   0  0  0  0  0  0  0  0  0  0  0  0
   37.3120   32.4470   44.4120 O   0  0  0  0  0  0  0  0  0  0  0  0
   38.9350   31.5370   45.8250 N   0  0  0  0  0  0  0  0  0  0  0  0
   39.9070   31.2220   45.9740 H   0  0  0  0  0  0  0  0  0  0  0  0
   38.4220   31.0780   48.2180 C   0  0  2  0  0  0  0  0  0  0  0  0
   38.6580   32.5420   48.1000 C   0  0  0  0  0  0  0  0  0  0  0  0
   38.0630   31.6730   46.9720 C   0  0  1  0  0  0  0  0  0  0  0  0
   39.3370   30.4560   48.3140 H   0  0  0  0  0  0  0  0  0  0  0  0
   39.6830   32.8880   47.9880 H   0  0  0  0  0  0  0  0  0  0  0  0
   37.9830   33.2220   48.6510 H   0  0  0  0  0  0  0  0  0  0  0  0
   37.0010   31.9250   46.7690 H   0  0  0  0  0  0  0  0  0  0  0  0
   35.0540   30.2130   49.5330 C   0  0  0  0  0  0  0  0  0  0  0  0
   35.3820   29.5730   50.7590 C   0  0  0  0  0  0  0  0  0  0  0  0
   36.7770   29.4550   51.1290 C   0  0  0  0  0  0  0  0  0  0  0  0
   37.7250   29.9630   50.2850 N   0  0  0  0  0  0  0  0  0  0  0  0
   37.3340   30.5630   49.1290 C   0  0  0  0  0  0  0  0  0  0  0  0
   36.0140   30.7060   48.7180 N   0  0  0  0  0  0  0  0  0  0  0  0
   34.0130   30.2670   49.3210 H   0  0  0  0  0  0  0  0  0  0  0  0
   34.6650   29.1720   51.4280 H   0  0  0  0  0  0  0  0  0  0  0  0
   37.0210   28.9720   52.0540 H   0  0  0  0  0  0  0  0  0  0  0  0
   39.1980   32.1650   39.7010 C   0  0  0  0  0  0  0  0  0  0  0  0
   38.9300   33.3860   39.5950 O   0  0  0  0  0  0  0  0  0  0  0  0
   39.1220   31.4930   38.4170 C   0  0  0  0  0  0  0  0  0  0  0  0
   37.9070   30.9240   38.0210 C   0  0  0  0  0  0  0  0  0  0  0  0
   37.0680   31.0080   38.7250 H   0  0  0  0  0  0  0  0  0  0  0  0
   37.6750   30.2700   36.8300 C   0  0  0  0  0  3  0  0  0  0  0  0
   38.7290   30.1660   35.9460 C   0  0  0  0  0  3  0  0  0  0  0  0
   39.9520   30.7080   36.2830 C   0  0  0  0  0  0  0  0  0  0  0  0
   41.0090   30.6030   35.4060 C   0  0  0  0  0  3  0  0  0  0  0  0
   42.2480   31.1400   35.7340 C   0  0  0  0  0  3  0  0  0  0  0  0
   42.4230   31.7910   36.9580 C   0  0  0  0  0  3  0  0  0  0  0  0
   41.3480   31.8780   37.8090 C   0  0  0  0  0  3  0  0  0  0  0  0
   40.1300   31.3520   37.4880 C   0  0  0  0  0  0  0  0  0  0  0  0
  1  2  1  0  0  0  0
  1 10  1  0  0  0  0
  2  7  1  0  0  0  0
  3  8  1  0  0  0  0
  3  2  2  0  0  0  0
  4  3  1  0  0  0  0
  5  4  2  0  0  0  0
  5  6  1  0  0  0  0
  6  1  2  0  0  0  0
  9  4  1  0  0  0  0
 10 12  1  0  0  0  0
 11 10  2  0  0  0  0
 12 13  1  0  0  0  0
 12 16  1  0  0  0  0
 14 17  1  6  0  0  0
 14 25  1  0  0  0  0
 15 14  1  0  0  0  0
 15 19  1  0  0  0  0
 16 20  1  6  0  0  0
 16 15  1  0  0  0  0
 16 14  1  0  0  0  0
 18 15  1  0  0  0  0
 21 22  1  0  0  0  0
 22 23  2  0  0  0  0
 22 28  1  0  0  0  0
 23 29  1  0  0  0  0
 24 23  1  0  0  0  0
 25 24  2  0  0  0  0
 26 25  1  0  0  0  0
 26 21  2  0  0  0  0
 27 21  1  0  0  0  0
 30  5  1  0  0  0  0
 31 30  2  0  0  0  0
 32 30  1  0  0  0  0
 33 32  1  0  0  0  0
 33 34  1  0  0  0  0
 35 33  2  0  0  0  0
 36 37  2  0  0  0  0
 36 35  1  0  0  0  0
 37 42  1  0  0  0  0
 38 39  2  0  0  0  0
 38 37  1  0  0  0  0
 39 40  1  0  0  0  0
 40 41  2  0  0  0  0
 42 41  1  0  0  0  0
 42 32  2  0  0  0  0
M  END
>  <minimizedAffinity>
-5.04664373

>  <minimizedRMSD>
0.704737365

$$$$
