
 OpenBabel03272508283D

 40 44  0  0  1  0  0  0  0  0999 V2000
   33.8570   29.0380   47.2940 C   0  0  2  0  0  0  0  0  0  0  0  0
   34.6390   28.2030   48.2990 C   0  0  2  0  0  0  0  0  0  0  0  0
   33.7760   27.9640   49.3250 O   0  0  0  0  0  0  0  0  0  0  0  0
   32.4870   28.0460   48.9060 C   0  0  0  0  0  0  0  0  0  0  0  0
   32.4950   28.3440   47.4210 C   0  0  1  0  0  0  0  0  0  0  0  0
   33.7550   30.0810   47.5930 H   0  0  0  0  0  0  0  0  0  0  0  0
   34.9060   27.2530   47.8230 H   0  0  0  0  0  0  0  0  0  0  0  0
   32.0400   28.9620   49.3870 H   0  0  0  0  0  0  0  0  0  0  0  0
   31.8450   27.1990   49.1640 H   0  0  0  0  0  0  0  0  0  0  0  0
   32.5550   27.3610   46.8990 H   0  0  0  0  0  0  0  0  0  0  0  0
   35.7340   30.4340   49.0280 C   0  0  1  0  0  0  0  0  0  0  0  0
   35.8150   29.0240   48.7300 C   0  0  1  0  0  0  0  0  0  0  0  0
   36.0040   29.4250   50.1550 C   0  0  0  0  0  0  0  0  0  0  0  0
   34.8140   31.0170   49.2810 H   0  0  0  0  0  0  0  0  0  0  0  0
   36.7500   28.7070   48.1840 H   0  0  0  0  0  0  0  0  0  0  0  0
   35.2150   29.1960   50.8830 H   0  0  0  0  0  0  0  0  0  0  0  0
   37.0360   29.3680   50.5750 H   0  0  0  0  0  0  0  0  0  0  0  0
   36.9280   31.3480   48.7950 C   0  0  0  0  0  0  0  0  0  0  0  0
   37.1020   32.4020   49.6950 C   0  0  0  0  0  0  0  0  0  0  0  0
   38.1920   33.2250   49.4240 C   0  0  0  0  0  0  0  0  0  0  0  0
   39.0030   32.9980   48.3650 N   0  0  0  0  0  0  0  0  0  0  0  0
   38.7940   31.9550   47.5130 C   0  0  0  0  0  0  0  0  0  0  0  0
   37.7440   31.1200   47.7320 N   0  0  0  0  0  0  0  0  0  0  0  0
   36.4200   32.5320   50.5230 H   0  0  0  0  0  0  0  0  0  0  0  0
   38.3660   34.0580   50.0970 H   0  0  0  0  0  0  0  0  0  0  0  0
   39.4660   31.8120   46.6830 H   0  0  0  0  0  0  0  0  0  0  0  0
   34.3400   28.9680   46.0070 O   0  0  0  0  0  0  0  0  0  0  0  0
   35.3110   28.8060   45.9370 H   0  0  0  0  0  0  0  0  0  0  0  0
   31.4710   29.1530   47.0050 O   0  0  0  0  0  0  0  0  0  0  0  0
   30.4340   28.8130   46.1840 C   0  0  0  0  0  0  0  0  0  0  0  0
   29.6540   27.6820   46.2260 C   0  0  0  0  0  0  0  0  0  0  0  0
   29.8940   26.9760   47.0070 H   0  0  0  0  0  0  0  0  0  0  0  0
   28.6230   27.4360   45.3420 C   0  0  0  0  0  3  0  0  0  0  0  0
   28.3530   28.3680   44.3600 C   0  0  0  0  0  3  0  0  0  0  0  0
   29.1040   29.5350   44.2610 C   0  0  0  0  0  0  0  0  0  0  0  0
   28.8250   30.4590   43.2760 C   0  0  0  0  0  3  0  0  0  0  0  0
   29.5790   31.6060   43.1970 C   0  0  0  0  0  3  0  0  0  0  0  0
   30.6080   31.8590   44.0740 C   0  0  0  0  0  3  0  0  0  0  0  0
   30.8460   30.9020   45.0410 C   0  0  0  0  0  3  0  0  0  0  0  0
   30.1200   29.7210   45.1750 C   0  0  0  0  0  0  0  0  0  0  0  0
  1  5  1  0  0  0  0
  1  6  1  1  0  0  0
  1  2  1  0  0  0  0
  2  7  1  6  0  0  0
  2 12  1  0  0  0  0
  2  3  1  0  0  0  0
  4  9  1  0  0  0  0
  4  3  1  0  0  0  0
  4  8  1  0  0  0  0
  5 10  1  6  0  0  0
  5  4  1  0  0  0  0
 11 14  1  6  0  0  0
 11 13  1  0  0  0  0
 12 15  1  6  0  0  0
 12 11  1  0  0  0  0
 12 13  1  0  0  0  0
 13 17  1  0  0  0  0
 13 16  1  0  0  0  0
 18 11  1  0  0  0  0
 18 19  1  0  0  0  0
 19 24  1  0  0  0  0
 20 19  2  0  0  0  0
 20 25  1  0  0  0  0
 21 20  1  0  0  0  0
 22 23  1  0  0  0  0
 22 21  2  0  0  0  0
 23 18  2  0  0  0  0
 26 22  1  0  0  0  0
 27  1  1  0  0  0  0
 28 27  1  0  0  0  0
 29  5  1  0  0  0  0
 30 31  1  0  0  0  0
 30 29  1  0  0  0  0
 31 32  1  0  0  0  0
 33 31  2  0  0  0  0
 34 33  1  0  0  0  0
 35 34  2  0  0  0  0
 35 40  1  0  0  0  0
 36 35  1  0  0  0  0
 37 36  2  0  0  0  0
 37 38  1  0  0  0  0
 38 39  2  0  0  0  0
 39 40  1  0  0  0  0
 40 30  2  0  0  0  0
M  END
>  <minimizedAffinity>
-5.263309

>  <minimizedRMSD>
0.430573374

$$$$
