
 OpenBabel03272508573D

 42 46  0  0  1  0  0  0  0  0999 V2000
   38.6480   31.5120   43.7840 C   0  0  0  0  0  0  0  0  0  0  0  0
   39.8240   30.7930   43.7000 C   0  0  0  0  0  0  0  0  0  0  0  0
   40.4780   30.7900   42.4830 C   0  0  0  0  0  0  0  0  0  0  0  0
   39.9390   31.4860   41.4380 C   0  0  0  0  0  0  0  0  0  0  0  0
   38.7450   32.2150   41.5270 C   0  0  0  0  0  0  0  0  0  0  0  0
   38.1380   32.1930   42.7300 N   0  0  0  0  0  0  0  0  0  0  0  0
   40.2570   30.2380   44.5230 H   0  0  0  0  0  0  0  0  0  0  0  0
   41.4000   30.2700   42.2910 H   0  0  0  0  0  0  0  0  0  0  0  0
   40.4160   31.5120   40.4730 H   0  0  0  0  0  0  0  0  0  0  0  0
   37.9290   31.5340   45.0740 C   0  0  0  0  0  0  0  0  0  0  0  0
   36.9650   30.7920   45.2890 O   0  0  0  0  0  0  0  0  0  0  0  0
   38.3930   32.4620   46.0830 N   0  0  0  0  0  0  0  0  0  0  0  0
   39.0560   33.2300   45.8900 H   0  0  0  0  0  0  0  0  0  0  0  0
   38.5460   31.3940   48.3270 C   0  0  2  0  0  0  0  0  0  0  0  0
   38.8510   32.8370   48.5150 C   0  0  0  0  0  0  0  0  0  0  0  0
   37.8950   32.2950   47.4330 C   0  0  1  0  0  0  0  0  0  0  0  0
   39.4000   30.7680   47.9910 H   0  0  0  0  0  0  0  0  0  0  0  0
   39.8260   33.2000   48.1970 H   0  0  0  0  0  0  0  0  0  0  0  0
   38.4150   33.3500   49.3910 H   0  0  0  0  0  0  0  0  0  0  0  0
   36.8420   32.5910   47.6200 H   0  0  0  0  0  0  0  0  0  0  0  0
   35.9910   29.1620   49.8470 C   0  0  0  0  0  0  0  0  0  0  0  0
   36.2850   29.2920   51.2320 C   0  0  0  0  0  0  0  0  0  0  0  0
   37.3680   30.1670   51.6320 C   0  0  0  0  0  0  0  0  0  0  0  0
   38.0650   30.8340   50.6630 N   0  0  0  0  0  0  0  0  0  0  0  0
   37.7240   30.6590   49.3580 C   0  0  0  0  0  0  0  0  0  0  0  0
   36.6980   29.8340   48.9110 N   0  0  0  0  0  0  0  0  0  0  0  0
   35.1850   28.5040   49.6220 H   0  0  0  0  0  0  0  0  0  0  0  0
   35.7600   28.7850   51.9990 H   0  0  0  0  0  0  0  0  0  0  0  0
   37.5870   30.2640   52.6760 H   0  0  0  0  0  0  0  0  0  0  0  0
   38.1990   32.9270   40.3860 C   0  0  0  0  0  0  0  0  0  0  0  0
   38.9820   33.3900   39.5210 O   0  0  0  0  0  0  0  0  0  0  0  0
   36.8150   33.2110   40.0520 C   0  0  0  0  0  0  0  0  0  0  0  0
   36.2570   34.4280   40.4580 C   0  0  0  0  0  0  0  0  0  0  0  0
   36.9060   35.1060   41.0280 H   0  0  0  0  0  0  0  0  0  0  0  0
   34.9680   34.8450   40.2020 C   0  0  0  0  0  3  0  0  0  0  0  0
   34.1540   33.9940   39.4850 C   0  0  0  0  0  3  0  0  0  0  0  0
   34.6500   32.7800   39.0600 C   0  0  0  0  0  0  0  0  0  0  0  0
   33.8390   31.9230   38.3470 C   0  0  0  0  0  3  0  0  0  0  0  0
   34.3260   30.6950   37.9160 C   0  0  0  0  0  3  0  0  0  0  0  0
   35.6430   30.3250   38.2050 C   0  0  0  0  0  3  0  0  0  0  0  0
   36.4230   31.2040   38.9180 C   0  0  0  0  0  3  0  0  0  0  0  0
   35.9480   32.4100   39.3420 C   0  0  0  0  0  0  0  0  0  0  0  0
  1 10  1  0  0  0  0
  2  1  1  0  0  0  0
  2  7  1  0  0  0  0
  3  2  2  0  0  0  0
  4  5  2  0  0  0  0
  4  3  1  0  0  0  0
  5  6  1  0  0  0  0
  6  1  2  0  0  0  0
  8  3  1  0  0  0  0
  9  4  1  0  0  0  0
 10 11  2  0  0  0  0
 10 12  1  0  0  0  0
 12 16  1  0  0  0  0
 13 12  1  0  0  0  0
 14 17  1  6  0  0  0
 14 15  1  0  0  0  0
 14 25  1  0  0  0  0
 15 19  1  0  0  0  0
 16 20  1  1  0  0  0
 16 14  1  0  0  0  0
 16 15  1  0  0  0  0
 18 15  1  0  0  0  0
 21 22  1  0  0  0  0
 22 23  2  0  0  0  0
 22 28  1  0  0  0  0
 23 29  1  0  0  0  0
 24 23  1  0  0  0  0
 25 24  2  0  0  0  0
 26 25  1  0  0  0  0
 26 21  2  0  0  0  0
 27 21  1  0  0  0  0
 30  5  1  0  0  0  0
 31 30  2  0  0  0  0
 32 30  1  0  0  0  0
 32 33  1  0  0  0  0
 33 34  1  0  0  0  0
 35 33  2  0  0  0  0
 36 35  1  0  0  0  0
 37 42  1  0  0  0  0
 37 36  2  0  0  0  0
 38 37  1  0  0  0  0
 39 40  1  0  0  0  0
 39 38  2  0  0  0  0
 40 41  2  0  0  0  0
 41 42  1  0  0  0  0
 42 32  2  0  0  0  0
M  END
>  <minimizedAffinity>
-5.51449585

>  <minimizedRMSD>
3.46878004

$$$$
