
 OpenBabel03272503493D

 39 42  0  0  1  0  0  0  0  0999 V2000
   33.1980   27.2810   45.8830 C   0  0  1  0  0  0  0  0  0  0  0  0
   33.8730   27.4460   47.2620 C   0  0  2  0  0  0  0  0  0  0  0  0
   33.6730   26.2470   47.8670 O   0  0  0  0  0  0  0  0  0  0  0  0
   34.0030   25.3160   46.8950 C   0  0  0  0  0  0  0  0  0  0  0  0
   33.5800   25.8610   45.5470 C   0  0  2  0  0  0  0  0  0  0  0  0
   33.6300   28.0220   45.1820 H   0  0  0  0  0  0  0  0  0  0  0  0
   34.9310   27.6780   47.0060 H   0  0  0  0  0  0  0  0  0  0  0  0
   35.0630   25.0100   46.9150 H   0  0  0  0  0  0  0  0  0  0  0  0
   33.3930   24.4080   47.0850 H   0  0  0  0  0  0  0  0  0  0  0  0
   32.6930   25.3290   45.1550 H   0  0  0  0  0  0  0  0  0  0  0  0
   31.8400   27.5070   45.9810 O   0  0  0  0  0  0  0  0  0  0  0  0
   31.5390   28.1680   45.3060 H   0  0  0  0  0  0  0  0  0  0  0  0
   33.2410   28.5280   47.8210 O   0  0  0  0  0  0  0  0  0  0  0  0
   35.3320   29.7700   46.7840 O   0  0  0  0  0  0  0  0  0  0  0  0
   34.0680   29.9800   47.6140 P   0  0  1  0  0  0  0  0  0  0  0  0
   33.1270   31.0620   46.7110 O   0  0  0  0  0  0  0  0  0  0  0  0
   32.3980   31.3530   47.3420 H   0  0  0  0  0  0  0  0  0  0  0  0
   34.3740   30.6020   49.1730 O   0  0  0  0  0  0  0  0  0  0  0  0
   35.6200   30.4840   49.7730 C   0  0  0  0  0  0  0  0  0  0  0  0
   35.9810   29.4580   50.6780 C   0  0  0  0  0  0  0  0  0  0  0  0
   37.2670   29.4720   51.1980 C   0  0  0  0  0  0  0  0  0  0  0  0
   38.1210   30.4760   50.8110 N   0  0  0  0  0  0  0  0  0  0  0  0
   37.7460   31.4470   49.9420 C   0  0  0  0  0  0  0  0  0  0  0  0
   36.4910   31.4550   49.4190 N   0  0  0  0  0  0  0  0  0  0  0  0
   35.2340   28.7380   50.8990 H   0  0  0  0  0  0  0  0  0  0  0  0
   37.5350   28.7010   51.8760 H   0  0  0  0  0  0  0  0  0  0  0  0
   38.4290   32.2300   49.6480 H   0  0  0  0  0  0  0  0  0  0  0  0
   34.6320   25.8340   44.6720 O   0  0  0  0  0  0  0  0  0  0  0  0
   34.6470   25.0330   43.5600 C   0  0  0  0  0  0  0  0  0  0  0  0
   33.8310   24.9630   42.4710 C   0  0  0  0  0  0  0  0  0  0  0  0
   33.0130   25.6610   42.4590 H   0  0  0  0  0  0  0  0  0  0  0  0
   34.0060   24.0770   41.4350 C   0  0  0  0  0  3  0  0  0  0  0  0
   35.0530   23.1780   41.4410 C   0  0  0  0  0  3  0  0  0  0  0  0
   35.9050   23.2270   42.5450 C   0  0  0  0  0  0  0  0  0  0  0  0
   36.9340   22.3080   42.5010 C   0  0  0  0  0  3  0  0  0  0  0  0
   37.8290   22.2740   43.5420 C   0  0  0  0  0  3  0  0  0  0  0  0
   37.6840   23.1460   44.5950 C   0  0  0  0  0  3  0  0  0  0  0  0
   36.6450   24.0520   44.6060 C   0  0  0  0  0  3  0  0  0  0  0  0
   35.7170   24.1300   43.5890 C   0  0  0  0  0  0  0  0  0  0  0  0
  1  6  1  6  0  0  0
  1 11  1  0  0  0  0
  1  2  1  0  0  0  0
  2  7  1  6  0  0  0
  2 13  1  0  0  0  0
  2  3  1  0  0  0  0
  4  8  1  0  0  0  0
  4  9  1  0  0  0  0
  4  3  1  0  0  0  0
  5 10  1  6  0  0  0
  5  1  1  0  0  0  0
  5  4  1  0  0  0  0
 12 11  1  0  0  0  0
 15 14  2  6  0  0  0
 15 13  1  0  0  0  0
 15 18  1  0  0  0  0
 16 17  1  0  0  0  0
 16 15  1  0  0  0  0
 18 19  1  0  0  0  0
 19 20  1  0  0  0  0
 20 25  1  0  0  0  0
 20 21  2  0  0  0  0
 21 26  1  0  0  0  0
 22 21  1  0  0  0  0
 23 22  2  0  0  0  0
 24 19  2  0  0  0  0
 24 23  1  0  0  0  0
 27 23  1  0  0  0  0
 28  5  1  0  0  0  0
 29 39  1  0  0  0  0
 29 28  1  0  0  0  0
 30 29  2  0  0  0  0
 31 30  1  0  0  0  0
 32 33  2  0  0  0  0
 32 30  1  0  0  0  0
 33 34  1  0  0  0  0
 34 39  1  0  0  0  0
 35 34  2  0  0  0  0
 35 36  1  0  0  0  0
 36 37  2  0  0  0  0
 37 38  1  0  0  0  0
 39 38  2  0  0  0  0
M  END
>  <minimizedAffinity>
-4.34926939

>  <minimizedRMSD>
0.865037143

$$$$
