
 OpenBabel03272501193D

 32 35  0  0  0  0  0  0  0  0999 V2000
   37.6730   26.2490   32.9470 C   0  0  0  0  0  0  0  0  0  0  0  0
   36.6210   26.5350   32.0850 C   0  0  0  0  0  0  0  0  0  0  0  0
   36.0050   25.4030   31.5520 C   0  0  0  0  0  0  0  0  0  0  0  0
   36.4250   24.1070   31.8700 C   0  0  0  0  0  0  0  0  0  0  0  0
   37.4900   23.9330   32.7470 C   0  0  0  0  0  0  0  0  0  0  0  0
   38.1290   25.0310   33.2990 C   0  0  0  0  0  0  0  0  0  0  0  0
   35.1710   25.4930   30.8640 H   0  0  0  0  0  0  0  0  0  0  0  0
   35.9080   23.2650   31.4240 H   0  0  0  0  0  0  0  0  0  0  0  0
   37.8280   22.9340   33.0050 H   0  0  0  0  0  0  0  0  0  0  0  0
   36.7350   28.5080   30.6310 C   0  0  0  0  0  0  0  0  0  0  0  0
   36.1860   27.8470   31.7540 C   0  0  0  0  0  0  0  0  0  0  0  0
   35.2300   28.5300   32.4920 C   0  0  0  0  0  0  0  0  0  0  0  0
   34.8740   29.7880   32.0980 N   0  0  0  0  0  0  0  0  0  0  0  0
   35.4320   30.3820   31.0070 C   0  0  0  0  0  0  0  0  0  0  0  0
   36.3650   29.7410   30.2710 N   0  0  0  0  0  0  0  0  0  0  0  0
   37.4860   27.9720   30.0530 H   0  0  0  0  0  0  0  0  0  0  0  0
   34.7780   28.0670   33.3620 H   0  0  0  0  0  0  0  0  0  0  0  0
   35.1420   31.3800   30.7050 H   0  0  0  0  0  0  0  0  0  0  0  0
   38.3590   27.3390   33.5350 O   0  0  0  0  0  0  0  0  0  0  0  0
   39.3640   27.3900   33.5500 H   0  0  0  0  0  0  0  0  0  0  0  0
   39.1740   24.8030   34.1570 O   0  0  0  0  0  0  0  0  0  0  0  0
   38.9400   24.4090   35.4430 C   0  0  0  0  0  0  0  0  0  0  0  0
   37.9660   24.7540   36.3560 C   0  0  0  0  0  0  0  0  0  0  0  0
   37.2520   25.4650   35.9700 H   0  0  0  0  0  0  0  0  0  0  0  0
   37.9120   24.2280   37.6280 C   0  0  0  0  0  3  0  0  0  0  0  0
   38.8460   23.3120   38.0670 C   0  0  0  0  0  3  0  0  0  0  0  0
   39.8410   22.9450   37.1640 C   0  0  0  0  0  0  0  0  0  0  0  0
   40.7420   22.0310   37.6530 C   0  0  0  0  0  3  0  0  0  0  0  0
   41.7570   21.6080   36.8450 C   0  0  0  0  0  3  0  0  0  0  0  0
   41.8570   22.1020   35.5660 C   0  0  0  0  0  3  0  0  0  0  0  0
   40.9400   23.0110   35.1120 C   0  0  0  0  0  3  0  0  0  0  0  0
   39.8910   23.4790   35.8790 C   0  0  0  0  0  0  0  0  0  0  0  0
  1  6  1  0  0  0  0
  1 19  1  0  0  0  0
  2  1  2  0  0  0  0
  3  4  2  0  0  0  0
  3  2  1  0  0  0  0
  4  5  1  0  0  0  0
  5  9  1  0  0  0  0
  5  6  2  0  0  0  0
  6 21  1  0  0  0  0
  7  3  1  0  0  0  0
  8  4  1  0  0  0  0
 10 11  1  0  0  0  0
 11  2  1  0  0  0  0
 11 12  2  0  0  0  0
 12 17  1  0  0  0  0
 13 12  1  0  0  0  0
 14 13  2  0  0  0  0
 15 10  2  0  0  0  0
 15 14  1  0  0  0  0
 16 10  1  0  0  0  0
 18 14  1  0  0  0  0
 19 20  1  0  0  0  0
 21 22  1  0  0  0  0
 22 32  2  0  0  0  0
 22 23  1  0  0  0  0
 23 25  2  0  0  0  0
 24 23  1  0  0  0  0
 25 26  1  0  0  0  0
 27 28  1  0  0  0  0
 27 26  2  0  0  0  0
 29 28  2  0  0  0  0
 30 29  1  0  0  0  0
 31 30  2  0  0  0  0
 31 32  1  0  0  0  0
 32 27  1  0  0  0  0
M  END
>  <minimizedAffinity>
-6.14198875

$$$$

 OpenBabel03272501193D

 32 35  0  0  0  0  0  0  0  0999 V2000
   36.4910   27.6910   33.0240 C   0  0  0  0  0  0  0  0  0  0  0  0
   37.3760   26.6260   33.1370 C   0  0  0  0  0  0  0  0  0  0  0  0
   38.0210   26.5550   34.3710 C   0  0  0  0  0  0  0  0  0  0  0  0
   37.7820   27.4840   35.3900 C   0  0  0  0  0  0  0  0  0  0  0  0
   36.8740   28.5140   35.1730 C   0  0  0  0  0  0  0  0  0  0  0  0
   36.2120   28.6200   33.9600 C   0  0  0  0  0  0  0  0  0  0  0  0
   38.7370   25.7680   34.5830 H   0  0  0  0  0  0  0  0  0  0  0  0
   38.3140   27.3790   36.3290 H   0  0  0  0  0  0  0  0  0  0  0  0
   36.6770   29.2430   35.9530 H   0  0  0  0  0  0  0  0  0  0  0  0
   38.7100   25.8680   31.2220 C   0  0  0  0  0  0  0  0  0  0  0  0
   37.6260   25.6760   32.1090 C   0  0  0  0  0  0  0  0  0  0  0  0
   36.8440   24.5440   31.9250 C   0  0  0  0  0  0  0  0  0  0  0  0
   37.1610   23.6870   30.9110 N   0  0  0  0  0  0  0  0  0  0  0  0
   38.2170   23.9180   30.0820 C   0  0  0  0  0  0  0  0  0  0  0  0
   38.9940   25.0110   30.2370 N   0  0  0  0  0  0  0  0  0  0  0  0
   39.3230   26.7580   31.3660 H   0  0  0  0  0  0  0  0  0  0  0  0
   36.0020   24.3510   32.5790 H   0  0  0  0  0  0  0  0  0  0  0  0
   38.4590   23.2310   29.2800 H   0  0  0  0  0  0  0  0  0  0  0  0
   35.7920   27.8430   31.8030 O   0  0  0  0  0  0  0  0  0  0  0  0
   35.7280   28.7310   31.3320 H   0  0  0  0  0  0  0  0  0  0  0  0
   35.3270   29.6550   33.7980 O   0  0  0  0  0  0  0  0  0  0  0  0
   35.1440   30.5700   34.7940 C   0  0  0  0  0  0  0  0  0  0  0  0
   35.9430   31.5820   35.2820 C   0  0  0  0  0  0  0  0  0  0  0  0
   36.8890   31.6640   34.7690 H   0  0  0  0  0  0  0  0  0  0  0  0
   35.5590   32.4080   36.3150 C   0  0  0  0  0  3  0  0  0  0  0  0
   34.3320   32.2660   36.9300 C   0  0  0  0  0  3  0  0  0  0  0  0
   33.5030   31.2510   36.4550 C   0  0  0  0  0  0  0  0  0  0  0  0
   32.2950   31.1560   37.1020 C   0  0  0  0  0  3  0  0  0  0  0  0
   31.4120   30.1920   36.7120 C   0  0  0  0  0  3  0  0  0  0  0  0
   31.7460   29.3410   35.6850 C   0  0  0  0  0  3  0  0  0  0  0  0
   32.9590   29.4660   35.0630 C   0  0  0  0  0  3  0  0  0  0  0  0
   33.8960   30.4190   35.4100 C   0  0  0  0  0  0  0  0  0  0  0  0
  1  2  2  0  0  0  0
  1  6  1  0  0  0  0
  2  3  1  0  0  0  0
  3  7  1  0  0  0  0
  3  4  2  0  0  0  0
  4  8  1  0  0  0  0
  5  4  1  0  0  0  0
  5  9  1  0  0  0  0
  6  5  2  0  0  0  0
 10 16  1  0  0  0  0
 10 11  1  0  0  0  0
 11  2  1  0  0  0  0
 12 11  2  0  0  0  0
 12 17  1  0  0  0  0
 13 12  1  0  0  0  0
 14 15  1  0  0  0  0
 14 13  2  0  0  0  0
 15 10  2  0  0  0  0
 18 14  1  0  0  0  0
 19  1  1  0  0  0  0
 20 19  1  0  0  0  0
 21  6  1  0  0  0  0
 21 22  1  0  0  0  0
 22 23  2  0  0  0  0
 22 32  1  0  0  0  0
 23 25  1  0  0  0  0
 24 23  1  0  0  0  0
 25 26  2  0  0  0  0
 27 26  1  0  0  0  0
 27 28  1  0  0  0  0
 29 28  2  0  0  0  0
 30 29  1  0  0  0  0
 31 32  1  0  0  0  0
 31 30  2  0  0  0  0
 32 27  2  0  0  0  0
M  END
>  <minimizedAffinity>
-5.98471308

$$$$

 OpenBabel03272501193D

 32 35  0  0  0  0  0  0  0  0999 V2000
   36.3220   28.7220   33.5130 C   0  0  0  0  0  0  0  0  0  0  0  0
   35.7100   29.9690   33.5370 C   0  0  0  0  0  0  0  0  0  0  0  0
   35.7300   30.6310   32.3100 C   0  0  0  0  0  0  0  0  0  0  0  0
   36.3170   30.0710   31.1710 C   0  0  0  0  0  0  0  0  0  0  0  0
   36.9030   28.8130   31.2560 C   0  0  0  0  0  0  0  0  0  0  0  0
   36.9050   28.1210   32.4560 C   0  0  0  0  0  0  0  0  0  0  0  0
   35.2840   31.6140   32.1990 H   0  0  0  0  0  0  0  0  0  0  0  0
   36.3020   30.6330   30.2440 H   0  0  0  0  0  0  0  0  0  0  0  0
   37.3630   28.3640   30.3810 H   0  0  0  0  0  0  0  0  0  0  0  0
   33.7290   30.3650   34.9290 C   0  0  0  0  0  0  0  0  0  0  0  0
   35.1100   30.5480   34.6880 C   0  0  0  0  0  0  0  0  0  0  0  0
   35.8240   31.3010   35.6100 C   0  0  0  0  0  0  0  0  0  0  0  0
   35.1630   31.8180   36.6860 N   0  0  0  0  0  0  0  0  0  0  0  0
   33.8290   31.6120   36.8740 C   0  0  0  0  0  0  0  0  0  0  0  0
   33.1100   30.8850   35.9940 N   0  0  0  0  0  0  0  0  0  0  0  0
   33.1690   29.7750   34.2050 H   0  0  0  0  0  0  0  0  0  0  0  0
   36.8860   31.4710   35.4710 H   0  0  0  0  0  0  0  0  0  0  0  0
   33.3150   32.0280   37.7320 H   0  0  0  0  0  0  0  0  0  0  0  0
   36.3520   27.9770   34.7160 O   0  0  0  0  0  0  0  0  0  0  0  0
   37.1940   27.5380   35.0500 H   0  0  0  0  0  0  0  0  0  0  0  0
   37.4960   26.8850   32.4850 O   0  0  0  0  0  0  0  0  0  0  0  0
   36.8060   25.7780   32.0820 C   0  0  0  0  0  0  0  0  0  0  0  0
   35.6990   25.6180   31.2770 C   0  0  0  0  0  0  0  0  0  0  0  0
   35.3150   26.5490   30.8900 H   0  0  0  0  0  0  0  0  0  0  0  0
   35.1510   24.3870   30.9930 C   0  0  0  0  0  3  0  0  0  0  0  0
   35.6890   23.2250   31.5070 C   0  0  0  0  0  3  0  0  0  0  0  0
   36.8110   23.3580   32.3230 C   0  0  0  0  0  0  0  0  0  0  0  0
   37.3050   22.1700   32.8060 C   0  0  0  0  0  3  0  0  0  0  0  0
   38.4020   22.1930   33.6170 C   0  0  0  0  0  3  0  0  0  0  0  0
   38.9880   23.3970   33.9330 C   0  0  0  0  0  3  0  0  0  0  0  0
   38.4680   24.5600   33.4320 C   0  0  0  0  0  3  0  0  0  0  0  0
   37.3610   24.6050   32.6080 C   0  0  0  0  0  0  0  0  0  0  0  0
  1  2  1  0  0  0  0
  1 19  1  0  0  0  0
  2 11  1  0  0  0  0
  3  2  2  0  0  0  0
  4  5  2  0  0  0  0
  4  3  1  0  0  0  0
  5  6  1  0  0  0  0
  6 21  1  0  0  0  0
  6  1  2  0  0  0  0
  7  3  1  0  0  0  0
  8  4  1  0  0  0  0
  9  5  1  0  0  0  0
 10 15  1  0  0  0  0
 11 10  2  0  0  0  0
 11 12  1  0  0  0  0
 12 13  2  0  0  0  0
 13 14  1  0  0  0  0
 14 18  1  0  0  0  0
 15 14  2  0  0  0  0
 16 10  1  0  0  0  0
 17 12  1  0  0  0  0
 19 20  1  0  0  0  0
 22 21  1  0  0  0  0
 22 32  1  0  0  0  0
 23 22  2  0  0  0  0
 24 23  1  0  0  0  0
 25 23  1  0  0  0  0
 25 26  2  0  0  0  0
 26 27  1  0  0  0  0
 27 32  2  0  0  0  0
 27 28  1  0  0  0  0
 28 29  2  0  0  0  0
 29 30  1  0  0  0  0
 31 30  2  0  0  0  0
 32 31  1  0  0  0  0
M  END
>  <minimizedAffinity>
-5.83503866

$$$$

 OpenBabel03272501193D

 32 35  0  0  0  0  0  0  0  0999 V2000
   38.6350   25.4700   33.0000 C   0  0  0  0  0  0  0  0  0  0  0  0
   38.7920   26.7890   32.5890 C   0  0  0  0  0  0  0  0  0  0  0  0
   40.1010   27.2570   32.6840 C   0  0  0  0  0  0  0  0  0  0  0  0
   41.1470   26.4550   33.1530 C   0  0  0  0  0  0  0  0  0  0  0  0
   40.8810   25.1470   33.5390 C   0  0  0  0  0  0  0  0  0  0  0  0
   39.5930   24.6420   33.4600 C   0  0  0  0  0  0  0  0  0  0  0  0
   40.3540   28.2710   32.3930 H   0  0  0  0  0  0  0  0  0  0  0  0
   42.1450   26.8750   33.2050 H   0  0  0  0  0  0  0  0  0  0  0  0
   41.6800   24.5110   33.9050 H   0  0  0  0  0  0  0  0  0  0  0  0
   36.8310   28.1980   33.0250 C   0  0  0  0  0  0  0  0  0  0  0  0
   37.7370   27.6120   32.1100 C   0  0  0  0  0  0  0  0  0  0  0  0
   37.5430   27.8790   30.7620 C   0  0  0  0  0  0  0  0  0  0  0  0
   36.5030   28.6820   30.3960 N   0  0  0  0  0  0  0  0  0  0  0  0
   35.6570   29.2230   31.3170 C   0  0  0  0  0  0  0  0  0  0  0  0
   35.8210   28.9810   32.6350 N   0  0  0  0  0  0  0  0  0  0  0  0
   36.9830   27.9880   34.0830 H   0  0  0  0  0  0  0  0  0  0  0  0
   38.2100   27.4540   30.0210 H   0  0  0  0  0  0  0  0  0  0  0  0
   34.8340   29.8600   31.0140 H   0  0  0  0  0  0  0  0  0  0  0  0
   37.3360   24.9100   32.9400 O   0  0  0  0  0  0  0  0  0  0  0  0
   36.9410   24.3970   33.7110 H   0  0  0  0  0  0  0  0  0  0  0  0
   39.3840   23.3450   33.8540 O   0  0  0  0  0  0  0  0  0  0  0  0
   40.0040   22.8520   34.9660 C   0  0  0  0  0  0  0  0  0  0  0  0
   41.1200   22.0600   35.1320 C   0  0  0  0  0  0  0  0  0  0  0  0
   41.5940   21.7910   34.2000 H   0  0  0  0  0  0  0  0  0  0  0  0
   41.5840   21.6680   36.3680 C   0  0  0  0  0  3  0  0  0  0  0  0
   40.9450   22.0510   37.5290 C   0  0  0  0  0  3  0  0  0  0  0  0
   39.8140   22.8520   37.3910 C   0  0  0  0  0  0  0  0  0  0  0  0
   39.2190   23.2040   38.5790 C   0  0  0  0  0  3  0  0  0  0  0  0
   38.1020   23.9870   38.5500 C   0  0  0  0  0  3  0  0  0  0  0  0
   37.5970   24.4070   37.3420 C   0  0  0  0  0  3  0  0  0  0  0  0
   38.2170   24.0370   36.1790 C   0  0  0  0  0  3  0  0  0  0  0  0
   39.3490   23.2470   36.1390 C   0  0  0  0  0  0  0  0  0  0  0  0
  1  6  1  0  0  0  0
  2  3  1  0  0  0  0
  2  1  2  0  0  0  0
  3  4  2  0  0  0  0
  4  8  1  0  0  0  0
  4  5  1  0  0  0  0
  5  9  1  0  0  0  0
  6  5  2  0  0  0  0
  6 21  1  0  0  0  0
  7  3  1  0  0  0  0
 10 16  1  0  0  0  0
 11  2  1  0  0  0  0
 11 10  2  0  0  0  0
 12 11  1  0  0  0  0
 13 12  2  0  0  0  0
 13 14  1  0  0  0  0
 14 15  2  0  0  0  0
 15 10  1  0  0  0  0
 17 12  1  0  0  0  0
 18 14  1  0  0  0  0
 19  1  1  0  0  0  0
 19 20  1  0  0  0  0
 21 22  1  0  0  0  0
 22 23  2  0  0  0  0
 22 32  1  0  0  0  0
 23 25  1  0  0  0  0
 24 23  1  0  0  0  0
 25 26  2  0  0  0  0
 27 26  1  0  0  0  0
 27 28  1  0  0  0  0
 29 28  2  0  0  0  0
 30 29  1  0  0  0  0
 31 30  2  0  0  0  0
 32 31  1  0  0  0  0
 32 27  2  0  0  0  0
M  END
>  <minimizedAffinity>
-5.8341403

$$$$

 OpenBabel03272501193D

 32 35  0  0  0  0  0  0  0  0999 V2000
   35.8970   29.2160   33.4410 C   0  0  0  0  0  0  0  0  0  0  0  0
   35.2070   30.4100   33.6130 C   0  0  0  0  0  0  0  0  0  0  0  0
   35.0460   31.1430   32.4370 C   0  0  0  0  0  0  0  0  0  0  0  0
   35.5410   30.6960   31.2080 C   0  0  0  0  0  0  0  0  0  0  0  0
   36.2180   29.4830   31.1470 C   0  0  0  0  0  0  0  0  0  0  0  0
   36.3990   28.7240   32.2920 C   0  0  0  0  0  0  0  0  0  0  0  0
   34.5250   32.0940   32.4400 H   0  0  0  0  0  0  0  0  0  0  0  0
   35.3860   31.3090   30.3280 H   0  0  0  0  0  0  0  0  0  0  0  0
   36.6090   29.1220   30.2010 H   0  0  0  0  0  0  0  0  0  0  0  0
   33.3580   30.6050   35.2130 C   0  0  0  0  0  0  0  0  0  0  0  0
   34.6990   30.8740   34.8570 C   0  0  0  0  0  0  0  0  0  0  0  0
   35.4670   31.5930   35.7620 C   0  0  0  0  0  0  0  0  0  0  0  0
   34.8940   31.9970   36.9320 N   0  0  0  0  0  0  0  0  0  0  0  0
   33.5950   31.7120   37.2300 C   0  0  0  0  0  0  0  0  0  0  0  0
   32.8250   31.0140   36.3680 N   0  0  0  0  0  0  0  0  0  0  0  0
   32.7550   30.0410   34.5020 H   0  0  0  0  0  0  0  0  0  0  0  0
   36.5020   31.8250   35.5350 H   0  0  0  0  0  0  0  0  0  0  0  0
   33.1510   32.0380   38.1620 H   0  0  0  0  0  0  0  0  0  0  0  0
   36.1090   28.4060   34.5830 O   0  0  0  0  0  0  0  0  0  0  0  0
   37.0110   28.0120   34.7960 H   0  0  0  0  0  0  0  0  0  0  0  0
   37.0740   27.5360   32.1760 O   0  0  0  0  0  0  0  0  0  0  0  0
   38.3520   27.5100   31.6990 C   0  0  0  0  0  0  0  0  0  0  0  0
   38.8780   27.7230   30.4430 C   0  0  0  0  0  0  0  0  0  0  0  0
   38.1310   27.9640   29.7030 H   0  0  0  0  0  0  0  0  0  0  0  0
   40.2260   27.6450   30.1720 C   0  0  0  0  0  3  0  0  0  0  0  0
   41.1410   27.3430   31.1590 C   0  0  0  0  0  3  0  0  0  0  0  0
   40.6370   27.1240   32.4400 C   0  0  0  0  0  0  0  0  0  0  0  0
   41.5920   26.8280   33.3830 C   0  0  0  0  0  3  0  0  0  0  0  0
   41.1990   26.5950   34.6680 C   0  0  0  0  0  3  0  0  0  0  0  0
   39.8640   26.6600   34.9930 C   0  0  0  0  0  3  0  0  0  0  0  0
   38.9410   26.9580   34.0260 C   0  0  0  0  0  3  0  0  0  0  0  0
   39.2730   27.2040   32.7090 C   0  0  0  0  0  0  0  0  0  0  0  0
  1  2  1  0  0  0  0
  1 19  1  0  0  0  0
  2 11  1  0  0  0  0
  3  7  1  0  0  0  0
  3  2  2  0  0  0  0
  4  3  1  0  0  0  0
  5  4  2  0  0  0  0
  5  6  1  0  0  0  0
  6  1  2  0  0  0  0
  8  4  1  0  0  0  0
  9  5  1  0  0  0  0
 10 15  1  0  0  0  0
 11 10  2  0  0  0  0
 11 12  1  0  0  0  0
 12 13  2  0  0  0  0
 13 14  1  0  0  0  0
 14 18  1  0  0  0  0
 15 14  2  0  0  0  0
 16 10  1  0  0  0  0
 17 12  1  0  0  0  0
 19 20  1  0  0  0  0
 21  6  1  0  0  0  0
 22 21  1  0  0  0  0
 22 32  1  0  0  0  0
 23 22  2  0  0  0  0
 24 23  1  0  0  0  0
 25 23  1  0  0  0  0
 25 26  2  0  0  0  0
 26 27  1  0  0  0  0
 27 32  2  0  0  0  0
 27 28  1  0  0  0  0
 28 29  2  0  0  0  0
 29 30  1  0  0  0  0
 31 30  2  0  0  0  0
 32 31  1  0  0  0  0
M  END
>  <minimizedAffinity>
-5.7959528

$$$$

 OpenBabel03272501193D

 32 35  0  0  0  0  0  0  0  0999 V2000
   36.5860   28.5050   33.2290 C   0  0  0  0  0  0  0  0  0  0  0  0
   37.4640   27.5680   32.6980 C   0  0  0  0  0  0  0  0  0  0  0  0
   37.5350   27.5860   31.3060 C   0  0  0  0  0  0  0  0  0  0  0  0
   36.7810   28.4760   30.5330 C   0  0  0  0  0  0  0  0  0  0  0  0
   35.9310   29.3750   31.1670 C   0  0  0  0  0  0  0  0  0  0  0  0
   35.8310   29.3900   32.5490 C   0  0  0  0  0  0  0  0  0  0  0  0
   38.1850   26.9010   30.7710 H   0  0  0  0  0  0  0  0  0  0  0  0
   36.8770   28.4420   29.4540 H   0  0  0  0  0  0  0  0  0  0  0  0
   35.3390   30.0720   30.5820 H   0  0  0  0  0  0  0  0  0  0  0  0
   37.7400   25.3610   33.7340 C   0  0  0  0  0  0  0  0  0  0  0  0
   38.2350   26.6590   33.4740 C   0  0  0  0  0  0  0  0  0  0  0  0
   39.4760   26.9860   34.0010 C   0  0  0  0  0  0  0  0  0  0  0  0
   40.1450   26.0480   34.7330 N   0  0  0  0  0  0  0  0  0  0  0  0
   39.6240   24.8090   34.9560 C   0  0  0  0  0  0  0  0  0  0  0  0
   38.4190   24.4640   34.4550 N   0  0  0  0  0  0  0  0  0  0  0  0
   36.7650   25.1050   33.3210 H   0  0  0  0  0  0  0  0  0  0  0  0
   39.9000   27.9690   33.8300 H   0  0  0  0  0  0  0  0  0  0  0  0
   40.1640   24.0720   35.5390 H   0  0  0  0  0  0  0  0  0  0  0  0
   36.4470   28.5570   34.6370 O   0  0  0  0  0  0  0  0  0  0  0  0
   35.5450   28.5860   35.0830 H   0  0  0  0  0  0  0  0  0  0  0  0
   34.9780   30.2970   33.1220 O   0  0  0  0  0  0  0  0  0  0  0  0
   33.7360   29.9120   33.5380 C   0  0  0  0  0  0  0  0  0  0  0  0
   32.7560   29.1450   32.9460 C   0  0  0  0  0  0  0  0  0  0  0  0
   33.0350   28.7760   31.9700 H   0  0  0  0  0  0  0  0  0  0  0  0
   31.5500   28.8720   33.5510 C   0  0  0  0  0  3  0  0  0  0  0  0
   31.2490   29.3610   34.8060 C   0  0  0  0  0  3  0  0  0  0  0  0
   32.2230   30.1390   35.4290 C   0  0  0  0  0  0  0  0  0  0  0  0
   31.8710   30.5970   36.6750 C   0  0  0  0  0  3  0  0  0  0  0  0
   32.7570   31.3700   37.3680 C   0  0  0  0  0  3  0  0  0  0  0  0
   33.9760   31.6720   36.8090 C   0  0  0  0  0  3  0  0  0  0  0  0
   34.2930   31.1970   35.5640 C   0  0  0  0  0  3  0  0  0  0  0  0
   33.4420   30.4110   34.8120 C   0  0  0  0  0  0  0  0  0  0  0  0
  1 19  1  0  0  0  0
  2  1  1  0  0  0  0
  2 11  1  0  0  0  0
  3  2  2  0  0  0  0
  4  5  2  0  0  0  0
  4  3  1  0  0  0  0
  5  6  1  0  0  0  0
  6 21  1  0  0  0  0
  6  1  2  0  0  0  0
  7  3  1  0  0  0  0
  8  4  1  0  0  0  0
  9  5  1  0  0  0  0
 10 15  1  0  0  0  0
 11 10  2  0  0  0  0
 11 12  1  0  0  0  0
 12 13  2  0  0  0  0
 13 14  1  0  0  0  0
 14 18  1  0  0  0  0
 15 14  2  0  0  0  0
 16 10  1  0  0  0  0
 17 12  1  0  0  0  0
 19 20  1  0  0  0  0
 21 22  1  0  0  0  0
 22 32  1  0  0  0  0
 23 22  2  0  0  0  0
 23 25  1  0  0  0  0
 24 23  1  0  0  0  0
 25 26  2  0  0  0  0
 26 27  1  0  0  0  0
 27 28  1  0  0  0  0
 28 29  2  0  0  0  0
 30 29  1  0  0  0  0
 31 30  2  0  0  0  0
 32 27  2  0  0  0  0
 32 31  1  0  0  0  0
M  END
>  <minimizedAffinity>
-5.77099323

$$$$

 OpenBabel03272501193D

 32 35  0  0  0  0  0  0  0  0999 V2000
   36.4740   28.2610   33.6370 C   0  0  0  0  0  0  0  0  0  0  0  0
   35.8330   29.4850   33.4940 C   0  0  0  0  0  0  0  0  0  0  0  0
   35.8910   30.0070   32.2030 C   0  0  0  0  0  0  0  0  0  0  0  0
   36.5420   29.3400   31.1590 C   0  0  0  0  0  0  0  0  0  0  0  0
   37.1530   28.1170   31.4100 C   0  0  0  0  0  0  0  0  0  0  0  0
   37.1180   27.5630   32.6800 C   0  0  0  0  0  0  0  0  0  0  0  0
   35.4280   30.9580   31.9630 H   0  0  0  0  0  0  0  0  0  0  0  0
   36.5560   29.7940   30.1760 H   0  0  0  0  0  0  0  0  0  0  0  0
   37.6630   27.5860   30.6120 H   0  0  0  0  0  0  0  0  0  0  0  0
   35.8960   31.0450   35.3880 C   0  0  0  0  0  0  0  0  0  0  0  0
   35.1680   30.1720   34.5470 C   0  0  0  0  0  0  0  0  0  0  0  0
   33.8110   30.0270   34.8000 C   0  0  0  0  0  0  0  0  0  0  0  0
   33.2590   30.7280   35.8330 N   0  0  0  0  0  0  0  0  0  0  0  0
   34.0040   31.5570   36.6150 C   0  0  0  0  0  0  0  0  0  0  0  0
   35.3260   31.7170   36.3930 N   0  0  0  0  0  0  0  0  0  0  0  0
   36.9610   31.1570   35.1900 H   0  0  0  0  0  0  0  0  0  0  0  0
   33.2080   29.3700   34.1840 H   0  0  0  0  0  0  0  0  0  0  0  0
   33.5550   32.1080   37.4330 H   0  0  0  0  0  0  0  0  0  0  0  0
   36.4670   27.6570   34.9170 O   0  0  0  0  0  0  0  0  0  0  0  0
   37.3030   27.2810   35.3330 H   0  0  0  0  0  0  0  0  0  0  0  0
   37.7370   26.3550   32.8730 O   0  0  0  0  0  0  0  0  0  0  0  0
   38.9750   26.2950   33.4430 C   0  0  0  0  0  0  0  0  0  0  0  0
   40.0600   27.1450   33.3970 C   0  0  0  0  0  0  0  0  0  0  0  0
   39.8850   28.0270   32.8000 H   0  0  0  0  0  0  0  0  0  0  0  0
   41.2400   26.8900   34.0580 C   0  0  0  0  0  3  0  0  0  0  0  0
   41.4070   25.7500   34.8170 C   0  0  0  0  0  3  0  0  0  0  0  0
   40.3260   24.8730   34.8820 C   0  0  0  0  0  0  0  0  0  0  0  0
   40.5470   23.7560   35.6510 C   0  0  0  0  0  3  0  0  0  0  0  0
   39.5490   22.8340   35.7770 C   0  0  0  0  0  3  0  0  0  0  0  0
   38.3490   23.0400   35.1360 C   0  0  0  0  0  3  0  0  0  0  0  0
   38.1650   24.1660   34.3790 C   0  0  0  0  0  3  0  0  0  0  0  0
   39.1340   25.1360   34.2110 C   0  0  0  0  0  0  0  0  0  0  0  0
  1 19  1  0  0  0  0
  2  1  1  0  0  0  0
  2 11  1  0  0  0  0
  3  2  2  0  0  0  0
  4  5  2  0  0  0  0
  4  3  1  0  0  0  0
  5  6  1  0  0  0  0
  6 21  1  0  0  0  0
  6  1  2  0  0  0  0
  7  3  1  0  0  0  0
  8  4  1  0  0  0  0
  9  5  1  0  0  0  0
 10 15  1  0  0  0  0
 11 12  1  0  0  0  0
 11 10  2  0  0  0  0
 12 13  2  0  0  0  0
 13 14  1  0  0  0  0
 14 18  1  0  0  0  0
 15 14  2  0  0  0  0
 16 10  1  0  0  0  0
 17 12  1  0  0  0  0
 19 20  1  0  0  0  0
 21 22  1  0  0  0  0
 22 32  1  0  0  0  0
 23 22  2  0  0  0  0
 23 25  1  0  0  0  0
 24 23  1  0  0  0  0
 25 26  2  0  0  0  0
 26 27  1  0  0  0  0
 27 28  1  0  0  0  0
 28 29  2  0  0  0  0
 30 29  1  0  0  0  0
 31 30  2  0  0  0  0
 32 31  1  0  0  0  0
 32 27  2  0  0  0  0
M  END
>  <minimizedAffinity>
-5.76546526

$$$$

 OpenBabel03272501193D

 32 35  0  0  0  0  0  0  0  0999 V2000
   38.3250   25.2250   32.9410 C   0  0  0  0  0  0  0  0  0  0  0  0
   38.4490   26.6020   33.0840 C   0  0  0  0  0  0  0  0  0  0  0  0
   39.3350   26.9880   34.0880 C   0  0  0  0  0  0  0  0  0  0  0  0
   40.0280   26.0570   34.8680 C   0  0  0  0  0  0  0  0  0  0  0  0
   39.8320   24.6990   34.6410 C   0  0  0  0  0  0  0  0  0  0  0  0
   38.9590   24.2730   33.6530 C   0  0  0  0  0  0  0  0  0  0  0  0
   39.5180   28.0370   34.2980 H   0  0  0  0  0  0  0  0  0  0  0  0
   40.7040   26.4160   35.6350 H   0  0  0  0  0  0  0  0  0  0  0  0
   40.3610   23.9630   35.2380 H   0  0  0  0  0  0  0  0  0  0  0  0
   36.5170   28.0780   32.7510 C   0  0  0  0  0  0  0  0  0  0  0  0
   37.7500   27.5580   32.2960 C   0  0  0  0  0  0  0  0  0  0  0  0
   38.2250   28.0180   31.0760 C   0  0  0  0  0  0  0  0  0  0  0  0
   37.4860   28.9380   30.3900 N   0  0  0  0  0  0  0  0  0  0  0  0
   36.3010   29.4080   30.8720 C   0  0  0  0  0  0  0  0  0  0  0  0
   35.8150   28.9780   32.0560 N   0  0  0  0  0  0  0  0  0  0  0  0
   36.1430   27.7150   33.7080 H   0  0  0  0  0  0  0  0  0  0  0  0
   39.1660   27.6510   30.6830 H   0  0  0  0  0  0  0  0  0  0  0  0
   35.7230   30.1380   30.3180 H   0  0  0  0  0  0  0  0  0  0  0  0
   37.4430   24.7410   31.9450 O   0  0  0  0  0  0  0  0  0  0  0  0
   36.7730   24.0150   32.1350 H   0  0  0  0  0  0  0  0  0  0  0  0
   38.8020   22.9230   33.4710 O   0  0  0  0  0  0  0  0  0  0  0  0
   37.8330   22.2420   34.1500 C   0  0  0  0  0  0  0  0  0  0  0  0
   37.5270   22.1560   35.4910 C   0  0  0  0  0  0  0  0  0  0  0  0
   38.1760   22.7490   36.1160 H   0  0  0  0  0  0  0  0  0  0  0  0
   36.4860   21.3940   35.9740 C   0  0  0  0  0  3  0  0  0  0  0  0
   35.6790   20.6620   35.1290 C   0  0  0  0  0  3  0  0  0  0  0  0
   35.9660   20.7320   33.7670 C   0  0  0  0  0  0  0  0  0  0  0  0
   35.1310   19.9840   32.9720 C   0  0  0  0  0  3  0  0  0  0  0  0
   35.3300   19.9840   31.6220 C   0  0  0  0  0  3  0  0  0  0  0  0
   36.3560   20.7280   31.0870 C   0  0  0  0  0  3  0  0  0  0  0  0
   37.1680   21.4610   31.9110 C   0  0  0  0  0  3  0  0  0  0  0  0
   37.0190   21.5030   33.2830 C   0  0  0  0  0  0  0  0  0  0  0  0
  1  2  2  0  0  0  0
  1  6  1  0  0  0  0
  2  3  1  0  0  0  0
  3  7  1  0  0  0  0
  3  4  2  0  0  0  0
  4  8  1  0  0  0  0
  5  4  1  0  0  0  0
  5  9  1  0  0  0  0
  6  5  2  0  0  0  0
 10 16  1  0  0  0  0
 11 10  1  0  0  0  0
 11  2  1  0  0  0  0
 12 11  2  0  0  0  0
 13 14  2  0  0  0  0
 13 12  1  0  0  0  0
 14 15  1  0  0  0  0
 15 10  2  0  0  0  0
 17 12  1  0  0  0  0
 18 14  1  0  0  0  0
 19 20  1  0  0  0  0
 19  1  1  0  0  0  0
 21  6  1  0  0  0  0
 21 22  1  0  0  0  0
 22 23  1  0  0  0  0
 23 25  2  0  0  0  0
 23 24  1  0  0  0  0
 26 25  1  0  0  0  0
 27 26  2  0  0  0  0
 28 27  1  0  0  0  0
 29 28  2  0  0  0  0
 30 29  1  0  0  0  0
 30 31  2  0  0  0  0
 31 32  1  0  0  0  0
 32 27  1  0  0  0  0
 32 22  2  0  0  0  0
M  END
>  <minimizedAffinity>
-5.75201702

$$$$

 OpenBabel03272501193D

 32 35  0  0  0  0  0  0  0  0999 V2000
   35.6360   29.1220   31.8130 C   0  0  0  0  0  0  0  0  0  0  0  0
   36.3230   28.1720   31.0670 C   0  0  0  0  0  0  0  0  0  0  0  0
   37.0080   28.7010   29.9740 C   0  0  0  0  0  0  0  0  0  0  0  0
   36.9920   30.0670   29.6760 C   0  0  0  0  0  0  0  0  0  0  0  0
   36.2720   30.9330   30.4900 C   0  0  0  0  0  0  0  0  0  0  0  0
   35.5770   30.4480   31.5860 C   0  0  0  0  0  0  0  0  0  0  0  0
   37.5830   28.0610   29.3130 H   0  0  0  0  0  0  0  0  0  0  0  0
   37.5440   30.4200   28.8120 H   0  0  0  0  0  0  0  0  0  0  0  0
   36.2490   31.9970   30.2720 H   0  0  0  0  0  0  0  0  0  0  0  0
   37.3840   26.2490   32.1610 C   0  0  0  0  0  0  0  0  0  0  0  0
   36.3470   26.7810   31.3610 C   0  0  0  0  0  0  0  0  0  0  0  0
   35.3840   25.8970   30.8950 C   0  0  0  0  0  0  0  0  0  0  0  0
   35.4880   24.5790   31.2300 N   0  0  0  0  0  0  0  0  0  0  0  0
   36.5080   24.1150   32.0040 C   0  0  0  0  0  0  0  0  0  0  0  0
   37.4590   24.9510   32.4710 N   0  0  0  0  0  0  0  0  0  0  0  0
   38.1410   26.9430   32.5260 H   0  0  0  0  0  0  0  0  0  0  0  0
   34.5670   26.2560   30.2780 H   0  0  0  0  0  0  0  0  0  0  0  0
   36.5810   23.0650   32.2630 H   0  0  0  0  0  0  0  0  0  0  0  0
   34.9080   28.6740   32.9420 O   0  0  0  0  0  0  0  0  0  0  0  0
   33.9600   28.9640   33.1140 H   0  0  0  0  0  0  0  0  0  0  0  0
   34.8820   31.3460   32.3560 O   0  0  0  0  0  0  0  0  0  0  0  0
   35.5320   32.1200   33.2730 C   0  0  0  0  0  0  0  0  0  0  0  0
   36.6240   32.9560   33.1730 C   0  0  0  0  0  0  0  0  0  0  0  0
   37.0310   33.0080   32.1750 H   0  0  0  0  0  0  0  0  0  0  0  0
   37.1290   33.6580   34.2440 C   0  0  0  0  0  3  0  0  0  0  0  0
   36.5620   33.5630   35.4980 C   0  0  0  0  0  3  0  0  0  0  0  0
   35.4560   32.7250   35.6270 C   0  0  0  0  0  0  0  0  0  0  0  0
   34.9320   32.6690   36.8960 C   0  0  0  0  0  3  0  0  0  0  0  0
   33.8470   31.8750   37.1270 C   0  0  0  0  0  3  0  0  0  0  0  0
   33.3030   31.1510   36.0910 C   0  0  0  0  0  3  0  0  0  0  0  0
   33.8520   31.2330   34.8400 C   0  0  0  0  0  3  0  0  0  0  0  0
   34.9490   32.0170   34.5410 C   0  0  0  0  0  0  0  0  0  0  0  0
  1 19  1  0  0  0  0
  2 11  1  0  0  0  0
  2  1  2  0  0  0  0
  3  2  1  0  0  0  0
  4  3  2  0  0  0  0
  4  5  1  0  0  0  0
  5  6  2  0  0  0  0
  6  1  1  0  0  0  0
  6 21  1  0  0  0  0
  7  3  1  0  0  0  0
  8  4  1  0  0  0  0
  9  5  1  0  0  0  0
 10 15  1  0  0  0  0
 10 16  1  0  0  0  0
 11 10  2  0  0  0  0
 12 13  2  0  0  0  0
 12 11  1  0  0  0  0
 13 14  1  0  0  0  0
 14 18  1  0  0  0  0
 14 15  2  0  0  0  0
 17 12  1  0  0  0  0
 19 20  1  0  0  0  0
 21 22  1  0  0  0  0
 22 32  1  0  0  0  0
 23 22  2  0  0  0  0
 23 25  1  0  0  0  0
 24 23  1  0  0  0  0
 25 26  2  0  0  0  0
 26 27  1  0  0  0  0
 27 28  1  0  0  0  0
 28 29  2  0  0  0  0
 30 29  1  0  0  0  0
 31 30  2  0  0  0  0
 32 31  1  0  0  0  0
 32 27  2  0  0  0  0
M  END
>  <minimizedAffinity>
-5.73401499

$$$$
