
 OpenBabel03272501303D

 22 24  0  0  0  0  0  0  0  0999 V2000
   37.9820   31.8930   48.1080 C   0  0  0  0  0  0  0  0  0  0  0  0
   37.9590   33.1420   48.3130 O   0  0  0  0  0  0  0  0  0  0  0  0
   38.3790   31.2970   46.8140 C   0  0  0  0  0  0  0  0  0  0  0  0
   39.7490   31.3380   46.5260 C   0  0  0  0  0  0  0  0  0  0  0  0
   40.4470   31.7890   47.2480 H   0  0  0  0  0  0  0  0  0  0  0  0
   40.3250   30.8520   45.3890 C   0  0  0  0  0  3  0  0  0  0  0  0
   39.5080   30.2760   44.4480 C   0  0  0  0  0  3  0  0  0  0  0  0
   38.1550   30.2230   44.7080 C   0  0  0  0  0  0  0  0  0  0  0  0
   37.2420   29.6560   43.8160 C   0  0  0  0  0  3  0  0  0  0  0  0
   35.8870   29.5990   44.0710 C   0  0  0  0  0  3  0  0  0  0  0  0
   35.3790   30.1160   45.2520 C   0  0  0  0  0  3  0  0  0  0  0  0
   36.2430   30.6870   46.1640 C   0  0  0  0  0  3  0  0  0  0  0  0
   37.5850   30.7170   45.8600 C   0  0  0  0  0  0  0  0  0  0  0  0
   37.7060   30.0920   51.3730 C   0  0  0  0  0  0  0  0  0  0  0  0
   38.1000   31.0670   50.4300 C   0  0  0  0  0  0  0  0  0  0  0  0
   37.6150   30.9220   49.1370 C   0  0  0  0  0  0  0  0  0  0  0  0
   36.8000   29.8560   48.8650 N   0  0  0  0  0  0  0  0  0  0  0  0
   36.4510   28.9540   49.7820 C   0  0  0  0  0  0  0  0  0  0  0  0
   36.8930   29.0570   51.0360 N   0  0  0  0  0  0  0  0  0  0  0  0
   38.0840   30.2130   52.3660 H   0  0  0  0  0  0  0  0  0  0  0  0
   38.7320   31.8880   50.6580 H   0  0  0  0  0  0  0  0  0  0  0  0
   35.8100   28.1120   49.5820 H   0  0  0  0  0  0  0  0  0  0  0  0
  1  2  2  0  0  0  0
  1 16  1  0  0  0  0
  3  1  1  0  0  0  0
  4  3  1  0  0  0  0
  4  5  1  0  0  0  0
  6  4  2  0  0  0  0
  7  8  2  0  0  0  0
  7  6  1  0  0  0  0
  8 13  1  0  0  0  0
  9 10  2  0  0  0  0
  9  8  1  0  0  0  0
 10 11  1  0  0  0  0
 11 12  2  0  0  0  0
 13 12  1  0  0  0  0
 13  3  2  0  0  0  0
 14 20  1  0  0  0  0
 15 21  1  0  0  0  0
 15 14  2  0  0  0  0
 16 15  1  0  0  0  0
 17 16  2  0  0  0  0
 17 18  1  0  0  0  0
 18 19  2  0  0  0  0
 19 14  1  0  0  0  0
 22 18  1  0  0  0  0
M  END
>  <minimizedAffinity>
-5.1496315

>  <minimizedRMSD>
1.38112891

$$$$
