
 OpenBabel03272508573D

 42 46  0  0  1  0  0  0  0  0999 V2000
   38.6660   31.5240   43.7720 C   0  0  0  0  0  0  0  0  0  0  0  0
   39.8120   30.7550   43.7010 C   0  0  0  0  0  0  0  0  0  0  0  0
   40.4810   30.7270   42.4930 C   0  0  0  0  0  0  0  0  0  0  0  0
   39.9870   31.4480   41.4430 C   0  0  0  0  0  0  0  0  0  0  0  0
   38.8230   32.2270   41.5190 C   0  0  0  0  0  0  0  0  0  0  0  0
   38.2000   32.2280   42.7130 N   0  0  0  0  0  0  0  0  0  0  0  0
   40.2100   30.1800   44.5290 H   0  0  0  0  0  0  0  0  0  0  0  0
   41.3830   30.1690   42.3110 H   0  0  0  0  0  0  0  0  0  0  0  0
   40.4760   31.4550   40.4840 H   0  0  0  0  0  0  0  0  0  0  0  0
   37.9320   31.5730   45.0520 C   0  0  0  0  0  0  0  0  0  0  0  0
   36.9190   30.8940   45.2430 O   0  0  0  0  0  0  0  0  0  0  0  0
   38.4430   32.4520   46.0830 N   0  0  0  0  0  0  0  0  0  0  0  0
   39.1580   33.1770   45.9110 H   0  0  0  0  0  0  0  0  0  0  0  0
   38.5520   31.4110   48.3420 C   0  0  2  0  0  0  0  0  0  0  0  0
   38.8440   32.8580   48.5200 C   0  0  0  0  0  0  0  0  0  0  0  0
   37.9160   32.2970   47.4230 C   0  0  1  0  0  0  0  0  0  0  0  0
   39.4160   30.7860   48.0330 H   0  0  0  0  0  0  0  0  0  0  0  0
   39.8230   33.2230   48.2200 H   0  0  0  0  0  0  0  0  0  0  0  0
   38.3850   33.3790   49.3800 H   0  0  0  0  0  0  0  0  0  0  0  0
   36.8570   32.5890   47.5830 H   0  0  0  0  0  0  0  0  0  0  0  0
   35.9310   29.2350   49.8320 C   0  0  0  0  0  0  0  0  0  0  0  0
   36.2370   29.3260   51.2170 C   0  0  0  0  0  0  0  0  0  0  0  0
   37.3510   30.1550   51.6280 C   0  0  0  0  0  0  0  0  0  0  0  0
   38.0650   30.8180   50.6690 N   0  0  0  0  0  0  0  0  0  0  0  0
   37.7110   30.6820   49.3630 C   0  0  0  0  0  0  0  0  0  0  0  0
   36.6550   29.9030   48.9060 N   0  0  0  0  0  0  0  0  0  0  0  0
   35.1010   28.6110   49.5980 H   0  0  0  0  0  0  0  0  0  0  0  0
   35.6990   28.8220   51.9770 H   0  0  0  0  0  0  0  0  0  0  0  0
   37.5800   30.2220   52.6730 H   0  0  0  0  0  0  0  0  0  0  0  0
   38.3240   32.9640   40.3720 C   0  0  0  0  0  0  0  0  0  0  0  0
   38.2120   34.2110   40.4480 O   0  0  0  0  0  0  0  0  0  0  0  0
   37.9070   32.4740   39.0710 C   0  0  0  0  0  0  0  0  0  0  0  0
   36.5820   32.0570   38.8970 C   0  0  0  0  0  0  0  0  0  0  0  0
   35.9250   32.1130   39.7750 H   0  0  0  0  0  0  0  0  0  0  0  0
   36.0350   31.5850   37.7230 C   0  0  0  0  0  3  0  0  0  0  0  0
   36.8610   31.5150   36.6200 C   0  0  0  0  0  3  0  0  0  0  0  0
   38.1770   31.9110   36.7320 C   0  0  0  0  0  0  0  0  0  0  0  0
   39.0070   31.8390   35.6350 C   0  0  0  0  0  3  0  0  0  0  0  0
   40.3370   32.2300   35.7360 C   0  0  0  0  0  3  0  0  0  0  0  0
   40.8350   32.7000   36.9540 C   0  0  0  0  0  3  0  0  0  0  0  0
   39.9800   32.7590   38.0280 C   0  0  0  0  0  3  0  0  0  0  0  0
   38.6740   32.3750   37.9310 C   0  0  0  0  0  0  0  0  0  0  0  0
  1 10  1  0  0  0  0
  2  1  1  0  0  0  0
  2  7  1  0  0  0  0
  3  2  2  0  0  0  0
  4  5  2  0  0  0  0
  4  3  1  0  0  0  0
  5  6  1  0  0  0  0
  6  1  2  0  0  0  0
  8  3  1  0  0  0  0
  9  4  1  0  0  0  0
 10 11  2  0  0  0  0
 10 12  1  0  0  0  0
 12 16  1  0  0  0  0
 13 12  1  0  0  0  0
 14 17  1  6  0  0  0
 14 15  1  0  0  0  0
 14 25  1  0  0  0  0
 15 19  1  0  0  0  0
 16 20  1  1  0  0  0
 16 14  1  0  0  0  0
 16 15  1  0  0  0  0
 18 15  1  0  0  0  0
 21 22  1  0  0  0  0
 22 23  2  0  0  0  0
 22 28  1  0  0  0  0
 23 29  1  0  0  0  0
 24 23  1  0  0  0  0
 25 24  2  0  0  0  0
 26 25  1  0  0  0  0
 26 21  2  0  0  0  0
 27 21  1  0  0  0  0
 30 31  2  0  0  0  0
 30  5  1  0  0  0  0
 32 30  1  0  0  0  0
 33 32  1  0  0  0  0
 33 34  1  0  0  0  0
 35 33  2  0  0  0  0
 36 37  2  0  0  0  0
 36 35  1  0  0  0  0
 37 42  1  0  0  0  0
 38 39  2  0  0  0  0
 38 37  1  0  0  0  0
 39 40  1  0  0  0  0
 40 41  2  0  0  0  0
 42 41  1  0  0  0  0
 42 32  2  0  0  0  0
M  END
>  <minimizedAffinity>
-5.40350676

>  <minimizedRMSD>
1.6640228

$$$$
