
 OpenBabel03272507163D

 28 31  0  0  1  0  0  0  0  0999 V2000
   36.2290   30.8180   49.9200 C   0  0  1  0  0  0  0  0  0  0  0  0
   35.3180   29.7350   49.6100 C   0  0  2  0  0  0  0  0  0  0  0  0
   36.6280   29.3890   50.2920 C   0  0  0  0  0  0  0  0  0  0  0  0
   36.0340   31.4520   50.8230 H   0  0  0  0  0  0  0  0  0  0  0  0
   34.3820   29.6440   50.2200 H   0  0  0  0  0  0  0  0  0  0  0  0
   37.4110   28.8750   49.7100 H   0  0  0  0  0  0  0  0  0  0  0  0
   36.5180   29.1020   51.3520 H   0  0  0  0  0  0  0  0  0  0  0  0
   37.1370   31.3960   48.8550 C   0  0  0  0  0  0  0  0  0  0  0  0
   38.0900   32.3190   49.2860 C   0  0  0  0  0  0  0  0  0  0  0  0
   38.8970   32.8550   48.2960 C   0  0  0  0  0  0  0  0  0  0  0  0
   38.7300   32.4720   46.9880 N   0  0  0  0  0  0  0  0  0  0  0  0
   37.7900   31.5710   46.6080 C   0  0  0  0  0  0  0  0  0  0  0  0
   36.9880   31.0310   47.5560 N   0  0  0  0  0  0  0  0  0  0  0  0
   38.1570   32.5670   50.3360 H   0  0  0  0  0  0  0  0  0  0  0  0
   39.6530   33.5750   48.5760 H   0  0  0  0  0  0  0  0  0  0  0  0
   37.7090   31.3120   45.5610 H   0  0  0  0  0  0  0  0  0  0  0  0
   35.2010   29.2820   48.3070 O   0  0  0  0  0  0  0  0  0  0  0  0
   34.1670   28.4600   47.9230 C   0  0  0  0  0  0  0  0  0  0  0  0
   33.8890   27.1440   48.1910 C   0  0  0  0  0  0  0  0  0  0  0  0
   34.5990   26.6470   48.8180 H   0  0  0  0  0  0  0  0  0  0  0  0
   32.7930   26.4750   47.7150 C   0  0  0  0  0  3  0  0  0  0  0  0
   31.8830   27.1000   46.9180 C   0  0  0  0  0  3  0  0  0  0  0  0
   32.1080   28.4260   46.6110 C   0  0  0  0  0  0  0  0  0  0  0  0
   31.1690   29.0280   45.8010 C   0  0  0  0  0  3  0  0  0  0  0  0
   31.3260   30.3510   45.4490 C   0  0  0  0  0  3  0  0  0  0  0  0
   32.4180   31.0560   45.9100 C   0  0  0  0  0  3  0  0  0  0  0  0
   33.3210   30.3990   46.7170 C   0  0  0  0  0  3  0  0  0  0  0  0
   33.2160   29.0800   47.1010 C   0  0  0  0  0  0  0  0  0  0  0  0
  1  3  1  0  0  0  0
  1  4  1  1  0  0  0
  2  1  1  0  0  0  0
  2  5  1  1  0  0  0
  2  3  1  0  0  0  0
  3  7  1  0  0  0  0
  6  3  1  0  0  0  0
  8  9  1  0  0  0  0
  8  1  1  0  0  0  0
  9 14  1  0  0  0  0
 10 15  1  0  0  0  0
 10  9  2  0  0  0  0
 11 10  1  0  0  0  0
 12 11  2  0  0  0  0
 12 13  1  0  0  0  0
 13  8  2  0  0  0  0
 16 12  1  0  0  0  0
 17  2  1  0  0  0  0
 18 19  1  0  0  0  0
 18 17  1  0  0  0  0
 19 20  1  0  0  0  0
 21 19  2  0  0  0  0
 22 21  1  0  0  0  0
 23 22  2  0  0  0  0
 23 28  1  0  0  0  0
 24 23  1  0  0  0  0
 25 24  2  0  0  0  0
 25 26  1  0  0  0  0
 26 27  2  0  0  0  0
 27 28  1  0  0  0  0
 28 18  2  0  0  0  0
M  END
>  <minimizedAffinity>
-5.45291376

>  <minimizedRMSD>
1.79107797

$$$$
