
 OpenBabel03272508293D

 40 44  0  0  1  0  0  0  0  0999 V2000
   37.1350   27.7340   34.6740 C   0  0  2  0  0  0  0  0  0  0  0  0
   38.0510   27.1180   33.6250 C   0  0  2  0  0  0  0  0  0  0  0  0
   37.2850   26.9810   32.5070 O   0  0  0  0  0  0  0  0  0  0  0  0
   36.2500   27.8590   32.5150 C   0  0  0  0  0  0  0  0  0  0  0  0
   36.3580   28.7000   33.7710 C   0  0  1  0  0  0  0  0  0  0  0  0
   36.4400   27.0160   35.1090 H   0  0  0  0  0  0  0  0  0  0  0  0
   38.8640   27.8240   33.4210 H   0  0  0  0  0  0  0  0  0  0  0  0
   35.3050   27.2580   32.6450 H   0  0  0  0  0  0  0  0  0  0  0  0
   36.1270   28.4630   31.6110 H   0  0  0  0  0  0  0  0  0  0  0  0
   37.0260   29.5590   33.5230 H   0  0  0  0  0  0  0  0  0  0  0  0
   37.8670   25.1250   35.2680 C   0  0  1  0  0  0  0  0  0  0  0  0
   38.5070   25.7980   34.1630 C   0  0  1  0  0  0  0  0  0  0  0  0
   37.7740   24.5350   33.8520 C   0  0  0  0  0  0  0  0  0  0  0  0
   36.8300   25.2980   35.6530 H   0  0  0  0  0  0  0  0  0  0  0  0
   39.6330   25.7240   34.1510 H   0  0  0  0  0  0  0  0  0  0  0  0
   36.8290   24.5900   33.2980 H   0  0  0  0  0  0  0  0  0  0  0  0
   38.3830   23.6290   33.6170 H   0  0  0  0  0  0  0  0  0  0  0  0
   38.6660   24.2250   36.1990 C   0  0  0  0  0  0  0  0  0  0  0  0
   38.1340   24.0010   37.4710 C   0  0  0  0  0  0  0  0  0  0  0  0
   38.9140   23.1950   38.2950 C   0  0  0  0  0  0  0  0  0  0  0  0
   40.0920   22.6810   37.8700 N   0  0  0  0  0  0  0  0  0  0  0  0
   40.5710   22.9260   36.6180 C   0  0  0  0  0  0  0  0  0  0  0  0
   39.8480   23.7080   35.7730 N   0  0  0  0  0  0  0  0  0  0  0  0
   37.1880   24.4400   37.7530 H   0  0  0  0  0  0  0  0  0  0  0  0
   38.5410   22.9940   39.2940 H   0  0  0  0  0  0  0  0  0  0  0  0
   41.5130   22.4950   36.3230 H   0  0  0  0  0  0  0  0  0  0  0  0
   37.7980   28.4050   35.6770 O   0  0  0  0  0  0  0  0  0  0  0  0
   38.7000   28.0590   35.8820 H   0  0  0  0  0  0  0  0  0  0  0  0
   35.1530   29.0510   34.3180 O   0  0  0  0  0  0  0  0  0  0  0  0
   34.8900   30.1330   35.1090 C   0  0  0  0  0  0  0  0  0  0  0  0
   35.7550   31.1270   35.5040 C   0  0  0  0  0  0  0  0  0  0  0  0
   36.7690   31.0360   35.1400 H   0  0  0  0  0  0  0  0  0  0  0  0
   35.3830   32.1820   36.3100 C   0  0  0  0  0  3  0  0  0  0  0  0
   34.0760   32.2550   36.7490 C   0  0  0  0  0  3  0  0  0  0  0  0
   33.1490   31.2840   36.3870 C   0  0  0  0  0  0  0  0  0  0  0  0
   31.8470   31.3670   36.8320 C   0  0  0  0  0  3  0  0  0  0  0  0
   30.9470   30.3960   36.4630 C   0  0  0  0  0  3  0  0  0  0  0  0
   31.3080   29.3390   35.6600 C   0  0  0  0  0  3  0  0  0  0  0  0
   32.6250   29.3020   35.2410 C   0  0  0  0  0  3  0  0  0  0  0  0
   33.5840   30.2540   35.5800 C   0  0  0  0  0  0  0  0  0  0  0  0
  1  6  1  1  0  0  0
  1 27  1  0  0  0  0
  2  7  1  6  0  0  0
  2 12  1  0  0  0  0
  2  1  1  0  0  0  0
  3  4  1  0  0  0  0
  3  2  1  0  0  0  0
  4  8  1  0  0  0  0
  4  5  1  0  0  0  0
  5 10  1  6  0  0  0
  5 29  1  0  0  0  0
  5  1  1  0  0  0  0
  9  4  1  0  0  0  0
 11 14  1  1  0  0  0
 11 18  1  0  0  0  0
 12 15  1  6  0  0  0
 12 11  1  0  0  0  0
 13 12  1  0  0  0  0
 13 11  1  0  0  0  0
 16 13  1  0  0  0  0
 17 13  1  0  0  0  0
 18 19  1  0  0  0  0
 19 24  1  0  0  0  0
 19 20  2  0  0  0  0
 20 25  1  0  0  0  0
 21 20  1  0  0  0  0
 22 21  2  0  0  0  0
 23 18  2  0  0  0  0
 23 22  1  0  0  0  0
 26 22  1  0  0  0  0
 27 28  1  0  0  0  0
 29 30  1  0  0  0  0
 30 31  2  0  0  0  0
 30 40  1  0  0  0  0
 31 33  1  0  0  0  0
 32 31  1  0  0  0  0
 33 34  2  0  0  0  0
 35 34  1  0  0  0  0
 35 36  1  0  0  0  0
 37 36  2  0  0  0  0
 38 37  1  0  0  0  0
 39 40  1  0  0  0  0
 39 38  2  0  0  0  0
 40 35  2  0  0  0  0
M  END
>  <minimizedAffinity>
-6.39974165

$$$$

 OpenBabel03272508293D

 40 44  0  0  1  0  0  0  0  0999 V2000
   38.7820   24.8720   32.5730 C   0  0  2  0  0  0  0  0  0  0  0  0
   37.7440   25.3760   31.5790 C   0  0  2  0  0  0  0  0  0  0  0  0
   36.9850   26.2730   32.2670 O   0  0  0  0  0  0  0  0  0  0  0  0
   37.6740   26.7900   33.3170 C   0  0  0  0  0  0  0  0  0  0  0  0
   39.0640   26.1890   33.3070 C   0  0  1  0  0  0  0  0  0  0  0  0
   38.3780   24.1480   33.2810 H   0  0  0  0  0  0  0  0  0  0  0  0
   38.2690   25.8940   30.7680 H   0  0  0  0  0  0  0  0  0  0  0  0
   37.1900   26.3970   34.2560 H   0  0  0  0  0  0  0  0  0  0  0  0
   37.6850   27.8810   33.3920 H   0  0  0  0  0  0  0  0  0  0  0  0
   39.6850   26.8330   32.6410 H   0  0  0  0  0  0  0  0  0  0  0  0
   36.2480   23.3140   32.0440 C   0  0  1  0  0  0  0  0  0  0  0  0
   36.9510   24.1880   31.1340 C   0  0  1  0  0  0  0  0  0  0  0  0
   35.4590   24.2220   31.0860 C   0  0  0  0  0  0  0  0  0  0  0  0
   35.9370   23.5450   33.0930 H   0  0  0  0  0  0  0  0  0  0  0  0
   37.4540   23.6660   30.2700 H   0  0  0  0  0  0  0  0  0  0  0  0
   34.9330   25.1020   31.4770 H   0  0  0  0  0  0  0  0  0  0  0  0
   34.9590   23.7510   30.2060 H   0  0  0  0  0  0  0  0  0  0  0  0
   36.0500   21.8430   31.7130 C   0  0  0  0  0  0  0  0  0  0  0  0
   34.9930   21.1890   32.3490 C   0  0  0  0  0  0  0  0  0  0  0  0
   34.8700   19.8380   32.0350 C   0  0  0  0  0  0  0  0  0  0  0  0
   35.7220   19.2320   31.1760 N   0  0  0  0  0  0  0  0  0  0  0  0
   36.7400   19.9130   30.5770 C   0  0  0  0  0  0  0  0  0  0  0  0
   36.9050   21.2340   30.8490 N   0  0  0  0  0  0  0  0  0  0  0  0
   34.3450   21.7270   33.0270 H   0  0  0  0  0  0  0  0  0  0  0  0
   34.0620   19.2890   32.5070 H   0  0  0  0  0  0  0  0  0  0  0  0
   37.3940   19.3890   29.9000 H   0  0  0  0  0  0  0  0  0  0  0  0
   39.9210   24.3660   31.9900 O   0  0  0  0  0  0  0  0  0  0  0  0
   39.7880   23.9660   31.0970 H   0  0  0  0  0  0  0  0  0  0  0  0
   39.5920   25.9750   34.5520 O   0  0  0  0  0  0  0  0  0  0  0  0
   39.1470   25.0940   35.4970 C   0  0  0  0  0  0  0  0  0  0  0  0
   37.9180   25.0600   36.1140 C   0  0  0  0  0  0  0  0  0  0  0  0
   37.2200   25.8280   35.8100 H   0  0  0  0  0  0  0  0  0  0  0  0
   37.5690   24.1200   37.0600 C   0  0  0  0  0  3  0  0  0  0  0  0
   38.4940   23.1580   37.4150 C   0  0  0  0  0  3  0  0  0  0  0  0
   39.7540   23.1340   36.8300 C   0  0  0  0  0  0  0  0  0  0  0  0
   40.6700   22.1690   37.1920 C   0  0  0  0  0  3  0  0  0  0  0  0
   41.9110   22.1640   36.6020 C   0  0  0  0  0  3  0  0  0  0  0  0
   42.2690   23.0970   35.6570 C   0  0  0  0  0  3  0  0  0  0  0  0
   41.3150   24.0430   35.3290 C   0  0  0  0  0  3  0  0  0  0  0  0
   40.0420   24.1020   35.8900 C   0  0  0  0  0  0  0  0  0  0  0  0
  1  6  1  1  0  0  0
  1  5  1  0  0  0  0
  2  7  1  6  0  0  0
  2  3  1  0  0  0  0
  2  1  1  0  0  0  0
  3  4  1  0  0  0  0
  4  9  1  0  0  0  0
  4  8  1  0  0  0  0
  5 10  1  6  0  0  0
  5  4  1  0  0  0  0
  5 29  1  0  0  0  0
 11 14  1  1  0  0  0
 12 15  1  6  0  0  0
 12  2  1  0  0  0  0
 12 11  1  0  0  0  0
 13 12  1  0  0  0  0
 13 16  1  0  0  0  0
 13 11  1  0  0  0  0
 17 13  1  0  0  0  0
 18 11  1  0  0  0  0
 18 19  1  0  0  0  0
 19 24  1  0  0  0  0
 20 19  2  0  0  0  0
 20 25  1  0  0  0  0
 21 20  1  0  0  0  0
 22 23  1  0  0  0  0
 22 21  2  0  0  0  0
 23 18  2  0  0  0  0
 26 22  1  0  0  0  0
 27  1  1  0  0  0  0
 28 27  1  0  0  0  0
 29 30  1  0  0  0  0
 30 40  2  0  0  0  0
 30 31  1  0  0  0  0
 31 33  2  0  0  0  0
 32 31  1  0  0  0  0
 33 34  1  0  0  0  0
 35 36  1  0  0  0  0
 35 34  2  0  0  0  0
 37 36  2  0  0  0  0
 38 37  1  0  0  0  0
 39 38  2  0  0  0  0
 39 40  1  0  0  0  0
 40 35  1  0  0  0  0
M  END
>  <minimizedAffinity>
-6.18562937

$$$$

 OpenBabel03272508293D

 40 44  0  0  1  0  0  0  0  0999 V2000
   37.0070   25.7820   33.1600 C   0  0  2  0  0  0  0  0  0  0  0  0
   37.4870   27.2100   32.9390 C   0  0  2  0  0  0  0  0  0  0  0  0
   38.3420   27.4720   33.9660 O   0  0  0  0  0  0  0  0  0  0  0  0
   38.8680   26.3230   34.4660 C   0  0  0  0  0  0  0  0  0  0  0  0
   38.3220   25.1660   33.6550 C   0  0  1  0  0  0  0  0  0  0  0  0
   36.2570   25.7000   33.9460 H   0  0  0  0  0  0  0  0  0  0  0  0
   38.0390   27.2450   31.9930 H   0  0  0  0  0  0  0  0  0  0  0  0
   38.4400   26.1850   35.5000 H   0  0  0  0  0  0  0  0  0  0  0  0
   39.9570   26.2970   34.5600 H   0  0  0  0  0  0  0  0  0  0  0  0
   39.0010   25.0430   32.7790 H   0  0  0  0  0  0  0  0  0  0  0  0
   36.2110   29.3250   33.7200 C   0  0  1  0  0  0  0  0  0  0  0  0
   36.2760   28.0890   32.9750 C   0  0  1  0  0  0  0  0  0  0  0  0
   36.2090   29.3540   32.1830 C   0  0  0  0  0  0  0  0  0  0  0  0
   37.0740   29.9350   34.0880 H   0  0  0  0  0  0  0  0  0  0  0  0
   35.3300   27.4750   32.9940 H   0  0  0  0  0  0  0  0  0  0  0  0
   37.1010   29.6920   31.6420 H   0  0  0  0  0  0  0  0  0  0  0  0
   35.2490   29.5860   31.6630 H   0  0  0  0  0  0  0  0  0  0  0  0
   34.8920   29.8190   34.2930 C   0  0  0  0  0  0  0  0  0  0  0  0
   34.9550   30.8800   35.1990 C   0  0  0  0  0  0  0  0  0  0  0  0
   33.7250   31.2790   35.7150 C   0  0  0  0  0  0  0  0  0  0  0  0
   32.5740   30.6670   35.3510 N   0  0  0  0  0  0  0  0  0  0  0  0
   32.5620   29.6350   34.4620 C   0  0  0  0  0  0  0  0  0  0  0  0
   33.7350   29.2060   33.9260 N   0  0  0  0  0  0  0  0  0  0  0  0
   35.9050   31.3280   35.4510 H   0  0  0  0  0  0  0  0  0  0  0  0
   33.7250   32.1000   36.4240 H   0  0  0  0  0  0  0  0  0  0  0  0
   31.6210   29.1780   34.2000 H   0  0  0  0  0  0  0  0  0  0  0  0
   36.5560   25.1570   32.0200 O   0  0  0  0  0  0  0  0  0  0  0  0
   36.1660   25.7600   31.3420 H   0  0  0  0  0  0  0  0  0  0  0  0
   38.1080   24.0240   34.3800 O   0  0  0  0  0  0  0  0  0  0  0  0
   38.3610   23.8310   35.7080 C   0  0  0  0  0  0  0  0  0  0  0  0
   37.6420   24.2960   36.7850 C   0  0  0  0  0  0  0  0  0  0  0  0
   36.7690   24.8870   36.5460 H   0  0  0  0  0  0  0  0  0  0  0  0
   37.9860   24.0410   38.0960 C   0  0  0  0  0  3  0  0  0  0  0  0
   39.1100   23.2800   38.3520 C   0  0  0  0  0  3  0  0  0  0  0  0
   39.8820   22.7780   37.3100 C   0  0  0  0  0  0  0  0  0  0  0  0
   41.0020   22.0200   37.5780 C   0  0  0  0  0  3  0  0  0  0  0  0
   41.7510   21.5340   36.5330 C   0  0  0  0  0  3  0  0  0  0  0  0
   41.4150   21.7840   35.2220 C   0  0  0  0  0  3  0  0  0  0  0  0
   40.2840   22.5490   35.0080 C   0  0  0  0  0  3  0  0  0  0  0  0
   39.4840   23.0700   36.0220 C   0  0  0  0  0  0  0  0  0  0  0  0
  1  5  1  0  0  0  0
  1  6  1  1  0  0  0
  2  7  1  6  0  0  0
  2 12  1  0  0  0  0
  2  1  1  0  0  0  0
  2  3  1  0  0  0  0
  3  4  1  0  0  0  0
  4  9  1  0  0  0  0
  4  8  1  0  0  0  0
  5 10  1  6  0  0  0
  5 29  1  0  0  0  0
  5  4  1  0  0  0  0
 11 14  1  1  0  0  0
 11 18  1  0  0  0  0
 12 15  1  1  0  0  0
 12 11  1  0  0  0  0
 13 12  1  0  0  0  0
 13 11  1  0  0  0  0
 16 13  1  0  0  0  0
 17 13  1  0  0  0  0
 18 19  1  0  0  0  0
 19 24  1  0  0  0  0
 19 20  2  0  0  0  0
 20 25  1  0  0  0  0
 21 20  1  0  0  0  0
 22 21  2  0  0  0  0
 23 18  2  0  0  0  0
 23 22  1  0  0  0  0
 26 22  1  0  0  0  0
 27  1  1  0  0  0  0
 28 27  1  0  0  0  0
 29 30  1  0  0  0  0
 30 40  2  0  0  0  0
 30 31  1  0  0  0  0
 31 33  2  0  0  0  0
 32 31  1  0  0  0  0
 33 34  1  0  0  0  0
 35 36  1  0  0  0  0
 35 34  2  0  0  0  0
 37 36  2  0  0  0  0
 38 37  1  0  0  0  0
 39 38  2  0  0  0  0
 39 40  1  0  0  0  0
 40 35  1  0  0  0  0
M  END
>  <minimizedAffinity>
-6.15271473

$$$$

 OpenBabel03272508293D

 40 44  0  0  1  0  0  0  0  0999 V2000
   35.1640   29.8510   33.7100 C   0  0  2  0  0  0  0  0  0  0  0  0
   35.1010   31.3170   33.3020 C   0  0  2  0  0  0  0  0  0  0  0  0
   36.0200   31.4590   32.3070 O   0  0  0  0  0  0  0  0  0  0  0  0
   36.2510   30.2750   31.6850 C   0  0  0  0  0  0  0  0  0  0  0  0
   35.3580   29.2290   32.3210 C   0  0  1  0  0  0  0  0  0  0  0  0
   36.0290   29.6170   34.3300 H   0  0  0  0  0  0  0  0  0  0  0  0
   34.1010   31.5200   32.9020 H   0  0  0  0  0  0  0  0  0  0  0  0
   37.3020   29.9620   31.9480 H   0  0  0  0  0  0  0  0  0  0  0  0
   36.1790   30.2840   30.5940 H   0  0  0  0  0  0  0  0  0  0  0  0
   34.3840   29.2710   31.7810 H   0  0  0  0  0  0  0  0  0  0  0  0
   34.5740   32.2700   35.6520 C   0  0  1  0  0  0  0  0  0  0  0  0
   35.4500   32.1240   34.5130 C   0  0  1  0  0  0  0  0  0  0  0  0
   35.8810   31.4720   35.7860 C   0  0  0  0  0  0  0  0  0  0  0  0
   33.7190   31.6060   35.9330 H   0  0  0  0  0  0  0  0  0  0  0  0
   36.0160   33.0570   34.2280 H   0  0  0  0  0  0  0  0  0  0  0  0
   35.8470   30.3780   35.8620 H   0  0  0  0  0  0  0  0  0  0  0  0
   36.7280   31.9380   36.3440 H   0  0  0  0  0  0  0  0  0  0  0  0
   34.6000   33.5350   36.4960 C   0  0  0  0  0  0  0  0  0  0  0  0
   35.3050   34.6250   35.9800 C   0  0  0  0  0  0  0  0  0  0  0  0
   35.3230   35.7490   36.8010 C   0  0  0  0  0  0  0  0  0  0  0  0
   34.6970   35.7570   38.0010 N   0  0  0  0  0  0  0  0  0  0  0  0
   34.0200   34.6690   38.4630 C   0  0  0  0  0  0  0  0  0  0  0  0
   33.9710   33.5450   37.7010 N   0  0  0  0  0  0  0  0  0  0  0  0
   35.7860   34.5570   35.0150 H   0  0  0  0  0  0  0  0  0  0  0  0
   35.8600   36.6200   36.4410 H   0  0  0  0  0  0  0  0  0  0  0  0
   33.5360   34.7210   39.4250 H   0  0  0  0  0  0  0  0  0  0  0  0
   34.0180   29.3850   34.3140 O   0  0  0  0  0  0  0  0  0  0  0  0
   33.5080   30.0650   34.8170 H   0  0  0  0  0  0  0  0  0  0  0  0
   35.9190   27.9820   32.3960 O   0  0  0  0  0  0  0  0  0  0  0  0
   37.2260   27.6510   32.1720 C   0  0  0  0  0  0  0  0  0  0  0  0
   37.8790   27.5410   30.9660 C   0  0  0  0  0  0  0  0  0  0  0  0
   37.2800   27.7450   30.0890 H   0  0  0  0  0  0  0  0  0  0  0  0
   39.2100   27.1990   30.8510 C   0  0  0  0  0  3  0  0  0  0  0  0
   39.9330   26.9480   32.0010 C   0  0  0  0  0  3  0  0  0  0  0  0
   39.3350   27.0410   33.2520 C   0  0  0  0  0  0  0  0  0  0  0  0
   40.0680   26.7890   34.3930 C   0  0  0  0  0  3  0  0  0  0  0  0
   39.4560   26.8850   35.6200 C   0  0  0  0  0  3  0  0  0  0  0  0
   38.1290   27.2260   35.7450 C   0  0  0  0  0  3  0  0  0  0  0  0
   37.4400   27.4690   34.5710 C   0  0  0  0  0  3  0  0  0  0  0  0
   38.0010   27.3880   33.2990 C   0  0  0  0  0  0  0  0  0  0  0  0
  1 27  1  0  0  0  0
  1  6  1  1  0  0  0
  2  7  1  6  0  0  0
  2  1  1  0  0  0  0
  2 12  1  0  0  0  0
  3  2  1  0  0  0  0
  4  8  1  0  0  0  0
  4  3  1  0  0  0  0
  4  5  1  0  0  0  0
  5 10  1  6  0  0  0
  5 29  1  0  0  0  0
  5  1  1  0  0  0  0
  9  4  1  0  0  0  0
 11 13  1  0  0  0  0
 11 14  1  6  0  0  0
 11 18  1  0  0  0  0
 12 15  1  6  0  0  0
 12 11  1  0  0  0  0
 12 13  1  0  0  0  0
 13 16  1  0  0  0  0
 13 17  1  0  0  0  0
 18 23  1  0  0  0  0
 19 18  2  0  0  0  0
 19 20  1  0  0  0  0
 20 21  2  0  0  0  0
 21 22  1  0  0  0  0
 22 26  1  0  0  0  0
 23 22  2  0  0  0  0
 24 19  1  0  0  0  0
 25 20  1  0  0  0  0
 27 28  1  0  0  0  0
 30 29  1  0  0  0  0
 30 40  1  0  0  0  0
 31 30  2  0  0  0  0
 32 31  1  0  0  0  0
 33 31  1  0  0  0  0
 33 34  2  0  0  0  0
 34 35  1  0  0  0  0
 35 40  2  0  0  0  0
 35 36  1  0  0  0  0
 36 37  2  0  0  0  0
 37 38  1  0  0  0  0
 39 38  2  0  0  0  0
 40 39  1  0  0  0  0
M  END
>  <minimizedAffinity>
-6.11431551

$$$$

 OpenBabel03272508293D

 40 44  0  0  1  0  0  0  0  0999 V2000
   36.1010   27.0370   31.1750 C   0  0  2  0  0  0  0  0  0  0  0  0
   36.5330   27.9920   32.2800 C   0  0  2  0  0  0  0  0  0  0  0  0
   36.7760   27.2080   33.3670 O   0  0  0  0  0  0  0  0  0  0  0  0
   37.0750   25.9380   32.9930 C   0  0  0  0  0  0  0  0  0  0  0  0
   37.0590   25.8780   31.4790 C   0  0  1  0  0  0  0  0  0  0  0  0
   35.0740   26.6900   31.2880 H   0  0  0  0  0  0  0  0  0  0  0  0
   37.4650   28.4780   31.9690 H   0  0  0  0  0  0  0  0  0  0  0  0
   36.2170   25.2850   33.3210 H   0  0  0  0  0  0  0  0  0  0  0  0
   37.9870   25.5140   33.4230 H   0  0  0  0  0  0  0  0  0  0  0  0
   38.0790   26.1700   31.1380 H   0  0  0  0  0  0  0  0  0  0  0  0
   34.9090   29.2930   33.8220 C   0  0  1  0  0  0  0  0  0  0  0  0
   35.3960   28.9390   32.5100 C   0  0  1  0  0  0  0  0  0  0  0  0
   35.6310   30.3420   32.9610 C   0  0  0  0  0  0  0  0  0  0  0  0
   35.4550   29.1900   34.7930 H   0  0  0  0  0  0  0  0  0  0  0  0
   34.5940   28.8060   31.7270 H   0  0  0  0  0  0  0  0  0  0  0  0
   36.6500   30.6550   33.2220 H   0  0  0  0  0  0  0  0  0  0  0  0
   35.0190   31.1460   32.4870 H   0  0  0  0  0  0  0  0  0  0  0  0
   33.4470   29.6540   34.0380 C   0  0  0  0  0  0  0  0  0  0  0  0
   33.1220   30.2830   35.2420 C   0  0  0  0  0  0  0  0  0  0  0  0
   31.7690   30.5680   35.4040 C   0  0  0  0  0  0  0  0  0  0  0  0
   30.8620   30.2500   34.4520 N   0  0  0  0  0  0  0  0  0  0  0  0
   31.2260   29.6370   33.2910 C   0  0  0  0  0  0  0  0  0  0  0  0
   32.5340   29.3360   33.0810 N   0  0  0  0  0  0  0  0  0  0  0  0
   33.8930   30.5110   35.9640 H   0  0  0  0  0  0  0  0  0  0  0  0
   31.4700   31.0560   36.3260 H   0  0  0  0  0  0  0  0  0  0  0  0
   30.4680   29.4040   32.5610 H   0  0  0  0  0  0  0  0  0  0  0  0
   36.2900   27.5260   29.9030 O   0  0  0  0  0  0  0  0  0  0  0  0
   36.2300   28.5080   29.8220 H   0  0  0  0  0  0  0  0  0  0  0  0
   36.6010   24.6930   30.9680 O   0  0  0  0  0  0  0  0  0  0  0  0
   37.3360   23.5730   30.6970 C   0  0  0  0  0  0  0  0  0  0  0  0
   38.5450   23.4880   30.0460 C   0  0  0  0  0  0  0  0  0  0  0  0
   38.9620   24.4270   29.7090 H   0  0  0  0  0  0  0  0  0  0  0  0
   39.2060   22.2980   29.8240 C   0  0  0  0  0  3  0  0  0  0  0  0
   38.6330   21.1250   30.2740 C   0  0  0  0  0  3  0  0  0  0  0  0
   37.4130   21.1400   30.9400 C   0  0  0  0  0  0  0  0  0  0  0  0
   36.8500   19.9620   31.3860 C   0  0  0  0  0  3  0  0  0  0  0  0
   35.6430   19.9990   32.0410 C   0  0  0  0  0  3  0  0  0  0  0  0
   34.9760   21.1800   32.2670 C   0  0  0  0  0  3  0  0  0  0  0  0
   35.5820   22.3330   31.8010 C   0  0  0  0  0  3  0  0  0  0  0  0
   36.8020   22.3620   31.1310 C   0  0  0  0  0  0  0  0  0  0  0  0
  1  6  1  1  0  0  0
  1  5  1  0  0  0  0
  1  2  1  0  0  0  0
  2  7  1  6  0  0  0
  2 12  1  0  0  0  0
  2  3  1  0  0  0  0
  4  8  1  0  0  0  0
  4  3  1  0  0  0  0
  4  9  1  0  0  0  0
  5 10  1  6  0  0  0
  5  4  1  0  0  0  0
 11 18  1  0  0  0  0
 11 14  1  1  0  0  0
 12 15  1  6  0  0  0
 12 13  1  0  0  0  0
 12 11  1  0  0  0  0
 13 16  1  0  0  0  0
 13 11  1  0  0  0  0
 17 13  1  0  0  0  0
 18 19  1  0  0  0  0
 19 20  2  0  0  0  0
 19 24  1  0  0  0  0
 20 25  1  0  0  0  0
 21 20  1  0  0  0  0
 22 21  2  0  0  0  0
 23 22  1  0  0  0  0
 23 18  2  0  0  0  0
 26 22  1  0  0  0  0
 27  1  1  0  0  0  0
 28 27  1  0  0  0  0
 29  5  1  0  0  0  0
 30 29  1  0  0  0  0
 30 40  1  0  0  0  0
 31 30  2  0  0  0  0
 32 31  1  0  0  0  0
 33 31  1  0  0  0  0
 33 34  2  0  0  0  0
 34 35  1  0  0  0  0
 35 40  2  0  0  0  0
 35 36  1  0  0  0  0
 36 37  2  0  0  0  0
 37 38  1  0  0  0  0
 39 38  2  0  0  0  0
 40 39  1  0  0  0  0
M  END
>  <minimizedAffinity>
-6.10358906

$$$$

 OpenBabel03272508293D

 40 44  0  0  1  0  0  0  0  0999 V2000
   36.7000   27.6090   33.4160 C   0  0  2  0  0  0  0  0  0  0  0  0
   37.5200   27.3400   32.1620 C   0  0  2  0  0  0  0  0  0  0  0  0
   36.7750   27.8220   31.1280 O   0  0  0  0  0  0  0  0  0  0  0  0
   35.9160   28.7830   31.5540 C   0  0  0  0  0  0  0  0  0  0  0  0
   36.1370   28.9850   33.0390 C   0  0  1  0  0  0  0  0  0  0  0  0
   35.8740   26.9090   33.5450 H   0  0  0  0  0  0  0  0  0  0  0  0
   38.4530   27.9110   32.2320 H   0  0  0  0  0  0  0  0  0  0  0  0
   34.8750   28.3590   31.4680 H   0  0  0  0  0  0  0  0  0  0  0  0
   35.9300   29.7220   30.9930 H   0  0  0  0  0  0  0  0  0  0  0  0
   36.9560   29.7360   33.1400 H   0  0  0  0  0  0  0  0  0  0  0  0
   36.6800   24.9430   31.6540 C   0  0  1  0  0  0  0  0  0  0  0  0
   37.7150   25.8590   32.0750 C   0  0  1  0  0  0  0  0  0  0  0  0
   37.9100   25.1750   30.7620 C   0  0  0  0  0  0  0  0  0  0  0  0
   35.7600   25.1910   31.0670 H   0  0  0  0  0  0  0  0  0  0  0  0
   38.3620   25.4860   32.9210 H   0  0  0  0  0  0  0  0  0  0  0  0
   37.8130   25.7580   29.8380 H   0  0  0  0  0  0  0  0  0  0  0  0
   38.6810   24.3690   30.7100 H   0  0  0  0  0  0  0  0  0  0  0  0
   36.6350   23.5210   32.1900 C   0  0  0  0  0  0  0  0  0  0  0  0
   35.6760   22.6680   31.6390 C   0  0  0  0  0  0  0  0  0  0  0  0
   35.6570   21.3850   32.1810 C   0  0  0  0  0  0  0  0  0  0  0  0
   36.5120   21.0210   33.1640 N   0  0  0  0  0  0  0  0  0  0  0  0
   37.4320   21.8890   33.6710 C   0  0  0  0  0  0  0  0  0  0  0  0
   37.4940   23.1530   33.1770 N   0  0  0  0  0  0  0  0  0  0  0  0
   35.0200   23.0170   30.8540 H   0  0  0  0  0  0  0  0  0  0  0  0
   34.9270   20.6880   31.7830 H   0  0  0  0  0  0  0  0  0  0  0  0
   38.0930   21.5540   34.4540 H   0  0  0  0  0  0  0  0  0  0  0  0
   37.4430   27.6690   34.5730 O   0  0  0  0  0  0  0  0  0  0  0  0
   38.2610   27.1160   34.5690 H   0  0  0  0  0  0  0  0  0  0  0  0
   34.9990   29.2800   33.7420 O   0  0  0  0  0  0  0  0  0  0  0  0
   34.8680   30.1850   34.7570 C   0  0  0  0  0  0  0  0  0  0  0  0
   35.8240   31.0300   35.2700 C   0  0  0  0  0  0  0  0  0  0  0  0
   36.8000   30.9680   34.8090 H   0  0  0  0  0  0  0  0  0  0  0  0
   35.5840   31.9120   36.3030 C   0  0  0  0  0  3  0  0  0  0  0  0
   34.3210   31.9550   36.8590 C   0  0  0  0  0  3  0  0  0  0  0  0
   33.3070   31.1280   36.3880 C   0  0  0  0  0  0  0  0  0  0  0  0
   32.0500   31.1810   36.9520 C   0  0  0  0  0  3  0  0  0  0  0  0
   31.0630   30.3540   36.4720 C   0  0  0  0  0  3  0  0  0  0  0  0
   31.2930   29.4710   35.4420 C   0  0  0  0  0  3  0  0  0  0  0  0
   32.5700   29.4580   34.9120 C   0  0  0  0  0  3  0  0  0  0  0  0
   33.6120   30.2690   35.3530 C   0  0  0  0  0  0  0  0  0  0  0  0
  1  6  1  1  0  0  0
  1 27  1  0  0  0  0
  2  7  1  1  0  0  0
  2  1  1  0  0  0  0
  3  4  1  0  0  0  0
  3  2  1  0  0  0  0
  4  5  1  0  0  0  0
  5 10  1  1  0  0  0
  5  1  1  0  0  0  0
  5 29  1  0  0  0  0
  8  4  1  0  0  0  0
  9  4  1  0  0  0  0
 11 14  1  6  0  0  0
 11 12  1  0  0  0  0
 11 18  1  0  0  0  0
 12  2  1  0  0  0  0
 12 15  1  1  0  0  0
 13 11  1  0  0  0  0
 13 12  1  0  0  0  0
 16 13  1  0  0  0  0
 17 13  1  0  0  0  0
 18 23  1  0  0  0  0
 19 20  1  0  0  0  0
 19 18  2  0  0  0  0
 20 21  2  0  0  0  0
 21 22  1  0  0  0  0
 22 26  1  0  0  0  0
 23 22  2  0  0  0  0
 24 19  1  0  0  0  0
 25 20  1  0  0  0  0
 28 27  1  0  0  0  0
 29 30  1  0  0  0  0
 30 31  2  0  0  0  0
 30 40  1  0  0  0  0
 31 33  1  0  0  0  0
 32 31  1  0  0  0  0
 33 34  2  0  0  0  0
 35 34  1  0  0  0  0
 35 36  1  0  0  0  0
 37 36  2  0  0  0  0
 38 37  1  0  0  0  0
 39 40  1  0  0  0  0
 39 38  2  0  0  0  0
 40 35  2  0  0  0  0
M  END
>  <minimizedAffinity>
-6.07627106

$$$$

 OpenBabel03272508293D

 40 44  0  0  1  0  0  0  0  0999 V2000
   36.6690   25.9070   32.5540 C   0  0  2  0  0  0  0  0  0  0  0  0
   37.1860   27.2050   31.9500 C   0  0  2  0  0  0  0  0  0  0  0  0
   38.2690   27.5510   32.7000 O   0  0  0  0  0  0  0  0  0  0  0  0
   38.8120   26.4620   33.3020 C   0  0  0  0  0  0  0  0  0  0  0  0
   38.0140   25.2450   32.8780 C   0  0  1  0  0  0  0  0  0  0  0  0
   36.1130   26.0570   33.4790 H   0  0  0  0  0  0  0  0  0  0  0  0
   37.5090   27.0020   30.9220 H   0  0  0  0  0  0  0  0  0  0  0  0
   38.6220   26.5660   34.4090 H   0  0  0  0  0  0  0  0  0  0  0  0
   39.8890   26.3280   33.1700 H   0  0  0  0  0  0  0  0  0  0  0  0
   38.4660   24.8860   31.9240 H   0  0  0  0  0  0  0  0  0  0  0  0
   35.8760   29.0450   33.2160 C   0  0  1  0  0  0  0  0  0  0  0  0
   36.0810   28.2090   32.0570 C   0  0  1  0  0  0  0  0  0  0  0  0
   36.3380   29.6700   31.8900 C   0  0  0  0  0  0  0  0  0  0  0  0
   36.6250   29.2930   34.0090 H   0  0  0  0  0  0  0  0  0  0  0  0
   35.1350   27.8220   31.5780 H   0  0  0  0  0  0  0  0  0  0  0  0
   37.3720   30.0200   31.7820 H   0  0  0  0  0  0  0  0  0  0  0  0
   35.5970   30.2600   31.2990 H   0  0  0  0  0  0  0  0  0  0  0  0
   34.4800   29.5130   33.6000 C   0  0  0  0  0  0  0  0  0  0  0  0
   34.3720   30.3020   34.7480 C   0  0  0  0  0  0  0  0  0  0  0  0
   33.0720   30.6820   35.0730 C   0  0  0  0  0  0  0  0  0  0  0  0
   32.0160   30.3020   34.3180 N   0  0  0  0  0  0  0  0  0  0  0  0
   32.1700   29.5310   33.2050 C   0  0  0  0  0  0  0  0  0  0  0  0
   33.4180   29.1320   32.8420 N   0  0  0  0  0  0  0  0  0  0  0  0
   35.2540   30.5720   35.3100 H   0  0  0  0  0  0  0  0  0  0  0  0
   32.9400   31.2950   35.9580 H   0  0  0  0  0  0  0  0  0  0  0  0
   31.3000   29.2530   32.6340 H   0  0  0  0  0  0  0  0  0  0  0  0
   35.9270   25.1380   31.6860 O   0  0  0  0  0  0  0  0  0  0  0  0
   35.4370   25.6470   30.9960 H   0  0  0  0  0  0  0  0  0  0  0  0
   37.8900   24.2880   33.8500 O   0  0  0  0  0  0  0  0  0  0  0  0
   38.8940   23.5580   34.4210 C   0  0  0  0  0  0  0  0  0  0  0  0
   39.8960   22.8560   33.7930 C   0  0  0  0  0  0  0  0  0  0  0  0
   39.8860   22.8900   32.7120 H   0  0  0  0  0  0  0  0  0  0  0  0
   40.8670   22.1480   34.4700 C   0  0  0  0  0  3  0  0  0  0  0  0
   40.8390   22.1350   35.8500 C   0  0  0  0  0  3  0  0  0  0  0  0
   39.8540   22.8230   36.5480 C   0  0  0  0  0  0  0  0  0  0  0  0
   39.8360   22.8030   37.9270 C   0  0  0  0  0  3  0  0  0  0  0  0
   38.8520   23.4900   38.5980 C   0  0  0  0  0  3  0  0  0  0  0  0
   37.8800   24.2000   37.9310 C   0  0  0  0  0  3  0  0  0  0  0  0
   37.9420   24.1880   36.5500 C   0  0  0  0  0  3  0  0  0  0  0  0
   38.9120   23.5120   35.8130 C   0  0  0  0  0  0  0  0  0  0  0  0
  1  5  1  0  0  0  0
  1  6  1  1  0  0  0
  2  7  1  6  0  0  0
  2 12  1  0  0  0  0
  2  1  1  0  0  0  0
  2  3  1  0  0  0  0
  3  4  1  0  0  0  0
  4  8  1  0  0  0  0
  5 10  1  6  0  0  0
  5  4  1  0  0  0  0
  5 29  1  0  0  0  0
  9  4  1  0  0  0  0
 11 18  1  0  0  0  0
 11 14  1  1  0  0  0
 12 15  1  6  0  0  0
 12 11  1  0  0  0  0
 13 12  1  0  0  0  0
 13 11  1  0  0  0  0
 16 13  1  0  0  0  0
 17 13  1  0  0  0  0
 18 19  1  0  0  0  0
 19 20  2  0  0  0  0
 19 24  1  0  0  0  0
 20 25  1  0  0  0  0
 21 20  1  0  0  0  0
 22 21  2  0  0  0  0
 23 22  1  0  0  0  0
 23 18  2  0  0  0  0
 26 22  1  0  0  0  0
 27  1  1  0  0  0  0
 28 27  1  0  0  0  0
 29 30  1  0  0  0  0
 30 40  1  0  0  0  0
 31 30  2  0  0  0  0
 31 33  1  0  0  0  0
 32 31  1  0  0  0  0
 33 34  2  0  0  0  0
 34 35  1  0  0  0  0
 35 36  1  0  0  0  0
 36 37  2  0  0  0  0
 38 37  1  0  0  0  0
 39 38  2  0  0  0  0
 40 35  2  0  0  0  0
 40 39  1  0  0  0  0
M  END
>  <minimizedAffinity>
-6.01717091

$$$$

 OpenBabel03272508293D

 40 44  0  0  1  0  0  0  0  0999 V2000
   35.5540   28.8910   31.9360 C   0  0  2  0  0  0  0  0  0  0  0  0
   35.3670   30.2960   31.3800 C   0  0  2  0  0  0  0  0  0  0  0  0
   36.5600   30.6270   30.8130 O   0  0  0  0  0  0  0  0  0  0  0  0
   37.2570   29.5160   30.4630 C   0  0  0  0  0  0  0  0  0  0  0  0
   36.4160   28.3050   30.8100 C   0  0  1  0  0  0  0  0  0  0  0  0
   36.1230   28.8720   32.8660 H   0  0  0  0  0  0  0  0  0  0  0  0
   34.5960   30.2580   30.6010 H   0  0  0  0  0  0  0  0  0  0  0  0
   38.1520   29.4570   31.1470 H   0  0  0  0  0  0  0  0  0  0  0  0
   37.6330   29.4900   29.4360 H   0  0  0  0  0  0  0  0  0  0  0  0
   35.7570   28.1130   29.9300 H   0  0  0  0  0  0  0  0  0  0  0  0
   35.5880   31.0210   33.8560 C   0  0  1  0  0  0  0  0  0  0  0  0
   35.0250   31.1830   32.5360 C   0  0  1  0  0  0  0  0  0  0  0  0
   35.9630   32.2450   33.0060 C   0  0  0  0  0  0  0  0  0  0  0  0
   36.5250   30.4720   34.1260 H   0  0  0  0  0  0  0  0  0  0  0  0
   33.9340   31.4680   32.5180 H   0  0  0  0  0  0  0  0  0  0  0  0
   36.9610   32.3120   32.5550 H   0  0  0  0  0  0  0  0  0  0  0  0
   35.5250   33.2340   33.2840 H   0  0  0  0  0  0  0  0  0  0  0  0
   34.7960   31.4180   35.0930 C   0  0  0  0  0  0  0  0  0  0  0  0
   35.4910   32.0960   36.0970 C   0  0  0  0  0  0  0  0  0  0  0  0
   34.7310   32.4130   37.2190 C   0  0  0  0  0  0  0  0  0  0  0  0
   33.4230   32.0790   37.3040 N   0  0  0  0  0  0  0  0  0  0  0  0
   32.7860   31.4170   36.2970 C   0  0  0  0  0  0  0  0  0  0  0  0
   33.4810   31.0840   35.1780 N   0  0  0  0  0  0  0  0  0  0  0  0
   36.5380   32.3350   35.9720 H   0  0  0  0  0  0  0  0  0  0  0  0
   35.2300   32.9400   38.0260 H   0  0  0  0  0  0  0  0  0  0  0  0
   31.7420   31.1720   36.4080 H   0  0  0  0  0  0  0  0  0  0  0  0
   34.3830   28.1860   32.0920 O   0  0  0  0  0  0  0  0  0  0  0  0
   33.5870   28.7400   32.2790 H   0  0  0  0  0  0  0  0  0  0  0  0
   37.1380   27.2210   31.2320 O   0  0  0  0  0  0  0  0  0  0  0  0
   38.4190   27.2180   31.7060 C   0  0  0  0  0  0  0  0  0  0  0  0
   39.5900   27.3190   30.9910 C   0  0  0  0  0  0  0  0  0  0  0  0
   39.4770   27.4140   29.9200 H   0  0  0  0  0  0  0  0  0  0  0  0
   40.8400   27.3060   31.5730 C   0  0  0  0  0  3  0  0  0  0  0  0
   40.9320   27.1840   32.9450 C   0  0  0  0  0  3  0  0  0  0  0  0
   39.7890   27.0780   33.7290 C   0  0  0  0  0  0  0  0  0  0  0  0
   39.8940   26.9560   35.0990 C   0  0  0  0  0  3  0  0  0  0  0  0
   38.7510   26.8520   35.8540 C   0  0  0  0  0  3  0  0  0  0  0  0
   37.5000   26.8640   35.2830 C   0  0  0  0  0  3  0  0  0  0  0  0
   37.4490   26.9880   33.9060 C   0  0  0  0  0  3  0  0  0  0  0  0
   38.5690   27.0970   33.0860 C   0  0  0  0  0  0  0  0  0  0  0  0
  1 27  1  0  0  0  0
  1  6  1  1  0  0  0
  2  7  1  6  0  0  0
  2  1  1  0  0  0  0
  2 12  1  0  0  0  0
  3  2  1  0  0  0  0
  4  5  1  0  0  0  0
  4  3  1  0  0  0  0
  4  8  1  0  0  0  0
  5 10  1  6  0  0  0
  5 29  1  0  0  0  0
  5  1  1  0  0  0  0
  9  4  1  0  0  0  0
 11 14  1  1  0  0  0
 11 18  1  0  0  0  0
 12 15  1  1  0  0  0
 12 13  1  0  0  0  0
 12 11  1  0  0  0  0
 13 17  1  0  0  0  0
 13 11  1  0  0  0  0
 16 13  1  0  0  0  0
 18 23  2  0  0  0  0
 18 19  1  0  0  0  0
 19 20  2  0  0  0  0
 20 21  1  0  0  0  0
 20 25  1  0  0  0  0
 22 26  1  0  0  0  0
 22 21  2  0  0  0  0
 23 22  1  0  0  0  0
 24 19  1  0  0  0  0
 27 28  1  0  0  0  0
 29 30  1  0  0  0  0
 30 40  1  0  0  0  0
 31 33  1  0  0  0  0
 31 30  2  0  0  0  0
 32 31  1  0  0  0  0
 33 34  2  0  0  0  0
 34 35  1  0  0  0  0
 35 36  1  0  0  0  0
 36 37  2  0  0  0  0
 38 37  1  0  0  0  0
 39 38  2  0  0  0  0
 40 35  2  0  0  0  0
 40 39  1  0  0  0  0
M  END
>  <minimizedAffinity>
-5.9454627

$$$$

 OpenBabel03272508293D

 40 44  0  0  1  0  0  0  0  0999 V2000
   37.7850   26.9990   32.1720 C   0  0  2  0  0  0  0  0  0  0  0  0
   37.9610   25.5160   32.4660 C   0  0  2  0  0  0  0  0  0  0  0  0
   36.7170   24.9720   32.3610 O   0  0  0  0  0  0  0  0  0  0  0  0
   35.9210   25.7280   31.5620 C   0  0  0  0  0  0  0  0  0  0  0  0
   36.7410   26.8950   31.0520 C   0  0  1  0  0  0  0  0  0  0  0  0
   37.3560   27.5530   33.0080 H   0  0  0  0  0  0  0  0  0  0  0  0
   38.6090   25.0870   31.6930 H   0  0  0  0  0  0  0  0  0  0  0  0
   35.1330   26.1910   32.2220 H   0  0  0  0  0  0  0  0  0  0  0  0
   35.4000   25.1950   30.7620 H   0  0  0  0  0  0  0  0  0  0  0  0
   37.2560   26.5420   30.1270 H   0  0  0  0  0  0  0  0  0  0  0  0
   39.0540   24.1860   34.4010 C   0  0  1  0  0  0  0  0  0  0  0  0
   38.5100   25.4070   33.8540 C   0  0  1  0  0  0  0  0  0  0  0  0
   39.9810   25.3770   34.1090 C   0  0  0  0  0  0  0  0  0  0  0  0
   39.4230   23.2980   33.8290 H   0  0  0  0  0  0  0  0  0  0  0  0
   37.9020   26.0210   34.5790 H   0  0  0  0  0  0  0  0  0  0  0  0
   40.6690   25.3380   33.2560 H   0  0  0  0  0  0  0  0  0  0  0  0
   40.3670   25.9680   34.9740 H   0  0  0  0  0  0  0  0  0  0  0  0
   38.9670   23.8950   35.8910 C   0  0  0  0  0  0  0  0  0  0  0  0
   37.9490   24.5340   36.6010 C   0  0  0  0  0  0  0  0  0  0  0  0
   37.9270   24.2570   37.9660 C   0  0  0  0  0  0  0  0  0  0  0  0
   38.8340   23.4280   38.5320 N   0  0  0  0  0  0  0  0  0  0  0  0
   39.8110   22.8250   37.7980 C   0  0  0  0  0  0  0  0  0  0  0  0
   39.8770   23.0610   36.4610 N   0  0  0  0  0  0  0  0  0  0  0  0
   37.2540   25.1870   36.0920 H   0  0  0  0  0  0  0  0  0  0  0  0
   37.1530   24.7330   38.5580 H   0  0  0  0  0  0  0  0  0  0  0  0
   40.5110   22.1720   38.2920 H   0  0  0  0  0  0  0  0  0  0  0  0
   38.9290   27.6280   31.7360 O   0  0  0  0  0  0  0  0  0  0  0  0
   39.7710   27.2400   32.0780 H   0  0  0  0  0  0  0  0  0  0  0  0
   36.0340   28.0580   30.9050 O   0  0  0  0  0  0  0  0  0  0  0  0
   35.8000   29.0070   31.8600 C   0  0  0  0  0  0  0  0  0  0  0  0
   35.1510   28.8580   33.0640 C   0  0  0  0  0  0  0  0  0  0  0  0
   34.7830   27.8640   33.2780 H   0  0  0  0  0  0  0  0  0  0  0  0
   34.9690   29.8900   33.9610 C   0  0  0  0  0  3  0  0  0  0  0  0
   35.4570   31.1410   33.6430 C   0  0  0  0  0  3  0  0  0  0  0  0
   36.1230   31.3610   32.4420 C   0  0  0  0  0  0  0  0  0  0  0  0
   36.6070   32.6160   32.1360 C   0  0  0  0  0  3  0  0  0  0  0  0
   37.2610   32.8110   30.9430 C   0  0  0  0  0  3  0  0  0  0  0  0
   37.4480   31.7890   30.0420 C   0  0  0  0  0  3  0  0  0  0  0  0
   36.9440   30.5510   30.3970 C   0  0  0  0  0  3  0  0  0  0  0  0
   36.2730   30.2880   31.5880 C   0  0  0  0  0  0  0  0  0  0  0  0
  1  2  1  0  0  0  0
  1  6  1  1  0  0  0
  2  7  1  6  0  0  0
  2 12  1  0  0  0  0
  3  2  1  0  0  0  0
  4  8  1  0  0  0  0
  4  3  1  0  0  0  0
  5 10  1  6  0  0  0
  5  4  1  0  0  0  0
  5  1  1  0  0  0  0
  9  4  1  0  0  0  0
 11 14  1  6  0  0  0
 11 18  1  0  0  0  0
 12 13  1  0  0  0  0
 12 11  1  0  0  0  0
 12 15  1  1  0  0  0
 13 11  1  0  0  0  0
 13 17  1  0  0  0  0
 16 13  1  0  0  0  0
 18 23  2  0  0  0  0
 18 19  1  0  0  0  0
 19 20  2  0  0  0  0
 20 21  1  0  0  0  0
 20 25  1  0  0  0  0
 22 26  1  0  0  0  0
 22 21  2  0  0  0  0
 23 22  1  0  0  0  0
 24 19  1  0  0  0  0
 27 28  1  0  0  0  0
 27  1  1  0  0  0  0
 29  5  1  0  0  0  0
 29 30  1  0  0  0  0
 30 31  1  0  0  0  0
 31 32  1  0  0  0  0
 31 33  2  0  0  0  0
 34 33  1  0  0  0  0
 35 34  2  0  0  0  0
 36 35  1  0  0  0  0
 37 36  2  0  0  0  0
 38 39  2  0  0  0  0
 38 37  1  0  0  0  0
 39 40  1  0  0  0  0
 40 30  2  0  0  0  0
 40 35  1  0  0  0  0
M  END
>  <minimizedAffinity>
-5.8588686

$$$$
