
 OpenBabel03272506253D

 34 37  0  0  0  0  0  0  0  0999 V2000
   34.0660   28.5700   45.4220 C   0  0  0  0  0  0  0  0  0  0  0  0
   34.1880   28.0420   44.1520 C   0  0  0  0  0  0  0  0  0  0  0  0
   35.0710   28.4780   43.1850 C   0  0  0  0  0  0  0  0  0  0  0  0
   35.9220   29.5500   43.5180 C   0  0  0  0  0  0  0  0  0  0  0  0
   35.8140   30.0950   44.7950 C   0  0  0  0  0  0  0  0  0  0  0  0
   34.9160   29.6280   45.7280 C   0  0  0  0  0  0  0  0  0  0  0  0
   33.5560   27.2110   43.8390 H   0  0  0  0  0  0  0  0  0  0  0  0
   35.1180   28.0200   42.2050 H   0  0  0  0  0  0  0  0  0  0  0  0
   36.6360   29.9330   42.7970 H   0  0  0  0  0  0  0  0  0  0  0  0
   36.4450   30.9120   45.0800 H   0  0  0  0  0  0  0  0  0  0  0  0
   33.4700   26.8250   47.0040 C   0  0  0  0  0  0  0  0  0  0  0  0
   33.0850   27.9790   46.2890 C   0  0  0  0  0  0  0  0  0  0  0  0
   31.7860   28.4490   46.4830 C   0  0  0  0  0  0  0  0  0  0  0  0
   30.9580   27.7890   47.3380 N   0  0  0  0  0  0  0  0  0  0  0  0
   31.3710   26.6690   48.0170 C   0  0  0  0  0  0  0  0  0  0  0  0
   32.6370   26.1910   47.8420 N   0  0  0  0  0  0  0  0  0  0  0  0
   34.4730   26.4370   46.8740 H   0  0  0  0  0  0  0  0  0  0  0  0
   30.5980   26.2530   48.6620 H   0  0  0  0  0  0  0  0  0  0  0  0
   31.2400   29.6600   45.7930 C   0  0  0  0  0  0  0  0  0  0  0  0
   29.8810   29.8050   46.1220 F   0  0  0  0  0  0  0  0  0  0  0  0
   31.8800   30.8240   46.0270 F   0  0  0  0  0  0  0  0  0  0  0  0
   31.2010   29.4190   44.4160 F   0  0  0  0  0  0  0  0  0  0  0  0
   34.7480   30.2970   47.3650 S   0  0  0  0  0  0  0  0  0  0  0  0
   36.2990   30.8000   48.0590 C   0  0  0  0  0  0  0  0  0  0  0  0
   37.2550   31.5310   47.3840 C   0  0  0  0  0  0  0  0  0  0  0  0
   37.0510   31.8200   46.3620 H   0  0  0  0  0  0  0  0  0  0  0  0
   38.4260   31.8520   48.0650 C   0  0  0  0  0  3  0  0  0  0  0  0
   38.6490   31.4650   49.3710 C   0  0  0  0  0  3  0  0  0  0  0  0
   37.6840   30.7290   50.0450 C   0  0  0  0  0  0  0  0  0  0  0  0
   37.9020   30.3390   51.3510 C   0  0  0  0  0  3  0  0  0  0  0  0
   36.9750   29.6180   52.0390 C   0  0  0  0  0  3  0  0  0  0  0  0
   35.7840   29.2720   51.3990 C   0  0  0  0  0  3  0  0  0  0  0  0
   35.5940   29.6760   50.0930 C   0  0  0  0  0  3  0  0  0  0  0  0
   36.5110   30.4070   49.3660 C   0  0  0  0  0  0  0  0  0  0  0  0
  1  6  1  0  0  0  0
  1 12  1  0  0  0  0
  2  1  2  0  0  0  0
  3  4  2  0  0  0  0
  3  2  1  0  0  0  0
  4  5  1  0  0  0  0
  5 10  1  0  0  0  0
  5  6  2  0  0  0  0
  6 23  1  0  0  0  0
  7  2  1  0  0  0  0
  8  3  1  0  0  0  0
  9  4  1  0  0  0  0
 11 16  1  0  0  0  0
 12 13  1  0  0  0  0
 12 11  2  0  0  0  0
 13 14  2  0  0  0  0
 14 15  1  0  0  0  0
 15 18  1  0  0  0  0
 16 15  2  0  0  0  0
 17 11  1  0  0  0  0
 19 21  1  0  0  0  0
 19 20  1  0  0  0  0
 19 13  1  0  0  0  0
 22 19  1  0  0  0  0
 23 24  1  0  0  0  0
 24 34  1  0  0  0  0
 25 24  2  0  0  0  0
 25 27  1  0  0  0  0
 26 25  1  0  0  0  0
 27 28  2  0  0  0  0
 28 29  1  0  0  0  0
 29 30  1  0  0  0  0
 30 31  2  0  0  0  0
 32 31  1  0  0  0  0
 33 32  2  0  0  0  0
 34 29  2  0  0  0  0
 34 33  1  0  0  0  0
M  END
>  <minimizedAffinity>
-6.00566912

>  <minimizedRMSD>
5.76239586

$$$$
