
 OpenBabel03272503473D

 26 28  0  0  0  0  0  0  0  0999 V2000
   35.5020   30.1940   46.6880 O   0  0  0  0  0  0  0  0  0  0  0  0
   34.1820   29.9800   47.3930 P   0  0  2  0  0  0  0  0  0  0  0  0
   33.1090   31.1200   46.7420 O   0  0  0  0  0  0  0  0  0  0  0  0
   32.4630   30.6920   46.1180 H   0  0  0  0  0  0  0  0  0  0  0  0
   34.3230   30.2230   49.0930 O   0  0  0  0  0  0  0  0  0  0  0  0
   35.5450   30.2480   49.7400 C   0  0  0  0  0  0  0  0  0  0  0  0
   36.0550   29.2300   50.5560 C   0  0  0  0  0  0  0  0  0  0  0  0
   37.3090   29.4100   51.1400 C   0  0  0  0  0  0  0  0  0  0  0  0
   37.9800   30.5680   50.8890 N   0  0  0  0  0  0  0  0  0  0  0  0
   37.4530   31.5340   50.0940 C   0  0  0  0  0  0  0  0  0  0  0  0
   36.2290   31.3830   49.5110 N   0  0  0  0  0  0  0  0  0  0  0  0
   35.4400   28.3730   50.6770 H   0  0  0  0  0  0  0  0  0  0  0  0
   37.6770   28.6130   51.7610 H   0  0  0  0  0  0  0  0  0  0  0  0
   38.0650   32.4230   49.9520 H   0  0  0  0  0  0  0  0  0  0  0  0
   33.5970   28.4060   47.1910 O   0  0  0  0  0  0  0  0  0  0  0  0
   33.8440   27.7450   45.9960 C   0  0  0  0  0  0  0  0  0  0  0  0
   33.9820   28.3060   44.7430 C   0  0  0  0  0  0  0  0  0  0  0  0
   33.8870   29.3740   44.7020 H   0  0  0  0  0  0  0  0  0  0  0  0
   34.2260   27.5190   43.6360 C   0  0  0  0  0  3  0  0  0  0  0  0
   34.3430   26.1280   43.7280 C   0  0  0  0  0  3  0  0  0  0  0  0
   34.2010   25.5920   44.9920 C   0  0  0  0  0  0  0  0  0  0  0  0
   34.3250   24.2000   45.0480 C   0  0  0  0  0  3  0  0  0  0  0  0
   34.1880   23.6240   46.3010 C   0  0  0  0  0  3  0  0  0  0  0  0
   33.9420   24.3410   47.4650 C   0  0  0  0  0  3  0  0  0  0  0  0
   33.8340   25.7090   47.3200 C   0  0  0  0  0  3  0  0  0  0  0  0
   33.9580   26.3600   46.1110 C   0  0  0  0  0  0  0  0  0  0  0  0
  2  1  2  6  0  0  0
  2  5  1  0  0  0  0
  3  2  1  0  0  0  0
  4  3  1  0  0  0  0
  5  6  1  0  0  0  0
  6  7  1  0  0  0  0
  7 12  1  0  0  0  0
  7  8  2  0  0  0  0
  8 13  1  0  0  0  0
  9  8  1  0  0  0  0
 10  9  2  0  0  0  0
 11  6  2  0  0  0  0
 11 10  1  0  0  0  0
 14 10  1  0  0  0  0
 15  2  1  0  0  0  0
 16 26  1  0  0  0  0
 16 15  1  0  0  0  0
 17 16  2  0  0  0  0
 18 17  1  0  0  0  0
 19 20  2  0  0  0  0
 19 17  1  0  0  0  0
 20 21  1  0  0  0  0
 21 22  2  0  0  0  0
 21 26  1  0  0  0  0
 22 23  1  0  0  0  0
 23 24  2  0  0  0  0
 25 24  1  0  0  0  0
 26 25  2  0  0  0  0
M  END
>  <minimizedAffinity>
-4.71012545

>  <minimizedRMSD>
0.643512011

$$$$
