
 OpenBabel03272508283D

 40 44  0  0  1  0  0  0  0  0999 V2000
   33.7480   28.8660   47.1820 C   0  0  2  0  0  0  0  0  0  0  0  0
   34.4360   28.1080   48.3090 C   0  0  2  0  0  0  0  0  0  0  0  0
   33.5160   28.0240   49.3090 O   0  0  0  0  0  0  0  0  0  0  0  0
   32.2540   28.1230   48.8180 C   0  0  0  0  0  0  0  0  0  0  0  0
   32.3450   28.2580   47.3120 C   0  0  1  0  0  0  0  0  0  0  0  0
   33.6890   29.9390   47.3630 H   0  0  0  0  0  0  0  0  0  0  0  0
   34.6730   27.1000   47.9510 H   0  0  0  0  0  0  0  0  0  0  0  0
   31.8350   29.1070   49.1760 H   0  0  0  0  0  0  0  0  0  0  0  0
   31.5550   27.3420   49.1310 H   0  0  0  0  0  0  0  0  0  0  0  0
   32.3760   27.2210   46.9010 H   0  0  0  0  0  0  0  0  0  0  0  0
   35.5770   30.3200   49.0290 C   0  0  1  0  0  0  0  0  0  0  0  0
   35.6340   28.9120   48.7100 C   0  0  1  0  0  0  0  0  0  0  0  0
   35.8750   29.2930   50.1330 C   0  0  0  0  0  0  0  0  0  0  0  0
   34.6710   30.9070   49.3210 H   0  0  0  0  0  0  0  0  0  0  0  0
   36.5470   28.5950   48.1290 H   0  0  0  0  0  0  0  0  0  0  0  0
   35.1090   29.0610   50.8840 H   0  0  0  0  0  0  0  0  0  0  0  0
   36.9200   29.2210   50.5170 H   0  0  0  0  0  0  0  0  0  0  0  0
   36.7710   31.2250   48.7670 C   0  0  0  0  0  0  0  0  0  0  0  0
   37.0330   32.2150   49.7170 C   0  0  0  0  0  0  0  0  0  0  0  0
   38.1180   33.0350   49.4200 C   0  0  0  0  0  0  0  0  0  0  0  0
   38.8450   32.8630   48.2920 N   0  0  0  0  0  0  0  0  0  0  0  0
   38.5520   31.8810   47.3930 C   0  0  0  0  0  0  0  0  0  0  0  0
   37.5020   31.0520   47.6350 N   0  0  0  0  0  0  0  0  0  0  0  0
   36.4150   32.3030   50.6000 H   0  0  0  0  0  0  0  0  0  0  0  0
   38.3580   33.8190   50.1300 H   0  0  0  0  0  0  0  0  0  0  0  0
   39.1590   31.7820   46.5080 H   0  0  0  0  0  0  0  0  0  0  0  0
   34.2840   28.6330   45.9370 O   0  0  0  0  0  0  0  0  0  0  0  0
   35.2480   28.4170   45.9340 H   0  0  0  0  0  0  0  0  0  0  0  0
   31.3870   29.0650   46.7610 O   0  0  0  0  0  0  0  0  0  0  0  0
   30.0490   28.8070   46.6590 C   0  0  0  0  0  0  0  0  0  0  0  0
   29.3330   27.7950   47.2550 C   0  0  0  0  0  0  0  0  0  0  0  0
   29.9030   27.1220   47.8800 H   0  0  0  0  0  0  0  0  0  0  0  0
   27.9740   27.6230   47.0840 C   0  0  0  0  0  3  0  0  0  0  0  0
   27.2900   28.5080   46.2740 C   0  0  0  0  0  3  0  0  0  0  0  0
   27.9530   29.5540   45.6430 C   0  0  0  0  0  0  0  0  0  0  0  0
   27.2570   30.4320   44.8370 C   0  0  0  0  0  3  0  0  0  0  0  0
   27.9330   31.4590   44.2210 C   0  0  0  0  0  3  0  0  0  0  0  0
   29.2870   31.6370   44.3860 C   0  0  0  0  0  3  0  0  0  0  0  0
   29.9370   30.7310   45.2040 C   0  0  0  0  0  3  0  0  0  0  0  0
   29.3110   29.6710   45.8540 C   0  0  0  0  0  0  0  0  0  0  0  0
  1  5  1  0  0  0  0
  1  6  1  1  0  0  0
  1  2  1  0  0  0  0
  2  7  1  6  0  0  0
  2 12  1  0  0  0  0
  2  3  1  0  0  0  0
  4  9  1  0  0  0  0
  4  8  1  0  0  0  0
  4  3  1  0  0  0  0
  5 10  1  6  0  0  0
  5  4  1  0  0  0  0
 11 14  1  1  0  0  0
 11 13  1  0  0  0  0
 12 15  1  6  0  0  0
 12 11  1  0  0  0  0
 12 13  1  0  0  0  0
 13 17  1  0  0  0  0
 13 16  1  0  0  0  0
 18 11  1  0  0  0  0
 18 19  1  0  0  0  0
 19 24  1  0  0  0  0
 20 19  2  0  0  0  0
 20 25  1  0  0  0  0
 21 20  1  0  0  0  0
 22 23  1  0  0  0  0
 22 21  2  0  0  0  0
 23 18  2  0  0  0  0
 26 22  1  0  0  0  0
 27  1  1  0  0  0  0
 28 27  1  0  0  0  0
 29  5  1  0  0  0  0
 30 29  1  0  0  0  0
 30 31  1  0  0  0  0
 31 32  1  0  0  0  0
 33 31  2  0  0  0  0
 34 33  1  0  0  0  0
 35 40  1  0  0  0  0
 35 34  2  0  0  0  0
 36 35  1  0  0  0  0
 37 38  1  0  0  0  0
 37 36  2  0  0  0  0
 38 39  2  0  0  0  0
 39 40  1  0  0  0  0
 40 30  2  0  0  0  0
M  END
>  <minimizedAffinity>
-5.78964138

>  <minimizedRMSD>
1.07619369

$$$$
