
 OpenBabel03272506443D

 34 37  0  0  1  0  0  0  0  0999 V2000
   32.2090   28.2260   47.7020 C   0  0  2  0  0  0  0  0  0  0  0  0
   33.5710   28.1330   48.3710 C   0  0  1  0  0  0  0  0  0  0  0  0
   34.0060   26.8460   48.2600 O   0  0  0  0  0  0  0  0  0  0  0  0
   33.1530   26.1500   47.4320 C   0  0  0  0  0  0  0  0  0  0  0  0
   32.4120   27.2030   46.5900 C   0  0  1  0  0  0  0  0  0  0  0  0
   31.4070   27.9100   48.3870 H   0  0  0  0  0  0  0  0  0  0  0  0
   33.4660   28.5010   49.4080 H   0  0  0  0  0  0  0  0  0  0  0  0
   33.7810   25.5480   46.7410 H   0  0  0  0  0  0  0  0  0  0  0  0
   32.4310   25.5370   47.9960 H   0  0  0  0  0  0  0  0  0  0  0  0
   33.0960   27.6510   45.8700 H   0  0  0  0  0  0  0  0  0  0  0  0
   31.9890   29.5010   47.1870 O   0  0  0  0  0  0  0  0  0  0  0  0
   31.5150   30.0460   47.8600 H   0  0  0  0  0  0  0  0  0  0  0  0
   34.6930   29.1950   47.4080 S   0  0  0  0  0  0  0  0  0  0  0  0
   37.3590   29.4920   50.3190 C   0  0  0  0  0  0  0  0  0  0  0  0
   37.9210   30.7540   50.1800 C   0  0  0  0  0  0  0  0  0  0  0  0
   37.4550   31.5560   49.1370 C   0  0  0  0  0  0  0  0  0  0  0  0
   36.4840   31.0660   48.3150 N   0  0  0  0  0  0  0  0  0  0  0  0
   35.9670   29.8240   48.4930 C   0  0  0  0  0  0  0  0  0  0  0  0
   36.3950   29.0320   49.4870 N   0  0  0  0  0  0  0  0  0  0  0  0
   37.7510   28.9110   51.1390 H   0  0  0  0  0  0  0  0  0  0  0  0
   38.6920   31.1390   50.8350 H   0  0  0  0  0  0  0  0  0  0  0  0
   37.8330   32.5620   48.9450 H   0  0  0  0  0  0  0  0  0  0  0  0
   31.2300   26.6840   46.1330 O   0  0  0  0  0  0  0  0  0  0  0  0
   30.2350   27.4650   45.5710 C   0  0  0  0  0  0  0  0  0  0  0  0
   30.2220   28.2030   44.4090 C   0  0  0  0  0  0  0  0  0  0  0  0
   31.1500   28.1480   43.8620 H   0  0  0  0  0  0  0  0  0  0  0  0
   29.1080   28.9200   44.0320 C   0  0  0  0  0  3  0  0  0  0  0  0
   27.9720   28.9340   44.7870 C   0  0  0  0  0  3  0  0  0  0  0  0
   27.9450   28.2020   45.9680 C   0  0  0  0  0  0  0  0  0  0  0  0
   26.7810   28.2580   46.6770 C   0  0  0  0  0  3  0  0  0  0  0  0
   26.7000   27.5500   47.8570 C   0  0  0  0  0  3  0  0  0  0  0  0
   27.7820   26.8120   48.2880 C   0  0  0  0  0  3  0  0  0  0  0  0
   28.9310   26.7950   47.5300 C   0  0  0  0  0  3  0  0  0  0  0  0
   29.0730   27.4780   46.3470 C   0  0  0  0  0  0  0  0  0  0  0  0
  1  2  1  0  0  0  0
  1  6  1  1  0  0  0
  2  7  1  1  0  0  0
  3  2  1  0  0  0  0
  4  9  1  0  0  0  0
  4  3  1  0  0  0  0
  5 10  1  6  0  0  0
  5  4  1  0  0  0  0
  5  1  1  0  0  0  0
  8  4  1  0  0  0  0
 11  1  1  0  0  0  0
 11 12  1  0  0  0  0
 13  2  1  0  0  0  0
 13 18  1  0  0  0  0
 14 20  1  0  0  0  0
 15 14  1  0  0  0  0
 15 21  1  0  0  0  0
 16 15  2  0  0  0  0
 17 18  2  0  0  0  0
 17 16  1  0  0  0  0
 18 19  1  0  0  0  0
 19 14  2  0  0  0  0
 22 16  1  0  0  0  0
 23  5  1  0  0  0  0
 24 23  1  0  0  0  0
 24 34  1  0  0  0  0
 25 24  2  0  0  0  0
 26 25  1  0  0  0  0
 27 25  1  0  0  0  0
 27 28  2  0  0  0  0
 28 29  1  0  0  0  0
 29 34  2  0  0  0  0
 29 30  1  0  0  0  0
 30 31  2  0  0  0  0
 31 32  1  0  0  0  0
 33 32  2  0  0  0  0
 34 33  1  0  0  0  0
M  END
>  <minimizedAffinity>
-5.04942751

>  <minimizedRMSD>
2.86915827

$$$$
