
 OpenBabel03272503473D

 26 28  0  0  0  0  0  0  0  0999 V2000
   35.3730   29.9340   46.7360 O   0  0  0  0  0  0  0  0  0  0  0  0
   34.1320   29.9830   47.5990 P   0  0  2  0  0  0  0  0  0  0  0  0
   33.0220   30.9620   46.7730 O   0  0  0  0  0  0  0  0  0  0  0  0
   32.3020   30.4180   46.3540 H   0  0  0  0  0  0  0  0  0  0  0  0
   34.4620   30.6610   49.1480 O   0  0  0  0  0  0  0  0  0  0  0  0
   35.6830   30.5090   49.7800 C   0  0  0  0  0  0  0  0  0  0  0  0
   36.0060   29.4960   50.6920 C   0  0  0  0  0  0  0  0  0  0  0  0
   37.2870   29.4810   51.2450 C   0  0  0  0  0  0  0  0  0  0  0  0
   38.1640   30.4540   50.8720 N   0  0  0  0  0  0  0  0  0  0  0  0
   37.8140   31.4220   49.9870 C   0  0  0  0  0  0  0  0  0  0  0  0
   36.5690   31.4590   49.4310 N   0  0  0  0  0  0  0  0  0  0  0  0
   35.2390   28.7920   50.9040 H   0  0  0  0  0  0  0  0  0  0  0  0
   37.5090   28.6930   51.9410 H   0  0  0  0  0  0  0  0  0  0  0  0
   38.5840   32.1550   49.7510 H   0  0  0  0  0  0  0  0  0  0  0  0
   33.4930   28.4440   47.8870 O   0  0  0  0  0  0  0  0  0  0  0  0
   32.4880   27.9660   47.0570 C   0  0  0  0  0  0  0  0  0  0  0  0
   32.5570   27.7570   45.6960 C   0  0  0  0  0  0  0  0  0  0  0  0
   33.4990   27.9920   45.2380 H   0  0  0  0  0  0  0  0  0  0  0  0
   31.4690   27.2740   44.9960 C   0  0  0  0  0  3  0  0  0  0  0  0
   30.2560   26.9770   45.6270 C   0  0  0  0  0  3  0  0  0  0  0  0
   30.2140   27.1960   46.9880 C   0  0  0  0  0  0  0  0  0  0  0  0
   28.9880   26.8890   47.5860 C   0  0  0  0  0  3  0  0  0  0  0  0
   28.9050   27.0960   48.9540 C   0  0  0  0  0  3  0  0  0  0  0  0
   29.9500   27.5780   49.7330 C   0  0  0  0  0  3  0  0  0  0  0  0
   31.1230   27.8550   49.0640 C   0  0  0  0  0  3  0  0  0  0  0  0
   31.2870   27.6780   47.7060 C   0  0  0  0  0  0  0  0  0  0  0  0
  2  1  2  6  0  0  0
  2 15  1  0  0  0  0
  2  5  1  0  0  0  0
  3  2  1  0  0  0  0
  4  3  1  0  0  0  0
  5  6  1  0  0  0  0
  6  7  1  0  0  0  0
  7 12  1  0  0  0  0
  7  8  2  0  0  0  0
  8 13  1  0  0  0  0
  9  8  1  0  0  0  0
 10  9  2  0  0  0  0
 11  6  2  0  0  0  0
 11 10  1  0  0  0  0
 14 10  1  0  0  0  0
 16 26  1  0  0  0  0
 16 15  1  0  0  0  0
 17 16  2  0  0  0  0
 18 17  1  0  0  0  0
 19 20  2  0  0  0  0
 19 17  1  0  0  0  0
 20 21  1  0  0  0  0
 21 22  2  0  0  0  0
 21 26  1  0  0  0  0
 22 23  1  0  0  0  0
 23 24  2  0  0  0  0
 25 24  1  0  0  0  0
 26 25  2  0  0  0  0
M  END
>  <minimizedAffinity>
-5.09184599

>  <minimizedRMSD>
2.02026606

$$$$
