
 OpenBabel03272504573D

 35 38  0  0  1  0  0  0  0  0999 V2000
   36.7700   29.4330   49.9940 C   0  0  1  0  0  0  0  0  0  0  0  0
   36.1510   29.5200   51.2960 C   0  0  0  0  0  0  0  0  0  0  0  0
   35.3060   29.4370   50.0680 C   0  0  2  0  0  0  0  0  0  0  0  0
   37.2090   28.4610   49.5780 H   0  0  0  0  0  0  0  0  0  0  0  0
   36.5910   28.7520   51.9040 H   0  0  0  0  0  0  0  0  0  0  0  0
   36.1850   30.5100   51.7980 H   0  0  0  0  0  0  0  0  0  0  0  0
   34.6210   30.2670   50.0350 H   0  0  0  0  0  0  0  0  0  0  0  0
   37.4130   30.6380   49.3660 C   0  0  0  0  0  0  0  0  0  0  0  0
   37.1260   31.8750   49.9730 C   0  0  0  0  0  0  0  0  0  0  0  0
   37.7250   32.9670   49.3910 C   0  0  0  0  0  0  0  0  0  0  0  0
   38.5260   32.8080   48.3120 N   0  0  0  0  0  0  0  0  0  0  0  0
   38.7830   31.5950   47.7510 C   0  0  0  0  0  0  0  0  0  0  0  0
   38.2040   30.4780   48.3020 N   0  0  0  0  0  0  0  0  0  0  0  0
   39.6270   31.3980   46.6510 N   0  0  0  0  0  0  0  0  0  0  0  0
   36.4980   32.0150   50.8210 H   0  0  0  0  0  0  0  0  0  0  0  0
   37.5690   33.9640   49.7800 H   0  0  0  0  0  0  0  0  0  0  0  0
   39.7770   31.9900   45.7910 H   0  0  0  0  0  0  0  0  0  0  0  0
   40.2390   30.5300   46.6220 H   0  0  0  0  0  0  0  0  0  0  0  0
   34.6910   28.2040   49.8440 O   0  0  0  0  0  0  0  0  0  0  0  0
   33.8320   27.1060   47.6770 O   0  0  0  0  0  0  0  0  0  0  0  0
   33.6330   28.2920   48.5620 P   0  0  1  0  0  0  0  0  0  0  0  0
   32.0090   28.1440   49.1500 O   0  0  0  0  0  0  0  0  0  0  0  0
   31.4500   28.7630   48.5820 H   0  0  0  0  0  0  0  0  0  0  0  0
   33.8050   29.7690   47.7900 O   0  0  0  0  0  0  0  0  0  0  0  0
   34.2760   30.0140   46.5420 C   0  0  0  0  0  0  0  0  0  0  0  0
   35.5960   29.9890   46.1580 C   0  0  0  0  0  0  0  0  0  0  0  0
   36.3440   29.7530   46.9160 H   0  0  0  0  0  0  0  0  0  0  0  0
   35.9230   30.2620   44.8430 C   0  0  0  0  0  0  0  0  0  0  0  0
   34.9540   30.5590   43.9020 C   0  0  0  0  0  0  0  0  0  0  0  0
   33.6320   30.5860   44.2760 C   0  0  0  0  0  0  0  0  0  0  0  0
   32.6580   30.8820   43.3450 C   0  0  0  0  0  0  0  0  0  0  0  0
   31.3230   30.9180   43.6850 C   0  0  0  0  0  0  0  0  0  0  0  0
   30.9680   30.6500   44.9910 C   0  0  0  0  0  0  0  0  0  0  0  0
   31.9370   30.3540   45.9250 C   0  0  0  0  0  0  0  0  0  0  0  0
   33.2950   30.3130   45.5970 C   0  0  0  0  0  0  0  0  0  0  0  0
  1  4  1  6  0  0  0
  1  3  1  0  0  0  0
  1  2  1  0  0  0  0
  2  6  1  0  0  0  0
  2  5  1  0  0  0  0
  3  7  1  6  0  0  0
  3  2  1  0  0  0  0
  8  9  1  0  0  0  0
  8  1  1  0  0  0  0
  9 15  1  0  0  0  0
 10 16  1  0  0  0  0
 10  9  2  0  0  0  0
 11 10  1  0  0  0  0
 12 13  1  0  0  0  0
 12 11  2  0  0  0  0
 13  8  2  0  0  0  0
 14 12  1  0  0  0  0
 17 14  1  0  0  0  0
 18 14  1  0  0  0  0
 19  3  1  0  0  0  0
 21 20  2  6  0  0  0
 21 22  1  0  0  0  0
 21 19  1  0  0  0  0
 23 22  1  0  0  0  0
 24 21  1  0  0  0  0
 25 24  1  0  0  0  0
 26 25  1  0  0  0  0
 26 27  1  0  0  0  0
 28 26  2  0  0  0  0
 29 30  2  0  0  0  0
 29 28  1  0  0  0  0
 30 35  1  0  0  0  0
 31 32  2  0  0  0  0
 31 30  1  0  0  0  0
 32 33  1  0  0  0  0
 33 34  2  0  0  0  0
 35 34  1  0  0  0  0
 35 25  2  0  0  0  0
M  END
>  <minimizedAffinity>
-6.09968996

>  <minimizedRMSD>
3.65434837

$$$$
