
 OpenBabel03262521103D

 26 28  0  0  0  0  0  0  0  0999 V2000
   39.1330   27.2760   33.5420 O   0  0  0  0  0  0  0  0  0  0  0  0
   38.3480   26.8670   34.7620 P   0  0  1  0  0  0  0  0  0  0  0  0
   38.8580   27.7050   36.1570 O   0  0  0  0  0  0  0  0  0  0  0  0
   39.1050   27.0660   36.8660 H   0  0  0  0  0  0  0  0  0  0  0  0
   36.6730   27.2260   34.6170 O   0  0  0  0  0  0  0  0  0  0  0  0
   36.2050   28.3200   33.9140 C   0  0  0  0  0  0  0  0  0  0  0  0
   35.8800   29.5680   34.4860 C   0  0  0  0  0  0  0  0  0  0  0  0
   35.4240   30.5620   33.6260 C   0  0  0  0  0  0  0  0  0  0  0  0
   35.3090   30.2940   32.2950 N   0  0  0  0  0  0  0  0  0  0  0  0
   35.6320   29.0800   31.7870 C   0  0  0  0  0  0  0  0  0  0  0  0
   36.0800   28.0970   32.6030 N   0  0  0  0  0  0  0  0  0  0  0  0
   36.0300   29.6040   35.5380 H   0  0  0  0  0  0  0  0  0  0  0  0
   35.1890   31.4920   34.0980 H   0  0  0  0  0  0  0  0  0  0  0  0
   35.5100   28.9560   30.7180 H   0  0  0  0  0  0  0  0  0  0  0  0
   38.5600   25.2040   34.9700 O   0  0  0  0  0  0  0  0  0  0  0  0
   38.6330   24.5590   36.1980 C   0  0  0  0  0  0  0  0  0  0  0  0
   37.8340   24.7250   37.3100 C   0  0  0  0  0  0  0  0  0  0  0  0
   37.0580   25.4560   37.1840 H   0  0  0  0  0  0  0  0  0  0  0  0
   38.0670   23.9850   38.4470 C   0  0  0  0  0  3  0  0  0  0  0  0
   39.0860   23.0680   38.5170 C   0  0  0  0  0  3  0  0  0  0  0  0
   39.8970   22.8840   37.4210 C   0  0  0  0  0  0  0  0  0  0  0  0
   40.9070   21.9530   37.5350 C   0  0  0  0  0  3  0  0  0  0  0  0
   41.7400   21.7340   36.4730 C   0  0  0  0  0  3  0  0  0  0  0  0
   41.5510   22.4490   35.3070 C   0  0  0  0  0  3  0  0  0  0  0  0
   40.5280   23.3700   35.2370 C   0  0  0  0  0  3  0  0  0  0  0  0
   39.6640   23.6240   36.2830 C   0  0  0  0  0  0  0  0  0  0  0  0
  2  1  2  6  0  0  0
  2 15  1  0  0  0  0
  2  3  1  0  0  0  0
  3  4  1  0  0  0  0
  5  2  1  0  0  0  0
  6  7  1  0  0  0  0
  6  5  1  0  0  0  0
  7 12  1  0  0  0  0
  8 13  1  0  0  0  0
  8  7  2  0  0  0  0
  9  8  1  0  0  0  0
 10  9  2  0  0  0  0
 10 11  1  0  0  0  0
 11  6  2  0  0  0  0
 14 10  1  0  0  0  0
 15 16  1  0  0  0  0
 16 26  2  0  0  0  0
 16 17  1  0  0  0  0
 17 19  2  0  0  0  0
 18 17  1  0  0  0  0
 19 20  1  0  0  0  0
 21 22  1  0  0  0  0
 21 20  2  0  0  0  0
 23 22  2  0  0  0  0
 24 23  1  0  0  0  0
 25 24  2  0  0  0  0
 25 26  1  0  0  0  0
 26 21  1  0  0  0  0
M  END
>  <minimizedAffinity>
-5.81085587

$$$$

 OpenBabel03262521103D

 26 28  0  0  0  0  0  0  0  0999 V2000
   37.1890   27.9760   34.9470 O   0  0  0  0  0  0  0  0  0  0  0  0
   38.0520   26.7420   34.9980 P   0  0  1  0  0  0  0  0  0  0  0  0
   39.5860   27.0670   35.6690 O   0  0  0  0  0  0  0  0  0  0  0  0
   40.2970   26.7820   35.0460 H   0  0  0  0  0  0  0  0  0  0  0  0
   37.3850   25.5120   35.9980 O   0  0  0  0  0  0  0  0  0  0  0  0
   38.1700   24.6190   36.7020 C   0  0  0  0  0  0  0  0  0  0  0  0
   37.9700   24.2580   38.0500 C   0  0  0  0  0  0  0  0  0  0  0  0
   38.8590   23.3400   38.6010 C   0  0  0  0  0  0  0  0  0  0  0  0
   39.8660   22.8400   37.8320 N   0  0  0  0  0  0  0  0  0  0  0  0
   40.0230   23.2150   36.5390 C   0  0  0  0  0  0  0  0  0  0  0  0
   39.1700   24.1050   35.9800 N   0  0  0  0  0  0  0  0  0  0  0  0
   37.1370   24.7420   38.4990 H   0  0  0  0  0  0  0  0  0  0  0  0
   38.6730   23.0930   39.6240 H   0  0  0  0  0  0  0  0  0  0  0  0
   40.8500   22.7670   36.0040 H   0  0  0  0  0  0  0  0  0  0  0  0
   38.2160   26.1680   33.4180 O   0  0  0  0  0  0  0  0  0  0  0  0
   37.1610   25.8990   32.5560 C   0  0  0  0  0  0  0  0  0  0  0  0
   36.3370   26.7860   31.8940 C   0  0  0  0  0  0  0  0  0  0  0  0
   36.5630   27.8180   32.0890 H   0  0  0  0  0  0  0  0  0  0  0  0
   35.3340   26.3210   31.0740 C   0  0  0  0  0  3  0  0  0  0  0  0
   35.1200   24.9790   30.8850 C   0  0  0  0  0  3  0  0  0  0  0  0
   35.9270   24.0730   31.5330 C   0  0  0  0  0  0  0  0  0  0  0  0
   35.6770   22.7360   31.3140 C   0  0  0  0  0  3  0  0  0  0  0  0
   36.4520   21.7970   31.9360 C   0  0  0  0  0  3  0  0  0  0  0  0
   37.4720   22.2090   32.7700 C   0  0  0  0  0  3  0  0  0  0  0  0
   37.6880   23.5570   32.9600 C   0  0  0  0  0  3  0  0  0  0  0  0
   36.9310   24.5390   32.3550 C   0  0  0  0  0  0  0  0  0  0  0  0
  2  1  2  1  0  0  0
  2  3  1  0  0  0  0
  2  5  1  0  0  0  0
  4  3  1  0  0  0  0
  5  6  1  0  0  0  0
  6  7  1  0  0  0  0
  7 12  1  0  0  0  0
  7  8  2  0  0  0  0
  8 13  1  0  0  0  0
  9  8  1  0  0  0  0
 10  9  2  0  0  0  0
 11 10  1  0  0  0  0
 11  6  2  0  0  0  0
 14 10  1  0  0  0  0
 15  2  1  0  0  0  0
 16 15  1  0  0  0  0
 17 18  1  0  0  0  0
 17 16  2  0  0  0  0
 19 17  1  0  0  0  0
 20 19  2  0  0  0  0
 20 21  1  0  0  0  0
 21 26  1  0  0  0  0
 22 21  2  0  0  0  0
 22 23  1  0  0  0  0
 23 24  2  0  0  0  0
 24 25  1  0  0  0  0
 26 16  1  0  0  0  0
 26 25  2  0  0  0  0
M  END
>  <minimizedAffinity>
-5.65829611

$$$$

 OpenBabel03262521103D

 26 28  0  0  0  0  0  0  0  0999 V2000
   40.7330   26.8140   34.8690 O   0  0  0  0  0  0  0  0  0  0  0  0
   39.2270   26.8060   34.8370 P   0  0  1  0  0  0  0  0  0  0  0  0
   38.5600   27.8290   36.0280 O   0  0  0  0  0  0  0  0  0  0  0  0
   37.9310   27.3230   36.5970 H   0  0  0  0  0  0  0  0  0  0  0  0
   38.5960   27.3920   33.3490 O   0  0  0  0  0  0  0  0  0  0  0  0
   37.8770   26.5930   32.4800 C   0  0  0  0  0  0  0  0  0  0  0  0
   36.4790   26.6500   32.3010 C   0  0  0  0  0  0  0  0  0  0  0  0
   35.9190   25.7690   31.3820 C   0  0  0  0  0  0  0  0  0  0  0  0
   36.7270   24.9040   30.7070 N   0  0  0  0  0  0  0  0  0  0  0  0
   38.0670   24.8810   30.9100 C   0  0  0  0  0  0  0  0  0  0  0  0
   38.6350   25.7290   31.7990 N   0  0  0  0  0  0  0  0  0  0  0  0
   36.0040   27.3840   32.9070 H   0  0  0  0  0  0  0  0  0  0  0  0
   34.8580   25.8440   31.2760 H   0  0  0  0  0  0  0  0  0  0  0  0
   38.6300   24.1610   30.3310 H   0  0  0  0  0  0  0  0  0  0  0  0
   38.7200   25.2140   35.0850 O   0  0  0  0  0  0  0  0  0  0  0  0
   38.7730   24.5410   36.2990 C   0  0  0  0  0  0  0  0  0  0  0  0
   37.9830   24.7110   37.4160 C   0  0  0  0  0  0  0  0  0  0  0  0
   37.2320   25.4700   37.3080 H   0  0  0  0  0  0  0  0  0  0  0  0
   38.1930   23.9400   38.5370 C   0  0  0  0  0  3  0  0  0  0  0  0
   39.1810   22.9880   38.5850 C   0  0  0  0  0  3  0  0  0  0  0  0
   39.9840   22.8000   37.4840 C   0  0  0  0  0  0  0  0  0  0  0  0
   40.9620   21.8340   37.5750 C   0  0  0  0  0  3  0  0  0  0  0  0
   41.7850   21.6100   36.5070 C   0  0  0  0  0  3  0  0  0  0  0  0
   41.6180   22.3550   35.3570 C   0  0  0  0  0  3  0  0  0  0  0  0
   40.6260   23.3100   35.3090 C   0  0  0  0  0  3  0  0  0  0  0  0
   39.7730   23.5720   36.3610 C   0  0  0  0  0  0  0  0  0  0  0  0
  2  1  2  1  0  0  0
  2 15  1  0  0  0  0
  2  3  1  0  0  0  0
  3  4  1  0  0  0  0
  5  2  1  0  0  0  0
  6  5  1  0  0  0  0
  7  6  1  0  0  0  0
  7 12  1  0  0  0  0
  8  7  2  0  0  0  0
  9 10  2  0  0  0  0
  9  8  1  0  0  0  0
 10 11  1  0  0  0  0
 11  6  2  0  0  0  0
 13  8  1  0  0  0  0
 14 10  1  0  0  0  0
 15 16  1  0  0  0  0
 16 26  2  0  0  0  0
 16 17  1  0  0  0  0
 17 19  2  0  0  0  0
 18 17  1  0  0  0  0
 19 20  1  0  0  0  0
 21 22  1  0  0  0  0
 21 20  2  0  0  0  0
 23 22  2  0  0  0  0
 24 23  1  0  0  0  0
 25 24  2  0  0  0  0
 25 26  1  0  0  0  0
 26 21  1  0  0  0  0
M  END
>  <minimizedAffinity>
-5.58673429

$$$$

 OpenBabel03262521103D

 26 28  0  0  0  0  0  0  0  0999 V2000
   38.6560   26.8620   35.3310 O   0  0  0  0  0  0  0  0  0  0  0  0
   38.2940   25.9050   34.2250 P   0  0  1  0  0  0  0  0  0  0  0  0
   39.5100   25.8230   33.0310 O   0  0  0  0  0  0  0  0  0  0  0  0
   39.1280   26.0190   32.1430 H   0  0  0  0  0  0  0  0  0  0  0  0
   38.1150   24.2890   34.7850 O   0  0  0  0  0  0  0  0  0  0  0  0
   38.4890   23.8980   36.0570 C   0  0  0  0  0  0  0  0  0  0  0  0
   39.6620   23.1790   36.3670 C   0  0  0  0  0  0  0  0  0  0  0  0
   39.8820   22.8680   37.7050 C   0  0  0  0  0  0  0  0  0  0  0  0
   38.9740   23.2620   38.6410 N   0  0  0  0  0  0  0  0  0  0  0  0
   37.8580   23.9510   38.3000 C   0  0  0  0  0  0  0  0  0  0  0  0
   37.6220   24.2660   37.0040 N   0  0  0  0  0  0  0  0  0  0  0  0
   40.2590   22.9540   35.5160 H   0  0  0  0  0  0  0  0  0  0  0  0
   40.7820   22.3240   37.8980 H   0  0  0  0  0  0  0  0  0  0  0  0
   37.1920   24.2230   39.1090 H   0  0  0  0  0  0  0  0  0  0  0  0
   36.8430   26.4380   33.5430 O   0  0  0  0  0  0  0  0  0  0  0  0
   36.7400   27.3730   32.5220 C   0  0  0  0  0  0  0  0  0  0  0  0
   37.0050   27.2180   31.1770 C   0  0  0  0  0  0  0  0  0  0  0  0
   37.3350   26.2320   30.9090 H   0  0  0  0  0  0  0  0  0  0  0  0
   36.8420   28.2760   30.3120 C   0  0  0  0  0  3  0  0  0  0  0  0
   36.4140   29.5060   30.7460 C   0  0  0  0  0  3  0  0  0  0  0  0
   36.1430   29.6870   32.0830 C   0  0  0  0  0  0  0  0  0  0  0  0
   35.7160   30.9370   32.4750 C   0  0  0  0  0  3  0  0  0  0  0  0
   35.4330   31.1660   33.7920 C   0  0  0  0  0  3  0  0  0  0  0  0
   35.5800   30.1400   34.7040 C   0  0  0  0  0  3  0  0  0  0  0  0
   36.0090   28.9050   34.2680 C   0  0  0  0  0  3  0  0  0  0  0  0
   36.3060   28.6280   32.9490 C   0  0  0  0  0  0  0  0  0  0  0  0
  2  5  1  0  0  0  0
  2  1  2  1  0  0  0
  3  2  1  0  0  0  0
  4  3  1  0  0  0  0
  5  6  1  0  0  0  0
  6  7  2  0  0  0  0
  6 11  1  0  0  0  0
  7  8  1  0  0  0  0
  8 13  1  0  0  0  0
  8  9  2  0  0  0  0
 10  9  1  0  0  0  0
 10 14  1  0  0  0  0
 11 10  2  0  0  0  0
 12  7  1  0  0  0  0
 15  2  1  0  0  0  0
 16 26  1  0  0  0  0
 16 15  1  0  0  0  0
 17 16  2  0  0  0  0
 18 17  1  0  0  0  0
 19 20  2  0  0  0  0
 19 17  1  0  0  0  0
 20 21  1  0  0  0  0
 21 22  2  0  0  0  0
 21 26  1  0  0  0  0
 22 23  1  0  0  0  0
 23 24  2  0  0  0  0
 25 24  1  0  0  0  0
 26 25  2  0  0  0  0
M  END
>  <minimizedAffinity>
-5.3715086

$$$$

 OpenBabel03262521103D

 26 28  0  0  0  0  0  0  0  0999 V2000
   39.3150   21.2490   32.7090 O   0  0  0  0  0  0  0  0  0  0  0  0
   38.9800   22.7140   32.6040 P   0  0  1  0  0  0  0  0  0  0  0  0
   39.3760   23.3490   31.0710 O   0  0  0  0  0  0  0  0  0  0  0  0
   39.9720   24.1290   31.1700 H   0  0  0  0  0  0  0  0  0  0  0  0
   37.2980   23.0200   32.7880 O   0  0  0  0  0  0  0  0  0  0  0  0
   36.6660   24.0880   32.1780 C   0  0  0  0  0  0  0  0  0  0  0  0
   35.5080   23.9890   31.3780 C   0  0  0  0  0  0  0  0  0  0  0  0
   35.0040   25.1700   30.8420 C   0  0  0  0  0  0  0  0  0  0  0  0
   35.6370   26.3470   31.1040 N   0  0  0  0  0  0  0  0  0  0  0  0
   36.7490   26.3970   31.8780 C   0  0  0  0  0  0  0  0  0  0  0  0
   37.2580   25.2620   32.4120 N   0  0  0  0  0  0  0  0  0  0  0  0
   35.1460   22.9950   31.2780 H   0  0  0  0  0  0  0  0  0  0  0  0
   34.1270   25.0520   30.2430 H   0  0  0  0  0  0  0  0  0  0  0  0
   37.1850   27.3750   32.0330 H   0  0  0  0  0  0  0  0  0  0  0  0
   39.8430   23.5230   33.8110 O   0  0  0  0  0  0  0  0  0  0  0  0
   40.2670   22.9520   35.0040 C   0  0  0  0  0  0  0  0  0  0  0  0
   41.3050   22.0700   35.2200 C   0  0  0  0  0  0  0  0  0  0  0  0
   41.8430   21.8040   34.3300 H   0  0  0  0  0  0  0  0  0  0  0  0
   41.5710   21.6110   36.4900 C   0  0  0  0  0  3  0  0  0  0  0  0
   40.8270   22.0070   37.5730 C   0  0  0  0  0  3  0  0  0  0  0  0
   39.7860   22.8860   37.3840 C   0  0  0  0  0  0  0  0  0  0  0  0
   39.0660   23.2580   38.4990 C   0  0  0  0  0  3  0  0  0  0  0  0
   38.0210   24.1300   38.3620 C   0  0  0  0  0  3  0  0  0  0  0  0
   37.7100   24.6210   37.1100 C   0  0  0  0  0  3  0  0  0  0  0  0
   38.4580   24.2230   36.0230 C   0  0  0  0  0  3  0  0  0  0  0  0
   39.5190   23.3460   36.1130 C   0  0  0  0  0  0  0  0  0  0  0  0
  2  1  2  1  0  0  0
  2  5  1  0  0  0  0
  2 15  1  0  0  0  0
  3  4  1  0  0  0  0
  3  2  1  0  0  0  0
  6 11  1  0  0  0  0
  6  5  1  0  0  0  0
  7  6  2  0  0  0  0
  8  9  2  0  0  0  0
  8  7  1  0  0  0  0
  9 10  1  0  0  0  0
 10 14  1  0  0  0  0
 10 11  2  0  0  0  0
 12  7  1  0  0  0  0
 13  8  1  0  0  0  0
 15 16  1  0  0  0  0
 16 17  2  0  0  0  0
 16 26  1  0  0  0  0
 17 19  1  0  0  0  0
 18 17  1  0  0  0  0
 19 20  2  0  0  0  0
 21 20  1  0  0  0  0
 21 22  1  0  0  0  0
 23 22  2  0  0  0  0
 24 23  1  0  0  0  0
 25 26  1  0  0  0  0
 25 24  2  0  0  0  0
 26 21  2  0  0  0  0
M  END
>  <minimizedAffinity>
-5.3666091

$$$$

 OpenBabel03262521103D

 26 28  0  0  0  0  0  0  0  0999 V2000
   35.0020   25.4470   30.8410 O   0  0  0  0  0  0  0  0  0  0  0  0
   36.3730   25.6380   31.4370 P   0  0  1  0  0  0  0  0  0  0  0  0
   37.5090   26.1460   30.2710 O   0  0  0  0  0  0  0  0  0  0  0  0
   38.2810   25.5310   30.2580 H   0  0  0  0  0  0  0  0  0  0  0  0
   36.4010   26.8630   32.6440 O   0  0  0  0  0  0  0  0  0  0  0  0
   37.4100   26.9570   33.5830 C   0  0  0  0  0  0  0  0  0  0  0  0
   37.2090   27.1240   34.9700 C   0  0  0  0  0  0  0  0  0  0  0  0
   38.3430   27.1980   35.7720 C   0  0  0  0  0  0  0  0  0  0  0  0
   39.5750   27.1110   35.1980 N   0  0  0  0  0  0  0  0  0  0  0  0
   39.7240   26.9520   33.8600 C   0  0  0  0  0  0  0  0  0  0  0  0
   38.6360   26.8750   33.0590 N   0  0  0  0  0  0  0  0  0  0  0  0
   36.1830   27.1710   35.2460 H   0  0  0  0  0  0  0  0  0  0  0  0
   38.1480   27.3240   36.8150 H   0  0  0  0  0  0  0  0  0  0  0  0
   40.7400   26.8920   33.4920 H   0  0  0  0  0  0  0  0  0  0  0  0
   36.8470   24.1620   32.1090 O   0  0  0  0  0  0  0  0  0  0  0  0
   37.3950   23.1030   31.3980 C   0  0  0  0  0  0  0  0  0  0  0  0
   38.5430   23.0780   30.6330 C   0  0  0  0  0  0  0  0  0  0  0  0
   39.0650   24.0160   30.5990 H   0  0  0  0  0  0  0  0  0  0  0  0
   38.9260   21.9200   29.9960 C   0  0  0  0  0  3  0  0  0  0  0  0
   38.1940   20.7630   30.0970 C   0  0  0  0  0  3  0  0  0  0  0  0
   37.0450   20.7620   30.8540 C   0  0  0  0  0  0  0  0  0  0  0  0
   36.3410   19.5790   30.9280 C   0  0  0  0  0  3  0  0  0  0  0  0
   35.1930   19.5280   31.6680 C   0  0  0  0  0  3  0  0  0  0  0  0
   34.7620   20.6620   32.3270 C   0  0  0  0  0  3  0  0  0  0  0  0
   35.4980   21.8230   32.2260 C   0  0  0  0  0  3  0  0  0  0  0  0
   36.6610   21.9220   31.4910 C   0  0  0  0  0  0  0  0  0  0  0  0
  2  1  2  6  0  0  0
  2 15  1  0  0  0  0
  2  5  1  0  0  0  0
  3  2  1  0  0  0  0
  4  3  1  0  0  0  0
  5  6  1  0  0  0  0
  6  7  1  0  0  0  0
  7 12  1  0  0  0  0
  7  8  2  0  0  0  0
  8 13  1  0  0  0  0
  9  8  1  0  0  0  0
 10  9  2  0  0  0  0
 11  6  2  0  0  0  0
 11 10  1  0  0  0  0
 14 10  1  0  0  0  0
 16 26  1  0  0  0  0
 16 15  1  0  0  0  0
 17 16  2  0  0  0  0
 18 17  1  0  0  0  0
 19 20  2  0  0  0  0
 19 17  1  0  0  0  0
 20 21  1  0  0  0  0
 21 22  2  0  0  0  0
 21 26  1  0  0  0  0
 22 23  1  0  0  0  0
 23 24  2  0  0  0  0
 25 24  1  0  0  0  0
 26 25  2  0  0  0  0
M  END
>  <minimizedAffinity>
-5.28389311

$$$$

 OpenBabel03262521103D

 26 28  0  0  0  0  0  0  0  0999 V2000
   40.4790   26.2330   34.9060 O   0  0  0  0  0  0  0  0  0  0  0  0
   39.8970   25.2670   33.9070 P   0  0  1  0  0  0  0  0  0  0  0  0
   41.1060   24.3460   33.1340 O   0  0  0  0  0  0  0  0  0  0  0  0
   41.0300   24.4390   32.1550 H   0  0  0  0  0  0  0  0  0  0  0  0
   38.8580   24.1090   34.6390 O   0  0  0  0  0  0  0  0  0  0  0  0
   38.8080   23.9150   36.0070 C   0  0  0  0  0  0  0  0  0  0  0  0
   37.8640   24.5090   36.8710 C   0  0  0  0  0  0  0  0  0  0  0  0
   37.9600   24.2010   38.2240 C   0  0  0  0  0  0  0  0  0  0  0  0
   38.9430   23.3590   38.6500 N   0  0  0  0  0  0  0  0  0  0  0  0
   39.8300   22.8110   37.7860 C   0  0  0  0  0  0  0  0  0  0  0  0
   39.7570   23.0940   36.4640 N   0  0  0  0  0  0  0  0  0  0  0  0
   37.1680   25.1380   36.3710 H   0  0  0  0  0  0  0  0  0  0  0  0
   37.2270   24.6710   38.8450 H   0  0  0  0  0  0  0  0  0  0  0  0
   40.5770   22.1530   38.2120 H   0  0  0  0  0  0  0  0  0  0  0  0
   39.0340   26.1700   32.7680 O   0  0  0  0  0  0  0  0  0  0  0  0
   38.0140   27.0640   33.0690 C   0  0  0  0  0  0  0  0  0  0  0  0
   37.3390   27.2360   34.2590 C   0  0  0  0  0  0  0  0  0  0  0  0
   37.6630   26.5790   35.0440 H   0  0  0  0  0  0  0  0  0  0  0  0
   36.3470   28.1840   34.3610 C   0  0  0  0  0  3  0  0  0  0  0  0
   35.9980   28.9830   33.3010 C   0  0  0  0  0  3  0  0  0  0  0  0
   36.6570   28.8310   32.1030 C   0  0  0  0  0  0  0  0  0  0  0  0
   36.2760   29.6540   31.0660 C   0  0  0  0  0  3  0  0  0  0  0  0
   36.9010   29.5410   29.8550 C   0  0  0  0  0  3  0  0  0  0  0  0
   37.9030   28.6050   29.6970 C   0  0  0  0  0  3  0  0  0  0  0  0
   38.2530   27.8030   30.7620 C   0  0  0  0  0  3  0  0  0  0  0  0
   37.6500   27.8810   32.0000 C   0  0  0  0  0  0  0  0  0  0  0  0
  2  5  1  0  0  0  0
  2  1  2  1  0  0  0
  3  2  1  0  0  0  0
  4  3  1  0  0  0  0
  5  6  1  0  0  0  0
  6 11  2  0  0  0  0
  6  7  1  0  0  0  0
  7  8  2  0  0  0  0
  8  9  1  0  0  0  0
  8 13  1  0  0  0  0
 10 14  1  0  0  0  0
 10  9  2  0  0  0  0
 11 10  1  0  0  0  0
 12  7  1  0  0  0  0
 15 16  1  0  0  0  0
 15  2  1  0  0  0  0
 16 17  1  0  0  0  0
 17 19  2  0  0  0  0
 17 18  1  0  0  0  0
 20 19  1  0  0  0  0
 21 20  2  0  0  0  0
 22 21  1  0  0  0  0
 23 22  2  0  0  0  0
 24 23  1  0  0  0  0
 24 25  2  0  0  0  0
 25 26  1  0  0  0  0
 26 21  1  0  0  0  0
 26 16  2  0  0  0  0
M  END
>  <minimizedAffinity>
-5.2529397

$$$$

 OpenBabel03262521103D

 26 28  0  0  0  0  0  0  0  0999 V2000
   37.9090   28.5390   31.0950 O   0  0  0  0  0  0  0  0  0  0  0  0
   36.5510   27.9590   31.3920 P   0  0  1  0  0  0  0  0  0  0  0  0
   35.9640   27.0170   30.0960 O   0  0  0  0  0  0  0  0  0  0  0  0
   35.0760   27.3430   29.8140 H   0  0  0  0  0  0  0  0  0  0  0  0
   36.5710   26.8910   32.7400 O   0  0  0  0  0  0  0  0  0  0  0  0
   37.5890   26.8950   33.6750 C   0  0  0  0  0  0  0  0  0  0  0  0
   37.4950   27.4520   34.9680 C   0  0  0  0  0  0  0  0  0  0  0  0
   38.6210   27.3650   35.7800 C   0  0  0  0  0  0  0  0  0  0  0  0
   39.7450   26.7610   35.3030 N   0  0  0  0  0  0  0  0  0  0  0  0
   39.7930   26.2390   34.0540 C   0  0  0  0  0  0  0  0  0  0  0  0
   38.7100   26.3100   33.2440 N   0  0  0  0  0  0  0  0  0  0  0  0
   36.5450   27.8820   35.1750 H   0  0  0  0  0  0  0  0  0  0  0  0
   38.5090   27.7980   36.7510 H   0  0  0  0  0  0  0  0  0  0  0  0
   40.7270   25.7780   33.7590 H   0  0  0  0  0  0  0  0  0  0  0  0
   35.5010   29.2470   31.6990 O   0  0  0  0  0  0  0  0  0  0  0  0
   35.8720   30.5850   31.7340 C   0  0  0  0  0  0  0  0  0  0  0  0
   36.2090   31.4160   30.6850 C   0  0  0  0  0  0  0  0  0  0  0  0
   36.1700   30.9410   29.7230 H   0  0  0  0  0  0  0  0  0  0  0  0
   36.5530   32.7270   30.9230 C   0  0  0  0  0  3  0  0  0  0  0  0
   36.5740   33.2490   32.1920 C   0  0  0  0  0  3  0  0  0  0  0  0
   36.2430   32.4410   33.2550 C   0  0  0  0  0  0  0  0  0  0  0  0
   36.2770   33.0070   34.5110 C   0  0  0  0  0  3  0  0  0  0  0  0
   35.9560   32.2450   35.5990 C   0  0  0  0  0  3  0  0  0  0  0  0
   35.6030   30.9220   35.4180 C   0  0  0  0  0  3  0  0  0  0  0  0
   35.5820   30.3970   34.1430 C   0  0  0  0  0  3  0  0  0  0  0  0
   35.8980   31.1280   33.0170 C   0  0  0  0  0  0  0  0  0  0  0  0
  2  1  2  6  0  0  0
  2 15  1  0  0  0  0
  2  5  1  0  0  0  0
  3  2  1  0  0  0  0
  4  3  1  0  0  0  0
  5  6  1  0  0  0  0
  6  7  1  0  0  0  0
  7 12  1  0  0  0  0
  7  8  2  0  0  0  0
  8 13  1  0  0  0  0
  9  8  1  0  0  0  0
 10  9  2  0  0  0  0
 11  6  2  0  0  0  0
 11 10  1  0  0  0  0
 14 10  1  0  0  0  0
 15 16  1  0  0  0  0
 16 26  1  0  0  0  0
 17 19  1  0  0  0  0
 17 16  2  0  0  0  0
 18 17  1  0  0  0  0
 19 20  2  0  0  0  0
 20 21  1  0  0  0  0
 21 22  1  0  0  0  0
 22 23  2  0  0  0  0
 24 23  1  0  0  0  0
 25 24  2  0  0  0  0
 26 21  2  0  0  0  0
 26 25  1  0  0  0  0
M  END
>  <minimizedAffinity>
-5.09787941

$$$$

 OpenBabel03262521103D

 26 28  0  0  0  0  0  0  0  0999 V2000
   39.6470   27.1860   34.1210 O   0  0  0  0  0  0  0  0  0  0  0  0
   38.1760   26.9180   33.9320 P   0  0  1  0  0  0  0  0  0  0  0  0
   37.2110   28.0710   34.7380 O   0  0  0  0  0  0  0  0  0  0  0  0
   36.5810   27.6190   35.3480 H   0  0  0  0  0  0  0  0  0  0  0  0
   37.6950   27.0140   32.2840 O   0  0  0  0  0  0  0  0  0  0  0  0
   36.8400   26.0950   31.7050 C   0  0  0  0  0  0  0  0  0  0  0  0
   35.4880   26.3420   31.3850 C   0  0  0  0  0  0  0  0  0  0  0  0
   34.7730   25.3000   30.8040 C   0  0  0  0  0  0  0  0  0  0  0  0
   35.3930   24.1090   30.5740 N   0  0  0  0  0  0  0  0  0  0  0  0
   36.6950   23.9140   30.8970 C   0  0  0  0  0  0  0  0  0  0  0  0
   37.4120   24.9130   31.4630 N   0  0  0  0  0  0  0  0  0  0  0  0
   35.1670   27.3250   31.6320 H   0  0  0  0  0  0  0  0  0  0  0  0
   33.7530   25.5270   30.5770 H   0  0  0  0  0  0  0  0  0  0  0  0
   37.1050   22.9370   30.6790 H   0  0  0  0  0  0  0  0  0  0  0  0
   37.8580   25.3700   34.5310 O   0  0  0  0  0  0  0  0  0  0  0  0
   38.8250   24.4190   34.8310 C   0  0  0  0  0  0  0  0  0  0  0  0
   39.7220   23.8020   33.9840 C   0  0  0  0  0  0  0  0  0  0  0  0
   39.6420   24.1160   32.9600 H   0  0  0  0  0  0  0  0  0  0  0  0
   40.6130   22.8740   34.4750 C   0  0  0  0  0  3  0  0  0  0  0  0
   40.6430   22.5350   35.8050 C   0  0  0  0  0  3  0  0  0  0  0  0
   39.7580   23.1360   36.6700 C   0  0  0  0  0  0  0  0  0  0  0  0
   39.8240   22.7650   37.9960 C   0  0  0  0  0  3  0  0  0  0  0  0
   38.9650   23.3350   38.8940 C   0  0  0  0  0  3  0  0  0  0  0  0
   38.0510   24.2710   38.4550 C   0  0  0  0  0  3  0  0  0  0  0  0
   38.0210   24.6130   37.1200 C   0  0  0  0  0  3  0  0  0  0  0  0
   38.8660   24.0640   36.1780 C   0  0  0  0  0  0  0  0  0  0  0  0
  2  1  2  1  0  0  0
  2 15  1  0  0  0  0
  2  3  1  0  0  0  0
  3  4  1  0  0  0  0
  5  2  1  0  0  0  0
  6  5  1  0  0  0  0
  7 12  1  0  0  0  0
  7  6  2  0  0  0  0
  8  7  1  0  0  0  0
  9  8  2  0  0  0  0
  9 10  1  0  0  0  0
 10 11  2  0  0  0  0
 11  6  1  0  0  0  0
 13  8  1  0  0  0  0
 14 10  1  0  0  0  0
 15 16  1  0  0  0  0
 16 26  1  0  0  0  0
 17 19  1  0  0  0  0
 17 16  2  0  0  0  0
 18 17  1  0  0  0  0
 19 20  2  0  0  0  0
 20 21  1  0  0  0  0
 21 22  1  0  0  0  0
 22 23  2  0  0  0  0
 24 23  1  0  0  0  0
 25 24  2  0  0  0  0
 26 21  2  0  0  0  0
 26 25  1  0  0  0  0
M  END
>  <minimizedAffinity>
-5.08575392

$$$$
