
 OpenBabel03262520573D

 21 23  0  0  0  0  0  0  0  0999 V2000
   37.7120   31.5460   46.7200 C   0  0  0  0  0  0  0  0  0  0  0  0
   36.6780   30.6520   46.4620 C   0  0  0  0  0  0  0  0  0  0  0  0
   36.1660   30.2480   47.3170 H   0  0  0  0  0  0  0  0  0  0  0  0
   36.3660   30.3340   45.1510 C   0  0  0  0  0  0  0  0  0  0  0  0
   37.0310   30.8580   44.0550 C   0  0  0  0  0  0  0  0  0  0  0  0
   38.0660   31.7550   44.3400 C   0  0  0  0  0  0  0  0  0  0  0  0
   38.7060   32.2580   43.2250 C   0  0  0  0  0  0  0  0  0  0  0  0
   39.7440   33.1560   43.4960 C   0  0  0  0  0  0  0  0  0  0  0  0
   40.1290   33.5350   44.7710 C   0  0  0  0  0  0  0  0  0  0  0  0
   39.4270   32.9770   45.8180 C   0  0  0  0  0  0  0  0  0  0  0  0
   38.3910   32.0840   45.6390 C   0  0  0  0  0  0  0  0  0  0  0  0
   38.1580   31.9930   48.3830 S   0  0  0  0  0  0  0  0  0  0  0  0
   37.2140   29.7560   51.6560 C   0  0  0  0  0  0  0  0  0  0  0  0
   37.9600   30.5460   50.7820 C   0  0  0  0  0  0  0  0  0  0  0  0
   37.3600   30.9810   49.6090 C   0  0  0  0  0  0  0  0  0  0  0  0
   36.0620   30.6130   49.3620 N   0  0  0  0  0  0  0  0  0  0  0  0
   35.3780   29.8500   50.2280 C   0  0  0  0  0  0  0  0  0  0  0  0
   35.9440   29.4230   51.3680 N   0  0  0  0  0  0  0  0  0  0  0  0
   37.7200   29.4410   52.5540 H   0  0  0  0  0  0  0  0  0  0  0  0
   38.9780   30.8740   50.9090 H   0  0  0  0  0  0  0  0  0  0  0  0
   34.3440   29.5790   49.9920 H   0  0  0  0  0  0  0  0  0  0  0  0
  1 12  1  0  0  0  0
  2  1  1  0  0  0  0
  2  3  1  0  0  0  0
  4  2  2  0  0  0  0
  5  6  2  0  0  0  0
  5  4  1  0  0  0  0
  6 11  1  0  0  0  0
  7  8  2  0  0  0  0
  7  6  1  0  0  0  0
  8  9  1  0  0  0  0
  9 10  2  0  0  0  0
 11 10  1  0  0  0  0
 11  1  2  0  0  0  0
 12 15  1  0  0  0  0
 13 19  1  0  0  0  0
 14 20  1  0  0  0  0
 14 13  2  0  0  0  0
 15 14  1  0  0  0  0
 16 15  2  0  0  0  0
 16 17  1  0  0  0  0
 17 18  2  0  0  0  0
 18 13  1  0  0  0  0
 21 17  1  0  0  0  0
M  END
>  <minimizedAffinity>
-5.35335541

>  <minimizedRMSD>
1.67229068

$$$$
