
 OpenBabel03272503503D

 39 42  0  0  1  0  0  0  0  0999 V2000
   33.1270   27.3750   45.7560 C   0  0  1  0  0  0  0  0  0  0  0  0
   33.9520   27.4860   47.0570 C   0  0  2  0  0  0  0  0  0  0  0  0
   33.8810   26.2420   47.5940 O   0  0  0  0  0  0  0  0  0  0  0  0
   34.1350   25.3940   46.5270 C   0  0  0  0  0  0  0  0  0  0  0  0
   33.5290   26.0020   45.2790 C   0  0  2  0  0  0  0  0  0  0  0  0
   33.4380   28.1830   45.0640 H   0  0  0  0  0  0  0  0  0  0  0  0
   34.9610   27.7900   46.6970 H   0  0  0  0  0  0  0  0  0  0  0  0
   35.2020   25.1450   46.4030 H   0  0  0  0  0  0  0  0  0  0  0  0
   33.5930   24.4450   46.7220 H   0  0  0  0  0  0  0  0  0  0  0  0
   32.6270   25.4500   44.9560 H   0  0  0  0  0  0  0  0  0  0  0  0
   31.7810   27.5220   46.0260 O   0  0  0  0  0  0  0  0  0  0  0  0
   31.3730   28.2090   45.4390 H   0  0  0  0  0  0  0  0  0  0  0  0
   33.3440   28.4950   47.7600 O   0  0  0  0  0  0  0  0  0  0  0  0
   35.3650   29.8690   46.7530 O   0  0  0  0  0  0  0  0  0  0  0  0
   34.0940   29.9920   47.5890 P   0  0  1  0  0  0  0  0  0  0  0  0
   33.0970   31.0470   46.7160 O   0  0  0  0  0  0  0  0  0  0  0  0
   32.3550   31.2840   47.3550 H   0  0  0  0  0  0  0  0  0  0  0  0
   34.3720   30.5880   49.1640 O   0  0  0  0  0  0  0  0  0  0  0  0
   35.6130   30.4810   49.7760 C   0  0  0  0  0  0  0  0  0  0  0  0
   35.9690   29.4650   50.6940 C   0  0  0  0  0  0  0  0  0  0  0  0
   37.2520   29.4900   51.2250 C   0  0  0  0  0  0  0  0  0  0  0  0
   38.1050   30.4920   50.8350 N   0  0  0  0  0  0  0  0  0  0  0  0
   37.7340   31.4540   49.9520 C   0  0  0  0  0  0  0  0  0  0  0  0
   36.4840   31.4510   49.4190 N   0  0  0  0  0  0  0  0  0  0  0  0
   35.2230   28.7450   50.9160 H   0  0  0  0  0  0  0  0  0  0  0  0
   37.5160   28.7270   51.9120 H   0  0  0  0  0  0  0  0  0  0  0  0
   38.4170   32.2360   49.6560 H   0  0  0  0  0  0  0  0  0  0  0  0
   34.4710   26.0880   44.2890 O   0  0  0  0  0  0  0  0  0  0  0  0
   34.9740   24.9840   43.6520 C   0  0  0  0  0  0  0  0  0  0  0  0
   34.5030   23.7130   43.5120 C   0  0  0  0  0  0  0  0  0  0  0  0
   33.5560   23.5160   43.9830 H   0  0  0  0  0  0  0  0  0  0  0  0
   35.1610   22.7210   42.8250 C   0  0  0  0  0  3  0  0  0  0  0  0
   36.3740   22.9640   42.2180 C   0  0  0  0  0  3  0  0  0  0  0  0
   36.8820   24.2580   42.3450 C   0  0  0  0  0  0  0  0  0  0  0  0
   38.0980   24.4480   41.7190 C   0  0  0  0  0  3  0  0  0  0  0  0
   38.6840   25.6890   41.7840 C   0  0  0  0  0  3  0  0  0  0  0  0
   38.0530   26.7050   42.4640 C   0  0  0  0  0  3  0  0  0  0  0  0
   36.8390   26.4810   43.0780 C   0  0  0  0  0  3  0  0  0  0  0  0
   36.2060   25.2550   43.0450 C   0  0  0  0  0  0  0  0  0  0  0  0
  1  6  1  6  0  0  0
  1 11  1  0  0  0  0
  1  2  1  0  0  0  0
  2  7  1  6  0  0  0
  2  3  1  0  0  0  0
  2 13  1  0  0  0  0
  4  9  1  0  0  0  0
  4  3  1  0  0  0  0
  5 10  1  6  0  0  0
  5  1  1  0  0  0  0
  5  4  1  0  0  0  0
  8  4  1  0  0  0  0
 12 11  1  0  0  0  0
 15 14  2  6  0  0  0
 15 13  1  0  0  0  0
 15 18  1  0  0  0  0
 16 17  1  0  0  0  0
 16 15  1  0  0  0  0
 18 19  1  0  0  0  0
 19 20  1  0  0  0  0
 20 25  1  0  0  0  0
 20 21  2  0  0  0  0
 21 26  1  0  0  0  0
 22 21  1  0  0  0  0
 23 22  2  0  0  0  0
 24 19  2  0  0  0  0
 24 23  1  0  0  0  0
 27 23  1  0  0  0  0
 28  5  1  0  0  0  0
 29 28  1  0  0  0  0
 30 29  1  0  0  0  0
 30 31  1  0  0  0  0
 32 30  2  0  0  0  0
 33 34  2  0  0  0  0
 33 32  1  0  0  0  0
 34 39  1  0  0  0  0
 35 36  2  0  0  0  0
 35 34  1  0  0  0  0
 36 37  1  0  0  0  0
 37 38  2  0  0  0  0
 39 38  1  0  0  0  0
 39 29  2  0  0  0  0
M  END
>  <minimizedAffinity>
-4.36799717

>  <minimizedRMSD>
1.20252669

$$$$
