
 OpenBabel03272508273D

 40 44  0  0  1  0  0  0  0  0999 V2000
   33.6700   28.9710   47.2320 C   0  0  2  0  0  0  0  0  0  0  0  0
   34.4430   28.1220   48.2320 C   0  0  2  0  0  0  0  0  0  0  0  0
   33.5760   27.8810   49.2550 O   0  0  0  0  0  0  0  0  0  0  0  0
   32.2890   27.9770   48.8340 C   0  0  0  0  0  0  0  0  0  0  0  0
   32.3020   28.2860   47.3510 C   0  0  1  0  0  0  0  0  0  0  0  0
   33.5750   30.0120   47.5380 H   0  0  0  0  0  0  0  0  0  0  0  0
   34.7040   27.1730   47.7490 H   0  0  0  0  0  0  0  0  0  0  0  0
   31.8480   28.8920   49.3210 H   0  0  0  0  0  0  0  0  0  0  0  0
   31.6400   27.1330   49.0840 H   0  0  0  0  0  0  0  0  0  0  0  0
   32.3550   27.3060   46.8220 H   0  0  0  0  0  0  0  0  0  0  0  0
   35.5570   30.3430   48.9650 C   0  0  1  0  0  0  0  0  0  0  0  0
   35.6240   28.9310   48.6710 C   0  0  1  0  0  0  0  0  0  0  0  0
   35.8050   29.3330   50.0970 C   0  0  0  0  0  0  0  0  0  0  0  0
   34.6400   30.9360   49.2100 H   0  0  0  0  0  0  0  0  0  0  0  0
   36.5600   28.6030   48.1340 H   0  0  0  0  0  0  0  0  0  0  0  0
   35.0080   29.1140   50.8180 H   0  0  0  0  0  0  0  0  0  0  0  0
   36.8340   29.2650   50.5260 H   0  0  0  0  0  0  0  0  0  0  0  0
   36.7620   31.2420   48.7410 C   0  0  0  0  0  0  0  0  0  0  0  0
   37.0130   32.2170   49.7100 C   0  0  0  0  0  0  0  0  0  0  0  0
   38.1100   33.0320   49.4460 C   0  0  0  0  0  0  0  0  0  0  0  0
   38.8580   32.8700   48.3300 N   0  0  0  0  0  0  0  0  0  0  0  0
   38.5760   31.9040   47.4120 C   0  0  0  0  0  0  0  0  0  0  0  0
   37.5150   31.0800   47.6200 N   0  0  0  0  0  0  0  0  0  0  0  0
   36.3780   32.2970   50.5810 H   0  0  0  0  0  0  0  0  0  0  0  0
   38.3420   33.8040   50.1710 H   0  0  0  0  0  0  0  0  0  0  0  0
   39.2000   31.8120   46.5380 H   0  0  0  0  0  0  0  0  0  0  0  0
   34.1540   28.9060   45.9450 O   0  0  0  0  0  0  0  0  0  0  0  0
   35.1240   28.7380   45.8750 H   0  0  0  0  0  0  0  0  0  0  0  0
   31.2850   29.1050   46.9400 O   0  0  0  0  0  0  0  0  0  0  0  0
   30.2680   28.7910   46.0830 C   0  0  0  0  0  0  0  0  0  0  0  0
   30.3460   28.5240   44.7350 C   0  0  0  0  0  0  0  0  0  0  0  0
   31.3360   28.5690   44.3050 H   0  0  0  0  0  0  0  0  0  0  0  0
   29.2490   28.2160   43.9580 C   0  0  0  0  0  3  0  0  0  0  0  0
   28.0040   28.1710   44.5530 C   0  0  0  0  0  3  0  0  0  0  0  0
   27.8540   28.4310   45.9110 C   0  0  0  0  0  0  0  0  0  0  0  0
   26.6050   28.3830   46.4940 C   0  0  0  0  0  3  0  0  0  0  0  0
   26.4810   28.6430   47.8380 C   0  0  0  0  0  3  0  0  0  0  0  0
   27.5680   28.9520   48.6210 C   0  0  0  0  0  3  0  0  0  0  0  0
   28.7970   28.9870   47.9880 C   0  0  0  0  0  3  0  0  0  0  0  0
   28.9900   28.7330   46.6330 C   0  0  0  0  0  0  0  0  0  0  0  0
  1  5  1  0  0  0  0
  1  6  1  1  0  0  0
  1  2  1  0  0  0  0
  2  7  1  6  0  0  0
  2 12  1  0  0  0  0
  2  3  1  0  0  0  0
  4  9  1  0  0  0  0
  4  3  1  0  0  0  0
  4  8  1  0  0  0  0
  5 10  1  6  0  0  0
  5  4  1  0  0  0  0
 11 14  1  6  0  0  0
 11 13  1  0  0  0  0
 12 15  1  6  0  0  0
 12 11  1  0  0  0  0
 12 13  1  0  0  0  0
 13 17  1  0  0  0  0
 13 16  1  0  0  0  0
 18 11  1  0  0  0  0
 18 19  1  0  0  0  0
 19 24  1  0  0  0  0
 20 19  2  0  0  0  0
 20 25  1  0  0  0  0
 21 20  1  0  0  0  0
 22 23  1  0  0  0  0
 22 21  2  0  0  0  0
 23 18  2  0  0  0  0
 26 22  1  0  0  0  0
 27  1  1  0  0  0  0
 28 27  1  0  0  0  0
 29  5  1  0  0  0  0
 30 40  1  0  0  0  0
 30 29  1  0  0  0  0
 31 30  2  0  0  0  0
 32 31  1  0  0  0  0
 33 34  2  0  0  0  0
 33 31  1  0  0  0  0
 34 35  1  0  0  0  0
 35 36  2  0  0  0  0
 35 40  1  0  0  0  0
 36 37  1  0  0  0  0
 37 38  2  0  0  0  0
 39 38  1  0  0  0  0
 40 39  2  0  0  0  0
M  END
>  <minimizedAffinity>
-6.05165911

>  <minimizedRMSD>
0.636015117

$$$$
