
 OpenBabel03272508273D

 40 44  0  0  1  0  0  0  0  0999 V2000
   32.7610   28.9090   46.9650 C   0  0  2  0  0  0  0  0  0  0  0  0
   33.5670   27.8570   47.7120 C   0  0  2  0  0  0  0  0  0  0  0  0
   32.7770   27.4570   48.7470 O   0  0  0  0  0  0  0  0  0  0  0  0
   31.4660   27.6800   48.4720 C   0  0  0  0  0  0  0  0  0  0  0  0
   31.3720   28.2670   47.0790 C   0  0  1  0  0  0  0  0  0  0  0  0
   32.7480   29.8760   47.4680 H   0  0  0  0  0  0  0  0  0  0  0  0
   33.7350   27.0090   47.0380 H   0  0  0  0  0  0  0  0  0  0  0  0
   31.1170   28.5010   49.1610 H   0  0  0  0  0  0  0  0  0  0  0  0
   30.7950   26.8280   48.6180 H   0  0  0  0  0  0  0  0  0  0  0  0
   31.3280   27.4050   46.3720 H   0  0  0  0  0  0  0  0  0  0  0  0
   34.8510   29.8340   48.7850 C   0  0  1  0  0  0  0  0  0  0  0  0
   34.8230   28.5210   48.1840 C   0  0  1  0  0  0  0  0  0  0  0  0
   35.1680   28.5930   49.6350 C   0  0  0  0  0  0  0  0  0  0  0  0
   33.9930   30.3790   49.2520 H   0  0  0  0  0  0  0  0  0  0  0  0
   35.6840   28.2990   47.4890 H   0  0  0  0  0  0  0  0  0  0  0  0
   34.4390   28.2370   50.3740 H   0  0  0  0  0  0  0  0  0  0  0  0
   36.2300   28.4090   49.9230 H   0  0  0  0  0  0  0  0  0  0  0  0
   36.0680   30.7340   48.6310 C   0  0  0  0  0  0  0  0  0  0  0  0
   36.4480   31.4790   49.7490 C   0  0  0  0  0  0  0  0  0  0  0  0
   37.5500   32.3070   49.5500 C   0  0  0  0  0  0  0  0  0  0  0  0
   38.1840   32.3650   48.3560 N   0  0  0  0  0  0  0  0  0  0  0  0
   37.7760   31.6170   47.2920 C   0  0  0  0  0  0  0  0  0  0  0  0
   36.7060   30.7910   47.4310 N   0  0  0  0  0  0  0  0  0  0  0  0
   35.9010   31.3900   50.6770 H   0  0  0  0  0  0  0  0  0  0  0  0
   37.8810   32.9060   50.3920 H   0  0  0  0  0  0  0  0  0  0  0  0
   38.3120   31.6950   46.3600 H   0  0  0  0  0  0  0  0  0  0  0  0
   33.1320   29.0750   45.6500 O   0  0  0  0  0  0  0  0  0  0  0  0
   34.0820   28.8860   45.4600 H   0  0  0  0  0  0  0  0  0  0  0  0
   30.3710   29.1870   46.9240 O   0  0  0  0  0  0  0  0  0  0  0  0
   29.0440   29.0180   47.2030 C   0  0  0  0  0  0  0  0  0  0  0  0
   28.4070   29.1540   48.4150 C   0  0  0  0  0  0  0  0  0  0  0  0
   29.0400   29.4300   49.2470 H   0  0  0  0  0  0  0  0  0  0  0  0
   27.0540   28.9580   48.5880 C   0  0  0  0  0  3  0  0  0  0  0  0
   26.2870   28.6080   47.4940 C   0  0  0  0  0  3  0  0  0  0  0  0
   26.8670   28.4540   46.2390 C   0  0  0  0  0  0  0  0  0  0  0  0
   26.0910   28.1020   45.1540 C   0  0  0  0  0  3  0  0  0  0  0  0
   26.6850   27.9550   43.9230 C   0  0  0  0  0  3  0  0  0  0  0  0
   28.0340   28.1480   43.7410 C   0  0  0  0  0  3  0  0  0  0  0  0
   28.7670   28.4980   44.8600 C   0  0  0  0  0  3  0  0  0  0  0  0
   28.2260   28.6630   46.1320 C   0  0  0  0  0  0  0  0  0  0  0  0
  1  5  1  0  0  0  0
  1  6  1  1  0  0  0
  1  2  1  0  0  0  0
  2  7  1  6  0  0  0
  2 12  1  0  0  0  0
  2  3  1  0  0  0  0
  4  9  1  0  0  0  0
  4  3  1  0  0  0  0
  4  8  1  0  0  0  0
  5 10  1  6  0  0  0
  5  4  1  0  0  0  0
 11 14  1  1  0  0  0
 11 13  1  0  0  0  0
 12 15  1  6  0  0  0
 12 11  1  0  0  0  0
 12 13  1  0  0  0  0
 13 17  1  0  0  0  0
 13 16  1  0  0  0  0
 18 11  1  0  0  0  0
 18 19  1  0  0  0  0
 19 24  1  0  0  0  0
 20 19  2  0  0  0  0
 20 25  1  0  0  0  0
 21 20  1  0  0  0  0
 22 23  1  0  0  0  0
 22 21  2  0  0  0  0
 23 18  2  0  0  0  0
 26 22  1  0  0  0  0
 27  1  1  0  0  0  0
 28 27  1  0  0  0  0
 29  5  1  0  0  0  0
 29 30  1  0  0  0  0
 30 31  1  0  0  0  0
 31 33  2  0  0  0  0
 31 32  1  0  0  0  0
 34 33  1  0  0  0  0
 35 34  2  0  0  0  0
 36 35  1  0  0  0  0
 37 36  2  0  0  0  0
 38 37  1  0  0  0  0
 38 39  2  0  0  0  0
 39 40  1  0  0  0  0
 40 35  1  0  0  0  0
 40 30  2  0  0  0  0
M  END
>  <minimizedAffinity>
-6.18276787

>  <minimizedRMSD>
2.81044173

$$$$
