
 OpenBabel03272506433D

 34 37  0  0  1  0  0  0  0  0999 V2000
   32.3560   28.1100   47.7360 C   0  0  2  0  0  0  0  0  0  0  0  0
   33.6750   28.1830   48.4890 C   0  0  1  0  0  0  0  0  0  0  0  0
   34.2950   26.9760   48.3680 O   0  0  0  0  0  0  0  0  0  0  0  0
   33.6020   26.1990   47.4660 C   0  0  0  0  0  0  0  0  0  0  0  0
   32.7690   27.1690   46.6100 C   0  0  1  0  0  0  0  0  0  0  0  0
   31.5680   27.6570   48.3580 H   0  0  0  0  0  0  0  0  0  0  0  0
   33.4560   28.4920   49.5280 H   0  0  0  0  0  0  0  0  0  0  0  0
   34.3500   25.7190   46.7990 H   0  0  0  0  0  0  0  0  0  0  0  0
   32.9420   25.4690   47.9630 H   0  0  0  0  0  0  0  0  0  0  0  0
   33.4240   27.7370   45.9490 H   0  0  0  0  0  0  0  0  0  0  0  0
   31.9870   29.3600   47.2470 O   0  0  0  0  0  0  0  0  0  0  0  0
   31.4000   29.8050   47.9040 H   0  0  0  0  0  0  0  0  0  0  0  0
   34.6880   29.4300   47.6340 S   0  0  0  0  0  0  0  0  0  0  0  0
   37.4060   29.4940   50.5100 C   0  0  0  0  0  0  0  0  0  0  0  0
   37.9990   30.7480   50.4320 C   0  0  0  0  0  0  0  0  0  0  0  0
   37.5390   31.6190   49.4440 C   0  0  0  0  0  0  0  0  0  0  0  0
   36.5420   31.2010   48.6130 N   0  0  0  0  0  0  0  0  0  0  0  0
   35.9960   29.9640   48.7300 C   0  0  0  0  0  0  0  0  0  0  0  0
   36.4180   29.1070   49.6710 N   0  0  0  0  0  0  0  0  0  0  0  0
   37.7960   28.8590   51.2900 H   0  0  0  0  0  0  0  0  0  0  0  0
   38.7910   31.0760   51.0940 H   0  0  0  0  0  0  0  0  0  0  0  0
   37.9400   32.6240   49.3020 H   0  0  0  0  0  0  0  0  0  0  0  0
   31.7030   26.5070   46.0610 O   0  0  0  0  0  0  0  0  0  0  0  0
   31.0730   26.9300   44.9040 C   0  0  0  0  0  0  0  0  0  0  0  0
   31.3660   27.9710   44.0520 C   0  0  0  0  0  0  0  0  0  0  0  0
   32.2340   28.5360   44.3560 H   0  0  0  0  0  0  0  0  0  0  0  0
   30.5930   28.2190   42.9380 C   0  0  0  0  0  3  0  0  0  0  0  0
   29.5090   27.4520   42.6290 C   0  0  0  0  0  3  0  0  0  0  0  0
   29.1800   26.3910   43.4650 C   0  0  0  0  0  0  0  0  0  0  0  0
   28.0860   25.6630   43.1000 C   0  0  0  0  0  3  0  0  0  0  0  0
   27.7150   24.5990   43.8940 C   0  0  0  0  0  3  0  0  0  0  0  0
   28.4480   24.3000   45.0230 C   0  0  0  0  0  3  0  0  0  0  0  0
   29.5430   25.0700   45.3400 C   0  0  0  0  0  3  0  0  0  0  0  0
   29.9620   26.1420   44.5900 C   0  0  0  0  0  0  0  0  0  0  0  0
  1  6  1  1  0  0  0
  1  2  1  0  0  0  0
  2  7  1  1  0  0  0
  3  2  1  0  0  0  0
  4  9  1  0  0  0  0
  4  3  1  0  0  0  0
  5 10  1  6  0  0  0
  5  4  1  0  0  0  0
  5  1  1  0  0  0  0
  8  4  1  0  0  0  0
 11  1  1  0  0  0  0
 11 12  1  0  0  0  0
 13  2  1  0  0  0  0
 13 18  1  0  0  0  0
 14 20  1  0  0  0  0
 15 14  1  0  0  0  0
 15 21  1  0  0  0  0
 16 15  2  0  0  0  0
 17 18  2  0  0  0  0
 17 16  1  0  0  0  0
 18 19  1  0  0  0  0
 19 14  2  0  0  0  0
 22 16  1  0  0  0  0
 23  5  1  0  0  0  0
 24 23  1  0  0  0  0
 25 26  1  0  0  0  0
 25 24  2  0  0  0  0
 27 25  1  0  0  0  0
 28 27  2  0  0  0  0
 28 29  1  0  0  0  0
 29 34  1  0  0  0  0
 30 29  2  0  0  0  0
 30 31  1  0  0  0  0
 31 32  2  0  0  0  0
 32 33  1  0  0  0  0
 34 24  1  0  0  0  0
 34 33  2  0  0  0  0
M  END
>  <minimizedAffinity>
-4.35711956

>  <minimizedRMSD>
0.910860062

$$$$
