
 OpenBabel03272500573D

 37 40  0  0  0  0  0  0  0  0999 V2000
   38.2110   31.9050   47.3870 C   0  0  0  0  0  0  0  0  0  0  0  0
   38.8000   32.7570   48.2850 C   0  0  0  0  0  0  0  0  0  0  0  0
   38.3790   32.8460   49.6190 C   0  0  0  0  0  0  0  0  0  0  0  0
   37.2820   31.9930   50.0310 C   0  0  0  0  0  0  0  0  0  0  0  0
   36.7460   31.1740   49.0890 C   0  0  0  0  0  0  0  0  0  0  0  0
   37.1510   31.0970   47.8190 C   0  0  0  0  0  0  0  0  0  0  0  0
   39.6330   33.4140   48.0040 H   0  0  0  0  0  0  0  0  0  0  0  0
   38.8930   33.5470   50.2810 H   0  0  0  0  0  0  0  0  0  0  0  0
   37.0750   32.1670   51.0570 H   0  0  0  0  0  0  0  0  0  0  0  0
   35.9810   30.6250   49.6140 H   0  0  0  0  0  0  0  0  0  0  0  0
   40.0180   31.2360   45.8700 C   0  0  0  0  0  0  0  0  0  0  0  0
   38.7800   31.9140   46.0560 C   0  0  0  0  0  0  0  0  0  0  0  0
   38.2600   32.4940   44.9250 C   0  0  0  0  0  0  0  0  0  0  0  0
   38.9030   32.4050   43.7500 N   0  0  0  0  0  0  0  0  0  0  0  0
   40.0530   31.7730   43.5950 C   0  0  0  0  0  0  0  0  0  0  0  0
   40.6000   31.1930   44.6550 N   0  0  0  0  0  0  0  0  0  0  0  0
   40.5190   30.7410   46.6980 H   0  0  0  0  0  0  0  0  0  0  0  0
   37.3160   33.0090   45.0710 H   0  0  0  0  0  0  0  0  0  0  0  0
   40.4530   31.7850   42.5870 H   0  0  0  0  0  0  0  0  0  0  0  0
   35.1340   30.0820   47.1800 C   0  0  0  0  0  0  0  0  0  0  0  0
   34.6260   30.6550   48.2150 O   0  0  0  0  0  0  0  0  0  0  0  0
   36.5500   30.2630   46.9130 N   0  0  0  0  0  0  0  0  0  0  0  0
   37.0270   29.8080   46.1270 H   0  0  0  0  0  0  0  0  0  0  0  0
   34.3140   29.3290   46.3900 O   0  0  0  0  0  0  0  0  0  0  0  0
   32.9680   29.5250   46.1710 C   0  0  0  0  0  0  0  0  0  0  0  0
   32.5430   30.4680   45.3860 O   0  0  0  0  0  0  0  0  0  0  0  0
   32.0610   28.5820   46.8690 C   0  0  0  0  0  0  0  0  0  0  0  0
   32.5400   27.5320   47.6230 C   0  0  0  0  0  0  0  0  0  0  0  0
   33.6360   27.4280   47.6930 H   0  0  0  0  0  0  0  0  0  0  0  0
   31.7700   26.6140   48.2870 C   0  0  0  0  0  0  0  0  0  0  0  0
   30.4010   26.7210   48.2160 C   0  0  0  0  0  0  0  0  0  0  0  0
   29.8840   27.7410   47.4840 C   0  0  0  0  0  0  0  0  0  0  0  0
   28.5070   27.8080   47.4430 C   0  0  0  0  0  0  0  0  0  0  0  0
   27.8670   28.7980   46.7350 C   0  0  0  0  0  0  0  0  0  0  0  0
   28.6850   29.7150   46.0710 C   0  0  0  0  0  0  0  0  0  0  0  0
   30.0560   29.6020   46.1460 C   0  0  0  0  0  0  0  0  0  0  0  0
   30.6980   28.6290   46.8410 C   0  0  0  0  0  0  0  0  0  0  0  0
  1  6  2  0  0  0  0
  1  2  1  0  0  0  0
  2  3  2  0  0  0  0
  3  4  1  0  0  0  0
  3  8  1  0  0  0  0
  4  9  1  0  0  0  0
  5 10  1  0  0  0  0
  5  4  2  0  0  0  0
  6  5  1  0  0  0  0
  7  2  1  0  0  0  0
 11 12  1  0  0  0  0
 11 17  1  0  0  0  0
 12  1  1  0  0  0  0
 13 18  1  0  0  0  0
 13 12  2  0  0  0  0
 14 13  1  0  0  0  0
 15 14  2  0  0  0  0
 15 16  1  0  0  0  0
 16 11  2  0  0  0  0
 19 15  1  0  0  0  0
 20 21  2  0  0  0  0
 22 20  1  0  0  0  0
 22  6  1  0  0  0  0
 23 22  1  0  0  0  0
 24 20  1  0  0  0  0
 25 24  1  0  0  0  0
 25 27  1  0  0  0  0
 26 25  2  0  0  0  0
 27 28  1  0  0  0  0
 28 29  1  0  0  0  0
 28 30  2  0  0  0  0
 31 30  1  0  0  0  0
 32 31  2  0  0  0  0
 33 32  1  0  0  0  0
 34 33  2  0  0  0  0
 35 36  2  0  0  0  0
 35 34  1  0  0  0  0
 36 37  1  0  0  0  0
 37 27  2  0  0  0  0
 37 32  1  0  0  0  0
M  END
>  <minimizedAffinity>
-6.58453846

>  <minimizedRMSD>
1.75410056

$$$$
