
 OpenBabel03272507173D

 28 31  0  0  1  0  0  0  0  0999 V2000
   33.7510   30.6160   33.1140 C   0  0  1  0  0  0  0  0  0  0  0  0
   34.2130   29.3600   32.5590 C   0  0  2  0  0  0  0  0  0  0  0  0
   32.8420   29.3880   33.2090 C   0  0  0  0  0  0  0  0  0  0  0  0
   33.3360   31.3960   32.4230 H   0  0  0  0  0  0  0  0  0  0  0  0
   34.2500   29.2590   31.4430 H   0  0  0  0  0  0  0  0  0  0  0  0
   32.7060   28.8890   34.1830 H   0  0  0  0  0  0  0  0  0  0  0  0
   32.0060   29.3320   32.4920 H   0  0  0  0  0  0  0  0  0  0  0  0
   34.2160   31.0800   34.4780 C   0  0  0  0  0  0  0  0  0  0  0  0
   35.5830   31.3210   34.6180 C   0  0  0  0  0  0  0  0  0  0  0  0
   35.9960   31.7210   35.8770 C   0  0  0  0  0  0  0  0  0  0  0  0
   35.0800   31.8590   36.8920 N   0  0  0  0  0  0  0  0  0  0  0  0
   33.7570   31.6150   36.7150 C   0  0  0  0  0  0  0  0  0  0  0  0
   33.3270   31.2210   35.4930 N   0  0  0  0  0  0  0  0  0  0  0  0
   36.2380   31.1880   33.7690 H   0  0  0  0  0  0  0  0  0  0  0  0
   37.0450   31.9220   36.0410 H   0  0  0  0  0  0  0  0  0  0  0  0
   33.0880   31.7410   37.5550 H   0  0  0  0  0  0  0  0  0  0  0  0
   35.1640   28.6150   33.2350 O   0  0  0  0  0  0  0  0  0  0  0  0
   36.3060   28.1710   32.6090 C   0  0  0  0  0  0  0  0  0  0  0  0
   36.6450   28.0560   31.2850 C   0  0  0  0  0  0  0  0  0  0  0  0
   35.8920   28.3670   30.5920 H   0  0  0  0  0  0  0  0  0  0  0  0
   37.8500   27.5840   30.8360 C   0  0  0  0  0  3  0  0  0  0  0  0
   38.8150   27.1850   31.7100 C   0  0  0  0  0  3  0  0  0  0  0  0
   38.5330   27.2770   33.0570 C   0  0  0  0  0  0  0  0  0  0  0  0
   39.5320   26.8650   33.9150 C   0  0  0  0  0  3  0  0  0  0  0  0
   39.3230   26.9240   35.2760 C   0  0  0  0  0  3  0  0  0  0  0  0
   38.1230   27.3940   35.7630 C   0  0  0  0  0  3  0  0  0  0  0  0
   37.1650   27.7920   34.8550 C   0  0  0  0  0  3  0  0  0  0  0  0
   37.3160   27.7550   33.4870 C   0  0  0  0  0  0  0  0  0  0  0  0
  1  4  1  6  0  0  0
  1  3  1  0  0  0  0
  1  8  1  0  0  0  0
  2  5  1  6  0  0  0
  2  1  1  0  0  0  0
  2  3  1  0  0  0  0
  2 17  1  0  0  0  0
  3  6  1  0  0  0  0
  7  3  1  0  0  0  0
  8  9  2  0  0  0  0
  8 13  1  0  0  0  0
  9 10  1  0  0  0  0
 10 15  1  0  0  0  0
 10 11  2  0  0  0  0
 12 11  1  0  0  0  0
 12 16  1  0  0  0  0
 13 12  2  0  0  0  0
 14  9  1  0  0  0  0
 18 17  1  0  0  0  0
 18 28  1  0  0  0  0
 19 18  2  0  0  0  0
 20 19  1  0  0  0  0
 21 19  1  0  0  0  0
 21 22  2  0  0  0  0
 22 23  1  0  0  0  0
 23 28  2  0  0  0  0
 23 24  1  0  0  0  0
 24 25  2  0  0  0  0
 25 26  1  0  0  0  0
 27 26  2  0  0  0  0
 28 27  1  0  0  0  0
M  END
>  <minimizedAffinity>
-5.42378092

$$$$

 OpenBabel03272507173D

 28 31  0  0  1  0  0  0  0  0999 V2000
   35.9620   23.0000   31.6990 C   0  0  1  0  0  0  0  0  0  0  0  0
   37.0340   23.7950   32.2640 C   0  0  2  0  0  0  0  0  0  0  0  0
   37.1370   23.3980   30.8030 C   0  0  0  0  0  0  0  0  0  0  0  0
   35.0100   23.5080   31.3980 H   0  0  0  0  0  0  0  0  0  0  0  0
   36.8280   24.8730   32.4900 H   0  0  0  0  0  0  0  0  0  0  0  0
   37.8780   22.6350   30.5110 H   0  0  0  0  0  0  0  0  0  0  0  0
   36.9660   24.2310   30.1000 H   0  0  0  0  0  0  0  0  0  0  0  0
   35.9050   21.5040   31.9220 C   0  0  0  0  0  0  0  0  0  0  0  0
   36.1950   20.7000   30.8200 C   0  0  0  0  0  0  0  0  0  0  0  0
   36.1160   19.3350   31.0340 C   0  0  0  0  0  0  0  0  0  0  0  0
   35.7700   18.8510   32.2720 N   0  0  0  0  0  0  0  0  0  0  0  0
   35.4950   19.6650   33.3220 C   0  0  0  0  0  0  0  0  0  0  0  0
   35.5650   21.0060   33.1380 N   0  0  0  0  0  0  0  0  0  0  0  0
   36.4590   21.1610   29.8780 H   0  0  0  0  0  0  0  0  0  0  0  0
   36.3310   18.6660   30.2130 H   0  0  0  0  0  0  0  0  0  0  0  0
   35.2290   19.2210   34.2700 H   0  0  0  0  0  0  0  0  0  0  0  0
   37.9680   23.2020   33.0960 O   0  0  0  0  0  0  0  0  0  0  0  0
   37.9580   23.4190   34.4550 C   0  0  0  0  0  0  0  0  0  0  0  0
   37.7830   22.5750   35.5210 C   0  0  0  0  0  0  0  0  0  0  0  0
   37.6220   21.5480   35.2680 H   0  0  0  0  0  0  0  0  0  0  0  0
   37.8050   22.9730   36.8310 C   0  0  0  0  0  3  0  0  0  0  0  0
   38.0080   24.2780   37.1630 C   0  0  0  0  0  3  0  0  0  0  0  0
   38.1920   25.1770   36.1330 C   0  0  0  0  0  0  0  0  0  0  0  0
   38.3950   26.4890   36.5040 C   0  0  0  0  0  3  0  0  0  0  0  0
   38.5840   27.4460   35.5310 C   0  0  0  0  0  3  0  0  0  0  0  0
   38.5680   27.0820   34.2020 C   0  0  0  0  0  3  0  0  0  0  0  0
   38.3610   25.7540   33.8960 C   0  0  0  0  0  3  0  0  0  0  0  0
   38.1660   24.7540   34.8230 C   0  0  0  0  0  0  0  0  0  0  0  0
  1  4  1  6  0  0  0
  1  8  1  0  0  0  0
  1  2  1  0  0  0  0
  2  5  1  1  0  0  0
  2 17  1  0  0  0  0
  3  1  1  0  0  0  0
  3  2  1  0  0  0  0
  6  3  1  0  0  0  0
  7  3  1  0  0  0  0
  8 13  1  0  0  0  0
  9 10  1  0  0  0  0
  9  8  2  0  0  0  0
 10 11  2  0  0  0  0
 11 12  1  0  0  0  0
 12 16  1  0  0  0  0
 13 12  2  0  0  0  0
 14  9  1  0  0  0  0
 15 10  1  0  0  0  0
 17 18  1  0  0  0  0
 18 28  2  0  0  0  0
 18 19  1  0  0  0  0
 19 21  2  0  0  0  0
 20 19  1  0  0  0  0
 21 22  1  0  0  0  0
 23 24  1  0  0  0  0
 23 22  2  0  0  0  0
 25 24  2  0  0  0  0
 26 25  1  0  0  0  0
 27 26  2  0  0  0  0
 27 28  1  0  0  0  0
 28 23  1  0  0  0  0
M  END
>  <minimizedAffinity>
-5.40204477

$$$$

 OpenBabel03272507173D

 28 31  0  0  1  0  0  0  0  0999 V2000
   37.0750   27.7500   34.3570 C   0  0  1  0  0  0  0  0  0  0  0  0
   37.2260   26.5390   35.1380 C   0  0  2  0  0  0  0  0  0  0  0  0
   38.3760   27.5300   35.1310 C   0  0  0  0  0  0  0  0  0  0  0  0
   36.4710   28.5960   34.7770 H   0  0  0  0  0  0  0  0  0  0  0  0
   36.6340   26.4460   36.0850 H   0  0  0  0  0  0  0  0  0  0  0  0
   39.2960   27.2710   34.5820 H   0  0  0  0  0  0  0  0  0  0  0  0
   38.4920   28.0860   36.0770 H   0  0  0  0  0  0  0  0  0  0  0  0
   37.3020   27.7410   32.8600 C   0  0  0  0  0  0  0  0  0  0  0  0
   36.1840   27.9820   32.0620 C   0  0  0  0  0  0  0  0  0  0  0  0
   36.4030   27.9480   30.6950 C   0  0  0  0  0  0  0  0  0  0  0  0
   37.6600   27.6890   30.2050 N   0  0  0  0  0  0  0  0  0  0  0  0
   38.7240   27.4600   31.0160 C   0  0  0  0  0  0  0  0  0  0  0  0
   38.5360   27.4870   32.3570 N   0  0  0  0  0  0  0  0  0  0  0  0
   35.2280   28.1780   32.5270 H   0  0  0  0  0  0  0  0  0  0  0  0
   35.5710   28.1280   30.0300 H   0  0  0  0  0  0  0  0  0  0  0  0
   39.6870   27.2610   30.5670 H   0  0  0  0  0  0  0  0  0  0  0  0
   37.4880   25.3370   34.5040 O   0  0  0  0  0  0  0  0  0  0  0  0
   38.6470   24.6350   34.7460 C   0  0  0  0  0  0  0  0  0  0  0  0
   39.7200   24.3270   33.9510 C   0  0  0  0  0  0  0  0  0  0  0  0
   39.6650   24.6940   32.9470 H   0  0  0  0  0  0  0  0  0  0  0  0
   40.8070   23.6050   34.3680 C   0  0  0  0  0  3  0  0  0  0  0  0
   40.8860   23.1330   35.6430 C   0  0  0  0  0  3  0  0  0  0  0  0
   39.8360   23.4110   36.4920 C   0  0  0  0  0  0  0  0  0  0  0  0
   39.9480   22.9190   37.7750 C   0  0  0  0  0  3  0  0  0  0  0  0
   38.9370   23.1530   38.6820 C   0  0  0  0  0  3  0  0  0  0  0  0
   37.8290   23.8770   38.2970 C   0  0  0  0  0  3  0  0  0  0  0  0
   37.7760   24.3430   37.0010 C   0  0  0  0  0  3  0  0  0  0  0  0
   38.7540   24.1400   36.0520 C   0  0  0  0  0  0  0  0  0  0  0  0
  1  4  1  1  0  0  0
  1  3  1  0  0  0  0
  1  2  1  0  0  0  0
  2  5  1  1  0  0  0
  3  2  1  0  0  0  0
  3  7  1  0  0  0  0
  6  3  1  0  0  0  0
  8  1  1  0  0  0  0
  9 14  1  0  0  0  0
  9  8  2  0  0  0  0
 10  9  1  0  0  0  0
 11 10  2  0  0  0  0
 11 12  1  0  0  0  0
 12 13  2  0  0  0  0
 13  8  1  0  0  0  0
 15 10  1  0  0  0  0
 16 12  1  0  0  0  0
 17 18  1  0  0  0  0
 17  2  1  0  0  0  0
 18 28  1  0  0  0  0
 19 21  1  0  0  0  0
 19 18  2  0  0  0  0
 20 19  1  0  0  0  0
 21 22  2  0  0  0  0
 22 23  1  0  0  0  0
 23 24  1  0  0  0  0
 24 25  2  0  0  0  0
 26 25  1  0  0  0  0
 27 26  2  0  0  0  0
 28 23  2  0  0  0  0
 28 27  1  0  0  0  0
M  END
>  <minimizedAffinity>
-5.35012913

$$$$

 OpenBabel03272507173D

 28 31  0  0  1  0  0  0  0  0999 V2000
   39.5360   26.0280   35.2470 C   0  0  1  0  0  0  0  0  0  0  0  0
   39.0130   27.0220   34.3310 C   0  0  2  0  0  0  0  0  0  0  0  0
   38.7850   27.2330   35.8160 C   0  0  0  0  0  0  0  0  0  0  0  0
   40.6260   26.0480   35.5060 H   0  0  0  0  0  0  0  0  0  0  0  0
   39.7430   27.7030   33.8210 H   0  0  0  0  0  0  0  0  0  0  0  0
   37.7690   27.0960   36.2220 H   0  0  0  0  0  0  0  0  0  0  0  0
   39.3980   28.0400   36.2520 H   0  0  0  0  0  0  0  0  0  0  0  0
   38.7910   24.7330   35.4930 C   0  0  0  0  0  0  0  0  0  0  0  0
   38.2430   24.5640   36.7650 C   0  0  0  0  0  0  0  0  0  0  0  0
   37.5860   23.3650   36.9810 C   0  0  0  0  0  0  0  0  0  0  0  0
   37.5050   22.4320   35.9760 N   0  0  0  0  0  0  0  0  0  0  0  0
   38.0510   22.6330   34.7510 C   0  0  0  0  0  0  0  0  0  0  0  0
   38.7010   23.7980   34.5130 N   0  0  0  0  0  0  0  0  0  0  0  0
   38.3510   25.3480   37.5010 H   0  0  0  0  0  0  0  0  0  0  0  0
   37.1410   23.1830   37.9490 H   0  0  0  0  0  0  0  0  0  0  0  0
   37.9540   21.8590   34.0030 H   0  0  0  0  0  0  0  0  0  0  0  0
   37.8710   26.7520   33.5980 O   0  0  0  0  0  0  0  0  0  0  0  0
   37.5860   27.4320   32.4360 C   0  0  0  0  0  0  0  0  0  0  0  0
   38.0920   27.3370   31.1650 C   0  0  0  0  0  0  0  0  0  0  0  0
   38.8550   26.5980   31.0320 H   0  0  0  0  0  0  0  0  0  0  0  0
   37.6810   28.1090   30.1120 C   0  0  0  0  0  3  0  0  0  0  0  0
   36.7120   29.0520   30.2710 C   0  0  0  0  0  3  0  0  0  0  0  0
   36.1620   29.1950   31.5280 C   0  0  0  0  0  0  0  0  0  0  0  0
   35.1840   30.1590   31.6550 C   0  0  0  0  0  3  0  0  0  0  0  0
   34.5890   30.3630   32.8810 C   0  0  0  0  0  3  0  0  0  0  0  0
   34.9780   29.6030   33.9640 C   0  0  0  0  0  3  0  0  0  0  0  0
   35.9600   28.6560   33.7730 C   0  0  0  0  0  3  0  0  0  0  0  0
   36.5900   28.4080   32.5730 C   0  0  0  0  0  0  0  0  0  0  0  0
  1  8  1  0  0  0  0
  1  4  1  1  0  0  0
  1  3  1  0  0  0  0
  2  5  1  6  0  0  0
  2  1  1  0  0  0  0
  2  3  1  0  0  0  0
  3  6  1  0  0  0  0
  3  7  1  0  0  0  0
  8  9  1  0  0  0  0
  9 10  2  0  0  0  0
  9 14  1  0  0  0  0
 10 15  1  0  0  0  0
 11 10  1  0  0  0  0
 12 11  2  0  0  0  0
 13 12  1  0  0  0  0
 13  8  2  0  0  0  0
 16 12  1  0  0  0  0
 17  2  1  0  0  0  0
 18 28  1  0  0  0  0
 18 17  1  0  0  0  0
 19 18  2  0  0  0  0
 20 19  1  0  0  0  0
 21 22  2  0  0  0  0
 21 19  1  0  0  0  0
 22 23  1  0  0  0  0
 23 24  2  0  0  0  0
 23 28  1  0  0  0  0
 24 25  1  0  0  0  0
 25 26  2  0  0  0  0
 27 26  1  0  0  0  0
 28 27  2  0  0  0  0
M  END
>  <minimizedAffinity>
-5.32038403

$$$$

 OpenBabel03272507173D

 28 31  0  0  1  0  0  0  0  0999 V2000
   38.6410   27.1480   34.0340 C   0  0  1  0  0  0  0  0  0  0  0  0
   37.7120   26.3080   34.7620 C   0  0  2  0  0  0  0  0  0  0  0  0
   38.6000   27.2440   35.5610 C   0  0  0  0  0  0  0  0  0  0  0  0
   38.2600   28.0810   33.5420 H   0  0  0  0  0  0  0  0  0  0  0  0
   36.6210   26.5590   34.7060 H   0  0  0  0  0  0  0  0  0  0  0  0
   39.4250   26.8160   36.1530 H   0  0  0  0  0  0  0  0  0  0  0  0
   38.0660   28.1090   35.9910 H   0  0  0  0  0  0  0  0  0  0  0  0
   39.9620   26.5970   33.5400 C   0  0  0  0  0  0  0  0  0  0  0  0
   41.0940   26.9450   34.2760 C   0  0  0  0  0  0  0  0  0  0  0  0
   42.2960   26.4520   33.7980 C   0  0  0  0  0  0  0  0  0  0  0  0
   42.3200   25.6740   32.6660 N   0  0  0  0  0  0  0  0  0  0  0  0
   41.1960   25.3560   31.9770 C   0  0  0  0  0  0  0  0  0  0  0  0
   40.0060   25.8260   32.4240 N   0  0  0  0  0  0  0  0  0  0  0  0
   40.9890   27.5630   35.1570 H   0  0  0  0  0  0  0  0  0  0  0  0
   43.2050   26.6910   34.3310 H   0  0  0  0  0  0  0  0  0  0  0  0
   41.2830   24.7400   31.0930 H   0  0  0  0  0  0  0  0  0  0  0  0
   37.9840   24.9610   34.9290 O   0  0  0  0  0  0  0  0  0  0  0  0
   38.2380   24.4290   36.1720 C   0  0  0  0  0  0  0  0  0  0  0  0
   37.5870   24.5410   37.3730 C   0  0  0  0  0  0  0  0  0  0  0  0
   36.7100   25.1550   37.3610 H   0  0  0  0  0  0  0  0  0  0  0  0
   37.9900   23.9290   38.5300 C   0  0  0  0  0  3  0  0  0  0  0  0
   39.1040   23.1450   38.5550 C   0  0  0  0  0  3  0  0  0  0  0  0
   39.8040   22.9930   37.3760 C   0  0  0  0  0  0  0  0  0  0  0  0
   40.9260   22.1940   37.4370 C   0  0  0  0  0  3  0  0  0  0  0  0
   41.6790   21.9960   36.3000 C   0  0  0  0  0  3  0  0  0  0  0  0
   41.3020   22.5970   35.1180 C   0  0  0  0  0  3  0  0  0  0  0  0
   40.1700   23.3830   35.1220 C   0  0  0  0  0  3  0  0  0  0  0  0
   39.3790   23.6180   36.2250 C   0  0  0  0  0  0  0  0  0  0  0  0
  1  4  1  6  0  0  0
  1  2  1  0  0  0  0
  1  3  1  0  0  0  0
  2  5  1  6  0  0  0
  2 17  1  0  0  0  0
  2  3  1  0  0  0  0
  3  7  1  0  0  0  0
  3  6  1  0  0  0  0
  8  1  1  0  0  0  0
  8  9  1  0  0  0  0
  9 14  1  0  0  0  0
 10  9  2  0  0  0  0
 10 15  1  0  0  0  0
 11 10  1  0  0  0  0
 12 13  1  0  0  0  0
 12 11  2  0  0  0  0
 13  8  2  0  0  0  0
 16 12  1  0  0  0  0
 17 18  1  0  0  0  0
 18 28  2  0  0  0  0
 18 19  1  0  0  0  0
 19 21  2  0  0  0  0
 20 19  1  0  0  0  0
 21 22  1  0  0  0  0
 23 24  1  0  0  0  0
 23 22  2  0  0  0  0
 25 24  2  0  0  0  0
 26 27  2  0  0  0  0
 26 25  1  0  0  0  0
 27 28  1  0  0  0  0
 28 23  1  0  0  0  0
M  END
>  <minimizedAffinity>
-5.30318499

$$$$

 OpenBabel03272507173D

 28 31  0  0  1  0  0  0  0  0999 V2000
   38.7400   26.6630   35.4030 C   0  0  1  0  0  0  0  0  0  0  0  0
   38.5200   27.0350   34.0200 C   0  0  2  0  0  0  0  0  0  0  0  0
   37.3260   27.0380   34.9550 C   0  0  0  0  0  0  0  0  0  0  0  0
   39.1750   27.4200   36.1060 H   0  0  0  0  0  0  0  0  0  0  0  0
   38.9050   28.0290   33.6740 H   0  0  0  0  0  0  0  0  0  0  0  0
   36.5640   26.2490   34.8470 H   0  0  0  0  0  0  0  0  0  0  0  0
   36.9710   28.0480   35.2230 H   0  0  0  0  0  0  0  0  0  0  0  0
   38.8350   25.2080   35.8100 C   0  0  0  0  0  0  0  0  0  0  0  0
   40.0180   24.5470   35.4810 C   0  0  0  0  0  0  0  0  0  0  0  0
   40.0790   23.2110   35.8390 C   0  0  0  0  0  0  0  0  0  0  0  0
   39.0170   22.6190   36.4770 N   0  0  0  0  0  0  0  0  0  0  0  0
   37.8810   23.2960   36.7810 C   0  0  0  0  0  0  0  0  0  0  0  0
   37.7950   24.6050   36.4400 N   0  0  0  0  0  0  0  0  0  0  0  0
   40.8080   25.0860   34.9780 H   0  0  0  0  0  0  0  0  0  0  0  0
   40.9750   22.6510   35.6080 H   0  0  0  0  0  0  0  0  0  0  0  0
   37.0800   22.7720   37.2830 H   0  0  0  0  0  0  0  0  0  0  0  0
   38.4900   26.0580   33.0390 O   0  0  0  0  0  0  0  0  0  0  0  0
   37.3500   25.8070   32.3110 C   0  0  0  0  0  0  0  0  0  0  0  0
   36.5040   26.6290   31.6130 C   0  0  0  0  0  0  0  0  0  0  0  0
   36.7630   27.6670   31.6250 H   0  0  0  0  0  0  0  0  0  0  0  0
   35.3960   26.1970   30.9330 C   0  0  0  0  0  3  0  0  0  0  0  0
   35.0580   24.8780   30.9120 C   0  0  0  0  0  3  0  0  0  0  0  0
   35.8720   24.0000   31.5960 C   0  0  0  0  0  0  0  0  0  0  0  0
   35.5000   22.6720   31.5550 C   0  0  0  0  0  3  0  0  0  0  0  0
   36.2630   21.7350   32.2170 C   0  0  0  0  0  3  0  0  0  0  0  0
   37.3850   22.1340   32.9110 C   0  0  0  0  0  3  0  0  0  0  0  0
   37.7040   23.4740   32.9140 C   0  0  0  0  0  3  0  0  0  0  0  0
   36.9810   24.4560   32.2720 C   0  0  0  0  0  0  0  0  0  0  0  0
  1  8  1  0  0  0  0
  1  4  1  1  0  0  0
  2  5  1  6  0  0  0
  2  3  1  0  0  0  0
  2  1  1  0  0  0  0
  3  7  1  0  0  0  0
  3  1  1  0  0  0  0
  6  3  1  0  0  0  0
  8 13  1  0  0  0  0
  9  8  2  0  0  0  0
  9 10  1  0  0  0  0
 10 11  2  0  0  0  0
 11 12  1  0  0  0  0
 12 16  1  0  0  0  0
 13 12  2  0  0  0  0
 14  9  1  0  0  0  0
 15 10  1  0  0  0  0
 17  2  1  0  0  0  0
 18 17  1  0  0  0  0
 19 20  1  0  0  0  0
 19 18  2  0  0  0  0
 21 19  1  0  0  0  0
 22 21  2  0  0  0  0
 22 23  1  0  0  0  0
 23 28  1  0  0  0  0
 24 23  2  0  0  0  0
 24 25  1  0  0  0  0
 25 26  2  0  0  0  0
 26 27  1  0  0  0  0
 28 18  1  0  0  0  0
 28 27  2  0  0  0  0
M  END
>  <minimizedAffinity>
-5.27640629

$$$$

 OpenBabel03272507173D

 28 31  0  0  1  0  0  0  0  0999 V2000
   39.5750   25.9440   35.3170 C   0  0  1  0  0  0  0  0  0  0  0  0
   38.9900   26.9830   34.4930 C   0  0  2  0  0  0  0  0  0  0  0  0
   38.8920   27.1310   36.0000 C   0  0  0  0  0  0  0  0  0  0  0  0
   40.6830   25.9420   35.4830 H   0  0  0  0  0  0  0  0  0  0  0  0
   39.6820   27.6790   33.9520 H   0  0  0  0  0  0  0  0  0  0  0  0
   37.9120   26.9860   36.4850 H   0  0  0  0  0  0  0  0  0  0  0  0
   39.5510   27.9120   36.4160 H   0  0  0  0  0  0  0  0  0  0  0  0
   38.8370   24.6470   35.5700 C   0  0  0  0  0  0  0  0  0  0  0  0
   38.8790   23.6990   34.5480 C   0  0  0  0  0  0  0  0  0  0  0  0
   38.1800   22.5280   34.7860 C   0  0  0  0  0  0  0  0  0  0  0  0
   37.5030   22.3570   35.9690 N   0  0  0  0  0  0  0  0  0  0  0  0
   37.4860   23.3040   36.9400 C   0  0  0  0  0  0  0  0  0  0  0  0
   38.1620   24.4600   36.7330 N   0  0  0  0  0  0  0  0  0  0  0  0
   39.4360   23.9110   33.6460 H   0  0  0  0  0  0  0  0  0  0  0  0
   38.1800   21.7580   34.0270 H   0  0  0  0  0  0  0  0  0  0  0  0
   36.9330   23.1090   37.8490 H   0  0  0  0  0  0  0  0  0  0  0  0
   37.7850   26.7560   33.8490 O   0  0  0  0  0  0  0  0  0  0  0  0
   36.9490   27.7930   33.5050 C   0  0  0  0  0  0  0  0  0  0  0  0
   36.0190   28.5030   34.2200 C   0  0  0  0  0  0  0  0  0  0  0  0
   35.9090   28.2090   35.2430 H   0  0  0  0  0  0  0  0  0  0  0  0
   35.2640   29.5230   33.7050 C   0  0  0  0  0  3  0  0  0  0  0  0
   35.3970   29.9040   32.4050 C   0  0  0  0  0  3  0  0  0  0  0  0
   36.3180   29.2280   31.6330 C   0  0  0  0  0  0  0  0  0  0  0  0
   36.4270   29.6390   30.3210 C   0  0  0  0  0  3  0  0  0  0  0  0
   37.3250   29.0090   29.4860 C   0  0  0  0  0  3  0  0  0  0  0  0
   38.1020   27.9790   29.9710 C   0  0  0  0  0  3  0  0  0  0  0  0
   37.9470   27.6150   31.2910 C   0  0  0  0  0  3  0  0  0  0  0  0
   37.0670   28.2060   32.1710 C   0  0  0  0  0  0  0  0  0  0  0  0
  1  4  1  1  0  0  0
  1  8  1  0  0  0  0
  1  3  1  0  0  0  0
  2  5  1  6  0  0  0
  2  1  1  0  0  0  0
  2  3  1  0  0  0  0
  3  7  1  0  0  0  0
  3  6  1  0  0  0  0
  8 13  1  0  0  0  0
  9 10  1  0  0  0  0
  9  8  2  0  0  0  0
 10 11  2  0  0  0  0
 11 12  1  0  0  0  0
 12 16  1  0  0  0  0
 13 12  2  0  0  0  0
 14  9  1  0  0  0  0
 15 10  1  0  0  0  0
 17  2  1  0  0  0  0
 18 17  1  0  0  0  0
 18 19  1  0  0  0  0
 19 20  1  0  0  0  0
 21 19  2  0  0  0  0
 22 21  1  0  0  0  0
 23 28  1  0  0  0  0
 23 22  2  0  0  0  0
 24 23  1  0  0  0  0
 25 26  1  0  0  0  0
 25 24  2  0  0  0  0
 26 27  2  0  0  0  0
 27 28  1  0  0  0  0
 28 18  2  0  0  0  0
M  END
>  <minimizedAffinity>
-5.22892904

$$$$

 OpenBabel03272507173D

 28 31  0  0  1  0  0  0  0  0999 V2000
   37.1080   24.4110   30.7310 C   0  0  1  0  0  0  0  0  0  0  0  0
   38.0410   25.2340   31.4730 C   0  0  2  0  0  0  0  0  0  0  0  0
   38.5380   24.5600   30.2080 C   0  0  0  0  0  0  0  0  0  0  0  0
   36.3580   24.9070   30.0610 H   0  0  0  0  0  0  0  0  0  0  0  0
   37.9020   26.3460   31.4420 H   0  0  0  0  0  0  0  0  0  0  0  0
   39.2380   23.7130   30.2970 H   0  0  0  0  0  0  0  0  0  0  0  0
   38.6880   25.2520   29.3620 H   0  0  0  0  0  0  0  0  0  0  0  0
   36.8120   22.9910   31.1640 C   0  0  0  0  0  0  0  0  0  0  0  0
   35.6450   22.7980   31.9050 C   0  0  0  0  0  0  0  0  0  0  0  0
   35.4010   21.4970   32.3130 C   0  0  0  0  0  0  0  0  0  0  0  0
   36.2810   20.4950   31.9840 N   0  0  0  0  0  0  0  0  0  0  0  0
   37.4060   20.7230   31.2610 C   0  0  0  0  0  0  0  0  0  0  0  0
   37.6690   21.9870   30.8500 N   0  0  0  0  0  0  0  0  0  0  0  0
   35.0050   23.6410   32.1220 H   0  0  0  0  0  0  0  0  0  0  0  0
   34.5110   21.2920   32.8900 H   0  0  0  0  0  0  0  0  0  0  0  0
   38.0580   19.8910   31.0360 H   0  0  0  0  0  0  0  0  0  0  0  0
   38.6000   24.7570   32.6460 O   0  0  0  0  0  0  0  0  0  0  0  0
   38.5480   25.4840   33.8130 C   0  0  0  0  0  0  0  0  0  0  0  0
   38.7020   26.8210   34.0740 C   0  0  0  0  0  0  0  0  0  0  0  0
   38.9010   27.4320   33.2180 H   0  0  0  0  0  0  0  0  0  0  0  0
   38.6150   27.3790   35.3220 C   0  0  0  0  0  3  0  0  0  0  0  0
   38.3630   26.6090   36.4160 C   0  0  0  0  0  3  0  0  0  0  0  0
   38.1990   25.2540   36.2190 C   0  0  0  0  0  0  0  0  0  0  0  0
   37.9450   24.5030   37.3480 C   0  0  0  0  0  3  0  0  0  0  0  0
   37.7710   23.1420   37.2320 C   0  0  0  0  0  3  0  0  0  0  0  0
   37.8510   22.5460   35.9910 C   0  0  0  0  0  3  0  0  0  0  0  0
   38.1060   23.3500   34.9010 C   0  0  0  0  0  3  0  0  0  0  0  0
   38.2890   24.7140   34.9560 C   0  0  0  0  0  0  0  0  0  0  0  0
  1  4  1  6  0  0  0
  1  8  1  0  0  0  0
  1  2  1  0  0  0  0
  2  5  1  6  0  0  0
  2 17  1  0  0  0  0
  3  6  1  0  0  0  0
  3  1  1  0  0  0  0
  3  2  1  0  0  0  0
  7  3  1  0  0  0  0
  8  9  1  0  0  0  0
  9 14  1  0  0  0  0
  9 10  2  0  0  0  0
 10 15  1  0  0  0  0
 11 10  1  0  0  0  0
 12 11  2  0  0  0  0
 13  8  2  0  0  0  0
 13 12  1  0  0  0  0
 16 12  1  0  0  0  0
 17 18  1  0  0  0  0
 18 19  2  0  0  0  0
 18 28  1  0  0  0  0
 19 21  1  0  0  0  0
 20 19  1  0  0  0  0
 21 22  2  0  0  0  0
 23 22  1  0  0  0  0
 23 24  1  0  0  0  0
 25 24  2  0  0  0  0
 26 25  1  0  0  0  0
 27 28  1  0  0  0  0
 27 26  2  0  0  0  0
 28 23  2  0  0  0  0
M  END
>  <minimizedAffinity>
-5.21026945

$$$$

 OpenBabel03272507173D

 28 31  0  0  1  0  0  0  0  0999 V2000
   39.6110   26.0330   35.2420 C   0  0  1  0  0  0  0  0  0  0  0  0
   39.0490   27.0270   34.3490 C   0  0  2  0  0  0  0  0  0  0  0  0
   38.8450   27.2150   35.8410 C   0  0  0  0  0  0  0  0  0  0  0  0
   40.7050   26.0730   35.4800 H   0  0  0  0  0  0  0  0  0  0  0  0
   39.7540   27.7300   33.8340 H   0  0  0  0  0  0  0  0  0  0  0  0
   37.8410   27.0510   36.2640 H   0  0  0  0  0  0  0  0  0  0  0  0
   39.4490   28.0290   36.2750 H   0  0  0  0  0  0  0  0  0  0  0  0
   38.9000   24.7190   35.4860 C   0  0  0  0  0  0  0  0  0  0  0  0
   38.9640   23.7780   34.4580 C   0  0  0  0  0  0  0  0  0  0  0  0
   38.2890   22.5910   34.6880 C   0  0  0  0  0  0  0  0  0  0  0  0
   37.6140   22.3990   35.8680 N   0  0  0  0  0  0  0  0  0  0  0  0
   37.5740   23.3400   36.8450 C   0  0  0  0  0  0  0  0  0  0  0  0
   38.2260   24.5110   36.6450 N   0  0  0  0  0  0  0  0  0  0  0  0
   39.5180   24.0070   33.5590 H   0  0  0  0  0  0  0  0  0  0  0  0
   38.3080   21.8260   33.9240 H   0  0  0  0  0  0  0  0  0  0  0  0
   37.0240   23.1280   37.7510 H   0  0  0  0  0  0  0  0  0  0  0  0
   37.8990   26.7410   33.6350 O   0  0  0  0  0  0  0  0  0  0  0  0
   37.6030   27.3920   32.4590 C   0  0  0  0  0  0  0  0  0  0  0  0
   38.0950   27.2640   31.1860 C   0  0  0  0  0  0  0  0  0  0  0  0
   38.8540   26.5200   31.0630 H   0  0  0  0  0  0  0  0  0  0  0  0
   37.6750   28.0110   30.1180 C   0  0  0  0  0  3  0  0  0  0  0  0
   36.7090   28.9600   30.2640 C   0  0  0  0  0  3  0  0  0  0  0  0
   36.1740   29.1370   31.5230 C   0  0  0  0  0  0  0  0  0  0  0  0
   35.1990   30.1060   31.6370 C   0  0  0  0  0  3  0  0  0  0  0  0
   34.6180   30.3420   32.8640 C   0  0  0  0  0  3  0  0  0  0  0  0
   35.0170   29.6080   33.9600 C   0  0  0  0  0  3  0  0  0  0  0  0
   35.9940   28.6540   33.7830 C   0  0  0  0  0  3  0  0  0  0  0  0
   36.6110   28.3740   32.5830 C   0  0  0  0  0  0  0  0  0  0  0  0
  1  4  1  1  0  0  0
  1  8  1  0  0  0  0
  1  3  1  0  0  0  0
  2  5  1  6  0  0  0
  2  1  1  0  0  0  0
  2  3  1  0  0  0  0
  3  6  1  0  0  0  0
  3  7  1  0  0  0  0
  8 13  1  0  0  0  0
  9 10  1  0  0  0  0
  9  8  2  0  0  0  0
 10 11  2  0  0  0  0
 11 12  1  0  0  0  0
 12 16  1  0  0  0  0
 13 12  2  0  0  0  0
 14  9  1  0  0  0  0
 15 10  1  0  0  0  0
 17  2  1  0  0  0  0
 18 28  1  0  0  0  0
 18 17  1  0  0  0  0
 19 18  2  0  0  0  0
 20 19  1  0  0  0  0
 21 22  2  0  0  0  0
 21 19  1  0  0  0  0
 22 23  1  0  0  0  0
 23 24  2  0  0  0  0
 23 28  1  0  0  0  0
 24 25  1  0  0  0  0
 25 26  2  0  0  0  0
 27 26  1  0  0  0  0
 28 27  2  0  0  0  0
M  END
>  <minimizedAffinity>
-5.19830894

$$$$
