
 OpenBabel03272506453D

 34 37  0  0  1  0  0  0  0  0999 V2000
   37.7440   24.9820   32.1680 C   0  0  2  0  0  0  0  0  0  0  0  0
   37.3800   24.0660   31.0090 C   0  0  1  0  0  0  0  0  0  0  0  0
   38.2020   22.9810   31.0580 O   0  0  0  0  0  0  0  0  0  0  0  0
   38.9280   23.0140   32.2280 C   0  0  0  0  0  0  0  0  0  0  0  0
   38.1530   23.9290   33.1920 C   0  0  1  0  0  0  0  0  0  0  0  0
   38.5950   25.6310   31.9100 H   0  0  0  0  0  0  0  0  0  0  0  0
   37.4440   24.6580   30.0770 H   0  0  0  0  0  0  0  0  0  0  0  0
   38.9160   21.9890   32.6550 H   0  0  0  0  0  0  0  0  0  0  0  0
   39.9490   23.4010   32.0770 H   0  0  0  0  0  0  0  0  0  0  0  0
   37.2370   23.4350   33.5180 H   0  0  0  0  0  0  0  0  0  0  0  0
   36.6390   25.7100   32.5990 O   0  0  0  0  0  0  0  0  0  0  0  0
   36.6200   26.5790   32.1310 H   0  0  0  0  0  0  0  0  0  0  0  0
   35.6770   23.5020   31.3130 S   0  0  0  0  0  0  0  0  0  0  0  0
   35.5870   20.1130   33.3560 C   0  0  0  0  0  0  0  0  0  0  0  0
   35.7540   19.1070   32.4130 C   0  0  0  0  0  0  0  0  0  0  0  0
   35.9020   19.4910   31.0790 C   0  0  0  0  0  0  0  0  0  0  0  0
   35.8760   20.8200   30.7710 N   0  0  0  0  0  0  0  0  0  0  0  0
   35.7090   21.7640   31.7310 C   0  0  0  0  0  0  0  0  0  0  0  0
   35.5640   21.4240   33.0200 N   0  0  0  0  0  0  0  0  0  0  0  0
   35.4760   19.7650   34.3710 H   0  0  0  0  0  0  0  0  0  0  0  0
   35.7740   18.0530   32.6610 H   0  0  0  0  0  0  0  0  0  0  0  0
   36.0390   18.7770   30.2650 H   0  0  0  0  0  0  0  0  0  0  0  0
   39.0010   24.4260   34.1450 O   0  0  0  0  0  0  0  0  0  0  0  0
   38.8730   24.1310   35.4910 C   0  0  0  0  0  0  0  0  0  0  0  0
   37.9440   24.5490   36.4180 C   0  0  0  0  0  0  0  0  0  0  0  0
   37.2030   25.2150   36.0030 H   0  0  0  0  0  0  0  0  0  0  0  0
   38.0040   24.1270   37.7270 C   0  0  0  0  0  3  0  0  0  0  0  0
   38.9790   23.2810   38.1670 C   0  0  0  0  0  3  0  0  0  0  0  0
   39.9360   22.8360   37.2630 C   0  0  0  0  0  0  0  0  0  0  0  0
   40.8830   21.9930   37.7650 C   0  0  0  0  0  3  0  0  0  0  0  0
   41.8570   21.5210   36.9110 C   0  0  0  0  0  3  0  0  0  0  0  0
   41.8520   21.9070   35.5870 C   0  0  0  0  0  3  0  0  0  0  0  0
   40.8700   22.7610   35.1380 C   0  0  0  0  0  3  0  0  0  0  0  0
   39.8730   23.2640   35.9390 C   0  0  0  0  0  0  0  0  0  0  0  0
  1  6  1  6  0  0  0
  1 11  1  0  0  0  0
  1  5  1  0  0  0  0
  2  7  1  6  0  0  0
  2  3  1  0  0  0  0
  2 13  1  0  0  0  0
  2  1  1  0  0  0  0
  3  4  1  0  0  0  0
  4  8  1  0  0  0  0
  4  5  1  0  0  0  0
  5 10  1  1  0  0  0
  5 23  1  0  0  0  0
  9  4  1  0  0  0  0
 12 11  1  0  0  0  0
 13 18  1  0  0  0  0
 14 20  1  0  0  0  0
 15 21  1  0  0  0  0
 15 14  2  0  0  0  0
 16 15  1  0  0  0  0
 17 16  2  0  0  0  0
 17 18  1  0  0  0  0
 18 19  2  0  0  0  0
 19 14  1  0  0  0  0
 22 16  1  0  0  0  0
 23 24  1  0  0  0  0
 24 34  2  0  0  0  0
 24 25  1  0  0  0  0
 25 27  2  0  0  0  0
 26 25  1  0  0  0  0
 27 28  1  0  0  0  0
 29 30  1  0  0  0  0
 29 28  2  0  0  0  0
 31 30  2  0  0  0  0
 32 31  1  0  0  0  0
 33 32  2  0  0  0  0
 33 34  1  0  0  0  0
 34 29  1  0  0  0  0
M  END
>  <minimizedAffinity>
-5.93212652

$$$$

 OpenBabel03272506453D

 34 37  0  0  1  0  0  0  0  0999 V2000
   38.0640   27.3730   34.3810 C   0  0  2  0  0  0  0  0  0  0  0  0
   37.0930   28.0050   33.3970 C   0  0  1  0  0  0  0  0  0  0  0  0
   36.7330   27.0540   32.4910 O   0  0  0  0  0  0  0  0  0  0  0  0
   37.2250   25.8330   32.8960 C   0  0  0  0  0  0  0  0  0  0  0  0
   37.4990   25.9570   34.4050 C   0  0  1  0  0  0  0  0  0  0  0  0
   39.0920   27.3790   33.9850 H   0  0  0  0  0  0  0  0  0  0  0  0
   37.5810   28.8990   32.9650 H   0  0  0  0  0  0  0  0  0  0  0  0
   36.4140   25.0870   32.7630 H   0  0  0  0  0  0  0  0  0  0  0  0
   38.1510   25.5570   32.3650 H   0  0  0  0  0  0  0  0  0  0  0  0
   36.5570   26.0030   34.9520 H   0  0  0  0  0  0  0  0  0  0  0  0
   37.9780   27.9780   35.6320 O   0  0  0  0  0  0  0  0  0  0  0  0
   38.6460   28.7030   35.6880 H   0  0  0  0  0  0  0  0  0  0  0  0
   35.6150   28.4640   34.3550 S   0  0  0  0  0  0  0  0  0  0  0  0
   36.1910   32.1010   35.8070 C   0  0  0  0  0  0  0  0  0  0  0  0
   35.5650   32.9610   34.9130 C   0  0  0  0  0  0  0  0  0  0  0  0
   34.9330   32.3920   33.8060 C   0  0  0  0  0  0  0  0  0  0  0  0
   34.9610   31.0370   33.6590 N   0  0  0  0  0  0  0  0  0  0  0  0
   35.5870   30.2400   34.5610 C   0  0  0  0  0  0  0  0  0  0  0  0
   36.2020   30.7590   35.6340 N   0  0  0  0  0  0  0  0  0  0  0  0
   36.6640   32.5880   36.6450 H   0  0  0  0  0  0  0  0  0  0  0  0
   35.5460   34.0370   35.0340 H   0  0  0  0  0  0  0  0  0  0  0  0
   34.4150   32.9820   33.0480 H   0  0  0  0  0  0  0  0  0  0  0  0
   38.4300   25.0270   34.7870 O   0  0  0  0  0  0  0  0  0  0  0  0
   38.4980   24.5170   36.0720 C   0  0  0  0  0  0  0  0  0  0  0  0
   37.7320   24.7830   37.1850 C   0  0  0  0  0  0  0  0  0  0  0  0
   36.9580   25.5110   37.0020 H   0  0  0  0  0  0  0  0  0  0  0  0
   37.9760   24.1520   38.3850 C   0  0  0  0  0  3  0  0  0  0  0  0
   38.9810   23.2410   38.5270 C   0  0  0  0  0  3  0  0  0  0  0  0
   39.7770   22.9450   37.4270 C   0  0  0  0  0  0  0  0  0  0  0  0
   40.7630   22.0260   37.6360 C   0  0  0  0  0  3  0  0  0  0  0  0
   41.5820   21.6960   36.5770 C   0  0  0  0  0  3  0  0  0  0  0  0
   41.3890   22.2930   35.3500 C   0  0  0  0  0  3  0  0  0  0  0  0
   40.3760   23.2130   35.2000 C   0  0  0  0  0  3  0  0  0  0  0  0
   39.5280   23.5840   36.2150 C   0  0  0  0  0  0  0  0  0  0  0  0
  1  6  1  6  0  0  0
  1  5  1  0  0  0  0
  1 11  1  0  0  0  0
  2  7  1  6  0  0  0
  2 13  1  0  0  0  0
  2  1  1  0  0  0  0
  3  4  1  0  0  0  0
  3  2  1  0  0  0  0
  4  5  1  0  0  0  0
  5 23  1  0  0  0  0
  5 10  1  1  0  0  0
  8  4  1  0  0  0  0
  9  4  1  0  0  0  0
 11 12  1  0  0  0  0
 13 18  1  0  0  0  0
 14 20  1  0  0  0  0
 15 21  1  0  0  0  0
 15 14  2  0  0  0  0
 16 15  1  0  0  0  0
 17 16  2  0  0  0  0
 17 18  1  0  0  0  0
 18 19  2  0  0  0  0
 19 14  1  0  0  0  0
 22 16  1  0  0  0  0
 23 24  1  0  0  0  0
 24 34  2  0  0  0  0
 24 25  1  0  0  0  0
 25 27  2  0  0  0  0
 26 25  1  0  0  0  0
 27 28  1  0  0  0  0
 29 30  1  0  0  0  0
 29 28  2  0  0  0  0
 31 30  2  0  0  0  0
 32 31  1  0  0  0  0
 33 32  2  0  0  0  0
 33 34  1  0  0  0  0
 34 29  1  0  0  0  0
M  END
>  <minimizedAffinity>
-5.83084583

$$$$

 OpenBabel03272506453D

 34 37  0  0  1  0  0  0  0  0999 V2000
   36.5030   28.9570   32.0990 C   0  0  2  0  0  0  0  0  0  0  0  0
   37.0770   27.5520   31.9950 C   0  0  1  0  0  0  0  0  0  0  0  0
   37.1590   27.0380   33.2530 O   0  0  0  0  0  0  0  0  0  0  0  0
   36.5290   27.8900   34.1330 C   0  0  0  0  0  0  0  0  0  0  0  0
   35.5740   28.7530   33.2900 C   0  0  1  0  0  0  0  0  0  0  0  0
   37.2890   29.6910   32.3340 H   0  0  0  0  0  0  0  0  0  0  0  0
   38.0400   27.6190   31.4540 H   0  0  0  0  0  0  0  0  0  0  0  0
   35.9090   27.2670   34.8110 H   0  0  0  0  0  0  0  0  0  0  0  0
   37.2410   28.5330   34.6760 H   0  0  0  0  0  0  0  0  0  0  0  0
   34.7390   28.1470   32.9390 H   0  0  0  0  0  0  0  0  0  0  0  0
   35.7920   29.2950   30.9500 O   0  0  0  0  0  0  0  0  0  0  0  0
   36.3940   29.7630   30.3230 H   0  0  0  0  0  0  0  0  0  0  0  0
   35.8660   26.5680   31.0580 S   0  0  0  0  0  0  0  0  0  0  0  0
   35.8410   22.6420   31.5580 C   0  0  0  0  0  0  0  0  0  0  0  0
   37.0970   22.2090   31.1530 C   0  0  0  0  0  0  0  0  0  0  0  0
   37.9990   23.1750   30.7030 C   0  0  0  0  0  0  0  0  0  0  0  0
   37.6060   24.4800   30.6830 N   0  0  0  0  0  0  0  0  0  0  0  0
   36.3660   24.8520   31.0890 C   0  0  0  0  0  0  0  0  0  0  0  0
   35.4800   23.9460   31.5270 N   0  0  0  0  0  0  0  0  0  0  0  0
   35.1820   21.8590   31.8980 H   0  0  0  0  0  0  0  0  0  0  0  0
   37.4050   21.1700   31.1700 H   0  0  0  0  0  0  0  0  0  0  0  0
   39.0080   22.9350   30.3640 H   0  0  0  0  0  0  0  0  0  0  0  0
   35.3010   29.9230   33.9480 O   0  0  0  0  0  0  0  0  0  0  0  0
   34.2170   30.0720   34.7950 C   0  0  0  0  0  0  0  0  0  0  0  0
   33.0870   29.3000   34.9520 C   0  0  0  0  0  0  0  0  0  0  0  0
   33.0660   28.4430   34.2970 H   0  0  0  0  0  0  0  0  0  0  0  0
   32.1160   29.6370   35.8690 C   0  0  0  0  0  3  0  0  0  0  0  0
   32.2250   30.7430   36.6590 C   0  0  0  0  0  3  0  0  0  0  0  0
   33.3500   31.5480   36.5310 C   0  0  0  0  0  0  0  0  0  0  0  0
   33.3980   32.6380   37.3500 C   0  0  0  0  0  3  0  0  0  0  0  0
   34.4930   33.4720   37.2640 C   0  0  0  0  0  3  0  0  0  0  0  0
   35.5000   33.1890   36.3650 C   0  0  0  0  0  3  0  0  0  0  0  0
   35.3950   32.0740   35.5650 C   0  0  0  0  0  3  0  0  0  0  0  0
   34.3310   31.2060   35.6040 C   0  0  0  0  0  0  0  0  0  0  0  0
  1  6  1  1  0  0  0
  1  5  1  0  0  0  0
  2  7  1  6  0  0  0
  2  1  1  0  0  0  0
  2  3  1  0  0  0  0
  3  4  1  0  0  0  0
  4  9  1  0  0  0  0
  4  8  1  0  0  0  0
  5 10  1  6  0  0  0
  5 23  1  0  0  0  0
  5  4  1  0  0  0  0
 11  1  1  0  0  0  0
 12 11  1  0  0  0  0
 13 18  1  0  0  0  0
 13  2  1  0  0  0  0
 14 20  1  0  0  0  0
 15 21  1  0  0  0  0
 15 14  2  0  0  0  0
 16 15  1  0  0  0  0
 17 16  2  0  0  0  0
 17 18  1  0  0  0  0
 18 19  2  0  0  0  0
 19 14  1  0  0  0  0
 22 16  1  0  0  0  0
 23 24  1  0  0  0  0
 24 25  2  0  0  0  0
 24 34  1  0  0  0  0
 25 27  1  0  0  0  0
 26 25  1  0  0  0  0
 27 28  2  0  0  0  0
 29 28  1  0  0  0  0
 29 30  1  0  0  0  0
 31 30  2  0  0  0  0
 32 31  1  0  0  0  0
 33 34  1  0  0  0  0
 33 32  2  0  0  0  0
 34 29  2  0  0  0  0
M  END
>  <minimizedAffinity>
-5.66803789

$$$$

 OpenBabel03272506453D

 34 37  0  0  1  0  0  0  0  0999 V2000
   37.2840   25.2470   32.7010 C   0  0  2  0  0  0  0  0  0  0  0  0
   37.1950   26.7570   32.5470 C   0  0  1  0  0  0  0  0  0  0  0  0
   37.0840   27.3000   33.7920 O   0  0  0  0  0  0  0  0  0  0  0  0
   37.2780   26.3150   34.7350 C   0  0  0  0  0  0  0  0  0  0  0  0
   38.0370   25.1800   34.0250 C   0  0  1  0  0  0  0  0  0  0  0  0
   36.2830   24.7970   32.7940 H   0  0  0  0  0  0  0  0  0  0  0  0
   36.3530   26.9800   31.8650 H   0  0  0  0  0  0  0  0  0  0  0  0
   37.9490   26.7310   35.5160 H   0  0  0  0  0  0  0  0  0  0  0  0
   36.3280   25.9370   35.1460 H   0  0  0  0  0  0  0  0  0  0  0  0
   39.0620   25.4900   33.8210 H   0  0  0  0  0  0  0  0  0  0  0  0
   38.0220   24.6790   31.6660 O   0  0  0  0  0  0  0  0  0  0  0  0
   37.4090   24.4070   30.9420 H   0  0  0  0  0  0  0  0  0  0  0  0
   38.7790   27.2970   31.8320 S   0  0  0  0  0  0  0  0  0  0  0  0
   37.3000   29.9770   29.3220 C   0  0  0  0  0  0  0  0  0  0  0  0
   37.9230   29.7290   28.1060 C   0  0  0  0  0  0  0  0  0  0  0  0
   38.8450   28.6830   28.0540 C   0  0  0  0  0  0  0  0  0  0  0  0
   39.0870   27.9640   29.1880 N   0  0  0  0  0  0  0  0  0  0  0  0
   38.4530   28.2480   30.3530 C   0  0  0  0  0  0  0  0  0  0  0  0
   37.5610   29.2460   30.4320 N   0  0  0  0  0  0  0  0  0  0  0  0
   36.5970   30.7940   29.3110 H   0  0  0  0  0  0  0  0  0  0  0  0
   37.7280   30.3020   27.2080 H   0  0  0  0  0  0  0  0  0  0  0  0
   39.3860   28.4090   27.1470 H   0  0  0  0  0  0  0  0  0  0  0  0
   37.8310   23.9990   34.6860 O   0  0  0  0  0  0  0  0  0  0  0  0
   38.1930   23.8050   36.0080 C   0  0  0  0  0  0  0  0  0  0  0  0
   37.5900   24.2190   37.1740 C   0  0  0  0  0  0  0  0  0  0  0  0
   36.6870   24.7860   37.0050 H   0  0  0  0  0  0  0  0  0  0  0  0
   38.1280   23.9120   38.4030 C   0  0  0  0  0  3  0  0  0  0  0  0
   39.2780   23.1880   38.5240 C   0  0  0  0  0  3  0  0  0  0  0  0
   39.9180   22.7520   37.3710 C   0  0  0  0  0  0  0  0  0  0  0  0
   41.0620   22.0330   37.5610 C   0  0  0  0  0  3  0  0  0  0  0  0
   41.7380   21.5750   36.4500 C   0  0  0  0  0  3  0  0  0  0  0  0
   41.2490   21.8500   35.1900 C   0  0  0  0  0  3  0  0  0  0  0  0
   40.0890   22.5800   35.0620 C   0  0  0  0  0  3  0  0  0  0  0  0
   39.3710   23.0630   36.1290 C   0  0  0  0  0  0  0  0  0  0  0  0
  1  6  1  1  0  0  0
  1  5  1  0  0  0  0
  2  7  1  6  0  0  0
  2  1  1  0  0  0  0
  2  3  1  0  0  0  0
  3  4  1  0  0  0  0
  4  9  1  0  0  0  0
  4  8  1  0  0  0  0
  5 10  1  6  0  0  0
  5 23  1  0  0  0  0
  5  4  1  0  0  0  0
 11  1  1  0  0  0  0
 12 11  1  0  0  0  0
 13  2  1  0  0  0  0
 14 19  1  0  0  0  0
 15 14  2  0  0  0  0
 16 15  1  0  0  0  0
 16 17  2  0  0  0  0
 17 18  1  0  0  0  0
 18 19  2  0  0  0  0
 18 13  1  0  0  0  0
 20 14  1  0  0  0  0
 21 15  1  0  0  0  0
 22 16  1  0  0  0  0
 23 24  1  0  0  0  0
 24 34  2  0  0  0  0
 24 25  1  0  0  0  0
 25 27  2  0  0  0  0
 26 25  1  0  0  0  0
 27 28  1  0  0  0  0
 29 30  1  0  0  0  0
 29 28  2  0  0  0  0
 31 30  2  0  0  0  0
 32 31  1  0  0  0  0
 33 32  2  0  0  0  0
 33 34  1  0  0  0  0
 34 29  1  0  0  0  0
M  END
>  <minimizedAffinity>
-5.64116001

$$$$

 OpenBabel03272506453D

 34 37  0  0  1  0  0  0  0  0999 V2000
   37.8470   26.9030   35.5040 C   0  0  2  0  0  0  0  0  0  0  0  0
   38.7080   25.7290   35.0640 C   0  0  1  0  0  0  0  0  0  0  0  0
   38.1520   25.1980   33.9400 O   0  0  0  0  0  0  0  0  0  0  0  0
   37.1330   26.0180   33.5080 C   0  0  0  0  0  0  0  0  0  0  0  0
   37.3930   27.3990   34.1350 C   0  0  1  0  0  0  0  0  0  0  0  0
   36.9880   26.5630   36.1040 H   0  0  0  0  0  0  0  0  0  0  0  0
   38.7900   25.0310   35.9180 H   0  0  0  0  0  0  0  0  0  0  0  0
   37.2370   26.1250   32.4070 H   0  0  0  0  0  0  0  0  0  0  0  0
   36.1400   25.6460   33.8090 H   0  0  0  0  0  0  0  0  0  0  0  0
   38.2600   27.8630   33.6650 H   0  0  0  0  0  0  0  0  0  0  0  0
   38.6060   27.8630   36.1670 O   0  0  0  0  0  0  0  0  0  0  0  0
   38.5760   27.6860   37.1380 H   0  0  0  0  0  0  0  0  0  0  0  0
   40.3330   26.4190   34.6220 S   0  0  0  0  0  0  0  0  0  0  0  0
   43.8580   24.7890   35.3880 C   0  0  0  0  0  0  0  0  0  0  0  0
   43.5840   23.4940   35.8090 C   0  0  0  0  0  0  0  0  0  0  0  0
   42.2450   23.1010   35.8590 C   0  0  0  0  0  0  0  0  0  0  0  0
   41.2840   23.9980   35.4970 N   0  0  0  0  0  0  0  0  0  0  0  0
   41.6040   25.2540   35.0940 C   0  0  0  0  0  0  0  0  0  0  0  0
   42.8820   25.6580   35.0350 N   0  0  0  0  0  0  0  0  0  0  0  0
   44.9060   25.0440   35.3660 H   0  0  0  0  0  0  0  0  0  0  0  0
   44.3500   22.7840   36.0950 H   0  0  0  0  0  0  0  0  0  0  0  0
   41.9280   22.1060   36.1750 H   0  0  0  0  0  0  0  0  0  0  0  0
   36.2240   28.1100   34.1970 O   0  0  0  0  0  0  0  0  0  0  0  0
   35.9320   29.1500   33.3320 C   0  0  0  0  0  0  0  0  0  0  0  0
   35.7560   29.1600   31.9660 C   0  0  0  0  0  0  0  0  0  0  0  0
   35.8680   28.1840   31.5180 H   0  0  0  0  0  0  0  0  0  0  0  0
   35.4680   30.3260   31.2930 C   0  0  0  0  0  3  0  0  0  0  0  0
   35.3430   31.5190   31.9420 C   0  0  0  0  0  3  0  0  0  0  0  0
   35.5140   31.5520   33.3200 C   0  0  0  0  0  0  0  0  0  0  0  0
   35.3770   32.7750   33.9080 C   0  0  0  0  0  3  0  0  0  0  0  0
   35.5370   32.8640   35.2750 C   0  0  0  0  0  3  0  0  0  0  0  0
   35.8270   31.7320   36.0050 C   0  0  0  0  0  3  0  0  0  0  0  0
   35.9530   30.5250   35.3560 C   0  0  0  0  0  3  0  0  0  0  0  0
   35.8060   30.3710   33.9990 C   0  0  0  0  0  0  0  0  0  0  0  0
  1  6  1  1  0  0  0
  1 11  1  0  0  0  0
  2  1  1  0  0  0  0
  2  7  1  1  0  0  0
  3  2  1  0  0  0  0
  4  9  1  0  0  0  0
  4  3  1  0  0  0  0
  4  5  1  0  0  0  0
  5 10  1  6  0  0  0
  5 23  1  0  0  0  0
  5  1  1  0  0  0  0
  8  4  1  0  0  0  0
 11 12  1  0  0  0  0
 13  2  1  0  0  0  0
 13 18  1  0  0  0  0
 14 15  1  0  0  0  0
 15 16  2  0  0  0  0
 15 21  1  0  0  0  0
 16 22  1  0  0  0  0
 17 16  1  0  0  0  0
 18 17  2  0  0  0  0
 19 18  1  0  0  0  0
 19 14  2  0  0  0  0
 20 14  1  0  0  0  0
 24 34  1  0  0  0  0
 24 23  1  0  0  0  0
 25 24  2  0  0  0  0
 26 25  1  0  0  0  0
 27 28  2  0  0  0  0
 27 25  1  0  0  0  0
 28 29  1  0  0  0  0
 29 30  2  0  0  0  0
 29 34  1  0  0  0  0
 30 31  1  0  0  0  0
 31 32  2  0  0  0  0
 33 32  1  0  0  0  0
 34 33  2  0  0  0  0
M  END
>  <minimizedAffinity>
-5.56799603

$$$$

 OpenBabel03272506453D

 34 37  0  0  1  0  0  0  0  0999 V2000
   38.5380   24.1920   32.2070 C   0  0  2  0  0  0  0  0  0  0  0  0
   39.3740   23.4580   33.2440 C   0  0  1  0  0  0  0  0  0  0  0  0
   39.9810   24.3910   34.0300 O   0  0  0  0  0  0  0  0  0  0  0  0
   39.4800   25.6370   33.7250 C   0  0  0  0  0  0  0  0  0  0  0  0
   38.1230   25.4000   33.0390 C   0  0  1  0  0  0  0  0  0  0  0  0
   39.1530   24.4990   31.3460 H   0  0  0  0  0  0  0  0  0  0  0  0
   40.0640   22.7810   32.7070 H   0  0  0  0  0  0  0  0  0  0  0  0
   39.2840   26.1600   34.6850 H   0  0  0  0  0  0  0  0  0  0  0  0
   40.1480   26.2050   33.0580 H   0  0  0  0  0  0  0  0  0  0  0  0
   37.3950   25.0460   33.7680 H   0  0  0  0  0  0  0  0  0  0  0  0
   37.4350   23.4340   31.8230 O   0  0  0  0  0  0  0  0  0  0  0  0
   37.6680   22.9040   31.0240 H   0  0  0  0  0  0  0  0  0  0  0  0
   38.2060   22.5190   34.2770 S   0  0  0  0  0  0  0  0  0  0  0  0
   37.8490   23.9030   37.9690 C   0  0  0  0  0  0  0  0  0  0  0  0
   38.9890   23.4750   38.6370 C   0  0  0  0  0  0  0  0  0  0  0  0
   39.9160   22.7220   37.9150 C   0  0  0  0  0  0  0  0  0  0  0  0
   39.6590   22.4460   36.6040 N   0  0  0  0  0  0  0  0  0  0  0  0
   38.5290   22.8880   35.9970 C   0  0  0  0  0  0  0  0  0  0  0  0
   37.6220   23.6140   36.6660 N   0  0  0  0  0  0  0  0  0  0  0  0
   37.1640   24.4820   38.5690 H   0  0  0  0  0  0  0  0  0  0  0  0
   39.1890   23.6960   39.6780 H   0  0  0  0  0  0  0  0  0  0  0  0
   40.8410   22.3400   38.3490 H   0  0  0  0  0  0  0  0  0  0  0  0
   37.7980   26.4830   32.2650 O   0  0  0  0  0  0  0  0  0  0  0  0
   37.0940   27.5700   32.7530 C   0  0  0  0  0  0  0  0  0  0  0  0
   36.5340   27.7950   33.9900 C   0  0  0  0  0  0  0  0  0  0  0  0
   36.6810   26.9750   34.6770 H   0  0  0  0  0  0  0  0  0  0  0  0
   35.8650   28.9660   34.2670 C   0  0  0  0  0  3  0  0  0  0  0  0
   35.7270   29.9530   33.3360 C   0  0  0  0  0  3  0  0  0  0  0  0
   36.2770   29.7640   32.0740 C   0  0  0  0  0  0  0  0  0  0  0  0
   36.1030   30.7880   31.1900 C   0  0  0  0  0  3  0  0  0  0  0  0
   36.6300   30.6530   29.9230 C   0  0  0  0  0  3  0  0  0  0  0  0
   37.3110   29.5030   29.5840 C   0  0  0  0  0  3  0  0  0  0  0  0
   37.4540   28.5040   30.5200 C   0  0  0  0  0  3  0  0  0  0  0  0
   36.9540   28.5790   31.7970 C   0  0  0  0  0  0  0  0  0  0  0  0
  1  6  1  6  0  0  0
  1  5  1  0  0  0  0
  1  2  1  0  0  0  0
  2  7  1  6  0  0  0
  2  3  1  0  0  0  0
  2 13  1  0  0  0  0
  4  3  1  0  0  0  0
  4  8  1  0  0  0  0
  5  4  1  0  0  0  0
  5 10  1  1  0  0  0
  9  4  1  0  0  0  0
 11  1  1  0  0  0  0
 12 11  1  0  0  0  0
 13 18  1  0  0  0  0
 14 20  1  0  0  0  0
 14 15  1  0  0  0  0
 15 21  1  0  0  0  0
 16 22  1  0  0  0  0
 16 15  2  0  0  0  0
 17 16  1  0  0  0  0
 18 17  2  0  0  0  0
 18 19  1  0  0  0  0
 19 14  2  0  0  0  0
 23 24  1  0  0  0  0
 23  5  1  0  0  0  0
 24 25  1  0  0  0  0
 25 27  2  0  0  0  0
 25 26  1  0  0  0  0
 28 27  1  0  0  0  0
 29 28  2  0  0  0  0
 30 29  1  0  0  0  0
 31 30  2  0  0  0  0
 32 31  1  0  0  0  0
 32 33  2  0  0  0  0
 33 34  1  0  0  0  0
 34 29  1  0  0  0  0
 34 24  2  0  0  0  0
M  END
>  <minimizedAffinity>
-5.499228

$$$$

 OpenBabel03272506453D

 34 37  0  0  1  0  0  0  0  0999 V2000
   38.5090   25.7800   33.9160 C   0  0  2  0  0  0  0  0  0  0  0  0
   39.2840   25.8370   35.2230 C   0  0  1  0  0  0  0  0  0  0  0  0
   38.9490   26.9940   35.8590 O   0  0  0  0  0  0  0  0  0  0  0  0
   37.9060   27.5950   35.1890 C   0  0  0  0  0  0  0  0  0  0  0  0
   37.2330   26.4890   34.3570 C   0  0  1  0  0  0  0  0  0  0  0  0
   39.0220   26.3490   33.1240 H   0  0  0  0  0  0  0  0  0  0  0  0
   40.3590   25.7300   34.9850 H   0  0  0  0  0  0  0  0  0  0  0  0
   37.1740   27.9340   35.9520 H   0  0  0  0  0  0  0  0  0  0  0  0
   38.2470   28.4100   34.5310 H   0  0  0  0  0  0  0  0  0  0  0  0
   36.7020   25.8010   35.0140 H   0  0  0  0  0  0  0  0  0  0  0  0
   38.2560   24.4640   33.5380 O   0  0  0  0  0  0  0  0  0  0  0  0
   38.9760   24.1550   32.9370 H   0  0  0  0  0  0  0  0  0  0  0  0
   38.6940   24.4420   36.2330 S   0  0  0  0  0  0  0  0  0  0  0  0
   41.5700   21.9280   35.1980 C   0  0  0  0  0  0  0  0  0  0  0  0
   41.9460   21.2900   36.3730 C   0  0  0  0  0  0  0  0  0  0  0  0
   41.2790   21.6520   37.5450 C   0  0  0  0  0  0  0  0  0  0  0  0
   40.3040   22.6030   37.4790 N   0  0  0  0  0  0  0  0  0  0  0  0
   39.9750   23.1970   36.3050 C   0  0  0  0  0  0  0  0  0  0  0  0
   40.5980   22.8690   35.1640 N   0  0  0  0  0  0  0  0  0  0  0  0
   42.1140   21.6140   34.3210 H   0  0  0  0  0  0  0  0  0  0  0  0
   42.7210   20.5350   36.4210 H   0  0  0  0  0  0  0  0  0  0  0  0
   41.5020   21.2090   38.5180 H   0  0  0  0  0  0  0  0  0  0  0  0
   36.5530   27.0460   33.3070 O   0  0  0  0  0  0  0  0  0  0  0  0
   36.1690   28.3750   33.2820 C   0  0  0  0  0  0  0  0  0  0  0  0
   35.5560   29.1510   34.2400 C   0  0  0  0  0  0  0  0  0  0  0  0
   35.3520   28.6130   35.1530 H   0  0  0  0  0  0  0  0  0  0  0  0
   35.2580   30.4740   34.0020 C   0  0  0  0  0  3  0  0  0  0  0  0
   35.5530   31.0760   32.8140 C   0  0  0  0  0  3  0  0  0  0  0  0
   36.1720   30.3270   31.8210 C   0  0  0  0  0  0  0  0  0  0  0  0
   36.4390   30.9870   30.6570 C   0  0  0  0  0  3  0  0  0  0  0  0
   37.0530   30.2910   29.6380 C   0  0  0  0  0  3  0  0  0  0  0  0
   37.3770   28.9630   29.8140 C   0  0  0  0  0  3  0  0  0  0  0  0
   37.0820   28.3500   31.0110 C   0  0  0  0  0  3  0  0  0  0  0  0
   36.4730   28.9890   32.0640 C   0  0  0  0  0  0  0  0  0  0  0  0
  1  6  1  6  0  0  0
  1  5  1  0  0  0  0
  1  2  1  0  0  0  0
  2  7  1  6  0  0  0
  2  3  1  0  0  0  0
  2 13  1  0  0  0  0
  4  3  1  0  0  0  0
  4  8  1  0  0  0  0
  5 10  1  1  0  0  0
  5  4  1  0  0  0  0
  9  4  1  0  0  0  0
 11  1  1  0  0  0  0
 12 11  1  0  0  0  0
 13 18  1  0  0  0  0
 14 15  1  0  0  0  0
 15 21  1  0  0  0  0
 15 16  2  0  0  0  0
 16 22  1  0  0  0  0
 17 16  1  0  0  0  0
 18 17  2  0  0  0  0
 19 14  2  0  0  0  0
 19 18  1  0  0  0  0
 20 14  1  0  0  0  0
 23  5  1  0  0  0  0
 24 23  1  0  0  0  0
 24 25  1  0  0  0  0
 25 26  1  0  0  0  0
 27 25  2  0  0  0  0
 28 27  1  0  0  0  0
 29 34  1  0  0  0  0
 29 28  2  0  0  0  0
 30 29  1  0  0  0  0
 31 32  1  0  0  0  0
 31 30  2  0  0  0  0
 32 33  2  0  0  0  0
 33 34  1  0  0  0  0
 34 24  2  0  0  0  0
M  END
>  <minimizedAffinity>
-5.48126507

$$$$

 OpenBabel03272506453D

 34 37  0  0  1  0  0  0  0  0999 V2000
   38.5710   26.2300   32.9360 C   0  0  2  0  0  0  0  0  0  0  0  0
   37.5200   26.7590   31.9730 C   0  0  1  0  0  0  0  0  0  0  0  0
   36.7010   25.7240   31.6360 O   0  0  0  0  0  0  0  0  0  0  0  0
   37.0010   24.6330   32.4220 C   0  0  0  0  0  0  0  0  0  0  0  0
   37.7340   25.1810   33.6600 C   0  0  1  0  0  0  0  0  0  0  0  0
   39.4070   25.7610   32.3950 H   0  0  0  0  0  0  0  0  0  0  0  0
   38.0470   27.2320   31.1230 H   0  0  0  0  0  0  0  0  0  0  0  0
   36.0390   24.1980   32.7670 H   0  0  0  0  0  0  0  0  0  0  0  0
   37.6380   23.9020   31.8980 H   0  0  0  0  0  0  0  0  0  0  0  0
   37.0330   25.7220   34.2970 H   0  0  0  0  0  0  0  0  0  0  0  0
   39.0020   27.2270   33.8070 O   0  0  0  0  0  0  0  0  0  0  0  0
   39.8020   27.6640   33.4290 H   0  0  0  0  0  0  0  0  0  0  0  0
   36.5400   27.9810   32.8990 S   0  0  0  0  0  0  0  0  0  0  0  0
   36.8500   30.5930   29.9410 C   0  0  0  0  0  0  0  0  0  0  0  0
   36.1220   31.7030   30.3490 C   0  0  0  0  0  0  0  0  0  0  0  0
   35.5040   31.6460   31.5990 C   0  0  0  0  0  0  0  0  0  0  0  0
   35.6430   30.5150   32.3490 N   0  0  0  0  0  0  0  0  0  0  0  0
   36.3650   29.4560   31.9040 C   0  0  0  0  0  0  0  0  0  0  0  0
   36.9710   29.4840   30.7080 N   0  0  0  0  0  0  0  0  0  0  0  0
   37.3080   30.6860   28.9690 H   0  0  0  0  0  0  0  0  0  0  0  0
   36.0140   32.5990   29.7500 H   0  0  0  0  0  0  0  0  0  0  0  0
   34.9110   32.4650   32.0090 H   0  0  0  0  0  0  0  0  0  0  0  0
   38.4990   24.1950   34.2220 O   0  0  0  0  0  0  0  0  0  0  0  0
   38.5600   23.9770   35.5870 C   0  0  0  0  0  0  0  0  0  0  0  0
   37.7570   24.4390   36.6060 C   0  0  0  0  0  0  0  0  0  0  0  0
   36.9550   25.0720   36.2590 H   0  0  0  0  0  0  0  0  0  0  0  0
   38.0010   24.0950   37.9170 C   0  0  0  0  0  3  0  0  0  0  0  0
   39.0420   23.2860   38.2670 C   0  0  0  0  0  3  0  0  0  0  0  0
   39.8760   22.8000   37.2670 C   0  0  0  0  0  0  0  0  0  0  0  0
   40.8980   21.9970   37.6830 C   0  0  0  0  0  3  0  0  0  0  0  0
   41.7560   21.4870   36.7320 C   0  0  0  0  0  3  0  0  0  0  0  0
   41.5650   21.7950   35.4020 C   0  0  0  0  0  3  0  0  0  0  0  0
   40.5160   22.6100   35.0440 C   0  0  0  0  0  3  0  0  0  0  0  0
   39.6270   23.1490   35.9420 C   0  0  0  0  0  0  0  0  0  0  0  0
  1  6  1  6  0  0  0
  1  5  1  0  0  0  0
  1 11  1  0  0  0  0
  2  7  1  6  0  0  0
  2 13  1  0  0  0  0
  2  1  1  0  0  0  0
  3  2  1  0  0  0  0
  3  4  1  0  0  0  0
  4  8  1  0  0  0  0
  4  5  1  0  0  0  0
  5 23  1  0  0  0  0
  5 10  1  1  0  0  0
  9  4  1  0  0  0  0
 12 11  1  0  0  0  0
 14 15  2  0  0  0  0
 14 19  1  0  0  0  0
 15 16  1  0  0  0  0
 16 22  1  0  0  0  0
 16 17  2  0  0  0  0
 18 17  1  0  0  0  0
 18 13  1  0  0  0  0
 19 18  2  0  0  0  0
 20 14  1  0  0  0  0
 21 15  1  0  0  0  0
 23 24  1  0  0  0  0
 24 34  2  0  0  0  0
 24 25  1  0  0  0  0
 25 27  2  0  0  0  0
 26 25  1  0  0  0  0
 27 28  1  0  0  0  0
 29 30  1  0  0  0  0
 29 28  2  0  0  0  0
 31 30  2  0  0  0  0
 32 31  1  0  0  0  0
 33 32  2  0  0  0  0
 33 34  1  0  0  0  0
 34 29  1  0  0  0  0
M  END
>  <minimizedAffinity>
-5.45035744

$$$$

 OpenBabel03272506453D

 34 37  0  0  1  0  0  0  0  0999 V2000
   37.5700   25.9380   34.1450 C   0  0  2  0  0  0  0  0  0  0  0  0
   36.9370   27.0780   34.9280 C   0  0  1  0  0  0  0  0  0  0  0  0
   37.8960   27.6190   35.7310 O   0  0  0  0  0  0  0  0  0  0  0  0
   39.1180   27.0680   35.4120 C   0  0  0  0  0  0  0  0  0  0  0  0
   38.9780   26.5020   33.9890 C   0  0  1  0  0  0  0  0  0  0  0  0
   37.5810   25.0090   34.7350 H   0  0  0  0  0  0  0  0  0  0  0  0
   36.0560   26.6750   35.4610 H   0  0  0  0  0  0  0  0  0  0  0  0
   39.8550   27.8980   35.3730 H   0  0  0  0  0  0  0  0  0  0  0  0
   39.4120   26.2680   36.1110 H   0  0  0  0  0  0  0  0  0  0  0  0
   38.9130   27.3180   33.2690 H   0  0  0  0  0  0  0  0  0  0  0  0
   36.9480   25.7710   32.9110 O   0  0  0  0  0  0  0  0  0  0  0  0
   36.2310   25.0980   32.9980 H   0  0  0  0  0  0  0  0  0  0  0  0
   36.4470   28.3340   33.7050 S   0  0  0  0  0  0  0  0  0  0  0  0
   35.2340   31.4560   35.8140 C   0  0  0  0  0  0  0  0  0  0  0  0
   33.8470   31.4290   35.7530 C   0  0  0  0  0  0  0  0  0  0  0  0
   33.2540   30.3960   35.0250 C   0  0  0  0  0  0  0  0  0  0  0  0
   34.0560   29.4760   34.4170 N   0  0  0  0  0  0  0  0  0  0  0  0
   35.4080   29.5480   34.5070 C   0  0  0  0  0  0  0  0  0  0  0  0
   36.0050   30.5290   35.2000 N   0  0  0  0  0  0  0  0  0  0  0  0
   35.6440   32.2720   36.3880 H   0  0  0  0  0  0  0  0  0  0  0  0
   33.2130   32.1620   36.2370 H   0  0  0  0  0  0  0  0  0  0  0  0
   32.1730   30.2880   34.9180 H   0  0  0  0  0  0  0  0  0  0  0  0
   39.9140   25.5240   33.7830 O   0  0  0  0  0  0  0  0  0  0  0  0
   40.0460   24.4240   34.6130 C   0  0  0  0  0  0  0  0  0  0  0  0
   39.1450   23.4360   34.9440 C   0  0  0  0  0  0  0  0  0  0  0  0
   38.1860   23.5610   34.4660 H   0  0  0  0  0  0  0  0  0  0  0  0
   39.4890   22.4180   35.8040 C   0  0  0  0  0  3  0  0  0  0  0  0
   40.7290   22.3380   36.3650 C   0  0  0  0  0  3  0  0  0  0  0  0
   41.6670   23.3160   36.0570 C   0  0  0  0  0  0  0  0  0  0  0  0
   42.8880   23.1780   36.6510 C   0  0  0  0  0  3  0  0  0  0  0  0
   43.8560   24.1220   36.3790 C   0  0  0  0  0  3  0  0  0  0  0  0
   43.5730   25.1660   35.5250 C   0  0  0  0  0  3  0  0  0  0  0  0
   42.3230   25.2510   34.9560 C   0  0  0  0  0  3  0  0  0  0  0  0
   41.3170   24.3450   35.1860 C   0  0  0  0  0  0  0  0  0  0  0  0
  1  6  1  1  0  0  0
  1  2  1  0  0  0  0
  2  7  1  1  0  0  0
  2  3  1  0  0  0  0
  4  3  1  0  0  0  0
  4  9  1  0  0  0  0
  5 10  1  6  0  0  0
  5  1  1  0  0  0  0
  5  4  1  0  0  0  0
  8  4  1  0  0  0  0
 11 12  1  0  0  0  0
 11  1  1  0  0  0  0
 13 18  1  0  0  0  0
 13  2  1  0  0  0  0
 14 20  1  0  0  0  0
 15 14  1  0  0  0  0
 15 21  1  0  0  0  0
 16 15  2  0  0  0  0
 17 18  2  0  0  0  0
 17 16  1  0  0  0  0
 18 19  1  0  0  0  0
 19 14  2  0  0  0  0
 22 16  1  0  0  0  0
 23  5  1  0  0  0  0
 23 24  1  0  0  0  0
 24 25  2  0  0  0  0
 24 34  1  0  0  0  0
 25 27  1  0  0  0  0
 26 25  1  0  0  0  0
 27 28  2  0  0  0  0
 29 28  1  0  0  0  0
 29 30  1  0  0  0  0
 31 30  2  0  0  0  0
 32 31  1  0  0  0  0
 33 34  1  0  0  0  0
 33 32  2  0  0  0  0
 34 29  2  0  0  0  0
M  END
>  <minimizedAffinity>
-5.42660761

$$$$
