
 OpenBabel03272504583D

 35 38  0  0  1  0  0  0  0  0999 V2000
   35.4490   29.1420   34.0410 C   0  0  1  0  0  0  0  0  0  0  0  0
   35.8810   28.8000   32.7060 C   0  0  0  0  0  0  0  0  0  0  0  0
   36.7630   28.5120   33.8770 C   0  0  2  0  0  0  0  0  0  0  0  0
   34.7030   28.5060   34.6350 H   0  0  0  0  0  0  0  0  0  0  0  0
   35.0930   28.2260   32.2580 H   0  0  0  0  0  0  0  0  0  0  0  0
   36.1970   29.6420   32.0550 H   0  0  0  0  0  0  0  0  0  0  0  0
   37.7270   28.9680   33.7340 H   0  0  0  0  0  0  0  0  0  0  0  0
   35.4430   30.5710   34.5060 C   0  0  0  0  0  0  0  0  0  0  0  0
   35.7040   31.5400   33.5190 C   0  0  0  0  0  0  0  0  0  0  0  0
   35.6900   32.8420   33.9580 C   0  0  0  0  0  0  0  0  0  0  0  0
   35.4380   33.1200   35.2580 N   0  0  0  0  0  0  0  0  0  0  0  0
   35.1880   32.1560   36.1870 C   0  0  0  0  0  0  0  0  0  0  0  0
   35.1930   30.8410   35.7900 N   0  0  0  0  0  0  0  0  0  0  0  0
   34.9000   32.4150   37.5330 N   0  0  0  0  0  0  0  0  0  0  0  0
   35.9040   31.3370   32.4930 H   0  0  0  0  0  0  0  0  0  0  0  0
   35.8790   33.6630   33.2790 H   0  0  0  0  0  0  0  0  0  0  0  0
   35.2860   33.1490   38.1850 H   0  0  0  0  0  0  0  0  0  0  0  0
   34.1850   31.8060   38.0300 H   0  0  0  0  0  0  0  0  0  0  0  0
   36.8370   27.1710   34.2580 O   0  0  0  0  0  0  0  0  0  0  0  0
   39.3310   27.2160   33.6160 O   0  0  0  0  0  0  0  0  0  0  0  0
   38.3920   26.7600   34.6840 P   0  0  1  0  0  0  0  0  0  0  0  0
   38.8540   27.6520   36.0960 O   0  0  0  0  0  0  0  0  0  0  0  0
   39.4210   27.0260   36.6480 H   0  0  0  0  0  0  0  0  0  0  0  0
   38.4700   25.1210   35.0200 O   0  0  0  0  0  0  0  0  0  0  0  0
   38.5950   24.5160   36.2280 C   0  0  0  0  0  0  0  0  0  0  0  0
   37.8110   24.7510   37.3330 C   0  0  0  0  0  0  0  0  0  0  0  0
   37.0120   25.4880   37.2450 H   0  0  0  0  0  0  0  0  0  0  0  0
   38.0610   24.0530   38.5000 C   0  0  0  0  0  3  0  0  0  0  0  0
   39.0820   23.1230   38.5840 C   0  0  0  0  0  3  0  0  0  0  0  0
   39.8700   22.8820   37.4840 C   0  0  0  0  0  0  0  0  0  0  0  0
   40.8910   21.9570   37.5590 C   0  0  0  0  0  3  0  0  0  0  0  0
   41.7020   21.6900   36.4760 C   0  0  0  0  0  3  0  0  0  0  0  0
   41.4750   22.3720   35.2980 C   0  0  0  0  0  3  0  0  0  0  0  0
   40.4560   23.2970   35.2190 C   0  0  0  0  0  3  0  0  0  0  0  0
   39.6250   23.5800   36.3070 C   0  0  0  0  0  0  0  0  0  0  0  0
  1  8  1  0  0  0  0
  1  4  1  1  0  0  0
  2  3  1  0  0  0  0
  2  1  1  0  0  0  0
  3  7  1  1  0  0  0
  3  1  1  0  0  0  0
  3 19  1  0  0  0  0
  5  2  1  0  0  0  0
  6  2  1  0  0  0  0
  8 13  1  0  0  0  0
  9 10  1  0  0  0  0
  9  8  2  0  0  0  0
 10 11  2  0  0  0  0
 11 12  1  0  0  0  0
 12 14  1  0  0  0  0
 13 12  2  0  0  0  0
 14 18  1  0  0  0  0
 14 17  1  0  0  0  0
 15  9  1  0  0  0  0
 16 10  1  0  0  0  0
 19 21  1  0  0  0  0
 21 20  2  6  0  0  0
 21 24  1  0  0  0  0
 21 22  1  0  0  0  0
 22 23  1  0  0  0  0
 24 25  1  0  0  0  0
 25 35  2  0  0  0  0
 25 26  1  0  0  0  0
 26 28  2  0  0  0  0
 27 26  1  0  0  0  0
 28 29  1  0  0  0  0
 30 31  1  0  0  0  0
 30 29  2  0  0  0  0
 32 31  2  0  0  0  0
 33 32  1  0  0  0  0
 34 33  2  0  0  0  0
 34 35  1  0  0  0  0
 35 30  1  0  0  0  0
M  END
>  <minimizedAffinity>
-6.53006649

$$$$

 OpenBabel03272504583D

 35 38  0  0  1  0  0  0  0  0999 V2000
   37.8140   25.8510   35.8210 C   0  0  1  0  0  0  0  0  0  0  0  0
   38.5290   27.1040   35.7540 C   0  0  0  0  0  0  0  0  0  0  0  0
   37.7480   26.6220   34.5760 C   0  0  2  0  0  0  0  0  0  0  0  0
   36.8030   25.7400   36.3480 H   0  0  0  0  0  0  0  0  0  0  0  0
   38.2340   27.6800   36.6090 H   0  0  0  0  0  0  0  0  0  0  0  0
   39.6340   27.0400   35.6640 H   0  0  0  0  0  0  0  0  0  0  0  0
   38.3830   26.5740   33.7070 H   0  0  0  0  0  0  0  0  0  0  0  0
   38.5470   24.5400   35.7610 C   0  0  0  0  0  0  0  0  0  0  0  0
   38.7520   24.0090   34.4740 C   0  0  0  0  0  0  0  0  0  0  0  0
   39.4290   22.8130   34.4350 C   0  0  0  0  0  0  0  0  0  0  0  0
   39.8470   22.2300   35.5830 N   0  0  0  0  0  0  0  0  0  0  0  0
   39.6320   22.7740   36.8120 C   0  0  0  0  0  0  0  0  0  0  0  0
   38.9590   23.9680   36.8960 N   0  0  0  0  0  0  0  0  0  0  0  0
   40.0740   22.2060   38.0140 N   0  0  0  0  0  0  0  0  0  0  0  0
   38.4300   24.4550   33.5640 H   0  0  0  0  0  0  0  0  0  0  0  0
   39.6380   22.3190   33.4960 H   0  0  0  0  0  0  0  0  0  0  0  0
   40.1320   21.1950   38.3100 H   0  0  0  0  0  0  0  0  0  0  0  0
   40.4170   22.8470   38.7880 H   0  0  0  0  0  0  0  0  0  0  0  0
   36.5420   27.2850   34.3430 O   0  0  0  0  0  0  0  0  0  0  0  0
   37.8860   28.0090   32.2680 O   0  0  0  0  0  0  0  0  0  0  0  0
   36.4950   27.9080   32.8010 P   0  0  1  0  0  0  0  0  0  0  0  0
   35.6950   26.7840   31.7530 O   0  0  0  0  0  0  0  0  0  0  0  0
   35.1600   27.3400   31.1030 H   0  0  0  0  0  0  0  0  0  0  0  0
   35.6490   29.3540   32.8030 O   0  0  0  0  0  0  0  0  0  0  0  0
   34.4470   29.6240   33.3730 C   0  0  0  0  0  0  0  0  0  0  0  0
   33.2240   29.1880   32.9200 C   0  0  0  0  0  0  0  0  0  0  0  0
   33.2030   28.5690   32.0220 H   0  0  0  0  0  0  0  0  0  0  0  0
   32.0810   29.5460   33.6100 C   0  0  0  0  0  3  0  0  0  0  0  0
   32.1370   30.3330   34.7460 C   0  0  0  0  0  3  0  0  0  0  0  0
   33.3560   30.7730   35.2060 C   0  0  0  0  0  0  0  0  0  0  0  0
   33.4210   31.5590   36.3380 C   0  0  0  0  0  3  0  0  0  0  0  0
   34.6260   32.0180   36.8270 C   0  0  0  0  0  3  0  0  0  0  0  0
   35.7830   31.6760   36.1580 C   0  0  0  0  0  3  0  0  0  0  0  0
   35.7220   30.8910   35.0260 C   0  0  0  0  0  3  0  0  0  0  0  0
   34.5100   30.4160   34.5170 C   0  0  0  0  0  0  0  0  0  0  0  0
  1  4  1  1  0  0  0
  2  1  1  0  0  0  0
  2  5  1  0  0  0  0
  3  7  1  6  0  0  0
  3  2  1  0  0  0  0
  3  1  1  0  0  0  0
  6  2  1  0  0  0  0
  8  1  1  0  0  0  0
  8 13  1  0  0  0  0
  9  8  2  0  0  0  0
 10  9  1  0  0  0  0
 10 11  2  0  0  0  0
 11 12  1  0  0  0  0
 12 13  2  0  0  0  0
 12 14  1  0  0  0  0
 14 17  1  0  0  0  0
 14 18  1  0  0  0  0
 15  9  1  0  0  0  0
 16 10  1  0  0  0  0
 19  3  1  0  0  0  0
 21 20  2  6  0  0  0
 21 24  1  0  0  0  0
 21 19  1  0  0  0  0
 22 21  1  0  0  0  0
 23 22  1  0  0  0  0
 24 25  1  0  0  0  0
 25 35  1  0  0  0  0
 26 25  2  0  0  0  0
 26 28  1  0  0  0  0
 27 26  1  0  0  0  0
 28 29  2  0  0  0  0
 29 30  1  0  0  0  0
 30 31  1  0  0  0  0
 31 32  2  0  0  0  0
 33 32  1  0  0  0  0
 34 33  2  0  0  0  0
 35 34  1  0  0  0  0
 35 30  2  0  0  0  0
M  END
>  <minimizedAffinity>
-6.37759447

$$$$

 OpenBabel03272504583D

 35 38  0  0  1  0  0  0  0  0999 V2000
   36.3920   23.0190   31.1670 C   0  0  1  0  0  0  0  0  0  0  0  0
   35.4360   24.1020   31.1420 C   0  0  0  0  0  0  0  0  0  0  0  0
   36.6230   24.1700   32.0450 C   0  0  2  0  0  0  0  0  0  0  0  0
   37.1970   22.8820   30.3640 H   0  0  0  0  0  0  0  0  0  0  0  0
   35.3120   24.3880   30.1150 H   0  0  0  0  0  0  0  0  0  0  0  0
   34.4600   23.9140   31.6350 H   0  0  0  0  0  0  0  0  0  0  0  0
   36.3050   24.3310   33.0610 H   0  0  0  0  0  0  0  0  0  0  0  0
   36.0620   21.7170   31.8400 C   0  0  0  0  0  0  0  0  0  0  0  0
   35.9370   20.6010   30.9910 C   0  0  0  0  0  0  0  0  0  0  0  0
   35.6400   19.4160   31.6210 C   0  0  0  0  0  0  0  0  0  0  0  0
   35.4900   19.3790   32.9660 N   0  0  0  0  0  0  0  0  0  0  0  0
   35.6200   20.4790   33.7570 C   0  0  0  0  0  0  0  0  0  0  0  0
   35.9150   21.6840   33.1670 N   0  0  0  0  0  0  0  0  0  0  0  0
   35.4940   20.4660   35.1520 N   0  0  0  0  0  0  0  0  0  0  0  0
   36.0520   20.6150   29.9330 H   0  0  0  0  0  0  0  0  0  0  0  0
   35.5210   18.4990   31.0600 H   0  0  0  0  0  0  0  0  0  0  0  0
   34.8430   19.9160   35.7730 H   0  0  0  0  0  0  0  0  0  0  0  0
   36.1310   21.0900   35.7300 H   0  0  0  0  0  0  0  0  0  0  0  0
   37.6380   25.0400   31.6390 O   0  0  0  0  0  0  0  0  0  0  0  0
   39.0230   27.0970   32.3350 O   0  0  0  0  0  0  0  0  0  0  0  0
   37.8990   26.2220   32.7820 P   0  0  1  0  0  0  0  0  0  0  0  0
   36.5180   27.2660   32.8500 O   0  0  0  0  0  0  0  0  0  0  0  0
   36.4050   27.5150   33.8210 H   0  0  0  0  0  0  0  0  0  0  0  0
   38.1280   25.5140   34.2830 O   0  0  0  0  0  0  0  0  0  0  0  0
   39.0930   24.6390   34.6600 C   0  0  0  0  0  0  0  0  0  0  0  0
   40.1120   24.1690   33.8650 C   0  0  0  0  0  0  0  0  0  0  0  0
   40.1610   24.5240   32.8350 H   0  0  0  0  0  0  0  0  0  0  0  0
   41.0250   23.2760   34.3940 C   0  0  0  0  0  3  0  0  0  0  0  0
   40.9390   22.8420   35.7050 C   0  0  0  0  0  3  0  0  0  0  0  0
   39.9240   23.3070   36.5060 C   0  0  0  0  0  0  0  0  0  0  0  0
   39.8300   22.8790   37.8150 C   0  0  0  0  0  3  0  0  0  0  0  0
   38.8250   23.3240   38.6480 C   0  0  0  0  0  3  0  0  0  0  0  0
   37.9000   24.2160   38.1460 C   0  0  0  0  0  3  0  0  0  0  0  0
   37.9900   24.6450   36.8390 C   0  0  0  0  0  3  0  0  0  0  0  0
   39.0020   24.2050   35.9820 C   0  0  0  0  0  0  0  0  0  0  0  0
  1  4  1  6  0  0  0
  1  8  1  0  0  0  0
  1  3  1  0  0  0  0
  2  1  1  0  0  0  0
  2  6  1  0  0  0  0
  2  3  1  0  0  0  0
  3  7  1  1  0  0  0
  5  2  1  0  0  0  0
  8 13  1  0  0  0  0
  9 10  1  0  0  0  0
  9  8  2  0  0  0  0
 10 11  2  0  0  0  0
 11 12  1  0  0  0  0
 12 14  1  0  0  0  0
 13 12  2  0  0  0  0
 14 18  1  0  0  0  0
 14 17  1  0  0  0  0
 15  9  1  0  0  0  0
 16 10  1  0  0  0  0
 19  3  1  0  0  0  0
 19 21  1  0  0  0  0
 21 20  2  6  0  0  0
 21 22  1  0  0  0  0
 21 24  1  0  0  0  0
 22 23  1  0  0  0  0
 24 25  1  0  0  0  0
 25 35  1  0  0  0  0
 26 28  1  0  0  0  0
 26 25  2  0  0  0  0
 27 26  1  0  0  0  0
 28 29  2  0  0  0  0
 29 30  1  0  0  0  0
 30 31  1  0  0  0  0
 31 32  2  0  0  0  0
 33 32  1  0  0  0  0
 34 33  2  0  0  0  0
 35 30  2  0  0  0  0
 35 34  1  0  0  0  0
M  END
>  <minimizedAffinity>
-6.32320452

$$$$

 OpenBabel03272504583D

 35 38  0  0  1  0  0  0  0  0999 V2000
   38.6900   23.4360   36.5210 C   0  0  1  0  0  0  0  0  0  0  0  0
   38.0670   23.8400   37.7600 C   0  0  0  0  0  0  0  0  0  0  0  0
   38.4920   24.8690   36.7640 C   0  0  2  0  0  0  0  0  0  0  0  0
   38.0960   23.0330   35.6290 H   0  0  0  0  0  0  0  0  0  0  0  0
   37.1570   23.2790   37.8510 H   0  0  0  0  0  0  0  0  0  0  0  0
   38.6890   23.7650   38.6770 H   0  0  0  0  0  0  0  0  0  0  0  0
   39.1520   25.5820   37.2290 H   0  0  0  0  0  0  0  0  0  0  0  0
   40.1120   22.9500   36.4980 C   0  0  0  0  0  0  0  0  0  0  0  0
   40.9880   23.6530   35.6490 C   0  0  0  0  0  0  0  0  0  0  0  0
   42.2860   23.1990   35.6410 C   0  0  0  0  0  0  0  0  0  0  0  0
   42.6440   22.1480   36.4140 N   0  0  0  0  0  0  0  0  0  0  0  0
   41.7690   21.4920   37.2250 C   0  0  0  0  0  0  0  0  0  0  0  0
   40.4630   21.9130   37.2620 N   0  0  0  0  0  0  0  0  0  0  0  0
   42.1170   20.4180   38.0540 N   0  0  0  0  0  0  0  0  0  0  0  0
   40.7210   24.4800   35.0350 H   0  0  0  0  0  0  0  0  0  0  0  0
   43.0380   23.6690   35.0220 H   0  0  0  0  0  0  0  0  0  0  0  0
   42.7920   19.6230   37.8940 H   0  0  0  0  0  0  0  0  0  0  0  0
   41.6600   20.3390   39.0100 H   0  0  0  0  0  0  0  0  0  0  0  0
   37.4600   25.4630   36.0360 O   0  0  0  0  0  0  0  0  0  0  0  0
   37.2110   27.8630   35.1340 O   0  0  0  0  0  0  0  0  0  0  0  0
   38.0520   26.6350   35.0140 P   0  0  1  0  0  0  0  0  0  0  0  0
   39.6270   27.1190   35.5510 O   0  0  0  0  0  0  0  0  0  0  0  0
   40.1660   27.2900   34.7150 H   0  0  0  0  0  0  0  0  0  0  0  0
   38.1660   26.0230   33.4590 O   0  0  0  0  0  0  0  0  0  0  0  0
   37.1610   25.7320   32.5960 C   0  0  0  0  0  0  0  0  0  0  0  0
   36.3780   26.6470   31.9310 C   0  0  0  0  0  0  0  0  0  0  0  0
   36.5720   27.7060   32.1050 H   0  0  0  0  0  0  0  0  0  0  0  0
   35.3870   26.1970   31.0780 C   0  0  0  0  0  3  0  0  0  0  0  0
   35.1630   24.8470   30.8760 C   0  0  0  0  0  3  0  0  0  0  0  0
   35.9410   23.9260   31.5360 C   0  0  0  0  0  0  0  0  0  0  0  0
   35.7250   22.5770   31.3420 C   0  0  0  0  0  3  0  0  0  0  0  0
   36.4850   21.6240   31.9870 C   0  0  0  0  0  3  0  0  0  0  0  0
   37.4810   22.0460   32.8440 C   0  0  0  0  0  3  0  0  0  0  0  0
   37.7000   23.3930   33.0420 C   0  0  0  0  0  3  0  0  0  0  0  0
   36.9400   24.3710   32.3950 C   0  0  0  0  0  0  0  0  0  0  0  0
  1  4  1  6  0  0  0
  1  3  1  0  0  0  0
  1  2  1  0  0  0  0
  2  5  1  0  0  0  0
  2  6  1  0  0  0  0
  3  7  1  1  0  0  0
  3  2  1  0  0  0  0
  8  1  1  0  0  0  0
  8 13  1  0  0  0  0
  9  8  2  0  0  0  0
 10  9  1  0  0  0  0
 10 11  2  0  0  0  0
 11 12  1  0  0  0  0
 12 13  2  0  0  0  0
 12 14  1  0  0  0  0
 14 18  1  0  0  0  0
 15  9  1  0  0  0  0
 16 10  1  0  0  0  0
 17 14  1  0  0  0  0
 19  3  1  0  0  0  0
 21 20  2  1  0  0  0
 21 22  1  0  0  0  0
 21 19  1  0  0  0  0
 23 22  1  0  0  0  0
 24 21  1  0  0  0  0
 25 24  1  0  0  0  0
 26 27  1  0  0  0  0
 26 25  2  0  0  0  0
 28 26  1  0  0  0  0
 29 28  2  0  0  0  0
 29 30  1  0  0  0  0
 30 35  1  0  0  0  0
 31 30  2  0  0  0  0
 31 32  1  0  0  0  0
 32 33  2  0  0  0  0
 33 34  1  0  0  0  0
 35 25  1  0  0  0  0
 35 34  2  0  0  0  0
M  END
>  <minimizedAffinity>
-6.29354191

$$$$

 OpenBabel03272504583D

 35 38  0  0  1  0  0  0  0  0999 V2000
   36.8400   23.4190   31.3610 C   0  0  1  0  0  0  0  0  0  0  0  0
   35.8640   24.3740   30.8890 C   0  0  0  0  0  0  0  0  0  0  0  0
   36.4940   24.5470   32.2320 C   0  0  2  0  0  0  0  0  0  0  0  0
   37.9310   23.4220   31.0130 H   0  0  0  0  0  0  0  0  0  0  0  0
   36.1810   24.6910   29.9140 H   0  0  0  0  0  0  0  0  0  0  0  0
   34.8050   24.0420   30.8880 H   0  0  0  0  0  0  0  0  0  0  0  0
   35.7330   24.6180   32.9900 H   0  0  0  0  0  0  0  0  0  0  0  0
   36.4180   22.0550   31.8300 C   0  0  0  0  0  0  0  0  0  0  0  0
   36.3500   21.0590   30.8380 C   0  0  0  0  0  0  0  0  0  0  0  0
   35.9670   19.8150   31.2820 C   0  0  0  0  0  0  0  0  0  0  0  0
   35.6890   19.6160   32.5910 N   0  0  0  0  0  0  0  0  0  0  0  0
   35.7660   20.6050   33.5240 C   0  0  0  0  0  0  0  0  0  0  0  0
   36.1430   21.8620   33.1220 N   0  0  0  0  0  0  0  0  0  0  0  0
   35.5070   20.4220   34.8890 N   0  0  0  0  0  0  0  0  0  0  0  0
   36.5660   21.2000   29.8060 H   0  0  0  0  0  0  0  0  0  0  0  0
   35.8830   18.9790   30.6010 H   0  0  0  0  0  0  0  0  0  0  0  0
   34.7870   19.8220   35.3720 H   0  0  0  0  0  0  0  0  0  0  0  0
   36.0980   20.9480   35.5970 H   0  0  0  0  0  0  0  0  0  0  0  0
   37.4570   25.5550   32.3180 O   0  0  0  0  0  0  0  0  0  0  0  0
   39.2820   26.4770   33.8850 O   0  0  0  0  0  0  0  0  0  0  0  0
   37.9840   25.7380   33.8860 P   0  0  1  0  0  0  0  0  0  0  0  0
   36.8850   26.7680   34.7430 O   0  0  0  0  0  0  0  0  0  0  0  0
   36.8310   26.3990   35.6810 H   0  0  0  0  0  0  0  0  0  0  0  0
   38.0390   24.2440   34.6410 O   0  0  0  0  0  0  0  0  0  0  0  0
   38.3380   23.9670   35.9350 C   0  0  0  0  0  0  0  0  0  0  0  0
   37.6460   24.4130   37.0360 C   0  0  0  0  0  0  0  0  0  0  0  0
   36.7760   25.0490   36.8690 H   0  0  0  0  0  0  0  0  0  0  0  0
   38.0740   24.0450   38.2980 C   0  0  0  0  0  3  0  0  0  0  0  0
   39.1810   23.2370   38.4810 C   0  0  0  0  0  3  0  0  0  0  0  0
   39.8780   22.7860   37.3860 C   0  0  0  0  0  0  0  0  0  0  0  0
   40.9850   21.9800   37.5590 C   0  0  0  0  0  3  0  0  0  0  0  0
   41.7090   21.5090   36.4830 C   0  0  0  0  0  3  0  0  0  0  0  0
   41.3040   21.8620   35.2120 C   0  0  0  0  0  3  0  0  0  0  0  0
   40.2000   22.6670   35.0350 C   0  0  0  0  0  3  0  0  0  0  0  0
   39.4550   23.1520   36.1130 C   0  0  0  0  0  0  0  0  0  0  0  0
  1  4  1  6  0  0  0
  1  8  1  0  0  0  0
  1  3  1  0  0  0  0
  2  1  1  0  0  0  0
  2  3  1  0  0  0  0
  3 19  1  0  0  0  0
  3  7  1  1  0  0  0
  5  2  1  0  0  0  0
  6  2  1  0  0  0  0
  8 13  1  0  0  0  0
  9 10  1  0  0  0  0
  9  8  2  0  0  0  0
 10 11  2  0  0  0  0
 11 12  1  0  0  0  0
 12 14  1  0  0  0  0
 13 12  2  0  0  0  0
 14 17  1  0  0  0  0
 14 18  1  0  0  0  0
 15  9  1  0  0  0  0
 16 10  1  0  0  0  0
 19 21  1  0  0  0  0
 21 20  2  1  0  0  0
 21 24  1  0  0  0  0
 21 22  1  0  0  0  0
 22 23  1  0  0  0  0
 24 25  1  0  0  0  0
 25 35  2  0  0  0  0
 25 26  1  0  0  0  0
 26 28  2  0  0  0  0
 27 26  1  0  0  0  0
 28 29  1  0  0  0  0
 30 31  1  0  0  0  0
 30 29  2  0  0  0  0
 32 31  2  0  0  0  0
 33 32  1  0  0  0  0
 34 33  2  0  0  0  0
 34 35  1  0  0  0  0
 35 30  1  0  0  0  0
M  END
>  <minimizedAffinity>
-6.2864871

$$$$

 OpenBabel03272504583D

 35 38  0  0  1  0  0  0  0  0999 V2000
   37.8140   25.9510   35.8180 C   0  0  1  0  0  0  0  0  0  0  0  0
   38.6560   27.1160   35.6770 C   0  0  0  0  0  0  0  0  0  0  0  0
   37.7870   26.6780   34.5450 C   0  0  2  0  0  0  0  0  0  0  0  0
   36.8170   25.9700   36.3820 H   0  0  0  0  0  0  0  0  0  0  0  0
   38.4540   27.7530   36.5170 H   0  0  0  0  0  0  0  0  0  0  0  0
   39.7440   26.9310   35.5550 H   0  0  0  0  0  0  0  0  0  0  0  0
   38.3810   26.5290   33.6590 H   0  0  0  0  0  0  0  0  0  0  0  0
   38.4020   24.5680   35.7900 C   0  0  0  0  0  0  0  0  0  0  0  0
   38.3610   23.9090   34.5470 C   0  0  0  0  0  0  0  0  0  0  0  0
   38.9060   22.6470   34.5350 C   0  0  0  0  0  0  0  0  0  0  0  0
   39.4330   22.1230   35.6660 N   0  0  0  0  0  0  0  0  0  0  0  0
   39.4560   22.7910   36.8520 C   0  0  0  0  0  0  0  0  0  0  0  0
   38.9210   24.0540   36.9070 N   0  0  0  0  0  0  0  0  0  0  0  0
   40.0160   22.2830   38.0310 N   0  0  0  0  0  0  0  0  0  0  0  0
   37.9500   24.3080   33.6500 H   0  0  0  0  0  0  0  0  0  0  0  0
   38.9240   22.0540   33.6310 H   0  0  0  0  0  0  0  0  0  0  0  0
   40.0210   21.3010   38.4170 H   0  0  0  0  0  0  0  0  0  0  0  0
   40.5310   22.9470   38.6810 H   0  0  0  0  0  0  0  0  0  0  0  0
   36.6500   27.4570   34.3230 O   0  0  0  0  0  0  0  0  0  0  0  0
   37.8860   28.0180   32.1340 O   0  0  0  0  0  0  0  0  0  0  0  0
   36.5190   27.8740   32.7170 P   0  0  1  0  0  0  0  0  0  0  0  0
   35.7960   26.5640   31.8440 O   0  0  0  0  0  0  0  0  0  0  0  0
   35.2030   26.9880   31.1460 H   0  0  0  0  0  0  0  0  0  0  0  0
   35.5550   29.2350   32.5650 O   0  0  0  0  0  0  0  0  0  0  0  0
   35.9420   30.5250   32.4080 C   0  0  0  0  0  0  0  0  0  0  0  0
   36.3470   31.1080   31.2300 C   0  0  0  0  0  0  0  0  0  0  0  0
   36.3630   30.4890   30.3320 H   0  0  0  0  0  0  0  0  0  0  0  0
   36.7130   32.4420   31.2260 C   0  0  0  0  0  3  0  0  0  0  0  0
   36.6830   33.2040   32.3790 C   0  0  0  0  0  3  0  0  0  0  0  0
   36.2800   32.6300   33.5610 C   0  0  0  0  0  0  0  0  0  0  0  0
   36.2470   33.3830   34.7170 C   0  0  0  0  0  3  0  0  0  0  0  0
   35.8480   32.8390   35.9200 C   0  0  0  0  0  3  0  0  0  0  0  0
   35.4770   31.5110   35.9520 C   0  0  0  0  0  3  0  0  0  0  0  0
   35.5090   30.7550   34.8000 C   0  0  0  0  0  3  0  0  0  0  0  0
   35.9090   31.2900   33.5730 C   0  0  0  0  0  0  0  0  0  0  0  0
  1  4  1  1  0  0  0
  2  1  1  0  0  0  0
  2  5  1  0  0  0  0
  3  7  1  6  0  0  0
  3  2  1  0  0  0  0
  3  1  1  0  0  0  0
  6  2  1  0  0  0  0
  8  1  1  0  0  0  0
  8 13  1  0  0  0  0
  9  8  2  0  0  0  0
 10  9  1  0  0  0  0
 10 11  2  0  0  0  0
 11 12  1  0  0  0  0
 12 13  2  0  0  0  0
 12 14  1  0  0  0  0
 14 17  1  0  0  0  0
 14 18  1  0  0  0  0
 15  9  1  0  0  0  0
 16 10  1  0  0  0  0
 19  3  1  0  0  0  0
 21 20  2  6  0  0  0
 21 19  1  0  0  0  0
 22 21  1  0  0  0  0
 23 22  1  0  0  0  0
 24 21  1  0  0  0  0
 25 24  1  0  0  0  0
 25 35  1  0  0  0  0
 26 25  2  0  0  0  0
 27 26  1  0  0  0  0
 28 26  1  0  0  0  0
 28 29  2  0  0  0  0
 29 30  1  0  0  0  0
 30 35  2  0  0  0  0
 30 31  1  0  0  0  0
 31 32  2  0  0  0  0
 32 33  1  0  0  0  0
 34 33  2  0  0  0  0
 35 34  1  0  0  0  0
M  END
>  <minimizedAffinity>
-6.2191515

$$$$

 OpenBabel03272504583D

 35 38  0  0  1  0  0  0  0  0999 V2000
   37.5500   25.8840   35.2300 C   0  0  1  0  0  0  0  0  0  0  0  0
   38.0530   27.2180   35.0010 C   0  0  0  0  0  0  0  0  0  0  0  0
   37.8490   26.2860   33.8520 C   0  0  2  0  0  0  0  0  0  0  0  0
   36.4420   25.6610   35.4150 H   0  0  0  0  0  0  0  0  0  0  0  0
   37.3790   27.8960   35.4890 H   0  0  0  0  0  0  0  0  0  0  0  0
   39.1080   27.4080   35.2920 H   0  0  0  0  0  0  0  0  0  0  0  0
   38.7640   26.1840   33.2930 H   0  0  0  0  0  0  0  0  0  0  0  0
   38.4290   24.8200   35.8250 C   0  0  0  0  0  0  0  0  0  0  0  0
   39.5580   24.4600   35.0650 C   0  0  0  0  0  0  0  0  0  0  0  0
   40.3550   23.4900   35.6240 C   0  0  0  0  0  0  0  0  0  0  0  0
   40.0340   22.9520   36.8240 N   0  0  0  0  0  0  0  0  0  0  0  0
   38.9330   23.3260   37.5320 C   0  0  0  0  0  0  0  0  0  0  0  0
   38.1090   24.2920   37.0090 N   0  0  0  0  0  0  0  0  0  0  0  0
   38.5890   22.8050   38.7860 N   0  0  0  0  0  0  0  0  0  0  0  0
   39.8240   24.8740   34.1210 H   0  0  0  0  0  0  0  0  0  0  0  0
   41.2470   23.1410   35.1210 H   0  0  0  0  0  0  0  0  0  0  0  0
   38.6810   21.8260   39.1670 H   0  0  0  0  0  0  0  0  0  0  0  0
   38.1610   23.4540   39.5110 H   0  0  0  0  0  0  0  0  0  0  0  0
   36.7380   26.5540   33.0510 O   0  0  0  0  0  0  0  0  0  0  0  0
   35.2050   25.3800   31.3450 O   0  0  0  0  0  0  0  0  0  0  0  0
   36.6230   25.4540   31.8070 P   0  0  1  0  0  0  0  0  0  0  0  0
   37.5090   26.0430   30.4390 O   0  0  0  0  0  0  0  0  0  0  0  0
   37.9330   25.2330   30.0120 H   0  0  0  0  0  0  0  0  0  0  0  0
   37.2710   23.9870   32.2910 O   0  0  0  0  0  0  0  0  0  0  0  0
   37.6680   22.9470   31.5150 C   0  0  0  0  0  0  0  0  0  0  0  0
   38.7800   22.9220   30.7070 C   0  0  0  0  0  0  0  0  0  0  0  0
   39.4100   23.8120   30.6770 H   0  0  0  0  0  0  0  0  0  0  0  0
   39.0560   21.7840   29.9720 C   0  0  0  0  0  3  0  0  0  0  0  0
   38.2400   20.6690   30.0290 C   0  0  0  0  0  3  0  0  0  0  0  0
   37.1260   20.6850   30.8340 C   0  0  0  0  0  0  0  0  0  0  0  0
   36.3060   19.5780   30.8970 C   0  0  0  0  0  3  0  0  0  0  0  0
   35.1800   19.5590   31.6940 C   0  0  0  0  0  3  0  0  0  0  0  0
   34.8810   20.6810   32.4380 C   0  0  0  0  0  3  0  0  0  0  0  0
   35.6980   21.7900   32.3780 C   0  0  0  0  0  3  0  0  0  0  0  0
   36.8420   21.8260   31.5770 C   0  0  0  0  0  0  0  0  0  0  0  0
  1  4  1  1  0  0  0
  1  8  1  0  0  0  0
  2  1  1  0  0  0  0
  2  6  1  0  0  0  0
  2  5  1  0  0  0  0
  3  7  1  6  0  0  0
  3  2  1  0  0  0  0
  3  1  1  0  0  0  0
  8 13  1  0  0  0  0
  9 10  1  0  0  0  0
  9  8  2  0  0  0  0
 10 11  2  0  0  0  0
 11 12  1  0  0  0  0
 12 14  1  0  0  0  0
 13 12  2  0  0  0  0
 14 17  1  0  0  0  0
 14 18  1  0  0  0  0
 15  9  1  0  0  0  0
 16 10  1  0  0  0  0
 19  3  1  0  0  0  0
 21 20  2  6  0  0  0
 21 24  1  0  0  0  0
 21 19  1  0  0  0  0
 22 21  1  0  0  0  0
 23 22  1  0  0  0  0
 25 35  1  0  0  0  0
 25 24  1  0  0  0  0
 26 25  2  0  0  0  0
 27 26  1  0  0  0  0
 28 29  2  0  0  0  0
 28 26  1  0  0  0  0
 29 30  1  0  0  0  0
 30 31  2  0  0  0  0
 30 35  1  0  0  0  0
 31 32  1  0  0  0  0
 32 33  2  0  0  0  0
 34 33  1  0  0  0  0
 35 34  2  0  0  0  0
M  END
>  <minimizedAffinity>
-6.19857597

$$$$

 OpenBabel03272504583D

 35 38  0  0  1  0  0  0  0  0999 V2000
   38.9050   22.9900   34.8870 C   0  0  1  0  0  0  0  0  0  0  0  0
   39.8120   23.1300   33.7710 C   0  0  0  0  0  0  0  0  0  0  0  0
   38.8710   24.2370   34.1170 C   0  0  2  0  0  0  0  0  0  0  0  0
   39.2340   23.1290   35.9760 H   0  0  0  0  0  0  0  0  0  0  0  0
   40.7950   22.8990   34.1340 H   0  0  0  0  0  0  0  0  0  0  0  0
   39.5660   22.5500   32.8570 H   0  0  0  0  0  0  0  0  0  0  0  0
   38.2740   24.4950   33.2590 H   0  0  0  0  0  0  0  0  0  0  0  0
   37.6930   22.1070   34.7900 C   0  0  0  0  0  0  0  0  0  0  0  0
   37.3690   21.6490   33.4980 C   0  0  0  0  0  0  0  0  0  0  0  0
   36.2610   20.8380   33.4250 C   0  0  0  0  0  0  0  0  0  0  0  0
   35.5670   20.5320   34.5460 N   0  0  0  0  0  0  0  0  0  0  0  0
   35.9110   20.9920   35.7800 C   0  0  0  0  0  0  0  0  0  0  0  0
   37.0110   21.8060   35.8970 N   0  0  0  0  0  0  0  0  0  0  0  0
   35.2260   20.6720   36.9590 N   0  0  0  0  0  0  0  0  0  0  0  0
   37.9050   21.8810   32.6090 H   0  0  0  0  0  0  0  0  0  0  0  0
   35.9260   20.4340   32.4800 H   0  0  0  0  0  0  0  0  0  0  0  0
   34.1950   20.5400   37.1350 H   0  0  0  0  0  0  0  0  0  0  0  0
   35.7830   20.5270   37.8520 H   0  0  0  0  0  0  0  0  0  0  0  0
   39.4500   25.3440   34.7410 O   0  0  0  0  0  0  0  0  0  0  0  0
   37.9310   25.5570   36.8110 O   0  0  0  0  0  0  0  0  0  0  0  0
   38.2990   26.2440   35.5380 P   0  0  1  0  0  0  0  0  0  0  0  0
   38.9930   27.7540   36.0280 O   0  0  0  0  0  0  0  0  0  0  0  0
   38.2640   28.4440   35.9210 H   0  0  0  0  0  0  0  0  0  0  0  0
   37.0070   26.5410   34.5140 O   0  0  0  0  0  0  0  0  0  0  0  0
   36.6110   27.7240   33.9820 C   0  0  0  0  0  0  0  0  0  0  0  0
   35.9410   28.7240   34.6480 C   0  0  0  0  0  0  0  0  0  0  0  0
   35.7000   28.5650   35.6990 H   0  0  0  0  0  0  0  0  0  0  0  0
   35.6030   29.8800   33.9680 C   0  0  0  0  0  3  0  0  0  0  0  0
   35.9200   30.0550   32.6340 C   0  0  0  0  0  3  0  0  0  0  0  0
   36.5890   29.0610   31.9610 C   0  0  0  0  0  0  0  0  0  0  0  0
   36.9100   29.2270   30.6290 C   0  0  0  0  0  3  0  0  0  0  0  0
   37.5810   28.2510   29.9220 C   0  0  0  0  0  3  0  0  0  0  0  0
   37.9310   27.0870   30.5750 C   0  0  0  0  0  3  0  0  0  0  0  0
   37.6120   26.9170   31.9060 C   0  0  0  0  0  3  0  0  0  0  0  0
   36.9340   27.8960   32.6370 C   0  0  0  0  0  0  0  0  0  0  0  0
  1  4  1  1  0  0  0
  2  3  1  0  0  0  0
  2  5  1  0  0  0  0
  2  1  1  0  0  0  0
  3  7  1  6  0  0  0
  3 19  1  0  0  0  0
  3  1  1  0  0  0  0
  6  2  1  0  0  0  0
  8  1  1  0  0  0  0
  8 13  1  0  0  0  0
  9  8  2  0  0  0  0
 10  9  1  0  0  0  0
 10 11  2  0  0  0  0
 11 12  1  0  0  0  0
 12 13  2  0  0  0  0
 12 14  1  0  0  0  0
 14 17  1  0  0  0  0
 14 18  1  0  0  0  0
 15  9  1  0  0  0  0
 16 10  1  0  0  0  0
 19 21  1  0  0  0  0
 21 22  1  0  0  0  0
 21 20  2  1  0  0  0
 23 22  1  0  0  0  0
 24 21  1  0  0  0  0
 25 24  1  0  0  0  0
 25 26  1  0  0  0  0
 26 27  1  0  0  0  0
 28 26  2  0  0  0  0
 29 28  1  0  0  0  0
 30 29  2  0  0  0  0
 30 35  1  0  0  0  0
 31 30  1  0  0  0  0
 32 33  1  0  0  0  0
 32 31  2  0  0  0  0
 33 34  2  0  0  0  0
 34 35  1  0  0  0  0
 35 25  2  0  0  0  0
M  END
>  <minimizedAffinity>
-6.15598774

$$$$

 OpenBabel03272504583D

 35 38  0  0  1  0  0  0  0  0999 V2000
   37.8860   25.9990   35.8140 C   0  0  1  0  0  0  0  0  0  0  0  0
   38.7300   27.1290   35.5050 C   0  0  0  0  0  0  0  0  0  0  0  0
   37.7110   26.6620   34.5180 C   0  0  2  0  0  0  0  0  0  0  0  0
   36.9720   26.0750   36.4990 H   0  0  0  0  0  0  0  0  0  0  0  0
   38.6550   27.8120   36.3290 H   0  0  0  0  0  0  0  0  0  0  0  0
   39.7880   26.9050   35.2540 H   0  0  0  0  0  0  0  0  0  0  0  0
   38.1810   26.4520   33.5730 H   0  0  0  0  0  0  0  0  0  0  0  0
   38.4320   24.5980   35.7830 C   0  0  0  0  0  0  0  0  0  0  0  0
   38.3500   23.9340   34.5450 C   0  0  0  0  0  0  0  0  0  0  0  0
   38.8580   22.6570   34.5310 C   0  0  0  0  0  0  0  0  0  0  0  0
   39.3880   22.1230   35.6550 N   0  0  0  0  0  0  0  0  0  0  0  0
   39.4520   22.7950   36.8370 C   0  0  0  0  0  0  0  0  0  0  0  0
   38.9550   24.0750   36.8950 N   0  0  0  0  0  0  0  0  0  0  0  0
   40.0170   22.2770   38.0090 N   0  0  0  0  0  0  0  0  0  0  0  0
   37.9360   24.3410   33.6530 H   0  0  0  0  0  0  0  0  0  0  0  0
   38.8430   22.0590   33.6290 H   0  0  0  0  0  0  0  0  0  0  0  0
   39.9990   21.2980   38.4000 H   0  0  0  0  0  0  0  0  0  0  0  0
   40.5620   22.9290   38.6470 H   0  0  0  0  0  0  0  0  0  0  0  0
   36.5740   27.4640   34.4040 O   0  0  0  0  0  0  0  0  0  0  0  0
   37.7940   28.1490   32.2420 O   0  0  0  0  0  0  0  0  0  0  0  0
   36.4400   28.0880   32.8670 P   0  0  1  0  0  0  0  0  0  0  0  0
   35.5390   26.9870   31.8790 O   0  0  0  0  0  0  0  0  0  0  0  0
   34.9770   27.5580   31.2660 H   0  0  0  0  0  0  0  0  0  0  0  0
   35.6370   29.5580   32.9240 O   0  0  0  0  0  0  0  0  0  0  0  0
   35.1040   30.1830   34.0040 C   0  0  0  0  0  0  0  0  0  0  0  0
   35.8020   30.9030   34.9450 C   0  0  0  0  0  0  0  0  0  0  0  0
   36.8830   30.9880   34.8250 H   0  0  0  0  0  0  0  0  0  0  0  0
   35.1170   31.4860   35.9950 C   0  0  0  0  0  3  0  0  0  0  0  0
   33.7450   31.3620   36.1230 C   0  0  0  0  0  3  0  0  0  0  0  0
   33.0400   30.6430   35.1870 C   0  0  0  0  0  0  0  0  0  0  0  0
   31.6720   30.5130   35.3070 C   0  0  0  0  0  3  0  0  0  0  0  0
   30.9320   29.8000   34.3870 C   0  0  0  0  0  3  0  0  0  0  0  0
   31.5910   29.2080   33.3290 C   0  0  0  0  0  3  0  0  0  0  0  0
   32.9580   29.3350   33.2060 C   0  0  0  0  0  3  0  0  0  0  0  0
   33.7220   30.0550   34.1280 C   0  0  0  0  0  0  0  0  0  0  0  0
  1  4  1  1  0  0  0
  2  1  1  0  0  0  0
  2  5  1  0  0  0  0
  3  7  1  6  0  0  0
  3  2  1  0  0  0  0
  3  1  1  0  0  0  0
  6  2  1  0  0  0  0
  8  1  1  0  0  0  0
  8 13  1  0  0  0  0
  9  8  2  0  0  0  0
 10  9  1  0  0  0  0
 10 11  2  0  0  0  0
 11 12  1  0  0  0  0
 12 13  2  0  0  0  0
 12 14  1  0  0  0  0
 14 17  1  0  0  0  0
 14 18  1  0  0  0  0
 15  9  1  0  0  0  0
 16 10  1  0  0  0  0
 19  3  1  0  0  0  0
 21 20  2  6  0  0  0
 21 24  1  0  0  0  0
 21 19  1  0  0  0  0
 22 21  1  0  0  0  0
 23 22  1  0  0  0  0
 24 25  1  0  0  0  0
 25 35  2  0  0  0  0
 25 26  1  0  0  0  0
 26 28  2  0  0  0  0
 27 26  1  0  0  0  0
 28 29  1  0  0  0  0
 30 31  1  0  0  0  0
 30 29  2  0  0  0  0
 32 31  2  0  0  0  0
 33 32  1  0  0  0  0
 34 33  2  0  0  0  0
 34 35  1  0  0  0  0
 35 30  1  0  0  0  0
M  END
>  <minimizedAffinity>
-6.05881834

$$$$
