
 OpenBabel03262522083D

 22 24  0  0  0  0  0  0  0  0999 V2000
   36.4980   30.5380   47.3360 C   0  0  0  0  0  0  0  0  0  0  0  0
   35.4450   30.2940   46.7090 O   0  0  0  0  0  0  0  0  0  0  0  0
   37.7570   31.1510   46.8880 C   0  0  0  0  0  0  0  0  0  0  0  0
   38.3140   30.5870   45.7510 C   0  0  0  0  0  0  0  0  0  0  0  0
   37.9290   29.7510   45.1600 H   0  0  0  0  0  0  0  0  0  0  0  0
   39.5100   31.0890   45.2350 C   0  0  0  0  0  3  0  0  0  0  0  0
   40.1360   32.1560   45.8690 C   0  0  0  0  0  3  0  0  0  0  0  0
   39.5760   32.7120   47.0000 C   0  0  0  0  0  0  0  0  0  0  0  0
   40.1490   33.7820   47.6820 C   0  0  0  0  0  3  0  0  0  0  0  0
   39.5450   34.3110   48.8220 C   0  0  0  0  0  3  0  0  0  0  0  0
   38.3640   33.7980   49.3120 C   0  0  0  0  0  3  0  0  0  0  0  0
   37.7940   32.7330   48.6300 C   0  0  0  0  0  3  0  0  0  0  0  0
   38.3930   32.2100   47.5030 C   0  0  0  0  0  0  0  0  0  0  0  0
   37.6620   29.6240   49.3220 C   0  0  0  0  0  0  0  0  0  0  0  0
   36.4530   30.1360   48.7650 C   0  0  0  0  0  0  0  0  0  0  0  0
   35.3390   30.2200   49.5910 C   0  0  0  0  0  0  0  0  0  0  0  0
   35.4530   29.8140   50.8730 N   0  0  0  0  0  0  0  0  0  0  0  0
   36.6000   29.3360   51.3780 C   0  0  0  0  0  0  0  0  0  0  0  0
   37.7080   29.2310   50.6300 N   0  0  0  0  0  0  0  0  0  0  0  0
   38.5750   29.5250   48.7510 H   0  0  0  0  0  0  0  0  0  0  0  0
   34.4520   30.6080   49.1400 H   0  0  0  0  0  0  0  0  0  0  0  0
   36.7130   29.0050   52.4020 H   0  0  0  0  0  0  0  0  0  0  0  0
  1 15  1  0  0  0  0
  2  1  2  0  0  0  0
  3  1  1  0  0  0  0
  3 13  1  0  0  0  0
  4  3  2  0  0  0  0
  5  4  1  0  0  0  0
  6  4  1  0  0  0  0
  6  7  2  0  0  0  0
  7  8  1  0  0  0  0
  8 13  2  0  0  0  0
  8  9  1  0  0  0  0
  9 10  2  0  0  0  0
 10 11  1  0  0  0  0
 12 11  2  0  0  0  0
 13 12  1  0  0  0  0
 14 19  1  0  0  0  0
 15 14  2  0  0  0  0
 15 16  1  0  0  0  0
 16 17  2  0  0  0  0
 17 18  1  0  0  0  0
 18 22  1  0  0  0  0
 19 18  2  0  0  0  0
 20 14  1  0  0  0  0
 21 16  1  0  0  0  0
M  END
>  <minimizedAffinity>
-5.58110857

>  <minimizedRMSD>
4.76523781

$$$$
