
 OpenBabel03272508573D

 42 46  0  0  1  0  0  0  0  0999 V2000
   39.1650   31.4360   43.3360 C   0  0  0  0  0  0  0  0  0  0  0  0
   40.1860   30.5210   43.5080 C   0  0  0  0  0  0  0  0  0  0  0  0
   40.8980   30.1500   42.3850 C   0  0  0  0  0  0  0  0  0  0  0  0
   40.5660   30.6960   41.1760 C   0  0  0  0  0  0  0  0  0  0  0  0
   39.5290   31.6240   41.0060 C   0  0  0  0  0  0  0  0  0  0  0  0
   38.8580   31.9600   42.1250 N   0  0  0  0  0  0  0  0  0  0  0  0
   40.4550   30.0840   44.4620 H   0  0  0  0  0  0  0  0  0  0  0  0
   41.7150   29.4490   42.3870 H   0  0  0  0  0  0  0  0  0  0  0  0
   41.0950   30.4350   40.2750 H   0  0  0  0  0  0  0  0  0  0  0  0
   38.3880   31.8520   44.5210 C   0  0  0  0  0  0  0  0  0  0  0  0
   37.3120   32.4480   44.4120 O   0  0  0  0  0  0  0  0  0  0  0  0
   38.9350   31.5360   45.8240 N   0  0  0  0  0  0  0  0  0  0  0  0
   39.9070   31.2220   45.9730 H   0  0  0  0  0  0  0  0  0  0  0  0
   38.4230   31.0780   48.2180 C   0  0  2  0  0  0  0  0  0  0  0  0
   38.6580   32.5410   48.0990 C   0  0  0  0  0  0  0  0  0  0  0  0
   38.0630   31.6730   46.9720 C   0  0  1  0  0  0  0  0  0  0  0  0
   39.3380   30.4560   48.3130 H   0  0  0  0  0  0  0  0  0  0  0  0
   39.6830   32.8880   47.9870 H   0  0  0  0  0  0  0  0  0  0  0  0
   37.9830   33.2220   48.6500 H   0  0  0  0  0  0  0  0  0  0  0  0
   37.0010   31.9240   46.7690 H   0  0  0  0  0  0  0  0  0  0  0  0
   35.0550   30.2140   49.5330 C   0  0  0  0  0  0  0  0  0  0  0  0
   35.3820   29.5730   50.7580 C   0  0  0  0  0  0  0  0  0  0  0  0
   36.7780   29.4530   51.1270 C   0  0  0  0  0  0  0  0  0  0  0  0
   37.7260   29.9610   50.2840 N   0  0  0  0  0  0  0  0  0  0  0  0
   37.3340   30.5620   49.1280 C   0  0  0  0  0  0  0  0  0  0  0  0
   36.0140   30.7070   48.7180 N   0  0  0  0  0  0  0  0  0  0  0  0
   34.0130   30.2690   49.3220 H   0  0  0  0  0  0  0  0  0  0  0  0
   34.6650   29.1710   51.4270 H   0  0  0  0  0  0  0  0  0  0  0  0
   37.0220   28.9690   52.0520 H   0  0  0  0  0  0  0  0  0  0  0  0
   39.1980   32.1660   39.7010 C   0  0  0  0  0  0  0  0  0  0  0  0
   38.9300   33.3870   39.5940 O   0  0  0  0  0  0  0  0  0  0  0  0
   39.1210   31.4940   38.4160 C   0  0  0  0  0  0  0  0  0  0  0  0
   37.9060   30.9240   38.0210 C   0  0  0  0  0  0  0  0  0  0  0  0
   37.0660   31.0090   38.7250 H   0  0  0  0  0  0  0  0  0  0  0  0
   37.6730   30.2710   36.8290 C   0  0  0  0  0  3  0  0  0  0  0  0
   38.7280   30.1660   35.9460 C   0  0  0  0  0  3  0  0  0  0  0  0
   39.9500   30.7090   36.2810 C   0  0  0  0  0  0  0  0  0  0  0  0
   41.0080   30.6020   35.4050 C   0  0  0  0  0  3  0  0  0  0  0  0
   42.2460   31.1400   35.7330 C   0  0  0  0  0  3  0  0  0  0  0  0
   42.4220   31.7910   36.9570 C   0  0  0  0  0  3  0  0  0  0  0  0
   41.3470   31.8790   37.8080 C   0  0  0  0  0  3  0  0  0  0  0  0
   40.1300   31.3520   37.4880 C   0  0  0  0  0  0  0  0  0  0  0  0
  1  2  1  0  0  0  0
  1 10  1  0  0  0  0
  2  7  1  0  0  0  0
  3  8  1  0  0  0  0
  3  2  2  0  0  0  0
  4  3  1  0  0  0  0
  5  4  2  0  0  0  0
  5  6  1  0  0  0  0
  6  1  2  0  0  0  0
  9  4  1  0  0  0  0
 10 12  1  0  0  0  0
 11 10  2  0  0  0  0
 12 13  1  0  0  0  0
 12 16  1  0  0  0  0
 14 17  1  6  0  0  0
 14 25  1  0  0  0  0
 15 14  1  0  0  0  0
 15 19  1  0  0  0  0
 16 20  1  6  0  0  0
 16 15  1  0  0  0  0
 16 14  1  0  0  0  0
 18 15  1  0  0  0  0
 21 22  1  0  0  0  0
 22 23  2  0  0  0  0
 22 28  1  0  0  0  0
 23 29  1  0  0  0  0
 24 23  1  0  0  0  0
 25 24  2  0  0  0  0
 26 25  1  0  0  0  0
 26 21  2  0  0  0  0
 27 21  1  0  0  0  0
 30  5  1  0  0  0  0
 31 30  2  0  0  0  0
 32 30  1  0  0  0  0
 33 32  1  0  0  0  0
 33 34  1  0  0  0  0
 35 33  2  0  0  0  0
 36 37  2  0  0  0  0
 36 35  1  0  0  0  0
 37 42  1  0  0  0  0
 38 39  2  0  0  0  0
 38 37  1  0  0  0  0
 39 40  1  0  0  0  0
 40 41  2  0  0  0  0
 42 41  1  0  0  0  0
 42 32  2  0  0  0  0
M  END
>  <minimizedAffinity>
-5.04685879

>  <minimizedRMSD>
0.300173044

$$$$
