
 OpenBabel03272503413D

 43 47  0  0  1  0  0  0  0  0999 V2000
   40.0590   30.7610   41.9130 C   0  0  2  0  0  0  0  0  0  0  0  0
   39.9310   32.0170   42.8000 C   0  0  1  0  0  0  0  0  0  0  0  0
   38.8320   32.7110   42.0600 C   0  0  0  0  0  0  0  0  0  0  0  0
   39.0290   32.4560   40.7170 O   0  0  0  0  0  0  0  0  0  0  0  0
   39.9740   31.4620   40.5650 C   0  0  0  0  0  0  0  0  0  0  0  0
   41.0260   30.2630   42.0890 H   0  0  0  0  0  0  0  0  0  0  0  0
   40.8520   32.6030   42.7780 H   0  0  0  0  0  0  0  0  0  0  0  0
   38.9130   33.8120   42.1890 H   0  0  0  0  0  0  0  0  0  0  0  0
   37.8120   32.4340   42.4130 H   0  0  0  0  0  0  0  0  0  0  0  0
   39.6630   30.7260   39.8170 H   0  0  0  0  0  0  0  0  0  0  0  0
   40.9710   31.8590   40.2840 H   0  0  0  0  0  0  0  0  0  0  0  0
   38.4930   31.1240   45.9640 C   0  0  0  0  0  0  0  0  0  0  0  0
   39.8100   31.1010   46.3020 C   0  0  0  0  0  0  0  0  0  0  0  0
   40.4790   31.4410   45.1180 C   0  0  0  0  0  0  0  0  0  0  0  0
   39.5820   31.6510   44.1420 N   0  0  0  0  0  0  0  0  0  0  0  0
   38.3550   31.4560   44.6600 N   0  0  0  0  0  0  0  0  0  0  0  0
   40.2730   30.8740   47.2590 H   0  0  0  0  0  0  0  0  0  0  0  0
   41.5570   31.5080   45.0610 H   0  0  0  0  0  0  0  0  0  0  0  0
   36.4170   30.6450   49.0500 C   0  0  0  0  0  0  0  0  0  0  0  0
   37.4890   30.9290   48.2390 C   0  0  0  0  0  0  0  0  0  0  0  0
   37.3960   30.8360   46.8660 C   0  0  0  0  0  0  0  0  0  0  0  0
   36.1960   30.4520   46.3640 N   0  0  0  0  0  0  0  0  0  0  0  0
   35.1430   30.1740   47.1840 C   0  0  0  0  0  0  0  0  0  0  0  0
   35.2410   30.2650   48.5010 N   0  0  0  0  0  0  0  0  0  0  0  0
   38.4730   31.2420   48.5860 H   0  0  0  0  0  0  0  0  0  0  0  0
   34.1880   29.8660   46.7360 H   0  0  0  0  0  0  0  0  0  0  0  0
   36.7030   30.7950   50.4100 O   0  0  0  0  0  0  0  0  0  0  0  0
   36.7800   29.6990   51.3030 C   0  0  0  0  0  0  0  0  0  0  0  0
   35.5320   29.2080   51.6240 F   0  0  0  0  0  0  0  0  0  0  0  0
   37.4490   30.1100   52.4250 F   0  0  0  0  0  0  0  0  0  0  0  0
   37.5360   28.7060   50.7090 F   0  0  0  0  0  0  0  0  0  0  0  0
   38.9280   30.0220   42.1470 O   0  0  0  0  0  0  0  0  0  0  0  0
   38.7840   28.6810   42.3760 C   0  0  0  0  0  0  0  0  0  0  0  0
   39.7520   27.6850   42.3890 C   0  0  0  0  0  0  0  0  0  0  0  0
   40.7620   28.0660   42.1830 H   0  0  0  0  0  0  0  0  0  0  0  0
   39.4020   26.3730   42.6450 C   0  0  0  0  0  0  0  0  0  0  0  0
   38.0990   26.0300   42.8880 C   0  0  0  0  0  0  0  0  0  0  0  0
   37.1330   26.9880   42.8800 C   0  0  0  0  0  0  0  0  0  0  0  0
   35.8290   26.5850   43.1340 C   0  0  0  0  0  0  0  0  0  0  0  0
   34.8150   27.5120   43.1370 C   0  0  0  0  0  0  0  0  0  0  0  0
   35.1140   28.8350   42.8880 C   0  0  0  0  0  0  0  0  0  0  0  0
   36.3910   29.2280   42.6410 C   0  0  0  0  0  0  0  0  0  0  0  0
   37.4540   28.3230   42.6270 C   0  0  0  0  0  0  0  0  0  0  0  0
  1  6  1  1  0  0  0
  1 32  1  0  0  0  0
  1  2  1  0  0  0  0
  2  7  1  6  0  0  0
  2 15  1  0  0  0  0
  3  8  1  0  0  0  0
  3  9  1  0  0  0  0
  3  2  1  0  0  0  0
  4  3  1  0  0  0  0
  5  4  1  0  0  0  0
  5  1  1  0  0  0  0
 10  5  1  0  0  0  0
 11  5  1  0  0  0  0
 12 13  1  0  0  0  0
 12 21  1  0  0  0  0
 13 17  1  0  0  0  0
 14 13  2  0  0  0  0
 15 16  1  0  0  0  0
 15 14  1  0  0  0  0
 16 12  2  0  0  0  0
 18 14  1  0  0  0  0
 19 27  1  0  0  0  0
 20 25  1  0  0  0  0
 20 19  2  0  0  0  0
 21 20  1  0  0  0  0
 22 21  2  0  0  0  0
 22 23  1  0  0  0  0
 23 24  2  0  0  0  0
 24 19  1  0  0  0  0
 26 23  1  0  0  0  0
 27 28  1  0  0  0  0
 28 29  1  0  0  0  0
 28 30  1  0  0  0  0
 31 28  1  0  0  0  0
 32 33  1  0  0  0  0
 33 34  2  0  0  0  0
 33 43  1  0  0  0  0
 34 36  1  0  0  0  0
 35 34  1  0  0  0  0
 36 37  2  0  0  0  0
 38 37  1  0  0  0  0
 38 39  1  0  0  0  0
 39 40  2  0  0  0  0
 41 40  1  0  0  0  0
 42 41  2  0  0  0  0
 43 42  1  0  0  0  0
 43 38  2  0  0  0  0
M  END
>  <minimizedAffinity>
-6.66911745

>  <minimizedRMSD>
0.690749288

$$$$
