
 OpenBabel03272500063D

 31 34  0  0  0  0  0  0  0  0999 V2000
   38.2780   26.9330   35.6280 C   0  0  0  0  0  0  0  0  0  0  0  0
   38.3130   25.6630   35.0250 C   0  0  0  0  0  0  0  0  0  0  0  0
   37.6530   25.5300   33.8210 C   0  0  0  0  0  0  0  0  0  0  0  0
   37.0110   26.5760   33.2620 N   0  0  0  0  0  0  0  0  0  0  0  0
   36.9860   27.7850   33.8520 C   0  0  0  0  0  0  0  0  0  0  0  0
   37.6240   27.9710   35.0460 N   0  0  0  0  0  0  0  0  0  0  0  0
   38.7780   27.0930   36.5730 H   0  0  0  0  0  0  0  0  0  0  0  0
   37.6650   24.5750   33.3410 H   0  0  0  0  0  0  0  0  0  0  0  0
   39.0120   24.6280   35.6860 N   0  0  0  0  0  0  0  0  0  0  0  0
   40.2780   24.3080   35.3590 C   0  0  0  0  0  0  0  0  0  0  0  0
   40.9130   23.2700   36.0520 C   0  0  0  0  0  0  0  0  0  0  0  0
   40.1640   22.6700   37.0210 C   0  0  0  0  0  0  0  0  0  0  0  0
   40.7410   21.7280   37.6510 O   0  0  0  0  0  0  0  0  0  0  0  0
   38.9080   22.9680   37.3660 N   0  0  0  0  0  0  0  0  0  0  0  0
   38.3270   23.9800   36.6680 C   0  0  0  0  0  0  0  0  0  0  0  0
   37.1330   24.2780   36.9820 O   0  0  0  0  0  0  0  0  0  0  0  0
   40.8100   24.8210   34.5850 H   0  0  0  0  0  0  0  0  0  0  0  0
   41.9280   22.9630   35.8400 H   0  0  0  0  0  0  0  0  0  0  0  0
   38.3910   22.4670   38.1180 H   0  0  0  0  0  0  0  0  0  0  0  0
   36.3580   28.9230   33.3640 O   0  0  0  0  0  0  0  0  0  0  0  0
   35.1170   29.3670   33.7550 C   0  0  0  0  0  0  0  0  0  0  0  0
   34.1130   28.7500   33.0030 C   0  0  0  0  0  0  0  0  0  0  0  0
   34.2350   28.0330   32.2260 H   0  0  0  0  0  0  0  0  0  0  0  0
   32.7650   29.0500   33.2280 C   0  0  0  0  0  3  0  0  0  0  0  0
   32.4150   29.9760   34.2160 C   0  0  0  0  0  3  0  0  0  0  0  0
   33.4140   30.5750   34.9480 C   0  0  0  0  0  0  0  0  0  0  0  0
   33.1580   31.5030   35.9340 C   0  0  0  0  0  3  0  0  0  0  0  0
   34.2170   32.0820   36.6360 C   0  0  0  0  0  3  0  0  0  0  0  0
   35.5540   31.7600   36.3830 C   0  0  0  0  0  3  0  0  0  0  0  0
   35.8010   30.8270   35.3920 C   0  0  0  0  0  3  0  0  0  0  0  0
   34.7340   30.2750   34.7180 C   0  0  0  0  0  0  0  0  0  0  0  0
  1  7  1  0  0  0  0
  2  1  2  0  0  0  0
  2  9  1  0  0  0  0
  3  2  1  0  0  0  0
  4  3  2  0  0  0  0
  4  5  1  0  0  0  0
  5  6  2  0  0  0  0
  6  1  1  0  0  0  0
  8  3  1  0  0  0  0
  9 15  1  0  0  0  0
 10  9  1  0  0  0  0
 10 11  2  0  0  0  0
 11 12  1  0  0  0  0
 12 14  1  0  0  0  0
 12 13  2  0  0  0  0
 14 19  1  0  0  0  0
 15 16  2  0  0  0  0
 15 14  1  0  0  0  0
 17 10  1  0  0  0  0
 18 11  1  0  0  0  0
 20 21  1  0  0  0  0
 20  5  1  0  0  0  0
 21 31  1  0  0  0  0
 22 24  1  0  0  0  0
 22 21  2  0  0  0  0
 23 22  1  0  0  0  0
 24 25  2  0  0  0  0
 25 26  1  0  0  0  0
 26 27  1  0  0  0  0
 27 28  2  0  0  0  0
 29 28  1  0  0  0  0
 30 29  2  0  0  0  0
 31 26  2  0  0  0  0
 31 30  1  0  0  0  0
M  END
>  <minimizedAffinity>
-6.24970722

$$$$

 OpenBabel03272500063D

 31 34  0  0  0  0  0  0  0  0999 V2000
   38.0600   24.4320   33.5500 C   0  0  0  0  0  0  0  0  0  0  0  0
   38.4550   24.8360   34.8380 C   0  0  0  0  0  0  0  0  0  0  0  0
   37.9880   26.0590   35.2740 C   0  0  0  0  0  0  0  0  0  0  0  0
   37.1920   26.8170   34.4940 N   0  0  0  0  0  0  0  0  0  0  0  0
   36.8240   26.4180   33.2630 C   0  0  0  0  0  0  0  0  0  0  0  0
   37.2580   25.2140   32.7820 N   0  0  0  0  0  0  0  0  0  0  0  0
   38.3960   23.4830   33.1580 H   0  0  0  0  0  0  0  0  0  0  0  0
   38.2740   26.3890   36.2500 H   0  0  0  0  0  0  0  0  0  0  0  0
   39.2900   23.9730   35.5820 N   0  0  0  0  0  0  0  0  0  0  0  0
   40.6260   23.9660   35.4190 C   0  0  0  0  0  0  0  0  0  0  0  0
   41.3960   23.0840   36.1870 C   0  0  0  0  0  0  0  0  0  0  0  0
   40.6940   22.2970   37.0530 C   0  0  0  0  0  0  0  0  0  0  0  0
   41.3940   21.4970   37.7510 O   0  0  0  0  0  0  0  0  0  0  0  0
   39.3710   22.2840   37.2350 N   0  0  0  0  0  0  0  0  0  0  0  0
   38.6590   23.1540   36.4680 C   0  0  0  0  0  0  0  0  0  0  0  0
   37.3990   23.1560   36.6270 O   0  0  0  0  0  0  0  0  0  0  0  0
   41.1150   24.6130   34.7200 H   0  0  0  0  0  0  0  0  0  0  0  0
   42.4730   23.0280   36.1060 H   0  0  0  0  0  0  0  0  0  0  0  0
   38.8970   21.6540   37.9150 H   0  0  0  0  0  0  0  0  0  0  0  0
   36.0120   27.1180   32.3820 O   0  0  0  0  0  0  0  0  0  0  0  0
   36.1150   28.4620   32.1130 C   0  0  0  0  0  0  0  0  0  0  0  0
   35.6130   29.2170   33.1780 C   0  0  0  0  0  0  0  0  0  0  0  0
   35.1980   28.8550   34.0880 H   0  0  0  0  0  0  0  0  0  0  0  0
   35.6160   30.6160   33.1260 C   0  0  0  0  0  3  0  0  0  0  0  0
   36.1260   31.2680   31.9990 C   0  0  0  0  0  3  0  0  0  0  0  0
   36.6170   30.5120   30.9600 C   0  0  0  0  0  0  0  0  0  0  0  0
   37.1310   31.0730   29.8110 C   0  0  0  0  0  3  0  0  0  0  0  0
   37.6060   30.2510   28.7870 C   0  0  0  0  0  3  0  0  0  0  0  0
   37.5860   28.8550   28.8720 C   0  0  0  0  0  3  0  0  0  0  0  0
   37.0690   28.3010   30.0290 C   0  0  0  0  0  3  0  0  0  0  0  0
   36.6080   29.1400   31.0200 C   0  0  0  0  0  0  0  0  0  0  0  0
  1  2  1  0  0  0  0
  2  3  2  0  0  0  0
  2  9  1  0  0  0  0
  3  8  1  0  0  0  0
  4  3  1  0  0  0  0
  5  4  2  0  0  0  0
  6  5  1  0  0  0  0
  6  1  2  0  0  0  0
  7  1  1  0  0  0  0
  9 15  1  0  0  0  0
 10  9  1  0  0  0  0
 10 11  2  0  0  0  0
 11 12  1  0  0  0  0
 12 14  1  0  0  0  0
 12 13  2  0  0  0  0
 14 19  1  0  0  0  0
 15 16  2  0  0  0  0
 15 14  1  0  0  0  0
 17 10  1  0  0  0  0
 18 11  1  0  0  0  0
 20  5  1  0  0  0  0
 21 20  1  0  0  0  0
 21 22  1  0  0  0  0
 22 23  1  0  0  0  0
 24 22  2  0  0  0  0
 25 24  1  0  0  0  0
 26 31  1  0  0  0  0
 26 25  2  0  0  0  0
 27 26  1  0  0  0  0
 28 29  1  0  0  0  0
 28 27  2  0  0  0  0
 29 30  2  0  0  0  0
 30 31  1  0  0  0  0
 31 21  2  0  0  0  0
M  END
>  <minimizedAffinity>
-6.22572041

$$$$

 OpenBabel03272500063D

 31 34  0  0  0  0  0  0  0  0999 V2000
   38.0800   24.2430   33.5240 C   0  0  0  0  0  0  0  0  0  0  0  0
   38.5180   24.7100   34.7760 C   0  0  0  0  0  0  0  0  0  0  0  0
   38.0920   25.9660   35.1530 C   0  0  0  0  0  0  0  0  0  0  0  0
   37.2950   26.6990   34.3500 N   0  0  0  0  0  0  0  0  0  0  0  0
   36.8850   26.2400   33.1540 C   0  0  0  0  0  0  0  0  0  0  0  0
   37.2780   25.0010   32.7320 N   0  0  0  0  0  0  0  0  0  0  0  0
   38.3840   23.2660   33.1780 H   0  0  0  0  0  0  0  0  0  0  0  0
   38.4100   26.3440   36.1010 H   0  0  0  0  0  0  0  0  0  0  0  0
   39.3510   23.8690   35.5490 N   0  0  0  0  0  0  0  0  0  0  0  0
   40.6840   23.8300   35.3630 C   0  0  0  0  0  0  0  0  0  0  0  0
   41.4520   22.9740   36.1610 C   0  0  0  0  0  0  0  0  0  0  0  0
   40.7530   22.2430   37.0760 C   0  0  0  0  0  0  0  0  0  0  0  0
   41.4500   21.4650   37.8010 O   0  0  0  0  0  0  0  0  0  0  0  0
   39.4320   22.2620   37.2800 N   0  0  0  0  0  0  0  0  0  0  0  0
   38.7230   23.1060   36.4840 C   0  0  0  0  0  0  0  0  0  0  0  0
   37.4660   23.1380   36.6640 O   0  0  0  0  0  0  0  0  0  0  0  0
   41.1710   24.4330   34.6250 H   0  0  0  0  0  0  0  0  0  0  0  0
   42.5260   22.8950   36.0650 H   0  0  0  0  0  0  0  0  0  0  0  0
   38.9600   21.6740   37.9990 H   0  0  0  0  0  0  0  0  0  0  0  0
   36.0680   26.9100   32.2540 O   0  0  0  0  0  0  0  0  0  0  0  0
   36.3870   28.0900   31.6260 C   0  0  0  0  0  0  0  0  0  0  0  0
   36.9750   27.8430   30.3820 C   0  0  0  0  0  0  0  0  0  0  0  0
   37.1720   26.8980   29.9350 H   0  0  0  0  0  0  0  0  0  0  0  0
   37.3830   28.9020   29.5620 C   0  0  0  0  0  3  0  0  0  0  0  0
   37.2010   30.2210   29.9890 C   0  0  0  0  0  3  0  0  0  0  0  0
   36.6220   30.4480   31.2160 C   0  0  0  0  0  0  0  0  0  0  0  0
   36.4120   31.7150   31.7160 C   0  0  0  0  0  3  0  0  0  0  0  0
   35.8260   31.8790   32.9730 C   0  0  0  0  0  3  0  0  0  0  0  0
   35.4320   30.7970   33.7670 C   0  0  0  0  0  3  0  0  0  0  0  0
   35.6450   29.5300   33.2560 C   0  0  0  0  0  3  0  0  0  0  0  0
   36.2260   29.4020   32.0130 C   0  0  0  0  0  0  0  0  0  0  0  0
  1  2  1  0  0  0  0
  2  3  2  0  0  0  0
  2  9  1  0  0  0  0
  3  8  1  0  0  0  0
  4  3  1  0  0  0  0
  5  4  2  0  0  0  0
  6  5  1  0  0  0  0
  6  1  2  0  0  0  0
  7  1  1  0  0  0  0
  9 15  1  0  0  0  0
 10  9  1  0  0  0  0
 10 11  2  0  0  0  0
 11 12  1  0  0  0  0
 12 14  1  0  0  0  0
 12 13  2  0  0  0  0
 14 19  1  0  0  0  0
 15 16  2  0  0  0  0
 15 14  1  0  0  0  0
 17 10  1  0  0  0  0
 18 11  1  0  0  0  0
 20  5  1  0  0  0  0
 21 31  1  0  0  0  0
 21 20  1  0  0  0  0
 22 21  2  0  0  0  0
 23 22  1  0  0  0  0
 24 25  2  0  0  0  0
 24 22  1  0  0  0  0
 25 26  1  0  0  0  0
 26 27  2  0  0  0  0
 26 31  1  0  0  0  0
 27 28  1  0  0  0  0
 28 29  2  0  0  0  0
 30 29  1  0  0  0  0
 31 30  2  0  0  0  0
M  END
>  <minimizedAffinity>
-6.17592573

$$$$

 OpenBabel03272500063D

 31 34  0  0  0  0  0  0  0  0999 V2000
   36.3480   28.1890   30.8840 C   0  0  0  0  0  0  0  0  0  0  0  0
   36.8490   27.2240   31.7760 C   0  0  0  0  0  0  0  0  0  0  0  0
   36.7080   27.4900   33.1220 C   0  0  0  0  0  0  0  0  0  0  0  0
   36.1160   28.6250   33.5470 N   0  0  0  0  0  0  0  0  0  0  0  0
   35.6430   29.5400   32.6810 C   0  0  0  0  0  0  0  0  0  0  0  0
   35.7570   29.3250   31.3370 N   0  0  0  0  0  0  0  0  0  0  0  0
   36.4320   28.0320   29.8190 H   0  0  0  0  0  0  0  0  0  0  0  0
   37.0790   26.7720   33.8200 H   0  0  0  0  0  0  0  0  0  0  0  0
   37.4520   26.0650   31.2360 N   0  0  0  0  0  0  0  0  0  0  0  0
   38.7480   26.0460   30.8720 C   0  0  0  0  0  0  0  0  0  0  0  0
   39.2830   24.8660   30.3430 C   0  0  0  0  0  0  0  0  0  0  0  0
   38.4120   23.8200   30.2470 C   0  0  0  0  0  0  0  0  0  0  0  0
   38.8990   22.7480   29.7670 O   0  0  0  0  0  0  0  0  0  0  0  0
   37.1240   23.8120   30.6000 N   0  0  0  0  0  0  0  0  0  0  0  0
   36.6430   24.9780   31.1090 C   0  0  0  0  0  0  0  0  0  0  0  0
   35.4200   24.9900   31.4510 O   0  0  0  0  0  0  0  0  0  0  0  0
   39.3780   26.9060   30.9750 H   0  0  0  0  0  0  0  0  0  0  0  0
   40.3150   24.7820   30.0320 H   0  0  0  0  0  0  0  0  0  0  0  0
   36.5120   22.9760   30.4990 H   0  0  0  0  0  0  0  0  0  0  0  0
   35.0200   30.7360   33.0110 O   0  0  0  0  0  0  0  0  0  0  0  0
   34.8590   31.2160   34.2890 C   0  0  0  0  0  0  0  0  0  0  0  0
   35.8890   32.1040   34.6160 C   0  0  0  0  0  0  0  0  0  0  0  0
   36.7060   32.4010   34.0020 H   0  0  0  0  0  0  0  0  0  0  0  0
   35.9300   32.7190   35.8720 C   0  0  0  0  0  3  0  0  0  0  0  0
   34.9320   32.4440   36.8120 C   0  0  0  0  0  3  0  0  0  0  0  0
   33.9260   31.5690   36.4770 C   0  0  0  0  0  0  0  0  0  0  0  0
   32.9080   31.2380   37.3450 C   0  0  0  0  0  3  0  0  0  0  0  0
   31.9200   30.3350   36.9480 C   0  0  0  0  0  3  0  0  0  0  0  0
   31.9110   29.7370   35.6840 C   0  0  0  0  0  3  0  0  0  0  0  0
   32.9350   30.0760   34.8180 C   0  0  0  0  0  3  0  0  0  0  0  0
   33.8950   30.9700   35.2420 C   0  0  0  0  0  0  0  0  0  0  0  0
  1  6  2  0  0  0  0
  1  2  1  0  0  0  0
  2  3  2  0  0  0  0
  3  4  1  0  0  0  0
  3  8  1  0  0  0  0
  5 20  1  0  0  0  0
  5  4  2  0  0  0  0
  6  5  1  0  0  0  0
  7  1  1  0  0  0  0
  9  2  1  0  0  0  0
 10 17  1  0  0  0  0
 10  9  1  0  0  0  0
 11 10  2  0  0  0  0
 12 11  1  0  0  0  0
 12 14  1  0  0  0  0
 13 12  2  0  0  0  0
 14 15  1  0  0  0  0
 15  9  1  0  0  0  0
 15 16  2  0  0  0  0
 18 11  1  0  0  0  0
 19 14  1  0  0  0  0
 20 21  1  0  0  0  0
 21 22  2  0  0  0  0
 21 31  1  0  0  0  0
 22 24  1  0  0  0  0
 23 22  1  0  0  0  0
 24 25  2  0  0  0  0
 26 25  1  0  0  0  0
 26 27  1  0  0  0  0
 28 27  2  0  0  0  0
 29 28  1  0  0  0  0
 30 31  1  0  0  0  0
 30 29  2  0  0  0  0
 31 26  2  0  0  0  0
M  END
>  <minimizedAffinity>
-5.93300009

$$$$

 OpenBabel03272500063D

 31 34  0  0  0  0  0  0  0  0999 V2000
   38.3460   25.7260   32.8200 C   0  0  0  0  0  0  0  0  0  0  0  0
   37.6370   25.6520   31.6080 C   0  0  0  0  0  0  0  0  0  0  0  0
   36.9800   24.4690   31.3450 C   0  0  0  0  0  0  0  0  0  0  0  0
   37.0250   23.4410   32.2170 N   0  0  0  0  0  0  0  0  0  0  0  0
   37.7080   23.5260   33.3720 C   0  0  0  0  0  0  0  0  0  0  0  0
   38.3770   24.6770   33.6820 N   0  0  0  0  0  0  0  0  0  0  0  0
   38.8790   26.6300   33.0770 H   0  0  0  0  0  0  0  0  0  0  0  0
   36.4330   24.3870   30.4300 H   0  0  0  0  0  0  0  0  0  0  0  0
   37.6470   26.7810   30.7580 N   0  0  0  0  0  0  0  0  0  0  0  0
   38.6880   27.0460   29.9460 C   0  0  0  0  0  0  0  0  0  0  0  0
   38.6350   28.1830   29.1300 C   0  0  0  0  0  0  0  0  0  0  0  0
   37.5000   28.9310   29.2410 C   0  0  0  0  0  0  0  0  0  0  0  0
   37.4520   29.9630   28.5000 O   0  0  0  0  0  0  0  0  0  0  0  0
   36.4540   28.6910   30.0380 N   0  0  0  0  0  0  0  0  0  0  0  0
   36.5460   27.5780   30.8150 C   0  0  0  0  0  0  0  0  0  0  0  0
   35.5610   27.3340   31.5780 O   0  0  0  0  0  0  0  0  0  0  0  0
   39.5520   26.4150   29.9070 H   0  0  0  0  0  0  0  0  0  0  0  0
   39.4360   28.4530   28.4550 H   0  0  0  0  0  0  0  0  0  0  0  0
   35.6160   29.3070   30.0750 H   0  0  0  0  0  0  0  0  0  0  0  0
   37.8190   22.5320   34.3350 O   0  0  0  0  0  0  0  0  0  0  0  0
   38.4420   22.6790   35.5510 C   0  0  0  0  0  0  0  0  0  0  0  0
   37.5430   23.1560   36.5110 C   0  0  0  0  0  0  0  0  0  0  0  0
   36.5140   23.3900   36.3740 H   0  0  0  0  0  0  0  0  0  0  0  0
   37.9580   23.3810   37.8280 C   0  0  0  0  0  3  0  0  0  0  0  0
   39.2840   23.1270   38.1920 C   0  0  0  0  0  3  0  0  0  0  0  0
   40.1570   22.6590   37.2380 C   0  0  0  0  0  0  0  0  0  0  0  0
   41.4810   22.3900   37.5080 C   0  0  0  0  0  3  0  0  0  0  0  0
   42.3180   21.9230   36.4930 C   0  0  0  0  0  3  0  0  0  0  0  0
   41.8700   21.7110   35.1860 C   0  0  0  0  0  3  0  0  0  0  0  0
   40.5390   21.9830   34.9230 C   0  0  0  0  0  3  0  0  0  0  0  0
   39.7400   22.4420   35.9470 C   0  0  0  0  0  0  0  0  0  0  0  0
  1  7  1  0  0  0  0
  1  6  1  0  0  0  0
  2  1  2  0  0  0  0
  3  2  1  0  0  0  0
  3  4  2  0  0  0  0
  4  5  1  0  0  0  0
  5  6  2  0  0  0  0
  5 20  1  0  0  0  0
  8  3  1  0  0  0  0
  9 15  1  0  0  0  0
  9  2  1  0  0  0  0
 10  9  1  0  0  0  0
 11 12  1  0  0  0  0
 11 10  2  0  0  0  0
 12 14  1  0  0  0  0
 13 12  2  0  0  0  0
 14 19  1  0  0  0  0
 14 15  1  0  0  0  0
 15 16  2  0  0  0  0
 17 10  1  0  0  0  0
 18 11  1  0  0  0  0
 20 21  1  0  0  0  0
 21 31  2  0  0  0  0
 21 22  1  0  0  0  0
 22 24  2  0  0  0  0
 23 22  1  0  0  0  0
 24 25  1  0  0  0  0
 26 27  1  0  0  0  0
 26 25  2  0  0  0  0
 28 27  2  0  0  0  0
 29 28  1  0  0  0  0
 30 29  2  0  0  0  0
 30 31  1  0  0  0  0
 31 26  1  0  0  0  0
M  END
>  <minimizedAffinity>
-5.78868675

$$$$

 OpenBabel03272500063D

 31 34  0  0  0  0  0  0  0  0999 V2000
   37.4520   26.0250   33.8680 C   0  0  0  0  0  0  0  0  0  0  0  0
   38.2030   25.9660   35.0560 C   0  0  0  0  0  0  0  0  0  0  0  0
   38.1560   27.0740   35.8750 C   0  0  0  0  0  0  0  0  0  0  0  0
   37.4220   28.1550   35.5400 N   0  0  0  0  0  0  0  0  0  0  0  0
   36.7090   28.1970   34.4000 C   0  0  0  0  0  0  0  0  0  0  0  0
   36.7200   27.1250   33.5520 N   0  0  0  0  0  0  0  0  0  0  0  0
   37.4530   25.1840   33.1890 H   0  0  0  0  0  0  0  0  0  0  0  0
   38.7180   27.0540   36.7840 H   0  0  0  0  0  0  0  0  0  0  0  0
   38.9410   24.7900   35.3220 N   0  0  0  0  0  0  0  0  0  0  0  0
   38.3610   23.6940   35.8450 C   0  0  0  0  0  0  0  0  0  0  0  0
   39.1490   22.5620   36.0860 C   0  0  0  0  0  0  0  0  0  0  0  0
   40.4670   22.6860   35.7550 C   0  0  0  0  0  0  0  0  0  0  0  0
   41.1830   21.6590   35.9730 O   0  0  0  0  0  0  0  0  0  0  0  0
   41.0670   23.7610   35.2350 N   0  0  0  0  0  0  0  0  0  0  0  0
   40.2660   24.8390   35.0180 C   0  0  0  0  0  0  0  0  0  0  0  0
   40.8190   25.8700   34.5230 O   0  0  0  0  0  0  0  0  0  0  0  0
   37.3170   23.6630   36.0820 H   0  0  0  0  0  0  0  0  0  0  0  0
   38.7470   21.6500   36.5040 H   0  0  0  0  0  0  0  0  0  0  0  0
   42.0820   23.7890   35.0060 H   0  0  0  0  0  0  0  0  0  0  0  0
   35.9240   29.2540   33.9610 O   0  0  0  0  0  0  0  0  0  0  0  0
   35.1880   30.0810   34.7760 C   0  0  0  0  0  0  0  0  0  0  0  0
   36.0220   30.9770   35.4520 C   0  0  0  0  0  0  0  0  0  0  0  0
   37.0810   31.0520   35.3840 H   0  0  0  0  0  0  0  0  0  0  0  0
   35.4890   31.9180   36.3400 C   0  0  0  0  0  3  0  0  0  0  0  0
   34.1090   31.9650   36.5560 C   0  0  0  0  0  3  0  0  0  0  0  0
   33.3010   31.0780   35.8850 C   0  0  0  0  0  0  0  0  0  0  0  0
   31.9320   31.0510   36.0440 C   0  0  0  0  0  3  0  0  0  0  0  0
   31.1670   30.1190   35.3390 C   0  0  0  0  0  3  0  0  0  0  0  0
   31.7340   29.1910   34.4600 C   0  0  0  0  0  3  0  0  0  0  0  0
   33.1080   29.2260   34.3060 C   0  0  0  0  0  3  0  0  0  0  0  0
   33.8330   30.1570   35.0160 C   0  0  0  0  0  0  0  0  0  0  0  0
  1  2  1  0  0  0  0
  2  9  1  0  0  0  0
  2  3  2  0  0  0  0
  3  8  1  0  0  0  0
  4  3  1  0  0  0  0
  5  4  2  0  0  0  0
  6  1  2  0  0  0  0
  6  5  1  0  0  0  0
  7  1  1  0  0  0  0
  9 10  1  0  0  0  0
 10 17  1  0  0  0  0
 10 11  2  0  0  0  0
 11 18  1  0  0  0  0
 12 13  2  0  0  0  0
 12 11  1  0  0  0  0
 14 12  1  0  0  0  0
 15 14  1  0  0  0  0
 15  9  1  0  0  0  0
 16 15  2  0  0  0  0
 19 14  1  0  0  0  0
 20  5  1  0  0  0  0
 20 21  1  0  0  0  0
 21 31  2  0  0  0  0
 21 22  1  0  0  0  0
 22 24  2  0  0  0  0
 23 22  1  0  0  0  0
 24 25  1  0  0  0  0
 26 27  1  0  0  0  0
 26 25  2  0  0  0  0
 28 27  2  0  0  0  0
 29 28  1  0  0  0  0
 30 29  2  0  0  0  0
 30 31  1  0  0  0  0
 31 26  1  0  0  0  0
M  END
>  <minimizedAffinity>
-5.74078894

$$$$

 OpenBabel03272500063D

 31 34  0  0  0  0  0  0  0  0999 V2000
   36.8280   25.9830   31.1320 C   0  0  0  0  0  0  0  0  0  0  0  0
   37.6190   27.1150   31.3950 C   0  0  0  0  0  0  0  0  0  0  0  0
   38.4180   27.0660   32.5180 C   0  0  0  0  0  0  0  0  0  0  0  0
   38.4300   25.9780   33.3150 N   0  0  0  0  0  0  0  0  0  0  0  0
   37.6670   24.9020   33.0510 C   0  0  0  0  0  0  0  0  0  0  0  0
   36.8570   24.8990   31.9500 N   0  0  0  0  0  0  0  0  0  0  0  0
   36.1830   25.9670   30.2650 H   0  0  0  0  0  0  0  0  0  0  0  0
   39.0290   27.9150   32.7400 H   0  0  0  0  0  0  0  0  0  0  0  0
   37.5390   28.2080   30.5020 N   0  0  0  0  0  0  0  0  0  0  0  0
   38.3720   28.3240   29.4510 C   0  0  0  0  0  0  0  0  0  0  0  0
   38.2410   29.4320   28.6050 C   0  0  0  0  0  0  0  0  0  0  0  0
   37.2510   30.3100   28.9390 C   0  0  0  0  0  0  0  0  0  0  0  0
   37.1330   31.3150   28.1710 O   0  0  0  0  0  0  0  0  0  0  0  0
   36.4130   30.2180   29.9750 N   0  0  0  0  0  0  0  0  0  0  0  0
   36.5740   29.1280   30.7730 C   0  0  0  0  0  0  0  0  0  0  0  0
   35.7850   29.0240   31.7630 O   0  0  0  0  0  0  0  0  0  0  0  0
   39.1300   27.5960   29.2440 H   0  0  0  0  0  0  0  0  0  0  0  0
   38.8760   29.5860   27.7440 H   0  0  0  0  0  0  0  0  0  0  0  0
   35.6770   30.9270   30.1750 H   0  0  0  0  0  0  0  0  0  0  0  0
   37.6040   23.7370   33.8020 O   0  0  0  0  0  0  0  0  0  0  0  0
   38.6160   23.2560   34.5980 C   0  0  0  0  0  0  0  0  0  0  0  0
   39.6000   22.6330   33.8220 C   0  0  0  0  0  0  0  0  0  0  0  0
   39.6130   22.5180   32.7650 H   0  0  0  0  0  0  0  0  0  0  0  0
   40.7310   22.0670   34.4230 C   0  0  0  0  0  3  0  0  0  0  0  0
   40.8810   22.1250   35.8120 C   0  0  0  0  0  3  0  0  0  0  0  0
   39.9060   22.7400   36.5610 C   0  0  0  0  0  0  0  0  0  0  0  0
   39.9720   22.8340   37.9340 C   0  0  0  0  0  3  0  0  0  0  0  0
   38.9450   23.4650   38.6390 C   0  0  0  0  0  3  0  0  0  0  0  0
   37.8270   24.0180   38.0060 C   0  0  0  0  0  3  0  0  0  0  0  0
   37.7700   23.9190   36.6280 C   0  0  0  0  0  3  0  0  0  0  0  0
   38.8000   23.2910   35.9630 C   0  0  0  0  0  0  0  0  0  0  0  0
  1  2  2  0  0  0  0
  1  6  1  0  0  0  0
  2  3  1  0  0  0  0
  3  8  1  0  0  0  0
  3  4  2  0  0  0  0
  5  4  1  0  0  0  0
  5 20  1  0  0  0  0
  6  5  2  0  0  0  0
  7  1  1  0  0  0  0
  9 15  1  0  0  0  0
  9  2  1  0  0  0  0
 10  9  1  0  0  0  0
 11 12  1  0  0  0  0
 11 10  2  0  0  0  0
 12 14  1  0  0  0  0
 13 12  2  0  0  0  0
 14 19  1  0  0  0  0
 14 15  1  0  0  0  0
 15 16  2  0  0  0  0
 17 10  1  0  0  0  0
 18 11  1  0  0  0  0
 20 21  1  0  0  0  0
 21 31  1  0  0  0  0
 22 24  1  0  0  0  0
 22 21  2  0  0  0  0
 23 22  1  0  0  0  0
 24 25  2  0  0  0  0
 25 26  1  0  0  0  0
 26 27  1  0  0  0  0
 27 28  2  0  0  0  0
 29 28  1  0  0  0  0
 30 29  2  0  0  0  0
 31 26  2  0  0  0  0
 31 30  1  0  0  0  0
M  END
>  <minimizedAffinity>
-5.72061253

$$$$

 OpenBabel03272500063D

 31 34  0  0  0  0  0  0  0  0999 V2000
   37.3120   25.3240   33.5000 C   0  0  0  0  0  0  0  0  0  0  0  0
   37.8370   25.7260   34.7410 C   0  0  0  0  0  0  0  0  0  0  0  0
   37.6150   27.0350   35.1140 C   0  0  0  0  0  0  0  0  0  0  0  0
   36.9270   27.8770   34.3170 N   0  0  0  0  0  0  0  0  0  0  0  0
   36.4310   27.4780   33.1320 C   0  0  0  0  0  0  0  0  0  0  0  0
   36.6220   26.1910   32.7140 N   0  0  0  0  0  0  0  0  0  0  0  0
   37.4560   24.3090   33.1580 H   0  0  0  0  0  0  0  0  0  0  0  0
   38.0040   27.3650   36.0540 H   0  0  0  0  0  0  0  0  0  0  0  0
   38.5440   24.7720   35.5080 N   0  0  0  0  0  0  0  0  0  0  0  0
   37.9450   24.0630   36.4830 C   0  0  0  0  0  0  0  0  0  0  0  0
   38.7030   23.1350   37.2060 C   0  0  0  0  0  0  0  0  0  0  0  0
   40.0130   23.0350   36.8380 C   0  0  0  0  0  0  0  0  0  0  0  0
   40.7010   22.1920   37.4950 O   0  0  0  0  0  0  0  0  0  0  0  0
   40.6320   23.7250   35.8760 N   0  0  0  0  0  0  0  0  0  0  0  0
   39.8600   24.6170   35.1980 C   0  0  0  0  0  0  0  0  0  0  0  0
   40.4310   25.2820   34.2780 O   0  0  0  0  0  0  0  0  0  0  0  0
   36.9090   24.1900   36.7220 H   0  0  0  0  0  0  0  0  0  0  0  0
   38.2850   22.5330   38.0020 H   0  0  0  0  0  0  0  0  0  0  0  0
   41.6390   23.6010   35.6460 H   0  0  0  0  0  0  0  0  0  0  0  0
   35.7120   28.2600   32.2390 O   0  0  0  0  0  0  0  0  0  0  0  0
   36.1430   29.4530   31.7090 C   0  0  0  0  0  0  0  0  0  0  0  0
   35.7970   30.5180   32.5460 C   0  0  0  0  0  0  0  0  0  0  0  0
   35.2730   30.4700   33.4710 H   0  0  0  0  0  0  0  0  0  0  0  0
   36.1370   31.8330   32.2070 C   0  0  0  0  0  3  0  0  0  0  0  0
   36.8310   32.0860   31.0200 C   0  0  0  0  0  3  0  0  0  0  0  0
   37.1640   31.0290   30.2060 C   0  0  0  0  0  0  0  0  0  0  0  0
   37.8410   31.1900   29.0170 C   0  0  0  0  0  3  0  0  0  0  0  0
   38.1430   30.0760   28.2310 C   0  0  0  0  0  3  0  0  0  0  0  0
   37.7860   28.7750   28.6000 C   0  0  0  0  0  3  0  0  0  0  0  0
   37.1090   28.6230   29.7960 C   0  0  0  0  0  3  0  0  0  0  0  0
   36.8250   29.7430   30.5470 C   0  0  0  0  0  0  0  0  0  0  0  0
  1  2  1  0  0  0  0
  2  3  2  0  0  0  0
  2  9  1  0  0  0  0
  3  8  1  0  0  0  0
  4  3  1  0  0  0  0
  5  4  2  0  0  0  0
  6  5  1  0  0  0  0
  6  1  2  0  0  0  0
  7  1  1  0  0  0  0
  9 10  1  0  0  0  0
 10 17  1  0  0  0  0
 10 11  2  0  0  0  0
 11 18  1  0  0  0  0
 12 11  1  0  0  0  0
 12 13  2  0  0  0  0
 14 12  1  0  0  0  0
 15  9  1  0  0  0  0
 15 14  1  0  0  0  0
 16 15  2  0  0  0  0
 19 14  1  0  0  0  0
 20  5  1  0  0  0  0
 21 20  1  0  0  0  0
 21 22  1  0  0  0  0
 22 23  1  0  0  0  0
 24 22  2  0  0  0  0
 25 24  1  0  0  0  0
 26 31  1  0  0  0  0
 26 25  2  0  0  0  0
 27 26  1  0  0  0  0
 28 29  1  0  0  0  0
 28 27  2  0  0  0  0
 29 30  2  0  0  0  0
 30 31  1  0  0  0  0
 31 21  2  0  0  0  0
M  END
>  <minimizedAffinity>
-5.71493196

$$$$

 OpenBabel03272500063D

 31 34  0  0  0  0  0  0  0  0999 V2000
   36.7850   25.9410   32.6840 C   0  0  0  0  0  0  0  0  0  0  0  0
   37.4360   27.1850   32.6070 C   0  0  0  0  0  0  0  0  0  0  0  0
   38.7670   27.2120   32.9640 C   0  0  0  0  0  0  0  0  0  0  0  0
   39.4010   26.0910   33.3670 N   0  0  0  0  0  0  0  0  0  0  0  0
   38.7650   24.9080   33.4370 C   0  0  0  0  0  0  0  0  0  0  0  0
   37.4450   24.8260   33.0930 N   0  0  0  0  0  0  0  0  0  0  0  0
   35.7410   25.8620   32.4160 H   0  0  0  0  0  0  0  0  0  0  0  0
   39.2850   28.1450   32.9130 H   0  0  0  0  0  0  0  0  0  0  0  0
   36.6890   28.3030   32.1730 N   0  0  0  0  0  0  0  0  0  0  0  0
   36.0020   29.0740   33.0370 C   0  0  0  0  0  0  0  0  0  0  0  0
   35.2810   30.1670   32.5410 C   0  0  0  0  0  0  0  0  0  0  0  0
   35.3500   30.3490   31.1910 C   0  0  0  0  0  0  0  0  0  0  0  0
   34.6950   31.3420   30.7410 O   0  0  0  0  0  0  0  0  0  0  0  0
   36.0230   29.6010   30.3120 N   0  0  0  0  0  0  0  0  0  0  0  0
   36.7090   28.5480   30.8340 C   0  0  0  0  0  0  0  0  0  0  0  0
   37.3550   27.8260   30.0140 O   0  0  0  0  0  0  0  0  0  0  0  0
   35.9910   28.8750   34.0890 H   0  0  0  0  0  0  0  0  0  0  0  0
   34.7090   30.8260   33.1800 H   0  0  0  0  0  0  0  0  0  0  0  0
   36.0320   29.7960   29.2890 H   0  0  0  0  0  0  0  0  0  0  0  0
   39.3200   23.7000   33.8360 O   0  0  0  0  0  0  0  0  0  0  0  0
   39.5470   23.3300   35.1400 C   0  0  0  0  0  0  0  0  0  0  0  0
   38.5970   23.9060   35.9900 C   0  0  0  0  0  0  0  0  0  0  0  0
   37.7930   24.5480   35.7190 H   0  0  0  0  0  0  0  0  0  0  0  0
   38.6320   23.6660   37.3680 C   0  0  0  0  0  3  0  0  0  0  0  0
   39.6260   22.8410   37.9040 C   0  0  0  0  0  3  0  0  0  0  0  0
   40.5540   22.2820   37.0570 C   0  0  0  0  0  0  0  0  0  0  0  0
   41.5690   21.4640   37.5020 C   0  0  0  0  0  3  0  0  0  0  0  0
   42.4860   20.9330   36.5920 C   0  0  0  0  0  3  0  0  0  0  0  0
   42.4220   21.1950   35.2200 C   0  0  0  0  0  3  0  0  0  0  0  0
   41.3990   22.0170   34.7820 C   0  0  0  0  0  3  0  0  0  0  0  0
   40.5120   22.5240   35.7060 C   0  0  0  0  0  0  0  0  0  0  0  0
  1  6  1  0  0  0  0
  2  1  2  0  0  0  0
  2  3  1  0  0  0  0
  3  4  2  0  0  0  0
  4  5  1  0  0  0  0
  5 20  1  0  0  0  0
  6  5  2  0  0  0  0
  7  1  1  0  0  0  0
  8  3  1  0  0  0  0
  9  2  1  0  0  0  0
  9 10  1  0  0  0  0
 10 17  1  0  0  0  0
 11 10  2  0  0  0  0
 11 18  1  0  0  0  0
 12 11  1  0  0  0  0
 13 12  2  0  0  0  0
 14 15  1  0  0  0  0
 14 12  1  0  0  0  0
 15  9  1  0  0  0  0
 16 15  2  0  0  0  0
 19 14  1  0  0  0  0
 20 21  1  0  0  0  0
 21 31  2  0  0  0  0
 21 22  1  0  0  0  0
 22 24  2  0  0  0  0
 23 22  1  0  0  0  0
 24 25  1  0  0  0  0
 26 27  1  0  0  0  0
 26 25  2  0  0  0  0
 28 27  2  0  0  0  0
 29 28  1  0  0  0  0
 30 29  2  0  0  0  0
 30 31  1  0  0  0  0
 31 26  1  0  0  0  0
M  END
>  <minimizedAffinity>
-5.7079215

$$$$
