
 OpenBabel03272508273D

 40 44  0  0  1  0  0  0  0  0999 V2000
   33.9680   29.0280   47.3400 C   0  0  2  0  0  0  0  0  0  0  0  0
   34.7350   28.2440   48.3950 C   0  0  2  0  0  0  0  0  0  0  0  0
   33.8510   28.0320   49.4090 O   0  0  0  0  0  0  0  0  0  0  0  0
   32.5720   28.0810   48.9560 C   0  0  0  0  0  0  0  0  0  0  0  0
   32.6120   28.3210   47.4610 C   0  0  1  0  0  0  0  0  0  0  0  0
   33.8450   30.0810   47.5950 H   0  0  0  0  0  0  0  0  0  0  0  0
   35.0260   27.2790   47.9630 H   0  0  0  0  0  0  0  0  0  0  0  0
   32.1010   29.0090   49.3900 H   0  0  0  0  0  0  0  0  0  0  0  0
   31.9340   27.2360   49.2320 H   0  0  0  0  0  0  0  0  0  0  0  0
   32.6970   27.3190   46.9800 H   0  0  0  0  0  0  0  0  0  0  0  0
   35.7880   30.5200   49.0430 C   0  0  1  0  0  0  0  0  0  0  0  0
   35.8900   29.0960   48.8210 C   0  0  1  0  0  0  0  0  0  0  0  0
   36.0280   29.5730   50.2290 C   0  0  0  0  0  0  0  0  0  0  0  0
   34.8550   31.1060   49.2350 H   0  0  0  0  0  0  0  0  0  0  0  0
   36.8450   28.7610   48.3240 H   0  0  0  0  0  0  0  0  0  0  0  0
   35.2170   29.3730   50.9410 H   0  0  0  0  0  0  0  0  0  0  0  0
   37.0460   29.5470   50.6860 H   0  0  0  0  0  0  0  0  0  0  0  0
   36.9820   31.4310   48.8030 C   0  0  0  0  0  0  0  0  0  0  0  0
   37.1630   32.4850   49.7010 C   0  0  0  0  0  0  0  0  0  0  0  0
   38.2530   33.3070   49.4230 C   0  0  0  0  0  0  0  0  0  0  0  0
   39.0570   33.0780   48.3600 N   0  0  0  0  0  0  0  0  0  0  0  0
   38.8420   32.0340   47.5100 C   0  0  0  0  0  0  0  0  0  0  0  0
   37.7920   31.2010   47.7350 N   0  0  0  0  0  0  0  0  0  0  0  0
   36.4860   32.6180   50.5320 H   0  0  0  0  0  0  0  0  0  0  0  0
   38.4310   34.1400   50.0940 H   0  0  0  0  0  0  0  0  0  0  0  0
   39.5090   31.8900   46.6760 H   0  0  0  0  0  0  0  0  0  0  0  0
   34.4830   28.9150   46.0680 O   0  0  0  0  0  0  0  0  0  0  0  0
   35.4580   28.7630   46.0280 H   0  0  0  0  0  0  0  0  0  0  0  0
   31.5880   29.0990   46.9900 O   0  0  0  0  0  0  0  0  0  0  0  0
   30.9460   28.9780   45.7900 C   0  0  0  0  0  0  0  0  0  0  0  0
   30.2560   27.8930   45.3010 C   0  0  0  0  0  0  0  0  0  0  0  0
   30.2220   27.0300   45.9510 H   0  0  0  0  0  0  0  0  0  0  0  0
   29.6410   27.8770   44.0680 C   0  0  0  0  0  3  0  0  0  0  0  0
   29.7130   29.0040   43.2740 C   0  0  0  0  0  3  0  0  0  0  0  0
   30.3940   30.1370   43.7070 C   0  0  0  0  0  0  0  0  0  0  0  0
   30.4590   31.2570   42.9040 C   0  0  0  0  0  3  0  0  0  0  0  0
   31.1370   32.3660   43.3520 C   0  0  0  0  0  3  0  0  0  0  0  0
   31.7550   32.3900   44.5810 C   0  0  0  0  0  3  0  0  0  0  0  0
   31.6600   31.2430   45.3460 C   0  0  0  0  0  3  0  0  0  0  0  0
   30.9880   30.0890   44.9500 C   0  0  0  0  0  0  0  0  0  0  0  0
  1  5  1  0  0  0  0
  1  6  1  1  0  0  0
  1  2  1  0  0  0  0
  2  7  1  6  0  0  0
  2 12  1  0  0  0  0
  2  3  1  0  0  0  0
  4  9  1  0  0  0  0
  4  8  1  0  0  0  0
  4  3  1  0  0  0  0
  5 10  1  6  0  0  0
  5  4  1  0  0  0  0
 11 14  1  6  0  0  0
 11 13  1  0  0  0  0
 12 15  1  6  0  0  0
 12 11  1  0  0  0  0
 12 13  1  0  0  0  0
 13 17  1  0  0  0  0
 13 16  1  0  0  0  0
 18 11  1  0  0  0  0
 18 19  1  0  0  0  0
 19 24  1  0  0  0  0
 20 19  2  0  0  0  0
 20 25  1  0  0  0  0
 21 20  1  0  0  0  0
 22 23  1  0  0  0  0
 22 21  2  0  0  0  0
 23 18  2  0  0  0  0
 26 22  1  0  0  0  0
 27  1  1  0  0  0  0
 28 27  1  0  0  0  0
 29  5  1  0  0  0  0
 30 29  1  0  0  0  0
 31 30  1  0  0  0  0
 31 32  1  0  0  0  0
 33 31  2  0  0  0  0
 34 35  2  0  0  0  0
 34 33  1  0  0  0  0
 35 40  1  0  0  0  0
 36 37  2  0  0  0  0
 36 35  1  0  0  0  0
 37 38  1  0  0  0  0
 38 39  2  0  0  0  0
 40 39  1  0  0  0  0
 40 30  2  0  0  0  0
M  END
>  <minimizedAffinity>
-5.26919031

>  <minimizedRMSD>
0.80476737

$$$$
