
 OpenBabel03272508573D

 42 46  0  0  1  0  0  0  0  0999 V2000
   39.1980   31.4130   43.3660 C   0  0  0  0  0  0  0  0  0  0  0  0
   40.2130   30.4950   43.5490 C   0  0  0  0  0  0  0  0  0  0  0  0
   40.9320   30.1170   42.4320 C   0  0  0  0  0  0  0  0  0  0  0  0
   40.6110   30.6600   41.2190 C   0  0  0  0  0  0  0  0  0  0  0  0
   39.5790   31.5920   41.0380 C   0  0  0  0  0  0  0  0  0  0  0  0
   38.9010   31.9340   42.1520 N   0  0  0  0  0  0  0  0  0  0  0  0
   40.4740   30.0600   44.5060 H   0  0  0  0  0  0  0  0  0  0  0  0
   41.7460   29.4120   42.4430 H   0  0  0  0  0  0  0  0  0  0  0  0
   41.1450   30.3940   40.3230 H   0  0  0  0  0  0  0  0  0  0  0  0
   38.4140   31.8360   44.5440 C   0  0  0  0  0  0  0  0  0  0  0  0
   37.3460   32.4440   44.4250 O   0  0  0  0  0  0  0  0  0  0  0  0
   38.9450   31.5140   45.8520 N   0  0  0  0  0  0  0  0  0  0  0  0
   39.9120   31.1880   46.0100 H   0  0  0  0  0  0  0  0  0  0  0  0
   38.4160   31.0800   48.2460 C   0  0  2  0  0  0  0  0  0  0  0  0
   38.6450   32.5430   48.1130 C   0  0  0  0  0  0  0  0  0  0  0  0
   38.0630   31.6590   46.9910 C   0  0  1  0  0  0  0  0  0  0  0  0
   39.3330   30.4630   48.3560 H   0  0  0  0  0  0  0  0  0  0  0  0
   39.6690   32.8930   48.0060 H   0  0  0  0  0  0  0  0  0  0  0  0
   37.9620   33.2260   48.6510 H   0  0  0  0  0  0  0  0  0  0  0  0
   37.0010   31.9020   46.7770 H   0  0  0  0  0  0  0  0  0  0  0  0
   35.0420   30.2100   49.5440 C   0  0  0  0  0  0  0  0  0  0  0  0
   35.3630   29.5870   50.7800 C   0  0  0  0  0  0  0  0  0  0  0  0
   36.7560   29.4820   51.1630 C   0  0  0  0  0  0  0  0  0  0  0  0
   37.7090   29.9850   50.3210 N   0  0  0  0  0  0  0  0  0  0  0  0
   37.3230   30.5680   49.1540 C   0  0  0  0  0  0  0  0  0  0  0  0
   36.0050   30.6990   48.7310 N   0  0  0  0  0  0  0  0  0  0  0  0
   34.0020   30.2550   49.3240 H   0  0  0  0  0  0  0  0  0  0  0  0
   34.6440   29.1900   51.4490 H   0  0  0  0  0  0  0  0  0  0  0  0
   36.9960   29.0120   52.0960 H   0  0  0  0  0  0  0  0  0  0  0  0
   39.2600   32.1300   39.7290 C   0  0  0  0  0  0  0  0  0  0  0  0
   38.5340   33.1500   39.6460 O   0  0  0  0  0  0  0  0  0  0  0  0
   39.6650   31.6620   38.4150 C   0  0  0  0  0  0  0  0  0  0  0  0
   40.6610   32.3610   37.7250 C   0  0  0  0  0  0  0  0  0  0  0  0
   41.0790   33.2480   38.2190 H   0  0  0  0  0  0  0  0  0  0  0  0
   41.1620   32.0300   36.4830 C   0  0  0  0  0  3  0  0  0  0  0  0
   40.6370   30.9150   35.8630 C   0  0  0  0  0  3  0  0  0  0  0  0
   39.6520   30.1870   36.4960 C   0  0  0  0  0  0  0  0  0  0  0  0
   39.1220   29.0750   35.8790 C   0  0  0  0  0  3  0  0  0  0  0  0
   38.1250   28.3360   36.5050 C   0  0  0  0  0  3  0  0  0  0  0  0
   37.6570   28.7200   37.7630 C   0  0  0  0  0  3  0  0  0  0  0  0
   38.2070   29.8340   38.3510 C   0  0  0  0  0  3  0  0  0  0  0  0
   39.1870   30.5620   37.7390 C   0  0  0  0  0  0  0  0  0  0  0  0
  1  2  1  0  0  0  0
  1 10  1  0  0  0  0
  2  7  1  0  0  0  0
  3  8  1  0  0  0  0
  3  2  2  0  0  0  0
  4  3  1  0  0  0  0
  5  4  2  0  0  0  0
  5  6  1  0  0  0  0
  6  1  2  0  0  0  0
  9  4  1  0  0  0  0
 10 12  1  0  0  0  0
 11 10  2  0  0  0  0
 12 13  1  0  0  0  0
 12 16  1  0  0  0  0
 14 17  1  6  0  0  0
 14 25  1  0  0  0  0
 15 14  1  0  0  0  0
 15 19  1  0  0  0  0
 16 20  1  6  0  0  0
 16 15  1  0  0  0  0
 16 14  1  0  0  0  0
 18 15  1  0  0  0  0
 21 22  1  0  0  0  0
 22 23  2  0  0  0  0
 22 28  1  0  0  0  0
 23 29  1  0  0  0  0
 24 23  1  0  0  0  0
 25 24  2  0  0  0  0
 26 25  1  0  0  0  0
 26 21  2  0  0  0  0
 27 21  1  0  0  0  0
 30  5  1  0  0  0  0
 31 30  2  0  0  0  0
 32 30  1  0  0  0  0
 33 34  1  0  0  0  0
 33 32  2  0  0  0  0
 35 33  1  0  0  0  0
 36 35  2  0  0  0  0
 36 37  1  0  0  0  0
 37 42  1  0  0  0  0
 38 37  2  0  0  0  0
 38 39  1  0  0  0  0
 39 40  2  0  0  0  0
 40 41  1  0  0  0  0
 42 41  2  0  0  0  0
 42 32  1  0  0  0  0
M  END
>  <minimizedAffinity>
-4.97267532

>  <minimizedRMSD>
0.576118231

$$$$
