
 OpenBabel03272506433D

 34 37  0  0  1  0  0  0  0  0999 V2000
   32.3930   28.3190   47.6090 C   0  0  2  0  0  0  0  0  0  0  0  0
   33.6820   28.3460   48.4170 C   0  0  1  0  0  0  0  0  0  0  0  0
   34.2440   27.1080   48.3510 O   0  0  0  0  0  0  0  0  0  0  0  0
   33.5510   26.3430   47.4390 C   0  0  0  0  0  0  0  0  0  0  0  0
   32.8050   27.3300   46.5250 C   0  0  1  0  0  0  0  0  0  0  0  0
   31.5580   27.9220   48.2070 H   0  0  0  0  0  0  0  0  0  0  0  0
   33.4350   28.6930   49.4380 H   0  0  0  0  0  0  0  0  0  0  0  0
   34.3000   25.8090   46.8160 H   0  0  0  0  0  0  0  0  0  0  0  0
   32.8350   25.6600   47.9240 H   0  0  0  0  0  0  0  0  0  0  0  0
   33.5150   27.8480   45.8790 H   0  0  0  0  0  0  0  0  0  0  0  0
   32.1090   29.5730   47.0750 O   0  0  0  0  0  0  0  0  0  0  0  0
   31.5190   30.0640   47.6950 H   0  0  0  0  0  0  0  0  0  0  0  0
   34.7920   29.5190   47.5760 S   0  0  0  0  0  0  0  0  0  0  0  0
   37.4230   29.5120   50.5330 C   0  0  0  0  0  0  0  0  0  0  0  0
   38.0340   30.7580   50.4890 C   0  0  0  0  0  0  0  0  0  0  0  0
   37.6150   31.6470   49.4970 C   0  0  0  0  0  0  0  0  0  0  0  0
   36.6380   31.2530   48.6320 N   0  0  0  0  0  0  0  0  0  0  0  0
   36.0730   30.0220   48.7180 C   0  0  0  0  0  0  0  0  0  0  0  0
   36.4550   29.1480   49.6600 N   0  0  0  0  0  0  0  0  0  0  0  0
   37.7810   28.8620   51.3160 H   0  0  0  0  0  0  0  0  0  0  0  0
   38.8100   31.0680   51.1780 H   0  0  0  0  0  0  0  0  0  0  0  0
   38.0330   32.6490   49.3800 H   0  0  0  0  0  0  0  0  0  0  0  0
   31.7310   26.7080   45.9460 O   0  0  0  0  0  0  0  0  0  0  0  0
   31.3520   26.9310   44.6340 C   0  0  0  0  0  0  0  0  0  0  0  0
   31.1050   28.1060   43.9590 C   0  0  0  0  0  0  0  0  0  0  0  0
   31.2340   28.9830   44.5750 H   0  0  0  0  0  0  0  0  0  0  0  0
   30.7330   28.1000   42.6320 C   0  0  0  0  0  3  0  0  0  0  0  0
   30.5920   26.9400   41.9300 C   0  0  0  0  0  3  0  0  0  0  0  0
   30.8330   25.7340   42.5750 C   0  0  0  0  0  0  0  0  0  0  0  0
   30.6750   24.6120   41.8160 C   0  0  0  0  0  3  0  0  0  0  0  0
   30.9010   23.3860   42.4070 C   0  0  0  0  0  3  0  0  0  0  0  0
   31.2770   23.3250   43.7330 C   0  0  0  0  0  3  0  0  0  0  0  0
   31.4200   24.4920   44.4470 C   0  0  0  0  0  3  0  0  0  0  0  0
   31.2090   25.7420   43.9160 C   0  0  0  0  0  0  0  0  0  0  0  0
  1  6  1  1  0  0  0
  1  2  1  0  0  0  0
  2  7  1  1  0  0  0
  3  2  1  0  0  0  0
  4  9  1  0  0  0  0
  4  3  1  0  0  0  0
  5 10  1  6  0  0  0
  5  4  1  0  0  0  0
  5  1  1  0  0  0  0
  8  4  1  0  0  0  0
 11  1  1  0  0  0  0
 11 12  1  0  0  0  0
 13  2  1  0  0  0  0
 13 18  1  0  0  0  0
 14 20  1  0  0  0  0
 15 14  1  0  0  0  0
 15 21  1  0  0  0  0
 16 15  2  0  0  0  0
 17 18  2  0  0  0  0
 17 16  1  0  0  0  0
 18 19  1  0  0  0  0
 19 14  2  0  0  0  0
 22 16  1  0  0  0  0
 23  5  1  0  0  0  0
 24 23  1  0  0  0  0
 25 26  1  0  0  0  0
 25 24  1  0  0  0  0
 27 25  2  0  0  0  0
 28 29  2  0  0  0  0
 28 27  1  0  0  0  0
 29 34  1  0  0  0  0
 30 31  2  0  0  0  0
 30 29  1  0  0  0  0
 31 32  1  0  0  0  0
 32 33  2  0  0  0  0
 34 33  1  0  0  0  0
 34 24  2  0  0  0  0
M  END
>  <minimizedAffinity>
-3.78174114

>  <minimizedRMSD>
0.78556329

$$$$
