
 OpenBabel03272508273D

 40 44  0  0  1  0  0  0  0  0999 V2000
   33.9360   29.0480   47.3590 C   0  0  2  0  0  0  0  0  0  0  0  0
   34.7290   28.2380   48.3760 C   0  0  2  0  0  0  0  0  0  0  0  0
   33.8680   27.9950   49.4030 O   0  0  0  0  0  0  0  0  0  0  0  0
   32.5790   28.0500   48.9790 C   0  0  0  0  0  0  0  0  0  0  0  0
   32.5860   28.3310   47.4900 C   0  0  1  0  0  0  0  0  0  0  0  0
   33.8140   30.0920   47.6460 H   0  0  0  0  0  0  0  0  0  0  0  0
   35.0150   27.2870   47.9120 H   0  0  0  0  0  0  0  0  0  0  0  0
   32.1140   28.9640   49.4480 H   0  0  0  0  0  0  0  0  0  0  0  0
   31.9510   27.1950   49.2450 H   0  0  0  0  0  0  0  0  0  0  0  0
   32.6640   27.3420   46.9800 H   0  0  0  0  0  0  0  0  0  0  0  0
   35.7900   30.5040   49.0450 C   0  0  1  0  0  0  0  0  0  0  0  0
   35.8890   29.0850   48.8000 C   0  0  1  0  0  0  0  0  0  0  0  0
   36.0450   29.5390   50.2140 C   0  0  0  0  0  0  0  0  0  0  0  0
   34.8600   31.0870   49.2590 H   0  0  0  0  0  0  0  0  0  0  0  0
   36.8380   28.7570   48.2860 H   0  0  0  0  0  0  0  0  0  0  0  0
   35.2440   29.3280   50.9330 H   0  0  0  0  0  0  0  0  0  0  0  0
   37.0690   29.5060   50.6560 H   0  0  0  0  0  0  0  0  0  0  0  0
   36.9810   31.4200   48.8040 C   0  0  0  0  0  0  0  0  0  0  0  0
   37.1580   32.4760   49.7000 C   0  0  0  0  0  0  0  0  0  0  0  0
   38.2440   33.3010   49.4220 C   0  0  0  0  0  0  0  0  0  0  0  0
   39.0500   33.0730   48.3590 N   0  0  0  0  0  0  0  0  0  0  0  0
   38.8380   32.0280   47.5110 C   0  0  0  0  0  0  0  0  0  0  0  0
   37.7910   31.1910   47.7370 N   0  0  0  0  0  0  0  0  0  0  0  0
   36.4800   32.6070   50.5320 H   0  0  0  0  0  0  0  0  0  0  0  0
   38.4200   34.1360   50.0920 H   0  0  0  0  0  0  0  0  0  0  0  0
   39.5060   31.8850   46.6770 H   0  0  0  0  0  0  0  0  0  0  0  0
   34.4230   28.9710   46.0750 O   0  0  0  0  0  0  0  0  0  0  0  0
   35.3980   28.8250   46.0090 H   0  0  0  0  0  0  0  0  0  0  0  0
   31.5490   29.1160   47.0630 O   0  0  0  0  0  0  0  0  0  0  0  0
   30.7840   28.9360   45.9450 C   0  0  0  0  0  0  0  0  0  0  0  0
   29.9980   27.8550   45.6200 C   0  0  0  0  0  0  0  0  0  0  0  0
   29.9870   27.0500   46.3410 H   0  0  0  0  0  0  0  0  0  0  0  0
   29.2610   27.7730   44.4570 C   0  0  0  0  0  3  0  0  0  0  0  0
   29.3060   28.8270   43.5660 C   0  0  0  0  0  3  0  0  0  0  0  0
   30.0810   29.9510   43.8330 C   0  0  0  0  0  0  0  0  0  0  0  0
   30.1200   30.9960   42.9350 C   0  0  0  0  0  3  0  0  0  0  0  0
   30.8920   32.0980   43.2180 C   0  0  0  0  0  3  0  0  0  0  0  0
   31.6310   32.1870   44.3750 C   0  0  0  0  0  3  0  0  0  0  0  0
   31.5580   31.1130   45.2410 C   0  0  0  0  0  3  0  0  0  0  0  0
   30.7950   29.9710   45.0120 C   0  0  0  0  0  0  0  0  0  0  0  0
  1  5  1  0  0  0  0
  1  6  1  1  0  0  0
  1  2  1  0  0  0  0
  2  7  1  6  0  0  0
  2 12  1  0  0  0  0
  2  3  1  0  0  0  0
  4  9  1  0  0  0  0
  4  3  1  0  0  0  0
  4  8  1  0  0  0  0
  5 10  1  6  0  0  0
  5  4  1  0  0  0  0
 11 14  1  6  0  0  0
 11 13  1  0  0  0  0
 12 15  1  6  0  0  0
 12 11  1  0  0  0  0
 12 13  1  0  0  0  0
 13 17  1  0  0  0  0
 13 16  1  0  0  0  0
 18 11  1  0  0  0  0
 18 19  1  0  0  0  0
 19 24  1  0  0  0  0
 20 19  2  0  0  0  0
 20 25  1  0  0  0  0
 21 20  1  0  0  0  0
 22 23  1  0  0  0  0
 22 21  2  0  0  0  0
 23 18  2  0  0  0  0
 26 22  1  0  0  0  0
 27  1  1  0  0  0  0
 28 27  1  0  0  0  0
 29  5  1  0  0  0  0
 30 29  1  0  0  0  0
 31 30  1  0  0  0  0
 31 32  1  0  0  0  0
 33 31  2  0  0  0  0
 34 35  2  0  0  0  0
 34 33  1  0  0  0  0
 35 40  1  0  0  0  0
 36 37  2  0  0  0  0
 36 35  1  0  0  0  0
 37 38  1  0  0  0  0
 38 39  2  0  0  0  0
 40 39  1  0  0  0  0
 40 30  2  0  0  0  0
M  END
>  <minimizedAffinity>
-5.24604034

>  <minimizedRMSD>
0.390626818

$$$$
