
 OpenBabel03272500053D

 31 34  0  0  0  0  0  0  0  0999 V2000
   35.4470   28.8360   49.2210 C   0  0  0  0  0  0  0  0  0  0  0  0
   35.3560   30.0070   48.4480 C   0  0  0  0  0  0  0  0  0  0  0  0
   34.2530   30.1250   47.6280 C   0  0  0  0  0  0  0  0  0  0  0  0
   33.3150   29.1570   47.5820 N   0  0  0  0  0  0  0  0  0  0  0  0
   33.4160   28.0410   48.3270 C   0  0  0  0  0  0  0  0  0  0  0  0
   34.4900   27.8740   49.1570 N   0  0  0  0  0  0  0  0  0  0  0  0
   36.2900   28.6920   49.8810 H   0  0  0  0  0  0  0  0  0  0  0  0
   34.1600   31.0060   47.0300 H   0  0  0  0  0  0  0  0  0  0  0  0
   36.3870   30.9660   48.5640 N   0  0  0  0  0  0  0  0  0  0  0  0
   36.5920   31.6490   49.7060 C   0  0  0  0  0  0  0  0  0  0  0  0
   37.6300   32.5870   49.7550 C   0  0  0  0  0  0  0  0  0  0  0  0
   38.3540   32.7190   48.6060 C   0  0  0  0  0  0  0  0  0  0  0  0
   39.2970   33.5710   48.6510 O   0  0  0  0  0  0  0  0  0  0  0  0
   38.1720   32.0560   47.4610 N   0  0  0  0  0  0  0  0  0  0  0  0
   37.1520   31.1550   47.4550 C   0  0  0  0  0  0  0  0  0  0  0  0
   36.9640   30.5140   46.3750 O   0  0  0  0  0  0  0  0  0  0  0  0
   35.9860   31.4960   50.5750 H   0  0  0  0  0  0  0  0  0  0  0  0
   37.8500   33.1680   50.6400 H   0  0  0  0  0  0  0  0  0  0  0  0
   38.7620   32.2060   46.6170 H   0  0  0  0  0  0  0  0  0  0  0  0
   32.5130   26.9880   48.3550 O   0  0  0  0  0  0  0  0  0  0  0  0
   31.1460   27.1230   48.4110 C   0  0  0  0  0  0  0  0  0  0  0  0
   30.7640   27.7870   49.5810 C   0  0  0  0  0  0  0  0  0  0  0  0
   31.3970   28.1550   50.3520 H   0  0  0  0  0  0  0  0  0  0  0  0
   29.4140   28.0370   49.8510 C   0  0  0  0  0  0  0  0  0  0  0  0
   28.4350   27.6210   48.9430 C   0  0  0  0  0  0  0  0  0  0  0  0
   28.8260   26.9690   47.7970 C   0  0  0  0  0  0  0  0  0  0  0  0
   27.9270   26.5200   46.8540 C   0  0  0  0  0  0  0  0  0  0  0  0
   28.3870   25.8570   45.7140 C   0  0  0  0  0  0  0  0  0  0  0  0
   29.7450   25.6220   45.4770 C   0  0  0  0  0  0  0  0  0  0  0  0
   30.6400   26.0770   46.4280 C   0  0  0  0  0  0  0  0  0  0  0  0
   30.1530   26.7270   47.5410 C   0  0  0  0  0  0  0  0  0  0  0  0
  1  7  1  0  0  0  0
  2  9  1  0  0  0  0
  2  1  2  0  0  0  0
  3  2  1  0  0  0  0
  4  3  2  0  0  0  0
  4  5  1  0  0  0  0
  5 20  1  0  0  0  0
  5  6  2  0  0  0  0
  6  1  1  0  0  0  0
  8  3  1  0  0  0  0
  9 10  1  0  0  0  0
 10 11  2  0  0  0  0
 10 17  1  0  0  0  0
 11 18  1  0  0  0  0
 12 13  2  0  0  0  0
 12 11  1  0  0  0  0
 14 12  1  0  0  0  0
 15 14  1  0  0  0  0
 15  9  1  0  0  0  0
 16 15  2  0  0  0  0
 19 14  1  0  0  0  0
 20 21  1  0  0  0  0
 21 22  1  0  0  0  0
 22 24  2  0  0  0  0
 22 23  1  0  0  0  0
 25 24  1  0  0  0  0
 26 25  2  0  0  0  0
 27 26  1  0  0  0  0
 28 27  2  0  0  0  0
 29 28  1  0  0  0  0
 29 30  2  0  0  0  0
 30 31  1  0  0  0  0
 31 26  1  0  0  0  0
 31 21  2  0  0  0  0
M  END
>  <minimizedAffinity>
-6.45640612

>  <minimizedRMSD>
1.78913748

$$$$
