
 OpenBabel03262522083D

 22 24  0  0  0  0  0  0  0  0999 V2000
   39.3690   32.5280   47.0750 C   0  0  0  0  0  0  0  0  0  0  0  0
   39.9800   33.5870   47.3340 O   0  0  0  0  0  0  0  0  0  0  0  0
   38.3380   31.8090   47.8370 C   0  0  0  0  0  0  0  0  0  0  0  0
   38.0870   30.5150   47.4120 C   0  0  0  0  0  0  0  0  0  0  0  0
   38.5620   29.9760   46.5840 H   0  0  0  0  0  0  0  0  0  0  0  0
   37.1270   29.7370   48.0610 C   0  0  0  0  0  3  0  0  0  0  0  0
   36.4270   30.2700   49.1390 C   0  0  0  0  0  3  0  0  0  0  0  0
   36.6820   31.5600   49.5570 C   0  0  0  0  0  0  0  0  0  0  0  0
   36.0190   32.1550   50.6270 C   0  0  0  0  0  3  0  0  0  0  0  0
   36.3120   33.4620   51.0130 C   0  0  0  0  0  3  0  0  0  0  0  0
   37.2650   34.2100   50.3550 C   0  0  0  0  0  3  0  0  0  0  0  0
   37.9230   33.6140   49.2900 C   0  0  0  0  0  3  0  0  0  0  0  0
   37.6330   32.3210   48.9080 C   0  0  0  0  0  0  0  0  0  0  0  0
   41.0030   31.2100   45.7600 C   0  0  0  0  0  0  0  0  0  0  0  0
   39.7590   31.9100   45.7830 C   0  0  0  0  0  0  0  0  0  0  0  0
   39.0180   31.9590   44.6080 C   0  0  0  0  0  0  0  0  0  0  0  0
   39.5080   31.3460   43.5100 N   0  0  0  0  0  0  0  0  0  0  0  0
   40.6780   30.6930   43.5100 C   0  0  0  0  0  0  0  0  0  0  0  0
   41.4380   30.6110   44.6120 N   0  0  0  0  0  0  0  0  0  0  0  0
   41.6410   31.1230   46.6290 H   0  0  0  0  0  0  0  0  0  0  0  0
   38.0930   32.4910   44.6630 H   0  0  0  0  0  0  0  0  0  0  0  0
   41.0890   30.1950   42.6410 H   0  0  0  0  0  0  0  0  0  0  0  0
  1  2  2  0  0  0  0
  1  3  1  0  0  0  0
  3 13  1  0  0  0  0
  4  3  2  0  0  0  0
  4  6  1  0  0  0  0
  5  4  1  0  0  0  0
  6  7  2  0  0  0  0
  7  8  1  0  0  0  0
  8  9  1  0  0  0  0
  9 10  2  0  0  0  0
 11 10  1  0  0  0  0
 12 11  2  0  0  0  0
 13 12  1  0  0  0  0
 13  8  2  0  0  0  0
 14 15  1  0  0  0  0
 14 20  1  0  0  0  0
 15  1  1  0  0  0  0
 16 21  1  0  0  0  0
 16 15  2  0  0  0  0
 17 16  1  0  0  0  0
 18 17  2  0  0  0  0
 18 19  1  0  0  0  0
 19 14  2  0  0  0  0
 22 18  1  0  0  0  0
M  END
>  <minimizedAffinity>
-1.23840141

>  <minimizedRMSD>
4.9004159

$$$$
