
 OpenBabel03272503503D

 39 42  0  0  1  0  0  0  0  0999 V2000
   33.2870   27.1620   45.8010 C   0  0  1  0  0  0  0  0  0  0  0  0
   33.8360   27.3760   47.2280 C   0  0  2  0  0  0  0  0  0  0  0  0
   33.5820   26.1980   47.8530 O   0  0  0  0  0  0  0  0  0  0  0  0
   33.9950   25.2340   46.9470 C   0  0  0  0  0  0  0  0  0  0  0  0
   33.6940   25.7320   45.5490 C   0  0  2  0  0  0  0  0  0  0  0  0
   33.7810   27.8800   45.1170 H   0  0  0  0  0  0  0  0  0  0  0  0
   34.9140   27.6000   47.0600 H   0  0  0  0  0  0  0  0  0  0  0  0
   35.0480   24.9300   47.0720 H   0  0  0  0  0  0  0  0  0  0  0  0
   33.3690   24.3330   47.1140 H   0  0  0  0  0  0  0  0  0  0  0  0
   32.8440   25.1860   45.0990 H   0  0  0  0  0  0  0  0  0  0  0  0
   31.9260   27.3900   45.7710 O   0  0  0  0  0  0  0  0  0  0  0  0
   31.6870   28.0280   45.0490 H   0  0  0  0  0  0  0  0  0  0  0  0
   33.1600   28.4760   47.6920 O   0  0  0  0  0  0  0  0  0  0  0  0
   35.3160   29.7010   46.7780 O   0  0  0  0  0  0  0  0  0  0  0  0
   34.0350   29.9090   47.5810 P   0  0  1  0  0  0  0  0  0  0  0  0
   33.1550   31.0630   46.7090 O   0  0  0  0  0  0  0  0  0  0  0  0
   32.4160   31.3460   47.3330 H   0  0  0  0  0  0  0  0  0  0  0  0
   34.3150   30.4430   49.1780 O   0  0  0  0  0  0  0  0  0  0  0  0
   35.5790   30.4070   49.7480 C   0  0  0  0  0  0  0  0  0  0  0  0
   36.0460   29.3790   50.6020 C   0  0  0  0  0  0  0  0  0  0  0  0
   37.3390   29.4820   51.0960 C   0  0  0  0  0  0  0  0  0  0  0  0
   38.0950   30.5690   50.7350 N   0  0  0  0  0  0  0  0  0  0  0  0
   37.6200   31.5400   49.9150 C   0  0  0  0  0  0  0  0  0  0  0  0
   36.3570   31.4620   49.4180 N   0  0  0  0  0  0  0  0  0  0  0  0
   35.3680   28.5910   50.8060 H   0  0  0  0  0  0  0  0  0  0  0  0
   37.6860   28.7100   51.7350 H   0  0  0  0  0  0  0  0  0  0  0  0
   38.2280   32.3890   49.6410 H   0  0  0  0  0  0  0  0  0  0  0  0
   34.8200   25.6770   44.7730 O   0  0  0  0  0  0  0  0  0  0  0  0
   34.9310   24.8400   43.6940 C   0  0  0  0  0  0  0  0  0  0  0  0
   34.2170   24.7350   42.5380 C   0  0  0  0  0  0  0  0  0  0  0  0
   33.4050   25.4330   42.4300 H   0  0  0  0  0  0  0  0  0  0  0  0
   34.4800   23.8140   41.5520 C   0  0  0  0  0  3  0  0  0  0  0  0
   35.5180   22.9150   41.6810 C   0  0  0  0  0  3  0  0  0  0  0  0
   36.2680   22.9980   42.8550 C   0  0  0  0  0  0  0  0  0  0  0  0
   37.2920   22.0770   42.9340 C   0  0  0  0  0  3  0  0  0  0  0  0
   38.0900   22.0760   44.0520 C   0  0  0  0  0  3  0  0  0  0  0  0
   37.8550   22.9830   45.0580 C   0  0  0  0  0  3  0  0  0  0  0  0
   36.8230   23.8900   44.9470 C   0  0  0  0  0  3  0  0  0  0  0  0
   35.9890   23.9360   43.8490 C   0  0  0  0  0  0  0  0  0  0  0  0
  1  6  1  6  0  0  0
  1  2  1  0  0  0  0
  2  7  1  6  0  0  0
  2 13  1  0  0  0  0
  2  3  1  0  0  0  0
  4  8  1  0  0  0  0
  4  9  1  0  0  0  0
  4  3  1  0  0  0  0
  5 10  1  6  0  0  0
  5  1  1  0  0  0  0
  5  4  1  0  0  0  0
 11  1  1  0  0  0  0
 12 11  1  0  0  0  0
 15 14  2  6  0  0  0
 15 13  1  0  0  0  0
 15 18  1  0  0  0  0
 16 17  1  0  0  0  0
 16 15  1  0  0  0  0
 18 19  1  0  0  0  0
 19 20  1  0  0  0  0
 20 25  1  0  0  0  0
 20 21  2  0  0  0  0
 21 26  1  0  0  0  0
 22 21  1  0  0  0  0
 23 22  2  0  0  0  0
 24 19  2  0  0  0  0
 24 23  1  0  0  0  0
 27 23  1  0  0  0  0
 28  5  1  0  0  0  0
 29 39  1  0  0  0  0
 29 28  1  0  0  0  0
 30 29  2  0  0  0  0
 31 30  1  0  0  0  0
 32 33  2  0  0  0  0
 32 30  1  0  0  0  0
 33 34  1  0  0  0  0
 34 35  2  0  0  0  0
 34 39  1  0  0  0  0
 35 36  1  0  0  0  0
 36 37  2  0  0  0  0
 38 37  1  0  0  0  0
 39 38  2  0  0  0  0
M  END
>  <minimizedAffinity>
-4.35220718

>  <minimizedRMSD>
1.38370359

$$$$
