
 OpenBabel03272508573D

 42 46  0  0  1  0  0  0  0  0999 V2000
   39.0680   31.4950   43.4690 C   0  0  0  0  0  0  0  0  0  0  0  0
   40.0680   30.5520   43.6160 C   0  0  0  0  0  0  0  0  0  0  0  0
   40.7940   30.2190   42.4890 C   0  0  0  0  0  0  0  0  0  0  0  0
   40.4940   30.8260   41.3020 C   0  0  0  0  0  0  0  0  0  0  0  0
   39.4780   31.7810   41.1570 C   0  0  0  0  0  0  0  0  0  0  0  0
   38.7930   32.0790   42.2790 N   0  0  0  0  0  0  0  0  0  0  0  0
   40.3110   30.0670   44.5530 H   0  0  0  0  0  0  0  0  0  0  0  0
   41.5960   29.5020   42.4740 H   0  0  0  0  0  0  0  0  0  0  0  0
   41.0340   30.5970   40.3990 H   0  0  0  0  0  0  0  0  0  0  0  0
   38.2780   31.8710   44.6580 C   0  0  0  0  0  0  0  0  0  0  0  0
   37.1550   32.3730   44.5550 O   0  0  0  0  0  0  0  0  0  0  0  0
   38.8700   31.6320   45.9580 N   0  0  0  0  0  0  0  0  0  0  0  0
   39.8670   31.4030   46.0970 H   0  0  0  0  0  0  0  0  0  0  0  0
   38.4090   31.1350   48.3540 C   0  0  2  0  0  0  0  0  0  0  0  0
   38.5780   32.6080   48.2440 C   0  0  0  0  0  0  0  0  0  0  0  0
   38.0070   31.7220   47.1180 C   0  0  1  0  0  0  0  0  0  0  0  0
   39.3520   30.5530   48.4330 H   0  0  0  0  0  0  0  0  0  0  0  0
   39.5850   33.0000   48.1220 H   0  0  0  0  0  0  0  0  0  0  0  0
   37.8810   33.2540   48.8080 H   0  0  0  0  0  0  0  0  0  0  0  0
   36.9320   31.9270   46.9300 H   0  0  0  0  0  0  0  0  0  0  0  0
   35.1240   29.9600   49.6380 C   0  0  0  0  0  0  0  0  0  0  0  0
   35.4760   29.4790   50.9280 C   0  0  0  0  0  0  0  0  0  0  0  0
   36.8590   29.5760   51.3510 C   0  0  0  0  0  0  0  0  0  0  0  0
   37.7710   30.1260   50.4930 N   0  0  0  0  0  0  0  0  0  0  0  0
   37.3560   30.5650   49.2740 C   0  0  0  0  0  0  0  0  0  0  0  0
   36.0470   30.4990   48.8110 N   0  0  0  0  0  0  0  0  0  0  0  0
   34.0940   29.8590   49.3900 H   0  0  0  0  0  0  0  0  0  0  0  0
   34.7880   29.0490   51.6090 H   0  0  0  0  0  0  0  0  0  0  0  0
   37.1220   29.2130   52.3240 H   0  0  0  0  0  0  0  0  0  0  0  0
   39.1810   32.3890   39.8720 C   0  0  0  0  0  0  0  0  0  0  0  0
   38.6600   33.5300   39.8400 O   0  0  0  0  0  0  0  0  0  0  0  0
   39.4000   31.8700   38.5340 C   0  0  0  0  0  0  0  0  0  0  0  0
   40.5330   32.2860   37.8230 C   0  0  0  0  0  0  0  0  0  0  0  0
   41.1950   33.0060   38.3230 H   0  0  0  0  0  0  0  0  0  0  0  0
   40.8840   31.8700   36.5560 C   0  0  0  0  0  3  0  0  0  0  0  0
   40.0510   30.9650   35.9300 C   0  0  0  0  0  3  0  0  0  0  0  0
   38.9200   30.5220   36.5820 C   0  0  0  0  0  0  0  0  0  0  0  0
   38.0830   29.6220   35.9600 C   0  0  0  0  0  3  0  0  0  0  0  0
   36.9370   29.1700   36.6030 C   0  0  0  0  0  3  0  0  0  0  0  0
   36.6320   29.6270   37.8890 C   0  0  0  0  0  3  0  0  0  0  0  0
   37.4890   30.5240   38.4800 C   0  0  0  0  0  3  0  0  0  0  0  0
   38.6150   30.9690   37.8500 C   0  0  0  0  0  0  0  0  0  0  0  0
  1  2  1  0  0  0  0
  1 10  1  0  0  0  0
  2  7  1  0  0  0  0
  3  2  2  0  0  0  0
  4  3  1  0  0  0  0
  5  4  2  0  0  0  0
  5  6  1  0  0  0  0
  6  1  2  0  0  0  0
  8  3  1  0  0  0  0
  9  4  1  0  0  0  0
 10 12  1  0  0  0  0
 11 10  2  0  0  0  0
 12 13  1  0  0  0  0
 12 16  1  0  0  0  0
 14 17  1  6  0  0  0
 14 25  1  0  0  0  0
 15 14  1  0  0  0  0
 15 19  1  0  0  0  0
 16 20  1  6  0  0  0
 16 15  1  0  0  0  0
 16 14  1  0  0  0  0
 18 15  1  0  0  0  0
 21 22  1  0  0  0  0
 22 23  2  0  0  0  0
 22 28  1  0  0  0  0
 23 29  1  0  0  0  0
 24 23  1  0  0  0  0
 25 24  2  0  0  0  0
 26 25  1  0  0  0  0
 26 21  2  0  0  0  0
 27 21  1  0  0  0  0
 30  5  1  0  0  0  0
 31 30  2  0  0  0  0
 32 30  1  0  0  0  0
 33 34  1  0  0  0  0
 33 32  2  0  0  0  0
 35 33  1  0  0  0  0
 36 35  2  0  0  0  0
 36 37  1  0  0  0  0
 37 42  1  0  0  0  0
 38 37  2  0  0  0  0
 38 39  1  0  0  0  0
 39 40  2  0  0  0  0
 40 41  1  0  0  0  0
 42 41  2  0  0  0  0
 42 32  1  0  0  0  0
M  END
>  <minimizedAffinity>
-4.95384264

>  <minimizedRMSD>
1.16905105

$$$$
