
 OpenBabel03272505433D

 26 28  0  0  0  0  0  0  0  0999 V2000
   32.3390   28.0030   48.9240 O   0  0  0  0  0  0  0  0  0  0  0  0
   33.7880   28.2280   48.4850 P   0  0  2  0  0  0  0  0  0  0  0  0
   34.1470   27.0260   47.3700 O   0  0  0  0  0  0  0  0  0  0  0  0
   33.3500   26.6560   46.9140 H   0  0  0  0  0  0  0  0  0  0  0  0
   34.7620   28.1580   49.8600 O   0  0  0  0  0  0  0  0  0  0  0  0
   37.2900   30.2980   51.4170 C   0  0  0  0  0  0  0  0  0  0  0  0
   38.0170   30.6710   50.2410 C   0  0  0  0  0  0  0  0  0  0  0  0
   37.6020   30.1730   49.0010 C   0  0  0  0  0  0  0  0  0  0  0  0
   36.5150   29.3480   48.9760 N   0  0  0  0  0  0  0  0  0  0  0  0
   35.8420   29.0100   50.1040 C   0  0  0  0  0  0  0  0  0  0  0  0
   36.2300   29.4840   51.3160 N   0  0  0  0  0  0  0  0  0  0  0  0
   37.6140   30.6830   52.3510 H   0  0  0  0  0  0  0  0  0  0  0  0
   38.8810   31.3330   50.2980 H   0  0  0  0  0  0  0  0  0  0  0  0
   38.1190   30.4280   48.0960 H   0  0  0  0  0  0  0  0  0  0  0  0
   33.8300   29.7270   47.7130 O   0  0  0  0  0  0  0  0  0  0  0  0
   33.3330   29.9360   46.4370 C   0  0  0  0  0  0  0  0  0  0  0  0
   32.0070   29.9430   46.0580 C   0  0  0  0  0  0  0  0  0  0  0  0
   31.2920   29.7700   46.8250 H   0  0  0  0  0  0  0  0  0  0  0  0
   31.6820   30.1700   44.7300 C   0  0  0  0  0  3  0  0  0  0  0  0
   32.6320   30.3940   43.7510 C   0  0  0  0  0  3  0  0  0  0  0  0
   33.9520   30.3800   44.1640 C   0  0  0  0  0  0  0  0  0  0  0  0
   34.8860   30.6060   43.1670 C   0  0  0  0  0  3  0  0  0  0  0  0
   36.2470   30.6130   43.4810 C   0  0  0  0  0  3  0  0  0  0  0  0
   36.6280   30.3900   44.8020 C   0  0  0  0  0  3  0  0  0  0  0  0
   35.6720   30.1670   45.7770 C   0  0  0  0  0  3  0  0  0  0  0  0
   34.3200   30.1550   45.4910 C   0  0  0  0  0  0  0  0  0  0  0  0
  2  1  2  1  0  0  0
  2  5  1  0  0  0  0
  3  2  1  0  0  0  0
  4  3  1  0  0  0  0
  5 10  1  0  0  0  0
  6 12  1  0  0  0  0
  7 13  1  0  0  0  0
  7  6  2  0  0  0  0
  8  7  1  0  0  0  0
  9  8  2  0  0  0  0
  9 10  1  0  0  0  0
 10 11  2  0  0  0  0
 11  6  1  0  0  0  0
 14  8  1  0  0  0  0
 15  2  1  0  0  0  0
 16 15  1  0  0  0  0
 17 16  1  0  0  0  0
 17 18  1  0  0  0  0
 19 17  2  0  0  0  0
 20 21  2  0  0  0  0
 20 19  1  0  0  0  0
 21 26  1  0  0  0  0
 22 23  2  0  0  0  0
 22 21  1  0  0  0  0
 23 24  1  0  0  0  0
 24 25  2  0  0  0  0
 26 25  1  0  0  0  0
 26 16  2  0  0  0  0
M  END
>  <minimizedAffinity>
-4.73053932

>  <minimizedRMSD>
2.44041586

$$$$
