
 OpenBabel03272509263D

 27 29  0  0  0  0  0  0  0  0999 V2000
   36.2190   29.0400   32.3750 C   0  0  0  0  0  0  0  0  0  0  0  0
   36.1990   29.2510   31.2630 H   0  0  0  0  0  0  0  0  0  0  0  0
   36.9460   29.7630   32.7660 H   0  0  0  0  0  0  0  0  0  0  0  0
   36.6310   27.5970   32.4740 C   0  0  0  0  0  0  0  0  0  0  0  0
   35.7150   27.0350   32.7580 H   0  0  0  0  0  0  0  0  0  0  0  0
   36.9420   27.1680   31.5050 H   0  0  0  0  0  0  0  0  0  0  0  0
   38.3680   27.2820   35.8070 C   0  0  0  0  0  0  0  0  0  0  0  0
   37.3420   27.4920   34.8980 C   0  0  0  0  0  0  0  0  0  0  0  0
   37.6170   27.4000   33.5540 C   0  0  0  0  0  0  0  0  0  0  0  0
   38.9130   27.0990   33.1880 N   0  0  0  0  0  0  0  0  0  0  0  0
   39.8960   26.8990   34.0820 C   0  0  0  0  0  0  0  0  0  0  0  0
   39.6120   26.9930   35.3950 N   0  0  0  0  0  0  0  0  0  0  0  0
   38.0910   27.3680   36.8510 H   0  0  0  0  0  0  0  0  0  0  0  0
   36.3320   27.7260   35.2000 H   0  0  0  0  0  0  0  0  0  0  0  0
   40.8880   26.6670   33.6980 H   0  0  0  0  0  0  0  0  0  0  0  0
   34.5370   29.3050   32.9530 S   0  0  0  0  0  0  0  0  0  0  0  0
   34.6000   30.3100   34.4430 C   0  0  0  0  0  0  0  0  0  0  0  0
   35.8140   30.8730   34.8320 C   0  0  0  0  0  0  0  0  0  0  0  0
   36.7140   30.7070   34.2430 H   0  0  0  0  0  0  0  0  0  0  0  0
   35.8780   31.6540   35.9850 C   0  0  0  0  0  3  0  0  0  0  0  0
   34.7480   31.8790   36.7500 C   0  0  0  0  0  3  0  0  0  0  0  0
   33.5630   31.3270   36.3660 C   0  0  0  0  0  0  0  0  0  0  0  0
   32.4120   31.5360   37.1150 C   0  0  0  0  0  3  0  0  0  0  0  0
   31.2250   30.9560   36.6890 C   0  0  0  0  0  3  0  0  0  0  0  0
   31.1360   30.1720   35.5430 C   0  0  0  0  0  3  0  0  0  0  0  0
   32.2900   29.9710   34.8030 C   0  0  0  0  0  3  0  0  0  0  0  0
   33.4890   30.5530   35.2280 C   0  0  0  0  0  0  0  0  0  0  0  0
  1  4  1  0  0  0  0
  1  3  1  0  0  0  0
  1 16  1  0  0  0  0
  2  1  1  0  0  0  0
  4  5  1  0  0  0  0
  4  9  1  0  0  0  0
  6  4  1  0  0  0  0
  7 13  1  0  0  0  0
  8 14  1  0  0  0  0
  8  7  2  0  0  0  0
  9  8  1  0  0  0  0
 10  9  2  0  0  0  0
 10 11  1  0  0  0  0
 11 12  2  0  0  0  0
 12  7  1  0  0  0  0
 15 11  1  0  0  0  0
 16 17  1  0  0  0  0
 17 18  2  0  0  0  0
 17 27  1  0  0  0  0
 18 20  1  0  0  0  0
 19 18  1  0  0  0  0
 20 21  2  0  0  0  0
 22 21  1  0  0  0  0
 22 23  1  0  0  0  0
 24 23  2  0  0  0  0
 25 24  1  0  0  0  0
 26 27  1  0  0  0  0
 26 25  2  0  0  0  0
 27 22  2  0  0  0  0
M  END
>  <minimizedAffinity>
-5.10806084

$$$$

 OpenBabel03272509263D

 27 29  0  0  0  0  0  0  0  0999 V2000
   36.4590   28.4280   33.3430 C   0  0  0  0  0  0  0  0  0  0  0  0
   37.3060   29.0590   33.7480 H   0  0  0  0  0  0  0  0  0  0  0  0
   36.2810   27.6870   34.1320 H   0  0  0  0  0  0  0  0  0  0  0  0
   36.9920   27.8740   32.0500 C   0  0  0  0  0  0  0  0  0  0  0  0
   36.5250   28.4780   31.2410 H   0  0  0  0  0  0  0  0  0  0  0  0
   38.0790   28.0260   31.9300 H   0  0  0  0  0  0  0  0  0  0  0  0
   36.7040   24.1140   32.0890 C   0  0  0  0  0  0  0  0  0  0  0  0
   37.2210   25.3740   32.3480 C   0  0  0  0  0  0  0  0  0  0  0  0
   36.5620   26.4760   31.8550 C   0  0  0  0  0  0  0  0  0  0  0  0
   35.4120   26.2570   31.1270 N   0  0  0  0  0  0  0  0  0  0  0  0
   34.9230   25.0280   30.8850 C   0  0  0  0  0  0  0  0  0  0  0  0
   35.5800   23.9590   31.3720 N   0  0  0  0  0  0  0  0  0  0  0  0
   37.2670   23.2840   32.5020 H   0  0  0  0  0  0  0  0  0  0  0  0
   38.1240   25.5290   32.9210 H   0  0  0  0  0  0  0  0  0  0  0  0
   34.0090   24.9550   30.3000 H   0  0  0  0  0  0  0  0  0  0  0  0
   35.0880   29.5620   33.0780 S   0  0  0  0  0  0  0  0  0  0  0  0
   34.8490   30.5250   34.5790 C   0  0  0  0  0  0  0  0  0  0  0  0
   35.8700   31.3660   35.0150 C   0  0  0  0  0  0  0  0  0  0  0  0
   36.8010   31.4420   34.4570 H   0  0  0  0  0  0  0  0  0  0  0  0
   35.6990   32.1180   36.1760 C   0  0  0  0  0  3  0  0  0  0  0  0
   34.5250   32.0390   36.9040 C   0  0  0  0  0  3  0  0  0  0  0  0
   33.5290   31.2150   36.4730 C   0  0  0  0  0  0  0  0  0  0  0  0
   32.3400   31.1150   37.1830 C   0  0  0  0  0  3  0  0  0  0  0  0
   31.3500   30.2650   36.7100 C   0  0  0  0  0  3  0  0  0  0  0  0
   31.4970   29.5040   35.5550 C   0  0  0  0  0  3  0  0  0  0  0  0
   32.6880   29.6110   34.8540 C   0  0  0  0  0  3  0  0  0  0  0  0
   33.6880   30.4670   35.3260 C   0  0  0  0  0  0  0  0  0  0  0  0
  1  2  1  0  0  0  0
  1  3  1  0  0  0  0
  4  1  1  0  0  0  0
  5  4  1  0  0  0  0
  6  4  1  0  0  0  0
  7  8  1  0  0  0  0
  7 13  1  0  0  0  0
  8 14  1  0  0  0  0
  9  4  1  0  0  0  0
  9  8  2  0  0  0  0
 10  9  1  0  0  0  0
 11 10  2  0  0  0  0
 11 12  1  0  0  0  0
 12  7  2  0  0  0  0
 15 11  1  0  0  0  0
 16  1  1  0  0  0  0
 16 17  1  0  0  0  0
 17 18  2  0  0  0  0
 17 27  1  0  0  0  0
 18 20  1  0  0  0  0
 19 18  1  0  0  0  0
 20 21  2  0  0  0  0
 22 21  1  0  0  0  0
 22 23  1  0  0  0  0
 24 23  2  0  0  0  0
 25 24  1  0  0  0  0
 26 27  1  0  0  0  0
 26 25  2  0  0  0  0
 27 22  2  0  0  0  0
M  END
>  <minimizedAffinity>
-5.03461266

$$$$

 OpenBabel03272509263D

 27 29  0  0  0  0  0  0  0  0999 V2000
   37.8990   26.0690   34.7110 C   0  0  0  0  0  0  0  0  0  0  0  0
   38.6990   26.8590   34.8310 H   0  0  0  0  0  0  0  0  0  0  0  0
   37.2240   26.2490   35.5580 H   0  0  0  0  0  0  0  0  0  0  0  0
   38.6500   24.7670   34.7530 C   0  0  0  0  0  0  0  0  0  0  0  0
   38.0440   24.0440   34.1650 H   0  0  0  0  0  0  0  0  0  0  0  0
   39.6240   24.8130   34.2350 H   0  0  0  0  0  0  0  0  0  0  0  0
   38.0870   24.0350   38.4090 C   0  0  0  0  0  0  0  0  0  0  0  0
   37.8930   24.6020   37.1590 C   0  0  0  0  0  0  0  0  0  0  0  0
   38.7350   24.2480   36.1320 C   0  0  0  0  0  0  0  0  0  0  0  0
   39.7310   23.3360   36.4100 N   0  0  0  0  0  0  0  0  0  0  0  0
   39.9070   22.7950   37.6280 C   0  0  0  0  0  0  0  0  0  0  0  0
   39.0760   23.1520   38.6250 N   0  0  0  0  0  0  0  0  0  0  0  0
   37.3940   24.3520   39.1790 H   0  0  0  0  0  0  0  0  0  0  0  0
   37.1070   25.3140   36.9560 H   0  0  0  0  0  0  0  0  0  0  0  0
   40.7220   22.0850   37.7520 H   0  0  0  0  0  0  0  0  0  0  0  0
   37.1520   26.3680   33.1030 S   0  0  0  0  0  0  0  0  0  0  0  0
   36.5730   28.0700   33.0520 C   0  0  0  0  0  0  0  0  0  0  0  0
   35.9930   28.6240   34.1920 C   0  0  0  0  0  0  0  0  0  0  0  0
   35.8920   28.0360   35.1020 H   0  0  0  0  0  0  0  0  0  0  0  0
   35.5390   29.9420   34.1680 C   0  0  0  0  0  3  0  0  0  0  0  0
   35.6560   30.7090   33.0230 C   0  0  0  0  0  3  0  0  0  0  0  0
   36.2230   30.1630   31.9100 C   0  0  0  0  0  0  0  0  0  0  0  0
   36.3530   30.9100   30.7470 C   0  0  0  0  0  3  0  0  0  0  0  0
   36.9370   30.3170   29.6350 C   0  0  0  0  0  3  0  0  0  0  0  0
   37.3970   29.0040   29.6350 C   0  0  0  0  0  3  0  0  0  0  0  0
   37.2630   28.2680   30.8010 C   0  0  0  0  0  3  0  0  0  0  0  0
   36.6750   28.8610   31.9240 C   0  0  0  0  0  0  0  0  0  0  0  0
  1  4  1  0  0  0  0
  1  2  1  0  0  0  0
  1  3  1  0  0  0  0
  4  9  1  0  0  0  0
  5  4  1  0  0  0  0
  6  4  1  0  0  0  0
  7 12  1  0  0  0  0
  7 13  1  0  0  0  0
  8  7  2  0  0  0  0
  9 10  2  0  0  0  0
  9  8  1  0  0  0  0
 10 11  1  0  0  0  0
 11 15  1  0  0  0  0
 11 12  2  0  0  0  0
 14  8  1  0  0  0  0
 16  1  1  0  0  0  0
 17 16  1  0  0  0  0
 17 18  1  0  0  0  0
 18 19  1  0  0  0  0
 20 18  2  0  0  0  0
 21 20  1  0  0  0  0
 22 27  1  0  0  0  0
 22 21  2  0  0  0  0
 23 22  1  0  0  0  0
 24 23  2  0  0  0  0
 25 24  1  0  0  0  0
 25 26  2  0  0  0  0
 26 27  1  0  0  0  0
 27 17  2  0  0  0  0
M  END
>  <minimizedAffinity>
-4.99960709

$$$$

 OpenBabel03272509263D

 27 29  0  0  0  0  0  0  0  0999 V2000
   35.9900   27.8500   32.5670 C   0  0  0  0  0  0  0  0  0  0  0  0
   37.0920   28.0000   32.7710 H   0  0  0  0  0  0  0  0  0  0  0  0
   35.6210   27.3470   33.4700 H   0  0  0  0  0  0  0  0  0  0  0  0
   35.9530   27.0230   31.3110 C   0  0  0  0  0  0  0  0  0  0  0  0
   34.9230   27.1270   30.9050 H   0  0  0  0  0  0  0  0  0  0  0  0
   36.6140   27.4130   30.5170 H   0  0  0  0  0  0  0  0  0  0  0  0
   35.7010   23.2650   31.4930 C   0  0  0  0  0  0  0  0  0  0  0  0
   35.3880   24.5660   31.1300 C   0  0  0  0  0  0  0  0  0  0  0  0
   36.1640   25.5940   31.6110 C   0  0  0  0  0  0  0  0  0  0  0  0
   37.2200   25.2640   32.4330 N   0  0  0  0  0  0  0  0  0  0  0  0
   37.5100   23.9970   32.7760 C   0  0  0  0  0  0  0  0  0  0  0  0
   36.7410   23.0000   32.2990 N   0  0  0  0  0  0  0  0  0  0  0  0
   35.0540   22.4970   31.0840 H   0  0  0  0  0  0  0  0  0  0  0  0
   34.5570   24.8080   30.4830 H   0  0  0  0  0  0  0  0  0  0  0  0
   38.3640   23.8340   33.4310 H   0  0  0  0  0  0  0  0  0  0  0  0
   35.3100   29.4950   32.3140 S   0  0  0  0  0  0  0  0  0  0  0  0
   34.0510   29.7890   33.5640 C   0  0  0  0  0  0  0  0  0  0  0  0
   32.7810   29.2400   33.3910 C   0  0  0  0  0  0  0  0  0  0  0  0
   32.5530   28.6410   32.5120 H   0  0  0  0  0  0  0  0  0  0  0  0
   31.7960   29.4590   34.3520 C   0  0  0  0  0  3  0  0  0  0  0  0
   32.0620   30.2170   35.4790 C   0  0  0  0  0  3  0  0  0  0  0  0
   33.3040   30.7520   35.6430 C   0  0  0  0  0  0  0  0  0  0  0  0
   33.6000   31.5170   36.7640 C   0  0  0  0  0  3  0  0  0  0  0  0
   34.8780   32.0430   36.8950 C   0  0  0  0  0  3  0  0  0  0  0  0
   35.8780   31.8390   35.9490 C   0  0  0  0  0  3  0  0  0  0  0  0
   35.5730   31.0730   34.8350 C   0  0  0  0  0  3  0  0  0  0  0  0
   34.2860   30.5410   34.7000 C   0  0  0  0  0  0  0  0  0  0  0  0
  1  2  1  0  0  0  0
  1  3  1  0  0  0  0
  4  9  1  0  0  0  0
  4  1  1  0  0  0  0
  5  4  1  0  0  0  0
  6  4  1  0  0  0  0
  7 12  1  0  0  0  0
  8  7  2  0  0  0  0
  8  9  1  0  0  0  0
  9 10  2  0  0  0  0
 10 11  1  0  0  0  0
 11 15  1  0  0  0  0
 12 11  2  0  0  0  0
 13  7  1  0  0  0  0
 14  8  1  0  0  0  0
 16  1  1  0  0  0  0
 16 17  1  0  0  0  0
 17 27  1  0  0  0  0
 18 17  2  0  0  0  0
 18 20  1  0  0  0  0
 19 18  1  0  0  0  0
 20 21  2  0  0  0  0
 21 22  1  0  0  0  0
 22 23  1  0  0  0  0
 23 24  2  0  0  0  0
 25 24  1  0  0  0  0
 26 25  2  0  0  0  0
 27 26  1  0  0  0  0
 27 22  2  0  0  0  0
M  END
>  <minimizedAffinity>
-4.95764208

$$$$

 OpenBabel03272509263D

 27 29  0  0  0  0  0  0  0  0999 V2000
   38.0830   24.5260   30.5000 C   0  0  0  0  0  0  0  0  0  0  0  0
   38.0090   24.2900   29.3960 H   0  0  0  0  0  0  0  0  0  0  0  0
   38.7960   23.7840   30.8800 H   0  0  0  0  0  0  0  0  0  0  0  0
   36.6740   24.3810   31.0080 C   0  0  0  0  0  0  0  0  0  0  0  0
   36.4650   25.2980   31.6000 H   0  0  0  0  0  0  0  0  0  0  0  0
   35.9210   24.3850   30.1990 H   0  0  0  0  0  0  0  0  0  0  0  0
   35.5840   21.2400   32.7870 C   0  0  0  0  0  0  0  0  0  0  0  0
   35.5750   22.2700   31.8590 C   0  0  0  0  0  0  0  0  0  0  0  0
   36.5560   23.2300   31.9240 C   0  0  0  0  0  0  0  0  0  0  0  0
   37.5030   23.1070   32.9190 N   0  0  0  0  0  0  0  0  0  0  0  0
   37.4980   22.1030   33.8110 C   0  0  0  0  0  0  0  0  0  0  0  0
   36.5300   21.1690   33.7370 N   0  0  0  0  0  0  0  0  0  0  0  0
   34.7860   20.5130   32.6870 H   0  0  0  0  0  0  0  0  0  0  0  0
   34.8260   22.3520   31.0840 H   0  0  0  0  0  0  0  0  0  0  0  0
   38.2870   22.0900   34.5610 H   0  0  0  0  0  0  0  0  0  0  0  0
   38.6670   26.2230   30.6000 S   0  0  0  0  0  0  0  0  0  0  0  0
   37.6920   27.0880   31.8400 C   0  0  0  0  0  0  0  0  0  0  0  0
   36.5370   27.7610   31.4470 C   0  0  0  0  0  0  0  0  0  0  0  0
   36.2270   27.7640   30.4040 H   0  0  0  0  0  0  0  0  0  0  0  0
   35.7710   28.4360   32.3970 C   0  0  0  0  0  3  0  0  0  0  0  0
   36.1450   28.4460   33.7280 C   0  0  0  0  0  3  0  0  0  0  0  0
   37.2750   27.7870   34.1080 C   0  0  0  0  0  0  0  0  0  0  0  0
   37.6750   27.7800   35.4380 C   0  0  0  0  0  3  0  0  0  0  0  0
   38.8320   27.0960   35.7840 C   0  0  0  0  0  3  0  0  0  0  0  0
   39.6130   26.4160   34.8550 C   0  0  0  0  0  3  0  0  0  0  0  0
   39.2050   26.4290   33.5300 C   0  0  0  0  0  3  0  0  0  0  0  0
   38.0390   27.1170   33.1770 C   0  0  0  0  0  0  0  0  0  0  0  0
  1 16  1  0  0  0  0
  1  3  1  0  0  0  0
  1  4  1  0  0  0  0
  2  1  1  0  0  0  0
  4  5  1  0  0  0  0
  4  9  1  0  0  0  0
  6  4  1  0  0  0  0
  7 12  1  0  0  0  0
  8  9  1  0  0  0  0
  8  7  2  0  0  0  0
  9 10  2  0  0  0  0
 10 11  1  0  0  0  0
 11 15  1  0  0  0  0
 12 11  2  0  0  0  0
 13  7  1  0  0  0  0
 14  8  1  0  0  0  0
 16 17  1  0  0  0  0
 17 27  1  0  0  0  0
 18 17  2  0  0  0  0
 18 20  1  0  0  0  0
 19 18  1  0  0  0  0
 20 21  2  0  0  0  0
 21 22  1  0  0  0  0
 22 23  1  0  0  0  0
 23 24  2  0  0  0  0
 25 24  1  0  0  0  0
 26 25  2  0  0  0  0
 27 26  1  0  0  0  0
 27 22  2  0  0  0  0
M  END
>  <minimizedAffinity>
-4.91831636

$$$$

 OpenBabel03272509263D

 27 29  0  0  0  0  0  0  0  0999 V2000
   41.4210   24.6490   33.7430 C   0  0  0  0  0  0  0  0  0  0  0  0
   41.6590   24.3100   32.6900 H   0  0  0  0  0  0  0  0  0  0  0  0
   42.2600   24.2690   34.3380 H   0  0  0  0  0  0  0  0  0  0  0  0
   40.0850   24.0240   34.0430 C   0  0  0  0  0  0  0  0  0  0  0  0
   39.3350   24.8370   33.9340 H   0  0  0  0  0  0  0  0  0  0  0  0
   39.7900   23.2600   33.3020 H   0  0  0  0  0  0  0  0  0  0  0  0
   40.8520   22.5350   37.4220 C   0  0  0  0  0  0  0  0  0  0  0  0
   41.0480   22.9260   36.1060 C   0  0  0  0  0  0  0  0  0  0  0  0
   40.0230   23.5530   35.4400 C   0  0  0  0  0  0  0  0  0  0  0  0
   38.8470   23.7610   36.1310 N   0  0  0  0  0  0  0  0  0  0  0  0
   38.6720   23.3750   37.4060 C   0  0  0  0  0  0  0  0  0  0  0  0
   39.6850   22.7610   38.0460 N   0  0  0  0  0  0  0  0  0  0  0  0
   41.6950   22.0450   37.8950 H   0  0  0  0  0  0  0  0  0  0  0  0
   41.9760   22.7570   35.5790 H   0  0  0  0  0  0  0  0  0  0  0  0
   37.7080   23.5820   37.8680 H   0  0  0  0  0  0  0  0  0  0  0  0
   41.3260   26.4430   33.6690 S   0  0  0  0  0  0  0  0  0  0  0  0
   39.6370   26.9400   34.0350 C   0  0  0  0  0  0  0  0  0  0  0  0
   39.2600   27.1380   35.3620 C   0  0  0  0  0  0  0  0  0  0  0  0
   39.9780   26.9970   36.1670 H   0  0  0  0  0  0  0  0  0  0  0  0
   37.9540   27.5230   35.6610 C   0  0  0  0  0  3  0  0  0  0  0  0
   37.0240   27.7100   34.6540 C   0  0  0  0  0  3  0  0  0  0  0  0
   37.3960   27.5140   33.3580 C   0  0  0  0  0  0  0  0  0  0  0  0
   36.4840   27.6950   32.3270 C   0  0  0  0  0  3  0  0  0  0  0  0
   36.9040   27.4860   31.0200 C   0  0  0  0  0  3  0  0  0  0  0  0
   38.2010   27.1010   30.6970 C   0  0  0  0  0  3  0  0  0  0  0  0
   39.1040   26.9240   31.7330 C   0  0  0  0  0  3  0  0  0  0  0  0
   38.6860   27.1340   33.0520 C   0  0  0  0  0  0  0  0  0  0  0  0
  1  4  1  0  0  0  0
  1  3  1  0  0  0  0
  2  1  1  0  0  0  0
  4  9  1  0  0  0  0
  5  4  1  0  0  0  0
  6  4  1  0  0  0  0
  7 13  1  0  0  0  0
  7 12  1  0  0  0  0
  8  7  2  0  0  0  0
  9  8  1  0  0  0  0
  9 10  2  0  0  0  0
 10 11  1  0  0  0  0
 11 15  1  0  0  0  0
 11 12  2  0  0  0  0
 14  8  1  0  0  0  0
 16  1  1  0  0  0  0
 16 17  1  0  0  0  0
 17 18  1  0  0  0  0
 18 20  2  0  0  0  0
 18 19  1  0  0  0  0
 21 20  1  0  0  0  0
 22 21  2  0  0  0  0
 23 22  1  0  0  0  0
 24 23  2  0  0  0  0
 25 24  1  0  0  0  0
 25 26  2  0  0  0  0
 26 27  1  0  0  0  0
 27 22  1  0  0  0  0
 27 17  2  0  0  0  0
M  END
>  <minimizedAffinity>
-4.89690304

$$$$

 OpenBabel03272509263D

 27 29  0  0  0  0  0  0  0  0999 V2000
   35.9890   29.2500   31.9370 C   0  0  0  0  0  0  0  0  0  0  0  0
   36.9320   29.7610   32.2970 H   0  0  0  0  0  0  0  0  0  0  0  0
   35.9190   29.5400   30.8820 H   0  0  0  0  0  0  0  0  0  0  0  0
   34.9050   29.7970   32.8260 C   0  0  0  0  0  0  0  0  0  0  0  0
   34.1900   30.3180   32.1530 H   0  0  0  0  0  0  0  0  0  0  0  0
   34.3110   29.0080   33.3200 H   0  0  0  0  0  0  0  0  0  0  0  0
   36.1350   31.6530   35.8700 C   0  0  0  0  0  0  0  0  0  0  0  0
   35.6160   30.6160   35.1090 C   0  0  0  0  0  0  0  0  0  0  0  0
   35.4430   30.8060   33.7590 C   0  0  0  0  0  0  0  0  0  0  0  0
   35.8030   32.0310   33.2360 N   0  0  0  0  0  0  0  0  0  0  0  0
   36.3030   33.0260   33.9870 C   0  0  0  0  0  0  0  0  0  0  0  0
   36.4660   32.8270   35.3090 N   0  0  0  0  0  0  0  0  0  0  0  0
   36.2480   31.4460   36.9270 H   0  0  0  0  0  0  0  0  0  0  0  0
   35.3410   29.6620   35.5330 H   0  0  0  0  0  0  0  0  0  0  0  0
   36.5580   33.9580   33.4860 H   0  0  0  0  0  0  0  0  0  0  0  0
   36.2550   27.4910   32.2000 S   0  0  0  0  0  0  0  0  0  0  0  0
   37.4930   27.2900   33.4880 C   0  0  0  0  0  0  0  0  0  0  0  0
   37.0840   27.2130   34.8180 C   0  0  0  0  0  0  0  0  0  0  0  0
   36.0280   27.2730   35.0750 H   0  0  0  0  0  0  0  0  0  0  0  0
   38.0330   27.0570   35.8270 C   0  0  0  0  0  3  0  0  0  0  0  0
   39.3800   26.9770   35.5250 C   0  0  0  0  0  3  0  0  0  0  0  0
   39.7760   27.0530   34.2230 C   0  0  0  0  0  0  0  0  0  0  0  0
   41.1220   26.9760   33.8900 C   0  0  0  0  0  3  0  0  0  0  0  0
   41.4840   27.0570   32.5520 C   0  0  0  0  0  3  0  0  0  0  0  0
   40.5560   27.2130   31.5280 C   0  0  0  0  0  3  0  0  0  0  0  0
   39.2160   27.2880   31.8710 C   0  0  0  0  0  3  0  0  0  0  0  0
   38.8460   27.2070   33.2180 C   0  0  0  0  0  0  0  0  0  0  0  0
  1 16  1  0  0  0  0
  1  2  1  0  0  0  0
  1  4  1  0  0  0  0
  3  1  1  0  0  0  0
  4  6  1  0  0  0  0
  4  9  1  0  0  0  0
  5  4  1  0  0  0  0
  7 13  1  0  0  0  0
  8 14  1  0  0  0  0
  8  7  2  0  0  0  0
  9  8  1  0  0  0  0
 10  9  2  0  0  0  0
 10 11  1  0  0  0  0
 11 12  2  0  0  0  0
 12  7  1  0  0  0  0
 15 11  1  0  0  0  0
 16 17  1  0  0  0  0
 17 18  1  0  0  0  0
 18 19  1  0  0  0  0
 18 20  2  0  0  0  0
 21 20  1  0  0  0  0
 22 21  2  0  0  0  0
 23 22  1  0  0  0  0
 24 23  2  0  0  0  0
 25 26  2  0  0  0  0
 25 24  1  0  0  0  0
 26 27  1  0  0  0  0
 27 17  2  0  0  0  0
 27 22  1  0  0  0  0
M  END
>  <minimizedAffinity>
-4.88615751

$$$$

 OpenBabel03272509263D

 27 29  0  0  0  0  0  0  0  0999 V2000
   37.6780   23.1640   33.2240 C   0  0  0  0  0  0  0  0  0  0  0  0
   37.0110   23.8580   33.8190 H   0  0  0  0  0  0  0  0  0  0  0  0
   37.3420   23.3000   32.1890 H   0  0  0  0  0  0  0  0  0  0  0  0
   37.4170   21.8030   33.8090 C   0  0  0  0  0  0  0  0  0  0  0  0
   38.4100   21.4020   34.1100 H   0  0  0  0  0  0  0  0  0  0  0  0
   36.8280   21.8390   34.7430 H   0  0  0  0  0  0  0  0  0  0  0  0
   35.3910   19.2200   31.9530 C   0  0  0  0  0  0  0  0  0  0  0  0
   35.8090   20.0280   32.9990 C   0  0  0  0  0  0  0  0  0  0  0  0
   36.8640   20.8860   32.7940 C   0  0  0  0  0  0  0  0  0  0  0  0
   37.4470   20.8920   31.5440 N   0  0  0  0  0  0  0  0  0  0  0  0
   37.0300   20.1010   30.5400 C   0  0  0  0  0  0  0  0  0  0  0  0
   35.9960   19.2660   30.7560 N   0  0  0  0  0  0  0  0  0  0  0  0
   34.5560   18.5650   32.1730 H   0  0  0  0  0  0  0  0  0  0  0  0
   35.3410   20.0130   33.9720 H   0  0  0  0  0  0  0  0  0  0  0  0
   37.5520   20.1760   29.5890 H   0  0  0  0  0  0  0  0  0  0  0  0
   39.3600   23.7200   33.5290 S   0  0  0  0  0  0  0  0  0  0  0  0
   39.8960   23.0670   35.1160 C   0  0  0  0  0  0  0  0  0  0  0  0
   40.9370   22.1410   35.1520 C   0  0  0  0  0  0  0  0  0  0  0  0
   41.4210   21.8170   34.2330 H   0  0  0  0  0  0  0  0  0  0  0  0
   41.3630   21.6250   36.3760 C   0  0  0  0  0  3  0  0  0  0  0  0
   40.7650   22.0220   37.5580 C   0  0  0  0  0  3  0  0  0  0  0  0
   39.7470   22.9270   37.5180 C   0  0  0  0  0  0  0  0  0  0  0  0
   39.1270   23.3440   38.6880 C   0  0  0  0  0  3  0  0  0  0  0  0
   38.0950   24.2680   38.6040 C   0  0  0  0  0  3  0  0  0  0  0  0
   37.6510   24.7960   37.3960 C   0  0  0  0  0  3  0  0  0  0  0  0
   38.2770   24.3740   36.2340 C   0  0  0  0  0  3  0  0  0  0  0  0
   39.3180   23.4430   36.3140 C   0  0  0  0  0  0  0  0  0  0  0  0
  1 16  1  0  0  0  0
  1  4  1  0  0  0  0
  1  2  1  0  0  0  0
  3  1  1  0  0  0  0
  4  5  1  0  0  0  0
  4  6  1  0  0  0  0
  7 13  1  0  0  0  0
  7  8  1  0  0  0  0
  8 14  1  0  0  0  0
  9  8  2  0  0  0  0
  9  4  1  0  0  0  0
 10  9  1  0  0  0  0
 11 12  1  0  0  0  0
 11 10  2  0  0  0  0
 12  7  2  0  0  0  0
 15 11  1  0  0  0  0
 16 17  1  0  0  0  0
 17 18  2  0  0  0  0
 17 27  1  0  0  0  0
 18 20  1  0  0  0  0
 19 18  1  0  0  0  0
 20 21  2  0  0  0  0
 22 21  1  0  0  0  0
 22 23  1  0  0  0  0
 24 23  2  0  0  0  0
 25 24  1  0  0  0  0
 26 27  1  0  0  0  0
 26 25  2  0  0  0  0
 27 22  2  0  0  0  0
M  END
>  <minimizedAffinity>
-4.88200951

$$$$

 OpenBabel03272509263D

 27 29  0  0  0  0  0  0  0  0999 V2000
   40.2610   24.3100   32.6760 C   0  0  0  0  0  0  0  0  0  0  0  0
   40.8310   24.7590   33.5440 H   0  0  0  0  0  0  0  0  0  0  0  0
   41.0370   24.1070   31.9280 H   0  0  0  0  0  0  0  0  0  0  0  0
   39.2630   25.3700   32.2960 C   0  0  0  0  0  0  0  0  0  0  0  0
   39.8020   26.0710   31.6230 H   0  0  0  0  0  0  0  0  0  0  0  0
   38.4260   24.9780   31.6900 H   0  0  0  0  0  0  0  0  0  0  0  0
   39.1200   27.2780   35.5450 C   0  0  0  0  0  0  0  0  0  0  0  0
   39.6610   26.5590   34.4900 C   0  0  0  0  0  0  0  0  0  0  0  0
   38.8320   26.1400   33.4780 C   0  0  0  0  0  0  0  0  0  0  0  0
   37.4950   26.4680   33.5720 N   0  0  0  0  0  0  0  0  0  0  0  0
   36.9860   27.1660   34.6020 C   0  0  0  0  0  0  0  0  0  0  0  0
   37.8100   27.5680   35.5870 N   0  0  0  0  0  0  0  0  0  0  0  0
   39.8220   27.5810   36.3130 H   0  0  0  0  0  0  0  0  0  0  0  0
   40.7110   26.3110   34.4290 H   0  0  0  0  0  0  0  0  0  0  0  0
   35.9180   27.3760   34.5900 H   0  0  0  0  0  0  0  0  0  0  0  0
   39.4650   22.8340   33.3250 S   0  0  0  0  0  0  0  0  0  0  0  0
   40.0880   22.5360   34.9860 C   0  0  0  0  0  0  0  0  0  0  0  0
   41.2840   21.8390   35.1480 C   0  0  0  0  0  0  0  0  0  0  0  0
   41.8360   21.4810   34.2820 H   0  0  0  0  0  0  0  0  0  0  0  0
   41.7780   21.6010   36.4290 C   0  0  0  0  0  3  0  0  0  0  0  0
   41.0950   22.0470   37.5460 C   0  0  0  0  0  3  0  0  0  0  0  0
   39.9250   22.7270   37.3830 C   0  0  0  0  0  0  0  0  0  0  0  0
   39.2170   23.1870   38.4850 C   0  0  0  0  0  3  0  0  0  0  0  0
   38.0300   23.8760   38.2760 C   0  0  0  0  0  3  0  0  0  0  0  0
   37.5160   24.1260   37.0080 C   0  0  0  0  0  3  0  0  0  0  0  0
   38.2310   23.6630   35.9140 C   0  0  0  0  0  3  0  0  0  0  0  0
   39.4270   22.9690   36.1200 C   0  0  0  0  0  0  0  0  0  0  0  0
  1 16  1  0  0  0  0
  1  2  1  0  0  0  0
  3  1  1  0  0  0  0
  4  1  1  0  0  0  0
  4  9  1  0  0  0  0
  5  4  1  0  0  0  0
  6  4  1  0  0  0  0
  7 12  1  0  0  0  0
  7 13  1  0  0  0  0
  8  7  2  0  0  0  0
  9 10  2  0  0  0  0
  9  8  1  0  0  0  0
 10 11  1  0  0  0  0
 11 12  2  0  0  0  0
 14  8  1  0  0  0  0
 15 11  1  0  0  0  0
 16 17  1  0  0  0  0
 17 18  2  0  0  0  0
 17 27  1  0  0  0  0
 18 20  1  0  0  0  0
 19 18  1  0  0  0  0
 20 21  2  0  0  0  0
 22 21  1  0  0  0  0
 22 23  1  0  0  0  0
 24 23  2  0  0  0  0
 25 24  1  0  0  0  0
 26 27  1  0  0  0  0
 26 25  2  0  0  0  0
 27 22  2  0  0  0  0
M  END
>  <minimizedAffinity>
-4.87692356

$$$$
