
 OpenBabel03272506433D

 34 37  0  0  1  0  0  0  0  0999 V2000
   32.3070   28.3710   47.6730 C   0  0  2  0  0  0  0  0  0  0  0  0
   33.6850   28.3140   48.3130 C   0  0  1  0  0  0  0  0  0  0  0  0
   34.1250   27.0260   48.2480 O   0  0  0  0  0  0  0  0  0  0  0  0
   33.2570   26.2890   47.4720 C   0  0  0  0  0  0  0  0  0  0  0  0
   32.4890   27.3010   46.6030 C   0  0  1  0  0  0  0  0  0  0  0  0
   31.5230   28.0820   48.3900 H   0  0  0  0  0  0  0  0  0  0  0  0
   33.6020   28.7270   49.3350 H   0  0  0  0  0  0  0  0  0  0  0  0
   33.8710   25.6610   46.7940 H   0  0  0  0  0  0  0  0  0  0  0  0
   32.5520   25.6990   48.0800 H   0  0  0  0  0  0  0  0  0  0  0  0
   33.1540   27.7210   45.8470 H   0  0  0  0  0  0  0  0  0  0  0  0
   32.0670   29.6210   47.1080 O   0  0  0  0  0  0  0  0  0  0  0  0
   31.6060   30.1920   47.7680 H   0  0  0  0  0  0  0  0  0  0  0  0
   34.7770   29.3390   47.2780 S   0  0  0  0  0  0  0  0  0  0  0  0
   37.4640   29.7330   50.1570 C   0  0  0  0  0  0  0  0  0  0  0  0
   38.1450   30.9090   49.8700 C   0  0  0  0  0  0  0  0  0  0  0  0
   37.7580   31.6180   48.7320 C   0  0  0  0  0  0  0  0  0  0  0  0
   36.7420   31.1270   47.9670 N   0  0  0  0  0  0  0  0  0  0  0  0
   36.1080   29.9710   48.2900 C   0  0  0  0  0  0  0  0  0  0  0  0
   36.4590   29.2700   49.3780 N   0  0  0  0  0  0  0  0  0  0  0  0
   37.8000   29.2230   51.0460 H   0  0  0  0  0  0  0  0  0  0  0  0
   38.9520   31.2960   50.4810 H   0  0  0  0  0  0  0  0  0  0  0  0
   38.2300   32.5520   48.4220 H   0  0  0  0  0  0  0  0  0  0  0  0
   31.3000   26.7570   46.1970 O   0  0  0  0  0  0  0  0  0  0  0  0
   30.2880   27.5070   45.6240 C   0  0  0  0  0  0  0  0  0  0  0  0
   30.2630   28.2330   44.4540 C   0  0  0  0  0  0  0  0  0  0  0  0
   31.1950   28.1960   43.9120 H   0  0  0  0  0  0  0  0  0  0  0  0
   29.1320   28.9180   44.0660 C   0  0  0  0  0  3  0  0  0  0  0  0
   27.9930   28.9120   44.8150 C   0  0  0  0  0  3  0  0  0  0  0  0
   27.9800   28.1910   46.0030 C   0  0  0  0  0  0  0  0  0  0  0  0
   26.8100   28.2240   46.7060 C   0  0  0  0  0  3  0  0  0  0  0  0
   26.7410   27.5260   47.8930 C   0  0  0  0  0  3  0  0  0  0  0  0
   27.8390   26.8200   48.3360 C   0  0  0  0  0  3  0  0  0  0  0  0
   28.9920   26.8230   47.5830 C   0  0  0  0  0  3  0  0  0  0  0  0
   29.1230   27.4990   46.3950 C   0  0  0  0  0  0  0  0  0  0  0  0
  1  2  1  0  0  0  0
  1  6  1  1  0  0  0
  2  7  1  1  0  0  0
  3  2  1  0  0  0  0
  4  9  1  0  0  0  0
  4  3  1  0  0  0  0
  5 10  1  6  0  0  0
  5  4  1  0  0  0  0
  5  1  1  0  0  0  0
  8  4  1  0  0  0  0
 11  1  1  0  0  0  0
 11 12  1  0  0  0  0
 13 18  1  0  0  0  0
 13  2  1  0  0  0  0
 14 20  1  0  0  0  0
 15 14  1  0  0  0  0
 15 21  1  0  0  0  0
 16 15  2  0  0  0  0
 17 18  2  0  0  0  0
 17 16  1  0  0  0  0
 18 19  1  0  0  0  0
 19 14  2  0  0  0  0
 22 16  1  0  0  0  0
 23  5  1  0  0  0  0
 24 23  1  0  0  0  0
 24 34  1  0  0  0  0
 25 24  2  0  0  0  0
 26 25  1  0  0  0  0
 27 25  1  0  0  0  0
 27 28  2  0  0  0  0
 28 29  1  0  0  0  0
 29 34  2  0  0  0  0
 29 30  1  0  0  0  0
 30 31  2  0  0  0  0
 31 32  1  0  0  0  0
 33 32  2  0  0  0  0
 34 33  1  0  0  0  0
M  END
>  <minimizedAffinity>
-4.99005032

>  <minimizedRMSD>
2.53127766

$$$$
