
 OpenBabel03272503493D

 39 42  0  0  1  0  0  0  0  0999 V2000
   33.2270   27.3500   45.8430 C   0  0  1  0  0  0  0  0  0  0  0  0
   33.9330   27.4640   47.2110 C   0  0  2  0  0  0  0  0  0  0  0  0
   33.7580   26.2390   47.7690 O   0  0  0  0  0  0  0  0  0  0  0  0
   34.0720   25.3520   46.7520 C   0  0  0  0  0  0  0  0  0  0  0  0
   33.6120   25.9490   45.4390 C   0  0  2  0  0  0  0  0  0  0  0  0
   33.6360   28.1240   45.1630 H   0  0  0  0  0  0  0  0  0  0  0  0
   34.9830   27.7160   46.9400 H   0  0  0  0  0  0  0  0  0  0  0  0
   35.1340   25.0550   46.7350 H   0  0  0  0  0  0  0  0  0  0  0  0
   33.4740   24.4320   46.9190 H   0  0  0  0  0  0  0  0  0  0  0  0
   32.7210   25.4250   45.0460 H   0  0  0  0  0  0  0  0  0  0  0  0
   31.8700   27.5590   45.9820 O   0  0  0  0  0  0  0  0  0  0  0  0
   31.5480   28.2450   45.3430 H   0  0  0  0  0  0  0  0  0  0  0  0
   33.3060   28.5160   47.8300 O   0  0  0  0  0  0  0  0  0  0  0  0
   35.3450   29.8240   46.7720 O   0  0  0  0  0  0  0  0  0  0  0  0
   34.0860   29.9930   47.6170 P   0  0  1  0  0  0  0  0  0  0  0  0
   33.1020   31.0480   46.7300 O   0  0  0  0  0  0  0  0  0  0  0  0
   32.3720   31.3160   47.3700 H   0  0  0  0  0  0  0  0  0  0  0  0
   34.3920   30.6190   49.1750 O   0  0  0  0  0  0  0  0  0  0  0  0
   35.6350   30.4950   49.7790 C   0  0  0  0  0  0  0  0  0  0  0  0
   35.9890   29.4650   50.6830 C   0  0  0  0  0  0  0  0  0  0  0  0
   37.2740   29.4740   51.2070 C   0  0  0  0  0  0  0  0  0  0  0  0
   38.1330   30.4760   50.8250 N   0  0  0  0  0  0  0  0  0  0  0  0
   37.7650   31.4500   49.9570 C   0  0  0  0  0  0  0  0  0  0  0  0
   36.5110   31.4640   49.4300 N   0  0  0  0  0  0  0  0  0  0  0  0
   35.2390   28.7480   50.8990 H   0  0  0  0  0  0  0  0  0  0  0  0
   37.5370   28.7010   51.8840 H   0  0  0  0  0  0  0  0  0  0  0  0
   38.4510   32.2310   49.6670 H   0  0  0  0  0  0  0  0  0  0  0  0
   34.6440   25.9680   44.5390 O   0  0  0  0  0  0  0  0  0  0  0  0
   34.7740   26.9460   43.5880 C   0  0  0  0  0  0  0  0  0  0  0  0
   35.2930   28.2060   43.6330 C   0  0  0  0  0  0  0  0  0  0  0  0
   35.6790   28.5130   44.5880 H   0  0  0  0  0  0  0  0  0  0  0  0
   35.3380   29.0580   42.5550 C   0  0  0  0  0  3  0  0  0  0  0  0
   34.8450   28.6730   41.3270 C   0  0  0  0  0  3  0  0  0  0  0  0
   34.3070   27.3870   41.2500 C   0  0  0  0  0  0  0  0  0  0  0  0
   33.8290   27.0530   39.9990 C   0  0  0  0  0  3  0  0  0  0  0  0
   33.2780   25.8070   39.8180 C   0  0  0  0  0  3  0  0  0  0  0  0
   33.2170   24.9290   40.8750 C   0  0  0  0  0  3  0  0  0  0  0  0
   33.7050   25.2960   42.1110 C   0  0  0  0  0  3  0  0  0  0  0  0
   34.2670   26.5330   42.3500 C   0  0  0  0  0  0  0  0  0  0  0  0
  1  6  1  6  0  0  0
  1 11  1  0  0  0  0
  1  2  1  0  0  0  0
  2  7  1  6  0  0  0
  2  3  1  0  0  0  0
  2 13  1  0  0  0  0
  4  9  1  0  0  0  0
  4  3  1  0  0  0  0
  5 10  1  6  0  0  0
  5  1  1  0  0  0  0
  5  4  1  0  0  0  0
  8  4  1  0  0  0  0
 12 11  1  0  0  0  0
 15 14  2  6  0  0  0
 15 13  1  0  0  0  0
 15 18  1  0  0  0  0
 16 17  1  0  0  0  0
 16 15  1  0  0  0  0
 18 19  1  0  0  0  0
 19 20  1  0  0  0  0
 20 25  1  0  0  0  0
 20 21  2  0  0  0  0
 21 26  1  0  0  0  0
 22 21  1  0  0  0  0
 23 22  2  0  0  0  0
 24 19  2  0  0  0  0
 24 23  1  0  0  0  0
 27 23  1  0  0  0  0
 28  5  1  0  0  0  0
 29 30  1  0  0  0  0
 29 28  1  0  0  0  0
 30 31  1  0  0  0  0
 32 30  2  0  0  0  0
 33 32  1  0  0  0  0
 34 33  2  0  0  0  0
 34 39  1  0  0  0  0
 35 34  1  0  0  0  0
 36 35  2  0  0  0  0
 36 37  1  0  0  0  0
 37 38  2  0  0  0  0
 38 39  1  0  0  0  0
 39 29  2  0  0  0  0
M  END
>  <minimizedAffinity>
-4.08453751

>  <minimizedRMSD>
2.46864653

$$$$
