
 OpenBabel03272501303D

 22 24  0  0  0  0  0  0  0  0999 V2000
   38.0080   31.9270   48.1050 C   0  0  0  0  0  0  0  0  0  0  0  0
   37.9410   33.1740   48.3070 O   0  0  0  0  0  0  0  0  0  0  0  0
   38.4700   31.3420   46.8270 C   0  0  0  0  0  0  0  0  0  0  0  0
   39.8500   31.4070   46.5990 C   0  0  0  0  0  0  0  0  0  0  0  0
   40.5090   31.8680   47.3510 H   0  0  0  0  0  0  0  0  0  0  0  0
   40.4830   30.9350   45.4850 C   0  0  0  0  0  3  0  0  0  0  0  0
   39.7150   30.3480   44.5080 C   0  0  0  0  0  3  0  0  0  0  0  0
   38.3540   30.2730   44.7100 C   0  0  0  0  0  0  0  0  0  0  0  0
   37.4910   29.6940   43.7780 C   0  0  0  0  0  3  0  0  0  0  0  0
   36.1270   29.6140   43.9740 C   0  0  0  0  0  3  0  0  0  0  0  0
   35.5590   30.1170   45.1340 C   0  0  0  0  0  3  0  0  0  0  0  0
   36.3750   30.6980   46.0850 C   0  0  0  0  0  3  0  0  0  0  0  0
   37.7270   30.7530   45.8380 C   0  0  0  0  0  0  0  0  0  0  0  0
   37.7170   30.0830   51.3450 C   0  0  0  0  0  0  0  0  0  0  0  0
   38.1190   31.0680   50.4150 C   0  0  0  0  0  0  0  0  0  0  0  0
   37.6330   30.9450   49.1210 C   0  0  0  0  0  0  0  0  0  0  0  0
   36.8060   29.8910   48.8340 N   0  0  0  0  0  0  0  0  0  0  0  0
   36.4490   28.9800   49.7400 C   0  0  0  0  0  0  0  0  0  0  0  0
   36.8920   29.0620   50.9940 N   0  0  0  0  0  0  0  0  0  0  0  0
   38.0960   30.1880   52.3390 H   0  0  0  0  0  0  0  0  0  0  0  0
   38.7600   31.8790   50.6540 H   0  0  0  0  0  0  0  0  0  0  0  0
   35.8000   28.1470   49.5280 H   0  0  0  0  0  0  0  0  0  0  0  0
  1  2  2  0  0  0  0
  1 16  1  0  0  0  0
  3  1  1  0  0  0  0
  4  3  1  0  0  0  0
  4  5  1  0  0  0  0
  6  4  2  0  0  0  0
  7  8  2  0  0  0  0
  7  6  1  0  0  0  0
  8 13  1  0  0  0  0
  9 10  2  0  0  0  0
  9  8  1  0  0  0  0
 10 11  1  0  0  0  0
 11 12  2  0  0  0  0
 13 12  1  0  0  0  0
 13  3  2  0  0  0  0
 14 20  1  0  0  0  0
 15 21  1  0  0  0  0
 15 14  2  0  0  0  0
 16 15  1  0  0  0  0
 17 16  2  0  0  0  0
 17 18  1  0  0  0  0
 18 19  2  0  0  0  0
 19 14  1  0  0  0  0
 22 18  1  0  0  0  0
M  END
>  <minimizedAffinity>
-5.11919498

>  <minimizedRMSD>
1.52675462

$$$$
