
 OpenBabel03272503473D

 26 28  0  0  0  0  0  0  0  0999 V2000
   35.3510   29.8510   46.7670 O   0  0  0  0  0  0  0  0  0  0  0  0
   34.1270   29.9660   47.6470 P   0  0  2  0  0  0  0  0  0  0  0  0
   33.0220   30.9290   46.7950 O   0  0  0  0  0  0  0  0  0  0  0  0
   32.2850   30.3810   46.4140 H   0  0  0  0  0  0  0  0  0  0  0  0
   34.4980   30.7090   49.1570 O   0  0  0  0  0  0  0  0  0  0  0  0
   35.7160   30.5360   49.7890 C   0  0  0  0  0  0  0  0  0  0  0  0
   36.0160   29.5270   50.7140 C   0  0  0  0  0  0  0  0  0  0  0  0
   37.2970   29.4890   51.2660 C   0  0  0  0  0  0  0  0  0  0  0  0
   38.1960   30.4360   50.8800 N   0  0  0  0  0  0  0  0  0  0  0  0
   37.8690   31.4000   49.9830 C   0  0  0  0  0  0  0  0  0  0  0  0
   36.6250   31.4590   49.4270 N   0  0  0  0  0  0  0  0  0  0  0  0
   35.2330   28.8450   50.9360 H   0  0  0  0  0  0  0  0  0  0  0  0
   37.5010   28.7040   51.9720 H   0  0  0  0  0  0  0  0  0  0  0  0
   38.6550   32.1110   49.7360 H   0  0  0  0  0  0  0  0  0  0  0  0
   33.4620   28.4570   48.0180 O   0  0  0  0  0  0  0  0  0  0  0  0
   32.4620   27.9430   47.2040 C   0  0  0  0  0  0  0  0  0  0  0  0
   32.5370   27.6750   45.8540 C   0  0  0  0  0  0  0  0  0  0  0  0
   33.4810   27.8910   45.3910 H   0  0  0  0  0  0  0  0  0  0  0  0
   31.4550   27.1620   45.1700 C   0  0  0  0  0  3  0  0  0  0  0  0
   30.2370   26.8920   45.8070 C   0  0  0  0  0  3  0  0  0  0  0  0
   30.1870   27.1700   47.1570 C   0  0  0  0  0  0  0  0  0  0  0  0
   28.9590   26.8880   47.7610 C   0  0  0  0  0  3  0  0  0  0  0  0
   28.8690   27.1530   49.1180 C   0  0  0  0  0  3  0  0  0  0  0  0
   29.9090   27.6680   49.8810 C   0  0  0  0  0  3  0  0  0  0  0  0
   31.0860   27.9170   49.2070 C   0  0  0  0  0  3  0  0  0  0  0  0
   31.2580   27.6820   47.8590 C   0  0  0  0  0  0  0  0  0  0  0  0
  2  1  2  6  0  0  0
  2 15  1  0  0  0  0
  2  5  1  0  0  0  0
  3  2  1  0  0  0  0
  4  3  1  0  0  0  0
  5  6  1  0  0  0  0
  6  7  1  0  0  0  0
  7 12  1  0  0  0  0
  7  8  2  0  0  0  0
  8 13  1  0  0  0  0
  9  8  1  0  0  0  0
 10  9  2  0  0  0  0
 11  6  2  0  0  0  0
 11 10  1  0  0  0  0
 14 10  1  0  0  0  0
 16 26  1  0  0  0  0
 16 15  1  0  0  0  0
 17 16  2  0  0  0  0
 18 17  1  0  0  0  0
 19 20  2  0  0  0  0
 19 17  1  0  0  0  0
 20 21  1  0  0  0  0
 21 22  2  0  0  0  0
 21 26  1  0  0  0  0
 22 23  1  0  0  0  0
 23 24  2  0  0  0  0
 25 24  1  0  0  0  0
 26 25  2  0  0  0  0
M  END
>  <minimizedAffinity>
-5.08640957

>  <minimizedRMSD>
2.12759829

$$$$
