
 OpenBabel03272509263D

 27 29  0  0  0  0  0  0  0  0999 V2000
   35.7750   29.3290   49.1440 C   0  0  0  0  0  0  0  0  0  0  0  0
   36.2710   28.7360   48.3190 H   0  0  0  0  0  0  0  0  0  0  0  0
   35.5250   28.5720   49.8980 H   0  0  0  0  0  0  0  0  0  0  0  0
   34.5970   29.9850   48.4770 C   0  0  0  0  0  0  0  0  0  0  0  0
   34.0830   30.5720   49.2690 H   0  0  0  0  0  0  0  0  0  0  0  0
   34.8900   30.7280   47.7140 H   0  0  0  0  0  0  0  0  0  0  0  0
   32.1980   27.0930   48.1580 C   0  0  0  0  0  0  0  0  0  0  0  0
   33.0900   27.9730   48.7490 C   0  0  0  0  0  0  0  0  0  0  0  0
   33.6370   28.9770   47.9860 C   0  0  0  0  0  0  0  0  0  0  0  0
   33.2570   29.0500   46.6620 N   0  0  0  0  0  0  0  0  0  0  0  0
   32.3910   28.1880   46.1030 C   0  0  0  0  0  0  0  0  0  0  0  0
   31.8640   27.2090   46.8630 N   0  0  0  0  0  0  0  0  0  0  0  0
   31.8000   26.3220   48.8080 H   0  0  0  0  0  0  0  0  0  0  0  0
   33.3770   27.9040   49.7890 H   0  0  0  0  0  0  0  0  0  0  0  0
   32.1520   28.3240   45.0500 H   0  0  0  0  0  0  0  0  0  0  0  0
   36.9980   30.5290   49.6880 S   0  0  0  0  0  0  0  0  0  0  0  0
   37.9280   31.0850   48.2520 C   0  0  0  0  0  0  0  0  0  0  0  0
   37.9130   30.3110   47.0930 C   0  0  0  0  0  0  0  0  0  0  0  0
   37.3470   29.3830   47.0550 H   0  0  0  0  0  0  0  0  0  0  0  0
   38.6290   30.7290   45.9720 C   0  0  0  0  0  0  0  0  0  0  0  0
   39.3560   31.9060   45.9960 C   0  0  0  0  0  0  0  0  0  0  0  0
   39.3680   32.6590   47.1310 C   0  0  0  0  0  0  0  0  0  0  0  0
   40.0880   33.8440   47.1840 C   0  0  0  0  0  0  0  0  0  0  0  0
   40.0740   34.5830   48.3590 C   0  0  0  0  0  0  0  0  0  0  0  0
   39.3680   34.1870   49.4910 C   0  0  0  0  0  0  0  0  0  0  0  0
   38.6520   33.0020   49.4270 C   0  0  0  0  0  0  0  0  0  0  0  0
   38.6630   32.2550   48.2450 C   0  0  0  0  0  0  0  0  0  0  0  0
  1 16  1  0  0  0  0
  1  3  1  0  0  0  0
  2  1  1  0  0  0  0
  4  1  1  0  0  0  0
  4  5  1  0  0  0  0
  6  4  1  0  0  0  0
  7  8  1  0  0  0  0
  7 13  1  0  0  0  0
  8 14  1  0  0  0  0
  9  4  1  0  0  0  0
  9  8  2  0  0  0  0
 10  9  1  0  0  0  0
 11 10  2  0  0  0  0
 11 12  1  0  0  0  0
 12  7  2  0  0  0  0
 15 11  1  0  0  0  0
 17 16  1  0  0  0  0
 18 17  2  0  0  0  0
 19 18  1  0  0  0  0
 20 21  2  0  0  0  0
 20 18  1  0  0  0  0
 21 22  1  0  0  0  0
 22 23  2  0  0  0  0
 22 27  1  0  0  0  0
 23 24  1  0  0  0  0
 24 25  2  0  0  0  0
 26 25  1  0  0  0  0
 27 17  1  0  0  0  0
 27 26  2  0  0  0  0
M  END
>  <minimizedAffinity>
-5.18139029

>  <minimizedRMSD>
4.7580514

$$$$
