
 OpenBabel03272506433D

 34 37  0  0  1  0  0  0  0  0999 V2000
   32.4970   28.4580   47.6940 C   0  0  2  0  0  0  0  0  0  0  0  0
   33.7540   28.7390   48.5030 C   0  0  1  0  0  0  0  0  0  0  0  0
   34.4870   27.5920   48.5510 O   0  0  0  0  0  0  0  0  0  0  0  0
   33.9260   26.6590   47.7060 C   0  0  0  0  0  0  0  0  0  0  0  0
   33.0650   27.4470   46.7040 C   0  0  1  0  0  0  0  0  0  0  0  0
   31.7160   27.9990   48.3200 H   0  0  0  0  0  0  0  0  0  0  0  0
   33.4420   29.1350   49.4870 H   0  0  0  0  0  0  0  0  0  0  0  0
   34.7550   26.1860   47.1380 H   0  0  0  0  0  0  0  0  0  0  0  0
   33.3050   25.9260   48.2460 H   0  0  0  0  0  0  0  0  0  0  0  0
   33.7060   28.0030   46.0190 H   0  0  0  0  0  0  0  0  0  0  0  0
   32.0480   29.6070   47.0480 O   0  0  0  0  0  0  0  0  0  0  0  0
   31.3830   30.0610   47.6190 H   0  0  0  0  0  0  0  0  0  0  0  0
   34.7020   29.9800   47.5680 S   0  0  0  0  0  0  0  0  0  0  0  0
   37.1250   30.6380   50.6270 C   0  0  0  0  0  0  0  0  0  0  0  0
   38.2340   31.2780   50.0910 C   0  0  0  0  0  0  0  0  0  0  0  0
   38.2370   31.5210   48.7160 C   0  0  0  0  0  0  0  0  0  0  0  0
   37.1630   31.1220   47.9770 N   0  0  0  0  0  0  0  0  0  0  0  0
   36.1030   30.4980   48.5500 C   0  0  0  0  0  0  0  0  0  0  0  0
   36.0730   30.2530   49.8680 N   0  0  0  0  0  0  0  0  0  0  0  0
   37.1700   30.4730   51.6930 H   0  0  0  0  0  0  0  0  0  0  0  0
   39.0860   31.5940   50.6820 H   0  0  0  0  0  0  0  0  0  0  0  0
   39.0610   32.0180   48.2010 H   0  0  0  0  0  0  0  0  0  0  0  0
   32.1000   26.6300   46.1770 O   0  0  0  0  0  0  0  0  0  0  0  0
   31.4610   26.8990   44.9800 C   0  0  0  0  0  0  0  0  0  0  0  0
   31.7750   27.7870   43.9750 C   0  0  0  0  0  0  0  0  0  0  0  0
   32.6710   28.3550   44.1750 H   0  0  0  0  0  0  0  0  0  0  0  0
   30.9880   27.8970   42.8500 C   0  0  0  0  0  3  0  0  0  0  0  0
   29.8680   27.1380   42.6770 C   0  0  0  0  0  3  0  0  0  0  0  0
   29.5180   26.2300   43.6690 C   0  0  0  0  0  0  0  0  0  0  0  0
   28.3880   25.5020   43.4360 C   0  0  0  0  0  3  0  0  0  0  0  0
   27.9940   24.5850   44.3880 C   0  0  0  0  0  3  0  0  0  0  0  0
   28.7390   24.4280   45.5380 C   0  0  0  0  0  3  0  0  0  0  0  0
   29.8700   25.1920   45.7160 C   0  0  0  0  0  3  0  0  0  0  0  0
   30.3140   26.1200   44.8060 C   0  0  0  0  0  0  0  0  0  0  0  0
  1  6  1  1  0  0  0
  1  2  1  0  0  0  0
  2  3  1  0  0  0  0
  2  7  1  1  0  0  0
  4  9  1  0  0  0  0
  4  3  1  0  0  0  0
  5 10  1  6  0  0  0
  5  1  1  0  0  0  0
  5  4  1  0  0  0  0
  8  4  1  0  0  0  0
 11 12  1  0  0  0  0
 11  1  1  0  0  0  0
 13  2  1  0  0  0  0
 13 18  1  0  0  0  0
 14 20  1  0  0  0  0
 15 14  1  0  0  0  0
 15 21  1  0  0  0  0
 16 15  2  0  0  0  0
 17 18  2  0  0  0  0
 17 16  1  0  0  0  0
 18 19  1  0  0  0  0
 19 14  2  0  0  0  0
 22 16  1  0  0  0  0
 23  5  1  0  0  0  0
 24 23  1  0  0  0  0
 25 26  1  0  0  0  0
 25 24  2  0  0  0  0
 27 25  1  0  0  0  0
 28 27  2  0  0  0  0
 28 29  1  0  0  0  0
 29 34  1  0  0  0  0
 30 29  2  0  0  0  0
 30 31  1  0  0  0  0
 31 32  2  0  0  0  0
 32 33  1  0  0  0  0
 34 24  1  0  0  0  0
 34 33  2  0  0  0  0
M  END
>  <minimizedAffinity>
-4.42633438

>  <minimizedRMSD>
1.01936889

$$$$
