
 OpenBabel03272509263D

 27 29  0  0  0  0  0  0  0  0999 V2000
   30.5710   29.1440   43.7640 C   0  0  0  0  0  0  0  0  0  0  0  0
   29.9870   29.9270   43.1940 H   0  0  0  0  0  0  0  0  0  0  0  0
   30.5660   28.2740   43.0960 H   0  0  0  0  0  0  0  0  0  0  0  0
   29.8090   28.9710   45.0500 C   0  0  0  0  0  0  0  0  0  0  0  0
   29.8140   29.9660   45.5460 H   0  0  0  0  0  0  0  0  0  0  0  0
   28.7410   28.7360   44.8910 H   0  0  0  0  0  0  0  0  0  0  0  0
   31.4240   25.9380   46.6020 C   0  0  0  0  0  0  0  0  0  0  0  0
   30.7680   26.7130   45.6590 C   0  0  0  0  0  0  0  0  0  0  0  0
   30.4970   28.0280   45.9520 C   0  0  0  0  0  0  0  0  0  0  0  0
   30.9030   28.5030   47.1820 N   0  0  0  0  0  0  0  0  0  0  0  0
   31.5380   27.7380   48.0860 C   0  0  0  0  0  0  0  0  0  0  0  0
   31.7950   26.4510   47.7860 N   0  0  0  0  0  0  0  0  0  0  0  0
   31.6090   24.9090   46.3150 H   0  0  0  0  0  0  0  0  0  0  0  0
   30.4570   26.3270   44.6980 H   0  0  0  0  0  0  0  0  0  0  0  0
   31.8190   28.2010   49.0300 H   0  0  0  0  0  0  0  0  0  0  0  0
   32.2020   29.8510   44.0350 S   0  0  0  0  0  0  0  0  0  0  0  0
   32.1620   31.5790   43.5410 C   0  0  0  0  0  0  0  0  0  0  0  0
   30.9510   32.2690   43.5770 C   0  0  0  0  0  0  0  0  0  0  0  0
   30.0410   31.7690   43.9000 H   0  0  0  0  0  0  0  0  0  0  0  0
   30.9050   33.6080   43.1970 C   0  0  0  0  0  3  0  0  0  0  0  0
   32.0500   34.2660   42.7830 C   0  0  0  0  0  3  0  0  0  0  0  0
   33.2320   33.5880   42.7490 C   0  0  0  0  0  0  0  0  0  0  0  0
   34.3970   34.2230   42.3370 C   0  0  0  0  0  3  0  0  0  0  0  0
   35.5800   33.4970   42.3170 C   0  0  0  0  0  3  0  0  0  0  0  0
   35.6520   32.1600   42.6920 C   0  0  0  0  0  3  0  0  0  0  0  0
   34.4830   31.5350   43.1010 C   0  0  0  0  0  3  0  0  0  0  0  0
   33.2880   32.2630   43.1230 C   0  0  0  0  0  0  0  0  0  0  0  0
  1 16  1  0  0  0  0
  1  4  1  0  0  0  0
  2  1  1  0  0  0  0
  3  1  1  0  0  0  0
  4  5  1  0  0  0  0
  4  9  1  0  0  0  0
  6  4  1  0  0  0  0
  7 12  1  0  0  0  0
  8  9  1  0  0  0  0
  8  7  2  0  0  0  0
  9 10  2  0  0  0  0
 10 11  1  0  0  0  0
 11 15  1  0  0  0  0
 12 11  2  0  0  0  0
 13  7  1  0  0  0  0
 14  8  1  0  0  0  0
 17 18  1  0  0  0  0
 17 16  1  0  0  0  0
 18 19  1  0  0  0  0
 20 18  2  0  0  0  0
 21 20  1  0  0  0  0
 22 21  2  0  0  0  0
 22 27  1  0  0  0  0
 23 22  1  0  0  0  0
 24 23  2  0  0  0  0
 24 25  1  0  0  0  0
 25 26  2  0  0  0  0
 26 27  1  0  0  0  0
 27 17  2  0  0  0  0
M  END
>  <minimizedAffinity>
-2.3516891

>  <minimizedRMSD>
9.2454052

$$$$
