
 OpenBabel03272501573D

 33 36  0  0  0  0  0  0  0  0999 V2000
   32.7010   27.7870   48.6070 C   0  0  0  0  0  0  0  0  0  0  0  0
   32.1300   26.7360   47.9090 C   0  0  0  0  0  0  0  0  0  0  0  0
   30.7990   26.6030   48.2860 C   0  0  0  0  0  0  0  0  0  0  0  0
   30.6020   27.5860   49.2080 N   0  0  0  0  0  0  0  0  0  0  0  0
   31.7290   28.2720   49.3840 N   0  0  0  0  0  0  0  0  0  0  0  0
   32.6860   26.1450   47.1930 H   0  0  0  0  0  0  0  0  0  0  0  0
   30.1270   25.8560   47.8880 H   0  0  0  0  0  0  0  0  0  0  0  0
   29.3030   27.6990   49.7840 C   0  0  0  0  0  0  0  0  0  0  0  0
   29.0070   26.9980   50.9520 C   0  0  0  0  0  0  0  0  0  0  0  0
   29.7540   26.3700   51.4210 H   0  0  0  0  0  0  0  0  0  0  0  0
   27.7860   27.0440   51.5800 C   0  0  0  0  0  0  0  0  0  0  0  0
   26.7780   27.8230   51.0420 C   0  0  0  0  0  0  0  0  0  0  0  0
   27.0380   28.5350   49.8820 C   0  0  0  0  0  0  0  0  0  0  0  0
   26.0470   29.3240   49.3210 C   0  0  0  0  0  0  0  0  0  0  0  0
   26.2450   30.0530   48.1710 C   0  0  0  0  0  0  0  0  0  0  0  0
   27.5020   29.9540   47.5980 C   0  0  0  0  0  0  0  0  0  0  0  0
   28.5030   29.1740   48.1400 C   0  0  0  0  0  0  0  0  0  0  0  0
   28.2770   28.4590   49.2870 C   0  0  0  0  0  0  0  0  0  0  0  0
   34.1070   28.2770   48.5110 C   0  0  0  0  0  0  0  0  0  0  0  0
   34.7520   27.5250   47.9990 H   0  0  0  0  0  0  0  0  0  0  0  0
   34.1250   29.2330   47.9790 H   0  0  0  0  0  0  0  0  0  0  0  0
   34.5890   28.4220   49.9360 C   0  0  0  0  0  0  0  0  0  0  0  0
   33.8130   28.9100   50.5840 H   0  0  0  0  0  0  0  0  0  0  0  0
   34.8710   27.4230   50.3470 H   0  0  0  0  0  0  0  0  0  0  0  0
   37.4980   30.3770   51.1160 C   0  0  0  0  0  0  0  0  0  0  0  0
   38.1120   30.7770   49.9130 C   0  0  0  0  0  0  0  0  0  0  0  0
   37.5030   30.3580   48.7050 C   0  0  0  0  0  0  0  0  0  0  0  0
   36.3780   29.6070   48.7610 N   0  0  0  0  0  0  0  0  0  0  0  0
   35.8290   29.2500   49.9460 C   0  0  0  0  0  0  0  0  0  0  0  0
   36.3970   29.6410   51.0800 N   0  0  0  0  0  0  0  0  0  0  0  0
   37.9800   30.7070   52.0400 H   0  0  0  0  0  0  0  0  0  0  0  0
   39.0110   31.3770   49.8640 H   0  0  0  0  0  0  0  0  0  0  0  0
   37.9310   30.6350   47.7370 H   0  0  0  0  0  0  0  0  0  0  0  0
  1  5  2  0  0  0  0
  2  3  2  0  0  0  0
  2  1  1  0  0  0  0
  3  4  1  0  0  0  0
  4  5  1  0  0  0  0
  4  8  1  0  0  0  0
  6  2  1  0  0  0  0
  7  3  1  0  0  0  0
  8  9  1  0  0  0  0
  9 10  1  0  0  0  0
  9 11  2  0  0  0  0
 12 11  1  0  0  0  0
 13 12  2  0  0  0  0
 14 13  1  0  0  0  0
 15 14  2  0  0  0  0
 16 17  2  0  0  0  0
 16 15  1  0  0  0  0
 17 18  1  0  0  0  0
 18  8  2  0  0  0  0
 18 13  1  0  0  0  0
 19  1  1  0  0  0  0
 19 22  1  0  0  0  0
 20 19  1  0  0  0  0
 21 19  1  0  0  0  0
 22 29  1  0  0  0  0
 22 24  1  0  0  0  0
 22 23  1  0  0  0  0
 25 31  1  0  0  0  0
 26 25  2  0  0  0  0
 27 28  2  0  0  0  0
 27 26  1  0  0  0  0
 28 29  1  0  0  0  0
 29 30  2  0  0  0  0
 30 25  1  0  0  0  0
 32 26  1  0  0  0  0
 33 27  1  0  0  0  0
M  END
>  <minimizedAffinity>
-7.16901064

>  <minimizedRMSD>
3.77945924

$$$$
