
 OpenBabel03272507163D

 28 31  0  0  1  0  0  0  0  0999 V2000
   36.2650   31.2160   49.9960 C   0  0  1  0  0  0  0  0  0  0  0  0
   35.2400   30.2590   49.6290 C   0  0  2  0  0  0  0  0  0  0  0  0
   36.4770   29.7390   50.3390 C   0  0  0  0  0  0  0  0  0  0  0  0
   36.1170   31.8450   50.9110 H   0  0  0  0  0  0  0  0  0  0  0  0
   34.2810   30.2670   50.2080 H   0  0  0  0  0  0  0  0  0  0  0  0
   37.2100   29.1500   49.7650 H   0  0  0  0  0  0  0  0  0  0  0  0
   36.2980   29.4420   51.3870 H   0  0  0  0  0  0  0  0  0  0  0  0
   37.2700   31.7060   48.9760 C   0  0  0  0  0  0  0  0  0  0  0  0
   38.1320   32.7210   49.3910 C   0  0  0  0  0  0  0  0  0  0  0  0
   39.0290   33.1740   48.4390 C   0  0  0  0  0  0  0  0  0  0  0  0
   39.0310   32.6280   47.1790 N   0  0  0  0  0  0  0  0  0  0  0  0
   38.1760   31.6410   46.8120 C   0  0  0  0  0  0  0  0  0  0  0  0
   37.2870   31.1800   47.7250 N   0  0  0  0  0  0  0  0  0  0  0  0
   38.0650   33.0970   50.4030 H   0  0  0  0  0  0  0  0  0  0  0  0
   39.7210   33.9600   48.7090 H   0  0  0  0  0  0  0  0  0  0  0  0
   38.2280   31.2540   45.8040 H   0  0  0  0  0  0  0  0  0  0  0  0
   35.1130   29.8560   48.3110 O   0  0  0  0  0  0  0  0  0  0  0  0
   34.2420   28.8550   47.9470 C   0  0  0  0  0  0  0  0  0  0  0  0
   34.1640   27.5320   48.2990 C   0  0  0  0  0  0  0  0  0  0  0  0
   34.9130   27.1960   48.9860 H   0  0  0  0  0  0  0  0  0  0  0  0
   33.2120   26.6650   47.8310 C   0  0  0  0  0  3  0  0  0  0  0  0
   32.2550   27.0810   46.9560 C   0  0  0  0  0  3  0  0  0  0  0  0
   32.2820   28.4030   46.5640 C   0  0  0  0  0  0  0  0  0  0  0  0
   31.3000   28.7910   45.6760 C   0  0  0  0  0  3  0  0  0  0  0  0
   31.2630   30.0970   45.2370 C   0  0  0  0  0  3  0  0  0  0  0  0
   32.2040   30.9960   45.6880 C   0  0  0  0  0  3  0  0  0  0  0  0
   33.1600   30.5480   46.5720 C   0  0  0  0  0  3  0  0  0  0  0  0
   33.2480   29.2570   47.0470 C   0  0  0  0  0  0  0  0  0  0  0  0
  1  3  1  0  0  0  0
  1  4  1  1  0  0  0
  2  1  1  0  0  0  0
  2  5  1  1  0  0  0
  2  3  1  0  0  0  0
  3  7  1  0  0  0  0
  6  3  1  0  0  0  0
  8  9  1  0  0  0  0
  8  1  1  0  0  0  0
  9 14  1  0  0  0  0
 10 15  1  0  0  0  0
 10  9  2  0  0  0  0
 11 10  1  0  0  0  0
 12 11  2  0  0  0  0
 12 13  1  0  0  0  0
 13  8  2  0  0  0  0
 16 12  1  0  0  0  0
 17  2  1  0  0  0  0
 18 19  1  0  0  0  0
 18 17  1  0  0  0  0
 19 20  1  0  0  0  0
 21 19  2  0  0  0  0
 22 21  1  0  0  0  0
 23 22  2  0  0  0  0
 23 28  1  0  0  0  0
 24 23  1  0  0  0  0
 25 24  2  0  0  0  0
 25 26  1  0  0  0  0
 26 27  2  0  0  0  0
 27 28  1  0  0  0  0
 28 18  2  0  0  0  0
M  END
>  <minimizedAffinity>
-5.48377275

>  <minimizedRMSD>
1.9584614

$$$$
