
 OpenBabel03272509563D

 45 49  0  0  0  0  0  0  0  0999 V2000
   37.3410   26.5840   34.0020 C   0  0  0  0  0  0  0  0  0  0  0  0
   37.0210   27.3250   34.7530 H   0  0  0  0  0  0  0  0  0  0  0  0
   36.5920   25.7590   34.0190 H   0  0  0  0  0  0  0  0  0  0  0  0
   37.3860   27.1140   32.6080 C   0  0  0  0  0  0  0  0  0  0  0  0
   38.4380   27.3890   32.3740 H   0  0  0  0  0  0  0  0  0  0  0  0
   37.0850   26.3750   31.8410 H   0  0  0  0  0  0  0  0  0  0  0  0
   36.5910   28.3640   32.4370 C   0  0  0  0  0  0  0  0  0  0  0  0
   36.2970   28.8010   31.1670 C   0  0  0  0  0  0  0  0  0  0  0  0
   35.5880   29.9370   30.9580 C   0  0  0  0  0  0  0  0  0  0  0  0
   35.1670   30.6430   31.9820 N   0  0  0  0  0  0  0  0  0  0  0  0
   35.4370   30.2410   33.2480 C   0  0  0  0  0  0  0  0  0  0  0  0
   36.1470   29.1050   33.4590 N   0  0  0  0  0  0  0  0  0  0  0  0
   36.6500   28.2130   30.3390 H   0  0  0  0  0  0  0  0  0  0  0  0
   35.3360   30.3160   29.9760 H   0  0  0  0  0  0  0  0  0  0  0  0
   35.0770   30.8540   34.5410 C   0  0  0  0  0  0  0  0  0  0  0  0
   35.8560   31.7770   35.2070 C   0  0  0  0  0  0  0  0  0  0  0  0
   36.8090   32.0800   34.7460 H   0  0  0  0  0  0  0  0  0  0  0  0
   35.5290   32.3500   36.4060 C   0  0  0  0  0  3  0  0  0  0  0  0
   34.3540   32.0140   37.0320 C   0  0  0  0  0  3  0  0  0  0  0  0
   33.5360   31.0990   36.4170 C   0  0  0  0  0  0  0  0  0  0  0  0
   32.3730   30.8010   37.0900 C   0  0  0  0  0  3  0  0  0  0  0  0
   31.4900   29.8920   36.5480 C   0  0  0  0  0  3  0  0  0  0  0  0
   31.8380   29.3180   35.3250 C   0  0  0  0  0  3  0  0  0  0  0  0
   33.0160   29.6650   34.7140 C   0  0  0  0  0  3  0  0  0  0  0  0
   33.9180   30.5650   35.2260 C   0  0  0  0  0  0  0  0  0  0  0  0
   38.5830   25.9580   34.3450 O   0  0  0  0  0  0  0  0  0  0  0  0
   39.0080   23.0130   36.3730 C   0  0  0  0  0  0  0  0  0  0  0  0
   38.3030   22.0580   35.5860 C   0  0  0  0  0  0  0  0  0  0  0  0
   37.7370   22.5110   34.4130 C   0  0  0  0  0  0  0  0  0  0  0  0
   37.9000   23.8340   34.1110 N   0  0  0  0  0  0  0  0  0  0  0  0
   38.5650   24.7040   34.8680 C   0  0  0  0  0  0  0  0  0  0  0  0
   39.1240   24.2820   36.0140 N   0  0  0  0  0  0  0  0  0  0  0  0
   39.4460   22.6250   37.2970 H   0  0  0  0  0  0  0  0  0  0  0  0
   38.1820   21.0230   35.8340 H   0  0  0  0  0  0  0  0  0  0  0  0
   35.5140   20.7440   34.9640 F   0  0  0  0  0  0  0  0  0  0  0  0
   35.9500   20.8670   33.7090 C   0  0  0  0  0  0  0  0  0  0  0  0
   36.9840   21.6970   33.4770 C   0  0  0  0  0  0  0  0  0  0  0  0
   37.3550   21.7470   32.1270 C   0  0  0  0  0  0  0  0  0  0  0  0
   36.7270   21.0220   31.1440 C   0  0  0  0  0  0  0  0  0  0  0  0
   35.6830   20.1960   31.4370 C   0  0  0  0  0  0  0  0  0  0  0  0
   35.2850   20.1180   32.7590 C   0  0  0  0  0  0  0  0  0  0  0  0
   38.1780   22.3760   31.7800 H   0  0  0  0  0  0  0  0  0  0  0  0
   37.0370   21.0820   30.1080 H   0  0  0  0  0  0  0  0  0  0  0  0
   35.1800   19.6240   30.6880 H   0  0  0  0  0  0  0  0  0  0  0  0
   34.4640   19.4750   33.0220 H   0  0  0  0  0  0  0  0  0  0  0  0
  1  3  1  0  0  0  0
  1 26  1  0  0  0  0
  1  2  1  0  0  0  0
  4  1  1  0  0  0  0
  5  4  1  0  0  0  0
  6  4  1  0  0  0  0
  7  4  1  0  0  0  0
  7 12  1  0  0  0  0
  8  7  2  0  0  0  0
  9  8  1  0  0  0  0
  9 10  2  0  0  0  0
 10 11  1  0  0  0  0
 11 12  2  0  0  0  0
 11 15  1  0  0  0  0
 13  8  1  0  0  0  0
 14  9  1  0  0  0  0
 15 16  2  0  0  0  0
 15 25  1  0  0  0  0
 16 18  1  0  0  0  0
 17 16  1  0  0  0  0
 18 19  2  0  0  0  0
 20 19  1  0  0  0  0
 20 21  1  0  0  0  0
 22 21  2  0  0  0  0
 23 22  1  0  0  0  0
 24 25  1  0  0  0  0
 24 23  2  0  0  0  0
 25 20  2  0  0  0  0
 26 31  1  0  0  0  0
 27 33  1  0  0  0  0
 28 34  1  0  0  0  0
 28 27  2  0  0  0  0
 29 28  1  0  0  0  0
 30 29  2  0  0  0  0
 30 31  1  0  0  0  0
 31 32  2  0  0  0  0
 32 27  1  0  0  0  0
 36 35  1  0  0  0  0
 37 36  1  0  0  0  0
 37 29  1  0  0  0  0
 38 37  2  0  0  0  0
 39 40  2  0  0  0  0
 39 38  1  0  0  0  0
 40 41  1  0  0  0  0
 41 45  1  0  0  0  0
 41 36  2  0  0  0  0
 42 38  1  0  0  0  0
 43 39  1  0  0  0  0
 44 40  1  0  0  0  0
M  END
>  <minimizedAffinity>
-7.24252605

$$$$

 OpenBabel03272509563D

 45 49  0  0  0  0  0  0  0  0999 V2000
   37.3050   26.3570   33.9130 C   0  0  0  0  0  0  0  0  0  0  0  0
   36.7190   26.9940   34.5940 H   0  0  0  0  0  0  0  0  0  0  0  0
   36.7030   25.4360   33.7300 H   0  0  0  0  0  0  0  0  0  0  0  0
   37.5790   26.9780   32.5860 C   0  0  0  0  0  0  0  0  0  0  0  0
   38.6040   27.4090   32.6080 H   0  0  0  0  0  0  0  0  0  0  0  0
   37.5690   26.2580   31.7450 H   0  0  0  0  0  0  0  0  0  0  0  0
   36.6660   28.1170   32.2780 C   0  0  0  0  0  0  0  0  0  0  0  0
   36.8090   28.7840   31.0860 C   0  0  0  0  0  0  0  0  0  0  0  0
   36.0110   29.8330   30.7650 C   0  0  0  0  0  0  0  0  0  0  0  0
   35.0800   30.2270   31.6020 N   0  0  0  0  0  0  0  0  0  0  0  0
   34.9100   29.5900   32.7870 C   0  0  0  0  0  0  0  0  0  0  0  0
   35.7080   28.5410   33.1100 N   0  0  0  0  0  0  0  0  0  0  0  0
   37.5760   28.4510   30.4110 H   0  0  0  0  0  0  0  0  0  0  0  0
   36.0900   30.3860   29.8380 H   0  0  0  0  0  0  0  0  0  0  0  0
   33.9480   29.8420   33.8760 C   0  0  0  0  0  0  0  0  0  0  0  0
   32.6940   29.2740   33.9540 C   0  0  0  0  0  0  0  0  0  0  0  0
   32.3860   28.5850   33.1510 H   0  0  0  0  0  0  0  0  0  0  0  0
   31.7960   29.5030   34.9610 C   0  0  0  0  0  3  0  0  0  0  0  0
   32.1200   30.3520   35.9900 C   0  0  0  0  0  3  0  0  0  0  0  0
   33.3560   30.9480   35.9690 C   0  0  0  0  0  0  0  0  0  0  0  0
   33.6240   31.7880   37.0260 C   0  0  0  0  0  3  0  0  0  0  0  0
   34.8420   32.4320   37.0880 C   0  0  0  0  0  3  0  0  0  0  0  0
   35.7460   32.1870   36.0530 C   0  0  0  0  0  3  0  0  0  0  0  0
   35.4050   31.3360   35.0330 C   0  0  0  0  0  3  0  0  0  0  0  0
   34.2030   30.6800   34.9390 C   0  0  0  0  0  0  0  0  0  0  0  0
   38.5190   25.8860   34.5120 O   0  0  0  0  0  0  0  0  0  0  0  0
   39.1730   22.8590   36.3490 C   0  0  0  0  0  0  0  0  0  0  0  0
   38.4440   21.9220   35.5620 C   0  0  0  0  0  0  0  0  0  0  0  0
   37.7850   22.4140   34.4560 C   0  0  0  0  0  0  0  0  0  0  0  0
   37.8860   23.7550   34.2130 N   0  0  0  0  0  0  0  0  0  0  0  0
   38.5750   24.6070   34.9680 C   0  0  0  0  0  0  0  0  0  0  0  0
   39.2260   24.1470   36.0500 N   0  0  0  0  0  0  0  0  0  0  0  0
   39.6860   22.4400   37.2200 H   0  0  0  0  0  0  0  0  0  0  0  0
   38.3720   20.8720   35.7630 H   0  0  0  0  0  0  0  0  0  0  0  0
   35.5450   20.6810   35.0460 F   0  0  0  0  0  0  0  0  0  0  0  0
   35.9510   20.8090   33.7820 C   0  0  0  0  0  0  0  0  0  0  0  0
   36.9930   21.6230   33.5310 C   0  0  0  0  0  0  0  0  0  0  0  0
   37.3310   21.6800   32.1730 C   0  0  0  0  0  0  0  0  0  0  0  0
   36.6650   20.9760   31.1990 C   0  0  0  0  0  0  0  0  0  0  0  0
   35.6140   20.1660   31.5110 C   0  0  0  0  0  0  0  0  0  0  0  0
   35.2490   20.0810   32.8420 C   0  0  0  0  0  0  0  0  0  0  0  0
   38.1560   22.2980   31.8110 H   0  0  0  0  0  0  0  0  0  0  0  0
   36.9490   21.0410   30.1560 H   0  0  0  0  0  0  0  0  0  0  0  0
   35.0830   19.6100   30.7700 H   0  0  0  0  0  0  0  0  0  0  0  0
   34.4240   19.4500   33.1190 H   0  0  0  0  0  0  0  0  0  0  0  0
  1 26  1  0  0  0  0
  1  2  1  0  0  0  0
  3  1  1  0  0  0  0
  4  5  1  0  0  0  0
  4  1  1  0  0  0  0
  6  4  1  0  0  0  0
  7  4  1  0  0  0  0
  7 12  1  0  0  0  0
  8  7  2  0  0  0  0
  9  8  1  0  0  0  0
  9 10  2  0  0  0  0
 10 11  1  0  0  0  0
 11 12  2  0  0  0  0
 11 15  1  0  0  0  0
 13  8  1  0  0  0  0
 14  9  1  0  0  0  0
 15 16  2  0  0  0  0
 15 25  1  0  0  0  0
 16 18  1  0  0  0  0
 17 16  1  0  0  0  0
 18 19  2  0  0  0  0
 20 19  1  0  0  0  0
 20 21  1  0  0  0  0
 21 22  2  0  0  0  0
 23 22  1  0  0  0  0
 24 23  2  0  0  0  0
 25 24  1  0  0  0  0
 25 20  2  0  0  0  0
 26 31  1  0  0  0  0
 27 33  1  0  0  0  0
 28 34  1  0  0  0  0
 28 27  2  0  0  0  0
 29 28  1  0  0  0  0
 30 29  2  0  0  0  0
 30 31  1  0  0  0  0
 31 32  2  0  0  0  0
 32 27  1  0  0  0  0
 36 35  1  0  0  0  0
 37 36  1  0  0  0  0
 37 29  1  0  0  0  0
 38 37  2  0  0  0  0
 39 40  2  0  0  0  0
 39 38  1  0  0  0  0
 40 41  1  0  0  0  0
 41 45  1  0  0  0  0
 41 36  2  0  0  0  0
 42 38  1  0  0  0  0
 43 39  1  0  0  0  0
 44 40  1  0  0  0  0
M  END
>  <minimizedAffinity>
-7.19761848

$$$$

 OpenBabel03272509563D

 45 49  0  0  0  0  0  0  0  0999 V2000
   35.8670   25.8800   31.7190 C   0  0  0  0  0  0  0  0  0  0  0  0
   35.1870   26.3520   30.9910 H   0  0  0  0  0  0  0  0  0  0  0  0
   35.2280   25.3560   32.4680 H   0  0  0  0  0  0  0  0  0  0  0  0
   36.7810   24.8630   31.1240 C   0  0  0  0  0  0  0  0  0  0  0  0
   36.3730   24.5650   30.1330 H   0  0  0  0  0  0  0  0  0  0  0  0
   37.8040   25.2400   30.9330 H   0  0  0  0  0  0  0  0  0  0  0  0
   36.8540   23.6080   31.9280 C   0  0  0  0  0  0  0  0  0  0  0  0
   35.8660   22.6640   31.7830 C   0  0  0  0  0  0  0  0  0  0  0  0
   35.8810   21.5120   32.4990 C   0  0  0  0  0  0  0  0  0  0  0  0
   36.8540   21.2840   33.3510 N   0  0  0  0  0  0  0  0  0  0  0  0
   37.8460   22.1930   33.5180 C   0  0  0  0  0  0  0  0  0  0  0  0
   37.8310   23.3470   32.8030 N   0  0  0  0  0  0  0  0  0  0  0  0
   35.0760   22.8650   31.0830 H   0  0  0  0  0  0  0  0  0  0  0  0
   35.1240   20.7430   32.4160 H   0  0  0  0  0  0  0  0  0  0  0  0
   39.0270   22.1650   34.3990 C   0  0  0  0  0  0  0  0  0  0  0  0
   40.2880   21.7740   33.9990 C   0  0  0  0  0  0  0  0  0  0  0  0
   40.4250   21.4630   32.9510 H   0  0  0  0  0  0  0  0  0  0  0  0
   41.3890   21.7450   34.8110 C   0  0  0  0  0  3  0  0  0  0  0  0
   41.2830   22.1210   36.1270 C   0  0  0  0  0  3  0  0  0  0  0  0
   40.0520   22.5210   36.5860 C   0  0  0  0  0  0  0  0  0  0  0  0
   40.0060   22.8870   37.9120 C   0  0  0  0  0  3  0  0  0  0  0  0
   38.8120   23.3010   38.4590 C   0  0  0  0  0  3  0  0  0  0  0  0
   37.6990   23.3260   37.6180 C   0  0  0  0  0  3  0  0  0  0  0  0
   37.8240   22.9460   36.3050 C   0  0  0  0  0  3  0  0  0  0  0  0
   38.9970   22.5270   35.7280 C   0  0  0  0  0  0  0  0  0  0  0  0
   36.6070   26.8430   32.4790 O   0  0  0  0  0  0  0  0  0  0  0  0
   36.3910   30.1550   31.0840 C   0  0  0  0  0  0  0  0  0  0  0  0
   35.8120   30.8560   32.1800 C   0  0  0  0  0  0  0  0  0  0  0  0
   35.5440   30.1240   33.3180 C   0  0  0  0  0  0  0  0  0  0  0  0
   35.8540   28.7930   33.2920 N   0  0  0  0  0  0  0  0  0  0  0  0
   36.3950   28.1650   32.2510 C   0  0  0  0  0  0  0  0  0  0  0  0
   36.6640   28.8610   31.1330 N   0  0  0  0  0  0  0  0  0  0  0  0
   36.5920   30.7610   30.1960 H   0  0  0  0  0  0  0  0  0  0  0  0
   35.5730   31.9010   32.1880 H   0  0  0  0  0  0  0  0  0  0  0  0
   32.8510   29.7680   34.3130 F   0  0  0  0  0  0  0  0  0  0  0  0
   33.7110   30.5040   35.0180 C   0  0  0  0  0  0  0  0  0  0  0  0
   34.9590   30.6530   34.5360 C   0  0  0  0  0  0  0  0  0  0  0  0
   35.7730   31.4440   35.3580 C   0  0  0  0  0  0  0  0  0  0  0  0
   35.3400   32.0080   36.5330 C   0  0  0  0  0  0  0  0  0  0  0  0
   34.0630   31.8220   36.9730 C   0  0  0  0  0  0  0  0  0  0  0  0
   33.2260   31.0480   36.1910 C   0  0  0  0  0  0  0  0  0  0  0  0
   36.8140   31.6570   35.1020 H   0  0  0  0  0  0  0  0  0  0  0  0
   35.9930   32.6140   37.1470 H   0  0  0  0  0  0  0  0  0  0  0  0
   33.7060   32.2510   37.8840 H   0  0  0  0  0  0  0  0  0  0  0  0
   32.2130   30.8830   36.5120 H   0  0  0  0  0  0  0  0  0  0  0  0
  1  3  1  0  0  0  0
  1 26  1  0  0  0  0
  2  1  1  0  0  0  0
  4  1  1  0  0  0  0
  4  7  1  0  0  0  0
  5  4  1  0  0  0  0
  6  4  1  0  0  0  0
  7 12  1  0  0  0  0
  8  7  2  0  0  0  0
  8  9  1  0  0  0  0
  9 10  2  0  0  0  0
 10 11  1  0  0  0  0
 11 15  1  0  0  0  0
 12 11  2  0  0  0  0
 13  8  1  0  0  0  0
 14  9  1  0  0  0  0
 15 25  1  0  0  0  0
 16 15  2  0  0  0  0
 16 18  1  0  0  0  0
 17 16  1  0  0  0  0
 18 19  2  0  0  0  0
 19 20  1  0  0  0  0
 20 21  1  0  0  0  0
 21 22  2  0  0  0  0
 23 22  1  0  0  0  0
 24 23  2  0  0  0  0
 25 24  1  0  0  0  0
 25 20  2  0  0  0  0
 27 32  2  0  0  0  0
 27 28  1  0  0  0  0
 28 34  1  0  0  0  0
 28 29  2  0  0  0  0
 29 37  1  0  0  0  0
 30 29  1  0  0  0  0
 31 26  1  0  0  0  0
 31 30  2  0  0  0  0
 32 31  1  0  0  0  0
 33 27  1  0  0  0  0
 35 36  1  0  0  0  0
 36 41  1  0  0  0  0
 37 36  2  0  0  0  0
 37 38  1  0  0  0  0
 38 39  2  0  0  0  0
 39 40  1  0  0  0  0
 39 43  1  0  0  0  0
 40 44  1  0  0  0  0
 41 45  1  0  0  0  0
 41 40  2  0  0  0  0
 42 38  1  0  0  0  0
M  END
>  <minimizedAffinity>
-7.1582303

$$$$

 OpenBabel03272509563D

 45 49  0  0  0  0  0  0  0  0999 V2000
   37.8660   26.6750   35.4520 C   0  0  0  0  0  0  0  0  0  0  0  0
   38.7990   27.2280   35.6460 H   0  0  0  0  0  0  0  0  0  0  0  0
   37.0550   27.2020   36.0080 H   0  0  0  0  0  0  0  0  0  0  0  0
   37.4690   26.6410   34.0150 C   0  0  0  0  0  0  0  0  0  0  0  0
   38.3920   26.5430   33.4020 H   0  0  0  0  0  0  0  0  0  0  0  0
   36.8310   25.7760   33.7490 H   0  0  0  0  0  0  0  0  0  0  0  0
   36.8130   27.9020   33.5630 C   0  0  0  0  0  0  0  0  0  0  0  0
   36.8700   28.2470   32.2340 C   0  0  0  0  0  0  0  0  0  0  0  0
   36.2990   29.3880   31.7770 C   0  0  0  0  0  0  0  0  0  0  0  0
   35.6770   30.1890   32.6100 N   0  0  0  0  0  0  0  0  0  0  0  0
   35.5990   29.8790   33.9280 C   0  0  0  0  0  0  0  0  0  0  0  0
   36.1710   28.7370   34.3880 N   0  0  0  0  0  0  0  0  0  0  0  0
   37.3850   27.5820   31.5640 H   0  0  0  0  0  0  0  0  0  0  0  0
   36.3220   29.6970   30.7390 H   0  0  0  0  0  0  0  0  0  0  0  0
   34.9640   30.6060   35.0430 C   0  0  0  0  0  0  0  0  0  0  0  0
   35.6120   31.5220   35.8450 C   0  0  0  0  0  0  0  0  0  0  0  0
   36.6750   31.7280   35.6410 H   0  0  0  0  0  0  0  0  0  0  0  0
   35.0290   32.1990   36.8810 C   0  0  0  0  0  3  0  0  0  0  0  0
   33.7080   31.9860   37.1850 C   0  0  0  0  0  3  0  0  0  0  0  0
   33.0080   31.0850   36.4220 C   0  0  0  0  0  0  0  0  0  0  0  0
   31.6890   30.9120   36.7740 C   0  0  0  0  0  3  0  0  0  0  0  0
   30.9090   30.0260   36.0630 C   0  0  0  0  0  3  0  0  0  0  0  0
   31.5180   29.3430   35.0090 C   0  0  0  0  0  3  0  0  0  0  0  0
   32.8390   29.5690   34.7200 C   0  0  0  0  0  3  0  0  0  0  0  0
   33.6450   30.4430   35.4060 C   0  0  0  0  0  0  0  0  0  0  0  0
   37.8880   25.3530   36.0030 O   0  0  0  0  0  0  0  0  0  0  0  0
   40.3190   23.1040   34.5890 C   0  0  0  0  0  0  0  0  0  0  0  0
   39.4690   22.2640   33.8150 C   0  0  0  0  0  0  0  0  0  0  0  0
   38.1190   22.5460   33.8420 C   0  0  0  0  0  0  0  0  0  0  0  0
   37.7170   23.6010   34.6110 N   0  0  0  0  0  0  0  0  0  0  0  0
   38.5360   24.3690   35.3260 C   0  0  0  0  0  0  0  0  0  0  0  0
   39.8550   24.1110   35.3110 N   0  0  0  0  0  0  0  0  0  0  0  0
   41.3840   22.8570   34.5470 H   0  0  0  0  0  0  0  0  0  0  0  0
   39.7970   21.4390   33.2150 H   0  0  0  0  0  0  0  0  0  0  0  0
   37.4500   22.6960   31.0320 F   0  0  0  0  0  0  0  0  0  0  0  0
   36.7630   21.8660   31.8190 C   0  0  0  0  0  0  0  0  0  0  0  0
   37.0950   21.8110   33.1230 C   0  0  0  0  0  0  0  0  0  0  0  0
   36.3090   20.9080   33.8510 C   0  0  0  0  0  0  0  0  0  0  0  0
   35.3060   20.1570   33.2890 C   0  0  0  0  0  0  0  0  0  0  0  0
   35.0140   20.2530   31.9600 C   0  0  0  0  0  0  0  0  0  0  0  0
   35.7660   21.1340   31.2060 C   0  0  0  0  0  0  0  0  0  0  0  0
   36.4570   20.7510   34.9210 H   0  0  0  0  0  0  0  0  0  0  0  0
   34.7160   19.4660   33.8780 H   0  0  0  0  0  0  0  0  0  0  0  0
   34.2380   19.6790   31.5040 H   0  0  0  0  0  0  0  0  0  0  0  0
   35.5590   21.2330   30.1550 H   0  0  0  0  0  0  0  0  0  0  0  0
  1  2  1  0  0  0  0
  1 26  1  0  0  0  0
  1  3  1  0  0  0  0
  4  1  1  0  0  0  0
  5  4  1  0  0  0  0
  6  4  1  0  0  0  0
  7  4  1  0  0  0  0
  7 12  1  0  0  0  0
  8  7  2  0  0  0  0
  9  8  1  0  0  0  0
  9 10  2  0  0  0  0
 10 11  1  0  0  0  0
 11 12  2  0  0  0  0
 11 15  1  0  0  0  0
 13  8  1  0  0  0  0
 14  9  1  0  0  0  0
 15 25  2  0  0  0  0
 15 16  1  0  0  0  0
 16 18  2  0  0  0  0
 17 16  1  0  0  0  0
 18 19  1  0  0  0  0
 20 21  1  0  0  0  0
 20 19  2  0  0  0  0
 22 21  2  0  0  0  0
 23 22  1  0  0  0  0
 24 23  2  0  0  0  0
 24 25  1  0  0  0  0
 25 20  1  0  0  0  0
 27 32  1  0  0  0  0
 28 29  1  0  0  0  0
 28 27  2  0  0  0  0
 29 30  2  0  0  0  0
 30 31  1  0  0  0  0
 31 26  1  0  0  0  0
 32 31  2  0  0  0  0
 33 27  1  0  0  0  0
 34 28  1  0  0  0  0
 35 36  1  0  0  0  0
 36 37  1  0  0  0  0
 37 29  1  0  0  0  0
 37 38  2  0  0  0  0
 38 42  1  0  0  0  0
 39 38  1  0  0  0  0
 39 43  1  0  0  0  0
 40 39  2  0  0  0  0
 41 36  2  0  0  0  0
 41 40  1  0  0  0  0
 44 40  1  0  0  0  0
 45 41  1  0  0  0  0
M  END
>  <minimizedAffinity>
-7.06488991

$$$$

 OpenBabel03272509563D

 45 49  0  0  0  0  0  0  0  0999 V2000
   37.3550   25.7790   30.8550 C   0  0  0  0  0  0  0  0  0  0  0  0
   37.4390   24.9400   30.1450 H   0  0  0  0  0  0  0  0  0  0  0  0
   37.9240   26.6330   30.4180 H   0  0  0  0  0  0  0  0  0  0  0  0
   35.9570   26.2460   31.0800 C   0  0  0  0  0  0  0  0  0  0  0  0
   35.3860   26.1020   30.1370 H   0  0  0  0  0  0  0  0  0  0  0  0
   35.4150   25.6720   31.8560 H   0  0  0  0  0  0  0  0  0  0  0  0
   35.8740   27.7030   31.3880 C   0  0  0  0  0  0  0  0  0  0  0  0
   36.6940   28.5760   30.7140 C   0  0  0  0  0  0  0  0  0  0  0  0
   36.6640   29.9080   30.9660 C   0  0  0  0  0  0  0  0  0  0  0  0
   35.8400   30.3850   31.8700 N   0  0  0  0  0  0  0  0  0  0  0  0
   35.0160   29.5520   32.5520 C   0  0  0  0  0  0  0  0  0  0  0  0
   35.0440   28.2190   32.3020 N   0  0  0  0  0  0  0  0  0  0  0  0
   37.3640   28.1710   29.9780 H   0  0  0  0  0  0  0  0  0  0  0  0
   37.2930   30.6290   30.4600 H   0  0  0  0  0  0  0  0  0  0  0  0
   34.0170   29.8440   33.5980 C   0  0  0  0  0  0  0  0  0  0  0  0
   32.7120   29.4010   33.5720 C   0  0  0  0  0  0  0  0  0  0  0  0
   32.3890   28.7880   32.7160 H   0  0  0  0  0  0  0  0  0  0  0  0
   31.7800   29.6690   34.5380 C   0  0  0  0  0  3  0  0  0  0  0  0
   32.1190   30.4280   35.6300 C   0  0  0  0  0  3  0  0  0  0  0  0
   33.4070   30.8980   35.7120 C   0  0  0  0  0  0  0  0  0  0  0  0
   33.6890   31.6530   36.8290 C   0  0  0  0  0  3  0  0  0  0  0  0
   34.9560   32.1680   36.9950 C   0  0  0  0  0  3  0  0  0  0  0  0
   35.8950   31.8860   36.0010 C   0  0  0  0  0  3  0  0  0  0  0  0
   35.5370   31.1250   34.9170 C   0  0  0  0  0  3  0  0  0  0  0  0
   34.2850   30.5980   34.7190 C   0  0  0  0  0  0  0  0  0  0  0  0
   38.0050   25.5060   32.1030 O   0  0  0  0  0  0  0  0  0  0  0  0
   37.5650   21.9780   32.6710 C   0  0  0  0  0  0  0  0  0  0  0  0
   37.8460   21.9080   34.0650 C   0  0  0  0  0  0  0  0  0  0  0  0
   38.1650   23.0900   34.6990 C   0  0  0  0  0  0  0  0  0  0  0  0
   38.1850   24.2230   33.9340 N   0  0  0  0  0  0  0  0  0  0  0  0
   37.9180   24.2570   32.6310 C   0  0  0  0  0  0  0  0  0  0  0  0
   37.6040   23.1150   31.9950 N   0  0  0  0  0  0  0  0  0  0  0  0
   37.3150   21.0250   32.1960 H   0  0  0  0  0  0  0  0  0  0  0  0
   37.8270   21.0130   34.6540 H   0  0  0  0  0  0  0  0  0  0  0  0
   36.6900   24.5270   36.7310 F   0  0  0  0  0  0  0  0  0  0  0  0
   37.8130   23.8910   37.0710 C   0  0  0  0  0  0  0  0  0  0  0  0
   38.4800   23.2270   36.1090 C   0  0  0  0  0  0  0  0  0  0  0  0
   39.6410   22.6000   36.5800 C   0  0  0  0  0  0  0  0  0  0  0  0
   40.0530   22.6570   37.8890 C   0  0  0  0  0  0  0  0  0  0  0  0
   39.3350   23.3450   38.8220 C   0  0  0  0  0  0  0  0  0  0  0  0
   38.1820   23.9800   38.3980 C   0  0  0  0  0  0  0  0  0  0  0  0
   40.2900   22.0210   35.9180 H   0  0  0  0  0  0  0  0  0  0  0  0
   40.9540   22.1610   38.2230 H   0  0  0  0  0  0  0  0  0  0  0  0
   39.6370   23.4020   39.8450 H   0  0  0  0  0  0  0  0  0  0  0  0
   37.5950   24.5300   39.1110 H   0  0  0  0  0  0  0  0  0  0  0  0
  1  4  1  0  0  0  0
  1 26  1  0  0  0  0
  2  1  1  0  0  0  0
  3  1  1  0  0  0  0
  4  7  1  0  0  0  0
  4  6  1  0  0  0  0
  5  4  1  0  0  0  0
  7 12  1  0  0  0  0
  8  9  1  0  0  0  0
  8  7  2  0  0  0  0
  9 10  2  0  0  0  0
 10 11  1  0  0  0  0
 11 15  1  0  0  0  0
 12 11  2  0  0  0  0
 13  8  1  0  0  0  0
 14  9  1  0  0  0  0
 15 25  1  0  0  0  0
 16 15  2  0  0  0  0
 16 18  1  0  0  0  0
 17 16  1  0  0  0  0
 18 19  2  0  0  0  0
 19 20  1  0  0  0  0
 20 21  1  0  0  0  0
 21 22  2  0  0  0  0
 23 22  1  0  0  0  0
 24 23  2  0  0  0  0
 25 24  1  0  0  0  0
 25 20  2  0  0  0  0
 26 31  1  0  0  0  0
 27 28  1  0  0  0  0
 28 34  1  0  0  0  0
 28 29  2  0  0  0  0
 29 37  1  0  0  0  0
 30 29  1  0  0  0  0
 31 30  2  0  0  0  0
 32 31  1  0  0  0  0
 32 27  2  0  0  0  0
 33 27  1  0  0  0  0
 35 36  1  0  0  0  0
 36 41  1  0  0  0  0
 37 38  1  0  0  0  0
 37 36  2  0  0  0  0
 38 39  2  0  0  0  0
 39 43  1  0  0  0  0
 39 40  1  0  0  0  0
 40 44  1  0  0  0  0
 41 40  2  0  0  0  0
 41 45  1  0  0  0  0
 42 38  1  0  0  0  0
M  END
>  <minimizedAffinity>
-6.9974432

$$$$

 OpenBabel03272509563D

 45 49  0  0  0  0  0  0  0  0999 V2000
   36.1760   25.7540   31.6860 C   0  0  0  0  0  0  0  0  0  0  0  0
   35.7260   26.1910   30.7800 H   0  0  0  0  0  0  0  0  0  0  0  0
   35.3820   25.1530   32.1870 H   0  0  0  0  0  0  0  0  0  0  0  0
   37.3200   24.8370   31.4130 C   0  0  0  0  0  0  0  0  0  0  0  0
   37.2390   24.4840   30.3610 H   0  0  0  0  0  0  0  0  0  0  0  0
   38.3110   25.3240   31.4970 H   0  0  0  0  0  0  0  0  0  0  0  0
   37.2940   23.6090   32.2580 C   0  0  0  0  0  0  0  0  0  0  0  0
   36.7490   22.4560   31.7450 C   0  0  0  0  0  0  0  0  0  0  0  0
   36.6910   21.3170   32.4770 C   0  0  0  0  0  0  0  0  0  0  0  0
   37.1620   21.3020   33.7030 N   0  0  0  0  0  0  0  0  0  0  0  0
   37.7090   22.4200   34.2400 C   0  0  0  0  0  0  0  0  0  0  0  0
   37.7670   23.5620   33.5080 N   0  0  0  0  0  0  0  0  0  0  0  0
   36.3650   22.4840   30.7410 H   0  0  0  0  0  0  0  0  0  0  0  0
   36.2690   20.3890   32.1120 H   0  0  0  0  0  0  0  0  0  0  0  0
   38.2970   22.6490   35.5730 C   0  0  0  0  0  0  0  0  0  0  0  0
   37.5940   23.1160   36.6640 C   0  0  0  0  0  0  0  0  0  0  0  0
   36.5210   23.3320   36.5350 H   0  0  0  0  0  0  0  0  0  0  0  0
   38.1320   23.3310   37.9030 C   0  0  0  0  0  3  0  0  0  0  0  0
   39.4630   23.0800   38.1280 C   0  0  0  0  0  3  0  0  0  0  0  0
   40.2160   22.6130   37.0790 C   0  0  0  0  0  0  0  0  0  0  0  0
   41.5430   22.3800   37.3640 C   0  0  0  0  0  3  0  0  0  0  0  0
   42.3760   21.9100   36.3710 C   0  0  0  0  0  3  0  0  0  0  0  0
   41.8110   21.6960   35.1140 C   0  0  0  0  0  3  0  0  0  0  0  0
   40.4790   21.9520   34.9070 C   0  0  0  0  0  3  0  0  0  0  0  0
   39.6220   22.4210   35.8720 C   0  0  0  0  0  0  0  0  0  0  0  0
   36.5440   26.7500   32.6490 O   0  0  0  0  0  0  0  0  0  0  0  0
   36.2300   29.9880   31.1060 C   0  0  0  0  0  0  0  0  0  0  0  0
   35.6880   30.7350   32.1900 C   0  0  0  0  0  0  0  0  0  0  0  0
   35.4760   30.0570   33.3720 C   0  0  0  0  0  0  0  0  0  0  0  0
   35.8020   28.7300   33.3970 N   0  0  0  0  0  0  0  0  0  0  0  0
   36.3070   28.0580   32.3660 C   0  0  0  0  0  0  0  0  0  0  0  0
   36.5210   28.7010   31.2060 N   0  0  0  0  0  0  0  0  0  0  0  0
   36.3880   30.5520   30.1820 H   0  0  0  0  0  0  0  0  0  0  0  0
   35.4370   31.7760   32.1570 H   0  0  0  0  0  0  0  0  0  0  0  0
   32.8270   29.7330   34.4870 F   0  0  0  0  0  0  0  0  0  0  0  0
   33.7090   30.5050   35.1230 C   0  0  0  0  0  0  0  0  0  0  0  0
   34.9360   30.6390   34.5870 C   0  0  0  0  0  0  0  0  0  0  0  0
   35.7760   31.4710   35.3390 C   0  0  0  0  0  0  0  0  0  0  0  0
   35.3850   32.0860   36.5030 C   0  0  0  0  0  0  0  0  0  0  0  0
   34.1270   31.9140   37.0010 C   0  0  0  0  0  0  0  0  0  0  0  0
   33.2660   31.1000   36.2880 C   0  0  0  0  0  0  0  0  0  0  0  0
   36.8040   31.6770   35.0320 H   0  0  0  0  0  0  0  0  0  0  0  0
   36.0570   32.7230   37.0620 H   0  0  0  0  0  0  0  0  0  0  0  0
   33.8020   32.3820   37.9040 H   0  0  0  0  0  0  0  0  0  0  0  0
   32.2670   30.9450   36.6550 H   0  0  0  0  0  0  0  0  0  0  0  0
  1  3  1  0  0  0  0
  1 26  1  0  0  0  0
  2  1  1  0  0  0  0
  4  6  1  0  0  0  0
  4  1  1  0  0  0  0
  4  7  1  0  0  0  0
  5  4  1  0  0  0  0
  7 12  1  0  0  0  0
  8  7  2  0  0  0  0
  8  9  1  0  0  0  0
  9 10  2  0  0  0  0
 10 11  1  0  0  0  0
 11 15  1  0  0  0  0
 12 11  2  0  0  0  0
 13  8  1  0  0  0  0
 14  9  1  0  0  0  0
 15 25  2  0  0  0  0
 15 16  1  0  0  0  0
 16 18  2  0  0  0  0
 17 16  1  0  0  0  0
 18 19  1  0  0  0  0
 20 21  1  0  0  0  0
 20 19  2  0  0  0  0
 22 21  2  0  0  0  0
 23 22  1  0  0  0  0
 24 23  2  0  0  0  0
 24 25  1  0  0  0  0
 25 20  1  0  0  0  0
 27 32  2  0  0  0  0
 27 28  1  0  0  0  0
 28 29  2  0  0  0  0
 29 30  1  0  0  0  0
 29 37  1  0  0  0  0
 31 26  1  0  0  0  0
 31 30  2  0  0  0  0
 32 31  1  0  0  0  0
 33 27  1  0  0  0  0
 34 28  1  0  0  0  0
 35 36  1  0  0  0  0
 36 41  1  0  0  0  0
 37 36  2  0  0  0  0
 37 38  1  0  0  0  0
 38 39  2  0  0  0  0
 39 40  1  0  0  0  0
 39 43  1  0  0  0  0
 40 44  1  0  0  0  0
 41 45  1  0  0  0  0
 41 40  2  0  0  0  0
 42 38  1  0  0  0  0
M  END
>  <minimizedAffinity>
-6.99500608

$$$$

 OpenBabel03272509563D

 45 49  0  0  0  0  0  0  0  0999 V2000
   36.2510   21.6760   32.6530 C   0  0  0  0  0  0  0  0  0  0  0  0
   36.3300   22.3320   33.5350 H   0  0  0  0  0  0  0  0  0  0  0  0
   35.4300   20.9490   32.8610 H   0  0  0  0  0  0  0  0  0  0  0  0
   35.9000   22.3920   31.3930 C   0  0  0  0  0  0  0  0  0  0  0  0
   36.6730   22.1530   30.6300 H   0  0  0  0  0  0  0  0  0  0  0  0
   34.9320   22.0790   30.9560 H   0  0  0  0  0  0  0  0  0  0  0  0
   35.9230   23.8760   31.5430 C   0  0  0  0  0  0  0  0  0  0  0  0
   35.1490   24.6440   30.7070 C   0  0  0  0  0  0  0  0  0  0  0  0
   35.1430   25.9970   30.7960 C   0  0  0  0  0  0  0  0  0  0  0  0
   35.8880   26.5970   31.6950 N   0  0  0  0  0  0  0  0  0  0  0  0
   36.6620   25.8700   32.5380 C   0  0  0  0  0  0  0  0  0  0  0  0
   36.6700   24.5160   32.4500 N   0  0  0  0  0  0  0  0  0  0  0  0
   34.5460   24.1390   29.9740 H   0  0  0  0  0  0  0  0  0  0  0  0
   34.5500   26.6390   30.1560 H   0  0  0  0  0  0  0  0  0  0  0  0
   37.5700   26.3060   33.6150 C   0  0  0  0  0  0  0  0  0  0  0  0
   37.1660   26.9850   34.7460 C   0  0  0  0  0  0  0  0  0  0  0  0
   36.0950   27.2170   34.8560 H   0  0  0  0  0  0  0  0  0  0  0  0
   38.0030   27.3930   35.7490 C   0  0  0  0  0  3  0  0  0  0  0  0
   39.3480   27.1340   35.6710 C   0  0  0  0  0  3  0  0  0  0  0  0
   39.8120   26.4610   34.5680 C   0  0  0  0  0  0  0  0  0  0  0  0
   41.1690   26.2300   34.5440 C   0  0  0  0  0  3  0  0  0  0  0  0
   41.7230   25.5610   33.4750 C   0  0  0  0  0  3  0  0  0  0  0  0
   40.8560   25.1510   32.4610 C   0  0  0  0  0  3  0  0  0  0  0  0
   39.5150   25.4180   32.5560 C   0  0  0  0  0  3  0  0  0  0  0  0
   38.9290   26.0820   33.6050 C   0  0  0  0  0  0  0  0  0  0  0  0
   37.4180   20.8660   32.4670 O   0  0  0  0  0  0  0  0  0  0  0  0
   40.8620   21.5570   33.2570 C   0  0  0  0  0  0  0  0  0  0  0  0
   40.7130   22.1730   34.5310 C   0  0  0  0  0  0  0  0  0  0  0  0
   39.4280   22.3000   35.0180 C   0  0  0  0  0  0  0  0  0  0  0  0
   38.4140   21.8250   34.2330 N   0  0  0  0  0  0  0  0  0  0  0  0
   38.5860   21.2530   33.0440 C   0  0  0  0  0  0  0  0  0  0  0  0
   39.8300   21.1200   32.5540 N   0  0  0  0  0  0  0  0  0  0  0  0
   41.8920   21.4700   32.8970 H   0  0  0  0  0  0  0  0  0  0  0  0
   41.5160   22.5420   35.1370 H   0  0  0  0  0  0  0  0  0  0  0  0
   40.7820   22.0390   37.5600 F   0  0  0  0  0  0  0  0  0  0  0  0
   39.6800   22.7860   37.4860 C   0  0  0  0  0  0  0  0  0  0  0  0
   39.0690   22.8950   36.2910 C   0  0  0  0  0  0  0  0  0  0  0  0
   37.9240   23.7030   36.3320 C   0  0  0  0  0  0  0  0  0  0  0  0
   37.4750   24.3190   37.4740 C   0  0  0  0  0  0  0  0  0  0  0  0
   38.1360   24.1730   38.6580 C   0  0  0  0  0  0  0  0  0  0  0  0
   39.2700   23.3840   38.6610 C   0  0  0  0  0  0  0  0  0  0  0  0
   37.3200   23.8880   35.4410 H   0  0  0  0  0  0  0  0  0  0  0  0
   36.5870   24.9380   37.4740 H   0  0  0  0  0  0  0  0  0  0  0  0
   37.8040   24.6440   39.5580 H   0  0  0  0  0  0  0  0  0  0  0  0
   39.8130   23.2500   39.5800 H   0  0  0  0  0  0  0  0  0  0  0  0
  1  3  1  0  0  0  0
  1  2  1  0  0  0  0
  4  7  1  0  0  0  0
  4  1  1  0  0  0  0
  5  4  1  0  0  0  0
  6  4  1  0  0  0  0
  7 12  1  0  0  0  0
  8  9  1  0  0  0  0
  8  7  2  0  0  0  0
  9 10  2  0  0  0  0
 10 11  1  0  0  0  0
 11 15  1  0  0  0  0
 12 11  2  0  0  0  0
 13  8  1  0  0  0  0
 14  9  1  0  0  0  0
 15 16  1  0  0  0  0
 16 17  1  0  0  0  0
 16 18  2  0  0  0  0
 19 18  1  0  0  0  0
 20 19  2  0  0  0  0
 21 20  1  0  0  0  0
 22 21  2  0  0  0  0
 23 24  2  0  0  0  0
 23 22  1  0  0  0  0
 24 25  1  0  0  0  0
 25 15  2  0  0  0  0
 25 20  1  0  0  0  0
 26  1  1  0  0  0  0
 26 31  1  0  0  0  0
 27 28  1  0  0  0  0
 28 29  2  0  0  0  0
 28 34  1  0  0  0  0
 29 37  1  0  0  0  0
 30 29  1  0  0  0  0
 31 30  2  0  0  0  0
 32 31  1  0  0  0  0
 32 27  2  0  0  0  0
 33 27  1  0  0  0  0
 36 35  1  0  0  0  0
 36 41  1  0  0  0  0
 37 38  1  0  0  0  0
 37 36  2  0  0  0  0
 38 39  2  0  0  0  0
 39 43  1  0  0  0  0
 39 40  1  0  0  0  0
 40 41  2  0  0  0  0
 40 44  1  0  0  0  0
 41 45  1  0  0  0  0
 42 38  1  0  0  0  0
M  END
>  <minimizedAffinity>
-6.93208694

$$$$

 OpenBabel03272509563D

 45 49  0  0  0  0  0  0  0  0999 V2000
   37.0540   26.6920   34.8920 C   0  0  0  0  0  0  0  0  0  0  0  0
   36.2400   25.9490   34.9110 H   0  0  0  0  0  0  0  0  0  0  0  0
   36.6890   27.5870   35.4480 H   0  0  0  0  0  0  0  0  0  0  0  0
   38.3080   26.2360   35.5570 C   0  0  0  0  0  0  0  0  0  0  0  0
   39.1710   26.6610   35.0000 H   0  0  0  0  0  0  0  0  0  0  0  0
   38.4130   26.5910   36.6010 H   0  0  0  0  0  0  0  0  0  0  0  0
   38.4830   24.7560   35.5130 C   0  0  0  0  0  0  0  0  0  0  0  0
   38.7630   24.0810   36.6770 C   0  0  0  0  0  0  0  0  0  0  0  0
   38.9430   22.7370   36.6870 C   0  0  0  0  0  0  0  0  0  0  0  0
   38.8490   22.0560   35.5690 N   0  0  0  0  0  0  0  0  0  0  0  0
   38.5720   22.6890   34.4030 C   0  0  0  0  0  0  0  0  0  0  0  0
   38.3930   24.0340   34.3900 N   0  0  0  0  0  0  0  0  0  0  0  0
   38.8380   24.6520   37.5850 H   0  0  0  0  0  0  0  0  0  0  0  0
   39.1660   22.1670   37.5810 H   0  0  0  0  0  0  0  0  0  0  0  0
   38.4190   22.1510   33.0380 C   0  0  0  0  0  0  0  0  0  0  0  0
   39.3180   22.3590   32.0130 C   0  0  0  0  0  0  0  0  0  0  0  0
   40.2120   22.9670   32.2240 H   0  0  0  0  0  0  0  0  0  0  0  0
   39.1820   21.8640   30.7450 C   0  0  0  0  0  3  0  0  0  0  0  0
   38.0890   21.1000   30.4190 C   0  0  0  0  0  3  0  0  0  0  0  0
   37.1580   20.8560   31.3980 C   0  0  0  0  0  0  0  0  0  0  0  0
   36.0850   20.0840   31.0120 C   0  0  0  0  0  3  0  0  0  0  0  0
   35.0990   19.7890   31.9300 C   0  0  0  0  0  3  0  0  0  0  0  0
   35.2530   20.3020   33.2180 C   0  0  0  0  0  3  0  0  0  0  0  0
   36.3510   21.0640   33.5260 C   0  0  0  0  0  3  0  0  0  0  0  0
   37.3510   21.3780   32.6390 C   0  0  0  0  0  0  0  0  0  0  0  0
   37.3270   27.1700   33.5690 O   0  0  0  0  0  0  0  0  0  0  0  0
   35.7790   29.7050   31.5330 C   0  0  0  0  0  0  0  0  0  0  0  0
   35.0870   30.4460   32.5320 C   0  0  0  0  0  0  0  0  0  0  0  0
   35.2140   30.0100   33.8340 C   0  0  0  0  0  0  0  0  0  0  0  0
   35.9880   28.9050   34.0500 N   0  0  0  0  0  0  0  0  0  0  0  0
   36.6230   28.2310   33.0940 C   0  0  0  0  0  0  0  0  0  0  0  0
   36.5130   28.6410   31.8190 N   0  0  0  0  0  0  0  0  0  0  0  0
   35.6610   30.0740   30.5100 H   0  0  0  0  0  0  0  0  0  0  0  0
   34.4830   31.3120   32.3500 H   0  0  0  0  0  0  0  0  0  0  0  0
   32.4940   29.7140   34.7750 F   0  0  0  0  0  0  0  0  0  0  0  0
   33.3300   30.5100   35.4450 C   0  0  0  0  0  0  0  0  0  0  0  0
   34.5910   30.6290   34.9900 C   0  0  0  0  0  0  0  0  0  0  0  0
   35.3770   31.4870   35.7700 C   0  0  0  0  0  0  0  0  0  0  0  0
   34.9070   32.1380   36.8840 C   0  0  0  0  0  0  0  0  0  0  0  0
   33.6170   31.9780   37.3000 C   0  0  0  0  0  0  0  0  0  0  0  0
   32.8080   31.1400   36.5570 C   0  0  0  0  0  0  0  0  0  0  0  0
   36.4240   31.6860   35.5290 H   0  0  0  0  0  0  0  0  0  0  0  0
   35.5390   32.7950   37.4680 H   0  0  0  0  0  0  0  0  0  0  0  0
   33.2320   32.4750   38.1640 H   0  0  0  0  0  0  0  0  0  0  0  0
   31.7870   30.9940   36.8600 H   0  0  0  0  0  0  0  0  0  0  0  0
  1  2  1  0  0  0  0
  1  3  1  0  0  0  0
  1  4  1  0  0  0  0
  4  6  1  0  0  0  0
  5  4  1  0  0  0  0
  7  4  1  0  0  0  0
  7  8  1  0  0  0  0
  8  9  2  0  0  0  0
  8 13  1  0  0  0  0
  9 14  1  0  0  0  0
 10  9  1  0  0  0  0
 11 10  2  0  0  0  0
 12 11  1  0  0  0  0
 12  7  2  0  0  0  0
 15 11  1  0  0  0  0
 16 17  1  0  0  0  0
 16 15  2  0  0  0  0
 18 16  1  0  0  0  0
 19 18  2  0  0  0  0
 19 20  1  0  0  0  0
 20 25  1  0  0  0  0
 21 20  2  0  0  0  0
 21 22  1  0  0  0  0
 22 23  2  0  0  0  0
 23 24  1  0  0  0  0
 25 15  1  0  0  0  0
 25 24  2  0  0  0  0
 26  1  1  0  0  0  0
 27 32  2  0  0  0  0
 27 28  1  0  0  0  0
 28 29  2  0  0  0  0
 29 30  1  0  0  0  0
 29 37  1  0  0  0  0
 31 26  1  0  0  0  0
 31 30  2  0  0  0  0
 32 31  1  0  0  0  0
 33 27  1  0  0  0  0
 34 28  1  0  0  0  0
 35 36  1  0  0  0  0
 36 41  1  0  0  0  0
 37 36  2  0  0  0  0
 37 38  1  0  0  0  0
 38 39  2  0  0  0  0
 39 40  1  0  0  0  0
 39 43  1  0  0  0  0
 40 44  1  0  0  0  0
 41 45  1  0  0  0  0
 41 40  2  0  0  0  0
 42 38  1  0  0  0  0
M  END
>  <minimizedAffinity>
-6.90054846

$$$$

 OpenBabel03272509563D

 45 49  0  0  0  0  0  0  0  0999 V2000
   42.3340   22.5410   35.8250 C   0  0  0  0  0  0  0  0  0  0  0  0
   41.7280   22.6730   34.9140 H   0  0  0  0  0  0  0  0  0  0  0  0
   42.9820   21.6490   35.6580 H   0  0  0  0  0  0  0  0  0  0  0  0
   43.2330   23.6920   36.1280 C   0  0  0  0  0  0  0  0  0  0  0  0
   43.0750   23.9860   37.1890 H   0  0  0  0  0  0  0  0  0  0  0  0
   44.3100   23.4530   36.0330 H   0  0  0  0  0  0  0  0  0  0  0  0
   42.9170   24.9040   35.3180 C   0  0  0  0  0  0  0  0  0  0  0  0
   43.9410   25.5780   34.6960 C   0  0  0  0  0  0  0  0  0  0  0  0
   43.7070   26.6910   33.9590 C   0  0  0  0  0  0  0  0  0  0  0  0
   42.4820   27.1450   33.8290 N   0  0  0  0  0  0  0  0  0  0  0  0
   41.4470   26.5040   34.4270 C   0  0  0  0  0  0  0  0  0  0  0  0
   41.6800   25.3900   35.1660 N   0  0  0  0  0  0  0  0  0  0  0  0
   44.9390   25.1950   34.8130 H   0  0  0  0  0  0  0  0  0  0  0  0
   44.4840   27.2510   33.4540 H   0  0  0  0  0  0  0  0  0  0  0  0
   40.0060   26.8140   34.4280 C   0  0  0  0  0  0  0  0  0  0  0  0
   39.2320   26.9150   35.5660 C   0  0  0  0  0  0  0  0  0  0  0  0
   39.7200   26.7540   36.5400 H   0  0  0  0  0  0  0  0  0  0  0  0
   37.8940   27.2020   35.5750 C   0  0  0  0  0  3  0  0  0  0  0  0
   37.2280   27.4120   34.3930 C   0  0  0  0  0  3  0  0  0  0  0  0
   37.9450   27.3250   33.2260 C   0  0  0  0  0  0  0  0  0  0  0  0
   37.2240   27.5460   32.0730 C   0  0  0  0  0  3  0  0  0  0  0  0
   37.8620   27.4790   30.8530 C   0  0  0  0  0  3  0  0  0  0  0  0
   39.2260   27.1850   30.8610 C   0  0  0  0  0  3  0  0  0  0  0  0
   39.8750   26.9780   32.0520 C   0  0  0  0  0  3  0  0  0  0  0  0
   39.2720   27.0360   33.2840 C   0  0  0  0  0  0  0  0  0  0  0  0
   41.5370   22.2060   36.9680 O   0  0  0  0  0  0  0  0  0  0  0  0
   38.2810   23.4020   37.9330 C   0  0  0  0  0  0  0  0  0  0  0  0
   37.6110   23.3580   36.6780 C   0  0  0  0  0  0  0  0  0  0  0  0
   38.3410   22.9160   35.5950 C   0  0  0  0  0  0  0  0  0  0  0  0
   39.6420   22.5610   35.8220 N   0  0  0  0  0  0  0  0  0  0  0  0
   40.2420   22.6140   37.0080 C   0  0  0  0  0  0  0  0  0  0  0  0
   39.5470   23.0420   38.0760 N   0  0  0  0  0  0  0  0  0  0  0  0
   37.6770   23.7570   38.7740 H   0  0  0  0  0  0  0  0  0  0  0  0
   36.5900   23.6390   36.5130 H   0  0  0  0  0  0  0  0  0  0  0  0
   36.4350   21.0060   34.5520 F   0  0  0  0  0  0  0  0  0  0  0  0
   36.9570   21.9170   33.7290 C   0  0  0  0  0  0  0  0  0  0  0  0
   37.8400   22.7970   34.2380 C   0  0  0  0  0  0  0  0  0  0  0  0
   38.3210   23.7040   33.2850 C   0  0  0  0  0  0  0  0  0  0  0  0
   37.9310   23.6950   31.9690 C   0  0  0  0  0  0  0  0  0  0  0  0
   37.0310   22.7790   31.5080 C   0  0  0  0  0  0  0  0  0  0  0  0
   36.5320   21.8650   32.4170 C   0  0  0  0  0  0  0  0  0  0  0  0
   39.0450   24.4810   33.5460 H   0  0  0  0  0  0  0  0  0  0  0  0
   38.3200   24.4100   31.2560 H   0  0  0  0  0  0  0  0  0  0  0  0
   36.7140   22.7550   30.4890 H   0  0  0  0  0  0  0  0  0  0  0  0
   35.8210   21.1300   32.0840 H   0  0  0  0  0  0  0  0  0  0  0  0
  1  4  1  0  0  0  0
  1 26  1  0  0  0  0
  2  1  1  0  0  0  0
  3  1  1  0  0  0  0
  4  5  1  0  0  0  0
  6  4  1  0  0  0  0
  7  4  1  0  0  0  0
  8 13  1  0  0  0  0
  8  7  2  0  0  0  0
  9  8  1  0  0  0  0
 10  9  2  0  0  0  0
 10 11  1  0  0  0  0
 11 15  1  0  0  0  0
 11 12  2  0  0  0  0
 12  7  1  0  0  0  0
 14  9  1  0  0  0  0
 15 16  1  0  0  0  0
 16 18  2  0  0  0  0
 16 17  1  0  0  0  0
 19 18  1  0  0  0  0
 20 25  1  0  0  0  0
 20 19  2  0  0  0  0
 21 20  1  0  0  0  0
 22 23  1  0  0  0  0
 22 21  2  0  0  0  0
 23 24  2  0  0  0  0
 24 25  1  0  0  0  0
 25 15  2  0  0  0  0
 26 31  1  0  0  0  0
 27 32  1  0  0  0  0
 27 33  1  0  0  0  0
 28 27  2  0  0  0  0
 29 30  2  0  0  0  0
 29 28  1  0  0  0  0
 30 31  1  0  0  0  0
 31 32  2  0  0  0  0
 34 28  1  0  0  0  0
 36 37  1  0  0  0  0
 36 35  1  0  0  0  0
 37 29  1  0  0  0  0
 38 42  1  0  0  0  0
 38 37  2  0  0  0  0
 39 38  1  0  0  0  0
 40 39  2  0  0  0  0
 40 41  1  0  0  0  0
 41 36  2  0  0  0  0
 43 39  1  0  0  0  0
 44 40  1  0  0  0  0
 45 41  1  0  0  0  0
M  END
>  <minimizedAffinity>
-6.88862038

$$$$
