
 OpenBabel03272509473D

 27 29  0  0  0  0  0  0  0  0999 V2000
   33.2010   27.2910   48.1440 C   0  0  0  0  0  0  0  0  0  0  0  0
   33.5380   26.4180   47.5630 H   0  0  0  0  0  0  0  0  0  0  0  0
   32.9340   26.8660   49.1550 H   0  0  0  0  0  0  0  0  0  0  0  0
   32.0130   27.9340   47.5480 C   0  0  0  0  0  0  0  0  0  0  0  0
   32.1370   28.4610   46.2700 C   0  0  0  0  0  0  0  0  0  0  0  0
   33.0830   28.3730   45.7460 H   0  0  0  0  0  0  0  0  0  0  0  0
   31.1540   29.1120   45.5630 C   0  0  0  0  0  3  0  0  0  0  0  0
   29.9220   29.2410   46.2130 C   0  0  0  0  0  3  0  0  0  0  0  0
   29.7510   28.7310   47.4850 C   0  0  0  0  0  0  0  0  0  0  0  0
   28.5580   28.8250   48.1720 C   0  0  0  0  0  3  0  0  0  0  0  0
   28.3530   28.3220   49.4420 C   0  0  0  0  0  3  0  0  0  0  0  0
   29.4150   27.6950   50.0360 C   0  0  0  0  0  3  0  0  0  0  0  0
   30.6260   27.5670   49.4110 C   0  0  0  0  0  3  0  0  0  0  0  0
   30.7820   28.0840   48.1490 C   0  0  0  0  0  0  0  0  0  0  0  0
   34.2910   28.2880   48.3570 C   0  0  0  0  0  0  0  0  0  0  0  0
   34.0160   29.2790   48.0100 H   0  0  0  0  0  0  0  0  0  0  0  0
   35.1480   27.9680   47.7030 H   0  0  0  0  0  0  0  0  0  0  0  0
   34.7070   28.3010   49.7090 O   0  0  0  0  0  0  0  0  0  0  0  0
   37.2970   30.1990   51.4140 C   0  0  0  0  0  0  0  0  0  0  0  0
   38.0330   30.6430   50.3180 C   0  0  0  0  0  0  0  0  0  0  0  0
   37.6140   30.2770   49.0410 C   0  0  0  0  0  0  0  0  0  0  0  0
   36.4890   29.4920   48.9720 N   0  0  0  0  0  0  0  0  0  0  0  0
   35.8050   29.0810   50.0400 C   0  0  0  0  0  0  0  0  0  0  0  0
   36.2150   29.4400   51.2660 N   0  0  0  0  0  0  0  0  0  0  0  0
   37.6640   30.5100   52.3740 H   0  0  0  0  0  0  0  0  0  0  0  0
   38.9250   31.2610   50.3250 H   0  0  0  0  0  0  0  0  0  0  0  0
   38.1110   30.5660   48.1110 H   0  0  0  0  0  0  0  0  0  0  0  0
  1 15  1  0  0  0  0
  1  3  1  0  0  0  0
  2  1  1  0  0  0  0
  4  1  1  0  0  0  0
  4 14  1  0  0  0  0
  5  4  2  0  0  0  0
  6  5  1  0  0  0  0
  7  8  2  0  0  0  0
  7  5  1  0  0  0  0
  8  9  1  0  0  0  0
  9 14  2  0  0  0  0
  9 10  1  0  0  0  0
 10 11  2  0  0  0  0
 11 12  1  0  0  0  0
 13 12  2  0  0  0  0
 14 13  1  0  0  0  0
 15 18  1  0  0  0  0
 16 15  1  0  0  0  0
 17 15  1  0  0  0  0
 18 23  1  0  0  0  0
 19 25  1  0  0  0  0
 20 26  1  0  0  0  0
 20 19  2  0  0  0  0
 21 20  1  0  0  0  0
 22 21  2  0  0  0  0
 22 23  1  0  0  0  0
 23 24  2  0  0  0  0
 24 19  1  0  0  0  0
 27 21  1  0  0  0  0
M  END
>  <minimizedAffinity>
-5.13957882

>  <minimizedRMSD>
2.37705159

$$$$
