
 OpenBabel03272509253D

 26 28  0  0  0  0  0  0  0  0999 V2000
   38.3600   25.3090   34.8540 C   0  0  0  0  0  0  0  0  0  0  0  0
   37.6130   24.8100   34.2090 H   0  0  0  0  0  0  0  0  0  0  0  0
   39.3530   25.3510   34.3480 H   0  0  0  0  0  0  0  0  0  0  0  0
   38.5780   24.5940   36.1550 C   0  0  0  0  0  0  0  0  0  0  0  0
   37.8030   24.8290   37.2900 C   0  0  0  0  0  0  0  0  0  0  0  0
   37.0120   25.5860   37.2220 H   0  0  0  0  0  0  0  0  0  0  0  0
   38.0560   24.1150   38.4390 C   0  0  0  0  0  3  0  0  0  0  0  0
   39.0470   23.1620   38.5420 C   0  0  0  0  0  3  0  0  0  0  0  0
   39.8150   22.9300   37.4180 C   0  0  0  0  0  0  0  0  0  0  0  0
   40.8160   21.9860   37.5080 C   0  0  0  0  0  3  0  0  0  0  0  0
   41.6260   21.7140   36.4120 C   0  0  0  0  0  3  0  0  0  0  0  0
   41.4220   22.4010   35.2240 C   0  0  0  0  0  3  0  0  0  0  0  0
   40.3940   23.3490   35.1880 C   0  0  0  0  0  3  0  0  0  0  0  0
   39.5670   23.6420   36.2660 C   0  0  0  0  0  0  0  0  0  0  0  0
   37.9470   26.7380   35.2040 C   0  0  0  0  0  0  0  0  0  0  0  0
   38.8890   27.3660   35.1080 H   0  0  0  0  0  0  0  0  0  0  0  0
   37.4730   26.8520   36.1690 H   0  0  0  0  0  0  0  0  0  0  0  0
   35.5420   28.7820   33.0980 C   0  0  0  0  0  0  0  0  0  0  0  0
   36.3250   28.4300   34.2120 C   0  0  0  0  0  0  0  0  0  0  0  0
   37.0600   27.2630   34.1190 C   0  0  0  0  0  0  0  0  0  0  0  0
   36.9860   26.5290   32.9650 N   0  0  0  0  0  0  0  0  0  0  0  0
   36.2270   26.8970   31.9210 C   0  0  0  0  0  0  0  0  0  0  0  0
   35.5010   28.0280   31.9850 N   0  0  0  0  0  0  0  0  0  0  0  0
   34.9630   29.6930   33.1610 H   0  0  0  0  0  0  0  0  0  0  0  0
   36.3810   29.0080   35.1150 H   0  0  0  0  0  0  0  0  0  0  0  0
   36.2850   26.1970   31.0850 H   0  0  0  0  0  0  0  0  0  0  0  0
  1 15  1  0  0  0  0
  1  4  1  0  0  0  0
  2  1  1  0  0  0  0
  3  1  1  0  0  0  0
  4 14  2  0  0  0  0
  4  5  1  0  0  0  0
  5  7  2  0  0  0  0
  6  5  1  0  0  0  0
  7  8  1  0  0  0  0
  9 10  1  0  0  0  0
  9  8  2  0  0  0  0
 11 10  2  0  0  0  0
 12 11  1  0  0  0  0
 13 12  2  0  0  0  0
 13 14  1  0  0  0  0
 14  9  1  0  0  0  0
 15 17  1  0  0  0  0
 16 15  1  0  0  0  0
 18 24  1  0  0  0  0
 18 19  1  0  0  0  0
 19 25  1  0  0  0  0
 20 19  2  0  0  0  0
 20 15  1  0  0  0  0
 21 20  1  0  0  0  0
 22 23  1  0  0  0  0
 22 21  2  0  0  0  0
 23 18  2  0  0  0  0
 26 22  1  0  0  0  0
M  END
>  <minimizedAffinity>
-5.33841467

$$$$

 OpenBabel03272509253D

 26 28  0  0  0  0  0  0  0  0999 V2000
   35.3280   28.8330   33.6160 C   0  0  0  0  0  0  0  0  0  0  0  0
   35.1990   28.4350   34.6400 H   0  0  0  0  0  0  0  0  0  0  0  0
   34.4500   28.5740   32.9780 H   0  0  0  0  0  0  0  0  0  0  0  0
   36.5350   28.2760   32.9210 C   0  0  0  0  0  0  0  0  0  0  0  0
   36.6820   28.2760   31.5340 C   0  0  0  0  0  0  0  0  0  0  0  0
   35.8620   28.6900   30.9340 H   0  0  0  0  0  0  0  0  0  0  0  0
   37.8300   27.7650   30.9770 C   0  0  0  0  0  3  0  0  0  0  0  0
   38.8680   27.2390   31.7170 C   0  0  0  0  0  3  0  0  0  0  0  0
   38.7230   27.2370   33.0900 C   0  0  0  0  0  0  0  0  0  0  0  0
   39.7500   26.7090   33.8440 C   0  0  0  0  0  3  0  0  0  0  0  0
   39.6580   26.6730   35.2300 C   0  0  0  0  0  3  0  0  0  0  0  0
   38.5230   27.1740   35.8530 C   0  0  0  0  0  3  0  0  0  0  0  0
   37.5120   27.6980   35.0410 C   0  0  0  0  0  3  0  0  0  0  0  0
   37.5760   27.7480   33.6530 C   0  0  0  0  0  0  0  0  0  0  0  0
   35.4840   30.3530   33.6100 C   0  0  0  0  0  0  0  0  0  0  0  0
   34.7610   30.7370   32.8220 H   0  0  0  0  0  0  0  0  0  0  0  0
   36.4930   30.7080   33.4510 H   0  0  0  0  0  0  0  0  0  0  0  0
   34.9820   32.1070   36.9390 C   0  0  0  0  0  0  0  0  0  0  0  0
   35.6540   31.6710   35.7810 C   0  0  0  0  0  0  0  0  0  0  0  0
   34.9320   30.9000   34.8900 C   0  0  0  0  0  0  0  0  0  0  0  0
   33.6250   30.6090   35.1790 N   0  0  0  0  0  0  0  0  0  0  0  0
   33.0170   31.0420   36.2950 C   0  0  0  0  0  0  0  0  0  0  0  0
   33.6970   31.7940   37.1800 N   0  0  0  0  0  0  0  0  0  0  0  0
   35.5380   32.7110   37.6420 H   0  0  0  0  0  0  0  0  0  0  0  0
   36.6780   31.9010   35.5560 H   0  0  0  0  0  0  0  0  0  0  0  0
   31.9770   30.7170   36.3660 H   0  0  0  0  0  0  0  0  0  0  0  0
  1  2  1  0  0  0  0
  3  1  1  0  0  0  0
  4  1  1  0  0  0  0
  4 14  1  0  0  0  0
  5  4  2  0  0  0  0
  6  5  1  0  0  0  0
  7  5  1  0  0  0  0
  7  8  2  0  0  0  0
  8  9  1  0  0  0  0
  9 14  2  0  0  0  0
  9 10  1  0  0  0  0
 10 11  2  0  0  0  0
 11 12  1  0  0  0  0
 13 12  2  0  0  0  0
 14 13  1  0  0  0  0
 15  1  1  0  0  0  0
 15 20  1  0  0  0  0
 16 15  1  0  0  0  0
 17 15  1  0  0  0  0
 18 23  1  0  0  0  0
 18 24  1  0  0  0  0
 19 18  2  0  0  0  0
 20 21  2  0  0  0  0
 20 19  1  0  0  0  0
 21 22  1  0  0  0  0
 22 26  1  0  0  0  0
 22 23  2  0  0  0  0
 25 19  1  0  0  0  0
M  END
>  <minimizedAffinity>
-5.26660585

$$$$

 OpenBabel03272509253D

 26 28  0  0  0  0  0  0  0  0999 V2000
   39.0070   26.0710   34.3510 C   0  0  0  0  0  0  0  0  0  0  0  0
   39.5190   26.3730   35.2830 H   0  0  0  0  0  0  0  0  0  0  0  0
   39.7360   25.9850   33.5100 H   0  0  0  0  0  0  0  0  0  0  0  0
   37.9660   27.0570   33.9100 C   0  0  0  0  0  0  0  0  0  0  0  0
   37.0130   27.5940   34.7750 C   0  0  0  0  0  0  0  0  0  0  0  0
   37.0240   27.2590   35.8200 H   0  0  0  0  0  0  0  0  0  0  0  0
   36.1070   28.5090   34.2940 C   0  0  0  0  0  3  0  0  0  0  0  0
   36.0780   28.9400   32.9850 C   0  0  0  0  0  3  0  0  0  0  0  0
   37.0210   28.4070   32.1280 C   0  0  0  0  0  0  0  0  0  0  0  0
   37.0010   28.8220   30.8130 C   0  0  0  0  0  3  0  0  0  0  0  0
   37.9200   28.3160   29.9020 C   0  0  0  0  0  3  0  0  0  0  0  0
   38.8610   27.3880   30.3250 C   0  0  0  0  0  3  0  0  0  0  0  0
   38.8370   27.0010   31.6690 C   0  0  0  0  0  3  0  0  0  0  0  0
   37.9310   27.4900   32.6030 C   0  0  0  0  0  0  0  0  0  0  0  0
   38.2990   24.7240   34.5000 C   0  0  0  0  0  0  0  0  0  0  0  0
   38.8370   24.0100   33.7990 H   0  0  0  0  0  0  0  0  0  0  0  0
   37.2330   24.7490   34.3240 H   0  0  0  0  0  0  0  0  0  0  0  0
   39.7700   22.8810   37.4730 C   0  0  0  0  0  0  0  0  0  0  0  0
   39.6320   23.3040   36.1380 C   0  0  0  0  0  0  0  0  0  0  0  0
   38.5930   24.1720   35.8600 C   0  0  0  0  0  0  0  0  0  0  0  0
   37.7720   24.5650   36.8830 N   0  0  0  0  0  0  0  0  0  0  0  0
   37.9350   24.1410   38.1460 C   0  0  0  0  0  0  0  0  0  0  0  0
   38.9380   23.2940   38.4440 N   0  0  0  0  0  0  0  0  0  0  0  0
   40.5800   22.2020   37.7010 H   0  0  0  0  0  0  0  0  0  0  0  0
   40.2780   22.9950   35.3380 H   0  0  0  0  0  0  0  0  0  0  0  0
   37.1910   24.5520   38.8320 H   0  0  0  0  0  0  0  0  0  0  0  0
  1 15  1  0  0  0  0
  1  2  1  0  0  0  0
  3  1  1  0  0  0  0
  4  1  1  0  0  0  0
  4  5  1  0  0  0  0
  5  6  1  0  0  0  0
  7  5  2  0  0  0  0
  8  7  1  0  0  0  0
  9 14  1  0  0  0  0
  9  8  2  0  0  0  0
 10  9  1  0  0  0  0
 11 12  1  0  0  0  0
 11 10  2  0  0  0  0
 12 13  2  0  0  0  0
 13 14  1  0  0  0  0
 14  4  2  0  0  0  0
 15 20  1  0  0  0  0
 16 15  1  0  0  0  0
 17 15  1  0  0  0  0
 18 24  1  0  0  0  0
 18 23  1  0  0  0  0
 19 18  2  0  0  0  0
 20 19  1  0  0  0  0
 20 21  2  0  0  0  0
 21 22  1  0  0  0  0
 22 23  2  0  0  0  0
 22 26  1  0  0  0  0
 25 19  1  0  0  0  0
M  END
>  <minimizedAffinity>
-5.0935812

$$$$

 OpenBabel03272509253D

 26 28  0  0  0  0  0  0  0  0999 V2000
   35.6330   28.5420   34.0320 C   0  0  0  0  0  0  0  0  0  0  0  0
   34.9320   28.2630   34.8390 H   0  0  0  0  0  0  0  0  0  0  0  0
   35.2750   28.1590   33.0470 H   0  0  0  0  0  0  0  0  0  0  0  0
   37.0080   27.9760   34.2310 C   0  0  0  0  0  0  0  0  0  0  0  0
   37.5880   27.8130   35.4880 C   0  0  0  0  0  0  0  0  0  0  0  0
   37.0100   28.1340   36.3640 H   0  0  0  0  0  0  0  0  0  0  0  0
   38.8460   27.2660   35.5840 C   0  0  0  0  0  3  0  0  0  0  0  0
   39.5870   26.8590   34.4950 C   0  0  0  0  0  3  0  0  0  0  0  0
   39.0130   27.0210   33.2490 C   0  0  0  0  0  0  0  0  0  0  0  0
   39.7440   26.6260   32.1490 C   0  0  0  0  0  3  0  0  0  0  0  0
   39.2220   26.7710   30.8700 C   0  0  0  0  0  3  0  0  0  0  0  0
   37.9570   27.3170   30.7050 C   0  0  0  0  0  3  0  0  0  0  0  0
   37.2590   27.7010   31.8550 C   0  0  0  0  0  3  0  0  0  0  0  0
   37.7540   27.5690   33.1470 C   0  0  0  0  0  0  0  0  0  0  0  0
   35.7970   30.0570   33.9170 C   0  0  0  0  0  0  0  0  0  0  0  0
   35.1850   30.3700   33.0130 H   0  0  0  0  0  0  0  0  0  0  0  0
   36.8200   30.4020   33.8610 H   0  0  0  0  0  0  0  0  0  0  0  0
   34.8740   32.1030   36.9790 C   0  0  0  0  0  0  0  0  0  0  0  0
   35.6850   31.5780   35.9560 C   0  0  0  0  0  0  0  0  0  0  0  0
   35.0880   30.7070   35.0640 C   0  0  0  0  0  0  0  0  0  0  0  0
   33.7600   30.4100   35.2250 N   0  0  0  0  0  0  0  0  0  0  0  0
   33.0160   30.9300   36.2140 C   0  0  0  0  0  0  0  0  0  0  0  0
   33.5740   31.7800   37.0960 N   0  0  0  0  0  0  0  0  0  0  0  0
   35.3320   32.7850   37.6800 H   0  0  0  0  0  0  0  0  0  0  0  0
   36.7260   31.8130   35.8320 H   0  0  0  0  0  0  0  0  0  0  0  0
   31.9800   30.5850   36.1930 H   0  0  0  0  0  0  0  0  0  0  0  0
  1  4  1  0  0  0  0
  1  2  1  0  0  0  0
  3  1  1  0  0  0  0
  4  5  1  0  0  0  0
  5  7  2  0  0  0  0
  5  6  1  0  0  0  0
  8  7  1  0  0  0  0
  9  8  2  0  0  0  0
 10  9  1  0  0  0  0
 11 10  2  0  0  0  0
 12 11  1  0  0  0  0
 12 13  2  0  0  0  0
 13 14  1  0  0  0  0
 14  9  1  0  0  0  0
 14  4  2  0  0  0  0
 15  1  1  0  0  0  0
 15 20  1  0  0  0  0
 16 15  1  0  0  0  0
 17 15  1  0  0  0  0
 18 23  1  0  0  0  0
 18 24  1  0  0  0  0
 19 18  2  0  0  0  0
 20 21  2  0  0  0  0
 20 19  1  0  0  0  0
 21 22  1  0  0  0  0
 22 23  2  0  0  0  0
 25 19  1  0  0  0  0
 26 22  1  0  0  0  0
M  END
>  <minimizedAffinity>
-5.08960819

$$$$

 OpenBabel03272509253D

 26 28  0  0  0  0  0  0  0  0999 V2000
   38.4760   26.9280   35.6280 C   0  0  0  0  0  0  0  0  0  0  0  0
   38.0540   27.8200   36.1270 H   0  0  0  0  0  0  0  0  0  0  0  0
   39.4970   26.7040   36.0170 H   0  0  0  0  0  0  0  0  0  0  0  0
   38.6170   27.1020   34.1440 C   0  0  0  0  0  0  0  0  0  0  0  0
   37.5280   27.2790   33.2920 C   0  0  0  0  0  0  0  0  0  0  0  0
   36.5240   27.2710   33.7370 H   0  0  0  0  0  0  0  0  0  0  0  0
   37.7460   27.4520   31.9460 C   0  0  0  0  0  3  0  0  0  0  0  0
   38.9990   27.4620   31.3710 C   0  0  0  0  0  3  0  0  0  0  0  0
   40.0780   27.2860   32.2140 C   0  0  0  0  0  0  0  0  0  0  0  0
   41.3380   27.2860   31.6540 C   0  0  0  0  0  3  0  0  0  0  0  0
   42.4620   27.1070   32.4500 C   0  0  0  0  0  3  0  0  0  0  0  0
   42.3080   26.9260   33.8180 C   0  0  0  0  0  3  0  0  0  0  0  0
   41.0080   26.9340   34.3340 C   0  0  0  0  0  3  0  0  0  0  0  0
   39.8660   27.1110   33.5630 C   0  0  0  0  0  0  0  0  0  0  0  0
   37.6070   25.6890   35.8420 C   0  0  0  0  0  0  0  0  0  0  0  0
   37.4040   25.2680   34.8060 H   0  0  0  0  0  0  0  0  0  0  0  0
   36.6980   25.8620   36.4010 H   0  0  0  0  0  0  0  0  0  0  0  0
   40.1530   22.9910   36.6440 C   0  0  0  0  0  0  0  0  0  0  0  0
   39.4760   23.9620   35.8820 C   0  0  0  0  0  0  0  0  0  0  0  0
   38.4330   24.6280   36.4990 C   0  0  0  0  0  0  0  0  0  0  0  0
   38.1250   24.3110   37.7950 N   0  0  0  0  0  0  0  0  0  0  0  0
   38.7940   23.3790   38.4910 C   0  0  0  0  0  0  0  0  0  0  0  0
   39.8130   22.7150   37.9150 N   0  0  0  0  0  0  0  0  0  0  0  0
   40.9700   22.4650   36.1700 H   0  0  0  0  0  0  0  0  0  0  0  0
   39.7200   24.2090   34.8670 H   0  0  0  0  0  0  0  0  0  0  0  0
   38.4150   23.2530   39.5080 H   0  0  0  0  0  0  0  0  0  0  0  0
  1 15  1  0  0  0  0
  1  3  1  0  0  0  0
  1  2  1  0  0  0  0
  4  1  1  0  0  0  0
  5  6  1  0  0  0  0
  5  4  2  0  0  0  0
  7  5  1  0  0  0  0
  8  7  2  0  0  0  0
  8  9  1  0  0  0  0
  9 14  1  0  0  0  0
 10  9  2  0  0  0  0
 10 11  1  0  0  0  0
 11 12  2  0  0  0  0
 12 13  1  0  0  0  0
 14  4  1  0  0  0  0
 14 13  2  0  0  0  0
 15 17  1  0  0  0  0
 15 20  1  0  0  0  0
 16 15  1  0  0  0  0
 18 23  1  0  0  0  0
 19 20  1  0  0  0  0
 19 18  2  0  0  0  0
 20 21  2  0  0  0  0
 21 22  1  0  0  0  0
 22 26  1  0  0  0  0
 23 22  2  0  0  0  0
 24 18  1  0  0  0  0
 25 19  1  0  0  0  0
M  END
>  <minimizedAffinity>
-5.08319235

$$$$

 OpenBabel03272509253D

 26 28  0  0  0  0  0  0  0  0999 V2000
   35.8020   29.4480   32.6210 C   0  0  0  0  0  0  0  0  0  0  0  0
   36.6460   30.0070   33.0660 H   0  0  0  0  0  0  0  0  0  0  0  0
   35.6150   29.7820   31.5730 H   0  0  0  0  0  0  0  0  0  0  0  0
   34.5140   29.6470   33.3640 C   0  0  0  0  0  0  0  0  0  0  0  0
   33.3040   29.0920   32.9500 C   0  0  0  0  0  0  0  0  0  0  0  0
   33.3030   28.4970   32.0270 H   0  0  0  0  0  0  0  0  0  0  0  0
   32.1710   29.3050   33.7010 C   0  0  0  0  0  3  0  0  0  0  0  0
   32.1550   30.0500   34.8600 C   0  0  0  0  0  3  0  0  0  0  0  0
   33.3530   30.6020   35.2700 C   0  0  0  0  0  0  0  0  0  0  0  0
   33.3510   31.3570   36.4240 C   0  0  0  0  0  3  0  0  0  0  0  0
   34.5240   31.9430   36.8820 C   0  0  0  0  0  3  0  0  0  0  0  0
   35.7010   31.7640   36.1690 C   0  0  0  0  0  3  0  0  0  0  0  0
   35.6470   30.9910   35.0050 C   0  0  0  0  0  3  0  0  0  0  0  0
   34.4890   30.3920   34.5220 C   0  0  0  0  0  0  0  0  0  0  0  0
   36.0630   27.9420   32.5960 C   0  0  0  0  0  0  0  0  0  0  0  0
   36.4690   27.7140   31.5600 H   0  0  0  0  0  0  0  0  0  0  0  0
   35.2110   27.3280   32.8490 H   0  0  0  0  0  0  0  0  0  0  0  0
   38.3300   27.3640   35.5850 C   0  0  0  0  0  0  0  0  0  0  0  0
   37.1530   27.6800   34.8820 C   0  0  0  0  0  0  0  0  0  0  0  0
   37.2160   27.6390   33.5020 C   0  0  0  0  0  0  0  0  0  0  0  0
   38.4020   27.2970   32.9070 N   0  0  0  0  0  0  0  0  0  0  0  0
   39.5060   27.0010   33.6110 C   0  0  0  0  0  0  0  0  0  0  0  0
   39.4720   27.0340   34.9560 N   0  0  0  0  0  0  0  0  0  0  0  0
   38.2910   27.3930   36.6650 H   0  0  0  0  0  0  0  0  0  0  0  0
   36.2250   27.9460   35.3500 H   0  0  0  0  0  0  0  0  0  0  0  0
   40.3600   26.7530   32.9780 H   0  0  0  0  0  0  0  0  0  0  0  0
  1  2  1  0  0  0  0
  1  4  1  0  0  0  0
  3  1  1  0  0  0  0
  4 14  1  0  0  0  0
  5  4  2  0  0  0  0
  5  7  1  0  0  0  0
  6  5  1  0  0  0  0
  7  8  2  0  0  0  0
  8  9  1  0  0  0  0
  9 10  1  0  0  0  0
 10 11  2  0  0  0  0
 12 11  1  0  0  0  0
 13 12  2  0  0  0  0
 14 13  1  0  0  0  0
 14  9  2  0  0  0  0
 15  1  1  0  0  0  0
 15 17  1  0  0  0  0
 15 20  1  0  0  0  0
 16 15  1  0  0  0  0
 18 24  1  0  0  0  0
 19 25  1  0  0  0  0
 19 18  2  0  0  0  0
 20 19  1  0  0  0  0
 21 20  2  0  0  0  0
 21 22  1  0  0  0  0
 22 23  2  0  0  0  0
 23 18  1  0  0  0  0
 26 22  1  0  0  0  0
M  END
>  <minimizedAffinity>
-5.06869125

$$$$

 OpenBabel03272509253D

 26 28  0  0  0  0  0  0  0  0999 V2000
   38.7580   23.4110   33.4910 C   0  0  0  0  0  0  0  0  0  0  0  0
   39.1300   24.2620   34.0920 H   0  0  0  0  0  0  0  0  0  0  0  0
   39.5410   23.0580   32.7800 H   0  0  0  0  0  0  0  0  0  0  0  0
   37.5590   23.7630   32.6610 C   0  0  0  0  0  0  0  0  0  0  0  0
   36.7060   22.8050   32.1140 C   0  0  0  0  0  0  0  0  0  0  0  0
   36.9420   21.7480   32.2930 H   0  0  0  0  0  0  0  0  0  0  0  0
   35.6150   23.2120   31.3820 C   0  0  0  0  0  3  0  0  0  0  0  0
   35.3050   24.5350   31.1470 C   0  0  0  0  0  3  0  0  0  0  0  0
   36.1510   25.4840   31.6860 C   0  0  0  0  0  0  0  0  0  0  0  0
   35.8590   26.8110   31.4540 C   0  0  0  0  0  3  0  0  0  0  0  0
   36.6770   27.8110   31.9650 C   0  0  0  0  0  3  0  0  0  0  0  0
   37.7930   27.4650   32.7130 C   0  0  0  0  0  3  0  0  0  0  0  0
   38.0440   26.1040   32.9180 C   0  0  0  0  0  3  0  0  0  0  0  0
   37.2440   25.0820   32.4200 C   0  0  0  0  0  0  0  0  0  0  0  0
   38.3500   22.2290   34.3690 C   0  0  0  0  0  0  0  0  0  0  0  0
   39.0790   21.3930   34.1250 H   0  0  0  0  0  0  0  0  0  0  0  0
   37.3190   21.9190   34.2660 H   0  0  0  0  0  0  0  0  0  0  0  0
   40.0040   22.7090   37.7510 C   0  0  0  0  0  0  0  0  0  0  0  0
   39.8810   22.3390   36.4000 C   0  0  0  0  0  0  0  0  0  0  0  0
   38.6570   22.5590   35.7970 C   0  0  0  0  0  0  0  0  0  0  0  0
   37.6500   23.1180   36.5380 N   0  0  0  0  0  0  0  0  0  0  0  0
   37.8030   23.4600   37.8270 C   0  0  0  0  0  0  0  0  0  0  0  0
   38.9850   23.2550   38.4380 N   0  0  0  0  0  0  0  0  0  0  0  0
   40.9570   22.5410   38.2320 H   0  0  0  0  0  0  0  0  0  0  0  0
   40.6730   21.9010   35.8210 H   0  0  0  0  0  0  0  0  0  0  0  0
   36.9000   23.8900   38.2630 H   0  0  0  0  0  0  0  0  0  0  0  0
  1  2  1  0  0  0  0
  1 15  1  0  0  0  0
  3  1  1  0  0  0  0
  4  1  1  0  0  0  0
  5  6  1  0  0  0  0
  5  4  2  0  0  0  0
  7  5  1  0  0  0  0
  8  7  2  0  0  0  0
  8  9  1  0  0  0  0
  9 14  1  0  0  0  0
 10  9  2  0  0  0  0
 10 11  1  0  0  0  0
 11 12  2  0  0  0  0
 12 13  1  0  0  0  0
 14  4  1  0  0  0  0
 14 13  2  0  0  0  0
 15 20  1  0  0  0  0
 16 15  1  0  0  0  0
 17 15  1  0  0  0  0
 18 24  1  0  0  0  0
 18 23  1  0  0  0  0
 19 18  2  0  0  0  0
 20 19  1  0  0  0  0
 20 21  2  0  0  0  0
 21 22  1  0  0  0  0
 22 26  1  0  0  0  0
 22 23  2  0  0  0  0
 25 19  1  0  0  0  0
M  END
>  <minimizedAffinity>
-5.05934048

$$$$

 OpenBabel03272509253D

 26 28  0  0  0  0  0  0  0  0999 V2000
   36.9050   27.0680   34.7710 C   0  0  0  0  0  0  0  0  0  0  0  0
   37.1020   26.1810   34.1420 H   0  0  0  0  0  0  0  0  0  0  0  0
   36.0870   26.8610   35.5020 H   0  0  0  0  0  0  0  0  0  0  0  0
   36.4670   28.2620   33.9750 C   0  0  0  0  0  0  0  0  0  0  0  0
   35.7970   29.3470   34.5380 C   0  0  0  0  0  0  0  0  0  0  0  0
   35.5690   29.3070   35.6100 H   0  0  0  0  0  0  0  0  0  0  0  0
   35.4500   30.4130   33.7400 C   0  0  0  0  0  3  0  0  0  0  0  0
   35.7270   30.4780   32.3920 C   0  0  0  0  0  3  0  0  0  0  0  0
   36.3890   29.4030   31.8330 C   0  0  0  0  0  0  0  0  0  0  0  0
   36.6670   29.4500   30.4830 C   0  0  0  0  0  3  0  0  0  0  0  0
   37.3250   28.3950   29.8640 C   0  0  0  0  0  3  0  0  0  0  0  0
   37.7020   27.2900   30.6140 C   0  0  0  0  0  3  0  0  0  0  0  0
   37.3960   27.2940   31.9790 C   0  0  0  0  0  3  0  0  0  0  0  0
   36.7390   28.3340   32.6260 C   0  0  0  0  0  0  0  0  0  0  0  0
   38.1430   27.4980   35.5580 C   0  0  0  0  0  0  0  0  0  0  0  0
   37.8980   27.3080   36.6510 H   0  0  0  0  0  0  0  0  0  0  0  0
   38.4670   28.5140   35.3780 H   0  0  0  0  0  0  0  0  0  0  0  0
   41.3940   25.8560   34.4900 C   0  0  0  0  0  0  0  0  0  0  0  0
   40.4540   26.8850   34.6860 C   0  0  0  0  0  0  0  0  0  0  0  0
   39.2530   26.5350   35.2730 C   0  0  0  0  0  0  0  0  0  0  0  0
   39.0490   25.2270   35.6250 N   0  0  0  0  0  0  0  0  0  0  0  0
   39.9690   24.2710   35.4230 C   0  0  0  0  0  0  0  0  0  0  0  0
   41.1470   24.5850   34.8530 N   0  0  0  0  0  0  0  0  0  0  0  0
   42.3360   26.1200   34.0320 H   0  0  0  0  0  0  0  0  0  0  0  0
   40.6170   27.9100   34.4100 H   0  0  0  0  0  0  0  0  0  0  0  0
   39.6410   23.2860   35.7620 H   0  0  0  0  0  0  0  0  0  0  0  0
  1  3  1  0  0  0  0
  1 15  1  0  0  0  0
  2  1  1  0  0  0  0
  4  5  1  0  0  0  0
  4  1  1  0  0  0  0
  5  6  1  0  0  0  0
  7  5  2  0  0  0  0
  8  7  1  0  0  0  0
  9  8  2  0  0  0  0
  9 14  1  0  0  0  0
 10  9  1  0  0  0  0
 11 10  2  0  0  0  0
 11 12  1  0  0  0  0
 12 13  2  0  0  0  0
 13 14  1  0  0  0  0
 14  4  2  0  0  0  0
 15 16  1  0  0  0  0
 17 15  1  0  0  0  0
 18 19  2  0  0  0  0
 18 23  1  0  0  0  0
 19 20  1  0  0  0  0
 20 15  1  0  0  0  0
 20 21  2  0  0  0  0
 22 21  1  0  0  0  0
 22 26  1  0  0  0  0
 23 22  2  0  0  0  0
 24 18  1  0  0  0  0
 25 19  1  0  0  0  0
M  END
>  <minimizedAffinity>
-4.98485756

$$$$

 OpenBabel03272509253D

 26 28  0  0  0  0  0  0  0  0999 V2000
   34.5660   29.3850   33.2550 C   0  0  0  0  0  0  0  0  0  0  0  0
   33.8750   29.7870   32.4920 H   0  0  0  0  0  0  0  0  0  0  0  0
   34.2340   28.3770   33.5980 H   0  0  0  0  0  0  0  0  0  0  0  0
   34.6430   30.2440   34.4820 C   0  0  0  0  0  0  0  0  0  0  0  0
   35.8240   30.8420   34.9200 C   0  0  0  0  0  0  0  0  0  0  0  0
   36.7370   30.6540   34.3410 H   0  0  0  0  0  0  0  0  0  0  0  0
   35.8040   31.6340   36.0440 C   0  0  0  0  0  3  0  0  0  0  0  0
   34.6670   31.8790   36.7830 C   0  0  0  0  0  3  0  0  0  0  0  0
   33.4960   31.2860   36.3520 C   0  0  0  0  0  0  0  0  0  0  0  0
   32.3510   31.5160   37.0850 C   0  0  0  0  0  3  0  0  0  0  0  0
   31.1460   30.9420   36.7040 C   0  0  0  0  0  3  0  0  0  0  0  0
   31.1000   30.1320   35.5770 C   0  0  0  0  0  3  0  0  0  0  0  0
   32.2900   29.9320   34.8710 C   0  0  0  0  0  3  0  0  0  0  0  0
   33.5110   30.4930   35.2270 C   0  0  0  0  0  0  0  0  0  0  0  0
   35.9930   29.2570   32.7220 C   0  0  0  0  0  0  0  0  0  0  0  0
   36.6610   29.7500   33.4970 H   0  0  0  0  0  0  0  0  0  0  0  0
   36.1460   29.6590   31.7300 H   0  0  0  0  0  0  0  0  0  0  0  0
   37.4690   25.8900   33.6670 C   0  0  0  0  0  0  0  0  0  0  0  0
   37.1810   27.2640   33.7690 C   0  0  0  0  0  0  0  0  0  0  0  0
   36.3980   27.8170   32.7730 C   0  0  0  0  0  0  0  0  0  0  0  0
   35.9550   27.0090   31.7600 N   0  0  0  0  0  0  0  0  0  0  0  0
   36.2500   25.7010   31.6950 C   0  0  0  0  0  0  0  0  0  0  0  0
   37.0100   25.1370   32.6520 N   0  0  0  0  0  0  0  0  0  0  0  0
   38.0800   25.4480   34.4410 H   0  0  0  0  0  0  0  0  0  0  0  0
   37.5290   27.8950   34.5650 H   0  0  0  0  0  0  0  0  0  0  0  0
   35.8160   25.2100   30.8210 H   0  0  0  0  0  0  0  0  0  0  0  0
  1  3  1  0  0  0  0
  1  4  1  0  0  0  0
  2  1  1  0  0  0  0
  4  5  2  0  0  0  0
  4 14  1  0  0  0  0
  5  7  1  0  0  0  0
  6  5  1  0  0  0  0
  7  8  2  0  0  0  0
  9  8  1  0  0  0  0
  9 10  1  0  0  0  0
 11 10  2  0  0  0  0
 12 11  1  0  0  0  0
 13 14  1  0  0  0  0
 13 12  2  0  0  0  0
 14  9  2  0  0  0  0
 15 20  1  0  0  0  0
 15  1  1  0  0  0  0
 15 16  1  0  0  0  0
 17 15  1  0  0  0  0
 18 19  1  0  0  0  0
 18 24  1  0  0  0  0
 19 25  1  0  0  0  0
 20 19  2  0  0  0  0
 21 20  1  0  0  0  0
 22 21  2  0  0  0  0
 22 23  1  0  0  0  0
 23 18  2  0  0  0  0
 26 22  1  0  0  0  0
M  END
>  <minimizedAffinity>
-4.98008633

$$$$
