
 OpenBabel03272509473D

 27 29  0  0  0  0  0  0  0  0999 V2000
   32.9680   27.6780   48.1910 C   0  0  0  0  0  0  0  0  0  0  0  0
   33.3680   27.7570   47.1680 H   0  0  0  0  0  0  0  0  0  0  0  0
   33.2010   26.6170   48.5000 H   0  0  0  0  0  0  0  0  0  0  0  0
   31.5090   27.8960   48.2390 C   0  0  0  0  0  0  0  0  0  0  0  0
   30.8100   27.3460   49.3050 C   0  0  0  0  0  0  0  0  0  0  0  0
   31.3480   26.7950   50.0700 H   0  0  0  0  0  0  0  0  0  0  0  0
   29.4520   27.4230   49.5100 C   0  0  0  0  0  3  0  0  0  0  0  0
   28.7300   28.1280   48.5410 C   0  0  0  0  0  3  0  0  0  0  0  0
   29.3830   28.6930   47.4630 C   0  0  0  0  0  0  0  0  0  0  0  0
   28.7240   29.4020   46.4790 C   0  0  0  0  0  3  0  0  0  0  0  0
   29.3470   29.9830   45.3920 C   0  0  0  0  0  3  0  0  0  0  0  0
   30.7050   29.8330   45.3070 C   0  0  0  0  0  3  0  0  0  0  0  0
   31.4200   29.1420   46.2480 C   0  0  0  0  0  3  0  0  0  0  0  0
   30.7570   28.5810   47.3100 C   0  0  0  0  0  0  0  0  0  0  0  0
   33.6700   28.5820   49.1470 C   0  0  0  0  0  0  0  0  0  0  0  0
   33.0710   28.7960   50.0270 H   0  0  0  0  0  0  0  0  0  0  0  0
   33.7950   29.5680   48.6210 H   0  0  0  0  0  0  0  0  0  0  0  0
   34.9410   28.0660   49.4910 O   0  0  0  0  0  0  0  0  0  0  0  0
   37.1910   30.2380   51.3460 C   0  0  0  0  0  0  0  0  0  0  0  0
   37.9300   30.7750   50.2960 C   0  0  0  0  0  0  0  0  0  0  0  0
   37.6300   30.3730   48.9960 C   0  0  0  0  0  0  0  0  0  0  0  0
   36.6100   29.4640   48.8610 N   0  0  0  0  0  0  0  0  0  0  0  0
   35.9200   28.9660   49.8870 C   0  0  0  0  0  0  0  0  0  0  0  0
   36.2150   29.3590   51.1350 N   0  0  0  0  0  0  0  0  0  0  0  0
   37.4640   30.5810   52.3270 H   0  0  0  0  0  0  0  0  0  0  0  0
   38.7420   31.4930   50.3550 H   0  0  0  0  0  0  0  0  0  0  0  0
   38.1420   30.7270   48.0970 H   0  0  0  0  0  0  0  0  0  0  0  0
  1  4  1  0  0  0  0
  1  3  1  0  0  0  0
  1 15  1  0  0  0  0
  2  1  1  0  0  0  0
  4  5  1  0  0  0  0
  5  7  2  0  0  0  0
  5  6  1  0  0  0  0
  8  7  1  0  0  0  0
  9  8  2  0  0  0  0
 10  9  1  0  0  0  0
 11 10  2  0  0  0  0
 12 11  1  0  0  0  0
 12 13  2  0  0  0  0
 13 14  1  0  0  0  0
 14  9  1  0  0  0  0
 14  4  2  0  0  0  0
 15 18  1  0  0  0  0
 15 16  1  0  0  0  0
 17 15  1  0  0  0  0
 18 23  1  0  0  0  0
 19 25  1  0  0  0  0
 20 26  1  0  0  0  0
 20 19  2  0  0  0  0
 21 20  1  0  0  0  0
 22 21  2  0  0  0  0
 22 23  1  0  0  0  0
 23 24  2  0  0  0  0
 24 19  1  0  0  0  0
 27 21  1  0  0  0  0
M  END
>  <minimizedAffinity>
-4.87130213

>  <minimizedRMSD>
3.73873949

$$$$
