
 OpenBabel03272509383D

 32 35  0  0  1  0  0  0  0  0999 V2000
   34.5160   29.1370   48.2540 C   0  0  0  0  0  0  0  0  0  0  0  0
   33.9400   28.6740   49.4430 C   0  0  0  0  0  0  0  0  0  0  0  0
   34.4690   28.9270   50.7110 C   0  0  0  0  0  0  0  0  0  0  0  0
   35.6560   29.7000   50.7670 C   0  0  0  0  0  0  0  0  0  0  0  0
   36.2280   30.1610   49.5780 C   0  0  0  0  0  0  0  0  0  0  0  0
   35.6570   29.8740   48.3730 C   0  0  0  0  0  0  0  0  0  0  0  0
   33.0240   28.0750   49.4330 H   0  0  0  0  0  0  0  0  0  0  0  0
   34.0000   28.5550   51.5910 H   0  0  0  0  0  0  0  0  0  0  0  0
   36.0190   29.8650   51.7700 H   0  0  0  0  0  0  0  0  0  0  0  0
   37.1210   30.7320   49.7670 H   0  0  0  0  0  0  0  0  0  0  0  0
   36.4230   30.4340   47.2760 C   0  0  0  0  0  0  0  0  0  0  0  0
   36.4170   30.2270   45.9130 C   0  0  0  0  0  0  0  0  0  0  0  0
   35.6740   29.4510   45.6650 H   0  0  0  0  0  0  0  0  0  0  0  0
   37.2310   30.9060   45.0400 C   0  0  0  0  0  0  0  0  0  0  0  0
   38.1180   31.8550   45.5010 C   0  0  0  0  0  0  0  0  0  0  0  0
   38.1520   32.0900   46.8560 C   0  0  0  0  0  0  0  0  0  0  0  0
   39.0580   33.0480   47.2490 C   0  0  0  0  0  0  0  0  0  0  0  0
   39.1690   33.3560   48.5870 C   0  0  0  0  0  0  0  0  0  0  0  0
   38.3770   32.7060   49.5070 C   0  0  0  0  0  0  0  0  0  0  0  0
   37.4970   31.7630   49.0520 C   0  0  0  0  0  0  0  0  0  0  0  0
   37.3190   31.3940   47.7410 C   0  0  0  0  0  0  0  0  0  0  0  0
   33.8740   28.8120   46.9950 C   0  0  1  0  0  0  0  0  0  0  0  0
   34.4210   27.8250   46.3780 O   0  0  0  0  0  0  0  0  0  0  0  0
   32.0440   31.4440   45.3070 C   0  0  0  0  0  0  0  0  0  0  0  0
   30.7170   30.9760   45.2900 C   0  0  0  0  0  0  0  0  0  0  0  0
   30.4510   29.7340   45.8750 C   0  0  0  0  0  0  0  0  0  0  0  0
   31.4790   29.0140   46.4400 N   0  0  0  0  0  0  0  0  0  0  0  0
   32.7210   29.4980   46.4320 C   0  0  0  0  0  0  0  0  0  0  0  0
   33.0010   30.6990   45.8730 N   0  0  0  0  0  0  0  0  0  0  0  0
   32.1490   32.3990   44.8390 H   0  0  0  0  0  0  0  0  0  0  0  0
   29.8930   31.5070   44.8610 H   0  0  0  0  0  0  0  0  0  0  0  0
   29.4620   29.2950   45.9090 H   0  0  0  0  0  0  0  0  0  0  0  0
  1  6  2  0  0  0  0
  1  2  1  0  0  0  0
  2  3  2  0  0  0  0
  3  4  1  0  0  0  0
  3  8  1  0  0  0  0
  4  9  1  0  0  0  0
  5 10  1  0  0  0  0
  5  4  2  0  0  0  0
  6  5  1  0  0  0  0
  7  2  1  0  0  0  0
 11 21  1  0  0  0  0
 11  6  1  0  0  0  0
 12 11  2  0  0  0  0
 13 12  1  0  0  0  0
 14 15  2  0  0  0  0
 14 12  1  0  0  0  0
 15 16  1  0  0  0  0
 16 17  2  0  0  0  0
 16 21  1  0  0  0  0
 17 18  1  0  0  0  0
 18 19  2  0  0  0  0
 20 19  1  0  0  0  0
 21 20  2  0  0  0  0
 22 23  1  1  0  0  0
 22  1  1  0  0  0  0
 24 29  1  0  0  0  0
 25 24  2  0  0  0  0
 25 26  1  0  0  0  0
 26 32  1  0  0  0  0
 26 27  2  0  0  0  0
 28 27  1  0  0  0  0
 28 22  1  0  0  0  0
 29 28  2  0  0  0  0
 30 24  1  0  0  0  0
 31 25  1  0  0  0  0
M  END
>  <minimizedAffinity>
-6.38522577

>  <minimizedRMSD>
2.40360284

$$$$
