
 OpenBabel03272502373D

 32 35  0  0  1  0  0  0  0  0999 V2000
   32.8360   28.1640   48.0780 N   0  0  0  0  0  0  0  0  0  0  0  0
   33.7090   27.9490   46.9290 C   0  0  0  0  0  0  0  0  0  0  0  0
   34.8040   28.9710   47.1460 C   0  0  0  0  0  0  0  0  0  0  0  0
   34.4470   29.7290   48.4070 C   0  0  1  0  0  0  0  0  0  0  0  0
   33.6950   28.6450   49.1600 C   0  0  0  0  0  0  0  0  0  0  0  0
   33.2050   28.0560   45.9720 H   0  0  0  0  0  0  0  0  0  0  0  0
   34.1420   26.9300   47.0960 H   0  0  0  0  0  0  0  0  0  0  0  0
   35.8040   28.5020   47.2100 H   0  0  0  0  0  0  0  0  0  0  0  0
   34.8450   29.6150   46.2400 H   0  0  0  0  0  0  0  0  0  0  0  0
   33.7920   30.5540   48.1050 H   0  0  0  0  0  0  0  0  0  0  0  0
   33.1630   28.9800   50.0420 H   0  0  0  0  0  0  0  0  0  0  0  0
   34.4490   27.8250   49.3440 H   0  0  0  0  0  0  0  0  0  0  0  0
   35.6750   30.0930   49.0820 C   0  0  0  0  0  0  0  0  0  0  0  0
   35.9740   29.9900   50.4200 C   0  0  0  0  0  0  0  0  0  0  0  0
   35.2530   29.5960   51.0880 H   0  0  0  0  0  0  0  0  0  0  0  0
   37.1620   30.3620   51.0140 C   0  0  0  0  0  3  0  0  0  0  0  0
   38.1630   30.8890   50.2240 C   0  0  0  0  0  3  0  0  0  0  0  0
   37.9280   31.0210   48.8720 C   0  0  0  0  0  0  0  0  0  0  0  0
   38.9690   31.5520   48.1510 C   0  0  0  0  0  3  0  0  0  0  0  0
   38.8290   31.7190   46.7980 C   0  0  0  0  0  3  0  0  0  0  0  0
   37.6500   31.3520   46.1930 C   0  0  0  0  0  3  0  0  0  0  0  0
   36.6530   30.8300   46.9660 C   0  0  0  0  0  3  0  0  0  0  0  0
   36.7240   30.6340   48.3300 C   0  0  0  0  0  0  0  0  0  0  0  0
   31.4430   27.9460   48.1360 C   0  0  0  0  0  0  0  0  0  0  0  0
   30.8290   27.4340   46.9980 C   0  0  0  0  0  0  0  0  0  0  0  0
   29.4500   27.1940   47.0100 C   0  0  0  0  0  0  0  0  0  0  0  0
   28.7820   27.4890   48.1820 N   0  0  0  0  0  0  0  0  0  0  0  0
   29.4220   27.9880   49.2720 C   0  0  0  0  0  0  0  0  0  0  0  0
   30.7700   28.2180   49.2460 N   0  0  0  0  0  0  0  0  0  0  0  0
   31.2890   27.1890   46.0710 H   0  0  0  0  0  0  0  0  0  0  0  0
   28.8860   26.8000   46.1790 H   0  0  0  0  0  0  0  0  0  0  0  0
   28.8100   28.1930   50.1620 H   0  0  0  0  0  0  0  0  0  0  0  0
  1 24  1  0  0  0  0
  1  5  1  0  0  0  0
  2  7  1  0  0  0  0
  2  3  1  0  0  0  0
  2  1  1  0  0  0  0
  3  8  1  0  0  0  0
  3  4  1  0  0  0  0
  4 10  1  6  0  0  0
  4 13  1  0  0  0  0
  4  5  1  0  0  0  0
  5 12  1  0  0  0  0
  5 11  1  0  0  0  0
  6  2  1  0  0  0  0
  9  3  1  0  0  0  0
 13 14  1  0  0  0  0
 14 16  2  0  0  0  0
 14 15  1  0  0  0  0
 17 16  1  0  0  0  0
 18 17  2  0  0  0  0
 19 18  1  0  0  0  0
 20 19  2  0  0  0  0
 21 20  1  0  0  0  0
 21 22  2  0  0  0  0
 22 23  1  0  0  0  0
 23 18  1  0  0  0  0
 23 13  2  0  0  0  0
 24 29  1  0  0  0  0
 25 26  1  0  0  0  0
 25 24  2  0  0  0  0
 26 27  2  0  0  0  0
 27 28  1  0  0  0  0
 28 32  1  0  0  0  0
 29 28  2  0  0  0  0
 30 25  1  0  0  0  0
 31 26  1  0  0  0  0
M  END
>  <minimizedAffinity>
-6.18612432

>  <minimizedRMSD>
4.90903187

$$$$
