
 OpenBabel03262521243D

 49 53  0  0  0  0  0  0  0  0999 V2000
   39.7650   25.1790   53.3990 C   0  0  0  0  0  0  0  0  0  0  0  0
   39.5730   26.1870   52.4650 C   0  0  0  0  0  0  0  0  0  0  0  0
   40.2000   25.9960   51.2410 C   0  0  0  0  0  0  0  0  0  0  0  0
   40.9590   24.9110   50.9390 C   0  0  0  0  0  0  0  0  0  0  0  0
   41.6510   24.4760   49.9000 N   0  0  0  0  0  0  0  0  0  0  0  0
   42.2520   23.2750   50.1330 C   0  0  0  0  0  0  0  0  0  0  0  0
   41.9050   22.9360   51.4240 C   0  0  0  0  0  0  0  0  0  0  0  0
   41.1100   23.9410   51.9190 C   0  0  0  0  0  0  0  0  0  0  0  0
   40.5240   24.0550   53.1520 C   0  0  0  0  0  0  0  0  0  0  0  0
   39.2590   25.3600   54.3470 H   0  0  0  0  0  0  0  0  0  0  0  0
   40.1120   26.7250   50.4400 H   0  0  0  0  0  0  0  0  0  0  0  0
   41.7470   24.9810   48.9750 H   0  0  0  0  0  0  0  0  0  0  0  0
   42.8720   22.7050   49.4520 H   0  0  0  0  0  0  0  0  0  0  0  0
   42.2270   22.0200   51.9280 H   0  0  0  0  0  0  0  0  0  0  0  0
   40.6790   23.0370   54.1900 C   0  0  0  0  0  0  0  0  0  0  0  0
   40.0530   21.8100   54.0860 C   0  0  0  0  0  0  0  0  0  0  0  0
   39.4310   21.5700   53.2340 H   0  0  0  0  0  0  0  0  0  0  0  0
   40.2640   20.9020   55.1310 C   0  0  0  0  0  0  0  0  0  0  0  0
   41.0660   21.2350   56.2130 C   0  0  0  0  0  0  0  0  0  0  0  0
   41.6750   22.4740   56.2790 C   0  0  0  0  0  0  0  0  0  0  0  0
   42.4730   22.7690   57.3820 C   0  0  0  0  0  0  0  0  0  0  0  0
   43.0820   24.0090   57.4480 C   0  0  0  0  0  0  0  0  0  0  0  0
   42.8890   24.9200   56.4290 C   0  0  0  0  0  0  0  0  0  0  0  0
   42.0960   24.6510   55.3140 C   0  0  0  0  0  0  0  0  0  0  0  0
   41.4930   23.3990   55.2690 C   0  0  0  0  0  0  0  0  0  0  0  0
   38.6340   27.6710   52.6430 S   0  0  0  0  0  0  0  0  0  0  0  0
   37.9420   28.2840   51.1290 C   0  0  0  0  0  0  0  0  0  0  0  0
   38.7830   28.7020   50.5100 H   0  0  0  0  0  0  0  0  0  0  0  0
   37.5550   27.4320   50.5280 H   0  0  0  0  0  0  0  0  0  0  0  0
   36.9100   29.3770   51.3190 C   0  0  0  0  0  0  0  0  0  0  0  0
   36.7510   29.4220   52.4360 H   0  0  0  0  0  0  0  0  0  0  0  0
   35.9470   28.9520   50.9590 H   0  0  0  0  0  0  0  0  0  0  0  0
   37.2710   30.5770   50.7930 C   0  0  0  0  0  0  0  0  0  0  0  0
   36.5350   31.4030   50.8860 H   0  0  0  0  0  0  0  0  0  0  0  0
   38.2480   30.9810   51.1920 H   0  0  0  0  0  0  0  0  0  0  0  0
   37.4010   30.1900   49.4910 O   0  0  0  0  0  0  0  0  0  0  0  0
   38.0600   31.0250   48.6210 C   0  0  0  0  0  0  0  0  0  0  0  0
   38.3210   32.2600   49.1640 C   0  0  0  0  0  0  0  0  0  0  0  0
   38.9920   33.2140   48.3800 C   0  0  0  0  0  0  0  0  0  0  0  0
   39.3490   32.8560   47.1160 N   0  0  0  0  0  0  0  0  0  0  0  0
   39.0730   31.6110   46.6020 C   0  0  0  0  0  0  0  0  0  0  0  0
   38.4320   30.7240   47.3740 N   0  0  0  0  0  0  0  0  0  0  0  0
   40.1120   32.4310   44.6070 C   0  0  0  0  0  0  0  0  0  0  0  0
   40.3120   33.5740   45.0930 O   0  0  0  0  0  0  0  0  0  0  0  0
   39.4910   31.3420   45.2730 N   0  0  0  0  0  0  0  0  0  0  0  0
   38.0910   32.6620   50.1410 H   0  0  0  0  0  0  0  0  0  0  0  0
   39.2400   34.2030   48.7140 H   0  0  0  0  0  0  0  0  0  0  0  0
   40.4730   32.3560   43.5920 H   0  0  0  0  0  0  0  0  0  0  0  0
   39.3540   30.4330   44.8270 H   0  0  0  0  0  0  0  0  0  0  0  0
  1 10  1  0  0  0  0
  2 26  1  0  0  0  0
  2  1  2  0  0  0  0
  3  2  1  0  0  0  0
  4  3  2  0  0  0  0
  4  8  1  0  0  0  0
  5  6  1  0  0  0  0
  5  4  1  0  0  0  0
  6  7  2  0  0  0  0
  7  8  1  0  0  0  0
  7 14  1  0  0  0  0
  8  9  2  0  0  0  0
  9  1  1  0  0  0  0
  9 15  1  0  0  0  0
 11  3  1  0  0  0  0
 12  5  1  0  0  0  0
 13  6  1  0  0  0  0
 15 25  1  0  0  0  0
 16 15  2  0  0  0  0
 16 18  1  0  0  0  0
 17 16  1  0  0  0  0
 18 19  2  0  0  0  0
 19 20  1  0  0  0  0
 20 21  1  0  0  0  0
 21 22  2  0  0  0  0
 23 22  1  0  0  0  0
 24 23  2  0  0  0  0
 25 24  1  0  0  0  0
 25 20  2  0  0  0  0
 27 30  1  0  0  0  0
 27 26  1  0  0  0  0
 28 27  1  0  0  0  0
 29 27  1  0  0  0  0
 30 31  1  0  0  0  0
 32 30  1  0  0  0  0
 33 34  1  0  0  0  0
 33 35  1  0  0  0  0
 33 30  1  0  0  0  0
 36 33  1  0  0  0  0
 37 38  1  0  0  0  0
 37 36  1  0  0  0  0
 38 46  1  0  0  0  0
 39 47  1  0  0  0  0
 39 38  2  0  0  0  0
 40 39  1  0  0  0  0
 41 40  2  0  0  0  0
 41 42  1  0  0  0  0
 42 37  2  0  0  0  0
 43 44  2  0  0  0  0
 43 45  1  0  0  0  0
 45 41  1  0  0  0  0
 48 43  1  0  0  0  0
 49 45  1  0  0  0  0
M  END
>  <minimizedAffinity>
-4.86955881

>  <minimizedRMSD>
0.954272926

$$$$
