
 OpenBabel03272503353D

 43 47  0  0  1  0  0  0  0  0999 V2000
   37.8990   24.1750   33.0980 C   0  0  0  0  0  0  0  0  0  0  0  0
   37.0020   23.2080   32.6260 C   0  0  0  0  0  0  0  0  0  0  0  0
   36.2240   23.5590   31.5160 C   0  0  0  0  0  0  0  0  0  0  0  0
   36.3970   24.8150   30.9810 N   0  0  0  0  0  0  0  0  0  0  0  0
   37.2620   25.6990   31.4680 C   0  0  0  0  0  0  0  0  0  0  0  0
   38.0190   25.3820   32.5310 N   0  0  0  0  0  0  0  0  0  0  0  0
   36.8820   22.2250   33.0610 H   0  0  0  0  0  0  0  0  0  0  0  0
   35.5150   22.8820   31.0910 H   0  0  0  0  0  0  0  0  0  0  0  0
   38.7040   23.8190   34.2400 N   0  0  0  0  0  0  0  0  0  0  0  0
   38.9500   24.6200   35.4020 C   0  0  0  0  0  0  0  0  0  0  0  0
   39.1840   23.5670   36.4830 C   0  0  2  0  0  0  0  0  0  0  0  0
   38.9220   22.2190   35.8230 C   0  0  0  0  0  0  0  0  0  0  0  0
   39.4240   22.5710   34.4300 C   0  0  0  0  0  0  0  0  0  0  0  0
   39.8850   25.1980   35.2700 H   0  0  0  0  0  0  0  0  0  0  0  0
   38.0970   25.2690   35.7000 H   0  0  0  0  0  0  0  0  0  0  0  0
   40.2660   23.5580   36.7860 H   0  0  0  0  0  0  0  0  0  0  0  0
   37.8350   21.9990   35.8040 H   0  0  0  0  0  0  0  0  0  0  0  0
   39.5090   21.4120   36.2800 H   0  0  0  0  0  0  0  0  0  0  0  0
   40.5320   22.7370   34.5420 H   0  0  0  0  0  0  0  0  0  0  0  0
   39.1830   21.8030   33.6780 H   0  0  0  0  0  0  0  0  0  0  0  0
   38.3250   23.7790   37.6900 C   0  0  0  0  0  0  0  0  0  0  0  0
   37.1120   23.1840   37.4210 F   0  0  0  0  0  0  0  0  0  0  0  0
   38.0940   25.1350   37.7800 F   0  0  0  0  0  0  0  0  0  0  0  0
   38.8850   23.3060   38.8450 F   0  0  0  0  0  0  0  0  0  0  0  0
   37.4330   27.2980   30.7280 S   0  0  0  0  0  0  0  0  0  0  0  0
   36.5310   28.5760   31.3590 C   0  0  0  0  0  0  0  0  0  0  0  0
   35.8370   29.6910   31.0140 C   0  0  0  0  0  0  0  0  0  0  0  0
   35.1970   30.5390   31.8720 C   0  0  0  0  0  0  0  0  0  0  0  0
   35.3180   30.1280   33.2870 C   0  0  0  0  0  0  0  0  0  0  0  0
   36.3170   28.6120   33.2090 S   0  0  0  0  0  0  0  0  0  0  0  0
   35.8850   29.7840   29.9390 H   0  0  0  0  0  0  0  0  0  0  0  0
   34.7150   31.4020   31.5030 H   0  0  0  0  0  0  0  0  0  0  0  0
   34.9210   30.6850   34.4870 C   0  0  0  0  0  0  0  0  0  0  0  0
   35.8290   31.6040   35.0390 C   0  0  0  0  0  0  0  0  0  0  0  0
   36.7800   31.8990   34.6020 H   0  0  0  0  0  0  0  0  0  0  0  0
   35.6060   32.2580   36.2420 C   0  0  0  0  0  3  0  0  0  0  0  0
   34.4540   32.0160   36.9480 C   0  0  0  0  0  3  0  0  0  0  0  0
   33.5110   31.1280   36.4800 C   0  0  0  0  0  0  0  0  0  0  0  0
   32.3650   30.8430   37.1860 C   0  0  0  0  0  3  0  0  0  0  0  0
   31.4490   29.9210   36.7200 C   0  0  0  0  0  3  0  0  0  0  0  0
   31.7590   29.3070   35.5070 C   0  0  0  0  0  3  0  0  0  0  0  0
   32.9060   29.6190   34.8380 C   0  0  0  0  0  3  0  0  0  0  0  0
   33.8230   30.5320   35.2840 C   0  0  0  0  0  0  0  0  0  0  0  0
  1  9  1  0  0  0  0
  2  7  1  0  0  0  0
  2  1  1  0  0  0  0
  3  2  2  0  0  0  0
  4  5  2  0  0  0  0
  4  3  1  0  0  0  0
  5  6  1  0  0  0  0
  6  1  2  0  0  0  0
  8  3  1  0  0  0  0
  9 13  1  0  0  0  0
  9 10  1  0  0  0  0
 10 15  1  0  0  0  0
 10 11  1  0  0  0  0
 11 16  1  1  0  0  0
 11 21  1  0  0  0  0
 12 18  1  0  0  0  0
 12 11  1  0  0  0  0
 13 19  1  0  0  0  0
 13 12  1  0  0  0  0
 14 10  1  0  0  0  0
 17 12  1  0  0  0  0
 20 13  1  0  0  0  0
 21 23  1  0  0  0  0
 21 24  1  0  0  0  0
 22 21  1  0  0  0  0
 25 26  1  0  0  0  0
 25  5  1  0  0  0  0
 26 30  1  0  0  0  0
 27 26  2  0  0  0  0
 27 28  1  0  0  0  0
 28 29  2  0  0  0  0
 29 33  1  0  0  0  0
 30 29  1  0  0  0  0
 31 27  1  0  0  0  0
 32 28  1  0  0  0  0
 33 34  2  0  0  0  0
 33 43  1  0  0  0  0
 34 36  1  0  0  0  0
 35 34  1  0  0  0  0
 36 37  2  0  0  0  0
 38 37  1  0  0  0  0
 38 39  1  0  0  0  0
 40 39  2  0  0  0  0
 41 40  1  0  0  0  0
 42 43  1  0  0  0  0
 42 41  2  0  0  0  0
 43 38  2  0  0  0  0
M  END
>  <minimizedAffinity>
-7.41348553

$$$$

 OpenBabel03272503353D

 43 47  0  0  1  0  0  0  0  0999 V2000
   40.0380   25.1950   34.3270 C   0  0  0  0  0  0  0  0  0  0  0  0
   41.2180   25.8300   34.7330 C   0  0  0  0  0  0  0  0  0  0  0  0
   41.6530   26.9090   33.9540 C   0  0  0  0  0  0  0  0  0  0  0  0
   40.8960   27.2580   32.8590 N   0  0  0  0  0  0  0  0  0  0  0  0
   39.7820   26.6200   32.5140 C   0  0  0  0  0  0  0  0  0  0  0  0
   39.3460   25.5830   33.2490 N   0  0  0  0  0  0  0  0  0  0  0  0
   41.7990   25.5400   35.5990 H   0  0  0  0  0  0  0  0  0  0  0  0
   42.5430   27.4510   34.1920 H   0  0  0  0  0  0  0  0  0  0  0  0
   39.5850   24.0830   35.1260 N   0  0  0  0  0  0  0  0  0  0  0  0
   40.0290   23.7300   36.4410 C   0  0  0  0  0  0  0  0  0  0  0  0
   38.8020   23.0350   37.0270 C   0  0  2  0  0  0  0  0  0  0  0  0
   37.7010   23.1700   35.9820 C   0  0  0  0  0  0  0  0  0  0  0  0
   38.5830   23.1020   34.7430 C   0  0  0  0  0  0  0  0  0  0  0  0
   40.8510   22.9920   36.3760 H   0  0  0  0  0  0  0  0  0  0  0  0
   40.2990   24.5990   37.0810 H   0  0  0  0  0  0  0  0  0  0  0  0
   38.9950   21.9320   37.1310 H   0  0  0  0  0  0  0  0  0  0  0  0
   37.2110   24.1620   36.0600 H   0  0  0  0  0  0  0  0  0  0  0  0
   36.9850   22.3410   36.0240 H   0  0  0  0  0  0  0  0  0  0  0  0
   39.0010   22.0570   34.7300 H   0  0  0  0  0  0  0  0  0  0  0  0
   38.0450   23.3560   33.8170 H   0  0  0  0  0  0  0  0  0  0  0  0
   38.3950   23.6010   38.3510 C   0  0  0  0  0  0  0  0  0  0  0  0
   39.4780   23.4610   39.1910 F   0  0  0  0  0  0  0  0  0  0  0  0
   37.4000   22.7840   38.8430 F   0  0  0  0  0  0  0  0  0  0  0  0
   37.9660   24.8980   38.2770 F   0  0  0  0  0  0  0  0  0  0  0  0
   38.8560   27.1230   31.0920 S   0  0  0  0  0  0  0  0  0  0  0  0
   37.5820   28.2080   31.3040 C   0  0  0  0  0  0  0  0  0  0  0  0
   36.9640   29.2810   30.7480 C   0  0  0  0  0  0  0  0  0  0  0  0
   35.8790   29.9380   31.2550 C   0  0  0  0  0  0  0  0  0  0  0  0
   35.3960   29.3590   32.5270 C   0  0  0  0  0  0  0  0  0  0  0  0
   36.5370   27.9780   32.8300 S   0  0  0  0  0  0  0  0  0  0  0  0
   37.4860   29.5190   29.8340 H   0  0  0  0  0  0  0  0  0  0  0  0
   35.4950   30.7880   30.7610 H   0  0  0  0  0  0  0  0  0  0  0  0
   34.4100   29.7090   33.4290 C   0  0  0  0  0  0  0  0  0  0  0  0
   33.1230   29.2510   33.1020 C   0  0  0  0  0  0  0  0  0  0  0  0
   32.8620   28.6590   32.2280 H   0  0  0  0  0  0  0  0  0  0  0  0
   32.0070   29.5100   33.8830 C   0  0  0  0  0  3  0  0  0  0  0  0
   32.1360   30.2460   35.0350 C   0  0  0  0  0  3  0  0  0  0  0  0
   33.3600   30.7360   35.4280 C   0  0  0  0  0  0  0  0  0  0  0  0
   33.5090   31.5050   36.5600 C   0  0  0  0  0  3  0  0  0  0  0  0
   34.7370   32.0210   36.9180 C   0  0  0  0  0  3  0  0  0  0  0  0
   35.8020   31.7160   36.0700 C   0  0  0  0  0  3  0  0  0  0  0  0
   35.6120   30.9480   34.9580 C   0  0  0  0  0  3  0  0  0  0  0  0
   34.4010   30.4270   34.5890 C   0  0  0  0  0  0  0  0  0  0  0  0
  1  2  1  0  0  0  0
  1  9  1  0  0  0  0
  2  7  1  0  0  0  0
  3  8  1  0  0  0  0
  3  2  2  0  0  0  0
  4  3  1  0  0  0  0
  5  4  2  0  0  0  0
  5  6  1  0  0  0  0
  6  1  2  0  0  0  0
  9 10  1  0  0  0  0
 10 11  1  0  0  0  0
 10 15  1  0  0  0  0
 11 16  1  1  0  0  0
 11 21  1  0  0  0  0
 12 18  1  0  0  0  0
 12 17  1  0  0  0  0
 12 11  1  0  0  0  0
 13  9  1  0  0  0  0
 13 12  1  0  0  0  0
 14 10  1  0  0  0  0
 19 13  1  0  0  0  0
 20 13  1  0  0  0  0
 21 23  1  0  0  0  0
 21 22  1  0  0  0  0
 24 21  1  0  0  0  0
 25 26  1  0  0  0  0
 25  5  1  0  0  0  0
 26 30  1  0  0  0  0
 27 28  1  0  0  0  0
 27 26  2  0  0  0  0
 28 29  2  0  0  0  0
 29 30  1  0  0  0  0
 29 33  1  0  0  0  0
 31 27  1  0  0  0  0
 32 28  1  0  0  0  0
 33 43  1  0  0  0  0
 34 33  2  0  0  0  0
 34 36  1  0  0  0  0
 35 34  1  0  0  0  0
 36 37  2  0  0  0  0
 37 38  1  0  0  0  0
 38 39  1  0  0  0  0
 39 40  2  0  0  0  0
 41 40  1  0  0  0  0
 42 41  2  0  0  0  0
 43 42  1  0  0  0  0
 43 38  2  0  0  0  0
M  END
>  <minimizedAffinity>
-7.29996681

$$$$

 OpenBabel03272503353D

 43 47  0  0  1  0  0  0  0  0999 V2000
   38.4340   23.9430   33.0690 C   0  0  0  0  0  0  0  0  0  0  0  0
   37.6860   22.9060   32.4980 C   0  0  0  0  0  0  0  0  0  0  0  0
   37.0560   23.1800   31.2790 C   0  0  0  0  0  0  0  0  0  0  0  0
   37.2190   24.4360   30.7390 N   0  0  0  0  0  0  0  0  0  0  0  0
   37.9400   25.3880   31.3220 C   0  0  0  0  0  0  0  0  0  0  0  0
   38.5530   25.1460   32.4920 N   0  0  0  0  0  0  0  0  0  0  0  0
   37.5710   21.9240   32.9390 H   0  0  0  0  0  0  0  0  0  0  0  0
   36.4660   22.4460   30.7740 H   0  0  0  0  0  0  0  0  0  0  0  0
   39.0860   23.6670   34.3250 N   0  0  0  0  0  0  0  0  0  0  0  0
   39.1600   24.5310   35.4650 C   0  0  0  0  0  0  0  0  0  0  0  0
   39.2670   23.5410   36.6220 C   0  0  2  0  0  0  0  0  0  0  0  0
   39.1200   22.1550   36.0070 C   0  0  0  0  0  0  0  0  0  0  0  0
   39.7970   22.4480   34.6750 C   0  0  0  0  0  0  0  0  0  0  0  0
   40.0940   25.1250   35.4260 H   0  0  0  0  0  0  0  0  0  0  0  0
   38.2630   25.1730   35.6110 H   0  0  0  0  0  0  0  0  0  0  0  0
   40.2990   23.5740   37.0660 H   0  0  0  0  0  0  0  0  0  0  0  0
   38.0500   21.9070   35.8560 H   0  0  0  0  0  0  0  0  0  0  0  0
   39.6550   21.3880   36.5800 H   0  0  0  0  0  0  0  0  0  0  0  0
   40.8770   22.6480   34.9240 H   0  0  0  0  0  0  0  0  0  0  0  0
   39.6730   21.6370   33.9410 H   0  0  0  0  0  0  0  0  0  0  0  0
   38.2510   23.7930   37.6920 C   0  0  0  0  0  0  0  0  0  0  0  0
   37.0580   23.2760   37.2330 F   0  0  0  0  0  0  0  0  0  0  0  0
   38.0890   25.1590   37.7720 F   0  0  0  0  0  0  0  0  0  0  0  0
   38.6020   23.2740   38.9070 F   0  0  0  0  0  0  0  0  0  0  0  0
   38.1060   26.9820   30.5710 S   0  0  0  0  0  0  0  0  0  0  0  0
   37.0170   28.1940   31.0070 C   0  0  0  0  0  0  0  0  0  0  0  0
   36.5410   29.4110   30.6380 C   0  0  0  0  0  0  0  0  0  0  0  0
   35.5890   30.1370   31.2970 C   0  0  0  0  0  0  0  0  0  0  0  0
   35.0840   29.4600   32.5110 C   0  0  0  0  0  0  0  0  0  0  0  0
   36.0210   27.9030   32.5540 S   0  0  0  0  0  0  0  0  0  0  0  0
   37.0500   29.6990   29.7310 H   0  0  0  0  0  0  0  0  0  0  0  0
   35.3130   31.0920   30.9460 H   0  0  0  0  0  0  0  0  0  0  0  0
   34.2040   29.8150   33.5140 C   0  0  0  0  0  0  0  0  0  0  0  0
   32.8860   29.3660   33.3260 C   0  0  0  0  0  0  0  0  0  0  0  0
   32.5280   28.7780   32.4850 H   0  0  0  0  0  0  0  0  0  0  0  0
   31.8610   29.6320   34.2230 C   0  0  0  0  0  3  0  0  0  0  0  0
   32.1180   30.3650   35.3550 C   0  0  0  0  0  3  0  0  0  0  0  0
   33.3820   30.8460   35.6150 C   0  0  0  0  0  0  0  0  0  0  0  0
   33.6560   31.6130   36.7240 C   0  0  0  0  0  3  0  0  0  0  0  0
   34.9200   32.1190   36.9490 C   0  0  0  0  0  3  0  0  0  0  0  0
   35.8850   31.8080   35.9910 C   0  0  0  0  0  3  0  0  0  0  0  0
   35.5710   31.0430   34.9060 C   0  0  0  0  0  3  0  0  0  0  0  0
   34.3240   30.5310   34.6690 C   0  0  0  0  0  0  0  0  0  0  0  0
  1  9  1  0  0  0  0
  2  7  1  0  0  0  0
  2  1  1  0  0  0  0
  3  2  2  0  0  0  0
  4  3  1  0  0  0  0
  4  5  2  0  0  0  0
  5  6  1  0  0  0  0
  6  1  2  0  0  0  0
  8  3  1  0  0  0  0
  9 13  1  0  0  0  0
  9 10  1  0  0  0  0
 10 15  1  0  0  0  0
 10 11  1  0  0  0  0
 11 16  1  1  0  0  0
 11 21  1  0  0  0  0
 12 18  1  0  0  0  0
 12 11  1  0  0  0  0
 13 19  1  0  0  0  0
 13 12  1  0  0  0  0
 14 10  1  0  0  0  0
 17 12  1  0  0  0  0
 20 13  1  0  0  0  0
 21 23  1  0  0  0  0
 21 24  1  0  0  0  0
 22 21  1  0  0  0  0
 25 26  1  0  0  0  0
 25  5  1  0  0  0  0
 26 30  1  0  0  0  0
 27 26  2  0  0  0  0
 27 28  1  0  0  0  0
 28 29  2  0  0  0  0
 29 30  1  0  0  0  0
 29 33  1  0  0  0  0
 31 27  1  0  0  0  0
 32 28  1  0  0  0  0
 33 43  1  0  0  0  0
 34 33  2  0  0  0  0
 34 36  1  0  0  0  0
 35 34  1  0  0  0  0
 36 37  2  0  0  0  0
 37 38  1  0  0  0  0
 38 39  1  0  0  0  0
 39 40  2  0  0  0  0
 41 40  1  0  0  0  0
 42 41  2  0  0  0  0
 43 42  1  0  0  0  0
 43 38  2  0  0  0  0
M  END
>  <minimizedAffinity>
-7.20874023

$$$$

 OpenBabel03272503353D

 43 47  0  0  1  0  0  0  0  0999 V2000
   39.6060   24.8630   33.6920 C   0  0  0  0  0  0  0  0  0  0  0  0
   40.8790   25.4480   33.7060 C   0  0  0  0  0  0  0  0  0  0  0  0
   41.0720   26.5540   32.8700 C   0  0  0  0  0  0  0  0  0  0  0  0
   40.0090   26.9770   32.1060 N   0  0  0  0  0  0  0  0  0  0  0  0
   38.8190   26.3860   32.1280 C   0  0  0  0  0  0  0  0  0  0  0  0
   38.6110   25.3230   32.9230 N   0  0  0  0  0  0  0  0  0  0  0  0
   41.7020   25.1000   34.3150 H   0  0  0  0  0  0  0  0  0  0  0  0
   42.0120   27.0610   32.8190 H   0  0  0  0  0  0  0  0  0  0  0  0
   39.4000   23.7230   34.5510 N   0  0  0  0  0  0  0  0  0  0  0  0
   40.3880   22.7810   34.9830 C   0  0  0  0  0  0  0  0  0  0  0  0
   39.8360   22.3180   36.3290 C   0  0  2  0  0  0  0  0  0  0  0  0
   38.5960   23.1660   36.5900 C   0  0  0  0  0  0  0  0  0  0  0  0
   38.1390   23.3120   35.1460 C   0  0  0  0  0  0  0  0  0  0  0  0
   40.4050   21.9120   34.2960 H   0  0  0  0  0  0  0  0  0  0  0  0
   41.4010   23.2150   35.1310 H   0  0  0  0  0  0  0  0  0  0  0  0
   39.4730   21.2570   36.2550 H   0  0  0  0  0  0  0  0  0  0  0  0
   38.8810   24.1510   37.0130 H   0  0  0  0  0  0  0  0  0  0  0  0
   37.8560   22.6400   37.2050 H   0  0  0  0  0  0  0  0  0  0  0  0
   37.8370   22.2780   34.8200 H   0  0  0  0  0  0  0  0  0  0  0  0
   37.3300   24.0500   35.0230 H   0  0  0  0  0  0  0  0  0  0  0  0
   40.8390   22.4320   37.4340 C   0  0  0  0  0  0  0  0  0  0  0  0
   40.2170   23.1040   38.4640 F   0  0  0  0  0  0  0  0  0  0  0  0
   41.8460   23.2520   36.9720 F   0  0  0  0  0  0  0  0  0  0  0  0
   41.3420   21.2260   37.8360 F   0  0  0  0  0  0  0  0  0  0  0  0
   37.4940   26.9830   31.1170 S   0  0  0  0  0  0  0  0  0  0  0  0
   36.6260   28.3300   31.6440 C   0  0  0  0  0  0  0  0  0  0  0  0
   36.0140   29.4640   31.2170 C   0  0  0  0  0  0  0  0  0  0  0  0
   35.3700   30.3770   32.0030 C   0  0  0  0  0  0  0  0  0  0  0  0
   35.3850   30.0170   33.4370 C   0  0  0  0  0  0  0  0  0  0  0  0
   36.3060   28.4500   33.4760 S   0  0  0  0  0  0  0  0  0  0  0  0
   36.1300   29.5110   30.1450 H   0  0  0  0  0  0  0  0  0  0  0  0
   34.9570   31.2480   31.5740 H   0  0  0  0  0  0  0  0  0  0  0  0
   34.9480   30.6410   34.5890 C   0  0  0  0  0  0  0  0  0  0  0  0
   35.8400   31.5860   35.1220 C   0  0  0  0  0  0  0  0  0  0  0  0
   36.8070   31.8530   34.7040 H   0  0  0  0  0  0  0  0  0  0  0  0
   35.5780   32.3060   36.2780 C   0  0  0  0  0  3  0  0  0  0  0  0
   34.3990   32.1070   36.9540 C   0  0  0  0  0  3  0  0  0  0  0  0
   33.4700   31.1970   36.5020 C   0  0  0  0  0  0  0  0  0  0  0  0
   32.2970   30.9550   37.1810 C   0  0  0  0  0  3  0  0  0  0  0  0
   31.3940   30.0120   36.7340 C   0  0  0  0  0  3  0  0  0  0  0  0
   31.7450   29.3300   35.5690 C   0  0  0  0  0  3  0  0  0  0  0  0
   32.9170   29.6020   34.9250 C   0  0  0  0  0  3  0  0  0  0  0  0
   33.8220   30.5350   35.3530 C   0  0  0  0  0  0  0  0  0  0  0  0
  1  2  1  0  0  0  0
  1  9  1  0  0  0  0
  2  7  1  0  0  0  0
  3  2  2  0  0  0  0
  4  5  2  0  0  0  0
  4  3  1  0  0  0  0
  5  6  1  0  0  0  0
  6  1  2  0  0  0  0
  8  3  1  0  0  0  0
  9 10  1  0  0  0  0
  9 13  1  0  0  0  0
 10 15  1  0  0  0  0
 10 11  1  0  0  0  0
 11 16  1  6  0  0  0
 11 12  1  0  0  0  0
 11 21  1  0  0  0  0
 12 17  1  0  0  0  0
 12 18  1  0  0  0  0
 13 12  1  0  0  0  0
 14 10  1  0  0  0  0
 19 13  1  0  0  0  0
 20 13  1  0  0  0  0
 21 24  1  0  0  0  0
 21 22  1  0  0  0  0
 23 21  1  0  0  0  0
 25 26  1  0  0  0  0
 25  5  1  0  0  0  0
 26 30  1  0  0  0  0
 27 26  2  0  0  0  0
 27 28  1  0  0  0  0
 28 29  2  0  0  0  0
 29 30  1  0  0  0  0
 29 33  1  0  0  0  0
 31 27  1  0  0  0  0
 32 28  1  0  0  0  0
 33 34  2  0  0  0  0
 33 43  1  0  0  0  0
 34 36  1  0  0  0  0
 35 34  1  0  0  0  0
 36 37  2  0  0  0  0
 38 37  1  0  0  0  0
 38 39  1  0  0  0  0
 40 39  2  0  0  0  0
 41 40  1  0  0  0  0
 42 43  1  0  0  0  0
 42 41  2  0  0  0  0
 43 38  2  0  0  0  0
M  END
>  <minimizedAffinity>
-7.1070323

$$$$

 OpenBabel03272503353D

 43 47  0  0  1  0  0  0  0  0999 V2000
   36.2060   30.2320   31.5150 C   0  0  0  0  0  0  0  0  0  0  0  0
   36.2150   31.0610   30.3870 C   0  0  0  0  0  0  0  0  0  0  0  0
   37.0390   30.6710   29.3250 C   0  0  0  0  0  0  0  0  0  0  0  0
   37.7710   29.5150   29.4700 N   0  0  0  0  0  0  0  0  0  0  0  0
   37.7290   28.7620   30.5650 C   0  0  0  0  0  0  0  0  0  0  0  0
   36.9440   29.1180   31.5950 N   0  0  0  0  0  0  0  0  0  0  0  0
   35.6300   31.9670   30.2920 H   0  0  0  0  0  0  0  0  0  0  0  0
   37.1060   31.2450   28.4260 H   0  0  0  0  0  0  0  0  0  0  0  0
   35.3590   30.6280   32.6130 N   0  0  0  0  0  0  0  0  0  0  0  0
   35.3890   30.1180   33.9510 C   0  0  0  0  0  0  0  0  0  0  0  0
   34.8770   31.3040   34.7660 C   0  0  2  0  0  0  0  0  0  0  0  0
   34.7110   32.4540   33.7800 C   0  0  0  0  0  0  0  0  0  0  0  0
   34.3050   31.6280   32.5680 C   0  0  0  0  0  0  0  0  0  0  0  0
   34.6650   29.2870   34.0530 H   0  0  0  0  0  0  0  0  0  0  0  0
   36.4030   29.8360   34.3100 H   0  0  0  0  0  0  0  0  0  0  0  0
   33.8490   31.0860   35.1630 H   0  0  0  0  0  0  0  0  0  0  0  0
   35.6830   32.9580   33.6030 H   0  0  0  0  0  0  0  0  0  0  0  0
   33.9220   33.1520   34.0860 H   0  0  0  0  0  0  0  0  0  0  0  0
   33.2990   31.1910   32.8250 H   0  0  0  0  0  0  0  0  0  0  0  0
   34.2880   32.2120   31.6340 H   0  0  0  0  0  0  0  0  0  0  0  0
   35.7880   31.6610   35.8990 C   0  0  0  0  0  0  0  0  0  0  0  0
   36.6750   30.6150   36.0380 F   0  0  0  0  0  0  0  0  0  0  0  0
   35.0140   31.6830   37.0390 F   0  0  0  0  0  0  0  0  0  0  0  0
   36.4280   32.8570   35.7240 F   0  0  0  0  0  0  0  0  0  0  0  0
   38.6980   27.2860   30.6840 S   0  0  0  0  0  0  0  0  0  0  0  0
   39.3850   26.8920   32.1730 C   0  0  0  0  0  0  0  0  0  0  0  0
   40.4230   27.1760   33.0000 C   0  0  0  0  0  0  0  0  0  0  0  0
   40.6630   26.6040   34.2180 C   0  0  0  0  0  0  0  0  0  0  0  0
   39.6480   25.5970   34.5920 C   0  0  0  0  0  0  0  0  0  0  0  0
   38.5040   25.5950   33.1800 S   0  0  0  0  0  0  0  0  0  0  0  0
   41.0230   27.9340   32.5210 H   0  0  0  0  0  0  0  0  0  0  0  0
   41.5230   26.8700   34.7680 H   0  0  0  0  0  0  0  0  0  0  0  0
   39.5050   24.7250   35.6540 C   0  0  0  0  0  0  0  0  0  0  0  0
   38.3800   24.9620   36.4620 C   0  0  0  0  0  0  0  0  0  0  0  0
   37.6430   25.7460   36.3110 H   0  0  0  0  0  0  0  0  0  0  0  0
   38.0750   24.1960   37.5780 C   0  0  0  0  0  3  0  0  0  0  0  0
   38.8930   23.1520   37.9330 C   0  0  0  0  0  3  0  0  0  0  0  0
   40.0180   22.8520   37.1980 C   0  0  0  0  0  0  0  0  0  0  0  0
   40.8720   21.8330   37.5540 C   0  0  0  0  0  3  0  0  0  0  0  0
   42.0150   21.5710   36.8270 C   0  0  0  0  0  3  0  0  0  0  0  0
   42.2460   22.3970   35.7260 C   0  0  0  0  0  3  0  0  0  0  0  0
   41.3730   23.3960   35.4070 C   0  0  0  0  0  3  0  0  0  0  0  0
   40.2330   23.6670   36.1150 C   0  0  0  0  0  0  0  0  0  0  0  0
  1  6  1  0  0  0  0
  1  9  1  0  0  0  0
  2  1  2  0  0  0  0
  3  4  2  0  0  0  0
  3  2  1  0  0  0  0
  4  5  1  0  0  0  0
  5 25  1  0  0  0  0
  5  6  2  0  0  0  0
  7  2  1  0  0  0  0
  8  3  1  0  0  0  0
  9 10  1  0  0  0  0
 10 14  1  0  0  0  0
 10 15  1  0  0  0  0
 10 11  1  0  0  0  0
 11 16  1  1  0  0  0
 11 21  1  0  0  0  0
 12 18  1  0  0  0  0
 12 11  1  0  0  0  0
 13  9  1  0  0  0  0
 13 19  1  0  0  0  0
 13 12  1  0  0  0  0
 17 12  1  0  0  0  0
 20 13  1  0  0  0  0
 21 22  1  0  0  0  0
 21 23  1  0  0  0  0
 24 21  1  0  0  0  0
 25 26  1  0  0  0  0
 26 27  2  0  0  0  0
 26 30  1  0  0  0  0
 27 28  1  0  0  0  0
 28 29  2  0  0  0  0
 28 32  1  0  0  0  0
 29 33  1  0  0  0  0
 30 29  1  0  0  0  0
 31 27  1  0  0  0  0
 33 43  2  0  0  0  0
 33 34  1  0  0  0  0
 34 36  2  0  0  0  0
 35 34  1  0  0  0  0
 36 37  1  0  0  0  0
 38 39  1  0  0  0  0
 38 37  2  0  0  0  0
 40 39  2  0  0  0  0
 41 40  1  0  0  0  0
 42 41  2  0  0  0  0
 42 43  1  0  0  0  0
 43 38  1  0  0  0  0
M  END
>  <minimizedAffinity>
-7.06115675

$$$$

 OpenBabel03272503353D

 43 47  0  0  1  0  0  0  0  0999 V2000
   37.9830   23.3380   33.0590 C   0  0  0  0  0  0  0  0  0  0  0  0
   38.3980   23.1870   34.3870 C   0  0  0  0  0  0  0  0  0  0  0  0
   38.7920   24.3500   35.0600 C   0  0  0  0  0  0  0  0  0  0  0  0
   38.7420   25.5400   34.3710 N   0  0  0  0  0  0  0  0  0  0  0  0
   38.3400   25.6300   33.1070 C   0  0  0  0  0  0  0  0  0  0  0  0
   37.9570   24.5270   32.4430 N   0  0  0  0  0  0  0  0  0  0  0  0
   38.4290   22.2410   34.9120 H   0  0  0  0  0  0  0  0  0  0  0  0
   39.1230   24.3260   36.0760 H   0  0  0  0  0  0  0  0  0  0  0  0
   37.5750   22.1440   32.3600 N   0  0  0  0  0  0  0  0  0  0  0  0
   37.4130   20.8340   32.9170 C   0  0  0  0  0  0  0  0  0  0  0  0
   36.3460   20.2220   32.0120 C   0  0  2  0  0  0  0  0  0  0  0  0
   35.9090   21.3330   31.0640 C   0  0  0  0  0  0  0  0  0  0  0  0
   37.2500   22.0430   30.9470 C   0  0  0  0  0  0  0  0  0  0  0  0
   38.3480   20.2550   32.7950 H   0  0  0  0  0  0  0  0  0  0  0  0
   37.0510   20.8260   33.9690 H   0  0  0  0  0  0  0  0  0  0  0  0
   36.7990   19.4240   31.3640 H   0  0  0  0  0  0  0  0  0  0  0  0
   35.1590   21.9880   31.5520 H   0  0  0  0  0  0  0  0  0  0  0  0
   35.5640   20.9430   30.0980 H   0  0  0  0  0  0  0  0  0  0  0  0
   37.9270   21.3210   30.4100 H   0  0  0  0  0  0  0  0  0  0  0  0
   37.1780   23.0170   30.4380 H   0  0  0  0  0  0  0  0  0  0  0  0
   35.1950   19.6530   32.7800 C   0  0  0  0  0  0  0  0  0  0  0  0
   35.1490   20.3280   33.9810 F   0  0  0  0  0  0  0  0  0  0  0  0
   35.5190   18.3450   33.0700 F   0  0  0  0  0  0  0  0  0  0  0  0
   34.0070   19.7200   32.1070 F   0  0  0  0  0  0  0  0  0  0  0  0
   38.3010   27.1950   32.2810 S   0  0  0  0  0  0  0  0  0  0  0  0
   36.9460   28.1790   32.4860 C   0  0  0  0  0  0  0  0  0  0  0  0
   36.0770   28.9830   31.8230 C   0  0  0  0  0  0  0  0  0  0  0  0
   35.0280   29.6640   32.3740 C   0  0  0  0  0  0  0  0  0  0  0  0
   34.8990   29.4450   33.8300 C   0  0  0  0  0  0  0  0  0  0  0  0
   36.2720   28.3180   34.2170 S   0  0  0  0  0  0  0  0  0  0  0  0
   36.3650   28.9860   30.7830 H   0  0  0  0  0  0  0  0  0  0  0  0
   34.4310   30.2940   31.7740 H   0  0  0  0  0  0  0  0  0  0  0  0
   34.0720   29.9580   34.8100 C   0  0  0  0  0  0  0  0  0  0  0  0
   32.8720   29.2510   34.9960 C   0  0  0  0  0  0  0  0  0  0  0  0
   32.5660   28.3630   34.4500 H   0  0  0  0  0  0  0  0  0  0  0  0
   31.9130   29.6200   35.9280 C   0  0  0  0  0  3  0  0  0  0  0  0
   32.1200   30.7240   36.7190 C   0  0  0  0  0  3  0  0  0  0  0  0
   33.2670   31.4750   36.6000 C   0  0  0  0  0  0  0  0  0  0  0  0
   33.4810   32.6040   37.3570 C   0  0  0  0  0  3  0  0  0  0  0  0
   34.6200   33.3670   37.1980 C   0  0  0  0  0  3  0  0  0  0  0  0
   35.5250   32.9250   36.2320 C   0  0  0  0  0  3  0  0  0  0  0  0
   35.2750   31.7980   35.5040 C   0  0  0  0  0  3  0  0  0  0  0  0
   34.1520   31.0290   35.6510 C   0  0  0  0  0  0  0  0  0  0  0  0
  1  2  1  0  0  0  0
  2  7  1  0  0  0  0
  2  3  2  0  0  0  0
  3  8  1  0  0  0  0
  4  3  1  0  0  0  0
  5  4  2  0  0  0  0
  6  1  2  0  0  0  0
  6  5  1  0  0  0  0
  9 10  1  0  0  0  0
  9  1  1  0  0  0  0
 10 15  1  0  0  0  0
 11 16  1  6  0  0  0
 11 21  1  0  0  0  0
 11 10  1  0  0  0  0
 12 17  1  0  0  0  0
 12 11  1  0  0  0  0
 13 12  1  0  0  0  0
 13  9  1  0  0  0  0
 14 10  1  0  0  0  0
 18 12  1  0  0  0  0
 19 13  1  0  0  0  0
 20 13  1  0  0  0  0
 21 23  1  0  0  0  0
 21 22  1  0  0  0  0
 24 21  1  0  0  0  0
 25 26  1  0  0  0  0
 25  5  1  0  0  0  0
 26 30  1  0  0  0  0
 27 28  1  0  0  0  0
 27 26  2  0  0  0  0
 28 29  2  0  0  0  0
 29 30  1  0  0  0  0
 29 33  1  0  0  0  0
 31 27  1  0  0  0  0
 32 28  1  0  0  0  0
 33 34  2  0  0  0  0
 33 43  1  0  0  0  0
 34 36  1  0  0  0  0
 35 34  1  0  0  0  0
 36 37  2  0  0  0  0
 38 37  1  0  0  0  0
 38 39  1  0  0  0  0
 40 39  2  0  0  0  0
 41 40  1  0  0  0  0
 42 43  1  0  0  0  0
 42 41  2  0  0  0  0
 43 38  2  0  0  0  0
M  END
>  <minimizedAffinity>
-7.04680014

$$$$

 OpenBabel03272503353D

 43 47  0  0  1  0  0  0  0  0999 V2000
   38.1880   23.8520   32.5570 C   0  0  0  0  0  0  0  0  0  0  0  0
   39.0060   24.2190   33.6330 C   0  0  0  0  0  0  0  0  0  0  0  0
   39.2520   25.5860   33.7990 C   0  0  0  0  0  0  0  0  0  0  0  0
   38.6780   26.4570   32.9010 N   0  0  0  0  0  0  0  0  0  0  0  0
   37.9080   26.0580   31.8940 C   0  0  0  0  0  0  0  0  0  0  0  0
   37.6590   24.7500   31.7170 N   0  0  0  0  0  0  0  0  0  0  0  0
   39.4480   23.5180   34.3280 H   0  0  0  0  0  0  0  0  0  0  0  0
   39.8650   25.9540   34.5930 H   0  0  0  0  0  0  0  0  0  0  0  0
   37.9300   22.4440   32.3800 N   0  0  0  0  0  0  0  0  0  0  0  0
   37.5630   21.5020   33.3950 C   0  0  0  0  0  0  0  0  0  0  0  0
   36.7540   20.4720   32.6100 C   0  0  2  0  0  0  0  0  0  0  0  0
   36.6420   21.0160   31.1910 C   0  0  0  0  0  0  0  0  0  0  0  0
   37.9950   21.7080   31.1280 C   0  0  0  0  0  0  0  0  0  0  0  0
   38.4690   21.0050   33.7930 H   0  0  0  0  0  0  0  0  0  0  0  0
   36.9300   21.9260   34.2050 H   0  0  0  0  0  0  0  0  0  0  0  0
   37.3290   19.5100   32.5280 H   0  0  0  0  0  0  0  0  0  0  0  0
   35.8190   21.7560   31.1220 H   0  0  0  0  0  0  0  0  0  0  0  0
   36.5540   20.2160   30.4460 H   0  0  0  0  0  0  0  0  0  0  0  0
   38.7590   20.8810   31.1660 H   0  0  0  0  0  0  0  0  0  0  0  0
   38.1100   22.3520   30.2420 H   0  0  0  0  0  0  0  0  0  0  0  0
   35.4130   20.2060   33.2190 C   0  0  0  0  0  0  0  0  0  0  0  0
   35.4420   20.7420   34.4890 F   0  0  0  0  0  0  0  0  0  0  0  0
   35.3070   18.8400   33.3650 F   0  0  0  0  0  0  0  0  0  0  0  0
   34.3740   20.6960   32.4780 F   0  0  0  0  0  0  0  0  0  0  0  0
   37.2010   27.2330   30.7760 S   0  0  0  0  0  0  0  0  0  0  0  0
   36.4610   28.6080   31.4160 C   0  0  0  0  0  0  0  0  0  0  0  0
   35.9920   29.8400   31.0920 C   0  0  0  0  0  0  0  0  0  0  0  0
   35.4190   30.7350   31.9510 C   0  0  0  0  0  0  0  0  0  0  0  0
   35.3390   30.2330   33.3390 C   0  0  0  0  0  0  0  0  0  0  0  0
   36.0840   28.5780   33.2400 S   0  0  0  0  0  0  0  0  0  0  0  0
   36.1550   29.9820   30.0340 H   0  0  0  0  0  0  0  0  0  0  0  0
   35.1190   31.6850   31.6030 H   0  0  0  0  0  0  0  0  0  0  0  0
   34.9260   30.7820   34.5370 C   0  0  0  0  0  0  0  0  0  0  0  0
   35.8340   31.6840   35.1160 C   0  0  0  0  0  0  0  0  0  0  0  0
   36.7960   31.9730   34.6990 H   0  0  0  0  0  0  0  0  0  0  0  0
   35.5970   32.3280   36.3210 C   0  0  0  0  0  3  0  0  0  0  0  0
   34.4280   32.0920   37.0020 C   0  0  0  0  0  3  0  0  0  0  0  0
   33.4850   31.2200   36.5080 C   0  0  0  0  0  0  0  0  0  0  0  0
   32.3220   30.9410   37.1890 C   0  0  0  0  0  3  0  0  0  0  0  0
   31.4050   30.0350   36.6970 C   0  0  0  0  0  3  0  0  0  0  0  0
   31.7300   29.4300   35.4840 C   0  0  0  0  0  3  0  0  0  0  0  0
   32.8940   29.7360   34.8390 C   0  0  0  0  0  3  0  0  0  0  0  0
   33.8120   30.6340   35.3110 C   0  0  0  0  0  0  0  0  0  0  0  0
  1  2  1  0  0  0  0
  2  3  2  0  0  0  0
  2  7  1  0  0  0  0
  3  8  1  0  0  0  0
  4  3  1  0  0  0  0
  5  4  2  0  0  0  0
  6  5  1  0  0  0  0
  6  1  2  0  0  0  0
  9  1  1  0  0  0  0
  9 10  1  0  0  0  0
 10 14  1  0  0  0  0
 10 15  1  0  0  0  0
 11 16  1  6  0  0  0
 11 21  1  0  0  0  0
 11 10  1  0  0  0  0
 12 11  1  0  0  0  0
 13 19  1  0  0  0  0
 13 12  1  0  0  0  0
 13  9  1  0  0  0  0
 17 12  1  0  0  0  0
 18 12  1  0  0  0  0
 20 13  1  0  0  0  0
 21 23  1  0  0  0  0
 21 22  1  0  0  0  0
 24 21  1  0  0  0  0
 25 26  1  0  0  0  0
 25  5  1  0  0  0  0
 26 30  1  0  0  0  0
 27 26  2  0  0  0  0
 27 28  1  0  0  0  0
 28 29  2  0  0  0  0
 29 33  1  0  0  0  0
 30 29  1  0  0  0  0
 31 27  1  0  0  0  0
 32 28  1  0  0  0  0
 33 34  2  0  0  0  0
 33 43  1  0  0  0  0
 34 36  1  0  0  0  0
 35 34  1  0  0  0  0
 36 37  2  0  0  0  0
 38 37  1  0  0  0  0
 38 39  1  0  0  0  0
 40 39  2  0  0  0  0
 41 40  1  0  0  0  0
 42 43  1  0  0  0  0
 42 41  2  0  0  0  0
 43 38  2  0  0  0  0
M  END
>  <minimizedAffinity>
-7.02702284

$$$$

 OpenBabel03272503353D

 43 47  0  0  1  0  0  0  0  0999 V2000
   37.3500   24.0540   32.9120 C   0  0  0  0  0  0  0  0  0  0  0  0
   36.8340   23.1400   31.9850 C   0  0  0  0  0  0  0  0  0  0  0  0
   35.9980   23.6570   30.9890 C   0  0  0  0  0  0  0  0  0  0  0  0
   35.7500   25.0110   30.9960 N   0  0  0  0  0  0  0  0  0  0  0  0
   36.2640   25.8380   31.9010 C   0  0  0  0  0  0  0  0  0  0  0  0
   37.0690   25.3620   32.8660 N   0  0  0  0  0  0  0  0  0  0  0  0
   37.0420   22.0780   31.9960 H   0  0  0  0  0  0  0  0  0  0  0  0
   35.5620   23.0310   30.2410 H   0  0  0  0  0  0  0  0  0  0  0  0
   38.2120   23.5270   33.9410 N   0  0  0  0  0  0  0  0  0  0  0  0
   38.8650   24.2670   34.9790 C   0  0  0  0  0  0  0  0  0  0  0  0
   38.9850   23.2320   36.0960 C   0  0  2  0  0  0  0  0  0  0  0  0
   38.2530   21.9900   35.6000 C   0  0  0  0  0  0  0  0  0  0  0  0
   38.5840   22.1330   34.1210 C   0  0  0  0  0  0  0  0  0  0  0  0
   39.8840   24.5500   34.6550 H   0  0  0  0  0  0  0  0  0  0  0  0
   38.2870   25.1420   35.3500 H   0  0  0  0  0  0  0  0  0  0  0  0
   40.0580   22.9270   36.2270 H   0  0  0  0  0  0  0  0  0  0  0  0
   37.1620   22.0880   35.7690 H   0  0  0  0  0  0  0  0  0  0  0  0
   38.6660   21.0680   36.0270 H   0  0  0  0  0  0  0  0  0  0  0  0
   39.6970   21.9820   34.0460 H   0  0  0  0  0  0  0  0  0  0  0  0
   38.0160   21.4370   33.4840 H   0  0  0  0  0  0  0  0  0  0  0  0
   38.4390   23.7240   37.3990 C   0  0  0  0  0  0  0  0  0  0  0  0
   37.1950   23.1500   37.5490 F   0  0  0  0  0  0  0  0  0  0  0  0
   38.2380   25.0810   37.2590 F   0  0  0  0  0  0  0  0  0  0  0  0
   39.2570   23.4630   38.4640 F   0  0  0  0  0  0  0  0  0  0  0  0
   35.9030   27.5700   31.8510 S   0  0  0  0  0  0  0  0  0  0  0  0
   36.0500   28.4630   33.2740 C   0  0  0  0  0  0  0  0  0  0  0  0
   36.6480   28.4760   34.4920 C   0  0  0  0  0  0  0  0  0  0  0  0
   36.5120   29.4440   35.4470 C   0  0  0  0  0  0  0  0  0  0  0  0
   35.6150   30.5440   35.0300 C   0  0  0  0  0  0  0  0  0  0  0  0
   35.0900   30.0580   33.3590 S   0  0  0  0  0  0  0  0  0  0  0  0
   37.2490   27.5830   34.5690 H   0  0  0  0  0  0  0  0  0  0  0  0
   36.9930   29.3400   36.3800 H   0  0  0  0  0  0  0  0  0  0  0  0
   35.1220   31.6710   35.6560 C   0  0  0  0  0  0  0  0  0  0  0  0
   33.8860   31.4940   36.3000 C   0  0  0  0  0  0  0  0  0  0  0  0
   33.3190   30.5670   36.3440 H   0  0  0  0  0  0  0  0  0  0  0  0
   33.2310   32.5140   36.9750 C   0  0  0  0  0  3  0  0  0  0  0  0
   33.7940   33.7650   37.0320 C   0  0  0  0  0  3  0  0  0  0  0  0
   35.0010   34.0260   36.4260 C   0  0  0  0  0  0  0  0  0  0  0  0
   35.5670   35.2810   36.4390 C   0  0  0  0  0  3  0  0  0  0  0  0
   36.7600   35.5340   35.7930 C   0  0  0  0  0  3  0  0  0  0  0  0
   37.3430   34.4520   35.1340 C   0  0  0  0  0  3  0  0  0  0  0  0
   36.7490   33.2230   35.1460 C   0  0  0  0  0  3  0  0  0  0  0  0
   35.5680   32.9540   35.7840 C   0  0  0  0  0  0  0  0  0  0  0  0
  1  9  1  0  0  0  0
  2  7  1  0  0  0  0
  2  1  2  0  0  0  0
  3  4  2  0  0  0  0
  3  2  1  0  0  0  0
  4  5  1  0  0  0  0
  5  6  2  0  0  0  0
  6  1  1  0  0  0  0
  8  3  1  0  0  0  0
  9 13  1  0  0  0  0
  9 10  1  0  0  0  0
 10 15  1  0  0  0  0
 10 11  1  0  0  0  0
 11 16  1  1  0  0  0
 11 21  1  0  0  0  0
 12 17  1  0  0  0  0
 12 18  1  0  0  0  0
 12 11  1  0  0  0  0
 13 12  1  0  0  0  0
 14 10  1  0  0  0  0
 19 13  1  0  0  0  0
 20 13  1  0  0  0  0
 21 22  1  0  0  0  0
 21 24  1  0  0  0  0
 23 21  1  0  0  0  0
 25  5  1  0  0  0  0
 25 26  1  0  0  0  0
 26 30  1  0  0  0  0
 26 27  2  0  0  0  0
 27 31  1  0  0  0  0
 27 28  1  0  0  0  0
 28 32  1  0  0  0  0
 29 28  2  0  0  0  0
 29 33  1  0  0  0  0
 30 29  1  0  0  0  0
 33 43  2  0  0  0  0
 33 34  1  0  0  0  0
 34 35  1  0  0  0  0
 34 36  2  0  0  0  0
 36 37  1  0  0  0  0
 38 39  1  0  0  0  0
 38 37  2  0  0  0  0
 40 39  2  0  0  0  0
 41 42  2  0  0  0  0
 41 40  1  0  0  0  0
 42 43  1  0  0  0  0
 43 38  1  0  0  0  0
M  END
>  <minimizedAffinity>
-6.82058764

$$$$

 OpenBabel03272503353D

 43 47  0  0  1  0  0  0  0  0999 V2000
   38.0360   23.7640   33.1820 C   0  0  0  0  0  0  0  0  0  0  0  0
   37.6110   22.7250   32.3440 C   0  0  0  0  0  0  0  0  0  0  0  0
   37.4240   23.0420   30.9940 C   0  0  0  0  0  0  0  0  0  0  0  0
   37.6700   24.3360   30.5960 N   0  0  0  0  0  0  0  0  0  0  0  0
   38.0710   25.2880   31.4330 C   0  0  0  0  0  0  0  0  0  0  0  0
   38.2570   25.0060   32.7330 N   0  0  0  0  0  0  0  0  0  0  0  0
   37.4240   21.7130   32.6770 H   0  0  0  0  0  0  0  0  0  0  0  0
   37.1020   22.3090   30.2850 H   0  0  0  0  0  0  0  0  0  0  0  0
   38.2300   23.4450   34.5750 N   0  0  0  0  0  0  0  0  0  0  0  0
   38.7340   22.2170   35.1140 C   0  0  0  0  0  0  0  0  0  0  0  0
   39.3830   22.6730   36.4190 C   0  0  2  0  0  0  0  0  0  0  0  0
   39.2780   24.1940   36.4330 C   0  0  0  0  0  0  0  0  0  0  0  0
   37.9480   24.3150   35.7040 C   0  0  0  0  0  0  0  0  0  0  0  0
   37.8930   21.5410   35.3610 H   0  0  0  0  0  0  0  0  0  0  0  0
   39.4980   21.7180   34.4790 H   0  0  0  0  0  0  0  0  0  0  0  0
   38.7800   22.3140   37.2970 H   0  0  0  0  0  0  0  0  0  0  0  0
   40.0950   24.6460   35.8360 H   0  0  0  0  0  0  0  0  0  0  0  0
   39.2270   24.5970   37.4520 H   0  0  0  0  0  0  0  0  0  0  0  0
   37.1820   23.8690   36.3980 H   0  0  0  0  0  0  0  0  0  0  0  0
   37.7070   25.3510   35.4160 H   0  0  0  0  0  0  0  0  0  0  0  0
   40.7980   22.2050   36.5540 C   0  0  0  0  0  0  0  0  0  0  0  0
   40.8840   21.5530   37.7650 F   0  0  0  0  0  0  0  0  0  0  0  0
   41.5810   23.3350   36.6520 F   0  0  0  0  0  0  0  0  0  0  0  0
   41.2100   21.4180   35.5150 F   0  0  0  0  0  0  0  0  0  0  0  0
   38.3690   26.9330   30.8530 S   0  0  0  0  0  0  0  0  0  0  0  0
   37.2120   28.1190   31.1690 C   0  0  0  0  0  0  0  0  0  0  0  0
   36.6780   29.2720   30.6900 C   0  0  0  0  0  0  0  0  0  0  0  0
   35.6800   30.0010   31.2730 C   0  0  0  0  0  0  0  0  0  0  0  0
   35.1930   29.4060   32.5360 C   0  0  0  0  0  0  0  0  0  0  0  0
   36.2090   27.9100   32.7250 S   0  0  0  0  0  0  0  0  0  0  0  0
   37.1860   29.5070   29.7670 H   0  0  0  0  0  0  0  0  0  0  0  0
   35.3610   30.9060   30.8360 H   0  0  0  0  0  0  0  0  0  0  0  0
   34.2800   29.7990   33.4940 C   0  0  0  0  0  0  0  0  0  0  0  0
   32.9630   29.3640   33.2670 C   0  0  0  0  0  0  0  0  0  0  0  0
   32.6300   28.7590   32.4280 H   0  0  0  0  0  0  0  0  0  0  0  0
   31.9090   29.6670   34.1170 C   0  0  0  0  0  3  0  0  0  0  0  0
   32.1330   30.4270   35.2380 C   0  0  0  0  0  3  0  0  0  0  0  0
   33.3930   30.8970   35.5340 C   0  0  0  0  0  0  0  0  0  0  0  0
   33.6350   31.6890   36.6340 C   0  0  0  0  0  3  0  0  0  0  0  0
   34.8970   32.1830   36.8950 C   0  0  0  0  0  3  0  0  0  0  0  0
   35.8940   31.8340   35.9830 C   0  0  0  0  0  3  0  0  0  0  0  0
   35.6110   31.0450   34.9060 C   0  0  0  0  0  3  0  0  0  0  0  0
   34.3660   30.5440   34.6340 C   0  0  0  0  0  0  0  0  0  0  0  0
  1  9  1  0  0  0  0
  2  7  1  0  0  0  0
  2  1  2  0  0  0  0
  3  2  1  0  0  0  0
  4  3  2  0  0  0  0
  4  5  1  0  0  0  0
  5  6  2  0  0  0  0
  6  1  1  0  0  0  0
  8  3  1  0  0  0  0
  9 10  1  0  0  0  0
  9 13  1  0  0  0  0
 10 14  1  0  0  0  0
 10 11  1  0  0  0  0
 11 12  1  0  0  0  0
 11 21  1  0  0  0  0
 11 16  1  1  0  0  0
 12 18  1  0  0  0  0
 13 19  1  0  0  0  0
 13 12  1  0  0  0  0
 15 10  1  0  0  0  0
 17 12  1  0  0  0  0
 20 13  1  0  0  0  0
 21 23  1  0  0  0  0
 21 22  1  0  0  0  0
 24 21  1  0  0  0  0
 25 26  1  0  0  0  0
 25  5  1  0  0  0  0
 26 30  1  0  0  0  0
 27 26  2  0  0  0  0
 27 28  1  0  0  0  0
 28 29  2  0  0  0  0
 29 30  1  0  0  0  0
 29 33  1  0  0  0  0
 31 27  1  0  0  0  0
 32 28  1  0  0  0  0
 33 43  1  0  0  0  0
 34 33  2  0  0  0  0
 34 36  1  0  0  0  0
 35 34  1  0  0  0  0
 36 37  2  0  0  0  0
 37 38  1  0  0  0  0
 38 39  1  0  0  0  0
 39 40  2  0  0  0  0
 41 40  1  0  0  0  0
 42 41  2  0  0  0  0
 43 42  1  0  0  0  0
 43 38  2  0  0  0  0
M  END
>  <minimizedAffinity>
-6.79827833

$$$$
