
 OpenBabel03272509473D

 27 29  0  0  0  0  0  0  0  0999 V2000
   33.9010   27.0600   48.0020 C   0  0  0  0  0  0  0  0  0  0  0  0
   34.8040   26.4290   48.0240 H   0  0  0  0  0  0  0  0  0  0  0  0
   33.1770   26.5340   48.6900 H   0  0  0  0  0  0  0  0  0  0  0  0
   33.3170   27.1520   46.6490 C   0  0  0  0  0  0  0  0  0  0  0  0
   33.0420   28.4190   46.1500 C   0  0  0  0  0  0  0  0  0  0  0  0
   33.2760   29.2920   46.7510 H   0  0  0  0  0  0  0  0  0  0  0  0
   32.4820   28.7040   44.9270 C   0  0  0  0  0  3  0  0  0  0  0  0
   32.1700   27.5980   44.1290 C   0  0  0  0  0  3  0  0  0  0  0  0
   32.4260   26.3190   44.5840 C   0  0  0  0  0  0  0  0  0  0  0  0
   32.1420   25.1930   43.8380 C   0  0  0  0  0  3  0  0  0  0  0  0
   32.3900   23.9020   44.2610 C   0  0  0  0  0  3  0  0  0  0  0  0
   32.9530   23.7550   45.5000 C   0  0  0  0  0  3  0  0  0  0  0  0
   33.2580   24.8300   46.2900 C   0  0  0  0  0  3  0  0  0  0  0  0
   32.9930   26.0950   45.8280 C   0  0  0  0  0  0  0  0  0  0  0  0
   34.1430   28.4190   48.5680 C   0  0  0  0  0  0  0  0  0  0  0  0
   33.2460   29.0310   48.5650 H   0  0  0  0  0  0  0  0  0  0  0  0
   34.8600   28.9320   47.8700 H   0  0  0  0  0  0  0  0  0  0  0  0
   34.7170   28.3340   49.8580 O   0  0  0  0  0  0  0  0  0  0  0  0
   37.3890   30.2580   51.4010 C   0  0  0  0  0  0  0  0  0  0  0  0
   38.0760   30.6740   50.2640 C   0  0  0  0  0  0  0  0  0  0  0  0
   37.5990   30.2800   49.0160 C   0  0  0  0  0  0  0  0  0  0  0  0
   36.4690   29.5000   49.0150 N   0  0  0  0  0  0  0  0  0  0  0  0
   35.8320   29.1170   50.1220 C   0  0  0  0  0  0  0  0  0  0  0  0
   36.2980   29.5010   51.3190 N   0  0  0  0  0  0  0  0  0  0  0  0
   37.8000   30.5890   52.3360 H   0  0  0  0  0  0  0  0  0  0  0  0
   38.9700   31.2870   50.2170 H   0  0  0  0  0  0  0  0  0  0  0  0
   38.0550   30.5460   48.0580 H   0  0  0  0  0  0  0  0  0  0  0  0
  1  2  1  0  0  0  0
  1 15  1  0  0  0  0
  1  3  1  0  0  0  0
  4  1  1  0  0  0  0
  5  4  1  0  0  0  0
  5  6  1  0  0  0  0
  7  5  2  0  0  0  0
  8  9  2  0  0  0  0
  8  7  1  0  0  0  0
  9 14  1  0  0  0  0
 10 11  2  0  0  0  0
 10  9  1  0  0  0  0
 11 12  1  0  0  0  0
 12 13  2  0  0  0  0
 14 13  1  0  0  0  0
 14  4  2  0  0  0  0
 15 18  1  0  0  0  0
 16 15  1  0  0  0  0
 17 15  1  0  0  0  0
 18 23  1  0  0  0  0
 19 25  1  0  0  0  0
 20 19  2  0  0  0  0
 21 20  1  0  0  0  0
 22 21  2  0  0  0  0
 22 23  1  0  0  0  0
 23 24  2  0  0  0  0
 24 19  1  0  0  0  0
 26 20  1  0  0  0  0
 27 21  1  0  0  0  0
M  END
>  <minimizedAffinity>
-3.91967225

>  <minimizedRMSD>
0.143812239

$$$$
