
 OpenBabel03272509543D

 45 49  0  0  0  0  0  0  0  0999 V2000
   33.5660   28.4880   49.2600 C   0  0  0  0  0  0  0  0  0  0  0  0
   33.4040   29.5400   49.5440 H   0  0  0  0  0  0  0  0  0  0  0  0
   33.1460   27.8610   50.0810 H   0  0  0  0  0  0  0  0  0  0  0  0
   32.8790   28.0860   47.9990 C   0  0  0  0  0  0  0  0  0  0  0  0
   32.8300   28.9740   47.3320 H   0  0  0  0  0  0  0  0  0  0  0  0
   33.4150   27.3040   47.4290 H   0  0  0  0  0  0  0  0  0  0  0  0
   31.4650   27.6640   48.2180 C   0  0  0  0  0  0  0  0  0  0  0  0
   30.9030   27.8290   49.4610 C   0  0  0  0  0  0  0  0  0  0  0  0
   29.6250   27.4510   49.7130 C   0  0  0  0  0  0  0  0  0  0  0  0
   28.9010   26.9140   48.7580 N   0  0  0  0  0  0  0  0  0  0  0  0
   29.4230   26.7380   47.5200 C   0  0  0  0  0  0  0  0  0  0  0  0
   30.7020   27.1150   47.2660 N   0  0  0  0  0  0  0  0  0  0  0  0
   31.5080   28.2690   50.2320 H   0  0  0  0  0  0  0  0  0  0  0  0
   29.1450   27.5620   50.6770 H   0  0  0  0  0  0  0  0  0  0  0  0
   28.8190   26.1670   46.3020 C   0  0  0  0  0  0  0  0  0  0  0  0
   29.0770   24.8980   45.8260 C   0  0  0  0  0  0  0  0  0  0  0  0
   29.7810   24.2660   46.3900 H   0  0  0  0  0  0  0  0  0  0  0  0
   28.5200   24.3620   44.6960 C   0  0  0  0  0  0  0  0  0  0  0  0
   27.6360   25.1000   43.9490 C   0  0  0  0  0  0  0  0  0  0  0  0
   27.3380   26.3710   44.3730 C   0  0  0  0  0  0  0  0  0  0  0  0
   26.4460   27.0620   43.5840 C   0  0  0  0  0  0  0  0  0  0  0  0
   26.0890   28.3470   43.9320 C   0  0  0  0  0  0  0  0  0  0  0  0
   26.6650   28.8790   45.0860 C   0  0  0  0  0  0  0  0  0  0  0  0
   27.5470   28.1270   45.8200 C   0  0  0  0  0  0  0  0  0  0  0  0
   27.9250   26.8460   45.5030 C   0  0  0  0  0  0  0  0  0  0  0  0
   34.9560   28.1430   49.2110 O   0  0  0  0  0  0  0  0  0  0  0  0
   37.0090   29.9840   51.5260 C   0  0  0  0  0  0  0  0  0  0  0  0
   37.7980   30.7450   50.6170 C   0  0  0  0  0  0  0  0  0  0  0  0
   37.5540   30.5610   49.2720 C   0  0  0  0  0  0  0  0  0  0  0  0
   36.5810   29.6640   48.9310 N   0  0  0  0  0  0  0  0  0  0  0  0
   35.8590   28.9660   49.8040 C   0  0  0  0  0  0  0  0  0  0  0  0
   36.0820   29.1320   51.1200 N   0  0  0  0  0  0  0  0  0  0  0  0
   37.2250   30.1510   52.5860 H   0  0  0  0  0  0  0  0  0  0  0  0
   38.5580   31.4460   50.8970 H   0  0  0  0  0  0  0  0  0  0  0  0
   38.7670   33.1870   49.3010 F   0  0  0  0  0  0  0  0  0  0  0  0
   38.8150   32.4620   48.1820 C   0  0  0  0  0  0  0  0  0  0  0  0
   38.2460   31.2420   48.1940 C   0  0  0  0  0  0  0  0  0  0  0  0
   38.3580   30.5730   46.9680 C   0  0  0  0  0  0  0  0  0  0  0  0
   38.9840   31.1090   45.8690 C   0  0  0  0  0  0  0  0  0  0  0  0
   39.5440   32.3510   45.9150 C   0  0  0  0  0  0  0  0  0  0  0  0
   39.4560   33.0460   47.1070 C   0  0  0  0  0  0  0  0  0  0  0  0
   37.9460   29.5720   46.8200 H   0  0  0  0  0  0  0  0  0  0  0  0
   39.0550   30.5670   44.9350 H   0  0  0  0  0  0  0  0  0  0  0  0
   40.0360   32.7870   45.0730 H   0  0  0  0  0  0  0  0  0  0  0  0
   39.8880   34.0280   47.1750 H   0  0  0  0  0  0  0  0  0  0  0  0
  1  2  1  0  0  0  0
  1  3  1  0  0  0  0
  4  7  1  0  0  0  0
  4  1  1  0  0  0  0
  5  4  1  0  0  0  0
  6  4  1  0  0  0  0
  7  8  1  0  0  0  0
  8  9  2  0  0  0  0
  8 13  1  0  0  0  0
  9 14  1  0  0  0  0
 10  9  1  0  0  0  0
 11 10  2  0  0  0  0
 12 11  1  0  0  0  0
 12  7  2  0  0  0  0
 15 11  1  0  0  0  0
 16 15  1  0  0  0  0
 16 17  1  0  0  0  0
 18 16  2  0  0  0  0
 19 20  2  0  0  0  0
 19 18  1  0  0  0  0
 20 25  1  0  0  0  0
 21 22  2  0  0  0  0
 21 20  1  0  0  0  0
 22 23  1  0  0  0  0
 23 24  2  0  0  0  0
 25 24  1  0  0  0  0
 25 15  2  0  0  0  0
 26  1  1  0  0  0  0
 26 31  1  0  0  0  0
 27 33  1  0  0  0  0
 28 34  1  0  0  0  0
 28 27  2  0  0  0  0
 29 28  1  0  0  0  0
 30 29  2  0  0  0  0
 30 31  1  0  0  0  0
 31 32  2  0  0  0  0
 32 27  1  0  0  0  0
 36 37  1  0  0  0  0
 36 35  1  0  0  0  0
 37 29  1  0  0  0  0
 38 37  2  0  0  0  0
 39 40  2  0  0  0  0
 39 38  1  0  0  0  0
 40 41  1  0  0  0  0
 41 45  1  0  0  0  0
 41 36  2  0  0  0  0
 42 38  1  0  0  0  0
 43 39  1  0  0  0  0
 44 40  1  0  0  0  0
M  END
>  <minimizedAffinity>
-7.53017092

>  <minimizedRMSD>
2.97808766

$$$$
