
 OpenBabel03272508053D

 37 41  0  0  0  0  0  0  0  0999 V2000
   38.8460   30.9010   45.8600 C   0  0  0  0  0  0  0  0  0  0  0  0
   40.0270   31.5870   46.1150 C   0  0  0  0  0  0  0  0  0  0  0  0
   40.8760   31.5390   45.0110 C   0  0  0  0  0  0  0  0  0  0  0  0
   40.1520   30.8100   44.1210 N   0  0  0  0  0  0  0  0  0  0  0  0
   38.9840   30.4390   44.6010 N   0  0  0  0  0  0  0  0  0  0  0  0
   40.2710   32.0950   47.0390 H   0  0  0  0  0  0  0  0  0  0  0  0
   41.8450   31.9470   44.8560 H   0  0  0  0  0  0  0  0  0  0  0  0
   37.7190   30.7320   46.7570 C   0  0  0  0  0  0  0  0  0  0  0  0
   37.9350   30.9260   48.1500 C   0  0  0  0  0  0  0  0  0  0  0  0
   36.8360   30.7580   48.9910 C   0  0  0  0  0  0  0  0  0  0  0  0
   35.6400   30.4230   48.4440 N   0  0  0  0  0  0  0  0  0  0  0  0
   35.4660   30.2460   47.1160 C   0  0  0  0  0  0  0  0  0  0  0  0
   36.5160   30.4040   46.2850 N   0  0  0  0  0  0  0  0  0  0  0  0
   38.9130   31.1920   48.5310 H   0  0  0  0  0  0  0  0  0  0  0  0
   34.4970   29.9790   46.7160 H   0  0  0  0  0  0  0  0  0  0  0  0
   37.0410   30.9570   50.4590 C   0  0  0  0  0  0  0  0  0  0  0  0
   36.5500   32.2090   50.7310 F   0  0  0  0  0  0  0  0  0  0  0  0
   36.3440   30.0160   51.2190 F   0  0  0  0  0  0  0  0  0  0  0  0
   38.3850   30.9220   50.8050 F   0  0  0  0  0  0  0  0  0  0  0  0
   40.5340   30.4400   42.7650 C   0  0  0  0  0  0  0  0  0  0  0  0
   40.1450   31.1910   41.6510 C   0  0  0  0  0  0  0  0  0  0  0  0
   40.5380   30.8070   40.4060 C   0  0  0  0  0  0  0  0  0  0  0  0
   41.3310   29.6560   40.2330 C   0  0  0  0  0  0  0  0  0  0  0  0
   41.5030   29.1240   41.9960 S   0  0  0  0  0  0  0  0  0  0  0  0
   39.5210   32.0890   41.8000 H   0  0  0  0  0  0  0  0  0  0  0  0
   40.2750   31.4020   39.5610 H   0  0  0  0  0  0  0  0  0  0  0  0
   41.9960   28.9160   39.2760 C   0  0  0  0  0  0  0  0  0  0  0  0
   41.5220   27.6270   38.9720 C   0  0  0  0  0  0  0  0  0  0  0  0
   40.6600   27.1480   39.4460 H   0  0  0  0  0  0  0  0  0  0  0  0
   42.0940   26.8010   38.0300 C   0  0  0  0  0  0  0  0  0  0  0  0
   43.1860   27.2430   37.3390 C   0  0  0  0  0  0  0  0  0  0  0  0
   43.7250   28.4850   37.5580 C   0  0  0  0  0  0  0  0  0  0  0  0
   44.8070   28.8980   36.8160 C   0  0  0  0  0  0  0  0  0  0  0  0
   45.3260   30.1610   37.0130 C   0  0  0  0  0  0  0  0  0  0  0  0
   44.6990   30.9400   37.9700 C   0  0  0  0  0  0  0  0  0  0  0  0
   43.6190   30.4790   38.6850 C   0  0  0  0  0  0  0  0  0  0  0  0
   43.0900   29.2320   38.5100 C   0  0  0  0  0  0  0  0  0  0  0  0
  1  2  1  0  0  0  0
  1  8  1  0  0  0  0
  2  6  1  0  0  0  0
  3  2  2  0  0  0  0
  4  5  1  0  0  0  0
  4  3  1  0  0  0  0
  5  1  2  0  0  0  0
  7  3  1  0  0  0  0
  8  9  1  0  0  0  0
  9 14  1  0  0  0  0
  9 10  2  0  0  0  0
 10 16  1  0  0  0  0
 11 10  1  0  0  0  0
 12 11  2  0  0  0  0
 13  8  2  0  0  0  0
 13 12  1  0  0  0  0
 15 12  1  0  0  0  0
 16 17  1  0  0  0  0
 16 19  1  0  0  0  0
 16 18  1  0  0  0  0
 20  4  1  0  0  0  0
 21 25  1  0  0  0  0
 21 20  2  0  0  0  0
 22 21  1  0  0  0  0
 23 22  2  0  0  0  0
 23 24  1  0  0  0  0
 24 20  1  0  0  0  0
 26 22  1  0  0  0  0
 27 23  1  0  0  0  0
 28 27  1  0  0  0  0
 28 29  1  0  0  0  0
 30 28  2  0  0  0  0
 31 32  2  0  0  0  0
 31 30  1  0  0  0  0
 32 37  1  0  0  0  0
 33 34  2  0  0  0  0
 33 32  1  0  0  0  0
 34 35  1  0  0  0  0
 35 36  2  0  0  0  0
 37 36  1  0  0  0  0
 37 27  2  0  0  0  0
M  END
>  <minimizedAffinity>
-6.82521915

>  <minimizedRMSD>
0.159675181

$$$$
