
 OpenBabel03272509113D

 30 33  0  0  0  0  0  0  0  0999 V2000
   34.9980   30.0320   46.9500 C   0  0  0  0  0  0  0  0  0  0  0  0
   36.3500   30.4870   46.8810 C   0  0  0  0  0  0  0  0  0  0  0  0
   36.8570   30.8040   45.6210 C   0  0  0  0  0  0  0  0  0  0  0  0
   36.0590   30.6690   44.5260 N   0  0  0  0  0  0  0  0  0  0  0  0
   34.7820   30.2350   44.6280 C   0  0  0  0  0  0  0  0  0  0  0  0
   34.2550   29.9190   45.8300 N   0  0  0  0  0  0  0  0  0  0  0  0
   34.5050   29.7610   47.8590 H   0  0  0  0  0  0  0  0  0  0  0  0
   34.2780   30.1820   43.6690 H   0  0  0  0  0  0  0  0  0  0  0  0
   38.2110   31.2690   45.4500 C   0  0  0  0  0  0  0  0  0  0  0  0
   39.2400   30.4490   45.7980 C   0  0  0  0  0  0  0  0  0  0  0  0
   40.5680   30.8090   45.6510 C   0  0  0  0  0  0  0  0  0  0  0  0
   40.8310   32.0740   45.1220 C   0  0  0  0  0  0  0  0  0  0  0  0
   39.8210   32.9610   44.7460 C   0  0  0  0  0  0  0  0  0  0  0  0
   38.5160   32.5110   44.9300 C   0  0  0  0  0  0  0  0  0  0  0  0
   39.2120   29.4730   46.2220 H   0  0  0  0  0  0  0  0  0  0  0  0
   41.4360   30.2190   45.9010 H   0  0  0  0  0  0  0  0  0  0  0  0
   41.8310   32.4740   44.9570 H   0  0  0  0  0  0  0  0  0  0  0  0
   40.0330   33.9370   44.3380 H   0  0  0  0  0  0  0  0  0  0  0  0
   37.7150   33.1800   44.6470 H   0  0  0  0  0  0  0  0  0  0  0  0
   36.9740   30.5200   48.1710 C   0  0  0  0  0  0  0  0  0  0  0  0
   36.8670   29.4330   49.0590 C   0  0  0  0  0  0  0  0  0  0  0  0
   36.2920   28.5470   48.7630 H   0  0  0  0  0  0  0  0  0  0  0  0
   37.4380   29.3760   50.3090 C   0  0  0  0  0  3  0  0  0  0  0  0
   38.1720   30.4450   50.7450 C   0  0  0  0  0  3  0  0  0  0  0  0
   38.3280   31.5510   49.9410 C   0  0  0  0  0  0  0  0  0  0  0  0
   39.0780   32.6280   50.3780 C   0  0  0  0  0  3  0  0  0  0  0  0
   39.2600   33.7450   49.5870 C   0  0  0  0  0  3  0  0  0  0  0  0
   38.6630   33.7390   48.3430 C   0  0  0  0  0  3  0  0  0  0  0  0
   37.9220   32.6580   47.9290 C   0  0  0  0  0  3  0  0  0  0  0  0
   37.7310   31.5430   48.7040 C   0  0  0  0  0  0  0  0  0  0  0  0
  1  7  1  0  0  0  0
  2  1  1  0  0  0  0
  2 20  1  0  0  0  0
  3  2  2  0  0  0  0
  4  5  2  0  0  0  0
  4  3  1  0  0  0  0
  5  6  1  0  0  0  0
  6  1  2  0  0  0  0
  8  5  1  0  0  0  0
  9  3  1  0  0  0  0
  9 10  1  0  0  0  0
 10 15  1  0  0  0  0
 11 10  2  0  0  0  0
 11 16  1  0  0  0  0
 12 11  1  0  0  0  0
 13 14  1  0  0  0  0
 13 12  2  0  0  0  0
 14  9  2  0  0  0  0
 17 12  1  0  0  0  0
 18 13  1  0  0  0  0
 19 14  1  0  0  0  0
 20 30  2  0  0  0  0
 20 21  1  0  0  0  0
 21 23  2  0  0  0  0
 22 21  1  0  0  0  0
 23 24  1  0  0  0  0
 25 26  1  0  0  0  0
 25 24  2  0  0  0  0
 27 26  2  0  0  0  0
 28 27  1  0  0  0  0
 29 28  2  0  0  0  0
 29 30  1  0  0  0  0
 30 25  1  0  0  0  0
M  END
>  <minimizedAffinity>
-6.42117834

>  <minimizedRMSD>
3.82449985

$$$$
