
 OpenBabel03272509253D

 26 28  0  0  0  0  0  0  0  0999 V2000
   37.6600   31.8320   47.2750 C   0  0  0  0  0  0  0  0  0  0  0  0
   36.5910   31.6520   47.0560 H   0  0  0  0  0  0  0  0  0  0  0  0
   37.7800   32.6770   47.9940 H   0  0  0  0  0  0  0  0  0  0  0  0
   38.4510   32.2010   46.0550 C   0  0  0  0  0  0  0  0  0  0  0  0
   39.6710   32.8730   46.1150 C   0  0  0  0  0  0  0  0  0  0  0  0
   40.0510   33.1570   47.1050 H   0  0  0  0  0  0  0  0  0  0  0  0
   40.3440   33.1550   44.9490 C   0  0  0  0  0  3  0  0  0  0  0  0
   39.8810   32.8070   43.6980 C   0  0  0  0  0  3  0  0  0  0  0  0
   38.6730   32.1410   43.6380 C   0  0  0  0  0  0  0  0  0  0  0  0
   38.1930   31.7920   42.3930 C   0  0  0  0  0  3  0  0  0  0  0  0
   36.9790   31.1280   42.2690 C   0  0  0  0  0  3  0  0  0  0  0  0
   36.2510   30.8160   43.4070 C   0  0  0  0  0  3  0  0  0  0  0  0
   36.7840   31.1930   44.6460 C   0  0  0  0  0  3  0  0  0  0  0  0
   37.9950   31.8580   44.8010 C   0  0  0  0  0  0  0  0  0  0  0  0
   38.3350   30.6000   47.8770 C   0  0  0  0  0  0  0  0  0  0  0  0
   39.3560   30.9470   48.2340 H   0  0  0  0  0  0  0  0  0  0  0  0
   38.3980   29.7470   47.2160 H   0  0  0  0  0  0  0  0  0  0  0  0
   37.2520   30.1820   51.4900 C   0  0  0  0  0  0  0  0  0  0  0  0
   38.0370   30.6130   50.4050 C   0  0  0  0  0  0  0  0  0  0  0  0
   37.6250   30.2310   49.1420 C   0  0  0  0  0  0  0  0  0  0  0  0
   36.4940   29.4680   49.0220 N   0  0  0  0  0  0  0  0  0  0  0  0
   35.7690   29.0750   50.0810 C   0  0  0  0  0  0  0  0  0  0  0  0
   36.1490   29.4320   51.3220 N   0  0  0  0  0  0  0  0  0  0  0  0
   37.5660   30.4750   52.4820 H   0  0  0  0  0  0  0  0  0  0  0  0
   38.9220   31.2120   50.5020 H   0  0  0  0  0  0  0  0  0  0  0  0
   34.9020   28.4720   49.8040 H   0  0  0  0  0  0  0  0  0  0  0  0
  1 15  1  0  0  0  0
  1  3  1  0  0  0  0
  2  1  1  0  0  0  0
  4  5  1  0  0  0  0
  4  1  1  0  0  0  0
  5  6  1  0  0  0  0
  7  5  2  0  0  0  0
  8  7  1  0  0  0  0
  9  8  2  0  0  0  0
  9 14  1  0  0  0  0
 10  9  1  0  0  0  0
 11 10  2  0  0  0  0
 11 12  1  0  0  0  0
 12 13  2  0  0  0  0
 13 14  1  0  0  0  0
 14  4  2  0  0  0  0
 15 16  1  0  0  0  0
 15 20  1  0  0  0  0
 17 15  1  0  0  0  0
 18 24  1  0  0  0  0
 19 25  1  0  0  0  0
 19 18  2  0  0  0  0
 20 19  1  0  0  0  0
 21 20  2  0  0  0  0
 21 22  1  0  0  0  0
 22 23  2  0  0  0  0
 23 18  1  0  0  0  0
 26 22  1  0  0  0  0
M  END
>  <minimizedAffinity>
-5.33648634

>  <minimizedRMSD>
1.87622273

$$$$
