
 OpenBabel03272501173D

 37 41  0  0  1  0  0  0  0  0999 V2000
   35.0440   29.1920   50.5040 C   0  0  0  0  0  0  0  0  0  0  0  0
   35.0800   28.2690   51.1180 H   0  0  0  0  0  0  0  0  0  0  0  0
   34.5210   29.9540   51.1400 H   0  0  0  0  0  0  0  0  0  0  0  0
   36.7180   31.0700   50.1790 C   0  0  1  0  0  0  0  0  0  0  0  0
   36.4160   29.6730   50.1250 C   0  0  1  0  0  0  0  0  0  0  0  0
   37.4330   30.0950   51.1400 C   0  0  0  0  0  0  0  0  0  0  0  0
   36.0580   31.8160   50.7080 H   0  0  0  0  0  0  0  0  0  0  0  0
   36.8050   29.1080   49.2230 H   0  0  0  0  0  0  0  0  0  0  0  0
   37.0750   30.0510   52.1870 H   0  0  0  0  0  0  0  0  0  0  0  0
   38.4670   29.8160   50.9300 H   0  0  0  0  0  0  0  0  0  0  0  0
   37.6940   31.7120   49.2200 C   0  0  0  0  0  0  0  0  0  0  0  0
   38.1480   32.9800   49.5600 C   0  0  0  0  0  0  0  0  0  0  0  0
   39.0380   33.5710   48.6440 C   0  0  0  0  0  0  0  0  0  0  0  0
   39.3970   32.8950   47.5100 N   0  0  0  0  0  0  0  0  0  0  0  0
   38.9250   31.6480   47.2170 C   0  0  0  0  0  0  0  0  0  0  0  0
   38.0560   31.0490   48.0940 N   0  0  0  0  0  0  0  0  0  0  0  0
   37.8560   33.4880   50.4460 H   0  0  0  0  0  0  0  0  0  0  0  0
   39.4410   34.5510   48.8250 H   0  0  0  0  0  0  0  0  0  0  0  0
   39.2150   31.1300   46.3250 H   0  0  0  0  0  0  0  0  0  0  0  0
   34.1570   28.9930   49.3170 C   0  0  0  0  0  0  0  0  0  0  0  0
   34.1020   29.8620   48.2590 C   0  0  0  0  0  0  0  0  0  0  0  0
   33.2310   29.4280   47.3580 N   0  0  0  0  0  0  0  0  0  0  0  0
   32.7230   28.2950   47.8070 C   0  0  0  0  0  0  0  0  0  0  0  0
   33.2890   28.0350   49.0010 N   0  0  0  0  0  0  0  0  0  0  0  0
   34.7010   30.7860   48.1850 H   0  0  0  0  0  0  0  0  0  0  0  0
   33.0150   29.9450   46.5120 H   0  0  0  0  0  0  0  0  0  0  0  0
   31.8060   27.2950   47.2970 C   0  0  0  0  0  0  0  0  0  0  0  0
   32.2860   26.1820   46.5910 C   0  0  0  0  0  0  0  0  0  0  0  0
   33.3580   26.0690   46.4400 H   0  0  0  0  0  0  0  0  0  0  0  0
   31.5190   25.1810   46.0530 C   0  0  0  0  0  3  0  0  0  0  0  0
   30.1570   25.2310   46.1900 C   0  0  0  0  0  3  0  0  0  0  0  0
   29.6050   26.2920   46.8670 C   0  0  0  0  0  0  0  0  0  0  0  0
   28.2440   26.3180   46.9540 C   0  0  0  0  0  3  0  0  0  0  0  0
   27.6060   27.3450   47.5750 C   0  0  0  0  0  3  0  0  0  0  0  0
   28.4100   28.3540   48.1090 C   0  0  0  0  0  3  0  0  0  0  0  0
   29.7730   28.2640   47.9860 C   0  0  0  0  0  3  0  0  0  0  0  0
   30.4410   27.2430   47.3710 C   0  0  0  0  0  0  0  0  0  0  0  0
  1  2  1  0  0  0  0
  1  3  1  0  0  0  0
  4  7  1  1  0  0  0
  4  6  1  0  0  0  0
  5  8  1  6  0  0  0
  5  4  1  0  0  0  0
  5  1  1  0  0  0  0
  5  6  1  0  0  0  0
  6  9  1  0  0  0  0
 10  6  1  0  0  0  0
 11 12  1  0  0  0  0
 11  4  1  0  0  0  0
 12 17  1  0  0  0  0
 13 18  1  0  0  0  0
 13 12  2  0  0  0  0
 14 13  1  0  0  0  0
 15 14  2  0  0  0  0
 15 16  1  0  0  0  0
 16 11  2  0  0  0  0
 19 15  1  0  0  0  0
 20  1  1  0  0  0  0
 21 20  2  0  0  0  0
 22 23  1  0  0  0  0
 22 21  1  0  0  0  0
 23 24  2  0  0  0  0
 24 20  1  0  0  0  0
 25 21  1  0  0  0  0
 26 22  1  0  0  0  0
 27 37  1  0  0  0  0
 27 23  1  0  0  0  0
 28 27  2  0  0  0  0
 29 28  1  0  0  0  0
 30 31  2  0  0  0  0
 30 28  1  0  0  0  0
 31 32  1  0  0  0  0
 32 33  2  0  0  0  0
 32 37  1  0  0  0  0
 33 34  1  0  0  0  0
 34 35  2  0  0  0  0
 36 35  1  0  0  0  0
 37 36  2  0  0  0  0
M  END
>  <minimizedAffinity>
-6.60951424

>  <minimizedRMSD>
1.8378818

$$$$
