
 OpenBabel03272508063D

 37 41  0  0  0  0  0  0  0  0999 V2000
   38.8350   30.9310   45.8570 C   0  0  0  0  0  0  0  0  0  0  0  0
   39.9970   31.6550   46.0940 C   0  0  0  0  0  0  0  0  0  0  0  0
   40.8450   31.6070   44.9900 C   0  0  0  0  0  0  0  0  0  0  0  0
   40.1400   30.8380   44.1170 N   0  0  0  0  0  0  0  0  0  0  0  0
   38.9840   30.4450   44.6080 N   0  0  0  0  0  0  0  0  0  0  0  0
   40.2280   32.1900   47.0050 H   0  0  0  0  0  0  0  0  0  0  0  0
   41.8020   32.0380   44.8230 H   0  0  0  0  0  0  0  0  0  0  0  0
   37.7150   30.7500   46.7600 C   0  0  0  0  0  0  0  0  0  0  0  0
   37.9370   30.9430   48.1510 C   0  0  0  0  0  0  0  0  0  0  0  0
   36.8440   30.7630   48.9980 C   0  0  0  0  0  0  0  0  0  0  0  0
   35.6480   30.4190   48.4580 N   0  0  0  0  0  0  0  0  0  0  0  0
   35.4690   30.2430   47.1310 C   0  0  0  0  0  0  0  0  0  0  0  0
   36.5120   30.4110   46.2930 N   0  0  0  0  0  0  0  0  0  0  0  0
   38.9150   31.2180   48.5280 H   0  0  0  0  0  0  0  0  0  0  0  0
   34.5000   29.9680   46.7350 H   0  0  0  0  0  0  0  0  0  0  0  0
   37.0560   30.9620   50.4660 C   0  0  0  0  0  0  0  0  0  0  0  0
   36.5620   32.2120   50.7410 F   0  0  0  0  0  0  0  0  0  0  0  0
   36.3660   30.0190   51.2280 F   0  0  0  0  0  0  0  0  0  0  0  0
   38.4020   30.9300   50.8050 F   0  0  0  0  0  0  0  0  0  0  0  0
   40.5310   30.4500   42.7690 C   0  0  0  0  0  0  0  0  0  0  0  0
   40.1270   31.1700   41.6400 C   0  0  0  0  0  0  0  0  0  0  0  0
   40.5280   30.7700   40.4030 C   0  0  0  0  0  0  0  0  0  0  0  0
   41.3450   29.6330   40.2530 C   0  0  0  0  0  0  0  0  0  0  0  0
   41.5270   29.1390   42.0250 S   0  0  0  0  0  0  0  0  0  0  0  0
   39.4840   32.0580   41.7710 H   0  0  0  0  0  0  0  0  0  0  0  0
   40.2530   31.3430   39.5470 H   0  0  0  0  0  0  0  0  0  0  0  0
   42.0250   28.8870   39.3100 C   0  0  0  0  0  0  0  0  0  0  0  0
   43.1320   29.4650   38.6650 C   0  0  0  0  0  0  0  0  0  0  0  0
   43.5010   30.4800   38.8420 H   0  0  0  0  0  0  0  0  0  0  0  0
   43.8940   28.8180   37.7170 C   0  0  0  0  0  3  0  0  0  0  0  0
   43.5690   27.5370   37.3720 C   0  0  0  0  0  3  0  0  0  0  0  0
   42.5090   26.8810   37.9440 C   0  0  0  0  0  0  0  0  0  0  0  0
   42.2410   25.5810   37.5870 C   0  0  0  0  0  3  0  0  0  0  0  0
   41.1960   24.9100   38.1890 C   0  0  0  0  0  3  0  0  0  0  0  0
   40.4780   25.6190   39.1360 C   0  0  0  0  0  3  0  0  0  0  0  0
   40.7870   26.9190   39.4580 C   0  0  0  0  0  3  0  0  0  0  0  0
   41.8140   27.6040   38.8730 C   0  0  0  0  0  0  0  0  0  0  0  0
  1  2  1  0  0  0  0
  1  8  1  0  0  0  0
  2  6  1  0  0  0  0
  3  2  2  0  0  0  0
  4  5  1  0  0  0  0
  4  3  1  0  0  0  0
  5  1  2  0  0  0  0
  7  3  1  0  0  0  0
  8  9  1  0  0  0  0
  9 14  1  0  0  0  0
  9 10  2  0  0  0  0
 10 16  1  0  0  0  0
 11 10  1  0  0  0  0
 12 11  2  0  0  0  0
 13  8  2  0  0  0  0
 13 12  1  0  0  0  0
 15 12  1  0  0  0  0
 16 17  1  0  0  0  0
 16 19  1  0  0  0  0
 16 18  1  0  0  0  0
 20  4  1  0  0  0  0
 21 25  1  0  0  0  0
 21 20  2  0  0  0  0
 22 21  1  0  0  0  0
 23 22  2  0  0  0  0
 23 24  1  0  0  0  0
 24 20  1  0  0  0  0
 26 22  1  0  0  0  0
 27 23  1  0  0  0  0
 28 29  1  0  0  0  0
 28 27  2  0  0  0  0
 30 28  1  0  0  0  0
 31 30  2  0  0  0  0
 31 32  1  0  0  0  0
 32 37  1  0  0  0  0
 33 32  2  0  0  0  0
 33 34  1  0  0  0  0
 34 35  2  0  0  0  0
 35 36  1  0  0  0  0
 37 27  1  0  0  0  0
 37 36  2  0  0  0  0
M  END
>  <minimizedAffinity>
-6.77890062

>  <minimizedRMSD>
0.509960294

$$$$
