
 OpenBabel03262522483D

 27 30  0  0  0  0  0  0  0  0999 V2000
   36.1020   30.3460   48.8160 C   0  0  0  0  0  0  0  0  0  0  0  0
   35.9350   29.4280   49.7710 C   0  0  0  0  0  0  0  0  0  0  0  0
   34.8710   28.5740   49.7300 C   0  0  0  0  0  0  0  0  0  0  0  0
   34.0130   28.7170   48.6760 C   0  0  0  0  0  0  0  0  0  0  0  0
   34.7740   30.0830   47.7820 S   0  0  0  0  0  0  0  0  0  0  0  0
   36.7140   29.4300   50.5650 H   0  0  0  0  0  0  0  0  0  0  0  0
   34.7950   27.8540   50.5340 H   0  0  0  0  0  0  0  0  0  0  0  0
   32.8210   27.8400   48.5340 C   0  0  0  0  0  0  0  0  0  0  0  0
   31.6440   28.1370   49.1790 C   0  0  0  0  0  0  0  0  0  0  0  0
   31.5720   29.0160   49.7960 H   0  0  0  0  0  0  0  0  0  0  0  0
   30.5830   27.2950   49.0120 C   0  0  0  0  0  0  0  0  0  0  0  0
   30.5920   26.1540   48.2420 C   0  0  0  0  0  0  0  0  0  0  0  0
   31.7730   25.8810   47.6140 C   0  0  0  0  0  0  0  0  0  0  0  0
   31.8050   24.7440   46.8380 C   0  0  0  0  0  0  0  0  0  0  0  0
   32.9310   24.3630   46.1580 C   0  0  0  0  0  0  0  0  0  0  0  0
   34.0540   25.1850   46.2870 C   0  0  0  0  0  0  0  0  0  0  0  0
   33.9640   26.3010   47.0700 C   0  0  0  0  0  0  0  0  0  0  0  0
   32.8720   26.7110   47.7580 C   0  0  0  0  0  0  0  0  0  0  0  0
   38.1750   33.2710   49.4620 C   0  0  0  0  0  0  0  0  0  0  0  0
   39.0810   33.2600   48.3960 C   0  0  0  0  0  0  0  0  0  0  0  0
   38.9720   32.2330   47.4390 C   0  0  0  0  0  0  0  0  0  0  0  0
   37.9880   31.2890   47.5880 N   0  0  0  0  0  0  0  0  0  0  0  0
   37.1450   31.3560   48.6400 C   0  0  0  0  0  0  0  0  0  0  0  0
   37.2240   32.3140   49.5590 N   0  0  0  0  0  0  0  0  0  0  0  0
   38.1840   34.0160   50.2380 H   0  0  0  0  0  0  0  0  0  0  0  0
   39.8350   34.0340   48.3360 H   0  0  0  0  0  0  0  0  0  0  0  0
   39.6670   32.2100   46.6050 H   0  0  0  0  0  0  0  0  0  0  0  0
  1  2  2  0  0  0  0
  2  6  1  0  0  0  0
  3  2  1  0  0  0  0
  3  7  1  0  0  0  0
  4  3  2  0  0  0  0
  5  4  1  0  0  0  0
  5  1  1  0  0  0  0
  8  4  1  0  0  0  0
  8  9  1  0  0  0  0
  9 10  1  0  0  0  0
 11  9  2  0  0  0  0
 12 11  1  0  0  0  0
 13 18  1  0  0  0  0
 13 12  2  0  0  0  0
 14 13  1  0  0  0  0
 15 16  1  0  0  0  0
 15 14  2  0  0  0  0
 16 17  2  0  0  0  0
 17 18  1  0  0  0  0
 18  8  2  0  0  0  0
 19 24  1  0  0  0  0
 19 25  1  0  0  0  0
 20 19  2  0  0  0  0
 21 22  2  0  0  0  0
 21 20  1  0  0  0  0
 22 23  1  0  0  0  0
 23  1  1  0  0  0  0
 23 24  2  0  0  0  0
 26 20  1  0  0  0  0
 27 21  1  0  0  0  0
M  END
>  <minimizedAffinity>
-5.92353487

>  <minimizedRMSD>
1.59536397

$$$$
