
 OpenBabel03272509473D

 27 29  0  0  0  0  0  0  0  0999 V2000
   32.8390   27.8670   48.6910 C   0  0  0  0  0  0  0  0  0  0  0  0
   32.7240   26.8750   49.1550 H   0  0  0  0  0  0  0  0  0  0  0  0
   31.8020   28.3130   48.7280 H   0  0  0  0  0  0  0  0  0  0  0  0
   33.2880   27.7790   47.2870 C   0  0  0  0  0  0  0  0  0  0  0  0
   33.2590   28.9400   46.5260 C   0  0  0  0  0  0  0  0  0  0  0  0
   32.9280   29.8680   46.9810 H   0  0  0  0  0  0  0  0  0  0  0  0
   33.6160   29.0510   45.2030 C   0  0  0  0  0  3  0  0  0  0  0  0
   34.0470   27.8710   44.5890 C   0  0  0  0  0  3  0  0  0  0  0  0
   34.0930   26.6920   45.3070 C   0  0  0  0  0  0  0  0  0  0  0  0
   34.5140   25.4980   44.7540 C   0  0  0  0  0  3  0  0  0  0  0  0
   34.5760   24.3040   45.4450 C   0  0  0  0  0  3  0  0  0  0  0  0
   34.1930   24.3300   46.7580 C   0  0  0  0  0  3  0  0  0  0  0  0
   33.7660   25.4790   47.3670 C   0  0  0  0  0  3  0  0  0  0  0  0
   33.7200   26.6430   46.6400 C   0  0  0  0  0  0  0  0  0  0  0  0
   33.7350   28.7640   49.4780 C   0  0  0  0  0  0  0  0  0  0  0  0
   33.3450   28.9650   50.4710 H   0  0  0  0  0  0  0  0  0  0  0  0
   33.7370   29.7560   48.9490 H   0  0  0  0  0  0  0  0  0  0  0  0
   35.0520   28.2490   49.5240 O   0  0  0  0  0  0  0  0  0  0  0  0
   37.4340   30.2970   51.3550 C   0  0  0  0  0  0  0  0  0  0  0  0
   38.1410   30.8540   50.2930 C   0  0  0  0  0  0  0  0  0  0  0  0
   37.7760   30.5070   48.9940 C   0  0  0  0  0  0  0  0  0  0  0  0
   36.7280   29.6280   48.8710 N   0  0  0  0  0  0  0  0  0  0  0  0
   36.0690   29.1110   49.9080 C   0  0  0  0  0  0  0  0  0  0  0  0
   36.4270   29.4510   51.1560 N   0  0  0  0  0  0  0  0  0  0  0  0
   37.7570   30.5980   52.3340 H   0  0  0  0  0  0  0  0  0  0  0  0
   38.9730   31.5490   50.3420 H   0  0  0  0  0  0  0  0  0  0  0  0
   38.2580   30.8800   48.0870 H   0  0  0  0  0  0  0  0  0  0  0  0
  1  3  1  0  0  0  0
  1  2  1  0  0  0  0
  1 15  1  0  0  0  0
  4  1  1  0  0  0  0
  5  6  1  0  0  0  0
  5  4  2  0  0  0  0
  7  5  1  0  0  0  0
  8  7  2  0  0  0  0
  8  9  1  0  0  0  0
  9 14  1  0  0  0  0
 10  9  2  0  0  0  0
 10 11  1  0  0  0  0
 11 12  2  0  0  0  0
 12 13  1  0  0  0  0
 14  4  1  0  0  0  0
 14 13  2  0  0  0  0
 15 18  1  0  0  0  0
 15 16  1  0  0  0  0
 17 15  1  0  0  0  0
 18 23  1  0  0  0  0
 19 25  1  0  0  0  0
 20 26  1  0  0  0  0
 20 19  2  0  0  0  0
 21 20  1  0  0  0  0
 22 21  2  0  0  0  0
 22 23  1  0  0  0  0
 23 24  2  0  0  0  0
 24 19  1  0  0  0  0
 27 21  1  0  0  0  0
M  END
>  <minimizedAffinity>
-4.73321772

>  <minimizedRMSD>
1.3279202

$$$$
