
 OpenBabel03272509473D

 27 29  0  0  0  0  0  0  0  0999 V2000
   32.8450   27.9070   48.7100 C   0  0  0  0  0  0  0  0  0  0  0  0
   32.7530   26.8850   49.1110 H   0  0  0  0  0  0  0  0  0  0  0  0
   31.8030   28.3340   48.7950 H   0  0  0  0  0  0  0  0  0  0  0  0
   33.2700   27.9160   47.2960 C   0  0  0  0  0  0  0  0  0  0  0  0
   33.1950   29.1210   46.6090 C   0  0  0  0  0  0  0  0  0  0  0  0
   32.8490   30.0100   47.1260 H   0  0  0  0  0  0  0  0  0  0  0  0
   33.5230   29.3220   45.2890 C   0  0  0  0  0  3  0  0  0  0  0  0
   33.9720   28.1930   44.5960 C   0  0  0  0  0  3  0  0  0  0  0  0
   34.0640   26.9730   45.2390 C   0  0  0  0  0  0  0  0  0  0  0  0
   34.5050   25.8290   44.6060 C   0  0  0  0  0  3  0  0  0  0  0  0
   34.6120   24.5970   45.2210 C   0  0  0  0  0  3  0  0  0  0  0  0
   34.2540   24.5320   46.5400 C   0  0  0  0  0  3  0  0  0  0  0  0
   33.8080   25.6290   47.2270 C   0  0  0  0  0  3  0  0  0  0  0  0
   33.7180   26.8330   46.5730 C   0  0  0  0  0  0  0  0  0  0  0  0
   33.7430   28.7630   49.5380 C   0  0  0  0  0  0  0  0  0  0  0  0
   33.3670   28.8990   50.5470 H   0  0  0  0  0  0  0  0  0  0  0  0
   33.7280   29.7860   49.0710 H   0  0  0  0  0  0  0  0  0  0  0  0
   35.0660   28.2620   49.5340 O   0  0  0  0  0  0  0  0  0  0  0  0
   37.4580   30.3080   51.3550 C   0  0  0  0  0  0  0  0  0  0  0  0
   38.1590   30.8660   50.2900 C   0  0  0  0  0  0  0  0  0  0  0  0
   37.7880   30.5210   48.9920 C   0  0  0  0  0  0  0  0  0  0  0  0
   36.7390   29.6410   48.8740 N   0  0  0  0  0  0  0  0  0  0  0  0
   36.0860   29.1230   49.9140 C   0  0  0  0  0  0  0  0  0  0  0  0
   36.4500   29.4610   51.1590 N   0  0  0  0  0  0  0  0  0  0  0  0
   37.7860   30.6070   52.3320 H   0  0  0  0  0  0  0  0  0  0  0  0
   38.9920   31.5610   50.3350 H   0  0  0  0  0  0  0  0  0  0  0  0
   38.2650   30.8950   48.0820 H   0  0  0  0  0  0  0  0  0  0  0  0
  1  3  1  0  0  0  0
  1  2  1  0  0  0  0
  1 15  1  0  0  0  0
  4  1  1  0  0  0  0
  5  6  1  0  0  0  0
  5  4  1  0  0  0  0
  7  5  2  0  0  0  0
  8  9  2  0  0  0  0
  8  7  1  0  0  0  0
  9 14  1  0  0  0  0
 10 11  2  0  0  0  0
 10  9  1  0  0  0  0
 11 12  1  0  0  0  0
 12 13  2  0  0  0  0
 14 13  1  0  0  0  0
 14  4  2  0  0  0  0
 15 16  1  0  0  0  0
 17 15  1  0  0  0  0
 18 15  1  0  0  0  0
 18 23  1  0  0  0  0
 19 25  1  0  0  0  0
 20 26  1  0  0  0  0
 20 19  2  0  0  0  0
 21 20  1  0  0  0  0
 22 21  2  0  0  0  0
 22 23  1  0  0  0  0
 23 24  2  0  0  0  0
 24 19  1  0  0  0  0
 27 21  1  0  0  0  0
M  END
>  <minimizedAffinity>
-4.73511839

>  <minimizedRMSD>
1.37039113

$$$$
