
 OpenBabel03272508063D

 37 41  0  0  0  0  0  0  0  0999 V2000
   38.8430   30.9020   45.8620 C   0  0  0  0  0  0  0  0  0  0  0  0
   40.0250   31.5840   46.1210 C   0  0  0  0  0  0  0  0  0  0  0  0
   40.8750   31.5400   45.0180 C   0  0  0  0  0  0  0  0  0  0  0  0
   40.1500   30.8160   44.1240 N   0  0  0  0  0  0  0  0  0  0  0  0
   38.9810   30.4460   44.6010 N   0  0  0  0  0  0  0  0  0  0  0  0
   40.2690   32.0870   47.0470 H   0  0  0  0  0  0  0  0  0  0  0  0
   41.8440   31.9470   44.8650 H   0  0  0  0  0  0  0  0  0  0  0  0
   37.7150   30.7300   46.7570 C   0  0  0  0  0  0  0  0  0  0  0  0
   37.9290   30.9240   48.1500 C   0  0  0  0  0  0  0  0  0  0  0  0
   36.8290   30.7540   48.9900 C   0  0  0  0  0  0  0  0  0  0  0  0
   35.6340   30.4180   48.4410 N   0  0  0  0  0  0  0  0  0  0  0  0
   35.4620   30.2410   47.1130 C   0  0  0  0  0  0  0  0  0  0  0  0
   36.5130   30.4000   46.2820 N   0  0  0  0  0  0  0  0  0  0  0  0
   38.9060   31.1910   48.5330 H   0  0  0  0  0  0  0  0  0  0  0  0
   34.4940   29.9730   46.7110 H   0  0  0  0  0  0  0  0  0  0  0  0
   37.0310   30.9530   50.4580 C   0  0  0  0  0  0  0  0  0  0  0  0
   36.5430   32.2060   50.7290 F   0  0  0  0  0  0  0  0  0  0  0  0
   36.3310   30.0140   51.2170 F   0  0  0  0  0  0  0  0  0  0  0  0
   38.3750   30.9130   50.8070 F   0  0  0  0  0  0  0  0  0  0  0  0
   40.5330   30.4530   42.7660 C   0  0  0  0  0  0  0  0  0  0  0  0
   40.1270   31.1970   41.6530 C   0  0  0  0  0  0  0  0  0  0  0  0
   40.5210   30.8190   40.4070 C   0  0  0  0  0  0  0  0  0  0  0  0
   41.3320   29.6820   40.2310 C   0  0  0  0  0  0  0  0  0  0  0  0
   41.5200   29.1530   41.9920 S   0  0  0  0  0  0  0  0  0  0  0  0
   39.4890   32.0850   41.8040 H   0  0  0  0  0  0  0  0  0  0  0  0
   40.2450   31.4100   39.5630 H   0  0  0  0  0  0  0  0  0  0  0  0
   42.0040   28.9520   39.2700 C   0  0  0  0  0  0  0  0  0  0  0  0
   41.5030   27.6900   38.9100 C   0  0  0  0  0  0  0  0  0  0  0  0
   40.6120   27.2210   39.3420 H   0  0  0  0  0  0  0  0  0  0  0  0
   42.0790   26.8750   37.9590 C   0  0  0  0  0  3  0  0  0  0  0  0
   43.2050   27.3050   37.3180 C   0  0  0  0  0  3  0  0  0  0  0  0
   43.7750   28.5220   37.5940 C   0  0  0  0  0  0  0  0  0  0  0  0
   44.8910   28.9260   36.9000 C   0  0  0  0  0  3  0  0  0  0  0  0
   45.4410   30.1660   37.1540 C   0  0  0  0  0  3  0  0  0  0  0  0
   44.8070   30.9320   38.1160 C   0  0  0  0  0  3  0  0  0  0  0  0
   43.6920   30.4820   38.7820 C   0  0  0  0  0  3  0  0  0  0  0  0
   43.1320   29.2580   38.5500 C   0  0  0  0  0  0  0  0  0  0  0  0
  1  2  1  0  0  0  0
  1  8  1  0  0  0  0
  2  6  1  0  0  0  0
  3  2  2  0  0  0  0
  4  5  1  0  0  0  0
  4  3  1  0  0  0  0
  5  1  2  0  0  0  0
  7  3  1  0  0  0  0
  8  9  1  0  0  0  0
  9 14  1  0  0  0  0
  9 10  2  0  0  0  0
 10 16  1  0  0  0  0
 11 10  1  0  0  0  0
 12 11  2  0  0  0  0
 13  8  2  0  0  0  0
 13 12  1  0  0  0  0
 15 12  1  0  0  0  0
 16 17  1  0  0  0  0
 16 19  1  0  0  0  0
 16 18  1  0  0  0  0
 20  4  1  0  0  0  0
 21 25  1  0  0  0  0
 21 20  2  0  0  0  0
 22 21  1  0  0  0  0
 23 22  2  0  0  0  0
 23 24  1  0  0  0  0
 24 20  1  0  0  0  0
 26 22  1  0  0  0  0
 27 23  1  0  0  0  0
 28 27  1  0  0  0  0
 28 29  1  0  0  0  0
 30 28  2  0  0  0  0
 31 32  2  0  0  0  0
 31 30  1  0  0  0  0
 32 37  1  0  0  0  0
 33 34  2  0  0  0  0
 33 32  1  0  0  0  0
 34 35  1  0  0  0  0
 35 36  2  0  0  0  0
 37 36  1  0  0  0  0
 37 27  2  0  0  0  0
M  END
>  <minimizedAffinity>
-6.81002808

>  <minimizedRMSD>
0.805192769

$$$$
