
 OpenBabel03272500033D

 30 33  0  0  0  0  0  0  0  0999 V2000
   38.1720   24.4310   34.4580 C   0  0  0  0  0  0  0  0  0  0  0  0
   39.1700   24.8090   35.3750 C   0  0  0  0  0  0  0  0  0  0  0  0
   39.3390   26.1620   35.6040 C   0  0  0  0  0  0  0  0  0  0  0  0
   38.5290   27.0280   34.9250 N   0  0  0  0  0  0  0  0  0  0  0  0
   37.5950   26.6560   34.0630 C   0  0  0  0  0  0  0  0  0  0  0  0
   37.4210   25.3620   33.8350 N   0  0  0  0  0  0  0  0  0  0  0  0
   37.9700   23.3970   34.2190 H   0  0  0  0  0  0  0  0  0  0  0  0
   40.0950   26.4640   36.3000 H   0  0  0  0  0  0  0  0  0  0  0  0
   39.9380   23.7770   35.9930 N   0  0  0  0  0  0  0  0  0  0  0  0
   41.1000   23.3570   35.4840 C   0  0  0  0  0  0  0  0  0  0  0  0
   41.8070   22.3450   36.1320 C   0  0  0  0  0  0  0  0  0  0  0  0
   41.2090   21.8680   37.2710 C   0  0  0  0  0  0  0  0  0  0  0  0
   41.8550   20.9400   37.8680 O   0  0  0  0  0  0  0  0  0  0  0  0
   40.0340   22.2680   37.8170 N   0  0  0  0  0  0  0  0  0  0  0  0
   39.4120   23.2500   37.1310 C   0  0  0  0  0  0  0  0  0  0  0  0
   38.3070   23.6420   37.6240 O   0  0  0  0  0  0  0  0  0  0  0  0
   41.4850   23.8030   34.5770 H   0  0  0  0  0  0  0  0  0  0  0  0
   42.7340   21.9710   35.7750 H   0  0  0  0  0  0  0  0  0  0  0  0
   39.6590   21.8520   38.6790 H   0  0  0  0  0  0  0  0  0  0  0  0
   36.9100   27.8190   33.5110 C   0  0  0  0  0  0  0  0  0  0  0  0
   36.0670   28.6070   34.2470 C   0  0  0  0  0  0  0  0  0  0  0  0
   35.8670   28.3880   35.3070 H   0  0  0  0  0  0  0  0  0  0  0  0
   35.3970   29.7140   33.7770 C   0  0  0  0  0  3  0  0  0  0  0  0
   35.5570   30.1000   32.4670 C   0  0  0  0  0  3  0  0  0  0  0  0
   36.3920   29.3510   31.6710 C   0  0  0  0  0  0  0  0  0  0  0  0
   36.5310   29.7620   30.3640 C   0  0  0  0  0  3  0  0  0  0  0  0
   37.3520   29.0620   29.5050 C   0  0  0  0  0  3  0  0  0  0  0  0
   38.0030   27.9590   30.0170 C   0  0  0  0  0  3  0  0  0  0  0  0
   37.8330   27.5860   31.3310 C   0  0  0  0  0  3  0  0  0  0  0  0
   37.0250   28.2590   32.2140 C   0  0  0  0  0  0  0  0  0  0  0  0
  1  2  1  0  0  0  0
  2  3  2  0  0  0  0
  2  9  1  0  0  0  0
  3  8  1  0  0  0  0
  4  3  1  0  0  0  0
  5  4  2  0  0  0  0
  6  5  1  0  0  0  0
  6  1  2  0  0  0  0
  7  1  1  0  0  0  0
  9 15  1  0  0  0  0
 10  9  1  0  0  0  0
 10 11  2  0  0  0  0
 11 12  1  0  0  0  0
 12 14  1  0  0  0  0
 12 13  2  0  0  0  0
 14 19  1  0  0  0  0
 15 16  2  0  0  0  0
 15 14  1  0  0  0  0
 17 10  1  0  0  0  0
 18 11  1  0  0  0  0
 20  5  1  0  0  0  0
 20 21  1  0  0  0  0
 21 22  1  0  0  0  0
 23 21  2  0  0  0  0
 24 23  1  0  0  0  0
 25 30  1  0  0  0  0
 25 24  2  0  0  0  0
 26 25  1  0  0  0  0
 27 28  1  0  0  0  0
 27 26  2  0  0  0  0
 28 29  2  0  0  0  0
 29 30  1  0  0  0  0
 30 20  2  0  0  0  0
M  END
>  <minimizedAffinity>
-6.66406822

$$$$

 OpenBabel03272500033D

 30 33  0  0  0  0  0  0  0  0999 V2000
   38.4530   26.8350   35.9720 C   0  0  0  0  0  0  0  0  0  0  0  0
   38.4290   25.5840   35.3290 C   0  0  0  0  0  0  0  0  0  0  0  0
   37.6680   25.4790   34.1790 C   0  0  0  0  0  0  0  0  0  0  0  0
   36.9980   26.5920   33.7560 N   0  0  0  0  0  0  0  0  0  0  0  0
   37.0310   27.7630   34.3740 C   0  0  0  0  0  0  0  0  0  0  0  0
   37.7560   27.8780   35.4770 N   0  0  0  0  0  0  0  0  0  0  0  0
   39.0210   27.0080   36.8750 H   0  0  0  0  0  0  0  0  0  0  0  0
   37.6400   24.5330   33.6790 H   0  0  0  0  0  0  0  0  0  0  0  0
   39.1780   24.5170   35.9090 N   0  0  0  0  0  0  0  0  0  0  0  0
   40.4210   24.2270   35.5140 C   0  0  0  0  0  0  0  0  0  0  0  0
   41.1040   23.1710   36.1160 C   0  0  0  0  0  0  0  0  0  0  0  0
   40.3970   22.5150   37.0920 C   0  0  0  0  0  0  0  0  0  0  0  0
   41.0200   21.5470   37.6470 O   0  0  0  0  0  0  0  0  0  0  0  0
   39.1380   22.7790   37.5200 N   0  0  0  0  0  0  0  0  0  0  0  0
   38.5450   23.8150   36.8860 C   0  0  0  0  0  0  0  0  0  0  0  0
   37.3630   24.0810   37.2710 O   0  0  0  0  0  0  0  0  0  0  0  0
   40.8890   24.8100   34.7320 H   0  0  0  0  0  0  0  0  0  0  0  0
   42.0920   22.8950   35.8440 H   0  0  0  0  0  0  0  0  0  0  0  0
   38.6830   22.2330   38.2610 H   0  0  0  0  0  0  0  0  0  0  0  0
   36.2100   28.7400   33.6700 C   0  0  0  0  0  0  0  0  0  0  0  0
   35.7650   28.5560   32.3890 C   0  0  0  0  0  0  0  0  0  0  0  0
   36.0160   27.6440   31.8270 H   0  0  0  0  0  0  0  0  0  0  0  0
   34.9890   29.4450   31.6790 C   0  0  0  0  0  3  0  0  0  0  0  0
   34.6030   30.6280   32.2630 C   0  0  0  0  0  3  0  0  0  0  0  0
   35.0150   30.8760   33.5510 C   0  0  0  0  0  0  0  0  0  0  0  0
   34.6140   32.0700   34.1090 C   0  0  0  0  0  3  0  0  0  0  0  0
   34.9870   32.3900   35.3970 C   0  0  0  0  0  3  0  0  0  0  0  0
   35.7660   31.4720   36.0720 C   0  0  0  0  0  3  0  0  0  0  0  0
   36.1430   30.2910   35.4730 C   0  0  0  0  0  3  0  0  0  0  0  0
   35.7890   29.9410   34.1930 C   0  0  0  0  0  0  0  0  0  0  0  0
  1  7  1  0  0  0  0
  2  9  1  0  0  0  0
  2  1  2  0  0  0  0
  3  2  1  0  0  0  0
  4  3  2  0  0  0  0
  4  5  1  0  0  0  0
  5  6  2  0  0  0  0
  6  1  1  0  0  0  0
  8  3  1  0  0  0  0
  9 15  1  0  0  0  0
 10  9  1  0  0  0  0
 10 11  2  0  0  0  0
 11 12  1  0  0  0  0
 12 14  1  0  0  0  0
 12 13  2  0  0  0  0
 14 19  1  0  0  0  0
 15 16  2  0  0  0  0
 15 14  1  0  0  0  0
 17 10  1  0  0  0  0
 18 11  1  0  0  0  0
 20 30  1  0  0  0  0
 20  5  1  0  0  0  0
 21 20  2  0  0  0  0
 22 21  1  0  0  0  0
 23 24  2  0  0  0  0
 23 21  1  0  0  0  0
 24 25  1  0  0  0  0
 25 26  2  0  0  0  0
 25 30  1  0  0  0  0
 26 27  1  0  0  0  0
 27 28  2  0  0  0  0
 29 28  1  0  0  0  0
 30 29  2  0  0  0  0
M  END
>  <minimizedAffinity>
-6.61125708

$$$$

 OpenBabel03272500033D

 30 33  0  0  0  0  0  0  0  0999 V2000
   40.3570   25.5070   35.2560 C   0  0  0  0  0  0  0  0  0  0  0  0
   39.7540   24.2420   35.3640 C   0  0  0  0  0  0  0  0  0  0  0  0
   38.4480   24.1240   34.9230 C   0  0  0  0  0  0  0  0  0  0  0  0
   37.8440   25.2410   34.4190 N   0  0  0  0  0  0  0  0  0  0  0  0
   38.4270   26.4270   34.3260 C   0  0  0  0  0  0  0  0  0  0  0  0
   39.6780   26.5530   34.7430 N   0  0  0  0  0  0  0  0  0  0  0  0
   41.3740   25.6900   35.5740 H   0  0  0  0  0  0  0  0  0  0  0  0
   37.9750   23.1660   34.9990 H   0  0  0  0  0  0  0  0  0  0  0  0
   40.5210   23.1770   35.9240 N   0  0  0  0  0  0  0  0  0  0  0  0
   41.5570   22.6340   35.2790 C   0  0  0  0  0  0  0  0  0  0  0  0
   42.2700   21.5960   35.8770 C   0  0  0  0  0  0  0  0  0  0  0  0
   41.8120   21.2270   37.1170 C   0  0  0  0  0  0  0  0  0  0  0  0
   42.4630   20.2740   37.6680 O   0  0  0  0  0  0  0  0  0  0  0  0
   40.7670   21.7520   37.8020 N   0  0  0  0  0  0  0  0  0  0  0  0
   40.1290   22.7520   37.1550 C   0  0  0  0  0  0  0  0  0  0  0  0
   39.1450   23.2610   37.7790 O   0  0  0  0  0  0  0  0  0  0  0  0
   41.8370   23.0010   34.3010 H   0  0  0  0  0  0  0  0  0  0  0  0
   43.1010   21.1260   35.4130 H   0  0  0  0  0  0  0  0  0  0  0  0
   40.4920   21.4120   38.7310 H   0  0  0  0  0  0  0  0  0  0  0  0
   37.5140   27.4060   33.7480 C   0  0  0  0  0  0  0  0  0  0  0  0
   36.5590   28.0580   34.4800 C   0  0  0  0  0  0  0  0  0  0  0  0
   36.4390   27.8640   35.5570 H   0  0  0  0  0  0  0  0  0  0  0  0
   35.6730   28.9890   33.9860 C   0  0  0  0  0  3  0  0  0  0  0  0
   35.7140   29.3260   32.6540 C   0  0  0  0  0  3  0  0  0  0  0  0
   36.6520   28.7080   31.8600 C   0  0  0  0  0  0  0  0  0  0  0  0
   36.6670   29.0650   30.5300 C   0  0  0  0  0  3  0  0  0  0  0  0
   37.5800   28.4880   29.6720 C   0  0  0  0  0  3  0  0  0  0  0  0
   38.4470   27.5600   30.2080 C   0  0  0  0  0  3  0  0  0  0  0  0
   38.3940   27.2340   31.5450 C   0  0  0  0  0  3  0  0  0  0  0  0
   37.5000   27.7880   32.4270 C   0  0  0  0  0  0  0  0  0  0  0  0
  1  2  1  0  0  0  0
  1  7  1  0  0  0  0
  2  9  1  0  0  0  0
  3  8  1  0  0  0  0
  3  2  2  0  0  0  0
  4  3  1  0  0  0  0
  5  4  2  0  0  0  0
  5  6  1  0  0  0  0
  6  1  2  0  0  0  0
  9 15  1  0  0  0  0
 10 11  2  0  0  0  0
 10  9  1  0  0  0  0
 11 12  1  0  0  0  0
 12 13  2  0  0  0  0
 12 14  1  0  0  0  0
 14 19  1  0  0  0  0
 15 16  2  0  0  0  0
 15 14  1  0  0  0  0
 17 10  1  0  0  0  0
 18 11  1  0  0  0  0
 20  5  1  0  0  0  0
 20 21  1  0  0  0  0
 21 22  1  0  0  0  0
 23 21  2  0  0  0  0
 24 23  1  0  0  0  0
 25 30  1  0  0  0  0
 25 24  2  0  0  0  0
 26 25  1  0  0  0  0
 27 28  1  0  0  0  0
 27 26  2  0  0  0  0
 28 29  2  0  0  0  0
 29 30  1  0  0  0  0
 30 20  2  0  0  0  0
M  END
>  <minimizedAffinity>
-6.543118

$$$$

 OpenBabel03272500033D

 30 33  0  0  0  0  0  0  0  0999 V2000
   37.6940   25.4360   32.4400 C   0  0  0  0  0  0  0  0  0  0  0  0
   38.2650   26.7210   32.4070 C   0  0  0  0  0  0  0  0  0  0  0  0
   38.9070   27.1570   33.5510 C   0  0  0  0  0  0  0  0  0  0  0  0
   38.9400   26.3110   34.6240 N   0  0  0  0  0  0  0  0  0  0  0  0
   38.3960   25.1030   34.6380 C   0  0  0  0  0  0  0  0  0  0  0  0
   37.7780   24.6730   33.5490 N   0  0  0  0  0  0  0  0  0  0  0  0
   37.1740   25.0140   31.5910 H   0  0  0  0  0  0  0  0  0  0  0  0
   39.3470   28.1330   33.5410 H   0  0  0  0  0  0  0  0  0  0  0  0
   38.1330   27.4830   31.2080 N   0  0  0  0  0  0  0  0  0  0  0  0
   39.1260   27.5850   30.3200 C   0  0  0  0  0  0  0  0  0  0  0  0
   38.9390   28.3450   29.1660 C   0  0  0  0  0  0  0  0  0  0  0  0
   37.7040   28.9330   29.0610 C   0  0  0  0  0  0  0  0  0  0  0  0
   37.5300   29.6310   28.0040 O   0  0  0  0  0  0  0  0  0  0  0  0
   36.6740   28.8540   29.9390 N   0  0  0  0  0  0  0  0  0  0  0  0
   36.9340   28.1000   31.0290 C   0  0  0  0  0  0  0  0  0  0  0  0
   35.9820   28.0110   31.8670 O   0  0  0  0  0  0  0  0  0  0  0  0
   40.0650   27.0790   30.4990 H   0  0  0  0  0  0  0  0  0  0  0  0
   39.6910   28.4620   28.4260 H   0  0  0  0  0  0  0  0  0  0  0  0
   35.7780   29.3300   29.7800 H   0  0  0  0  0  0  0  0  0  0  0  0
   38.6040   24.4600   35.9300 C   0  0  0  0  0  0  0  0  0  0  0  0
   37.8230   24.7160   37.0250 C   0  0  0  0  0  0  0  0  0  0  0  0
   36.9890   25.4330   36.9720 H   0  0  0  0  0  0  0  0  0  0  0  0
   37.9740   24.1380   38.2650 C   0  0  0  0  0  3  0  0  0  0  0  0
   38.9780   23.2220   38.4700 C   0  0  0  0  0  3  0  0  0  0  0  0
   39.8010   22.9180   37.4110 C   0  0  0  0  0  0  0  0  0  0  0  0
   40.7980   21.9980   37.6470 C   0  0  0  0  0  3  0  0  0  0  0  0
   41.6630   21.6420   36.6330 C   0  0  0  0  0  3  0  0  0  0  0  0
   41.4760   22.2460   35.4070 C   0  0  0  0  0  3  0  0  0  0  0  0
   40.4640   23.1600   35.2180 C   0  0  0  0  0  3  0  0  0  0  0  0
   39.5860   23.5380   36.2040 C   0  0  0  0  0  0  0  0  0  0  0  0
  1  6  1  0  0  0  0
  2  1  2  0  0  0  0
  2  3  1  0  0  0  0
  3  4  2  0  0  0  0
  4  5  1  0  0  0  0
  5 20  1  0  0  0  0
  6  5  2  0  0  0  0
  7  1  1  0  0  0  0
  8  3  1  0  0  0  0
  9  2  1  0  0  0  0
 10 17  1  0  0  0  0
 10  9  1  0  0  0  0
 11 10  2  0  0  0  0
 12 11  1  0  0  0  0
 12 14  1  0  0  0  0
 13 12  2  0  0  0  0
 14 15  1  0  0  0  0
 15  9  1  0  0  0  0
 15 16  2  0  0  0  0
 18 11  1  0  0  0  0
 19 14  1  0  0  0  0
 20 30  2  0  0  0  0
 20 21  1  0  0  0  0
 21 23  2  0  0  0  0
 22 21  1  0  0  0  0
 23 24  1  0  0  0  0
 25 26  1  0  0  0  0
 25 24  2  0  0  0  0
 27 26  2  0  0  0  0
 28 27  1  0  0  0  0
 29 28  2  0  0  0  0
 29 30  1  0  0  0  0
 30 25  1  0  0  0  0
M  END
>  <minimizedAffinity>
-6.33089066

$$$$

 OpenBabel03272500033D

 30 33  0  0  0  0  0  0  0  0999 V2000
   36.2950   28.5750   31.8720 C   0  0  0  0  0  0  0  0  0  0  0  0
   36.9450   27.4870   32.4810 C   0  0  0  0  0  0  0  0  0  0  0  0
   36.9590   27.4500   33.8630 C   0  0  0  0  0  0  0  0  0  0  0  0
   36.3440   28.4710   34.5320 N   0  0  0  0  0  0  0  0  0  0  0  0
   35.7360   29.4900   33.9430 C   0  0  0  0  0  0  0  0  0  0  0  0
   35.7150   29.5360   32.6190 N   0  0  0  0  0  0  0  0  0  0  0  0
   36.2340   28.6840   30.7980 H   0  0  0  0  0  0  0  0  0  0  0  0
   37.4510   26.6270   34.3410 H   0  0  0  0  0  0  0  0  0  0  0  0
   37.5490   26.5080   31.6360 N   0  0  0  0  0  0  0  0  0  0  0  0
   38.8350   26.5750   31.2800 C   0  0  0  0  0  0  0  0  0  0  0  0
   39.3700   25.5900   30.4520 C   0  0  0  0  0  0  0  0  0  0  0  0
   38.4820   24.6140   30.0750 C   0  0  0  0  0  0  0  0  0  0  0  0
   38.9690   23.7090   29.3150 O   0  0  0  0  0  0  0  0  0  0  0  0
   37.1740   24.5120   30.4150 N   0  0  0  0  0  0  0  0  0  0  0  0
   36.7320   25.5050   31.2170 C   0  0  0  0  0  0  0  0  0  0  0  0
   35.5070   25.4300   31.5500 O   0  0  0  0  0  0  0  0  0  0  0  0
   39.4520   27.3900   31.6350 H   0  0  0  0  0  0  0  0  0  0  0  0
   40.3840   25.5910   30.1360 H   0  0  0  0  0  0  0  0  0  0  0  0
   36.5780   23.7430   30.0840 H   0  0  0  0  0  0  0  0  0  0  0  0
   35.1850   30.4040   34.9360 C   0  0  0  0  0  0  0  0  0  0  0  0
   35.9120   31.4140   35.5050 C   0  0  0  0  0  0  0  0  0  0  0  0
   36.9660   31.5790   35.2310 H   0  0  0  0  0  0  0  0  0  0  0  0
   35.4420   32.3040   36.4440 C   0  0  0  0  0  3  0  0  0  0  0  0
   34.1400   32.2110   36.8770 C   0  0  0  0  0  3  0  0  0  0  0  0
   33.3520   31.2170   36.3440 C   0  0  0  0  0  0  0  0  0  0  0  0
   32.0540   31.1490   36.7980 C   0  0  0  0  0  3  0  0  0  0  0  0
   31.2030   30.1790   36.3100 C   0  0  0  0  0  3  0  0  0  0  0  0
   31.7150   29.3080   35.3710 C   0  0  0  0  0  3  0  0  0  0  0  0
   33.0210   29.4150   34.9480 C   0  0  0  0  0  3  0  0  0  0  0  0
   33.8950   30.3680   35.4120 C   0  0  0  0  0  0  0  0  0  0  0  0
  1  2  2  0  0  0  0
  1  6  1  0  0  0  0
  2  3  1  0  0  0  0
  3  8  1  0  0  0  0
  3  4  2  0  0  0  0
  5  4  1  0  0  0  0
  5 20  1  0  0  0  0
  6  5  2  0  0  0  0
  7  1  1  0  0  0  0
  9  2  1  0  0  0  0
 10 17  1  0  0  0  0
 10  9  1  0  0  0  0
 11 10  2  0  0  0  0
 12 14  1  0  0  0  0
 12 11  1  0  0  0  0
 13 12  2  0  0  0  0
 14 15  1  0  0  0  0
 15 16  2  0  0  0  0
 15  9  1  0  0  0  0
 18 11  1  0  0  0  0
 19 14  1  0  0  0  0
 20 30  2  0  0  0  0
 20 21  1  0  0  0  0
 21 23  2  0  0  0  0
 22 21  1  0  0  0  0
 23 24  1  0  0  0  0
 25 26  1  0  0  0  0
 25 24  2  0  0  0  0
 27 26  2  0  0  0  0
 28 27  1  0  0  0  0
 29 28  2  0  0  0  0
 29 30  1  0  0  0  0
 30 25  1  0  0  0  0
M  END
>  <minimizedAffinity>
-6.25511265

$$$$

 OpenBabel03272500033D

 30 33  0  0  0  0  0  0  0  0999 V2000
   37.6630   25.4720   32.4790 C   0  0  0  0  0  0  0  0  0  0  0  0
   38.2780   26.7360   32.4290 C   0  0  0  0  0  0  0  0  0  0  0  0
   38.9750   27.1450   33.5510 C   0  0  0  0  0  0  0  0  0  0  0  0
   39.0130   26.2960   34.6210 N   0  0  0  0  0  0  0  0  0  0  0  0
   38.4270   25.1080   34.6520 C   0  0  0  0  0  0  0  0  0  0  0  0
   37.7570   24.7030   33.5830 N   0  0  0  0  0  0  0  0  0  0  0  0
   37.0990   25.0710   31.6480 H   0  0  0  0  0  0  0  0  0  0  0  0
   39.4480   28.1050   33.5280 H   0  0  0  0  0  0  0  0  0  0  0  0
   38.1330   27.5060   31.2370 N   0  0  0  0  0  0  0  0  0  0  0  0
   37.1160   28.3550   31.0600 C   0  0  0  0  0  0  0  0  0  0  0  0
   37.0260   29.0810   29.8730 C   0  0  0  0  0  0  0  0  0  0  0  0
   38.0350   28.8360   28.9750 C   0  0  0  0  0  0  0  0  0  0  0  0
   37.9550   29.5000   27.8850 O   0  0  0  0  0  0  0  0  0  0  0  0
   39.0800   27.9850   29.1180 N   0  0  0  0  0  0  0  0  0  0  0  0
   39.0940   27.3200   30.2930 C   0  0  0  0  0  0  0  0  0  0  0  0
   40.0670   26.5160   30.4500 O   0  0  0  0  0  0  0  0  0  0  0  0
   36.3710   28.4740   31.8350 H   0  0  0  0  0  0  0  0  0  0  0  0
   36.2420   29.7690   29.6770 H   0  0  0  0  0  0  0  0  0  0  0  0
   39.7930   27.8630   28.3890 H   0  0  0  0  0  0  0  0  0  0  0  0
   38.6550   24.4550   35.9350 C   0  0  0  0  0  0  0  0  0  0  0  0
   37.9070   24.7180   37.0500 C   0  0  0  0  0  0  0  0  0  0  0  0
   37.0850   25.4500   37.0220 H   0  0  0  0  0  0  0  0  0  0  0  0
   38.0790   24.1310   38.2830 C   0  0  0  0  0  3  0  0  0  0  0  0
   39.0710   23.1960   38.4580 C   0  0  0  0  0  3  0  0  0  0  0  0
   39.8610   22.8830   37.3770 C   0  0  0  0  0  0  0  0  0  0  0  0
   40.8470   21.9440   37.5830 C   0  0  0  0  0  3  0  0  0  0  0  0
   41.6800   21.5780   36.5460 C   0  0  0  0  0  3  0  0  0  0  0  0
   41.4730   22.1920   35.3280 C   0  0  0  0  0  3  0  0  0  0  0  0
   40.4740   23.1260   35.1690 C   0  0  0  0  0  3  0  0  0  0  0  0
   39.6270   23.5130   36.1790 C   0  0  0  0  0  0  0  0  0  0  0  0
  1  6  1  0  0  0  0
  2  1  2  0  0  0  0
  2  3  1  0  0  0  0
  3  4  2  0  0  0  0
  4  5  1  0  0  0  0
  5 20  1  0  0  0  0
  6  5  2  0  0  0  0
  7  1  1  0  0  0  0
  8  3  1  0  0  0  0
  9  2  1  0  0  0  0
 10  9  1  0  0  0  0
 10 17  1  0  0  0  0
 11 10  2  0  0  0  0
 12 14  1  0  0  0  0
 12 11  1  0  0  0  0
 13 12  2  0  0  0  0
 14 15  1  0  0  0  0
 15 16  2  0  0  0  0
 15  9  1  0  0  0  0
 18 11  1  0  0  0  0
 19 14  1  0  0  0  0
 20 30  2  0  0  0  0
 20 21  1  0  0  0  0
 21 23  2  0  0  0  0
 22 21  1  0  0  0  0
 23 24  1  0  0  0  0
 25 26  1  0  0  0  0
 25 24  2  0  0  0  0
 27 26  2  0  0  0  0
 28 27  1  0  0  0  0
 29 28  2  0  0  0  0
 29 30  1  0  0  0  0
 30 25  1  0  0  0  0
M  END
>  <minimizedAffinity>
-6.19463444

$$$$

 OpenBabel03272500033D

 30 33  0  0  0  0  0  0  0  0999 V2000
   39.8990   26.1340   34.9220 C   0  0  0  0  0  0  0  0  0  0  0  0
   39.5810   24.7820   34.6990 C   0  0  0  0  0  0  0  0  0  0  0  0
   38.6850   24.5020   33.6840 C   0  0  0  0  0  0  0  0  0  0  0  0
   38.1760   25.5540   32.9770 N   0  0  0  0  0  0  0  0  0  0  0  0
   38.4850   26.8230   33.2010 C   0  0  0  0  0  0  0  0  0  0  0  0
   39.3430   27.1050   34.1700 N   0  0  0  0  0  0  0  0  0  0  0  0
   40.5900   26.4440   35.6930 H   0  0  0  0  0  0  0  0  0  0  0  0
   38.4340   23.4770   33.5020 H   0  0  0  0  0  0  0  0  0  0  0  0
   40.1940   23.8010   35.5360 N   0  0  0  0  0  0  0  0  0  0  0  0
   41.4660   23.4260   35.3740 C   0  0  0  0  0  0  0  0  0  0  0  0
   42.0110   22.4630   36.2220 C   0  0  0  0  0  0  0  0  0  0  0  0
   41.1460   21.9820   37.1730 C   0  0  0  0  0  0  0  0  0  0  0  0
   41.6420   21.0990   37.9520 O   0  0  0  0  0  0  0  0  0  0  0  0
   39.8520   22.3370   37.3670 N   0  0  0  0  0  0  0  0  0  0  0  0
   39.4000   23.2740   36.5060 C   0  0  0  0  0  0  0  0  0  0  0  0
   38.1890   23.6230   36.6690 O   0  0  0  0  0  0  0  0  0  0  0  0
   42.0650   23.8710   34.5900 H   0  0  0  0  0  0  0  0  0  0  0  0
   43.0140   22.1260   36.1420 H   0  0  0  0  0  0  0  0  0  0  0  0
   39.2740   21.9220   38.1090 H   0  0  0  0  0  0  0  0  0  0  0  0
   37.7720   27.6970   32.2780 C   0  0  0  0  0  0  0  0  0  0  0  0
   38.1090   27.8220   30.9570 C   0  0  0  0  0  0  0  0  0  0  0  0
   38.9520   27.2550   30.5310 H   0  0  0  0  0  0  0  0  0  0  0  0
   37.4720   28.6310   30.0440 C   0  0  0  0  0  3  0  0  0  0  0  0
   36.4010   29.3950   30.4440 C   0  0  0  0  0  3  0  0  0  0  0  0
   36.0080   29.3170   31.7600 C   0  0  0  0  0  0  0  0  0  0  0  0
   34.9340   30.0940   32.1310 C   0  0  0  0  0  3  0  0  0  0  0  0
   34.4810   30.0690   33.4330 C   0  0  0  0  0  3  0  0  0  0  0  0
   35.1490   29.2460   34.3150 C   0  0  0  0  0  3  0  0  0  0  0  0
   36.2190   28.4860   33.8980 C   0  0  0  0  0  3  0  0  0  0  0  0
   36.6960   28.4860   32.6100 C   0  0  0  0  0  0  0  0  0  0  0  0
  1  7  1  0  0  0  0
  2  1  1  0  0  0  0
  2  9  1  0  0  0  0
  3  2  2  0  0  0  0
  4  5  2  0  0  0  0
  4  3  1  0  0  0  0
  5  6  1  0  0  0  0
  6  1  2  0  0  0  0
  8  3  1  0  0  0  0
  9 15  1  0  0  0  0
 10  9  1  0  0  0  0
 10 11  2  0  0  0  0
 11 12  1  0  0  0  0
 12 14  1  0  0  0  0
 12 13  2  0  0  0  0
 14 19  1  0  0  0  0
 15 16  2  0  0  0  0
 15 14  1  0  0  0  0
 17 10  1  0  0  0  0
 18 11  1  0  0  0  0
 20 30  1  0  0  0  0
 20  5  1  0  0  0  0
 21 20  2  0  0  0  0
 22 21  1  0  0  0  0
 23 24  2  0  0  0  0
 23 21  1  0  0  0  0
 24 25  1  0  0  0  0
 25 26  2  0  0  0  0
 25 30  1  0  0  0  0
 26 27  1  0  0  0  0
 27 28  2  0  0  0  0
 29 28  1  0  0  0  0
 30 29  2  0  0  0  0
M  END
>  <minimizedAffinity>
-6.19127464

$$$$

 OpenBabel03272500033D

 30 33  0  0  0  0  0  0  0  0999 V2000
   36.8140   28.2120   34.3550 C   0  0  0  0  0  0  0  0  0  0  0  0
   36.2390   27.9600   33.0970 C   0  0  0  0  0  0  0  0  0  0  0  0
   36.5840   26.7760   32.4700 C   0  0  0  0  0  0  0  0  0  0  0  0
   37.4550   25.9450   33.1160 N   0  0  0  0  0  0  0  0  0  0  0  0
   37.9890   26.1990   34.3010 C   0  0  0  0  0  0  0  0  0  0  0  0
   37.6660   27.3280   34.9130 N   0  0  0  0  0  0  0  0  0  0  0  0
   36.6010   29.1110   34.9170 H   0  0  0  0  0  0  0  0  0  0  0  0
   36.1540   26.5700   31.5110 H   0  0  0  0  0  0  0  0  0  0  0  0
   35.3540   28.9390   32.5540 N   0  0  0  0  0  0  0  0  0  0  0  0
   34.1270   29.1360   33.0470 C   0  0  0  0  0  0  0  0  0  0  0  0
   33.3070   30.1070   32.4750 C   0  0  0  0  0  0  0  0  0  0  0  0
   33.8690   30.7850   31.4230 C   0  0  0  0  0  0  0  0  0  0  0  0
   33.1190   31.6760   30.8970 O   0  0  0  0  0  0  0  0  0  0  0  0
   35.1060   30.6140   30.8970 N   0  0  0  0  0  0  0  0  0  0  0  0
   35.8380   29.6550   31.5050 C   0  0  0  0  0  0  0  0  0  0  0  0
   37.0030   29.4770   31.0280 O   0  0  0  0  0  0  0  0  0  0  0  0
   33.7800   28.5440   33.8830 H   0  0  0  0  0  0  0  0  0  0  0  0
   32.3240   30.3090   32.8240 H   0  0  0  0  0  0  0  0  0  0  0  0
   35.4480   31.1690   30.1030 H   0  0  0  0  0  0  0  0  0  0  0  0
   38.8750   25.1160   34.7100 C   0  0  0  0  0  0  0  0  0  0  0  0
   39.8290   24.5820   33.8870 C   0  0  0  0  0  0  0  0  0  0  0  0
   39.9680   24.9570   32.8610 H   0  0  0  0  0  0  0  0  0  0  0  0
   40.6900   23.5610   34.2210 C   0  0  0  0  0  3  0  0  0  0  0  0
   40.6260   23.0000   35.4740 C   0  0  0  0  0  3  0  0  0  0  0  0
   39.6880   23.4900   36.3530 C   0  0  0  0  0  0  0  0  0  0  0  0
   39.6460   22.9070   37.6000 C   0  0  0  0  0  3  0  0  0  0  0  0
   38.7330   23.3450   38.5360 C   0  0  0  0  0  3  0  0  0  0  0  0
   37.8890   24.3690   38.1590 C   0  0  0  0  0  3  0  0  0  0  0  0
   37.9680   24.9210   36.9000 C   0  0  0  0  0  3  0  0  0  0  0  0
   38.8640   24.5100   35.9440 C   0  0  0  0  0  0  0  0  0  0  0  0
  1  6  1  0  0  0  0
  1  7  1  0  0  0  0
  2  1  2  0  0  0  0
  3  2  1  0  0  0  0
  3  4  2  0  0  0  0
  4  5  1  0  0  0  0
  5 20  1  0  0  0  0
  5  6  2  0  0  0  0
  8  3  1  0  0  0  0
  9 10  1  0  0  0  0
  9  2  1  0  0  0  0
 10 17  1  0  0  0  0
 11 18  1  0  0  0  0
 11 10  2  0  0  0  0
 12 11  1  0  0  0  0
 13 12  2  0  0  0  0
 14 12  1  0  0  0  0
 14 15  1  0  0  0  0
 15  9  1  0  0  0  0
 16 15  2  0  0  0  0
 19 14  1  0  0  0  0
 20 30  1  0  0  0  0
 21 23  1  0  0  0  0
 21 20  2  0  0  0  0
 22 21  1  0  0  0  0
 23 24  2  0  0  0  0
 24 25  1  0  0  0  0
 25 26  1  0  0  0  0
 26 27  2  0  0  0  0
 28 27  1  0  0  0  0
 29 28  2  0  0  0  0
 30 25  2  0  0  0  0
 30 29  1  0  0  0  0
M  END
>  <minimizedAffinity>
-6.16327333

$$$$

 OpenBabel03272500033D

 30 33  0  0  0  0  0  0  0  0999 V2000
   37.0230   26.2890   33.1440 C   0  0  0  0  0  0  0  0  0  0  0  0
   36.9790   27.6090   33.6270 C   0  0  0  0  0  0  0  0  0  0  0  0
   37.4490   27.8290   34.9090 C   0  0  0  0  0  0  0  0  0  0  0  0
   37.9180   26.7520   35.6080 N   0  0  0  0  0  0  0  0  0  0  0  0
   37.9510   25.5140   35.1370 C   0  0  0  0  0  0  0  0  0  0  0  0
   37.5040   25.2900   33.9100 N   0  0  0  0  0  0  0  0  0  0  0  0
   36.6770   26.0250   32.1540 H   0  0  0  0  0  0  0  0  0  0  0  0
   37.4230   28.8290   35.2900 H   0  0  0  0  0  0  0  0  0  0  0  0
   36.4480   28.6200   32.7720 N   0  0  0  0  0  0  0  0  0  0  0  0
   36.9960   28.9060   31.5870 C   0  0  0  0  0  0  0  0  0  0  0  0
   36.4330   29.9050   30.7940 C   0  0  0  0  0  0  0  0  0  0  0  0
   35.3300   30.5140   31.3380 C   0  0  0  0  0  0  0  0  0  0  0  0
   34.8120   31.4310   30.6130 O   0  0  0  0  0  0  0  0  0  0  0  0
   34.7470   30.2530   32.5330 N   0  0  0  0  0  0  0  0  0  0  0  0
   35.3510   29.2730   33.2400 C   0  0  0  0  0  0  0  0  0  0  0  0
   34.8210   29.0100   34.3650 O   0  0  0  0  0  0  0  0  0  0  0  0
   37.8690   28.3630   31.2500 H   0  0  0  0  0  0  0  0  0  0  0  0
   36.8240   30.1760   29.8450 H   0  0  0  0  0  0  0  0  0  0  0  0
   33.9180   30.7610   32.8630 H   0  0  0  0  0  0  0  0  0  0  0  0
   38.5050   24.6010   36.1290 C   0  0  0  0  0  0  0  0  0  0  0  0
   37.8360   24.2410   37.2680 C   0  0  0  0  0  0  0  0  0  0  0  0
   36.8320   24.6360   37.4850 H   0  0  0  0  0  0  0  0  0  0  0  0
   38.3120   23.3840   38.2350 C   0  0  0  0  0  3  0  0  0  0  0  0
   39.5560   22.8180   38.0890 C   0  0  0  0  0  3  0  0  0  0  0  0
   40.2830   23.1370   36.9660 C   0  0  0  0  0  0  0  0  0  0  0  0
   41.5250   22.5550   36.8480 C   0  0  0  0  0  3  0  0  0  0  0  0
   42.3130   22.8260   35.7490 C   0  0  0  0  0  3  0  0  0  0  0  0
   41.7980   23.6900   34.8050 C   0  0  0  0  0  3  0  0  0  0  0  0
   40.5500   24.2480   34.9660 C   0  0  0  0  0  3  0  0  0  0  0  0
   39.7390   24.0000   36.0460 C   0  0  0  0  0  0  0  0  0  0  0  0
  1  2  2  0  0  0  0
  1  6  1  0  0  0  0
  2  3  1  0  0  0  0
  3  8  1  0  0  0  0
  3  4  2  0  0  0  0
  5  4  1  0  0  0  0
  5 20  1  0  0  0  0
  6  5  2  0  0  0  0
  7  1  1  0  0  0  0
  9 15  1  0  0  0  0
  9  2  1  0  0  0  0
 10  9  1  0  0  0  0
 11 12  1  0  0  0  0
 11 10  2  0  0  0  0
 12 14  1  0  0  0  0
 13 12  2  0  0  0  0
 14 19  1  0  0  0  0
 14 15  1  0  0  0  0
 15 16  2  0  0  0  0
 17 10  1  0  0  0  0
 18 11  1  0  0  0  0
 20 21  1  0  0  0  0
 21 22  1  0  0  0  0
 21 23  2  0  0  0  0
 24 23  1  0  0  0  0
 25 24  2  0  0  0  0
 26 25  1  0  0  0  0
 27 26  2  0  0  0  0
 28 29  2  0  0  0  0
 28 27  1  0  0  0  0
 29 30  1  0  0  0  0
 30 20  2  0  0  0  0
 30 25  1  0  0  0  0
M  END
>  <minimizedAffinity>
-6.04253435

$$$$
