
 OpenBabel03272510273D

 47 52  0  0  1  0  0  0  0  0999 V2000
   39.6740   31.7850   41.9010 N   0  0  0  0  0  0  0  0  0  0  0  0
   39.3400   33.2070   41.9840 C   0  0  1  0  0  0  0  0  0  0  0  0
   37.9720   33.4200   41.5360 C   0  0  0  0  0  0  0  0  0  0  0  0
   37.8680   33.0670   40.1810 O   0  0  0  0  0  0  0  0  0  0  0  0
   38.2950   31.7900   39.8830 C   0  0  0  0  0  0  0  0  0  0  0  0
   39.6600   31.5110   40.4800 C   0  0  2  0  0  0  0  0  0  0  0  0
   38.9760   31.1630   42.2840 H   0  0  0  0  0  0  0  0  0  0  0  0
   40.0550   33.7110   41.3060 H   0  0  0  0  0  0  0  0  0  0  0  0
   37.7970   34.5410   41.5210 H   0  0  0  0  0  0  0  0  0  0  0  0
   37.1090   32.9930   41.9720 H   0  0  0  0  0  0  0  0  0  0  0  0
   38.3520   31.7170   38.7930 H   0  0  0  0  0  0  0  0  0  0  0  0
   37.5850   31.0670   40.3420 H   0  0  0  0  0  0  0  0  0  0  0  0
   40.3720   32.2610   40.0710 H   0  0  0  0  0  0  0  0  0  0  0  0
   40.0540   30.1210   40.2700 C   0  0  0  0  0  0  0  0  0  0  0  0
   39.3610   28.9970   40.6290 C   0  0  0  0  0  0  0  0  0  0  0  0
   38.4050   29.0930   41.1230 H   0  0  0  0  0  0  0  0  0  0  0  0
   39.7550   27.6910   40.4280 C   0  0  0  0  0  3  0  0  0  0  0  0
   40.9620   27.4520   39.8050 C   0  0  0  0  0  3  0  0  0  0  0  0
   41.7080   28.5440   39.4180 C   0  0  0  0  0  0  0  0  0  0  0  0
   42.9040   28.2500   38.7980 C   0  0  0  0  0  3  0  0  0  0  0  0
   43.7170   29.2790   38.3740 C   0  0  0  0  0  3  0  0  0  0  0  0
   43.3170   30.5850   38.5780 C   0  0  0  0  0  3  0  0  0  0  0  0
   42.1270   30.8050   39.1950 C   0  0  0  0  0  3  0  0  0  0  0  0
   41.2530   29.8420   39.6510 C   0  0  0  0  0  0  0  0  0  0  0  0
   39.4950   33.5730   43.3450 O   0  0  0  0  0  0  0  0  0  0  0  0
   36.2200   30.2050   46.9140 C   0  0  0  0  0  0  0  0  0  0  0  0
   37.0640   30.7380   47.8700 C   0  0  0  0  0  0  0  0  0  0  0  0
   38.0770   31.6430   47.5190 C   0  0  0  0  0  0  0  0  0  0  0  0
   38.1650   31.9540   46.1670 C   0  0  0  0  0  0  0  0  0  0  0  0
   39.0630   32.8110   45.5800 N   0  0  0  0  0  0  0  0  0  0  0  0
   38.7790   32.8070   44.2660 C   0  0  0  0  0  0  0  0  0  0  0  0
   37.7670   32.0030   44.0340 N   0  0  0  0  0  0  0  0  0  0  0  0
   37.3510   31.4500   45.1840 C   0  0  0  0  0  0  0  0  0  0  0  0
   36.3510   30.5480   45.5750 C   0  0  0  0  0  0  0  0  0  0  0  0
   35.4280   29.5060   47.1360 H   0  0  0  0  0  0  0  0  0  0  0  0
   38.7410   32.0650   48.2560 H   0  0  0  0  0  0  0  0  0  0  0  0
   39.8170   33.3500   46.0790 H   0  0  0  0  0  0  0  0  0  0  0  0
   35.7060   30.1470   44.8050 H   0  0  0  0  0  0  0  0  0  0  0  0
   37.4380   30.1370   51.5670 C   0  0  0  0  0  0  0  0  0  0  0  0
   37.7560   30.5770   50.2850 C   0  0  0  0  0  0  0  0  0  0  0  0
   36.8810   30.3460   49.2540 C   0  0  0  0  0  0  0  0  0  0  0  0
   35.7140   29.6770   49.5570 N   0  0  0  0  0  0  0  0  0  0  0  0
   35.4150   29.2540   50.8010 C   0  0  0  0  0  0  0  0  0  0  0  0
   36.2650   29.4830   51.7840 N   0  0  0  0  0  0  0  0  0  0  0  0
   38.1500   30.3370   52.3540 H   0  0  0  0  0  0  0  0  0  0  0  0
   38.6620   31.0960   50.0520 H   0  0  0  0  0  0  0  0  0  0  0  0
   34.4680   28.7360   50.9350 H   0  0  0  0  0  0  0  0  0  0  0  0
  1  2  1  0  0  0  0
  1  7  1  0  0  0  0
  2  8  1  6  0  0  0
  2 25  1  0  0  0  0
  3 10  1  0  0  0  0
  3  2  1  0  0  0  0
  4  3  1  0  0  0  0
  5  4  1  0  0  0  0
  5 12  1  0  0  0  0
  5  6  1  0  0  0  0
  6 13  1  6  0  0  0
  6  1  1  0  0  0  0
  9  3  1  0  0  0  0
 11  5  1  0  0  0  0
 14  6  1  0  0  0  0
 14 15  1  0  0  0  0
 15 16  1  0  0  0  0
 17 15  2  0  0  0  0
 18 17  1  0  0  0  0
 19 24  1  0  0  0  0
 19 18  2  0  0  0  0
 20 19  1  0  0  0  0
 21 22  1  0  0  0  0
 21 20  2  0  0  0  0
 22 23  2  0  0  0  0
 23 24  1  0  0  0  0
 24 14  2  0  0  0  0
 25 31  1  0  0  0  0
 26 35  1  0  0  0  0
 26 27  1  0  0  0  0
 27 41  1  0  0  0  0
 28 27  2  0  0  0  0
 28 36  1  0  0  0  0
 29 28  1  0  0  0  0
 30 37  1  0  0  0  0
 30 29  1  0  0  0  0
 31 30  1  0  0  0  0
 32 31  2  0  0  0  0
 32 33  1  0  0  0  0
 33 34  1  0  0  0  0
 33 29  2  0  0  0  0
 34 26  2  0  0  0  0
 38 34  1  0  0  0  0
 39 44  1  0  0  0  0
 39 45  1  0  0  0  0
 40 39  2  0  0  0  0
 41 42  2  0  0  0  0
 41 40  1  0  0  0  0
 42 43  1  0  0  0  0
 43 47  1  0  0  0  0
 43 44  2  0  0  0  0
 46 40  1  0  0  0  0
M  END
>  <minimizedAffinity>
-6.58103991

>  <minimizedRMSD>
1.71099854

$$$$
