
 OpenBabel03272501133D

 30 33  0  0  1  0  0  0  0  0999 V2000
   36.1900   30.4410   49.8460 C   0  0  1  0  0  0  0  0  0  0  0  0
   36.1340   29.0270   49.5470 C   0  0  1  0  0  0  0  0  0  0  0  0
   36.8200   29.4280   50.8020 C   0  0  0  0  0  0  0  0  0  0  0  0
   35.3010   30.9890   50.2650 H   0  0  0  0  0  0  0  0  0  0  0  0
   36.8490   28.6170   48.7770 H   0  0  0  0  0  0  0  0  0  0  0  0
   36.2850   29.3280   51.7620 H   0  0  0  0  0  0  0  0  0  0  0  0
   37.9280   29.3880   50.8760 H   0  0  0  0  0  0  0  0  0  0  0  0
   37.2330   31.3410   49.2150 C   0  0  0  0  0  0  0  0  0  0  0  0
   37.3920   32.6020   49.7930 C   0  0  0  0  0  0  0  0  0  0  0  0
   38.3460   33.4120   49.1750 C   0  0  0  0  0  0  0  0  0  0  0  0
   39.0520   32.9620   48.0810 N   0  0  0  0  0  0  0  0  0  0  0  0
   38.8530   31.7340   47.5690 C   0  0  0  0  0  0  0  0  0  0  0  0
   37.9220   30.9080   48.1510 N   0  0  0  0  0  0  0  0  0  0  0  0
   36.8430   32.9570   50.6480 H   0  0  0  0  0  0  0  0  0  0  0  0
   38.5680   34.4120   49.5220 H   0  0  0  0  0  0  0  0  0  0  0  0
   39.4000   31.3720   46.7090 H   0  0  0  0  0  0  0  0  0  0  0  0
   34.7750   28.3690   49.5300 C   0  0  0  0  0  0  0  0  0  0  0  0
   34.8370   27.2870   49.7830 H   0  0  0  0  0  0  0  0  0  0  0  0
   34.2030   28.8450   50.3580 H   0  0  0  0  0  0  0  0  0  0  0  0
   34.0330   28.5960   48.2670 C   0  0  0  0  0  0  0  0  0  0  0  0
   34.7300   29.1460   47.1860 C   0  0  0  0  0  0  0  0  0  0  0  0
   35.7860   29.4100   47.3390 H   0  0  0  0  0  0  0  0  0  0  0  0
   34.2310   29.3930   45.9380 C   0  0  0  0  0  0  0  0  0  0  0  0
   32.9200   29.0810   45.7000 C   0  0  0  0  0  0  0  0  0  0  0  0
   32.1830   28.5360   46.7290 C   0  0  0  0  0  0  0  0  0  0  0  0
   30.8520   28.2270   46.5040 C   0  0  0  0  0  0  0  0  0  0  0  0
   30.1260   27.6900   47.5620 C   0  0  0  0  0  0  0  0  0  0  0  0
   30.6620   27.4570   48.8050 C   0  0  0  0  0  0  0  0  0  0  0  0
   31.9900   27.7750   48.9990 C   0  0  0  0  0  0  0  0  0  0  0  0
   32.7210   28.3010   47.9780 C   0  0  0  0  0  0  0  0  0  0  0  0
  1  4  1  1  0  0  0
  1  3  1  0  0  0  0
  2  5  1  6  0  0  0
  2  1  1  0  0  0  0
  2  3  1  0  0  0  0
  3  7  1  0  0  0  0
  3  6  1  0  0  0  0
  8  9  1  0  0  0  0
  8  1  1  0  0  0  0
  9 14  1  0  0  0  0
 10 15  1  0  0  0  0
 10  9  2  0  0  0  0
 11 10  1  0  0  0  0
 12 11  2  0  0  0  0
 12 13  1  0  0  0  0
 13  8  2  0  0  0  0
 16 12  1  0  0  0  0
 17  2  1  0  0  0  0
 17 18  1  0  0  0  0
 17 19  1  0  0  0  0
 20 17  1  0  0  0  0
 21 22  1  0  0  0  0
 21 20  2  0  0  0  0
 23 21  1  0  0  0  0
 24 23  2  0  0  0  0
 24 25  1  0  0  0  0
 25 30  1  0  0  0  0
 26 25  2  0  0  0  0
 26 27  1  0  0  0  0
 27 28  2  0  0  0  0
 28 29  1  0  0  0  0
 30 20  1  0  0  0  0
 30 29  2  0  0  0  0
M  END
>  <minimizedAffinity>
-6.16171598

>  <minimizedRMSD>
4.29233932

$$$$
