
 OpenBabel03272502503D

 44 48  0  0  0  0  0  0  0  0999 V2000
   37.3930   28.1560   30.0910 Cl  0  0  0  0  0  0  0  0  0  0  0  0
   36.6480   28.8820   31.4840 C   0  0  0  0  0  0  0  0  0  0  0  0
   36.3320   28.0980   32.5670 C   0  0  0  0  0  0  0  0  0  0  0  0
   35.7430   28.6330   33.6870 C   0  0  0  0  0  0  0  0  0  0  0  0
   35.4500   29.9720   33.7640 C   0  0  0  0  0  0  0  0  0  0  0  0
   35.7560   30.7850   32.6930 C   0  0  0  0  0  0  0  0  0  0  0  0
   35.4350   32.5180   32.6580 Cl  0  0  0  0  0  0  0  0  0  0  0  0
   36.3450   30.2100   31.5930 C   0  0  0  0  0  0  0  0  0  0  0  0
   35.4870   28.0260   34.5490 H   0  0  0  0  0  0  0  0  0  0  0  0
   34.8300   30.6160   34.9050 C   0  0  0  0  0  0  0  0  0  0  0  0
   35.7270   31.3630   35.6710 C   0  0  0  0  0  0  0  0  0  0  0  0
   36.7660   31.4650   35.4600 H   0  0  0  0  0  0  0  0  0  0  0  0
   35.2350   32.0270   36.7980 C   0  0  0  0  0  3  0  0  0  0  0  0
   33.9200   31.9990   37.2110 C   0  0  0  0  0  3  0  0  0  0  0  0
   33.0740   31.2400   36.4110 C   0  0  0  0  0  0  0  0  0  0  0  0
   31.7190   31.1480   36.7460 C   0  0  0  0  0  3  0  0  0  0  0  0
   30.8630   30.3860   35.9440 C   0  0  0  0  0  3  0  0  0  0  0  0
   31.3470   29.7190   34.8170 C   0  0  0  0  0  3  0  0  0  0  0  0
   32.7000   29.8100   34.4790 C   0  0  0  0  0  3  0  0  0  0  0  0
   33.5100   30.5670   35.2900 C   0  0  0  0  0  0  0  0  0  0  0  0
   36.3810   24.5650   31.5560 C   0  0  0  0  0  0  0  0  0  0  0  0
   37.2170   23.9750   32.4990 C   0  0  0  0  0  0  0  0  0  0  0  0
   37.7570   24.8140   33.4810 C   0  0  0  0  0  0  0  0  0  0  0  0
   37.4390   26.1310   33.4540 N   0  0  0  0  0  0  0  0  0  0  0  0
   36.6280   26.6610   32.5260 C   0  0  0  0  0  0  0  0  0  0  0  0
   36.1070   25.8690   31.5850 N   0  0  0  0  0  0  0  0  0  0  0  0
   35.9840   23.8960   30.8200 H   0  0  0  0  0  0  0  0  0  0  0  0
   37.5090   22.9360   32.5730 H   0  0  0  0  0  0  0  0  0  0  0  0
   38.6500   24.3150   34.5270 C   0  0  0  0  0  0  0  0  0  0  0  0
   40.0190   24.2600   34.4190 C   0  0  0  0  0  0  0  0  0  0  0  0
   40.5720   23.7490   35.5550 N   0  0  0  0  0  0  0  0  0  0  0  0
   39.5510   23.4840   36.3760 C   0  0  0  0  0  0  0  0  0  0  0  0
   38.4230   23.8290   35.7400 N   0  0  0  0  0  0  0  0  0  0  0  0
   38.4520   23.3510   38.5330 C   0  0  0  0  0  0  0  0  0  0  0  0
   37.5910   24.1550   38.1210 O   0  0  0  0  0  0  0  0  0  0  0  0
   39.5150   22.9470   37.6780 N   0  0  0  0  0  0  0  0  0  0  0  0
   40.6770   24.5500   33.6030 H   0  0  0  0  0  0  0  0  0  0  0  0
   41.5710   23.5790   35.7860 H   0  0  0  0  0  0  0  0  0  0  0  0
   38.3960   22.9460   39.5660 H   0  0  0  0  0  0  0  0  0  0  0  0
   40.2640   22.2750   37.9730 H   0  0  0  0  0  0  0  0  0  0  0  0
   36.6870   31.0760   30.4130 C   0  0  0  0  0  0  0  0  0  0  0  0
   35.5830   31.8540   30.0420 F   0  0  0  0  0  0  0  0  0  0  0  0
   36.9030   30.2710   29.2850 F   0  0  0  0  0  0  0  0  0  0  0  0
   37.8200   31.8140   30.6070 F   0  0  0  0  0  0  0  0  0  0  0  0
  1  2  1  0  0  0  0
  2  8  2  0  0  0  0
  2  3  1  0  0  0  0
  3  4  2  0  0  0  0
  4  5  1  0  0  0  0
  4  9  1  0  0  0  0
  5 10  1  0  0  0  0
  6  5  2  0  0  0  0
  7  6  1  0  0  0  0
  8  6  1  0  0  0  0
 10 20  2  0  0  0  0
 10 11  1  0  0  0  0
 11 13  2  0  0  0  0
 12 11  1  0  0  0  0
 13 14  1  0  0  0  0
 15 16  1  0  0  0  0
 15 14  2  0  0  0  0
 17 16  2  0  0  0  0
 18 17  1  0  0  0  0
 19 18  2  0  0  0  0
 19 20  1  0  0  0  0
 20 15  1  0  0  0  0
 21 26  2  0  0  0  0
 21 22  1  0  0  0  0
 22 28  1  0  0  0  0
 22 23  2  0  0  0  0
 23 29  1  0  0  0  0
 24 23  1  0  0  0  0
 25  3  1  0  0  0  0
 25 24  2  0  0  0  0
 26 25  1  0  0  0  0
 27 21  1  0  0  0  0
 29 33  1  0  0  0  0
 30 29  2  0  0  0  0
 30 31  1  0  0  0  0
 31 38  1  0  0  0  0
 31 32  1  0  0  0  0
 32 36  1  0  0  0  0
 33 32  2  0  0  0  0
 34 39  1  0  0  0  0
 35 34  2  0  0  0  0
 36 40  1  0  0  0  0
 36 34  1  0  0  0  0
 37 30  1  0  0  0  0
 41 44  1  0  0  0  0
 41  8  1  0  0  0  0
 42 41  1  0  0  0  0
 43 41  1  0  0  0  0
M  END
>  <minimizedAffinity>
-8.3781271

$$$$

 OpenBabel03272502503D

 44 48  0  0  0  0  0  0  0  0999 V2000
   37.8710   27.3230   31.0810 Cl  0  0  0  0  0  0  0  0  0  0  0  0
   37.0010   28.2500   32.2660 C   0  0  0  0  0  0  0  0  0  0  0  0
   36.8860   27.7710   33.5480 C   0  0  0  0  0  0  0  0  0  0  0  0
   36.2070   28.4740   34.5140 C   0  0  0  0  0  0  0  0  0  0  0  0
   35.6200   29.6820   34.2320 C   0  0  0  0  0  0  0  0  0  0  0  0
   35.7190   30.1900   32.9530 C   0  0  0  0  0  0  0  0  0  0  0  0
   35.0140   31.7270   32.4540 Cl  0  0  0  0  0  0  0  0  0  0  0  0
   36.4070   29.4560   32.0180 C   0  0  0  0  0  0  0  0  0  0  0  0
   36.1080   28.1080   35.5300 H   0  0  0  0  0  0  0  0  0  0  0  0
   34.8870   30.4860   35.1890 C   0  0  0  0  0  0  0  0  0  0  0  0
   35.6830   31.4310   35.8400 C   0  0  0  0  0  0  0  0  0  0  0  0
   36.7250   31.5660   35.6690 H   0  0  0  0  0  0  0  0  0  0  0  0
   35.0770   32.2610   36.7860 C   0  0  0  0  0  3  0  0  0  0  0  0
   33.7410   32.2170   37.1260 C   0  0  0  0  0  3  0  0  0  0  0  0
   32.9980   31.2580   36.4460 C   0  0  0  0  0  0  0  0  0  0  0  0
   31.6320   31.1330   36.7190 C   0  0  0  0  0  3  0  0  0  0  0  0
   30.8800   30.1710   36.0380 C   0  0  0  0  0  3  0  0  0  0  0  0
   31.4790   29.3370   35.0910 C   0  0  0  0  0  3  0  0  0  0  0  0
   32.8440   29.4600   34.8160 C   0  0  0  0  0  3  0  0  0  0  0  0
   33.5500   30.4160   35.5040 C   0  0  0  0  0  0  0  0  0  0  0  0
   38.8590   25.1810   35.2530 C   0  0  0  0  0  0  0  0  0  0  0  0
   38.6180   24.0430   34.4910 C   0  0  0  0  0  0  0  0  0  0  0  0
   37.7690   24.1870   33.3860 C   0  0  0  0  0  0  0  0  0  0  0  0
   37.2410   25.4090   33.1310 N   0  0  0  0  0  0  0  0  0  0  0  0
   37.4990   26.4820   33.8930 C   0  0  0  0  0  0  0  0  0  0  0  0
   38.3070   26.3560   34.9480 N   0  0  0  0  0  0  0  0  0  0  0  0
   39.5110   25.0370   36.0900 H   0  0  0  0  0  0  0  0  0  0  0  0
   39.0060   23.0450   34.6420 H   0  0  0  0  0  0  0  0  0  0  0  0
   37.4370   23.0660   32.5070 C   0  0  0  0  0  0  0  0  0  0  0  0
   38.0990   22.7720   31.3390 C   0  0  0  0  0  0  0  0  0  0  0  0
   37.5590   21.6720   30.7430 N   0  0  0  0  0  0  0  0  0  0  0  0
   36.5600   21.2750   31.5370 C   0  0  0  0  0  0  0  0  0  0  0  0
   36.5100   22.1200   32.5750 N   0  0  0  0  0  0  0  0  0  0  0  0
   35.1570   19.6310   32.6350 C   0  0  0  0  0  0  0  0  0  0  0  0
   35.5240   20.0850   33.7390 O   0  0  0  0  0  0  0  0  0  0  0  0
   35.6540   20.2010   31.4300 N   0  0  0  0  0  0  0  0  0  0  0  0
   38.9390   23.2670   30.8580 H   0  0  0  0  0  0  0  0  0  0  0  0
   37.8300   21.2000   29.8580 H   0  0  0  0  0  0  0  0  0  0  0  0
   34.4410   18.7830   32.5860 H   0  0  0  0  0  0  0  0  0  0  0  0
   35.3790   19.8580   30.4790 H   0  0  0  0  0  0  0  0  0  0  0  0
   36.5270   29.9880   30.6180 C   0  0  0  0  0  0  0  0  0  0  0  0
   35.3910   30.7360   30.2800 F   0  0  0  0  0  0  0  0  0  0  0  0
   36.4910   28.9250   29.7040 F   0  0  0  0  0  0  0  0  0  0  0  0
   37.6940   30.6650   30.4050 F   0  0  0  0  0  0  0  0  0  0  0  0
  1  2  1  0  0  0  0
  2  3  1  0  0  0  0
  3 25  1  0  0  0  0
  3  4  2  0  0  0  0
  4  9  1  0  0  0  0
  5  4  1  0  0  0  0
  5 10  1  0  0  0  0
  6  5  2  0  0  0  0
  7  6  1  0  0  0  0
  8  2  2  0  0  0  0
  8  6  1  0  0  0  0
 10 20  2  0  0  0  0
 10 11  1  0  0  0  0
 11 13  2  0  0  0  0
 12 11  1  0  0  0  0
 13 14  1  0  0  0  0
 15 16  1  0  0  0  0
 15 14  2  0  0  0  0
 17 16  2  0  0  0  0
 18 17  1  0  0  0  0
 19 18  2  0  0  0  0
 19 20  1  0  0  0  0
 20 15  1  0  0  0  0
 21 27  1  0  0  0  0
 22 28  1  0  0  0  0
 22 21  2  0  0  0  0
 23 22  1  0  0  0  0
 24 23  2  0  0  0  0
 24 25  1  0  0  0  0
 25 26  2  0  0  0  0
 26 21  1  0  0  0  0
 29 33  1  0  0  0  0
 29 23  1  0  0  0  0
 30 29  2  0  0  0  0
 31 30  1  0  0  0  0
 31 32  1  0  0  0  0
 32 33  2  0  0  0  0
 34 35  2  0  0  0  0
 36 32  1  0  0  0  0
 36 34  1  0  0  0  0
 37 30  1  0  0  0  0
 38 31  1  0  0  0  0
 39 34  1  0  0  0  0
 40 36  1  0  0  0  0
 41  8  1  0  0  0  0
 42 41  1  0  0  0  0
 43 41  1  0  0  0  0
 44 41  1  0  0  0  0
M  END
>  <minimizedAffinity>
-8.13462639

$$$$

 OpenBabel03272502503D

 44 48  0  0  0  0  0  0  0  0999 V2000
   34.9440   24.8790   30.5600 Cl  0  0  0  0  0  0  0  0  0  0  0  0
   36.2080   24.4970   31.6900 C   0  0  0  0  0  0  0  0  0  0  0  0
   36.9850   25.5070   32.2010 C   0  0  0  0  0  0  0  0  0  0  0  0
   37.9950   25.2470   33.0970 C   0  0  0  0  0  0  0  0  0  0  0  0
   38.2610   23.9660   33.5140 C   0  0  0  0  0  0  0  0  0  0  0  0
   37.4970   22.9310   33.0190 C   0  0  0  0  0  0  0  0  0  0  0  0
   37.7300   21.2420   33.4680 Cl  0  0  0  0  0  0  0  0  0  0  0  0
   36.4980   23.2340   32.1260 C   0  0  0  0  0  0  0  0  0  0  0  0
   38.6170   26.0340   33.5080 H   0  0  0  0  0  0  0  0  0  0  0  0
   39.3040   23.6050   34.4530 C   0  0  0  0  0  0  0  0  0  0  0  0
   40.5380   23.3690   33.8440 C   0  0  0  0  0  0  0  0  0  0  0  0
   40.7200   23.4410   32.7970 H   0  0  0  0  0  0  0  0  0  0  0  0
   41.6160   23.0130   34.6580 C   0  0  0  0  0  3  0  0  0  0  0  0
   41.5500   22.8770   36.0290 C   0  0  0  0  0  3  0  0  0  0  0  0
   40.2980   23.1230   36.5800 C   0  0  0  0  0  0  0  0  0  0  0  0
   40.1270   23.0120   37.9630 C   0  0  0  0  0  3  0  0  0  0  0  0
   38.8700   23.2590   38.5230 C   0  0  0  0  0  3  0  0  0  0  0  0
   37.7870   23.6160   37.7160 C   0  0  0  0  0  3  0  0  0  0  0  0
   37.9550   23.7280   36.3330 C   0  0  0  0  0  3  0  0  0  0  0  0
   39.2040   23.4780   35.8200 C   0  0  0  0  0  0  0  0  0  0  0  0
   37.0340   28.6450   30.2890 C   0  0  0  0  0  0  0  0  0  0  0  0
   36.2300   29.4920   31.0450 C   0  0  0  0  0  0  0  0  0  0  0  0
   35.6780   28.9630   32.2180 C   0  0  0  0  0  0  0  0  0  0  0  0
   35.9540   27.6760   32.5400 N   0  0  0  0  0  0  0  0  0  0  0  0
   36.7350   26.8910   31.7820 C   0  0  0  0  0  0  0  0  0  0  0  0
   37.2670   27.3860   30.6620 N   0  0  0  0  0  0  0  0  0  0  0  0
   37.4410   29.0800   29.3990 H   0  0  0  0  0  0  0  0  0  0  0  0
   35.9730   30.5220   30.8430 H   0  0  0  0  0  0  0  0  0  0  0  0
   34.8170   29.7520   33.0990 C   0  0  0  0  0  0  0  0  0  0  0  0
   33.4520   29.6080   33.1840 C   0  0  0  0  0  0  0  0  0  0  0  0
   32.9310   30.4830   34.0900 N   0  0  0  0  0  0  0  0  0  0  0  0
   33.9680   31.1740   34.5740 C   0  0  0  0  0  0  0  0  0  0  0  0
   35.0730   30.7200   33.9680 N   0  0  0  0  0  0  0  0  0  0  0  0
   35.2240   32.3100   36.3080 C   0  0  0  0  0  0  0  0  0  0  0  0
   36.1620   31.5060   36.1280 O   0  0  0  0  0  0  0  0  0  0  0  0
   34.0360   32.2040   35.5330 N   0  0  0  0  0  0  0  0  0  0  0  0
   32.7780   28.9360   32.6600 H   0  0  0  0  0  0  0  0  0  0  0  0
   31.9440   30.6230   34.3800 H   0  0  0  0  0  0  0  0  0  0  0  0
   35.3090   33.1120   37.0730 H   0  0  0  0  0  0  0  0  0  0  0  0
   33.2200   32.8520   35.6440 H   0  0  0  0  0  0  0  0  0  0  0  0
   35.6520   22.1220   31.5720 C   0  0  0  0  0  0  0  0  0  0  0  0
   36.4610   21.1430   30.9790 F   0  0  0  0  0  0  0  0  0  0  0  0
   34.8910   22.6000   30.4960 F   0  0  0  0  0  0  0  0  0  0  0  0
   34.7800   21.6100   32.4900 F   0  0  0  0  0  0  0  0  0  0  0  0
  1  2  1  0  0  0  0
  2  8  2  0  0  0  0
  2  3  1  0  0  0  0
  3  4  2  0  0  0  0
  4  9  1  0  0  0  0
  4  5  1  0  0  0  0
  5 10  1  0  0  0  0
  6  7  1  0  0  0  0
  6  5  2  0  0  0  0
  8  6  1  0  0  0  0
 10 20  1  0  0  0  0
 11 10  2  0  0  0  0
 11 13  1  0  0  0  0
 12 11  1  0  0  0  0
 13 14  2  0  0  0  0
 14 15  1  0  0  0  0
 15 16  1  0  0  0  0
 16 17  2  0  0  0  0
 18 17  1  0  0  0  0
 19 18  2  0  0  0  0
 20 19  1  0  0  0  0
 20 15  2  0  0  0  0
 21 26  2  0  0  0  0
 21 22  1  0  0  0  0
 22 23  2  0  0  0  0
 23 24  1  0  0  0  0
 23 29  1  0  0  0  0
 25  3  1  0  0  0  0
 25 24  2  0  0  0  0
 26 25  1  0  0  0  0
 27 21  1  0  0  0  0
 28 22  1  0  0  0  0
 29 30  2  0  0  0  0
 29 33  1  0  0  0  0
 30 31  1  0  0  0  0
 31 38  1  0  0  0  0
 31 32  1  0  0  0  0
 32 36  1  0  0  0  0
 33 32  2  0  0  0  0
 34 39  1  0  0  0  0
 35 34  2  0  0  0  0
 36 40  1  0  0  0  0
 36 34  1  0  0  0  0
 37 30  1  0  0  0  0
 41  8  1  0  0  0  0
 41 44  1  0  0  0  0
 42 41  1  0  0  0  0
 43 41  1  0  0  0  0
M  END
>  <minimizedAffinity>
-8.07514095

$$$$

 OpenBabel03272502503D

 44 48  0  0  0  0  0  0  0  0999 V2000
   35.0470   25.2640   30.6910 Cl  0  0  0  0  0  0  0  0  0  0  0  0
   36.2810   24.7680   31.8100 C   0  0  0  0  0  0  0  0  0  0  0  0
   37.0860   25.7170   32.3920 C   0  0  0  0  0  0  0  0  0  0  0  0
   38.0740   25.3660   33.2810 C   0  0  0  0  0  0  0  0  0  0  0  0
   38.2890   24.0540   33.6210 C   0  0  0  0  0  0  0  0  0  0  0  0
   37.4950   23.0790   33.0550 C   0  0  0  0  0  0  0  0  0  0  0  0
   37.6630   21.3580   33.4010 Cl  0  0  0  0  0  0  0  0  0  0  0  0
   36.5200   23.4720   32.1700 C   0  0  0  0  0  0  0  0  0  0  0  0
   38.7170   26.1040   33.7470 H   0  0  0  0  0  0  0  0  0  0  0  0
   39.3050   23.5990   34.5480 C   0  0  0  0  0  0  0  0  0  0  0  0
   40.5070   23.2570   33.9260 C   0  0  0  0  0  0  0  0  0  0  0  0
   40.6840   23.3150   32.8770 H   0  0  0  0  0  0  0  0  0  0  0  0
   41.5580   22.8040   34.7270 C   0  0  0  0  0  3  0  0  0  0  0  0
   41.4950   22.6690   36.0990 C   0  0  0  0  0  3  0  0  0  0  0  0
   40.2750   23.0240   36.6630 C   0  0  0  0  0  0  0  0  0  0  0  0
   40.1090   22.9230   38.0480 C   0  0  0  0  0  3  0  0  0  0  0  0
   38.8840   23.2790   38.6220 C   0  0  0  0  0  3  0  0  0  0  0  0
   37.8300   23.7330   37.8270 C   0  0  0  0  0  3  0  0  0  0  0  0
   37.9920   23.8350   36.4430 C   0  0  0  0  0  3  0  0  0  0  0  0
   39.2090   23.4760   35.9160 C   0  0  0  0  0  0  0  0  0  0  0  0
   37.1880   28.9390   30.6260 C   0  0  0  0  0  0  0  0  0  0  0  0
   36.4920   29.7910   31.4770 C   0  0  0  0  0  0  0  0  0  0  0  0
   35.9930   29.2360   32.6620 C   0  0  0  0  0  0  0  0  0  0  0  0
   36.2130   27.9210   32.9040 N   0  0  0  0  0  0  0  0  0  0  0  0
   36.8900   27.1320   32.0550 C   0  0  0  0  0  0  0  0  0  0  0  0
   37.3710   27.6520   30.9230 N   0  0  0  0  0  0  0  0  0  0  0  0
   37.5570   29.3940   29.7300 H   0  0  0  0  0  0  0  0  0  0  0  0
   36.2830   30.8430   31.3420 H   0  0  0  0  0  0  0  0  0  0  0  0
   35.2440   30.0270   33.6380 C   0  0  0  0  0  0  0  0  0  0  0  0
   35.4020   31.3790   33.8280 C   0  0  0  0  0  0  0  0  0  0  0  0
   34.5660   31.8290   34.8060 N   0  0  0  0  0  0  0  0  0  0  0  0
   33.8830   30.7610   35.2280 C   0  0  0  0  0  0  0  0  0  0  0  0
   34.3050   29.7060   34.5180 N   0  0  0  0  0  0  0  0  0  0  0  0
   31.9140   29.5990   36.0340 C   0  0  0  0  0  0  0  0  0  0  0  0
   31.9600   28.8630   35.0260 O   0  0  0  0  0  0  0  0  0  0  0  0
   32.8870   30.6210   36.2150 N   0  0  0  0  0  0  0  0  0  0  0  0
   36.0620   32.0900   33.3370 H   0  0  0  0  0  0  0  0  0  0  0  0
   34.4460   32.7900   35.1810 H   0  0  0  0  0  0  0  0  0  0  0  0
   31.1140   29.4630   36.7940 H   0  0  0  0  0  0  0  0  0  0  0  0
   32.8930   31.2650   37.0410 H   0  0  0  0  0  0  0  0  0  0  0  0
   35.6440   22.4270   31.5390 C   0  0  0  0  0  0  0  0  0  0  0  0
   36.4250   21.4640   30.8860 F   0  0  0  0  0  0  0  0  0  0  0  0
   34.9060   23.0000   30.4930 F   0  0  0  0  0  0  0  0  0  0  0  0
   34.7490   21.8830   32.4160 F   0  0  0  0  0  0  0  0  0  0  0  0
  1  2  1  0  0  0  0
  2  8  2  0  0  0  0
  2  3  1  0  0  0  0
  3  4  2  0  0  0  0
  4  5  1  0  0  0  0
  4  9  1  0  0  0  0
  5 10  1  0  0  0  0
  6  7  1  0  0  0  0
  6  5  2  0  0  0  0
  8  6  1  0  0  0  0
 10 20  1  0  0  0  0
 11 10  2  0  0  0  0
 11 13  1  0  0  0  0
 12 11  1  0  0  0  0
 13 14  2  0  0  0  0
 14 15  1  0  0  0  0
 15 16  1  0  0  0  0
 16 17  2  0  0  0  0
 18 17  1  0  0  0  0
 19 18  2  0  0  0  0
 20 19  1  0  0  0  0
 20 15  2  0  0  0  0
 21 26  2  0  0  0  0
 21 22  1  0  0  0  0
 22 23  2  0  0  0  0
 23 24  1  0  0  0  0
 23 29  1  0  0  0  0
 25  3  1  0  0  0  0
 25 24  2  0  0  0  0
 26 25  1  0  0  0  0
 27 21  1  0  0  0  0
 28 22  1  0  0  0  0
 29 30  2  0  0  0  0
 29 33  1  0  0  0  0
 30 31  1  0  0  0  0
 31 38  1  0  0  0  0
 31 32  1  0  0  0  0
 32 36  1  0  0  0  0
 33 32  2  0  0  0  0
 34 36  1  0  0  0  0
 34 39  1  0  0  0  0
 35 34  2  0  0  0  0
 36 40  1  0  0  0  0
 37 30  1  0  0  0  0
 41  8  1  0  0  0  0
 41 44  1  0  0  0  0
 42 41  1  0  0  0  0
 43 41  1  0  0  0  0
M  END
>  <minimizedAffinity>
-7.97582865

$$$$

 OpenBabel03272502503D

 44 48  0  0  0  0  0  0  0  0999 V2000
   34.9610   25.2860   30.7210 Cl  0  0  0  0  0  0  0  0  0  0  0  0
   36.2180   24.8120   31.8230 C   0  0  0  0  0  0  0  0  0  0  0  0
   36.9730   25.7770   32.4440 C   0  0  0  0  0  0  0  0  0  0  0  0
   37.9770   25.4430   33.3220 C   0  0  0  0  0  0  0  0  0  0  0  0
   38.2600   24.1310   33.6100 C   0  0  0  0  0  0  0  0  0  0  0  0
   37.5190   23.1400   33.0030 C   0  0  0  0  0  0  0  0  0  0  0  0
   37.7760   21.4180   33.2820 Cl  0  0  0  0  0  0  0  0  0  0  0  0
   36.5250   23.5160   32.1320 C   0  0  0  0  0  0  0  0  0  0  0  0
   38.5800   26.1950   33.8180 H   0  0  0  0  0  0  0  0  0  0  0  0
   39.2980   23.6940   34.5210 C   0  0  0  0  0  0  0  0  0  0  0  0
   40.5120   23.4240   33.8860 C   0  0  0  0  0  0  0  0  0  0  0  0
   40.6830   23.5220   32.8390 H   0  0  0  0  0  0  0  0  0  0  0  0
   41.5840   22.9930   34.6710 C   0  0  0  0  0  3  0  0  0  0  0  0
   41.5310   22.8140   36.0380 C   0  0  0  0  0  3  0  0  0  0  0  0
   40.2990   23.0980   36.6150 C   0  0  0  0  0  0  0  0  0  0  0  0
   40.1420   22.9480   37.9970 C   0  0  0  0  0  3  0  0  0  0  0  0
   38.9040   23.2320   38.5830 C   0  0  0  0  0  3  0  0  0  0  0  0
   37.8280   23.6630   37.8050 C   0  0  0  0  0  3  0  0  0  0  0  0
   37.9820   23.8140   36.4240 C   0  0  0  0  0  3  0  0  0  0  0  0
   39.2120   23.5250   35.8840 C   0  0  0  0  0  0  0  0  0  0  0  0
   35.7990   29.2450   32.7670 C   0  0  0  0  0  0  0  0  0  0  0  0
   36.2290   29.8390   31.5840 C   0  0  0  0  0  0  0  0  0  0  0  0
   36.9240   29.0250   30.6820 C   0  0  0  0  0  0  0  0  0  0  0  0
   37.1350   27.7270   31.0100 N   0  0  0  0  0  0  0  0  0  0  0  0
   36.7040   27.1930   32.1630 C   0  0  0  0  0  0  0  0  0  0  0  0
   36.0390   27.9600   33.0300 N   0  0  0  0  0  0  0  0  0  0  0  0
   35.2710   29.8940   33.4350 H   0  0  0  0  0  0  0  0  0  0  0  0
   36.0930   30.8630   31.2660 H   0  0  0  0  0  0  0  0  0  0  0  0
   37.4280   29.5300   29.4040 C   0  0  0  0  0  0  0  0  0  0  0  0
   38.0790   28.7630   28.4680 C   0  0  0  0  0  0  0  0  0  0  0  0
   38.4250   29.5160   27.3860 N   0  0  0  0  0  0  0  0  0  0  0  0
   37.9920   30.7540   27.6430 C   0  0  0  0  0  0  0  0  0  0  0  0
   37.4040   30.7330   28.8470 N   0  0  0  0  0  0  0  0  0  0  0  0
   37.0290   32.9010   27.0620 C   0  0  0  0  0  0  0  0  0  0  0  0
   36.0930   32.6750   27.8570 O   0  0  0  0  0  0  0  0  0  0  0  0
   38.0670   31.9440   26.8920 N   0  0  0  0  0  0  0  0  0  0  0  0
   38.3370   27.7070   28.4740 H   0  0  0  0  0  0  0  0  0  0  0  0
   38.9230   29.2350   26.5180 H   0  0  0  0  0  0  0  0  0  0  0  0
   37.0590   33.8500   26.4840 H   0  0  0  0  0  0  0  0  0  0  0  0
   38.8740   32.0840   26.2380 H   0  0  0  0  0  0  0  0  0  0  0  0
   35.7040   22.4530   31.4580 C   0  0  0  0  0  0  0  0  0  0  0  0
   36.5360   21.5540   30.7760 F   0  0  0  0  0  0  0  0  0  0  0  0
   34.9440   23.0260   30.4290 F   0  0  0  0  0  0  0  0  0  0  0  0
   34.8340   21.8340   32.3090 F   0  0  0  0  0  0  0  0  0  0  0  0
  1  2  1  0  0  0  0
  2  8  2  0  0  0  0
  2  3  1  0  0  0  0
  3  4  2  0  0  0  0
  4  5  1  0  0  0  0
  4  9  1  0  0  0  0
  5 10  1  0  0  0  0
  6  7  1  0  0  0  0
  6  5  2  0  0  0  0
  8  6  1  0  0  0  0
 10 20  1  0  0  0  0
 11 10  2  0  0  0  0
 11 13  1  0  0  0  0
 12 11  1  0  0  0  0
 13 14  2  0  0  0  0
 14 15  1  0  0  0  0
 15 16  1  0  0  0  0
 16 17  2  0  0  0  0
 18 17  1  0  0  0  0
 19 18  2  0  0  0  0
 20 19  1  0  0  0  0
 20 15  2  0  0  0  0
 21 26  1  0  0  0  0
 21 27  1  0  0  0  0
 22 21  2  0  0  0  0
 23 24  2  0  0  0  0
 23 22  1  0  0  0  0
 24 25  1  0  0  0  0
 25  3  1  0  0  0  0
 25 26  2  0  0  0  0
 28 22  1  0  0  0  0
 29 23  1  0  0  0  0
 30 37  1  0  0  0  0
 30 29  2  0  0  0  0
 31 32  1  0  0  0  0
 31 30  1  0  0  0  0
 32 33  2  0  0  0  0
 33 29  1  0  0  0  0
 34 35  2  0  0  0  0
 36 34  1  0  0  0  0
 36 32  1  0  0  0  0
 38 31  1  0  0  0  0
 39 34  1  0  0  0  0
 40 36  1  0  0  0  0
 41  8  1  0  0  0  0
 41 44  1  0  0  0  0
 42 41  1  0  0  0  0
 43 41  1  0  0  0  0
M  END
>  <minimizedAffinity>
-7.8916626

$$$$

 OpenBabel03272502503D

 44 48  0  0  0  0  0  0  0  0999 V2000
   37.9090   27.8720   30.4470 Cl  0  0  0  0  0  0  0  0  0  0  0  0
   37.0320   28.6260   31.7440 C   0  0  0  0  0  0  0  0  0  0  0  0
   36.8920   27.9650   32.9390 C   0  0  0  0  0  0  0  0  0  0  0  0
   36.2060   28.5270   33.9900 C   0  0  0  0  0  0  0  0  0  0  0  0
   35.6370   29.7710   33.8810 C   0  0  0  0  0  0  0  0  0  0  0  0
   35.7620   30.4610   32.6930 C   0  0  0  0  0  0  0  0  0  0  0  0
   35.0820   32.0640   32.4170 Cl  0  0  0  0  0  0  0  0  0  0  0  0
   36.4550   29.8630   31.6680 C   0  0  0  0  0  0  0  0  0  0  0  0
   36.0870   28.0160   34.9390 H   0  0  0  0  0  0  0  0  0  0  0  0
   34.8990   30.4350   34.9360 C   0  0  0  0  0  0  0  0  0  0  0  0
   35.6940   31.2680   35.7260 C   0  0  0  0  0  0  0  0  0  0  0  0
   36.7400   31.4170   35.5880 H   0  0  0  0  0  0  0  0  0  0  0  0
   35.0840   31.9590   36.7760 C   0  0  0  0  0  3  0  0  0  0  0  0
   33.7430   31.8780   37.0920 C   0  0  0  0  0  3  0  0  0  0  0  0
   33.0020   31.0350   36.2720 C   0  0  0  0  0  0  0  0  0  0  0  0
   31.6320   30.8840   36.5100 C   0  0  0  0  0  3  0  0  0  0  0  0
   30.8810   30.0370   35.6880 C   0  0  0  0  0  3  0  0  0  0  0  0
   31.4840   29.3430   34.6370 C   0  0  0  0  0  3  0  0  0  0  0  0
   32.8530   29.4920   34.3970 C   0  0  0  0  0  3  0  0  0  0  0  0
   33.5580   30.3320   35.2240 C   0  0  0  0  0  0  0  0  0  0  0  0
   37.3740   24.3220   32.8770 C   0  0  0  0  0  0  0  0  0  0  0  0
   38.6450   24.1590   33.4190 C   0  0  0  0  0  0  0  0  0  0  0  0
   39.3250   25.3210   33.8030 C   0  0  0  0  0  0  0  0  0  0  0  0
   38.7130   26.5170   33.6260 N   0  0  0  0  0  0  0  0  0  0  0  0
   37.4850   26.6310   33.0980 C   0  0  0  0  0  0  0  0  0  0  0  0
   36.8280   25.5290   32.7290 N   0  0  0  0  0  0  0  0  0  0  0  0
   36.8810   23.4140   32.5940 H   0  0  0  0  0  0  0  0  0  0  0  0
   39.1850   23.2370   33.5850 H   0  0  0  0  0  0  0  0  0  0  0  0
   40.6660   25.2830   34.3850 C   0  0  0  0  0  0  0  0  0  0  0  0
   41.4810   26.3800   34.5330 C   0  0  0  0  0  0  0  0  0  0  0  0
   42.6660   26.0270   35.1050 N   0  0  0  0  0  0  0  0  0  0  0  0
   42.5950   24.7100   35.3170 C   0  0  0  0  0  0  0  0  0  0  0  0
   41.3990   24.2950   34.8810 N   0  0  0  0  0  0  0  0  0  0  0  0
   42.9990   22.6660   36.5580 C   0  0  0  0  0  0  0  0  0  0  0  0
   41.7650   22.4960   36.6410 O   0  0  0  0  0  0  0  0  0  0  0  0
   43.5170   23.8040   35.8790 N   0  0  0  0  0  0  0  0  0  0  0  0
   41.3170   27.4230   34.2710 H   0  0  0  0  0  0  0  0  0  0  0  0
   43.4850   26.6190   35.3470 H   0  0  0  0  0  0  0  0  0  0  0  0
   43.7000   21.9330   37.0130 H   0  0  0  0  0  0  0  0  0  0  0  0
   44.5430   23.9940   35.7810 H   0  0  0  0  0  0  0  0  0  0  0  0
   36.6030   30.5950   30.3640 C   0  0  0  0  0  0  0  0  0  0  0  0
   37.6590   31.5140   30.4370 F   0  0  0  0  0  0  0  0  0  0  0  0
   35.4840   31.4130   30.1530 F   0  0  0  0  0  0  0  0  0  0  0  0
   36.7000   29.7550   29.2920 F   0  0  0  0  0  0  0  0  0  0  0  0
  1  2  1  0  0  0  0
  2  3  1  0  0  0  0
  3 25  1  0  0  0  0
  3  4  2  0  0  0  0
  4  9  1  0  0  0  0
  5  4  1  0  0  0  0
  5 10  1  0  0  0  0
  6  5  2  0  0  0  0
  7  6  1  0  0  0  0
  8  2  2  0  0  0  0
  8  6  1  0  0  0  0
 10 20  2  0  0  0  0
 10 11  1  0  0  0  0
 11 13  2  0  0  0  0
 12 11  1  0  0  0  0
 13 14  1  0  0  0  0
 15 16  1  0  0  0  0
 15 14  2  0  0  0  0
 17 16  2  0  0  0  0
 18 17  1  0  0  0  0
 19 18  2  0  0  0  0
 19 20  1  0  0  0  0
 20 15  1  0  0  0  0
 21 22  1  0  0  0  0
 22 28  1  0  0  0  0
 22 23  2  0  0  0  0
 23 29  1  0  0  0  0
 24 23  1  0  0  0  0
 25 24  2  0  0  0  0
 26 21  2  0  0  0  0
 26 25  1  0  0  0  0
 27 21  1  0  0  0  0
 29 30  2  0  0  0  0
 29 33  1  0  0  0  0
 30 31  1  0  0  0  0
 31 32  1  0  0  0  0
 31 38  1  0  0  0  0
 32 36  1  0  0  0  0
 33 32  2  0  0  0  0
 34 35  2  0  0  0  0
 34 39  1  0  0  0  0
 36 34  1  0  0  0  0
 37 30  1  0  0  0  0
 40 36  1  0  0  0  0
 41 42  1  0  0  0  0
 41  8  1  0  0  0  0
 43 41  1  0  0  0  0
 44 41  1  0  0  0  0
M  END
>  <minimizedAffinity>
-7.82261372

$$$$

 OpenBabel03272502503D

 44 48  0  0  0  0  0  0  0  0999 V2000
   38.3880   27.2540   29.9310 Cl  0  0  0  0  0  0  0  0  0  0  0  0
   37.1810   28.0660   30.8830 C   0  0  0  0  0  0  0  0  0  0  0  0
   36.4530   27.3520   31.8030 C   0  0  0  0  0  0  0  0  0  0  0  0
   35.4890   27.9560   32.5750 C   0  0  0  0  0  0  0  0  0  0  0  0
   35.2210   29.2970   32.4530 C   0  0  0  0  0  0  0  0  0  0  0  0
   35.9360   30.0410   31.5380 C   0  0  0  0  0  0  0  0  0  0  0  0
   35.6940   31.7680   31.2800 Cl  0  0  0  0  0  0  0  0  0  0  0  0
   36.8900   29.3980   30.7870 C   0  0  0  0  0  0  0  0  0  0  0  0
   34.9070   27.4050   33.3050 H   0  0  0  0  0  0  0  0  0  0  0  0
   34.2250   30.0110   33.2260 C   0  0  0  0  0  0  0  0  0  0  0  0
   32.9430   29.9390   32.6760 C   0  0  0  0  0  0  0  0  0  0  0  0
   32.6970   29.4190   31.7800 H   0  0  0  0  0  0  0  0  0  0  0  0
   31.9040   30.5940   33.3410 C   0  0  0  0  0  3  0  0  0  0  0  0
   32.0520   31.3120   34.5090 C   0  0  0  0  0  3  0  0  0  0  0  0
   33.3480   31.3500   35.0100 C   0  0  0  0  0  0  0  0  0  0  0  0
   33.6020   32.0520   36.1920 C   0  0  0  0  0  3  0  0  0  0  0  0
   34.9050   32.0920   36.7010 C   0  0  0  0  0  3  0  0  0  0  0  0
   35.9490   31.4400   36.0420 C   0  0  0  0  0  3  0  0  0  0  0  0
   35.6970   30.7370   34.8610 C   0  0  0  0  0  3  0  0  0  0  0  0
   34.4060   30.7190   34.3920 C   0  0  0  0  0  0  0  0  0  0  0  0
   36.4160   23.7130   31.2850 C   0  0  0  0  0  0  0  0  0  0  0  0
   37.2190   23.2360   32.3160 C   0  0  0  0  0  0  0  0  0  0  0  0
   37.7680   24.1870   33.1850 C   0  0  0  0  0  0  0  0  0  0  0  0
   37.4880   25.4960   32.9720 N   0  0  0  0  0  0  0  0  0  0  0  0
   36.7070   25.9150   31.9640 C   0  0  0  0  0  0  0  0  0  0  0  0
   36.1790   25.0170   31.1310 N   0  0  0  0  0  0  0  0  0  0  0  0
   36.0120   22.9610   30.6390 H   0  0  0  0  0  0  0  0  0  0  0  0
   37.4800   22.2110   32.5370 H   0  0  0  0  0  0  0  0  0  0  0  0
   38.6300   23.8130   34.3060 C   0  0  0  0  0  0  0  0  0  0  0  0
   39.9990   23.7250   34.2380 C   0  0  0  0  0  0  0  0  0  0  0  0
   40.5190   23.3550   35.4430 N   0  0  0  0  0  0  0  0  0  0  0  0
   39.4760   23.2110   36.2660 C   0  0  0  0  0  0  0  0  0  0  0  0
   38.3680   23.4890   35.5650 N   0  0  0  0  0  0  0  0  0  0  0  0
   38.3290   23.3690   38.3960 C   0  0  0  0  0  0  0  0  0  0  0  0
   37.4900   24.1270   37.8660 O   0  0  0  0  0  0  0  0  0  0  0  0
   39.4030   22.8450   37.6250 N   0  0  0  0  0  0  0  0  0  0  0  0
   40.6790   23.9000   33.4080 H   0  0  0  0  0  0  0  0  0  0  0  0
   41.5090   23.2020   35.7160 H   0  0  0  0  0  0  0  0  0  0  0  0
   38.2430   23.1000   39.4710 H   0  0  0  0  0  0  0  0  0  0  0  0
   40.1340   22.2060   38.0200 H   0  0  0  0  0  0  0  0  0  0  0  0
   37.6810   30.1870   29.7820 C   0  0  0  0  0  0  0  0  0  0  0  0
   38.9900   29.6950   29.6970 F   0  0  0  0  0  0  0  0  0  0  0  0
   37.8640   31.4970   30.2500 F   0  0  0  0  0  0  0  0  0  0  0  0
   37.0630   30.2730   28.5680 F   0  0  0  0  0  0  0  0  0  0  0  0
  1  2  1  0  0  0  0
  2  3  1  0  0  0  0
  3 25  1  0  0  0  0
  3  4  2  0  0  0  0
  4  9  1  0  0  0  0
  5  4  1  0  0  0  0
  5 10  1  0  0  0  0
  6  5  2  0  0  0  0
  7  6  1  0  0  0  0
  8  2  2  0  0  0  0
  8  6  1  0  0  0  0
 10 20  1  0  0  0  0
 11 10  2  0  0  0  0
 11 13  1  0  0  0  0
 12 11  1  0  0  0  0
 13 14  2  0  0  0  0
 14 15  1  0  0  0  0
 15 16  1  0  0  0  0
 16 17  2  0  0  0  0
 18 17  1  0  0  0  0
 19 18  2  0  0  0  0
 20 19  1  0  0  0  0
 20 15  2  0  0  0  0
 21 22  1  0  0  0  0
 22 28  1  0  0  0  0
 22 23  2  0  0  0  0
 23 29  1  0  0  0  0
 24 23  1  0  0  0  0
 25 24  2  0  0  0  0
 26 21  2  0  0  0  0
 26 25  1  0  0  0  0
 27 21  1  0  0  0  0
 29 33  1  0  0  0  0
 30 29  2  0  0  0  0
 30 31  1  0  0  0  0
 31 38  1  0  0  0  0
 31 32  1  0  0  0  0
 32 36  1  0  0  0  0
 33 32  2  0  0  0  0
 34 39  1  0  0  0  0
 35 34  2  0  0  0  0
 36 40  1  0  0  0  0
 36 34  1  0  0  0  0
 37 30  1  0  0  0  0
 41 43  1  0  0  0  0
 41  8  1  0  0  0  0
 42 41  1  0  0  0  0
 44 41  1  0  0  0  0
M  END
>  <minimizedAffinity>
-7.75310707

$$$$

 OpenBabel03272502503D

 44 48  0  0  0  0  0  0  0  0999 V2000
   35.0570   25.1900   30.6610 Cl  0  0  0  0  0  0  0  0  0  0  0  0
   36.2950   24.7220   31.7870 C   0  0  0  0  0  0  0  0  0  0  0  0
   37.1030   25.6840   32.3420 C   0  0  0  0  0  0  0  0  0  0  0  0
   38.0940   25.3540   33.2370 C   0  0  0  0  0  0  0  0  0  0  0  0
   38.3090   24.0510   33.6080 C   0  0  0  0  0  0  0  0  0  0  0  0
   37.5130   23.0620   33.0690 C   0  0  0  0  0  0  0  0  0  0  0  0
   37.6810   21.3510   33.4570 Cl  0  0  0  0  0  0  0  0  0  0  0  0
   36.5350   23.4340   32.1780 C   0  0  0  0  0  0  0  0  0  0  0  0
   38.7390   26.1030   33.6820 H   0  0  0  0  0  0  0  0  0  0  0  0
   39.3280   23.6180   34.5430 C   0  0  0  0  0  0  0  0  0  0  0  0
   40.5470   23.3180   33.9310 C   0  0  0  0  0  0  0  0  0  0  0  0
   40.7340   23.3920   32.8850 H   0  0  0  0  0  0  0  0  0  0  0  0
   41.6020   22.8900   34.7400 C   0  0  0  0  0  3  0  0  0  0  0  0
   41.5280   22.7400   36.1100 C   0  0  0  0  0  3  0  0  0  0  0  0
   40.2920   23.0530   36.6630 C   0  0  0  0  0  0  0  0  0  0  0  0
   40.1140   22.9340   38.0450 C   0  0  0  0  0  3  0  0  0  0  0  0
   38.8720   23.2470   38.6080 C   0  0  0  0  0  3  0  0  0  0  0  0
   37.8130   23.6760   37.8060 C   0  0  0  0  0  3  0  0  0  0  0  0
   37.9880   23.7960   36.4240 C   0  0  0  0  0  3  0  0  0  0  0  0
   39.2210   23.4800   35.9080 C   0  0  0  0  0  0  0  0  0  0  0  0
   35.9200   29.1630   32.3230 C   0  0  0  0  0  0  0  0  0  0  0  0
   36.5790   29.7180   31.2310 C   0  0  0  0  0  0  0  0  0  0  0  0
   37.4300   28.8740   30.5080 C   0  0  0  0  0  0  0  0  0  0  0  0
   37.5610   27.5870   30.9110 N   0  0  0  0  0  0  0  0  0  0  0  0
   36.9070   27.0900   31.9720 C   0  0  0  0  0  0  0  0  0  0  0  0
   36.0920   27.8860   32.6680 N   0  0  0  0  0  0  0  0  0  0  0  0
   35.2760   29.8340   32.8550 H   0  0  0  0  0  0  0  0  0  0  0  0
   36.5170   30.7320   30.8620 H   0  0  0  0  0  0  0  0  0  0  0  0
   38.1800   29.3380   29.3400 C   0  0  0  0  0  0  0  0  0  0  0  0
   38.5870   30.6360   29.1440 C   0  0  0  0  0  0  0  0  0  0  0  0
   39.2620   30.7560   27.9660 N   0  0  0  0  0  0  0  0  0  0  0  0
   39.2800   29.5340   27.4250 C   0  0  0  0  0  0  0  0  0  0  0  0
   38.6300   28.7140   28.2610 N   0  0  0  0  0  0  0  0  0  0  0  0
   40.2710   27.7030   26.1840 C   0  0  0  0  0  0  0  0  0  0  0  0
   40.1610   26.9820   27.1980 O   0  0  0  0  0  0  0  0  0  0  0  0
   39.8320   29.0550   26.2200 N   0  0  0  0  0  0  0  0  0  0  0  0
   38.4510   31.5210   29.7600 H   0  0  0  0  0  0  0  0  0  0  0  0
   39.6930   31.5970   27.5340 H   0  0  0  0  0  0  0  0  0  0  0  0
   40.7120   27.2940   25.2490 H   0  0  0  0  0  0  0  0  0  0  0  0
   39.9030   29.7020   25.3990 H   0  0  0  0  0  0  0  0  0  0  0  0
   35.6560   22.3740   31.5760 C   0  0  0  0  0  0  0  0  0  0  0  0
   36.4350   21.3900   30.9530 F   0  0  0  0  0  0  0  0  0  0  0  0
   34.9220   22.9190   30.5130 F   0  0  0  0  0  0  0  0  0  0  0  0
   34.7580   21.8600   32.4670 F   0  0  0  0  0  0  0  0  0  0  0  0
  1  2  1  0  0  0  0
  2  8  2  0  0  0  0
  2  3  1  0  0  0  0
  3  4  2  0  0  0  0
  4  5  1  0  0  0  0
  4  9  1  0  0  0  0
  5 10  1  0  0  0  0
  6  7  1  0  0  0  0
  6  5  2  0  0  0  0
  8  6  1  0  0  0  0
 10 20  1  0  0  0  0
 11 10  2  0  0  0  0
 11 13  1  0  0  0  0
 12 11  1  0  0  0  0
 13 14  2  0  0  0  0
 14 15  1  0  0  0  0
 15 16  1  0  0  0  0
 16 17  2  0  0  0  0
 18 17  1  0  0  0  0
 19 18  2  0  0  0  0
 20 19  1  0  0  0  0
 20 15  2  0  0  0  0
 21 26  1  0  0  0  0
 21 27  1  0  0  0  0
 22 21  2  0  0  0  0
 23 24  2  0  0  0  0
 23 22  1  0  0  0  0
 24 25  1  0  0  0  0
 25  3  1  0  0  0  0
 25 26  2  0  0  0  0
 28 22  1  0  0  0  0
 29 23  1  0  0  0  0
 30 29  2  0  0  0  0
 30 37  1  0  0  0  0
 31 30  1  0  0  0  0
 32 31  1  0  0  0  0
 32 33  2  0  0  0  0
 33 29  1  0  0  0  0
 34 36  1  0  0  0  0
 34 35  2  0  0  0  0
 36 32  1  0  0  0  0
 38 31  1  0  0  0  0
 39 34  1  0  0  0  0
 40 36  1  0  0  0  0
 41  8  1  0  0  0  0
 41 44  1  0  0  0  0
 42 41  1  0  0  0  0
 43 41  1  0  0  0  0
M  END
>  <minimizedAffinity>
-7.7452693

$$$$

 OpenBabel03272502503D

 44 48  0  0  0  0  0  0  0  0999 V2000
   35.5100   25.4260   30.7640 Cl  0  0  0  0  0  0  0  0  0  0  0  0
   36.5300   24.9380   32.0840 C   0  0  0  0  0  0  0  0  0  0  0  0
   37.0820   25.8940   32.9010 C   0  0  0  0  0  0  0  0  0  0  0  0
   37.8940   25.5490   33.9550 C   0  0  0  0  0  0  0  0  0  0  0  0
   38.1810   24.2350   34.2290 C   0  0  0  0  0  0  0  0  0  0  0  0
   37.6400   23.2520   33.4270 C   0  0  0  0  0  0  0  0  0  0  0  0
   37.9260   21.5290   33.6660 Cl  0  0  0  0  0  0  0  0  0  0  0  0
   36.8340   23.6390   32.3850 C   0  0  0  0  0  0  0  0  0  0  0  0
   38.3370   26.2930   34.6080 H   0  0  0  0  0  0  0  0  0  0  0  0
   39.0250   23.7860   35.3180 C   0  0  0  0  0  0  0  0  0  0  0  0
   38.3240   23.5640   36.5050 C   0  0  0  0  0  0  0  0  0  0  0  0
   37.2750   23.7030   36.6240 H   0  0  0  0  0  0  0  0  0  0  0  0
   39.0420   23.1280   37.6210 C   0  0  0  0  0  3  0  0  0  0  0  0
   40.4020   22.8990   37.6370 C   0  0  0  0  0  3  0  0  0  0  0  0
   41.0470   23.1360   36.4290 C   0  0  0  0  0  0  0  0  0  0  0  0
   42.4280   22.9330   36.3420 C   0  0  0  0  0  3  0  0  0  0  0  0
   43.0820   23.1700   35.1280 C   0  0  0  0  0  3  0  0  0  0  0  0
   42.3710   23.6060   34.0080 C   0  0  0  0  0  3  0  0  0  0  0  0
   40.9910   23.8090   34.0920 C   0  0  0  0  0  3  0  0  0  0  0  0
   40.3830   23.5660   35.3000 C   0  0  0  0  0  0  0  0  0  0  0  0
   36.9240   29.1890   31.2810 C   0  0  0  0  0  0  0  0  0  0  0  0
   36.2480   29.9710   32.2130 C   0  0  0  0  0  0  0  0  0  0  0  0
   35.8530   29.3430   33.4010 C   0  0  0  0  0  0  0  0  0  0  0  0
   36.1480   28.0300   33.5680 N   0  0  0  0  0  0  0  0  0  0  0  0
   36.8020   27.3110   32.6430 C   0  0  0  0  0  0  0  0  0  0  0  0
   37.1830   27.9010   31.5070 N   0  0  0  0  0  0  0  0  0  0  0  0
   37.2120   29.6990   30.3850 H   0  0  0  0  0  0  0  0  0  0  0  0
   35.9840   31.0160   32.1390 H   0  0  0  0  0  0  0  0  0  0  0  0
   35.1360   30.0550   34.4580 C   0  0  0  0  0  0  0  0  0  0  0  0
   35.7130   30.9660   35.3100 C   0  0  0  0  0  0  0  0  0  0  0  0
   34.7910   31.4600   36.1840 N   0  0  0  0  0  0  0  0  0  0  0  0
   33.6370   30.8580   35.8810 C   0  0  0  0  0  0  0  0  0  0  0  0
   33.8710   30.0310   34.8540 N   0  0  0  0  0  0  0  0  0  0  0  0
   31.2320   30.7550   35.5900 C   0  0  0  0  0  0  0  0  0  0  0  0
   31.4100   30.4730   34.3860 O   0  0  0  0  0  0  0  0  0  0  0  0
   32.3490   30.9730   36.4430 N   0  0  0  0  0  0  0  0  0  0  0  0
   36.7380   31.3230   35.3760 H   0  0  0  0  0  0  0  0  0  0  0  0
   34.9090   32.1560   36.9450 H   0  0  0  0  0  0  0  0  0  0  0  0
   30.2030   30.8380   36.0020 H   0  0  0  0  0  0  0  0  0  0  0  0
   32.2560   31.2120   37.4590 H   0  0  0  0  0  0  0  0  0  0  0  0
   36.2340   22.5860   31.4960 C   0  0  0  0  0  0  0  0  0  0  0  0
   35.2080   23.1340   30.7140 F   0  0  0  0  0  0  0  0  0  0  0  0
   35.5640   21.6350   32.2790 F   0  0  0  0  0  0  0  0  0  0  0  0
   37.1690   21.9180   30.7580 F   0  0  0  0  0  0  0  0  0  0  0  0
  1  2  1  0  0  0  0
  2  8  2  0  0  0  0
  2  3  1  0  0  0  0
  3  4  2  0  0  0  0
  4  5  1  0  0  0  0
  4  9  1  0  0  0  0
  5 10  1  0  0  0  0
  6  7  1  0  0  0  0
  6  5  2  0  0  0  0
  8  6  1  0  0  0  0
 10 11  1  0  0  0  0
 11 12  1  0  0  0  0
 11 13  2  0  0  0  0
 13 14  1  0  0  0  0
 15 14  2  0  0  0  0
 16 15  1  0  0  0  0
 17 16  2  0  0  0  0
 18 19  2  0  0  0  0
 18 17  1  0  0  0  0
 19 20  1  0  0  0  0
 20 10  2  0  0  0  0
 20 15  1  0  0  0  0
 21 26  2  0  0  0  0
 21 22  1  0  0  0  0
 22 23  2  0  0  0  0
 23 24  1  0  0  0  0
 23 29  1  0  0  0  0
 25  3  1  0  0  0  0
 25 24  2  0  0  0  0
 26 25  1  0  0  0  0
 27 21  1  0  0  0  0
 28 22  1  0  0  0  0
 29 33  1  0  0  0  0
 29 30  2  0  0  0  0
 30 37  1  0  0  0  0
 30 31  1  0  0  0  0
 31 38  1  0  0  0  0
 32 31  1  0  0  0  0
 32 36  1  0  0  0  0
 33 32  2  0  0  0  0
 34 39  1  0  0  0  0
 34 36  1  0  0  0  0
 35 34  2  0  0  0  0
 36 40  1  0  0  0  0
 41 43  1  0  0  0  0
 41  8  1  0  0  0  0
 42 41  1  0  0  0  0
 44 41  1  0  0  0  0
M  END
>  <minimizedAffinity>
-7.63264704

$$$$
