
 OpenBabel03272510023D

 23 25  0  0  0  0  0  0  0  0999 V2000
   38.2400   31.4480   50.2310 C   0  0  0  0  0  0  0  0  0  0  0  0
   38.4850   31.4700   48.8590 C   0  0  0  0  0  0  0  0  0  0  0  0
   37.6300   30.7940   48.0050 C   0  0  0  0  0  0  0  0  0  0  0  0
   36.5940   30.1450   48.6080 N   0  0  0  0  0  0  0  0  0  0  0  0
   36.3630   30.1240   49.9150 C   0  0  0  0  0  0  0  0  0  0  0  0
   37.1940   30.7800   50.7060 N   0  0  0  0  0  0  0  0  0  0  0  0
   38.9050   31.9770   50.8980 H   0  0  0  0  0  0  0  0  0  0  0  0
   39.3640   31.9830   48.5440 H   0  0  0  0  0  0  0  0  0  0  0  0
   37.7340   30.6250   46.5770 C   0  0  0  0  0  0  0  0  0  0  0  0
   39.0240   30.7030   46.0380 C   0  0  0  0  0  0  0  0  0  0  0  0
   39.8760   30.8910   46.6790 H   0  0  0  0  0  0  0  0  0  0  0  0
   39.3320   30.5600   44.7170 C   0  0  0  0  0  3  0  0  0  0  0  0
   38.3280   30.3170   43.8080 C   0  0  0  0  0  3  0  0  0  0  0  0
   37.0480   30.2270   44.2750 C   0  0  0  0  0  0  0  0  0  0  0  0
   36.0240   29.9520   43.3980 C   0  0  0  0  0  3  0  0  0  0  0  0
   34.7100   29.8150   43.8260 C   0  0  0  0  0  3  0  0  0  0  0  0
   34.4820   29.9670   45.1790 C   0  0  0  0  0  3  0  0  0  0  0  0
   35.5140   30.2390   46.0190 C   0  0  0  0  0  3  0  0  0  0  0  0
   36.7960   30.3790   45.6090 C   0  0  0  0  0  0  0  0  0  0  0  0
   35.1930   29.3620   50.4210 C   0  0  0  0  0  0  0  0  0  0  0  0
   35.2860   29.0940   51.7760 F   0  0  0  0  0  0  0  0  0  0  0  0
   34.0090   30.0490   50.2100 F   0  0  0  0  0  0  0  0  0  0  0  0
   35.0290   28.1520   49.7700 F   0  0  0  0  0  0  0  0  0  0  0  0
  1  6  1  0  0  0  0
  1  7  1  0  0  0  0
  2  1  2  0  0  0  0
  3  4  2  0  0  0  0
  3  2  1  0  0  0  0
  4  5  1  0  0  0  0
  5 20  1  0  0  0  0
  5  6  2  0  0  0  0
  8  2  1  0  0  0  0
  9  3  1  0  0  0  0
 10  9  1  0  0  0  0
 10 11  1  0  0  0  0
 12 10  2  0  0  0  0
 13 14  2  0  0  0  0
 13 12  1  0  0  0  0
 14 19  1  0  0  0  0
 15 16  2  0  0  0  0
 15 14  1  0  0  0  0
 16 17  1  0  0  0  0
 17 18  2  0  0  0  0
 19 18  1  0  0  0  0
 19  9  2  0  0  0  0
 20 21  1  0  0  0  0
 22 20  1  0  0  0  0
 23 20  1  0  0  0  0
M  END
>  <minimizedAffinity>
-5.9991169

>  <minimizedRMSD>
1.41758478

$$$$
