
 OpenBabel03272509543D

 45 49  0  0  0  0  0  0  0  0999 V2000
   34.4880   28.6300   48.2080 C   0  0  0  0  0  0  0  0  0  0  0  0
   35.2690   28.9240   47.4890 H   0  0  0  0  0  0  0  0  0  0  0  0
   33.8180   29.5120   48.3380 H   0  0  0  0  0  0  0  0  0  0  0  0
   33.6390   27.4920   47.7510 C   0  0  0  0  0  0  0  0  0  0  0  0
   33.9550   27.2150   46.7210 H   0  0  0  0  0  0  0  0  0  0  0  0
   33.7540   26.5770   48.3630 H   0  0  0  0  0  0  0  0  0  0  0  0
   32.1940   27.8480   47.6510 C   0  0  0  0  0  0  0  0  0  0  0  0
   31.3170   27.3490   48.5830 C   0  0  0  0  0  0  0  0  0  0  0  0
   29.9930   27.6340   48.5290 C   0  0  0  0  0  0  0  0  0  0  0  0
   29.5270   28.4020   47.5710 N   0  0  0  0  0  0  0  0  0  0  0  0
   30.3650   28.9130   46.6360 C   0  0  0  0  0  0  0  0  0  0  0  0
   31.6900   28.6280   46.6880 N   0  0  0  0  0  0  0  0  0  0  0  0
   31.7130   26.7210   49.3610 H   0  0  0  0  0  0  0  0  0  0  0  0
   29.2680   27.2620   49.2420 H   0  0  0  0  0  0  0  0  0  0  0  0
   30.0850   29.7870   45.4810 C   0  0  0  0  0  0  0  0  0  0  0  0
   30.9470   29.9740   44.4200 C   0  0  0  0  0  0  0  0  0  0  0  0
   31.9090   29.4350   44.4330 H   0  0  0  0  0  0  0  0  0  0  0  0
   30.6960   30.7820   43.3460 C   0  0  0  0  0  3  0  0  0  0  0  0
   29.5160   31.4800   43.2710 C   0  0  0  0  0  3  0  0  0  0  0  0
   28.6160   31.3360   44.2980 C   0  0  0  0  0  0  0  0  0  0  0  0
   27.4520   32.0590   44.1690 C   0  0  0  0  0  3  0  0  0  0  0  0
   26.4910   31.9750   45.1520 C   0  0  0  0  0  3  0  0  0  0  0  0
   26.7620   31.1460   46.2400 C   0  0  0  0  0  3  0  0  0  0  0  0
   27.9470   30.4560   46.2990 C   0  0  0  0  0  3  0  0  0  0  0  0
   28.9250   30.5160   45.3380 C   0  0  0  0  0  0  0  0  0  0  0  0
   35.0150   28.3750   49.5160 O   0  0  0  0  0  0  0  0  0  0  0  0
   37.3620   30.1870   51.5580 C   0  0  0  0  0  0  0  0  0  0  0  0
   38.0960   30.8770   50.5520 C   0  0  0  0  0  0  0  0  0  0  0  0
   37.7170   30.6610   49.2430 C   0  0  0  0  0  0  0  0  0  0  0  0
   36.6750   29.8030   49.0290 N   0  0  0  0  0  0  0  0  0  0  0  0
   36.0080   29.1710   49.9910 C   0  0  0  0  0  0  0  0  0  0  0  0
   36.3620   29.3690   51.2730 N   0  0  0  0  0  0  0  0  0  0  0  0
   37.6850   30.3770   52.5860 H   0  0  0  0  0  0  0  0  0  0  0  0
   38.9110   31.5470   50.7340 H   0  0  0  0  0  0  0  0  0  0  0  0
   38.9530   33.2670   49.0330 F   0  0  0  0  0  0  0  0  0  0  0  0
   38.9130   32.4790   47.9570 C   0  0  0  0  0  0  0  0  0  0  0  0
   38.3360   31.2690   48.0810 C   0  0  0  0  0  0  0  0  0  0  0  0
   38.3520   30.5300   46.8900 C   0  0  0  0  0  0  0  0  0  0  0  0
   38.9010   30.9940   45.7200 C   0  0  0  0  0  0  0  0  0  0  0  0
   39.4740   32.2300   45.6540 C   0  0  0  0  0  0  0  0  0  0  0  0
   39.4790   32.9920   46.8070 C   0  0  0  0  0  0  0  0  0  0  0  0
   37.9210   29.5280   46.8310 H   0  0  0  0  0  0  0  0  0  0  0  0
   38.8990   30.3990   44.8160 H   0  0  0  0  0  0  0  0  0  0  0  0
   39.9070   32.6100   44.7540 H   0  0  0  0  0  0  0  0  0  0  0  0
   39.9240   33.9710   46.7860 H   0  0  0  0  0  0  0  0  0  0  0  0
  1  3  1  0  0  0  0
  1 26  1  0  0  0  0
  2  1  1  0  0  0  0
  4  1  1  0  0  0  0
  4  6  1  0  0  0  0
  5  4  1  0  0  0  0
  7  4  1  0  0  0  0
  7  8  1  0  0  0  0
  8 13  1  0  0  0  0
  9  8  2  0  0  0  0
  9 14  1  0  0  0  0
 10  9  1  0  0  0  0
 11 12  1  0  0  0  0
 11 10  2  0  0  0  0
 12  7  2  0  0  0  0
 15 11  1  0  0  0  0
 16 17  1  0  0  0  0
 16 15  2  0  0  0  0
 18 16  1  0  0  0  0
 19 18  2  0  0  0  0
 19 20  1  0  0  0  0
 20 25  1  0  0  0  0
 21 20  2  0  0  0  0
 21 22  1  0  0  0  0
 22 23  2  0  0  0  0
 23 24  1  0  0  0  0
 25 15  1  0  0  0  0
 25 24  2  0  0  0  0
 26 31  1  0  0  0  0
 27 33  1  0  0  0  0
 28 34  1  0  0  0  0
 28 27  2  0  0  0  0
 29 28  1  0  0  0  0
 30 29  2  0  0  0  0
 30 31  1  0  0  0  0
 31 32  2  0  0  0  0
 32 27  1  0  0  0  0
 36 37  1  0  0  0  0
 36 35  1  0  0  0  0
 37 29  1  0  0  0  0
 38 37  2  0  0  0  0
 39 38  1  0  0  0  0
 40 39  2  0  0  0  0
 40 41  1  0  0  0  0
 41 36  2  0  0  0  0
 42 38  1  0  0  0  0
 43 39  1  0  0  0  0
 44 40  1  0  0  0  0
 45 41  1  0  0  0  0
M  END
>  <minimizedAffinity>
-7.12152052

>  <minimizedRMSD>
0.469523937

$$$$
