
 OpenBabel03272501493D

 22 24  0  0  0  0  0  0  0  0999 V2000
   37.0540   29.4400   51.1770 C   0  0  0  0  0  0  0  0  0  0  0  0
   38.0150   30.2260   50.5490 C   0  0  0  0  0  0  0  0  0  0  0  0
   37.6330   31.1100   49.5360 C   0  0  0  0  0  0  0  0  0  0  0  0
   36.2950   31.1130   49.2590 N   0  0  0  0  0  0  0  0  0  0  0  0
   35.3790   30.3590   49.8640 C   0  0  0  0  0  0  0  0  0  0  0  0
   35.7660   29.5150   50.8320 N   0  0  0  0  0  0  0  0  0  0  0  0
   34.0410   30.5240   49.4160 N   0  0  0  0  0  0  0  0  0  0  0  0
   37.3520   28.7550   51.9600 H   0  0  0  0  0  0  0  0  0  0  0  0
   38.9920   30.1400   50.9070 H   0  0  0  0  0  0  0  0  0  0  0  0
   33.7060   29.8920   48.6600 H   0  0  0  0  0  0  0  0  0  0  0  0
   33.5910   31.3050   49.9550 H   0  0  0  0  0  0  0  0  0  0  0  0
   38.4520   32.0560   48.8170 C   0  0  0  0  0  0  0  0  0  0  0  0
   38.7190   33.2500   49.5080 C   0  0  0  0  0  0  0  0  0  0  0  0
   38.3290   33.4200   50.5200 H   0  0  0  0  0  0  0  0  0  0  0  0
   39.4710   34.2850   48.9970 C   0  0  0  0  0  0  0  0  0  0  0  0
   40.0090   34.1850   47.7430 C   0  0  0  0  0  0  0  0  0  0  0  0
   39.7730   33.0400   47.0290 C   0  0  0  0  0  0  0  0  0  0  0  0
   40.2720   32.9220   45.7500 C   0  0  0  0  0  0  0  0  0  0  0  0
   40.0380   31.8050   44.9660 C   0  0  0  0  0  0  0  0  0  0  0  0
   39.2590   30.7990   45.5510 C   0  0  0  0  0  0  0  0  0  0  0  0
   38.7810   30.9470   46.8190 C   0  0  0  0  0  0  0  0  0  0  0  0
   39.0170   32.0420   47.5860 C   0  0  0  0  0  0  0  0  0  0  0  0
  1  8  1  0  0  0  0
  2  9  1  0  0  0  0
  2  1  2  0  0  0  0
  3  2  1  0  0  0  0
  4  3  2  0  0  0  0
  4  5  1  0  0  0  0
  5  6  2  0  0  0  0
  6  1  1  0  0  0  0
  7  5  1  0  0  0  0
  7 11  1  0  0  0  0
 10  7  1  0  0  0  0
 12 13  1  0  0  0  0
 12  3  1  0  0  0  0
 13 14  1  0  0  0  0
 15 13  2  0  0  0  0
 16 15  1  0  0  0  0
 17 22  1  0  0  0  0
 17 16  2  0  0  0  0
 18 17  1  0  0  0  0
 19 20  1  0  0  0  0
 19 18  2  0  0  0  0
 20 21  2  0  0  0  0
 21 22  1  0  0  0  0
 22 12  2  0  0  0  0
M  END
>  <minimizedAffinity>
-7.10599375

>  <minimizedRMSD>
2.07694006

$$$$
