
 OpenBabel03272506593D

 30 33  0  0  0  0  0  0  0  0999 V2000
   36.7820   27.7160   33.7080 C   0  0  0  0  0  0  0  0  0  0  0  0
   36.8490   28.0480   32.3930 C   0  0  0  0  0  0  0  0  0  0  0  0
   36.3590   29.1830   31.8060 C   0  0  0  0  0  0  0  0  0  0  0  0
   35.7510   30.0470   32.6370 N   0  0  0  0  0  0  0  0  0  0  0  0
   35.6460   29.7830   33.9600 C   0  0  0  0  0  0  0  0  0  0  0  0
   36.1590   28.6400   34.4390 N   0  0  0  0  0  0  0  0  0  0  0  0
   37.3390   27.3660   31.6850 H   0  0  0  0  0  0  0  0  0  0  0  0
   36.4100   29.4510   30.7660 H   0  0  0  0  0  0  0  0  0  0  0  0
   35.0230   30.5680   35.0290 C   0  0  0  0  0  0  0  0  0  0  0  0
   35.7020   31.5350   35.7800 C   0  0  0  0  0  0  0  0  0  0  0  0
   36.7620   31.7130   35.5480 H   0  0  0  0  0  0  0  0  0  0  0  0
   35.1320   32.2710   36.7820 C   0  0  0  0  0  3  0  0  0  0  0  0
   33.8130   32.0890   37.1090 C   0  0  0  0  0  3  0  0  0  0  0  0
   33.0910   31.1510   36.4080 C   0  0  0  0  0  0  0  0  0  0  0  0
   31.7750   31.0040   36.7790 C   0  0  0  0  0  3  0  0  0  0  0  0
   30.9830   30.0840   36.1290 C   0  0  0  0  0  3  0  0  0  0  0  0
   31.5750   29.3450   35.1170 C   0  0  0  0  0  3  0  0  0  0  0  0
   32.8950   29.5450   34.8000 C   0  0  0  0  0  3  0  0  0  0  0  0
   33.7160   30.4490   35.4200 C   0  0  0  0  0  0  0  0  0  0  0  0
   38.1640   25.3400   36.0810 C   0  0  0  0  0  0  0  0  0  0  0  0
   38.4250   24.1950   35.3480 C   0  0  0  0  0  0  0  0  0  0  0  0
   38.0960   24.2830   33.9900 C   0  0  0  0  0  0  0  0  0  0  0  0
   37.5680   25.4040   33.4550 N   0  0  0  0  0  0  0  0  0  0  0  0
   37.3450   26.4840   34.2490 C   0  0  0  0  0  0  0  0  0  0  0  0
   37.6330   26.4970   35.5910 N   0  0  0  0  0  0  0  0  0  0  0  0
   38.4140   25.2890   37.1390 H   0  0  0  0  0  0  0  0  0  0  0  0
   38.3000   23.3820   33.4090 H   0  0  0  0  0  0  0  0  0  0  0  0
   38.9770   23.0420   35.9460 N   0  0  0  0  0  0  0  0  0  0  0  0
   39.9420   22.9970   36.3490 H   0  0  0  0  0  0  0  0  0  0  0  0
   38.2750   22.2530   35.9180 H   0  0  0  0  0  0  0  0  0  0  0  0
  1 24  1  0  0  0  0
  1  6  1  0  0  0  0
  2  1  2  0  0  0  0
  3  2  1  0  0  0  0
  3  4  2  0  0  0  0
  4  5  1  0  0  0  0
  5  6  2  0  0  0  0
  5  9  1  0  0  0  0
  7  2  1  0  0  0  0
  8  3  1  0  0  0  0
  9 19  2  0  0  0  0
  9 10  1  0  0  0  0
 10 12  2  0  0  0  0
 11 10  1  0  0  0  0
 12 13  1  0  0  0  0
 14 15  1  0  0  0  0
 14 13  2  0  0  0  0
 16 15  2  0  0  0  0
 17 16  1  0  0  0  0
 18 17  2  0  0  0  0
 18 19  1  0  0  0  0
 19 14  1  0  0  0  0
 20 26  1  0  0  0  0
 21 28  1  0  0  0  0
 21 20  2  0  0  0  0
 22 21  1  0  0  0  0
 23 22  2  0  0  0  0
 23 24  1  0  0  0  0
 24 25  2  0  0  0  0
 25 20  1  0  0  0  0
 27 22  1  0  0  0  0
 28 29  1  0  0  0  0
 30 28  1  0  0  0  0
M  END
>  <minimizedAffinity>
-6.39058638

$$$$

 OpenBabel03272506593D

 30 33  0  0  0  0  0  0  0  0999 V2000
   35.9060   23.7470   31.6250 C   0  0  0  0  0  0  0  0  0  0  0  0
   35.1400   24.5570   30.8480 C   0  0  0  0  0  0  0  0  0  0  0  0
   35.1310   25.9250   30.8480 C   0  0  0  0  0  0  0  0  0  0  0  0
   35.9750   26.5090   31.7160 N   0  0  0  0  0  0  0  0  0  0  0  0
   36.7670   25.7660   32.5220 C   0  0  0  0  0  0  0  0  0  0  0  0
   36.7030   24.4300   32.4470 N   0  0  0  0  0  0  0  0  0  0  0  0
   34.4400   24.1140   30.1280 H   0  0  0  0  0  0  0  0  0  0  0  0
   34.5280   26.5710   30.2360 H   0  0  0  0  0  0  0  0  0  0  0  0
   37.7390   26.1890   33.5340 C   0  0  0  0  0  0  0  0  0  0  0  0
   37.4570   26.2520   34.9050 C   0  0  0  0  0  0  0  0  0  0  0  0
   36.4480   25.9650   35.2330 H   0  0  0  0  0  0  0  0  0  0  0  0
   38.3550   26.6480   35.8570 C   0  0  0  0  0  3  0  0  0  0  0  0
   39.6260   27.0160   35.4990 C   0  0  0  0  0  3  0  0  0  0  0  0
   39.9660   26.9770   34.1670 C   0  0  0  0  0  0  0  0  0  0  0  0
   41.2500   27.3590   33.8610 C   0  0  0  0  0  3  0  0  0  0  0  0
   41.6690   27.3510   32.5490 C   0  0  0  0  0  3  0  0  0  0  0  0
   40.7480   26.9490   31.5950 C   0  0  0  0  0  3  0  0  0  0  0  0
   39.4810   26.5790   31.9730 C   0  0  0  0  0  3  0  0  0  0  0  0
   39.0260   26.5730   33.2650 C   0  0  0  0  0  0  0  0  0  0  0  0
   36.7900   20.3380   30.7410 C   0  0  0  0  0  0  0  0  0  0  0  0
   35.8330   19.5400   31.3440 C   0  0  0  0  0  0  0  0  0  0  0  0
   34.8660   20.2390   32.0750 C   0  0  0  0  0  0  0  0  0  0  0  0
   34.8800   21.5850   32.1730 N   0  0  0  0  0  0  0  0  0  0  0  0
   35.8580   22.2920   31.5480 C   0  0  0  0  0  0  0  0  0  0  0  0
   36.8510   21.6990   30.8080 N   0  0  0  0  0  0  0  0  0  0  0  0
   37.5500   19.8110   30.1680 H   0  0  0  0  0  0  0  0  0  0  0  0
   34.1090   19.6130   32.5520 H   0  0  0  0  0  0  0  0  0  0  0  0
   35.8530   18.1340   31.2170 N   0  0  0  0  0  0  0  0  0  0  0  0
   35.7020   17.6250   30.3160 H   0  0  0  0  0  0  0  0  0  0  0  0
   36.0400   17.6920   32.1590 H   0  0  0  0  0  0  0  0  0  0  0  0
  1  6  1  0  0  0  0
  2  3  1  0  0  0  0
  2  1  2  0  0  0  0
  3  4  2  0  0  0  0
  4  5  1  0  0  0  0
  5  9  1  0  0  0  0
  6  5  2  0  0  0  0
  7  2  1  0  0  0  0
  8  3  1  0  0  0  0
  9 10  1  0  0  0  0
 10 11  1  0  0  0  0
 10 12  2  0  0  0  0
 13 12  1  0  0  0  0
 14 13  2  0  0  0  0
 15 14  1  0  0  0  0
 16 15  2  0  0  0  0
 17 18  2  0  0  0  0
 17 16  1  0  0  0  0
 18 19  1  0  0  0  0
 19  9  2  0  0  0  0
 19 14  1  0  0  0  0
 20 25  2  0  0  0  0
 20 21  1  0  0  0  0
 21 22  2  0  0  0  0
 22 23  1  0  0  0  0
 22 27  1  0  0  0  0
 24  1  1  0  0  0  0
 24 23  2  0  0  0  0
 25 24  1  0  0  0  0
 26 20  1  0  0  0  0
 28 21  1  0  0  0  0
 28 30  1  0  0  0  0
 29 28  1  0  0  0  0
M  END
>  <minimizedAffinity>
-6.32135677

$$$$

 OpenBabel03272506593D

 30 33  0  0  0  0  0  0  0  0999 V2000
   37.6170   24.8640   33.5350 C   0  0  0  0  0  0  0  0  0  0  0  0
   37.4600   24.2120   32.3540 C   0  0  0  0  0  0  0  0  0  0  0  0
   36.9600   24.7300   31.1910 C   0  0  0  0  0  0  0  0  0  0  0  0
   36.5930   26.0210   31.2430 N   0  0  0  0  0  0  0  0  0  0  0  0
   36.7200   26.7340   32.3850 C   0  0  0  0  0  0  0  0  0  0  0  0
   37.2210   26.1360   33.4750 N   0  0  0  0  0  0  0  0  0  0  0  0
   37.7500   23.1550   32.2740 H   0  0  0  0  0  0  0  0  0  0  0  0
   36.8340   24.2180   30.2530 H   0  0  0  0  0  0  0  0  0  0  0  0
   36.3770   28.1310   32.6650 C   0  0  0  0  0  0  0  0  0  0  0  0
   35.8530   28.5750   33.8860 C   0  0  0  0  0  0  0  0  0  0  0  0
   35.6950   27.8270   34.6760 H   0  0  0  0  0  0  0  0  0  0  0  0
   35.5270   29.8750   34.1560 C   0  0  0  0  0  3  0  0  0  0  0  0
   35.7060   30.8450   33.2040 C   0  0  0  0  0  3  0  0  0  0  0  0
   36.2160   30.4740   31.9830 C   0  0  0  0  0  0  0  0  0  0  0  0
   36.3720   31.4830   31.0630 C   0  0  0  0  0  3  0  0  0  0  0  0
   36.8750   31.1950   29.8130 C   0  0  0  0  0  3  0  0  0  0  0  0
   37.2000   29.8730   29.5530 C   0  0  0  0  0  3  0  0  0  0  0  0
   37.0180   28.9160   30.5200 C   0  0  0  0  0  3  0  0  0  0  0  0
   36.5220   29.1610   31.7740 C   0  0  0  0  0  0  0  0  0  0  0  0
   38.3850   24.2290   37.0270 C   0  0  0  0  0  0  0  0  0  0  0  0
   39.1930   23.1050   37.0290 C   0  0  0  0  0  0  0  0  0  0  0  0
   39.4590   22.5750   35.7610 C   0  0  0  0  0  0  0  0  0  0  0  0
   38.9590   23.1280   34.6370 N   0  0  0  0  0  0  0  0  0  0  0  0
   38.1720   24.2330   34.7270 C   0  0  0  0  0  0  0  0  0  0  0  0
   37.8540   24.8280   35.9220 N   0  0  0  0  0  0  0  0  0  0  0  0
   38.1680   24.6550   38.0040 H   0  0  0  0  0  0  0  0  0  0  0  0
   40.0960   21.6880   35.7590 H   0  0  0  0  0  0  0  0  0  0  0  0
   39.6960   22.5560   38.2280 N   0  0  0  0  0  0  0  0  0  0  0  0
   40.3800   23.0420   38.8530 H   0  0  0  0  0  0  0  0  0  0  0  0
   39.2800   21.5970   38.3850 H   0  0  0  0  0  0  0  0  0  0  0  0
  1 24  1  0  0  0  0
  2  1  2  0  0  0  0
  3  4  2  0  0  0  0
  3  2  1  0  0  0  0
  4  5  1  0  0  0  0
  5  9  1  0  0  0  0
  5  6  2  0  0  0  0
  6  1  1  0  0  0  0
  7  2  1  0  0  0  0
  8  3  1  0  0  0  0
  9 10  1  0  0  0  0
 10 12  2  0  0  0  0
 10 11  1  0  0  0  0
 13 12  1  0  0  0  0
 14 13  2  0  0  0  0
 15 14  1  0  0  0  0
 16 15  2  0  0  0  0
 17 16  1  0  0  0  0
 17 18  2  0  0  0  0
 18 19  1  0  0  0  0
 19 14  1  0  0  0  0
 19  9  2  0  0  0  0
 20 21  1  0  0  0  0
 20 26  1  0  0  0  0
 21 28  1  0  0  0  0
 22 21  2  0  0  0  0
 23 24  2  0  0  0  0
 23 22  1  0  0  0  0
 24 25  1  0  0  0  0
 25 20  2  0  0  0  0
 27 22  1  0  0  0  0
 28 30  1  0  0  0  0
 28 29  1  0  0  0  0
M  END
>  <minimizedAffinity>
-6.23484802

$$$$

 OpenBabel03272506593D

 30 33  0  0  0  0  0  0  0  0999 V2000
   37.2430   26.4300   33.2500 C   0  0  0  0  0  0  0  0  0  0  0  0
   37.4490   25.7210   32.1090 C   0  0  0  0  0  0  0  0  0  0  0  0
   37.9690   24.4600   32.0090 C   0  0  0  0  0  0  0  0  0  0  0  0
   38.3060   23.8790   33.1740 N   0  0  0  0  0  0  0  0  0  0  0  0
   38.1300   24.5250   34.3490 C   0  0  0  0  0  0  0  0  0  0  0  0
   37.6120   25.7610   34.3420 N   0  0  0  0  0  0  0  0  0  0  0  0
   37.1850   26.1640   31.1390 H   0  0  0  0  0  0  0  0  0  0  0  0
   38.1340   23.8950   31.1100 H   0  0  0  0  0  0  0  0  0  0  0  0
   38.4340   24.0910   35.7150 C   0  0  0  0  0  0  0  0  0  0  0  0
   37.6760   24.4580   36.8350 C   0  0  0  0  0  0  0  0  0  0  0  0
   36.8050   25.1070   36.6720 H   0  0  0  0  0  0  0  0  0  0  0  0
   37.9520   24.0600   38.1140 C   0  0  0  0  0  3  0  0  0  0  0  0
   39.0270   23.2490   38.3700 C   0  0  0  0  0  3  0  0  0  0  0  0
   39.8120   22.8540   37.3120 C   0  0  0  0  0  0  0  0  0  0  0  0
   40.8800   22.0460   37.6230 C   0  0  0  0  0  3  0  0  0  0  0  0
   41.7180   21.6080   36.6210 C   0  0  0  0  0  3  0  0  0  0  0  0
   41.4260   22.0190   35.3300 C   0  0  0  0  0  3  0  0  0  0  0  0
   40.3420   22.8270   35.0930 C   0  0  0  0  0  3  0  0  0  0  0  0
   39.4850   23.2840   36.0590 C   0  0  0  0  0  0  0  0  0  0  0  0
   36.1090   29.6760   32.0840 C   0  0  0  0  0  0  0  0  0  0  0  0
   35.6080   30.3170   33.2030 C   0  0  0  0  0  0  0  0  0  0  0  0
   35.6790   29.5700   34.3840 C   0  0  0  0  0  0  0  0  0  0  0  0
   36.1990   28.3240   34.4110 N   0  0  0  0  0  0  0  0  0  0  0  0
   36.6690   27.7700   33.2620 C   0  0  0  0  0  0  0  0  0  0  0  0
   36.6440   28.4220   32.0540 N   0  0  0  0  0  0  0  0  0  0  0  0
   36.0620   30.2430   31.1560 H   0  0  0  0  0  0  0  0  0  0  0  0
   35.2850   30.0710   35.2700 H   0  0  0  0  0  0  0  0  0  0  0  0
   35.0720   31.6210   33.1340 N   0  0  0  0  0  0  0  0  0  0  0  0
   35.6340   32.4740   32.9040 H   0  0  0  0  0  0  0  0  0  0  0  0
   34.0380   31.5950   33.3480 H   0  0  0  0  0  0  0  0  0  0  0  0
  1 24  1  0  0  0  0
  1  6  1  0  0  0  0
  2  1  2  0  0  0  0
  3  2  1  0  0  0  0
  3  4  2  0  0  0  0
  4  5  1  0  0  0  0
  5  9  1  0  0  0  0
  6  5  2  0  0  0  0
  7  2  1  0  0  0  0
  8  3  1  0  0  0  0
  9 19  2  0  0  0  0
  9 10  1  0  0  0  0
 10 12  2  0  0  0  0
 11 10  1  0  0  0  0
 12 13  1  0  0  0  0
 14 15  1  0  0  0  0
 14 13  2  0  0  0  0
 16 15  2  0  0  0  0
 17 16  1  0  0  0  0
 18 17  2  0  0  0  0
 18 19  1  0  0  0  0
 19 14  1  0  0  0  0
 20 21  1  0  0  0  0
 21 22  2  0  0  0  0
 22 23  1  0  0  0  0
 22 27  1  0  0  0  0
 24 23  2  0  0  0  0
 25 20  2  0  0  0  0
 25 24  1  0  0  0  0
 26 20  1  0  0  0  0
 28 21  1  0  0  0  0
 28 30  1  0  0  0  0
 29 28  1  0  0  0  0
M  END
>  <minimizedAffinity>
-6.15171957

$$$$

 OpenBabel03272506593D

 30 33  0  0  0  0  0  0  0  0999 V2000
   37.3700   22.9730   32.3880 C   0  0  0  0  0  0  0  0  0  0  0  0
   37.3050   24.2050   31.8210 C   0  0  0  0  0  0  0  0  0  0  0  0
   37.5840   25.4020   32.4240 C   0  0  0  0  0  0  0  0  0  0  0  0
   37.9590   25.3270   33.7120 N   0  0  0  0  0  0  0  0  0  0  0  0
   38.0450   24.1330   34.3430 C   0  0  0  0  0  0  0  0  0  0  0  0
   37.7500   23.0150   33.6650 N   0  0  0  0  0  0  0  0  0  0  0  0
   37.0020   24.3050   30.7700 H   0  0  0  0  0  0  0  0  0  0  0  0
   37.5340   26.3800   31.9800 H   0  0  0  0  0  0  0  0  0  0  0  0
   38.4180   23.8250   35.7260 C   0  0  0  0  0  0  0  0  0  0  0  0
   37.6850   24.2490   36.8420 C   0  0  0  0  0  0  0  0  0  0  0  0
   36.7780   24.8430   36.6630 H   0  0  0  0  0  0  0  0  0  0  0  0
   38.0260   23.9700   38.1370 C   0  0  0  0  0  3  0  0  0  0  0  0
   39.1470   23.2310   38.4130 C   0  0  0  0  0  3  0  0  0  0  0  0
   39.9110   22.7850   37.3600 C   0  0  0  0  0  0  0  0  0  0  0  0
   41.0260   22.0530   37.6910 C   0  0  0  0  0  3  0  0  0  0  0  0
   41.8470   21.5720   36.6950 C   0  0  0  0  0  3  0  0  0  0  0  0
   41.4890   21.8640   35.3880 C   0  0  0  0  0  3  0  0  0  0  0  0
   40.3610   22.6010   35.1300 C   0  0  0  0  0  3  0  0  0  0  0  0
   39.5190   23.0970   36.0910 C   0  0  0  0  0  0  0  0  0  0  0  0
   37.7040   20.1940   30.0740 C   0  0  0  0  0  0  0  0  0  0  0  0
   36.5580   19.4360   30.2380 C   0  0  0  0  0  0  0  0  0  0  0  0
   35.6620   19.9320   31.1930 C   0  0  0  0  0  0  0  0  0  0  0  0
   35.9120   21.0620   31.8880 N   0  0  0  0  0  0  0  0  0  0  0  0
   37.0650   21.7450   31.6620 C   0  0  0  0  0  0  0  0  0  0  0  0
   38.0060   21.3410   30.7480 N   0  0  0  0  0  0  0  0  0  0  0  0
   38.4120   19.8230   29.3360 H   0  0  0  0  0  0  0  0  0  0  0  0
   34.7560   19.3370   31.3260 H   0  0  0  0  0  0  0  0  0  0  0  0
   36.3340   18.2600   29.4920 N   0  0  0  0  0  0  0  0  0  0  0  0
   36.1900   18.2420   28.4560 H   0  0  0  0  0  0  0  0  0  0  0  0
   36.3330   17.4220   30.1360 H   0  0  0  0  0  0  0  0  0  0  0  0
  1  6  1  0  0  0  0
  2  1  2  0  0  0  0
  2  3  1  0  0  0  0
  3  4  2  0  0  0  0
  4  5  1  0  0  0  0
  5  9  1  0  0  0  0
  6  5  2  0  0  0  0
  7  2  1  0  0  0  0
  8  3  1  0  0  0  0
  9 19  2  0  0  0  0
  9 10  1  0  0  0  0
 10 12  2  0  0  0  0
 11 10  1  0  0  0  0
 12 13  1  0  0  0  0
 14 15  1  0  0  0  0
 14 13  2  0  0  0  0
 16 15  2  0  0  0  0
 17 16  1  0  0  0  0
 18 17  2  0  0  0  0
 18 19  1  0  0  0  0
 19 14  1  0  0  0  0
 20 21  2  0  0  0  0
 20 25  1  0  0  0  0
 21 22  1  0  0  0  0
 22 27  1  0  0  0  0
 22 23  2  0  0  0  0
 24 23  1  0  0  0  0
 24  1  1  0  0  0  0
 25 24  2  0  0  0  0
 26 20  1  0  0  0  0
 28 30  1  0  0  0  0
 28 21  1  0  0  0  0
 29 28  1  0  0  0  0
M  END
>  <minimizedAffinity>
-6.13239861

$$$$

 OpenBabel03272506593D

 30 33  0  0  0  0  0  0  0  0999 V2000
   35.9940   27.5050   31.5190 C   0  0  0  0  0  0  0  0  0  0  0  0
   36.5540   28.3320   30.5980 C   0  0  0  0  0  0  0  0  0  0  0  0
   36.3440   29.6780   30.4670 C   0  0  0  0  0  0  0  0  0  0  0  0
   35.4910   30.2190   31.3530 N   0  0  0  0  0  0  0  0  0  0  0  0
   34.8940   29.4570   32.2980 C   0  0  0  0  0  0  0  0  0  0  0  0
   35.1650   28.1450   32.3430 N   0  0  0  0  0  0  0  0  0  0  0  0
   37.2570   27.9250   29.8590 H   0  0  0  0  0  0  0  0  0  0  0  0
   36.7850   30.3370   29.7410 H   0  0  0  0  0  0  0  0  0  0  0  0
   33.9350   29.8320   33.3410 C   0  0  0  0  0  0  0  0  0  0  0  0
   32.5690   29.5290   33.2870 C   0  0  0  0  0  0  0  0  0  0  0  0
   32.2010   28.9770   32.4110 H   0  0  0  0  0  0  0  0  0  0  0  0
   31.6650   29.8770   34.2530 C   0  0  0  0  0  3  0  0  0  0  0  0
   32.0730   30.5660   35.3660 C   0  0  0  0  0  3  0  0  0  0  0  0
   33.4040   30.8940   35.4780 C   0  0  0  0  0  0  0  0  0  0  0  0
   33.7600   31.5880   36.6100 C   0  0  0  0  0  3  0  0  0  0  0  0
   35.0740   31.9580   36.7980 C   0  0  0  0  0  3  0  0  0  0  0  0
   35.9770   31.6000   35.8100 C   0  0  0  0  0  3  0  0  0  0  0  0
   35.5510   30.9060   34.7050 C   0  0  0  0  0  3  0  0  0  0  0  0
   34.2560   30.5190   34.4810 C   0  0  0  0  0  0  0  0  0  0  0  0
   35.5890   23.9110   31.2080 C   0  0  0  0  0  0  0  0  0  0  0  0
   36.7580   23.3620   31.7060 C   0  0  0  0  0  0  0  0  0  0  0  0
   37.6980   24.2990   32.1530 C   0  0  0  0  0  0  0  0  0  0  0  0
   37.4650   25.6270   32.0960 N   0  0  0  0  0  0  0  0  0  0  0  0
   36.2870   26.0790   31.5920 C   0  0  0  0  0  0  0  0  0  0  0  0
   35.3020   25.2420   31.1280 N   0  0  0  0  0  0  0  0  0  0  0  0
   34.8460   23.1970   30.8560 H   0  0  0  0  0  0  0  0  0  0  0  0
   38.6220   23.8710   32.5450 H   0  0  0  0  0  0  0  0  0  0  0  0
   36.9640   21.9670   31.7470 N   0  0  0  0  0  0  0  0  0  0  0  0
   36.4090   21.3110   32.3440 H   0  0  0  0  0  0  0  0  0  0  0  0
   37.7510   21.7010   31.0940 H   0  0  0  0  0  0  0  0  0  0  0  0
  1 24  1  0  0  0  0
  1  6  1  0  0  0  0
  2  1  2  0  0  0  0
  3  2  1  0  0  0  0
  3  4  2  0  0  0  0
  4  5  1  0  0  0  0
  5  6  2  0  0  0  0
  5  9  1  0  0  0  0
  7  2  1  0  0  0  0
  8  3  1  0  0  0  0
  9 19  1  0  0  0  0
 10  9  2  0  0  0  0
 10 12  1  0  0  0  0
 11 10  1  0  0  0  0
 12 13  2  0  0  0  0
 13 14  1  0  0  0  0
 14 15  1  0  0  0  0
 15 16  2  0  0  0  0
 17 16  1  0  0  0  0
 18 17  2  0  0  0  0
 19 18  1  0  0  0  0
 19 14  2  0  0  0  0
 20 21  1  0  0  0  0
 21 28  1  0  0  0  0
 21 22  2  0  0  0  0
 22 27  1  0  0  0  0
 23 22  1  0  0  0  0
 24 23  2  0  0  0  0
 25 20  2  0  0  0  0
 25 24  1  0  0  0  0
 26 20  1  0  0  0  0
 28 29  1  0  0  0  0
 30 28  1  0  0  0  0
M  END
>  <minimizedAffinity>
-6.12178755

$$$$

 OpenBabel03272506593D

 30 33  0  0  0  0  0  0  0  0999 V2000
   37.8000   27.4850   32.3620 C   0  0  0  0  0  0  0  0  0  0  0  0
   36.8250   28.0800   33.0990 C   0  0  0  0  0  0  0  0  0  0  0  0
   36.4790   27.7880   34.3900 C   0  0  0  0  0  0  0  0  0  0  0  0
   37.1900   26.8080   34.9720 N   0  0  0  0  0  0  0  0  0  0  0  0
   38.1750   26.1700   34.3000 C   0  0  0  0  0  0  0  0  0  0  0  0
   38.4390   26.5280   33.0350 N   0  0  0  0  0  0  0  0  0  0  0  0
   36.2250   28.8860   32.6560 H   0  0  0  0  0  0  0  0  0  0  0  0
   35.7090   28.2560   34.9770 H   0  0  0  0  0  0  0  0  0  0  0  0
   39.0550   25.0800   34.7310 C   0  0  0  0  0  0  0  0  0  0  0  0
   40.0620   24.5290   33.9280 C   0  0  0  0  0  0  0  0  0  0  0  0
   40.1950   24.9440   32.9190 H   0  0  0  0  0  0  0  0  0  0  0  0
   40.8860   23.5110   34.3200 C   0  0  0  0  0  3  0  0  0  0  0  0
   40.7610   22.9600   35.5690 C   0  0  0  0  0  3  0  0  0  0  0  0
   39.7890   23.4570   36.4060 C   0  0  0  0  0  0  0  0  0  0  0  0
   39.7020   22.8680   37.6450 C   0  0  0  0  0  3  0  0  0  0  0  0
   38.7530   23.3050   38.5420 C   0  0  0  0  0  3  0  0  0  0  0  0
   37.9240   24.3370   38.1310 C   0  0  0  0  0  3  0  0  0  0  0  0
   38.0680   24.8790   36.8780 C   0  0  0  0  0  3  0  0  0  0  0  0
   38.9980   24.4740   35.9570 C   0  0  0  0  0  0  0  0  0  0  0  0
   39.6540   27.9480   29.2750 C   0  0  0  0  0  0  0  0  0  0  0  0
   38.7790   28.5790   28.4090 C   0  0  0  0  0  0  0  0  0  0  0  0
   37.5110   28.8360   28.9440 C   0  0  0  0  0  0  0  0  0  0  0  0
   37.1860   28.4880   30.2070 N   0  0  0  0  0  0  0  0  0  0  0  0
   38.1090   27.8710   30.9910 C   0  0  0  0  0  0  0  0  0  0  0  0
   39.3790   27.5760   30.5580 N   0  0  0  0  0  0  0  0  0  0  0  0
   40.6450   27.7410   28.8750 H   0  0  0  0  0  0  0  0  0  0  0  0
   36.8170   29.3330   28.2640 H   0  0  0  0  0  0  0  0  0  0  0  0
   39.1570   28.9260   27.0940 N   0  0  0  0  0  0  0  0  0  0  0  0
   39.8890   29.6370   26.8630 H   0  0  0  0  0  0  0  0  0  0  0  0
   38.5930   28.3640   26.3990 H   0  0  0  0  0  0  0  0  0  0  0  0
  1  6  2  0  0  0  0
  1  2  1  0  0  0  0
  2  3  2  0  0  0  0
  3  4  1  0  0  0  0
  3  8  1  0  0  0  0
  5  9  1  0  0  0  0
  5  4  2  0  0  0  0
  6  5  1  0  0  0  0
  7  2  1  0  0  0  0
  9 19  1  0  0  0  0
 10 12  1  0  0  0  0
 10  9  2  0  0  0  0
 11 10  1  0  0  0  0
 12 13  2  0  0  0  0
 13 14  1  0  0  0  0
 14 15  1  0  0  0  0
 15 16  2  0  0  0  0
 17 16  1  0  0  0  0
 18 17  2  0  0  0  0
 19 14  2  0  0  0  0
 19 18  1  0  0  0  0
 20 25  1  0  0  0  0
 21 22  1  0  0  0  0
 21 20  2  0  0  0  0
 22 23  2  0  0  0  0
 23 24  1  0  0  0  0
 24  1  1  0  0  0  0
 25 24  2  0  0  0  0
 26 20  1  0  0  0  0
 27 22  1  0  0  0  0
 28 21  1  0  0  0  0
 29 28  1  0  0  0  0
 30 28  1  0  0  0  0
M  END
>  <minimizedAffinity>
-6.08063459

$$$$

 OpenBabel03272506593D

 30 33  0  0  0  0  0  0  0  0999 V2000
   35.9970   28.2660   31.9630 C   0  0  0  0  0  0  0  0  0  0  0  0
   36.2020   29.0300   30.8580 C   0  0  0  0  0  0  0  0  0  0  0  0
   36.0580   30.3870   30.7590 C   0  0  0  0  0  0  0  0  0  0  0  0
   35.6730   31.0110   31.8860 N   0  0  0  0  0  0  0  0  0  0  0  0
   35.4490   30.3150   33.0240 C   0  0  0  0  0  0  0  0  0  0  0  0
   35.6180   28.9860   33.0190 N   0  0  0  0  0  0  0  0  0  0  0  0
   36.5180   28.5540   29.9200 H   0  0  0  0  0  0  0  0  0  0  0  0
   36.2190   30.9960   29.8880 H   0  0  0  0  0  0  0  0  0  0  0  0
   35.0190   30.7850   34.3440 C   0  0  0  0  0  0  0  0  0  0  0  0
   35.8440   31.5000   35.2220 C   0  0  0  0  0  0  0  0  0  0  0  0
   36.8700   31.7190   34.8950 H   0  0  0  0  0  0  0  0  0  0  0  0
   35.4540   31.9400   36.4570 C   0  0  0  0  0  3  0  0  0  0  0  0
   34.1840   31.6920   36.9100 C   0  0  0  0  0  3  0  0  0  0  0  0
   33.3250   30.9940   36.0940 C   0  0  0  0  0  0  0  0  0  0  0  0
   32.0660   30.7680   36.5980 C   0  0  0  0  0  3  0  0  0  0  0  0
   31.1450   30.0730   35.8450 C   0  0  0  0  0  3  0  0  0  0  0  0
   31.5550   29.6320   34.5970 C   0  0  0  0  0  3  0  0  0  0  0  0
   32.8290   29.8940   34.1580 C   0  0  0  0  0  3  0  0  0  0  0  0
   33.7730   30.5810   34.8740 C   0  0  0  0  0  0  0  0  0  0  0  0
   35.5490   24.7480   31.1850 C   0  0  0  0  0  0  0  0  0  0  0  0
   36.4780   24.0760   31.9600 C   0  0  0  0  0  0  0  0  0  0  0  0
   37.2710   24.9020   32.7660 C   0  0  0  0  0  0  0  0  0  0  0  0
   37.1270   26.2440   32.7740 N   0  0  0  0  0  0  0  0  0  0  0  0
   36.1880   26.8210   31.9790 C   0  0  0  0  0  0  0  0  0  0  0  0
   35.3610   26.0990   31.1540 N   0  0  0  0  0  0  0  0  0  0  0  0
   34.9230   24.1220   30.5510 H   0  0  0  0  0  0  0  0  0  0  0  0
   38.0050   24.3760   33.3790 H   0  0  0  0  0  0  0  0  0  0  0  0
   36.5970   22.6710   31.9230 N   0  0  0  0  0  0  0  0  0  0  0  0
   35.8540   22.0110   32.2510 H   0  0  0  0  0  0  0  0  0  0  0  0
   37.5360   22.4020   31.5210 H   0  0  0  0  0  0  0  0  0  0  0  0
  1 24  1  0  0  0  0
  1  6  1  0  0  0  0
  2  1  2  0  0  0  0
  3  2  1  0  0  0  0
  3  4  2  0  0  0  0
  4  5  1  0  0  0  0
  5  9  1  0  0  0  0
  6  5  2  0  0  0  0
  7  2  1  0  0  0  0
  8  3  1  0  0  0  0
  9 19  2  0  0  0  0
  9 10  1  0  0  0  0
 10 12  2  0  0  0  0
 11 10  1  0  0  0  0
 12 13  1  0  0  0  0
 14 15  1  0  0  0  0
 14 13  2  0  0  0  0
 16 15  2  0  0  0  0
 17 16  1  0  0  0  0
 18 17  2  0  0  0  0
 18 19  1  0  0  0  0
 19 14  1  0  0  0  0
 20 21  1  0  0  0  0
 21 22  2  0  0  0  0
 22 23  1  0  0  0  0
 22 27  1  0  0  0  0
 24 23  2  0  0  0  0
 25 20  2  0  0  0  0
 25 24  1  0  0  0  0
 26 20  1  0  0  0  0
 28 21  1  0  0  0  0
 28 29  1  0  0  0  0
 30 28  1  0  0  0  0
M  END
>  <minimizedAffinity>
-6.00035715

$$$$

 OpenBabel03272506593D

 30 33  0  0  0  0  0  0  0  0999 V2000
   37.7100   23.4890   32.9500 C   0  0  0  0  0  0  0  0  0  0  0  0
   38.8110   23.4430   33.7440 C   0  0  0  0  0  0  0  0  0  0  0  0
   39.6620   24.4750   34.0290 C   0  0  0  0  0  0  0  0  0  0  0  0
   39.3580   25.6510   33.4520 N   0  0  0  0  0  0  0  0  0  0  0  0
   38.2770   25.7730   32.6480 C   0  0  0  0  0  0  0  0  0  0  0  0
   37.5040   24.7000   32.4300 N   0  0  0  0  0  0  0  0  0  0  0  0
   39.0890   22.4990   34.2310 H   0  0  0  0  0  0  0  0  0  0  0  0
   40.5340   24.4440   34.6560 H   0  0  0  0  0  0  0  0  0  0  0  0
   37.7740   26.9400   31.9200 C   0  0  0  0  0  0  0  0  0  0  0  0
   38.0040   27.1650   30.5560 C   0  0  0  0  0  0  0  0  0  0  0  0
   38.5940   26.4170   30.0070 H   0  0  0  0  0  0  0  0  0  0  0  0
   37.5410   28.2520   29.8670 C   0  0  0  0  0  3  0  0  0  0  0  0
   36.7990   29.2110   30.5060 C   0  0  0  0  0  3  0  0  0  0  0  0
   36.5390   29.0490   31.8470 C   0  0  0  0  0  0  0  0  0  0  0  0
   35.7950   30.0410   32.4400 C   0  0  0  0  0  3  0  0  0  0  0  0
   35.4930   29.9560   33.7820 C   0  0  0  0  0  3  0  0  0  0  0  0
   35.9690   28.8500   34.4670 C   0  0  0  0  0  3  0  0  0  0  0  0
   36.7060   27.8970   33.8090 C   0  0  0  0  0  3  0  0  0  0  0  0
   37.0280   27.9430   32.4790 C   0  0  0  0  0  0  0  0  0  0  0  0
   35.5440   21.1350   31.2320 C   0  0  0  0  0  0  0  0  0  0  0  0
   35.2040   20.1860   32.1800 C   0  0  0  0  0  0  0  0  0  0  0  0
   35.7630   20.3990   33.4450 C   0  0  0  0  0  0  0  0  0  0  0  0
   36.5680   21.4510   33.7030 N   0  0  0  0  0  0  0  0  0  0  0  0
   36.8500   22.3360   32.7110 C   0  0  0  0  0  0  0  0  0  0  0  0
   36.3500   22.2160   31.4380 N   0  0  0  0  0  0  0  0  0  0  0  0
   35.1170   20.9860   30.2420 H   0  0  0  0  0  0  0  0  0  0  0  0
   35.4980   19.6520   34.1970 H   0  0  0  0  0  0  0  0  0  0  0  0
   34.3590   19.0990   31.8710 N   0  0  0  0  0  0  0  0  0  0  0  0
   33.3490   19.1960   31.6150 H   0  0  0  0  0  0  0  0  0  0  0  0
   34.9000   18.1930   31.9410 H   0  0  0  0  0  0  0  0  0  0  0  0
  1  2  1  0  0  0  0
  2  3  2  0  0  0  0
  2  7  1  0  0  0  0
  3  8  1  0  0  0  0
  4  3  1  0  0  0  0
  5  4  2  0  0  0  0
  6  5  1  0  0  0  0
  6  1  2  0  0  0  0
  9 19  1  0  0  0  0
  9  5  1  0  0  0  0
 10  9  2  0  0  0  0
 11 10  1  0  0  0  0
 12 13  2  0  0  0  0
 12 10  1  0  0  0  0
 13 14  1  0  0  0  0
 14 15  2  0  0  0  0
 14 19  1  0  0  0  0
 15 16  1  0  0  0  0
 16 17  2  0  0  0  0
 18 17  1  0  0  0  0
 19 18  2  0  0  0  0
 20 25  2  0  0  0  0
 20 21  1  0  0  0  0
 21 22  2  0  0  0  0
 22 23  1  0  0  0  0
 22 27  1  0  0  0  0
 24  1  1  0  0  0  0
 24 23  2  0  0  0  0
 25 24  1  0  0  0  0
 26 20  1  0  0  0  0
 28 30  1  0  0  0  0
 28 21  1  0  0  0  0
 29 28  1  0  0  0  0
M  END
>  <minimizedAffinity>
-5.94905996

$$$$
