
 OpenBabel03272510073D

 32 35  0  0  0  0  0  0  0  0999 V2000
   38.7150   26.5790   35.0230 C   0  0  0  0  0  0  0  0  0  0  0  0
   38.4100   25.1980   34.8940 C   0  0  0  0  0  0  0  0  0  0  0  0
   37.8550   24.7490   33.6970 C   0  0  0  0  0  0  0  0  0  0  0  0
   37.6300   25.6500   32.7050 N   0  0  0  0  0  0  0  0  0  0  0  0
   37.9250   26.9490   32.8470 C   0  0  0  0  0  0  0  0  0  0  0  0
   38.4650   27.4280   33.9910 N   0  0  0  0  0  0  0  0  0  0  0  0
   37.6680   27.8500   31.7690 N   0  0  0  0  0  0  0  0  0  0  0  0
   38.2770   27.6840   30.4460 C   0  0  0  0  0  0  0  0  0  0  0  0
   37.5790   28.6620   29.5750 C   0  0  0  0  0  0  0  0  0  0  0  0
   36.3920   29.1610   30.3700 C   0  0  0  0  0  0  0  0  0  0  0  0
   36.8160   29.0130   31.7910 C   0  0  0  0  0  0  0  0  0  0  0  0
   39.1440   27.0240   35.9060 H   0  0  0  0  0  0  0  0  0  0  0  0
   37.6340   23.7030   33.6540 H   0  0  0  0  0  0  0  0  0  0  0  0
   39.3570   27.8180   30.5490 H   0  0  0  0  0  0  0  0  0  0  0  0
   38.0990   26.6450   30.0680 H   0  0  0  0  0  0  0  0  0  0  0  0
   37.2650   28.1990   28.6010 H   0  0  0  0  0  0  0  0  0  0  0  0
   38.2780   29.5020   29.3760 H   0  0  0  0  0  0  0  0  0  0  0  0
   36.2880   30.2570   30.1420 H   0  0  0  0  0  0  0  0  0  0  0  0
   35.4980   28.5930   30.1020 H   0  0  0  0  0  0  0  0  0  0  0  0
   37.3620   29.8930   32.1710 H   0  0  0  0  0  0  0  0  0  0  0  0
   35.8870   28.8070   32.3890 H   0  0  0  0  0  0  0  0  0  0  0  0
   38.7290   24.4550   36.0870 C   0  0  0  0  0  0  0  0  0  0  0  0
   37.9100   24.7000   37.1950 C   0  0  0  0  0  0  0  0  0  0  0  0
   37.0930   25.4360   37.1380 H   0  0  0  0  0  0  0  0  0  0  0  0
   38.0460   24.0650   38.4160 C   0  0  0  0  0  3  0  0  0  0  0  0
   39.0760   23.1230   38.5240 C   0  0  0  0  0  3  0  0  0  0  0  0
   39.9070   22.8510   37.4570 C   0  0  0  0  0  0  0  0  0  0  0  0
   40.9140   21.9280   37.5910 C   0  0  0  0  0  3  0  0  0  0  0  0
   41.7140   21.7080   36.4860 C   0  0  0  0  0  3  0  0  0  0  0  0
   41.5550   22.3650   35.2660 C   0  0  0  0  0  3  0  0  0  0  0  0
   40.5280   23.2750   35.2040 C   0  0  0  0  0  3  0  0  0  0  0  0
   39.7110   23.5180   36.2830 C   0  0  0  0  0  0  0  0  0  0  0  0
  1 12  1  0  0  0  0
  2  1  1  0  0  0  0
  2 22  1  0  0  0  0
  3  2  2  0  0  0  0
  4  5  2  0  0  0  0
  4  3  1  0  0  0  0
  5  6  1  0  0  0  0
  6  1  2  0  0  0  0
  7 11  1  0  0  0  0
  7  5  1  0  0  0  0
  8 14  1  0  0  0  0
  8  7  1  0  0  0  0
  9 10  1  0  0  0  0
  9  8  1  0  0  0  0
 10 11  1  0  0  0  0
 11 20  1  0  0  0  0
 11 21  1  0  0  0  0
 13  3  1  0  0  0  0
 15  8  1  0  0  0  0
 16  9  1  0  0  0  0
 17  9  1  0  0  0  0
 18 10  1  0  0  0  0
 19 10  1  0  0  0  0
 22 32  2  0  0  0  0
 22 23  1  0  0  0  0
 23 25  2  0  0  0  0
 24 23  1  0  0  0  0
 25 26  1  0  0  0  0
 27 28  1  0  0  0  0
 27 26  2  0  0  0  0
 29 28  2  0  0  0  0
 30 29  1  0  0  0  0
 31 30  2  0  0  0  0
 31 32  1  0  0  0  0
 32 27  1  0  0  0  0
M  END
>  <minimizedAffinity>
-6.11265564

$$$$

 OpenBabel03272510073D

 32 35  0  0  0  0  0  0  0  0999 V2000
   37.5370   25.7290   33.1510 C   0  0  0  0  0  0  0  0  0  0  0  0
   38.0960   26.0260   34.4220 C   0  0  0  0  0  0  0  0  0  0  0  0
   37.7920   27.2520   35.0130 C   0  0  0  0  0  0  0  0  0  0  0  0
   36.9730   28.1090   34.3490 N   0  0  0  0  0  0  0  0  0  0  0  0
   36.4550   27.8090   33.1500 C   0  0  0  0  0  0  0  0  0  0  0  0
   36.7240   26.6310   32.5400 N   0  0  0  0  0  0  0  0  0  0  0  0
   35.5990   28.7480   32.4990 N   0  0  0  0  0  0  0  0  0  0  0  0
   34.3520   29.2240   33.1050 C   0  0  0  0  0  0  0  0  0  0  0  0
   33.9020   30.3400   32.2370 C   0  0  0  0  0  0  0  0  0  0  0  0
   35.0600   30.6490   31.3150 C   0  0  0  0  0  0  0  0  0  0  0  0
   35.7970   29.3590   31.2070 C   0  0  0  0  0  0  0  0  0  0  0  0
   37.7110   24.8110   32.6130 H   0  0  0  0  0  0  0  0  0  0  0  0
   38.2470   27.4310   35.9650 H   0  0  0  0  0  0  0  0  0  0  0  0
   33.6690   28.3750   33.1900 H   0  0  0  0  0  0  0  0  0  0  0  0
   34.5480   29.6050   34.1410 H   0  0  0  0  0  0  0  0  0  0  0  0
   33.5940   31.2360   32.8390 H   0  0  0  0  0  0  0  0  0  0  0  0
   33.0340   29.9800   31.6420 H   0  0  0  0  0  0  0  0  0  0  0  0
   34.6190   30.8910   30.3100 H   0  0  0  0  0  0  0  0  0  0  0  0
   35.6490   31.4750   31.7210 H   0  0  0  0  0  0  0  0  0  0  0  0
   35.4110   28.7090   30.4030 H   0  0  0  0  0  0  0  0  0  0  0  0
   36.8810   29.6120   31.0570 H   0  0  0  0  0  0  0  0  0  0  0  0
   38.9390   24.9630   34.9100 C   0  0  0  0  0  0  0  0  0  0  0  0
   39.9050   24.4920   34.0130 C   0  0  0  0  0  0  0  0  0  0  0  0
   39.9810   24.9100   32.9970 H   0  0  0  0  0  0  0  0  0  0  0  0
   40.8180   23.4960   34.3090 C   0  0  0  0  0  3  0  0  0  0  0  0
   40.7500   22.9420   35.5930 C   0  0  0  0  0  3  0  0  0  0  0  0
   39.8130   23.3760   36.5070 C   0  0  0  0  0  0  0  0  0  0  0  0
   39.7620   22.8110   37.7570 C   0  0  0  0  0  3  0  0  0  0  0  0
   38.7960   23.2870   38.6220 C   0  0  0  0  0  3  0  0  0  0  0  0
   37.8860   24.2920   38.2960 C   0  0  0  0  0  3  0  0  0  0  0  0
   37.9950   24.8120   37.0290 C   0  0  0  0  0  3  0  0  0  0  0  0
   38.9450   24.3630   36.1420 C   0  0  0  0  0  0  0  0  0  0  0  0
  1  2  1  0  0  0  0
  2 22  1  0  0  0  0
  2  3  2  0  0  0  0
  3 13  1  0  0  0  0
  4  3  1  0  0  0  0
  5  4  2  0  0  0  0
  6  5  1  0  0  0  0
  6  1  2  0  0  0  0
  7  8  1  0  0  0  0
  7  5  1  0  0  0  0
  8 14  1  0  0  0  0
  8 15  1  0  0  0  0
  9 16  1  0  0  0  0
  9  8  1  0  0  0  0
 10 19  1  0  0  0  0
 10  9  1  0  0  0  0
 11 10  1  0  0  0  0
 11  7  1  0  0  0  0
 12  1  1  0  0  0  0
 17  9  1  0  0  0  0
 18 10  1  0  0  0  0
 20 11  1  0  0  0  0
 21 11  1  0  0  0  0
 22 32  1  0  0  0  0
 23 25  1  0  0  0  0
 23 22  2  0  0  0  0
 24 23  1  0  0  0  0
 25 26  2  0  0  0  0
 26 27  1  0  0  0  0
 27 28  1  0  0  0  0
 28 29  2  0  0  0  0
 30 29  1  0  0  0  0
 31 30  2  0  0  0  0
 32 27  2  0  0  0  0
 32 31  1  0  0  0  0
M  END
>  <minimizedAffinity>
-6.00902033

$$$$

 OpenBabel03272510073D

 32 35  0  0  0  0  0  0  0  0999 V2000
   37.4720   25.6260   33.3630 C   0  0  0  0  0  0  0  0  0  0  0  0
   38.1940   26.8460   33.2790 C   0  0  0  0  0  0  0  0  0  0  0  0
   39.2410   27.0630   34.1730 C   0  0  0  0  0  0  0  0  0  0  0  0
   39.5270   26.0990   35.0860 N   0  0  0  0  0  0  0  0  0  0  0  0
   38.8350   24.9540   35.1490 C   0  0  0  0  0  0  0  0  0  0  0  0
   37.8110   24.7010   34.3010 N   0  0  0  0  0  0  0  0  0  0  0  0
   39.1820   23.9750   36.1290 N   0  0  0  0  0  0  0  0  0  0  0  0
   40.5150   23.3670   36.1930 C   0  0  0  0  0  0  0  0  0  0  0  0
   40.5310   22.6060   37.4660 C   0  0  0  0  0  0  0  0  0  0  0  0
   39.2970   23.0350   38.2290 C   0  0  0  0  0  0  0  0  0  0  0  0
   38.3340   23.4420   37.1670 C   0  0  0  0  0  0  0  0  0  0  0  0
   36.6480   25.3640   32.7190 H   0  0  0  0  0  0  0  0  0  0  0  0
   39.7450   28.0020   34.0750 H   0  0  0  0  0  0  0  0  0  0  0  0
   40.6660   22.7830   35.2820 H   0  0  0  0  0  0  0  0  0  0  0  0
   41.3010   24.1660   36.2180 H   0  0  0  0  0  0  0  0  0  0  0  0
   41.4710   22.7960   38.0510 H   0  0  0  0  0  0  0  0  0  0  0  0
   40.4630   21.5250   37.2180 H   0  0  0  0  0  0  0  0  0  0  0  0
   38.8960   22.1170   38.7390 H   0  0  0  0  0  0  0  0  0  0  0  0
   39.5530   23.8270   38.9360 H   0  0  0  0  0  0  0  0  0  0  0  0
   37.7310   22.5990   36.7870 H   0  0  0  0  0  0  0  0  0  0  0  0
   37.6910   24.2540   37.6020 H   0  0  0  0  0  0  0  0  0  0  0  0
   37.6890   27.7070   32.2380 C   0  0  0  0  0  0  0  0  0  0  0  0
   38.2910   27.5620   30.9830 C   0  0  0  0  0  0  0  0  0  0  0  0
   39.1100   26.8420   30.8310 H   0  0  0  0  0  0  0  0  0  0  0  0
   37.9240   28.2810   29.8600 C   0  0  0  0  0  3  0  0  0  0  0  0
   36.8850   29.2060   30.0170 C   0  0  0  0  0  3  0  0  0  0  0  0
   36.2660   29.3820   31.2360 C   0  0  0  0  0  0  0  0  0  0  0  0
   35.2540   30.3010   31.3650 C   0  0  0  0  0  3  0  0  0  0  0  0
   34.6820   30.4320   32.6160 C   0  0  0  0  0  3  0  0  0  0  0  0
   35.0720   29.6930   33.7320 C   0  0  0  0  0  3  0  0  0  0  0  0
   36.0900   28.7930   33.5300 C   0  0  0  0  0  3  0  0  0  0  0  0
   36.6830   28.6350   32.2990 C   0  0  0  0  0  0  0  0  0  0  0  0
  1  6  1  0  0  0  0
  2  1  2  0  0  0  0
  2  3  1  0  0  0  0
  3  4  2  0  0  0  0
  4  5  1  0  0  0  0
  5  7  1  0  0  0  0
  6  5  2  0  0  0  0
  7  8  1  0  0  0  0
  7 11  1  0  0  0  0
  8 15  1  0  0  0  0
  8  9  1  0  0  0  0
  9 16  1  0  0  0  0
  9 10  1  0  0  0  0
 10 18  1  0  0  0  0
 10 19  1  0  0  0  0
 11 21  1  0  0  0  0
 11 10  1  0  0  0  0
 12  1  1  0  0  0  0
 13  3  1  0  0  0  0
 14  8  1  0  0  0  0
 17  9  1  0  0  0  0
 20 11  1  0  0  0  0
 22 32  1  0  0  0  0
 22  2  1  0  0  0  0
 23 22  2  0  0  0  0
 24 23  1  0  0  0  0
 25 26  2  0  0  0  0
 25 23  1  0  0  0  0
 26 27  1  0  0  0  0
 27 28  2  0  0  0  0
 27 32  1  0  0  0  0
 28 29  1  0  0  0  0
 29 30  2  0  0  0  0
 31 30  1  0  0  0  0
 32 31  2  0  0  0  0
M  END
>  <minimizedAffinity>
-5.99502516

$$$$

 OpenBabel03272510073D

 32 35  0  0  0  0  0  0  0  0999 V2000
   37.4720   25.5420   34.1190 C   0  0  0  0  0  0  0  0  0  0  0  0
   38.0470   26.8410   34.1270 C   0  0  0  0  0  0  0  0  0  0  0  0
   39.2960   27.0120   34.7220 C   0  0  0  0  0  0  0  0  0  0  0  0
   39.9100   25.9300   35.2680 N   0  0  0  0  0  0  0  0  0  0  0  0
   39.3510   24.7130   35.2490 C   0  0  0  0  0  0  0  0  0  0  0  0
   38.1400   24.5010   34.6830 N   0  0  0  0  0  0  0  0  0  0  0  0
   40.0440   23.6110   35.8370 N   0  0  0  0  0  0  0  0  0  0  0  0
   41.3740   23.1900   35.3870 C   0  0  0  0  0  0  0  0  0  0  0  0
   41.8250   22.1960   36.3910 C   0  0  0  0  0  0  0  0  0  0  0  0
   40.8490   22.2890   37.5430 C   0  0  0  0  0  0  0  0  0  0  0  0
   39.5860   22.7680   36.9150 C   0  0  0  0  0  0  0  0  0  0  0  0
   36.5130   25.3080   33.6860 H   0  0  0  0  0  0  0  0  0  0  0  0
   39.6800   28.0100   34.7110 H   0  0  0  0  0  0  0  0  0  0  0  0
   41.2860   22.8290   34.3580 H   0  0  0  0  0  0  0  0  0  0  0  0
   42.0730   24.0660   35.3800 H   0  0  0  0  0  0  0  0  0  0  0  0
   42.8810   22.3880   36.7200 H   0  0  0  0  0  0  0  0  0  0  0  0
   41.7610   21.1880   35.9250 H   0  0  0  0  0  0  0  0  0  0  0  0
   40.6850   21.2400   37.9140 H   0  0  0  0  0  0  0  0  0  0  0  0
   41.2490   22.9480   38.3170 H   0  0  0  0  0  0  0  0  0  0  0  0
   38.9580   21.9470   36.5300 H   0  0  0  0  0  0  0  0  0  0  0  0
   39.0470   23.3800   37.6880 H   0  0  0  0  0  0  0  0  0  0  0  0
   37.1940   27.8190   33.4980 C   0  0  0  0  0  0  0  0  0  0  0  0
   36.2470   28.4260   34.3310 C   0  0  0  0  0  0  0  0  0  0  0  0
   36.1650   28.1410   35.3910 H   0  0  0  0  0  0  0  0  0  0  0  0
   35.3610   29.4030   33.9140 C   0  0  0  0  0  3  0  0  0  0  0  0
   35.4380   29.7900   32.5700 C   0  0  0  0  0  3  0  0  0  0  0  0
   36.3560   29.2170   31.7150 C   0  0  0  0  0  0  0  0  0  0  0  0
   36.4060   29.6090   30.4010 C   0  0  0  0  0  3  0  0  0  0  0  0
   37.3440   28.9900   29.5970 C   0  0  0  0  0  3  0  0  0  0  0  0
   38.2250   28.0060   30.0440 C   0  0  0  0  0  3  0  0  0  0  0  0
   38.1180   27.6630   31.3700 C   0  0  0  0  0  3  0  0  0  0  0  0
   37.1980   28.2590   32.2000 C   0  0  0  0  0  0  0  0  0  0  0  0
  1  2  2  0  0  0  0
  1  6  1  0  0  0  0
  2  3  1  0  0  0  0
  3  4  2  0  0  0  0
  5  4  1  0  0  0  0
  5  7  1  0  0  0  0
  6  5  2  0  0  0  0
  7 11  1  0  0  0  0
  8  7  1  0  0  0  0
  8  9  1  0  0  0  0
  9 16  1  0  0  0  0
  9 10  1  0  0  0  0
 10 18  1  0  0  0  0
 10 19  1  0  0  0  0
 11 10  1  0  0  0  0
 11 21  1  0  0  0  0
 12  1  1  0  0  0  0
 13  3  1  0  0  0  0
 14  8  1  0  0  0  0
 15  8  1  0  0  0  0
 17  9  1  0  0  0  0
 20 11  1  0  0  0  0
 22  2  1  0  0  0  0
 22 23  1  0  0  0  0
 23 24  1  0  0  0  0
 25 23  2  0  0  0  0
 26 25  1  0  0  0  0
 27 32  1  0  0  0  0
 27 26  2  0  0  0  0
 28 27  1  0  0  0  0
 29 30  1  0  0  0  0
 29 28  2  0  0  0  0
 30 31  2  0  0  0  0
 31 32  1  0  0  0  0
 32 22  2  0  0  0  0
M  END
>  <minimizedAffinity>
-5.91495752

$$$$

 OpenBabel03272510073D

 32 35  0  0  0  0  0  0  0  0999 V2000
   37.9930   24.8740   33.9220 C   0  0  0  0  0  0  0  0  0  0  0  0
   38.7270   25.4960   34.9660 C   0  0  0  0  0  0  0  0  0  0  0  0
   39.1700   26.8050   34.7790 C   0  0  0  0  0  0  0  0  0  0  0  0
   38.8800   27.4290   33.6080 N   0  0  0  0  0  0  0  0  0  0  0  0
   38.1850   26.8240   32.6350 C   0  0  0  0  0  0  0  0  0  0  0  0
   37.7360   25.5550   32.7740 N   0  0  0  0  0  0  0  0  0  0  0  0
   37.9080   27.5300   31.4250 N   0  0  0  0  0  0  0  0  0  0  0  0
   37.1590   28.7900   31.4060 C   0  0  0  0  0  0  0  0  0  0  0  0
   37.3000   29.3020   30.0210 C   0  0  0  0  0  0  0  0  0  0  0  0
   38.3660   28.4520   29.3650 C   0  0  0  0  0  0  0  0  0  0  0  0
   38.2930   27.1510   30.0880 C   0  0  0  0  0  0  0  0  0  0  0  0
   37.6090   23.8680   33.9690 H   0  0  0  0  0  0  0  0  0  0  0  0
   39.7270   27.2240   35.5910 H   0  0  0  0  0  0  0  0  0  0  0  0
   36.1390   28.5850   31.7410 H   0  0  0  0  0  0  0  0  0  0  0  0
   37.6120   29.5180   32.1270 H   0  0  0  0  0  0  0  0  0  0  0  0
   37.5660   30.3930   30.0070 H   0  0  0  0  0  0  0  0  0  0  0  0
   36.3280   29.1530   29.5010 H   0  0  0  0  0  0  0  0  0  0  0  0
   38.0390   28.2870   28.3020 H   0  0  0  0  0  0  0  0  0  0  0  0
   39.3340   28.9540   29.4300 H   0  0  0  0  0  0  0  0  0  0  0  0
   37.5560   26.4560   29.6500 H   0  0  0  0  0  0  0  0  0  0  0  0
   39.3300   26.7180   30.0870 H   0  0  0  0  0  0  0  0  0  0  0  0
   38.9140   24.6230   36.0980 C   0  0  0  0  0  0  0  0  0  0  0  0
   37.9790   24.7560   37.1300 C   0  0  0  0  0  0  0  0  0  0  0  0
   37.1730   25.5040   37.0670 H   0  0  0  0  0  0  0  0  0  0  0  0
   37.9810   23.9900   38.2820 C   0  0  0  0  0  3  0  0  0  0  0  0
   38.9930   23.0290   38.3960 C   0  0  0  0  0  3  0  0  0  0  0  0
   39.9350   22.8650   37.4030 C   0  0  0  0  0  0  0  0  0  0  0  0
   40.9210   21.9210   37.5430 C   0  0  0  0  0  3  0  0  0  0  0  0
   41.8370   21.8130   36.5130 C   0  0  0  0  0  3  0  0  0  0  0  0
   41.8120   22.6000   35.3630 C   0  0  0  0  0  3  0  0  0  0  0  0
   40.7980   23.5250   35.2910 C   0  0  0  0  0  3  0  0  0  0  0  0
   39.8680   23.6590   36.2950 C   0  0  0  0  0  0  0  0  0  0  0  0
  1 12  1  0  0  0  0
  1  2  1  0  0  0  0
  2 22  1  0  0  0  0
  3  2  2  0  0  0  0
  3 13  1  0  0  0  0
  4  3  1  0  0  0  0
  5  6  1  0  0  0  0
  5  4  2  0  0  0  0
  6  1  2  0  0  0  0
  7  5  1  0  0  0  0
  8  7  1  0  0  0  0
  8 14  1  0  0  0  0
  8 15  1  0  0  0  0
  9  8  1  0  0  0  0
 10 19  1  0  0  0  0
 10  9  1  0  0  0  0
 10 11  1  0  0  0  0
 11  7  1  0  0  0  0
 16  9  1  0  0  0  0
 17  9  1  0  0  0  0
 18 10  1  0  0  0  0
 20 11  1  0  0  0  0
 21 11  1  0  0  0  0
 22 32  2  0  0  0  0
 22 23  1  0  0  0  0
 23 25  2  0  0  0  0
 24 23  1  0  0  0  0
 25 26  1  0  0  0  0
 27 28  1  0  0  0  0
 27 26  2  0  0  0  0
 29 28  2  0  0  0  0
 30 29  1  0  0  0  0
 31 30  2  0  0  0  0
 31 32  1  0  0  0  0
 32 27  1  0  0  0  0
M  END
>  <minimizedAffinity>
-5.85800266

$$$$

 OpenBabel03272510073D

 32 35  0  0  0  0  0  0  0  0999 V2000
   36.4400   28.3450   34.7220 C   0  0  0  0  0  0  0  0  0  0  0  0
   35.5070   29.2110   34.0920 C   0  0  0  0  0  0  0  0  0  0  0  0
   35.1580   28.9620   32.7650 C   0  0  0  0  0  0  0  0  0  0  0  0
   35.7260   27.9020   32.1320 N   0  0  0  0  0  0  0  0  0  0  0  0
   36.6040   27.0970   32.7440 C   0  0  0  0  0  0  0  0  0  0  0  0
   36.9710   27.3010   34.0300 N   0  0  0  0  0  0  0  0  0  0  0  0
   37.1670   25.9970   32.0280 N   0  0  0  0  0  0  0  0  0  0  0  0
   36.3420   24.9330   31.4490 C   0  0  0  0  0  0  0  0  0  0  0  0
   37.2700   24.1390   30.6070 C   0  0  0  0  0  0  0  0  0  0  0  0
   38.5460   24.9460   30.5110 C   0  0  0  0  0  0  0  0  0  0  0  0
   38.5640   25.7520   31.7640 C   0  0  0  0  0  0  0  0  0  0  0  0
   36.7740   28.4530   35.7410 H   0  0  0  0  0  0  0  0  0  0  0  0
   34.4600   29.6480   32.3350 H   0  0  0  0  0  0  0  0  0  0  0  0
   35.8560   24.3950   32.2670 H   0  0  0  0  0  0  0  0  0  0  0  0
   35.5350   25.3760   30.8090 H   0  0  0  0  0  0  0  0  0  0  0  0
   36.8320   23.9250   29.5950 H   0  0  0  0  0  0  0  0  0  0  0  0
   37.4710   23.1800   31.1320 H   0  0  0  0  0  0  0  0  0  0  0  0
   39.3970   24.2130   30.5470 H   0  0  0  0  0  0  0  0  0  0  0  0
   38.5440   25.5370   29.5920 H   0  0  0  0  0  0  0  0  0  0  0  0
   39.0360   25.2230   32.6090 H   0  0  0  0  0  0  0  0  0  0  0  0
   39.0910   26.7150   31.5260 H   0  0  0  0  0  0  0  0  0  0  0  0
   35.0610   30.2640   34.9700 C   0  0  0  0  0  0  0  0  0  0  0  0
   36.0110   31.2470   35.2710 C   0  0  0  0  0  0  0  0  0  0  0  0
   37.0330   31.1850   34.8660 H   0  0  0  0  0  0  0  0  0  0  0  0
   35.7610   32.3460   36.0730 C   0  0  0  0  0  3  0  0  0  0  0  0
   34.4710   32.4570   36.6040 C   0  0  0  0  0  3  0  0  0  0  0  0
   33.5050   31.5100   36.3340 C   0  0  0  0  0  0  0  0  0  0  0  0
   32.2500   31.6380   36.8730 C   0  0  0  0  0  3  0  0  0  0  0  0
   31.3320   30.6510   36.5670 C   0  0  0  0  0  3  0  0  0  0  0  0
   31.6120   29.5520   35.7560 C   0  0  0  0  0  3  0  0  0  0  0  0
   32.8880   29.4890   35.2510 C   0  0  0  0  0  3  0  0  0  0  0  0
   33.8260   30.4530   35.5330 C   0  0  0  0  0  0  0  0  0  0  0  0
  1 12  1  0  0  0  0
  2  1  1  0  0  0  0
  2 22  1  0  0  0  0
  3  2  2  0  0  0  0
  4  5  2  0  0  0  0
  4  3  1  0  0  0  0
  5  6  1  0  0  0  0
  6  1  2  0  0  0  0
  7  5  1  0  0  0  0
  8  7  1  0  0  0  0
  8 14  1  0  0  0  0
  9 17  1  0  0  0  0
  9  8  1  0  0  0  0
 10 18  1  0  0  0  0
 10  9  1  0  0  0  0
 10 11  1  0  0  0  0
 11  7  1  0  0  0  0
 11 20  1  0  0  0  0
 13  3  1  0  0  0  0
 15  8  1  0  0  0  0
 16  9  1  0  0  0  0
 19 10  1  0  0  0  0
 21 11  1  0  0  0  0
 22 23  2  0  0  0  0
 22 32  1  0  0  0  0
 23 25  1  0  0  0  0
 24 23  1  0  0  0  0
 25 26  2  0  0  0  0
 27 26  1  0  0  0  0
 27 28  1  0  0  0  0
 29 28  2  0  0  0  0
 30 29  1  0  0  0  0
 31 32  1  0  0  0  0
 31 30  2  0  0  0  0
 32 27  2  0  0  0  0
M  END
>  <minimizedAffinity>
-5.85187721

$$$$

 OpenBabel03272510073D

 32 35  0  0  0  0  0  0  0  0999 V2000
   35.5110   25.7820   30.9430 C   0  0  0  0  0  0  0  0  0  0  0  0
   36.6530   26.4300   31.4840 C   0  0  0  0  0  0  0  0  0  0  0  0
   37.6090   25.6560   32.1400 C   0  0  0  0  0  0  0  0  0  0  0  0
   37.4090   24.3160   32.2340 N   0  0  0  0  0  0  0  0  0  0  0  0
   36.3240   23.7230   31.7160 C   0  0  0  0  0  0  0  0  0  0  0  0
   35.3710   24.4360   31.0710 N   0  0  0  0  0  0  0  0  0  0  0  0
   36.1670   22.3100   31.8440 N   0  0  0  0  0  0  0  0  0  0  0  0
   37.1470   21.3600   31.3090 C   0  0  0  0  0  0  0  0  0  0  0  0
   36.7430   20.0400   31.8520 C   0  0  0  0  0  0  0  0  0  0  0  0
   35.7020   20.3230   32.9130 C   0  0  0  0  0  0  0  0  0  0  0  0
   35.0810   21.6080   32.4830 C   0  0  0  0  0  0  0  0  0  0  0  0
   34.7180   26.2900   30.4200 H   0  0  0  0  0  0  0  0  0  0  0  0
   38.4440   26.1940   32.5380 H   0  0  0  0  0  0  0  0  0  0  0  0
   37.1500   21.4510   30.2200 H   0  0  0  0  0  0  0  0  0  0  0  0
   38.1750   21.6210   31.6730 H   0  0  0  0  0  0  0  0  0  0  0  0
   37.6200   19.4750   32.2670 H   0  0  0  0  0  0  0  0  0  0  0  0
   36.2850   19.4560   31.0240 H   0  0  0  0  0  0  0  0  0  0  0  0
   34.9290   19.5110   32.8340 H   0  0  0  0  0  0  0  0  0  0  0  0
   36.1740   20.3550   33.8980 H   0  0  0  0  0  0  0  0  0  0  0  0
   34.2400   21.4660   31.7830 H   0  0  0  0  0  0  0  0  0  0  0  0
   34.7640   22.1460   33.4170 H   0  0  0  0  0  0  0  0  0  0  0  0
   36.6270   27.8550   31.2650 C   0  0  0  0  0  0  0  0  0  0  0  0
   37.0250   28.2830   29.9930 C   0  0  0  0  0  0  0  0  0  0  0  0
   37.3530   27.5580   29.2330 H   0  0  0  0  0  0  0  0  0  0  0  0
   37.0410   29.6060   29.5900 C   0  0  0  0  0  3  0  0  0  0  0  0
   36.6290   30.5560   30.5330 C   0  0  0  0  0  3  0  0  0  0  0  0
   36.2300   30.1780   31.7970 C   0  0  0  0  0  0  0  0  0  0  0  0
   35.8380   31.1290   32.7060 C   0  0  0  0  0  3  0  0  0  0  0  0
   35.4560   30.6820   33.9560 C   0  0  0  0  0  3  0  0  0  0  0  0
   35.4510   29.3410   34.3360 C   0  0  0  0  0  3  0  0  0  0  0  0
   35.8550   28.4440   33.3770 C   0  0  0  0  0  3  0  0  0  0  0  0
   36.2410   28.8520   32.1220 C   0  0  0  0  0  0  0  0  0  0  0  0
  1  6  2  0  0  0  0
  1  2  1  0  0  0  0
  2  3  2  0  0  0  0
  3  4  1  0  0  0  0
  3 13  1  0  0  0  0
  5  7  1  0  0  0  0
  5  4  2  0  0  0  0
  6  5  1  0  0  0  0
  7 11  1  0  0  0  0
  8 15  1  0  0  0  0
  8  7  1  0  0  0  0
  8  9  1  0  0  0  0
  9 16  1  0  0  0  0
  9 10  1  0  0  0  0
 10 19  1  0  0  0  0
 11 10  1  0  0  0  0
 11 21  1  0  0  0  0
 12  1  1  0  0  0  0
 14  8  1  0  0  0  0
 17  9  1  0  0  0  0
 18 10  1  0  0  0  0
 20 11  1  0  0  0  0
 22  2  1  0  0  0  0
 22 32  1  0  0  0  0
 23 22  2  0  0  0  0
 24 23  1  0  0  0  0
 25 23  1  0  0  0  0
 25 26  2  0  0  0  0
 26 27  1  0  0  0  0
 27 32  2  0  0  0  0
 27 28  1  0  0  0  0
 28 29  2  0  0  0  0
 29 30  1  0  0  0  0
 31 30  2  0  0  0  0
 32 31  1  0  0  0  0
M  END
>  <minimizedAffinity>
-5.80350924

$$$$

 OpenBabel03272510073D

 32 35  0  0  0  0  0  0  0  0999 V2000
   37.0040   26.0330   32.3420 C   0  0  0  0  0  0  0  0  0  0  0  0
   35.9630   26.6670   31.6120 C   0  0  0  0  0  0  0  0  0  0  0  0
   35.0520   25.8680   30.9230 C   0  0  0  0  0  0  0  0  0  0  0  0
   35.1970   24.5180   30.9800 N   0  0  0  0  0  0  0  0  0  0  0  0
   36.1860   23.9400   31.6740 C   0  0  0  0  0  0  0  0  0  0  0  0
   37.0930   24.6760   32.3570 N   0  0  0  0  0  0  0  0  0  0  0  0
   36.2880   22.5150   31.6990 N   0  0  0  0  0  0  0  0  0  0  0  0
   35.2090   21.6600   32.2010 C   0  0  0  0  0  0  0  0  0  0  0  0
   35.6090   20.2790   31.8350 C   0  0  0  0  0  0  0  0  0  0  0  0
   36.7760   20.4180   30.8820 C   0  0  0  0  0  0  0  0  0  0  0  0
   37.4050   21.7140   31.2600 C   0  0  0  0  0  0  0  0  0  0  0  0
   37.7560   26.5610   32.9050 H   0  0  0  0  0  0  0  0  0  0  0  0
   34.2940   26.3940   30.3810 H   0  0  0  0  0  0  0  0  0  0  0  0
   35.0870   21.8580   33.2690 H   0  0  0  0  0  0  0  0  0  0  0  0
   34.2440   21.9220   31.6960 H   0  0  0  0  0  0  0  0  0  0  0  0
   34.7580   19.7090   31.3750 H   0  0  0  0  0  0  0  0  0  0  0  0
   35.9410   19.7630   32.7620 H   0  0  0  0  0  0  0  0  0  0  0  0
   37.4950   19.5890   31.1280 H   0  0  0  0  0  0  0  0  0  0  0  0
   36.4210   20.3690   29.8500 H   0  0  0  0  0  0  0  0  0  0  0  0
   38.1540   21.6110   32.0640 H   0  0  0  0  0  0  0  0  0  0  0  0
   37.8520   22.1460   30.3240 H   0  0  0  0  0  0  0  0  0  0  0  0
   36.0330   28.1040   31.6990 C   0  0  0  0  0  0  0  0  0  0  0  0
   35.4960   28.6710   32.8600 C   0  0  0  0  0  0  0  0  0  0  0  0
   35.0360   28.0380   33.6340 H   0  0  0  0  0  0  0  0  0  0  0  0
   35.4950   30.0270   33.1310 C   0  0  0  0  0  3  0  0  0  0  0  0
   36.0720   30.8620   32.1670 C   0  0  0  0  0  3  0  0  0  0  0  0
   36.6120   30.3460   31.0090 C   0  0  0  0  0  0  0  0  0  0  0  0
   37.1660   31.1860   30.0760 C   0  0  0  0  0  3  0  0  0  0  0  0
   37.6830   30.6040   28.9340 C   0  0  0  0  0  3  0  0  0  0  0  0
   37.6700   29.2320   28.6860 C   0  0  0  0  0  3  0  0  0  0  0  0
   37.1000   28.4510   29.6620 C   0  0  0  0  0  3  0  0  0  0  0  0
   36.5770   28.9960   30.8110 C   0  0  0  0  0  0  0  0  0  0  0  0
  1  6  1  0  0  0  0
  1 12  1  0  0  0  0
  2 22  1  0  0  0  0
  2  1  2  0  0  0  0
  3  4  2  0  0  0  0
  3  2  1  0  0  0  0
  4  5  1  0  0  0  0
  5  7  1  0  0  0  0
  5  6  2  0  0  0  0
  7  8  1  0  0  0  0
  8 14  1  0  0  0  0
  9  8  1  0  0  0  0
  9 17  1  0  0  0  0
 10 18  1  0  0  0  0
 10 11  1  0  0  0  0
 10  9  1  0  0  0  0
 11  7  1  0  0  0  0
 11 20  1  0  0  0  0
 13  3  1  0  0  0  0
 15  8  1  0  0  0  0
 16  9  1  0  0  0  0
 19 10  1  0  0  0  0
 21 11  1  0  0  0  0
 22 23  1  0  0  0  0
 23 25  2  0  0  0  0
 23 24  1  0  0  0  0
 26 25  1  0  0  0  0
 27 26  2  0  0  0  0
 28 27  1  0  0  0  0
 29 28  2  0  0  0  0
 30 29  1  0  0  0  0
 30 31  2  0  0  0  0
 31 32  1  0  0  0  0
 32 27  1  0  0  0  0
 32 22  2  0  0  0  0
M  END
>  <minimizedAffinity>
-5.75855446

$$$$

 OpenBabel03272510073D

 32 35  0  0  0  0  0  0  0  0999 V2000
   37.7820   24.9910   32.3060 C   0  0  0  0  0  0  0  0  0  0  0  0
   36.9010   24.4360   31.3410 C   0  0  0  0  0  0  0  0  0  0  0  0
   35.8130   25.1980   30.9170 C   0  0  0  0  0  0  0  0  0  0  0  0
   35.6430   26.4390   31.4440 N   0  0  0  0  0  0  0  0  0  0  0  0
   36.4870   26.9450   32.3530 C   0  0  0  0  0  0  0  0  0  0  0  0
   37.5550   26.2400   32.7930 N   0  0  0  0  0  0  0  0  0  0  0  0
   36.2590   28.2560   32.8710 N   0  0  0  0  0  0  0  0  0  0  0  0
   36.2110   29.4420   32.0110 C   0  0  0  0  0  0  0  0  0  0  0  0
   35.7240   30.5350   32.8880 C   0  0  0  0  0  0  0  0  0  0  0  0
   35.2400   29.8720   34.1580 C   0  0  0  0  0  0  0  0  0  0  0  0
   36.0490   28.6240   34.2500 C   0  0  0  0  0  0  0  0  0  0  0  0
   38.6480   24.4830   32.6970 H   0  0  0  0  0  0  0  0  0  0  0  0
   35.1740   24.7310   30.1970 H   0  0  0  0  0  0  0  0  0  0  0  0
   37.2020   29.5830   31.5710 H   0  0  0  0  0  0  0  0  0  0  0  0
   35.4870   29.2790   31.1710 H   0  0  0  0  0  0  0  0  0  0  0  0
   34.9140   31.1340   32.3930 H   0  0  0  0  0  0  0  0  0  0  0  0
   36.5860   31.1990   33.1160 H   0  0  0  0  0  0  0  0  0  0  0  0
   35.5320   30.5480   35.0080 H   0  0  0  0  0  0  0  0  0  0  0  0
   34.1610   29.7100   34.1060 H   0  0  0  0  0  0  0  0  0  0  0  0
   37.0120   28.7720   34.7680 H   0  0  0  0  0  0  0  0  0  0  0  0
   35.4100   27.8570   34.7660 H   0  0  0  0  0  0  0  0  0  0  0  0
   37.2890   23.1040   30.9490 C   0  0  0  0  0  0  0  0  0  0  0  0
   38.4790   23.0060   30.2200 C   0  0  0  0  0  0  0  0  0  0  0  0
   39.0530   23.9080   29.9560 H   0  0  0  0  0  0  0  0  0  0  0  0
   39.0220   21.8130   29.7800 C   0  0  0  0  0  3  0  0  0  0  0  0
   38.3180   20.6460   30.0970 C   0  0  0  0  0  3  0  0  0  0  0  0
   37.1410   20.6960   30.8140 C   0  0  0  0  0  0  0  0  0  0  0  0
   36.4660   19.5380   31.1060 C   0  0  0  0  0  3  0  0  0  0  0  0
   35.2890   19.6610   31.8210 C   0  0  0  0  0  3  0  0  0  0  0  0
   34.7630   20.8780   32.2510 C   0  0  0  0  0  3  0  0  0  0  0  0
   35.4910   21.9960   31.9230 C   0  0  0  0  0  3  0  0  0  0  0  0
   36.6660   21.9120   31.2140 C   0  0  0  0  0  0  0  0  0  0  0  0
  1 12  1  0  0  0  0
  1  6  1  0  0  0  0
  2  1  2  0  0  0  0
  3  2  1  0  0  0  0
  3  4  2  0  0  0  0
  4  5  1  0  0  0  0
  5  6  2  0  0  0  0
  5  7  1  0  0  0  0
  7 11  1  0  0  0  0
  8  7  1  0  0  0  0
  8  9  1  0  0  0  0
  9 17  1  0  0  0  0
  9 10  1  0  0  0  0
 10 11  1  0  0  0  0
 10 18  1  0  0  0  0
 11 21  1  0  0  0  0
 11 20  1  0  0  0  0
 13  3  1  0  0  0  0
 14  8  1  0  0  0  0
 15  8  1  0  0  0  0
 16  9  1  0  0  0  0
 19 10  1  0  0  0  0
 22 32  1  0  0  0  0
 22  2  1  0  0  0  0
 23 22  2  0  0  0  0
 24 23  1  0  0  0  0
 25 26  2  0  0  0  0
 25 23  1  0  0  0  0
 26 27  1  0  0  0  0
 27 28  2  0  0  0  0
 27 32  1  0  0  0  0
 28 29  1  0  0  0  0
 29 30  2  0  0  0  0
 31 30  1  0  0  0  0
 32 31  2  0  0  0  0
M  END
>  <minimizedAffinity>
-5.70924234

$$$$
