
 OpenBabel03272507483D

 48 53  0  0  1  0  0  0  0  0999 V2000
   33.9140   29.1190   46.7800 N   0  0  0  0  0  0  0  0  0  0  0  0
   34.4200   28.6870   48.0340 C   0  0  0  0  0  0  0  0  0  0  0  0
   35.5570   29.4530   48.6090 C   0  0  0  0  0  0  0  0  0  0  0  0
   36.5630   29.9380   47.6660 C   0  0  1  0  0  0  0  0  0  0  0  0
   35.9700   30.3140   46.3000 C   0  0  0  0  0  0  0  0  0  0  0  0
   35.0360   29.1740   45.8720 C   0  0  0  0  0  0  0  0  0  0  0  0
   34.7670   27.6320   47.9120 H   0  0  0  0  0  0  0  0  0  0  0  0
   33.6280   28.6230   48.8140 H   0  0  0  0  0  0  0  0  0  0  0  0
   35.9610   28.9360   49.4760 H   0  0  0  0  0  0  0  0  0  0  0  0
   35.0250   30.3810   49.0090 H   0  0  0  0  0  0  0  0  0  0  0  0
   37.3290   29.1590   47.3940 H   0  0  0  0  0  0  0  0  0  0  0  0
   36.7710   30.3290   45.5480 H   0  0  0  0  0  0  0  0  0  0  0  0
   35.3780   31.2260   46.3440 H   0  0  0  0  0  0  0  0  0  0  0  0
   34.6320   29.4410   44.8750 H   0  0  0  0  0  0  0  0  0  0  0  0
   35.5800   28.2110   45.7860 H   0  0  0  0  0  0  0  0  0  0  0  0
   36.9730   31.6760   49.3430 C   0  0  0  0  0  0  0  0  0  0  0  0
   37.3020   31.1470   48.1100 C   0  0  0  0  0  0  0  0  0  0  0  0
   38.2460   31.6880   47.2780 C   0  0  0  0  0  0  0  0  0  0  0  0
   38.9060   32.8350   47.7040 C   0  0  0  0  0  0  0  0  0  0  0  0
   38.5770   33.3640   48.9330 C   0  0  0  0  0  0  0  0  0  0  0  0
   37.6230   32.8190   49.7770 C   0  0  0  0  0  0  0  0  0  0  0  0
   39.3490   34.5170   49.1790 O   0  0  0  0  0  0  0  0  0  0  0  0
   40.4000   34.4560   48.2240 C   0  0  0  0  0  0  0  0  0  0  0  0
   39.8990   33.6680   47.1740 O   0  0  0  0  0  0  0  0  0  0  0  0
   36.2650   31.3380   50.0860 H   0  0  0  0  0  0  0  0  0  0  0  0
   38.4800   31.2590   46.3340 H   0  0  0  0  0  0  0  0  0  0  0  0
   37.4150   33.2990   50.7480 H   0  0  0  0  0  0  0  0  0  0  0  0
   40.6590   35.4680   47.8510 H   0  0  0  0  0  0  0  0  0  0  0  0
   41.2860   33.9640   48.7080 H   0  0  0  0  0  0  0  0  0  0  0  0
   32.5810   29.4430   46.4310 C   0  0  0  0  0  0  0  0  0  0  0  0
   32.1700   30.5150   45.6540 C   0  0  0  0  0  0  0  0  0  0  0  0
   30.8040   30.6500   45.4400 C   0  0  0  0  0  0  0  0  0  0  0  0
   29.9430   29.7410   45.9950 N   0  0  0  0  0  0  0  0  0  0  0  0
   30.3800   28.7140   46.7450 C   0  0  0  0  0  0  0  0  0  0  0  0
   31.6600   28.6240   46.9180 N   0  0  0  0  0  0  0  0  0  0  0  0
   32.9420   31.1540   45.2790 H   0  0  0  0  0  0  0  0  0  0  0  0
   30.4780   31.4660   44.8470 H   0  0  0  0  0  0  0  0  0  0  0  0
   29.2740   27.8990   47.2170 C   0  0  0  0  0  0  0  0  0  0  0  0
   28.9160   26.7250   46.5860 C   0  0  0  0  0  0  0  0  0  0  0  0
   29.4380   26.3530   45.7100 H   0  0  0  0  0  0  0  0  0  0  0  0
   27.8800   25.9070   46.9810 C   0  0  0  0  0  3  0  0  0  0  0  0
   27.1210   26.2410   48.0750 C   0  0  0  0  0  3  0  0  0  0  0  0
   27.4290   27.3900   48.7370 C   0  0  0  0  0  0  0  0  0  0  0  0
   26.6610   27.7110   49.8340 C   0  0  0  0  0  3  0  0  0  0  0  0
   26.9080   28.8570   50.5640 C   0  0  0  0  0  3  0  0  0  0  0  0
   27.9590   29.6450   50.1270 C   0  0  0  0  0  3  0  0  0  0  0  0
   28.6980   29.2940   49.0350 C   0  0  0  0  0  3  0  0  0  0  0  0
   28.4760   28.1710   48.3000 C   0  0  0  0  0  0  0  0  0  0  0  0
  1  2  1  0  0  0  0
  2  3  1  0  0  0  0
  2  8  1  0  0  0  0
  3 10  1  0  0  0  0
  3  9  1  0  0  0  0
  4 11  1  6  0  0  0
  4 17  1  0  0  0  0
  4  3  1  0  0  0  0
  5 13  1  0  0  0  0
  5  4  1  0  0  0  0
  6  5  1  0  0  0  0
  6  1  1  0  0  0  0
  7  2  1  0  0  0  0
 12  5  1  0  0  0  0
 14  6  1  0  0  0  0
 15  6  1  0  0  0  0
 16 21  1  0  0  0  0
 16 25  1  0  0  0  0
 17 16  2  0  0  0  0
 18 19  2  0  0  0  0
 18 17  1  0  0  0  0
 19 20  1  0  0  0  0
 20 22  1  0  0  0  0
 20 21  2  0  0  0  0
 21 27  1  0  0  0  0
 23 29  1  0  0  0  0
 23 22  1  0  0  0  0
 24 19  1  0  0  0  0
 24 23  1  0  0  0  0
 26 18  1  0  0  0  0
 28 23  1  0  0  0  0
 30  1  1  0  0  0  0
 30 35  1  0  0  0  0
 31 30  2  0  0  0  0
 32 31  1  0  0  0  0
 32 33  2  0  0  0  0
 33 34  1  0  0  0  0
 34 35  2  0  0  0  0
 34 38  1  0  0  0  0
 36 31  1  0  0  0  0
 37 32  1  0  0  0  0
 38 48  1  0  0  0  0
 39 41  1  0  0  0  0
 39 38  2  0  0  0  0
 40 39  1  0  0  0  0
 41 42  2  0  0  0  0
 42 43  1  0  0  0  0
 43 44  1  0  0  0  0
 44 45  2  0  0  0  0
 46 45  1  0  0  0  0
 47 46  2  0  0  0  0
 48 43  2  0  0  0  0
 48 47  1  0  0  0  0
M  END
>  <minimizedAffinity>
-6.88091946

>  <minimizedRMSD>
1.83445811

$$$$
