
 OpenBabel03272510273D

 47 52  0  0  1  0  0  0  0  0999 V2000
   39.7000   31.8170   41.9140 N   0  0  0  0  0  0  0  0  0  0  0  0
   39.3380   33.2320   41.9990 C   0  0  1  0  0  0  0  0  0  0  0  0
   37.9640   33.4180   41.5560 C   0  0  0  0  0  0  0  0  0  0  0  0
   37.8630   33.0630   40.2010 O   0  0  0  0  0  0  0  0  0  0  0  0
   38.3140   31.7960   39.9010 C   0  0  0  0  0  0  0  0  0  0  0  0
   39.6870   31.5440   40.4920 C   0  0  2  0  0  0  0  0  0  0  0  0
   39.0150   31.1810   42.2990 H   0  0  0  0  0  0  0  0  0  0  0  0
   40.0400   33.7510   41.3190 H   0  0  0  0  0  0  0  0  0  0  0  0
   37.7660   34.5350   41.5430 H   0  0  0  0  0  0  0  0  0  0  0  0
   37.1110   32.9730   41.9940 H   0  0  0  0  0  0  0  0  0  0  0  0
   38.3690   31.7240   38.8110 H   0  0  0  0  0  0  0  0  0  0  0  0
   37.6210   31.0580   40.3610 H   0  0  0  0  0  0  0  0  0  0  0  0
   40.3820   32.3080   40.0820 H   0  0  0  0  0  0  0  0  0  0  0  0
   40.1070   30.1620   40.2810 C   0  0  0  0  0  0  0  0  0  0  0  0
   40.8480   29.6670   39.2430 C   0  0  0  0  0  0  0  0  0  0  0  0
   41.1910   30.3340   38.4650 H   0  0  0  0  0  0  0  0  0  0  0  0
   41.2290   28.3550   39.0590 C   0  0  0  0  0  0  0  0  0  0  0  0
   40.8440   27.4160   39.9920 C   0  0  0  0  0  0  0  0  0  0  0  0
   40.0950   27.8520   41.0650 C   0  0  0  0  0  0  0  0  0  0  0  0
   39.7390   26.8760   41.9690 C   0  0  0  0  0  0  0  0  0  0  0  0
   38.9910   27.2170   43.0770 C   0  0  0  0  0  0  0  0  0  0  0  0
   38.6130   28.5330   43.2570 C   0  0  0  0  0  0  0  0  0  0  0  0
   38.9970   29.4470   42.3250 C   0  0  0  0  0  0  0  0  0  0  0  0
   39.7420   29.1960   41.1930 C   0  0  0  0  0  0  0  0  0  0  0  0
   39.4900   33.6000   43.3600 O   0  0  0  0  0  0  0  0  0  0  0  0
   36.2130   30.2350   46.9300 C   0  0  0  0  0  0  0  0  0  0  0  0
   37.0680   30.7550   47.8840 C   0  0  0  0  0  0  0  0  0  0  0  0
   38.0860   31.6530   47.5310 C   0  0  0  0  0  0  0  0  0  0  0  0
   38.1670   31.9730   46.1810 C   0  0  0  0  0  0  0  0  0  0  0  0
   39.0680   32.8260   45.5930 N   0  0  0  0  0  0  0  0  0  0  0  0
   38.7740   32.8340   44.2810 C   0  0  0  0  0  0  0  0  0  0  0  0
   37.7540   32.0400   44.0510 N   0  0  0  0  0  0  0  0  0  0  0  0
   37.3410   31.4830   45.2010 C   0  0  0  0  0  0  0  0  0  0  0  0
   36.3370   30.5860   45.5930 C   0  0  0  0  0  0  0  0  0  0  0  0
   35.4170   29.5420   47.1530 H   0  0  0  0  0  0  0  0  0  0  0  0
   38.7590   32.0640   48.2660 H   0  0  0  0  0  0  0  0  0  0  0  0
   39.8300   33.3560   46.0900 H   0  0  0  0  0  0  0  0  0  0  0  0
   35.6830   30.1960   44.8240 H   0  0  0  0  0  0  0  0  0  0  0  0
   37.4610   30.1320   51.5750 C   0  0  0  0  0  0  0  0  0  0  0  0
   37.7720   30.5800   50.2940 C   0  0  0  0  0  0  0  0  0  0  0  0
   36.8930   30.3540   49.2660 C   0  0  0  0  0  0  0  0  0  0  0  0
   35.7270   29.6830   49.5700 N   0  0  0  0  0  0  0  0  0  0  0  0
   35.4340   29.2540   50.8140 C   0  0  0  0  0  0  0  0  0  0  0  0
   36.2890   29.4770   51.7940 N   0  0  0  0  0  0  0  0  0  0  0  0
   38.1770   30.3280   52.3600 H   0  0  0  0  0  0  0  0  0  0  0  0
   38.6770   31.1000   50.0600 H   0  0  0  0  0  0  0  0  0  0  0  0
   34.4880   28.7340   50.9500 H   0  0  0  0  0  0  0  0  0  0  0  0
  1  2  1  0  0  0  0
  1  7  1  0  0  0  0
  2  8  1  6  0  0  0
  2 25  1  0  0  0  0
  3 10  1  0  0  0  0
  3  2  1  0  0  0  0
  4  3  1  0  0  0  0
  5  4  1  0  0  0  0
  5 12  1  0  0  0  0
  5  6  1  0  0  0  0
  6 13  1  6  0  0  0
  6  1  1  0  0  0  0
  9  3  1  0  0  0  0
 11  5  1  0  0  0  0
 14  6  1  0  0  0  0
 14 24  1  0  0  0  0
 15 14  2  0  0  0  0
 16 15  1  0  0  0  0
 17 15  1  0  0  0  0
 17 18  2  0  0  0  0
 18 19  1  0  0  0  0
 19 24  2  0  0  0  0
 19 20  1  0  0  0  0
 20 21  2  0  0  0  0
 21 22  1  0  0  0  0
 23 22  2  0  0  0  0
 24 23  1  0  0  0  0
 25 31  1  0  0  0  0
 26 35  1  0  0  0  0
 26 27  1  0  0  0  0
 27 41  1  0  0  0  0
 28 27  2  0  0  0  0
 28 36  1  0  0  0  0
 29 28  1  0  0  0  0
 30 37  1  0  0  0  0
 30 29  1  0  0  0  0
 31 30  1  0  0  0  0
 32 31  2  0  0  0  0
 32 33  1  0  0  0  0
 33 34  1  0  0  0  0
 33 29  2  0  0  0  0
 34 26  2  0  0  0  0
 38 34  1  0  0  0  0
 39 44  1  0  0  0  0
 39 45  1  0  0  0  0
 40 39  2  0  0  0  0
 41 42  2  0  0  0  0
 41 40  1  0  0  0  0
 42 43  1  0  0  0  0
 43 47  1  0  0  0  0
 43 44  2  0  0  0  0
 46 40  1  0  0  0  0
M  END
>  <minimizedAffinity>
-6.79295397

>  <minimizedRMSD>
0.45655939

$$$$
