
 OpenBabel03272509543D

 45 49  0  0  0  0  0  0  0  0999 V2000
   34.4490   28.6220   48.1330 C   0  0  0  0  0  0  0  0  0  0  0  0
   35.2280   28.8840   47.3990 H   0  0  0  0  0  0  0  0  0  0  0  0
   33.8180   29.5300   48.2760 H   0  0  0  0  0  0  0  0  0  0  0  0
   33.5470   27.5190   47.6920 C   0  0  0  0  0  0  0  0  0  0  0  0
   33.7280   27.3330   46.6110 H   0  0  0  0  0  0  0  0  0  0  0  0
   33.7370   26.5560   48.2050 H   0  0  0  0  0  0  0  0  0  0  0  0
   32.1020   27.8700   47.8080 C   0  0  0  0  0  0  0  0  0  0  0  0
   31.4050   27.4720   48.9240 C   0  0  0  0  0  0  0  0  0  0  0  0
   30.0870   27.7570   49.0710 C   0  0  0  0  0  0  0  0  0  0  0  0
   29.4540   28.4250   48.1350 N   0  0  0  0  0  0  0  0  0  0  0  0
   30.1110   28.8340   47.0220 C   0  0  0  0  0  0  0  0  0  0  0  0
   31.4290   28.5500   46.8730 N   0  0  0  0  0  0  0  0  0  0  0  0
   31.9370   26.9250   49.6810 H   0  0  0  0  0  0  0  0  0  0  0  0
   29.5010   27.4610   49.9320 H   0  0  0  0  0  0  0  0  0  0  0  0
   29.6250   29.5870   45.8500 C   0  0  0  0  0  0  0  0  0  0  0  0
   30.3040   30.6350   45.2630 C   0  0  0  0  0  0  0  0  0  0  0  0
   31.2730   30.9310   45.6960 H   0  0  0  0  0  0  0  0  0  0  0  0
   29.8610   31.3380   44.1770 C   0  0  0  0  0  3  0  0  0  0  0  0
   28.6610   31.0180   43.5930 C   0  0  0  0  0  3  0  0  0  0  0  0
   27.9380   29.9820   44.1310 C   0  0  0  0  0  0  0  0  0  0  0  0
   26.7440   29.7070   43.5050 C   0  0  0  0  0  3  0  0  0  0  0  0
   25.9520   28.6830   43.9770 C   0  0  0  0  0  3  0  0  0  0  0  0
   26.4180   27.9750   45.0860 C   0  0  0  0  0  3  0  0  0  0  0  0
   27.6200   28.3100   45.6580 C   0  0  0  0  0  3  0  0  0  0  0  0
   28.4340   29.3230   45.2120 C   0  0  0  0  0  0  0  0  0  0  0  0
   34.9900   28.3450   49.4310 O   0  0  0  0  0  0  0  0  0  0  0  0
   37.3100   30.1670   51.4960 C   0  0  0  0  0  0  0  0  0  0  0  0
   38.0570   30.8530   50.4960 C   0  0  0  0  0  0  0  0  0  0  0  0
   37.6950   30.6310   49.1840 C   0  0  0  0  0  0  0  0  0  0  0  0
   36.6560   29.7710   48.9590 N   0  0  0  0  0  0  0  0  0  0  0  0
   35.9770   29.1440   49.9160 C   0  0  0  0  0  0  0  0  0  0  0  0
   36.3130   29.3480   51.2010 N   0  0  0  0  0  0  0  0  0  0  0  0
   37.6190   30.3630   52.5270 H   0  0  0  0  0  0  0  0  0  0  0  0
   38.8700   31.5250   50.6860 H   0  0  0  0  0  0  0  0  0  0  0  0
   38.9560   33.2260   48.9850 F   0  0  0  0  0  0  0  0  0  0  0  0
   38.9190   32.4390   47.9080 C   0  0  0  0  0  0  0  0  0  0  0  0
   38.3290   31.2340   48.0260 C   0  0  0  0  0  0  0  0  0  0  0  0
   38.3480   30.4960   46.8360 C   0  0  0  0  0  0  0  0  0  0  0  0
   38.9110   30.9550   45.6710 C   0  0  0  0  0  0  0  0  0  0  0  0
   39.4970   32.1860   45.6100 C   0  0  0  0  0  0  0  0  0  0  0  0
   39.4980   32.9470   46.7630 C   0  0  0  0  0  0  0  0  0  0  0  0
   37.9090   29.4980   46.7720 H   0  0  0  0  0  0  0  0  0  0  0  0
   38.9110   30.3600   44.7660 H   0  0  0  0  0  0  0  0  0  0  0  0
   39.9400   32.5620   44.7140 H   0  0  0  0  0  0  0  0  0  0  0  0
   39.9520   33.9220   46.7470 H   0  0  0  0  0  0  0  0  0  0  0  0
  1  3  1  0  0  0  0
  1 26  1  0  0  0  0
  2  1  1  0  0  0  0
  4  7  1  0  0  0  0
  4  1  1  0  0  0  0
  4  6  1  0  0  0  0
  5  4  1  0  0  0  0
  7  8  1  0  0  0  0
  8  9  2  0  0  0  0
  8 13  1  0  0  0  0
  9 14  1  0  0  0  0
 10  9  1  0  0  0  0
 11 10  2  0  0  0  0
 12 11  1  0  0  0  0
 12  7  2  0  0  0  0
 15 11  1  0  0  0  0
 16 17  1  0  0  0  0
 16 15  1  0  0  0  0
 18 16  2  0  0  0  0
 19 20  2  0  0  0  0
 19 18  1  0  0  0  0
 20 25  1  0  0  0  0
 21 22  2  0  0  0  0
 21 20  1  0  0  0  0
 22 23  1  0  0  0  0
 23 24  2  0  0  0  0
 25 24  1  0  0  0  0
 25 15  2  0  0  0  0
 26 31  1  0  0  0  0
 27 33  1  0  0  0  0
 28 34  1  0  0  0  0
 28 27  2  0  0  0  0
 29 28  1  0  0  0  0
 30 29  2  0  0  0  0
 30 31  1  0  0  0  0
 31 32  2  0  0  0  0
 32 27  1  0  0  0  0
 36 37  1  0  0  0  0
 36 35  1  0  0  0  0
 37 29  1  0  0  0  0
 38 37  2  0  0  0  0
 39 38  1  0  0  0  0
 40 39  2  0  0  0  0
 40 41  1  0  0  0  0
 41 36  2  0  0  0  0
 42 38  1  0  0  0  0
 43 39  1  0  0  0  0
 44 40  1  0  0  0  0
 45 41  1  0  0  0  0
M  END
>  <minimizedAffinity>
-7.15500689

>  <minimizedRMSD>
0.259571254

$$$$
