
 OpenBabel03272502193D

 35 38  0  0  1  0  0  0  0  0999 V2000
   37.7030   25.5210   32.8340 C   0  0  0  0  0  0  0  0  0  0  0  0
   37.1600   24.6710   31.8770 C   0  0  0  0  0  0  0  0  0  0  0  0
   37.0390   23.3360   32.2310 C   0  0  0  0  0  0  0  0  0  0  0  0
   37.4510   22.9460   33.4680 N   0  0  0  0  0  0  0  0  0  0  0  0
   37.9630   23.7580   34.3700 C   0  0  0  0  0  0  0  0  0  0  0  0
   38.0660   25.0280   34.0020 N   0  0  0  0  0  0  0  0  0  0  0  0
   36.8100   24.8950   30.8790 H   0  0  0  0  0  0  0  0  0  0  0  0
   36.6330   22.6020   31.5640 H   0  0  0  0  0  0  0  0  0  0  0  0
   38.4480   23.5200   35.7150 C   0  0  0  0  0  0  0  0  0  0  0  0
   37.7600   23.9490   36.8310 C   0  0  0  0  0  0  0  0  0  0  0  0
   36.8190   24.4870   36.7330 H   0  0  0  0  0  0  0  0  0  0  0  0
   38.1660   23.7530   38.1300 C   0  0  0  0  0  3  0  0  0  0  0  0
   39.3420   23.0840   38.3810 C   0  0  0  0  0  3  0  0  0  0  0  0
   40.0740   22.6300   37.3120 C   0  0  0  0  0  0  0  0  0  0  0  0
   41.2470   21.9610   37.5910 C   0  0  0  0  0  3  0  0  0  0  0  0
   42.0310   21.4770   36.5650 C   0  0  0  0  0  3  0  0  0  0  0  0
   41.5800   21.6990   35.2590 C   0  0  0  0  0  3  0  0  0  0  0  0
   40.4050   22.3700   35.0440 C   0  0  0  0  0  3  0  0  0  0  0  0
   39.6080   22.8610   36.0450 C   0  0  0  0  0  0  0  0  0  0  0  0
   37.8470   27.2290   32.3270 S   0  0  0  0  0  0  0  0  0  0  0  0
   36.4270   27.6630   30.0710 N   0  0  0  0  0  0  0  0  0  0  0  0
   36.2880   27.7730   31.5010 C   0  0  2  0  0  0  0  0  0  0  0  0
   36.0520   29.2340   31.8470 C   0  0  0  0  0  0  0  0  0  0  0  0
   35.6380   29.9470   30.7030 O   0  0  0  0  0  0  0  0  0  0  0  0
   36.7900   30.0080   29.8850 C   0  0  0  0  0  0  0  0  0  0  0  0
   37.3800   28.6500   29.6270 C   0  0  2  0  0  0  0  0  0  0  0  0
   36.7250   26.7150   29.7640 H   0  0  0  0  0  0  0  0  0  0  0  0
   35.4450   27.1320   31.8110 H   0  0  0  0  0  0  0  0  0  0  0  0
   37.0470   29.6670   32.1000 H   0  0  0  0  0  0  0  0  0  0  0  0
   35.3250   29.3530   32.6700 H   0  0  0  0  0  0  0  0  0  0  0  0
   36.4480   30.4380   28.9200 H   0  0  0  0  0  0  0  0  0  0  0  0
   37.5230   30.7130   30.3180 H   0  0  0  0  0  0  0  0  0  0  0  0
   38.3520   28.5990   30.1820 H   0  0  0  0  0  0  0  0  0  0  0  0
   37.5870   28.4680   28.2420 O   0  0  0  0  0  0  0  0  0  0  0  0
   37.5160   27.4980   28.0350 H   0  0  0  0  0  0  0  0  0  0  0  0
  1  6  1  0  0  0  0
  2  3  1  0  0  0  0
  2  1  2  0  0  0  0
  3  4  2  0  0  0  0
  4  5  1  0  0  0  0
  5  9  1  0  0  0  0
  6  5  2  0  0  0  0
  7  2  1  0  0  0  0
  8  3  1  0  0  0  0
  9 19  2  0  0  0  0
  9 10  1  0  0  0  0
 10 12  2  0  0  0  0
 11 10  1  0  0  0  0
 12 13  1  0  0  0  0
 14 15  1  0  0  0  0
 14 13  2  0  0  0  0
 16 15  2  0  0  0  0
 17 16  1  0  0  0  0
 18 17  2  0  0  0  0
 18 19  1  0  0  0  0
 19 14  1  0  0  0  0
 20  1  1  0  0  0  0
 21 22  1  0  0  0  0
 22 28  1  1  0  0  0
 22 23  1  0  0  0  0
 22 20  1  0  0  0  0
 23 29  1  0  0  0  0
 23 30  1  0  0  0  0
 24 23  1  0  0  0  0
 25 32  1  0  0  0  0
 25 24  1  0  0  0  0
 26 25  1  0  0  0  0
 26 21  1  0  0  0  0
 26 33  1  1  0  0  0
 27 21  1  0  0  0  0
 31 25  1  0  0  0  0
 34 26  1  0  0  0  0
 35 34  1  0  0  0  0
M  END
>  <minimizedAffinity>
-6.5466423

$$$$

 OpenBabel03272502193D

 35 38  0  0  1  0  0  0  0  0999 V2000
   36.5900   28.8150   32.2130 C   0  0  0  0  0  0  0  0  0  0  0  0
   36.2680   29.2500   30.9320 C   0  0  0  0  0  0  0  0  0  0  0  0
   35.4520   30.3680   30.8440 C   0  0  0  0  0  0  0  0  0  0  0  0
   35.0250   30.9590   31.9930 N   0  0  0  0  0  0  0  0  0  0  0  0
   35.3350   30.5410   33.2030 C   0  0  0  0  0  0  0  0  0  0  0  0
   36.1170   29.4700   33.2540 N   0  0  0  0  0  0  0  0  0  0  0  0
   36.5610   28.8430   29.9740 H   0  0  0  0  0  0  0  0  0  0  0  0
   35.1470   30.7810   29.9040 H   0  0  0  0  0  0  0  0  0  0  0  0
   34.9750   31.0390   34.5160 C   0  0  0  0  0  0  0  0  0  0  0  0
   35.7460   31.9650   35.1870 C   0  0  0  0  0  0  0  0  0  0  0  0
   36.6610   32.3540   34.7450 H   0  0  0  0  0  0  0  0  0  0  0  0
   35.4580   32.4760   36.4310 C   0  0  0  0  0  3  0  0  0  0  0  0
   34.3250   32.0600   37.0910 C   0  0  0  0  0  3  0  0  0  0  0  0
   33.5130   31.1390   36.4750 C   0  0  0  0  0  0  0  0  0  0  0  0
   32.3830   30.7390   37.1570 C   0  0  0  0  0  3  0  0  0  0  0  0
   31.5240   29.8170   36.5970 C   0  0  0  0  0  3  0  0  0  0  0  0
   31.8560   29.3240   35.3300 C   0  0  0  0  0  3  0  0  0  0  0  0
   32.9930   29.7590   34.7010 C   0  0  0  0  0  3  0  0  0  0  0  0
   33.8630   30.6730   35.2360 C   0  0  0  0  0  0  0  0  0  0  0  0
   37.6350   27.3660   32.2740 S   0  0  0  0  0  0  0  0  0  0  0  0
   37.1780   26.8830   34.8910 N   0  0  0  0  0  0  0  0  0  0  0  0
   37.0600   26.2320   33.6110 C   0  0  2  0  0  0  0  0  0  0  0  0
   37.9600   25.0070   33.6150 C   0  0  0  0  0  0  0  0  0  0  0  0
   38.2970   24.6520   34.9380 O   0  0  0  0  0  0  0  0  0  0  0  0
   39.1720   25.6750   35.3690 C   0  0  0  0  0  0  0  0  0  0  0  0
   38.5780   27.0450   35.1960 C   0  0  2  0  0  0  0  0  0  0  0  0
   36.6970   27.8050   34.9230 H   0  0  0  0  0  0  0  0  0  0  0  0
   35.9990   25.9670   33.4610 H   0  0  0  0  0  0  0  0  0  0  0  0
   38.9260   25.3190   33.1560 H   0  0  0  0  0  0  0  0  0  0  0  0
   37.5020   24.1540   33.0830 H   0  0  0  0  0  0  0  0  0  0  0  0
   39.3340   25.4910   36.4520 H   0  0  0  0  0  0  0  0  0  0  0  0
   40.1510   25.5710   34.8680 H   0  0  0  0  0  0  0  0  0  0  0  0
   39.1480   27.5520   34.3740 H   0  0  0  0  0  0  0  0  0  0  0  0
   38.6850   27.7740   36.4000 O   0  0  0  0  0  0  0  0  0  0  0  0
   37.9330   28.4250   36.4440 H   0  0  0  0  0  0  0  0  0  0  0  0
  1 20  1  0  0  0  0
  1  6  1  0  0  0  0
  2  1  2  0  0  0  0
  3  2  1  0  0  0  0
  3  4  2  0  0  0  0
  4  5  1  0  0  0  0
  5  6  2  0  0  0  0
  5  9  1  0  0  0  0
  7  2  1  0  0  0  0
  8  3  1  0  0  0  0
  9 10  2  0  0  0  0
  9 19  1  0  0  0  0
 10 12  1  0  0  0  0
 11 10  1  0  0  0  0
 12 13  2  0  0  0  0
 14 13  1  0  0  0  0
 14 15  1  0  0  0  0
 16 15  2  0  0  0  0
 17 16  1  0  0  0  0
 18 19  1  0  0  0  0
 18 17  2  0  0  0  0
 19 14  2  0  0  0  0
 20 22  1  0  0  0  0
 21 27  1  0  0  0  0
 21 26  1  0  0  0  0
 22 28  1  6  0  0  0
 22 23  1  0  0  0  0
 22 21  1  0  0  0  0
 23 24  1  0  0  0  0
 24 25  1  0  0  0  0
 25 31  1  0  0  0  0
 26 33  1  6  0  0  0
 26 25  1  0  0  0  0
 26 34  1  0  0  0  0
 29 23  1  0  0  0  0
 30 23  1  0  0  0  0
 32 25  1  0  0  0  0
 34 35  1  0  0  0  0
M  END
>  <minimizedAffinity>
-6.40793896

$$$$

 OpenBabel03272502193D

 35 38  0  0  1  0  0  0  0  0999 V2000
   36.8490   28.3520   31.9360 C   0  0  0  0  0  0  0  0  0  0  0  0
   37.0800   29.0660   30.7660 C   0  0  0  0  0  0  0  0  0  0  0  0
   36.2570   30.1580   30.5330 C   0  0  0  0  0  0  0  0  0  0  0  0
   35.2930   30.4580   31.4450 N   0  0  0  0  0  0  0  0  0  0  0  0
   35.0810   29.7760   32.5520 C   0  0  0  0  0  0  0  0  0  0  0  0
   35.8840   28.7390   32.7470 N   0  0  0  0  0  0  0  0  0  0  0  0
   37.8170   28.8990   29.9930 H   0  0  0  0  0  0  0  0  0  0  0  0
   36.3540   30.7720   29.6600 H   0  0  0  0  0  0  0  0  0  0  0  0
   34.1140   29.9500   33.6190 C   0  0  0  0  0  0  0  0  0  0  0  0
   32.8720   29.3530   33.5870 C   0  0  0  0  0  0  0  0  0  0  0  0
   32.5750   28.7250   32.7490 H   0  0  0  0  0  0  0  0  0  0  0  0
   31.9130   29.4770   34.5660 C   0  0  0  0  0  3  0  0  0  0  0  0
   32.1730   30.2460   35.6770 C   0  0  0  0  0  3  0  0  0  0  0  0
   33.3940   30.8680   35.7690 C   0  0  0  0  0  0  0  0  0  0  0  0
   33.6290   31.6310   36.8930 C   0  0  0  0  0  3  0  0  0  0  0  0
   34.8340   32.2820   37.0500 C   0  0  0  0  0  3  0  0  0  0  0  0
   35.7800   32.1270   36.0300 C   0  0  0  0  0  3  0  0  0  0  0  0
   35.4890   31.3550   34.9370 C   0  0  0  0  0  3  0  0  0  0  0  0
   34.3000   30.6980   34.7560 C   0  0  0  0  0  0  0  0  0  0  0  0
   37.9280   26.9500   32.1860 S   0  0  0  0  0  0  0  0  0  0  0  0
   37.3170   26.6540   34.8000 N   0  0  0  0  0  0  0  0  0  0  0  0
   37.2920   25.9050   33.5690 C   0  0  2  0  0  0  0  0  0  0  0  0
   38.2130   24.7060   33.7210 C   0  0  0  0  0  0  0  0  0  0  0  0
   38.4740   24.4600   35.0850 O   0  0  0  0  0  0  0  0  0  0  0  0
   39.2990   25.5330   35.4900 C   0  0  0  0  0  0  0  0  0  0  0  0
   38.6910   26.8710   35.1760 C   0  0  2  0  0  0  0  0  0  0  0  0
   36.8160   27.5640   34.7320 H   0  0  0  0  0  0  0  0  0  0  0  0
   36.2480   25.6040   33.3750 H   0  0  0  0  0  0  0  0  0  0  0  0
   39.2000   25.0060   33.3000 H   0  0  0  0  0  0  0  0  0  0  0  0
   37.8060   23.8050   33.2290 H   0  0  0  0  0  0  0  0  0  0  0  0
   39.3970   25.4350   36.5920 H   0  0  0  0  0  0  0  0  0  0  0  0
   40.3100   25.4150   35.0590 H   0  0  0  0  0  0  0  0  0  0  0  0
   39.3020   27.3290   34.3550 H   0  0  0  0  0  0  0  0  0  0  0  0
   38.7080   27.6910   36.3250 O   0  0  0  0  0  0  0  0  0  0  0  0
   37.9430   28.3260   36.2740 H   0  0  0  0  0  0  0  0  0  0  0  0
  1 20  1  0  0  0  0
  1  6  1  0  0  0  0
  2  1  2  0  0  0  0
  3  2  1  0  0  0  0
  3  4  2  0  0  0  0
  4  5  1  0  0  0  0
  5  6  2  0  0  0  0
  5  9  1  0  0  0  0
  7  2  1  0  0  0  0
  8  3  1  0  0  0  0
  9 19  1  0  0  0  0
 10  9  2  0  0  0  0
 10 12  1  0  0  0  0
 11 10  1  0  0  0  0
 12 13  2  0  0  0  0
 13 14  1  0  0  0  0
 14 15  1  0  0  0  0
 15 16  2  0  0  0  0
 17 16  1  0  0  0  0
 18 17  2  0  0  0  0
 19 18  1  0  0  0  0
 19 14  2  0  0  0  0
 20 22  1  0  0  0  0
 21 26  1  0  0  0  0
 22 28  1  6  0  0  0
 22 23  1  0  0  0  0
 22 21  1  0  0  0  0
 23 24  1  0  0  0  0
 24 25  1  0  0  0  0
 25 31  1  0  0  0  0
 26 33  1  6  0  0  0
 26 25  1  0  0  0  0
 26 34  1  0  0  0  0
 27 21  1  0  0  0  0
 29 23  1  0  0  0  0
 30 23  1  0  0  0  0
 32 25  1  0  0  0  0
 35 34  1  0  0  0  0
M  END
>  <minimizedAffinity>
-6.39970303

$$$$

 OpenBabel03272502193D

 35 38  0  0  1  0  0  0  0  0999 V2000
   37.8850   25.2810   33.8620 C   0  0  0  0  0  0  0  0  0  0  0  0
   37.5770   24.2100   33.0300 C   0  0  0  0  0  0  0  0  0  0  0  0
   36.8500   24.5020   31.8860 C   0  0  0  0  0  0  0  0  0  0  0  0
   36.4890   25.7930   31.6510 N   0  0  0  0  0  0  0  0  0  0  0  0
   36.7860   26.8020   32.4440 C   0  0  0  0  0  0  0  0  0  0  0  0
   37.4810   26.4910   33.5290 N   0  0  0  0  0  0  0  0  0  0  0  0
   37.8210   23.1620   33.1400 H   0  0  0  0  0  0  0  0  0  0  0  0
   36.5630   23.7470   31.1820 H   0  0  0  0  0  0  0  0  0  0  0  0
   36.4870   28.2180   32.3520 C   0  0  0  0  0  0  0  0  0  0  0  0
   35.9070   28.9150   33.3910 C   0  0  0  0  0  0  0  0  0  0  0  0
   35.6520   28.4160   34.3240 H   0  0  0  0  0  0  0  0  0  0  0  0
   35.6000   30.2560   33.3660 C   0  0  0  0  0  3  0  0  0  0  0  0
   35.8750   30.9940   32.2380 C   0  0  0  0  0  3  0  0  0  0  0  0
   36.4540   30.3590   31.1670 C   0  0  0  0  0  0  0  0  0  0  0  0
   36.7210   31.1220   30.0510 C   0  0  0  0  0  3  0  0  0  0  0  0
   37.3020   30.5480   28.9400 C   0  0  0  0  0  3  0  0  0  0  0  0
   37.5970   29.1810   29.0100 C   0  0  0  0  0  3  0  0  0  0  0  0
   37.3090   28.4750   30.1470 C   0  0  0  0  0  3  0  0  0  0  0  0
   36.7320   29.0210   31.2640 C   0  0  0  0  0  0  0  0  0  0  0  0
   38.8140   24.8520   35.3260 S   0  0  0  0  0  0  0  0  0  0  0  0
   38.5030   22.5130   36.6410 N   0  0  0  0  0  0  0  0  0  0  0  0
   39.0500   23.0230   35.4090 C   0  0  2  0  0  0  0  0  0  0  0  0
   40.5420   22.7350   35.3930 C   0  0  0  0  0  0  0  0  0  0  0  0
   40.8570   21.7360   36.3370 O   0  0  0  0  0  0  0  0  0  0  0  0
   40.6800   22.3640   37.5920 C   0  0  0  0  0  0  0  0  0  0  0  0
   39.3190   22.9850   37.7330 C   0  0  2  0  0  0  0  0  0  0  0  0
   37.5110   22.7890   36.7900 H   0  0  0  0  0  0  0  0  0  0  0  0
   38.5230   22.5300   34.5730 H   0  0  0  0  0  0  0  0  0  0  0  0
   41.0480   23.6500   35.7760 H   0  0  0  0  0  0  0  0  0  0  0  0
   40.8990   22.4520   34.3860 H   0  0  0  0  0  0  0  0  0  0  0  0
   40.7840   21.5560   38.3460 H   0  0  0  0  0  0  0  0  0  0  0  0
   41.4970   23.0870   37.7700 H   0  0  0  0  0  0  0  0  0  0  0  0
   39.4580   24.0970   37.7250 H   0  0  0  0  0  0  0  0  0  0  0  0
   38.7190   22.5670   38.9400 O   0  0  0  0  0  0  0  0  0  0  0  0
   37.7310   22.5690   38.8230 H   0  0  0  0  0  0  0  0  0  0  0  0
  1 20  1  0  0  0  0
  2  7  1  0  0  0  0
  2  1  2  0  0  0  0
  3  2  1  0  0  0  0
  4  3  2  0  0  0  0
  4  5  1  0  0  0  0
  5  6  2  0  0  0  0
  6  1  1  0  0  0  0
  8  3  1  0  0  0  0
  9  5  1  0  0  0  0
  9 10  1  0  0  0  0
 10 11  1  0  0  0  0
 12 10  2  0  0  0  0
 13 12  1  0  0  0  0
 14 19  1  0  0  0  0
 14 13  2  0  0  0  0
 15 14  1  0  0  0  0
 16 17  1  0  0  0  0
 16 15  2  0  0  0  0
 17 18  2  0  0  0  0
 18 19  1  0  0  0  0
 19  9  2  0  0  0  0
 20 22  1  0  0  0  0
 21 27  1  0  0  0  0
 21 26  1  0  0  0  0
 22 28  1  6  0  0  0
 22 21  1  0  0  0  0
 23 22  1  0  0  0  0
 23 29  1  0  0  0  0
 23 24  1  0  0  0  0
 24 25  1  0  0  0  0
 25 26  1  0  0  0  0
 25 32  1  0  0  0  0
 25 31  1  0  0  0  0
 26 33  1  6  0  0  0
 26 34  1  0  0  0  0
 30 23  1  0  0  0  0
 35 34  1  0  0  0  0
M  END
>  <minimizedAffinity>
-6.3577652

$$$$

 OpenBabel03272502193D

 35 38  0  0  1  0  0  0  0  0999 V2000
   37.7870   25.3870   32.3290 C   0  0  0  0  0  0  0  0  0  0  0  0
   36.7620   24.7420   31.6460 C   0  0  0  0  0  0  0  0  0  0  0  0
   36.5540   23.4060   31.9560 C   0  0  0  0  0  0  0  0  0  0  0  0
   37.3500   22.8190   32.8900 N   0  0  0  0  0  0  0  0  0  0  0  0
   38.3190   23.4380   33.5340 C   0  0  0  0  0  0  0  0  0  0  0  0
   38.4930   24.7130   33.2160 N   0  0  0  0  0  0  0  0  0  0  0  0
   36.0870   25.1290   30.8940 H   0  0  0  0  0  0  0  0  0  0  0  0
   35.7900   22.8220   31.4840 H   0  0  0  0  0  0  0  0  0  0  0  0
   39.2520   22.9760   34.5430 C   0  0  0  0  0  0  0  0  0  0  0  0
   40.4160   22.3110   34.2180 C   0  0  0  0  0  0  0  0  0  0  0  0
   40.6730   22.1100   33.1800 H   0  0  0  0  0  0  0  0  0  0  0  0
   41.3400   21.8490   35.1280 C   0  0  0  0  0  3  0  0  0  0  0  0
   41.1240   22.0450   36.4720 C   0  0  0  0  0  3  0  0  0  0  0  0
   39.9830   22.7020   36.8620 C   0  0  0  0  0  0  0  0  0  0  0  0
   39.7930   22.8850   38.2150 C   0  0  0  0  0  3  0  0  0  0  0  0
   38.6690   23.5370   38.6760 C   0  0  0  0  0  3  0  0  0  0  0  0
   37.7560   23.9900   37.7160 C   0  0  0  0  0  3  0  0  0  0  0  0
   38.0000   23.7780   36.3840 C   0  0  0  0  0  3  0  0  0  0  0  0
   39.1080   23.1330   35.9010 C   0  0  0  0  0  0  0  0  0  0  0  0
   38.0210   27.1020   31.8880 S   0  0  0  0  0  0  0  0  0  0  0  0
   36.6040   27.7390   29.6790 N   0  0  0  0  0  0  0  0  0  0  0  0
   36.4830   27.7680   31.1140 C   0  0  2  0  0  0  0  0  0  0  0  0
   36.3190   29.2150   31.5500 C   0  0  0  0  0  0  0  0  0  0  0  0
   35.9290   30.0150   30.4560 O   0  0  0  0  0  0  0  0  0  0  0  0
   37.0760   30.0720   29.6310 C   0  0  0  0  0  0  0  0  0  0  0  0
   37.5980   28.7060   29.2840 C   0  0  2  0  0  0  0  0  0  0  0  0
   36.8540   26.7990   29.3110 H   0  0  0  0  0  0  0  0  0  0  0  0
   35.6130   27.1490   31.3950 H   0  0  0  0  0  0  0  0  0  0  0  0
   37.3360   29.5850   31.8170 H   0  0  0  0  0  0  0  0  0  0  0  0
   35.6050   29.3170   32.3870 H   0  0  0  0  0  0  0  0  0  0  0  0
   36.7460   30.5750   28.6980 H   0  0  0  0  0  0  0  0  0  0  0  0
   37.8450   30.7140   30.0970 H   0  0  0  0  0  0  0  0  0  0  0  0
   38.5720   28.5760   29.8230 H   0  0  0  0  0  0  0  0  0  0  0  0
   37.7840   28.6000   27.8890 O   0  0  0  0  0  0  0  0  0  0  0  0
   37.6660   27.6480   27.6240 H   0  0  0  0  0  0  0  0  0  0  0  0
  1  6  1  0  0  0  0
  2  3  1  0  0  0  0
  2  1  2  0  0  0  0
  3  4  2  0  0  0  0
  4  5  1  0  0  0  0
  5  9  1  0  0  0  0
  6  5  2  0  0  0  0
  7  2  1  0  0  0  0
  8  3  1  0  0  0  0
  9 19  1  0  0  0  0
 10  9  2  0  0  0  0
 10 12  1  0  0  0  0
 11 10  1  0  0  0  0
 12 13  2  0  0  0  0
 13 14  1  0  0  0  0
 14 15  1  0  0  0  0
 15 16  2  0  0  0  0
 17 16  1  0  0  0  0
 18 17  2  0  0  0  0
 19 18  1  0  0  0  0
 19 14  2  0  0  0  0
 20  1  1  0  0  0  0
 21 22  1  0  0  0  0
 22 28  1  1  0  0  0
 22 23  1  0  0  0  0
 22 20  1  0  0  0  0
 23 29  1  0  0  0  0
 23 30  1  0  0  0  0
 24 23  1  0  0  0  0
 25 32  1  0  0  0  0
 25 24  1  0  0  0  0
 26 25  1  0  0  0  0
 26 21  1  0  0  0  0
 26 33  1  1  0  0  0
 27 21  1  0  0  0  0
 31 25  1  0  0  0  0
 34 26  1  0  0  0  0
 35 34  1  0  0  0  0
M  END
>  <minimizedAffinity>
-6.30538273

$$$$

 OpenBabel03272502193D

 35 38  0  0  1  0  0  0  0  0999 V2000
   37.0640   27.8730   32.2270 C   0  0  0  0  0  0  0  0  0  0  0  0
   37.5470   28.5640   31.1220 C   0  0  0  0  0  0  0  0  0  0  0  0
   36.8980   29.7460   30.7970 C   0  0  0  0  0  0  0  0  0  0  0  0
   35.8490   30.1500   31.5640 N   0  0  0  0  0  0  0  0  0  0  0  0
   35.3980   29.4900   32.6110 C   0  0  0  0  0  0  0  0  0  0  0  0
   36.0390   28.3640   32.8960 N   0  0  0  0  0  0  0  0  0  0  0  0
   38.3670   28.3170   30.4620 H   0  0  0  0  0  0  0  0  0  0  0  0
   37.1940   30.3510   29.9630 H   0  0  0  0  0  0  0  0  0  0  0  0
   34.3090   29.7670   33.5270 C   0  0  0  0  0  0  0  0  0  0  0  0
   33.0380   29.2710   33.3280 C   0  0  0  0  0  0  0  0  0  0  0  0
   32.8110   28.6490   32.4650 H   0  0  0  0  0  0  0  0  0  0  0  0
   31.9650   29.4970   34.1590 C   0  0  0  0  0  3  0  0  0  0  0  0
   32.1300   30.2700   35.2850 C   0  0  0  0  0  3  0  0  0  0  0  0
   33.3730   30.7940   35.5410 C   0  0  0  0  0  0  0  0  0  0  0  0
   33.5120   31.5630   36.6760 C   0  0  0  0  0  3  0  0  0  0  0  0
   34.7330   32.1190   36.9940 C   0  0  0  0  0  3  0  0  0  0  0  0
   35.7960   31.8630   36.1210 C   0  0  0  0  0  3  0  0  0  0  0  0
   35.5980   31.0900   35.0070 C   0  0  0  0  0  3  0  0  0  0  0  0
   34.3950   30.5270   34.6690 C   0  0  0  0  0  0  0  0  0  0  0  0
   37.9260   26.3530   32.5990 S   0  0  0  0  0  0  0  0  0  0  0  0
   36.6190   25.3930   30.4390 N   0  0  0  0  0  0  0  0  0  0  0  0
   37.8670   25.2240   31.1400 C   0  0  2  0  0  0  0  0  0  0  0  0
   37.9400   23.7920   31.6450 C   0  0  0  0  0  0  0  0  0  0  0  0
   37.0150   22.9820   30.9530 O   0  0  0  0  0  0  0  0  0  0  0  0
   35.7500   23.4070   31.4200 C   0  0  0  0  0  0  0  0  0  0  0  0
   35.5550   24.8900   31.2710 C   0  0  2  0  0  0  0  0  0  0  0  0
   36.4320   26.3830   30.1780 H   0  0  0  0  0  0  0  0  0  0  0  0
   38.6860   25.4590   30.4380 H   0  0  0  0  0  0  0  0  0  0  0  0
   37.5680   23.8040   32.6950 H   0  0  0  0  0  0  0  0  0  0  0  0
   38.9610   23.3770   31.5680 H   0  0  0  0  0  0  0  0  0  0  0  0
   35.0060   22.8830   30.7840 H   0  0  0  0  0  0  0  0  0  0  0  0
   35.5960   23.0620   32.4590 H   0  0  0  0  0  0  0  0  0  0  0  0
   35.5590   25.3310   32.3010 H   0  0  0  0  0  0  0  0  0  0  0  0
   34.3290   25.1530   30.6220 O   0  0  0  0  0  0  0  0  0  0  0  0
   34.4100   26.0100   30.1240 H   0  0  0  0  0  0  0  0  0  0  0  0
  1 20  1  0  0  0  0
  1  6  1  0  0  0  0
  2  1  2  0  0  0  0
  3  2  1  0  0  0  0
  3  4  2  0  0  0  0
  4  5  1  0  0  0  0
  5  6  2  0  0  0  0
  5  9  1  0  0  0  0
  7  2  1  0  0  0  0
  8  3  1  0  0  0  0
  9 19  1  0  0  0  0
 10  9  2  0  0  0  0
 10 12  1  0  0  0  0
 11 10  1  0  0  0  0
 12 13  2  0  0  0  0
 13 14  1  0  0  0  0
 14 15  1  0  0  0  0
 15 16  2  0  0  0  0
 17 16  1  0  0  0  0
 18 17  2  0  0  0  0
 19 18  1  0  0  0  0
 19 14  2  0  0  0  0
 21 22  1  0  0  0  0
 21 26  1  0  0  0  0
 22 28  1  6  0  0  0
 22 23  1  0  0  0  0
 22 20  1  0  0  0  0
 23 29  1  0  0  0  0
 24 25  1  0  0  0  0
 24 23  1  0  0  0  0
 25 32  1  0  0  0  0
 26 25  1  0  0  0  0
 26 33  1  1  0  0  0
 27 21  1  0  0  0  0
 30 23  1  0  0  0  0
 31 25  1  0  0  0  0
 34 26  1  0  0  0  0
 35 34  1  0  0  0  0
M  END
>  <minimizedAffinity>
-6.19344425

$$$$

 OpenBabel03272502193D

 35 38  0  0  1  0  0  0  0  0999 V2000
   37.7030   24.8060   32.3410 C   0  0  0  0  0  0  0  0  0  0  0  0
   36.7000   23.8780   32.0850 C   0  0  0  0  0  0  0  0  0  0  0  0
   35.5630   24.3530   31.4480 C   0  0  0  0  0  0  0  0  0  0  0  0
   35.4990   25.6710   31.1190 N   0  0  0  0  0  0  0  0  0  0  0  0
   36.4540   26.5440   31.3650 C   0  0  0  0  0  0  0  0  0  0  0  0
   37.5280   26.0600   31.9730 N   0  0  0  0  0  0  0  0  0  0  0  0
   36.6680   22.8210   32.3100 H   0  0  0  0  0  0  0  0  0  0  0  0
   34.7340   23.7170   31.2080 H   0  0  0  0  0  0  0  0  0  0  0  0
   36.5540   27.9650   31.0900 C   0  0  0  0  0  0  0  0  0  0  0  0
   37.0230   28.4480   29.8870 C   0  0  0  0  0  0  0  0  0  0  0  0
   37.3380   27.7690   29.0970 H   0  0  0  0  0  0  0  0  0  0  0  0
   37.1410   29.7810   29.5660 C   0  0  0  0  0  3  0  0  0  0  0  0
   36.7730   30.7360   30.4850 C   0  0  0  0  0  3  0  0  0  0  0  0
   36.2960   30.3190   31.7040 C   0  0  0  0  0  0  0  0  0  0  0  0
   35.9320   31.2960   32.6060 C   0  0  0  0  0  3  0  0  0  0  0  0
   35.4450   30.9470   33.8480 C   0  0  0  0  0  3  0  0  0  0  0  0
   35.3430   29.5810   34.1320 C   0  0  0  0  0  3  0  0  0  0  0  0
   35.7190   28.6560   33.1940 C   0  0  0  0  0  3  0  0  0  0  0  0
   36.2060   28.9760   31.9540 C   0  0  0  0  0  0  0  0  0  0  0  0
   39.1420   24.1480   33.1700 S   0  0  0  0  0  0  0  0  0  0  0  0
   39.8880   23.9220   35.7560 N   0  0  0  0  0  0  0  0  0  0  0  0
   39.2800   24.8740   34.8620 C   0  0  2  0  0  0  0  0  0  0  0  0
   37.8780   25.1750   35.3660 C   0  0  0  0  0  0  0  0  0  0  0  0
   37.7480   24.7830   36.7140 O   0  0  0  0  0  0  0  0  0  0  0  0
   37.7640   23.3690   36.6770 C   0  0  0  0  0  0  0  0  0  0  0  0
   38.9670   22.8300   35.9560 C   0  0  2  0  0  0  0  0  0  0  0  0
   40.7990   23.5610   35.4070 H   0  0  0  0  0  0  0  0  0  0  0  0
   39.9160   25.7760   34.8420 H   0  0  0  0  0  0  0  0  0  0  0  0
   37.1880   24.4980   34.8120 H   0  0  0  0  0  0  0  0  0  0  0  0
   37.6100   26.2390   35.2380 H   0  0  0  0  0  0  0  0  0  0  0  0
   37.8080   23.0440   37.7380 H   0  0  0  0  0  0  0  0  0  0  0  0
   36.8140   22.9920   36.2570 H   0  0  0  0  0  0  0  0  0  0  0  0
   38.6050   22.3820   34.9950 H   0  0  0  0  0  0  0  0  0  0  0  0
   39.6090   21.8550   36.7500 O   0  0  0  0  0  0  0  0  0  0  0  0
   40.5790   21.8510   36.5260 H   0  0  0  0  0  0  0  0  0  0  0  0
  1 20  1  0  0  0  0
  2  7  1  0  0  0  0
  2  1  1  0  0  0  0
  3  2  2  0  0  0  0
  4  5  2  0  0  0  0
  4  3  1  0  0  0  0
  5  6  1  0  0  0  0
  6  1  2  0  0  0  0
  8  3  1  0  0  0  0
  9  5  1  0  0  0  0
  9 19  1  0  0  0  0
 10  9  2  0  0  0  0
 11 10  1  0  0  0  0
 12 10  1  0  0  0  0
 12 13  2  0  0  0  0
 13 14  1  0  0  0  0
 14 19  2  0  0  0  0
 14 15  1  0  0  0  0
 15 16  2  0  0  0  0
 16 17  1  0  0  0  0
 18 17  2  0  0  0  0
 19 18  1  0  0  0  0
 20 22  1  0  0  0  0
 21 26  1  0  0  0  0
 22 28  1  6  0  0  0
 22 23  1  0  0  0  0
 22 21  1  0  0  0  0
 23 24  1  0  0  0  0
 25 24  1  0  0  0  0
 25 31  1  0  0  0  0
 26 33  1  6  0  0  0
 26 25  1  0  0  0  0
 26 34  1  0  0  0  0
 27 21  1  0  0  0  0
 29 23  1  0  0  0  0
 30 23  1  0  0  0  0
 32 25  1  0  0  0  0
 35 34  1  0  0  0  0
M  END
>  <minimizedAffinity>
-6.07467556

$$$$

 OpenBabel03272502193D

 35 38  0  0  1  0  0  0  0  0999 V2000
   36.4210   28.0970   32.5800 C   0  0  0  0  0  0  0  0  0  0  0  0
   36.3640   28.5210   31.2570 C   0  0  0  0  0  0  0  0  0  0  0  0
   35.8180   29.7760   31.0310 C   0  0  0  0  0  0  0  0  0  0  0  0
   35.3800   30.5010   32.0960 N   0  0  0  0  0  0  0  0  0  0  0  0
   35.4380   30.0920   33.3470 C   0  0  0  0  0  0  0  0  0  0  0  0
   35.9650   28.8890   33.5300 N   0  0  0  0  0  0  0  0  0  0  0  0
   36.6850   28.0140   30.3580 H   0  0  0  0  0  0  0  0  0  0  0  0
   35.7290   30.1930   30.0480 H   0  0  0  0  0  0  0  0  0  0  0  0
   35.0250   30.7210   34.5860 C   0  0  0  0  0  0  0  0  0  0  0  0
   35.8290   31.6180   35.2580 C   0  0  0  0  0  0  0  0  0  0  0  0
   36.8120   31.8830   34.8740 H   0  0  0  0  0  0  0  0  0  0  0  0
   35.4940   32.2480   36.4340 C   0  0  0  0  0  3  0  0  0  0  0  0
   34.2750   31.9930   37.0180 C   0  0  0  0  0  3  0  0  0  0  0  0
   33.4260   31.1090   36.3970 C   0  0  0  0  0  0  0  0  0  0  0  0
   32.2100   30.8730   37.0020 C   0  0  0  0  0  3  0  0  0  0  0  0
   31.3100   29.9970   36.4330 C   0  0  0  0  0  3  0  0  0  0  0  0
   31.6920   29.3790   35.2360 C   0  0  0  0  0  3  0  0  0  0  0  0
   32.9140   29.6540   34.6820 C   0  0  0  0  0  3  0  0  0  0  0  0
   33.8270   30.5190   35.2280 C   0  0  0  0  0  0  0  0  0  0  0  0
   37.1230   26.4710   32.8180 S   0  0  0  0  0  0  0  0  0  0  0  0
   36.6930   24.9260   30.6440 N   0  0  0  0  0  0  0  0  0  0  0  0
   37.7000   25.7930   31.2010 C   0  0  2  0  0  0  0  0  0  0  0  0
   38.9530   24.9690   31.4510 C   0  0  0  0  0  0  0  0  0  0  0  0
   38.9040   23.7680   30.7130 O   0  0  0  0  0  0  0  0  0  0  0  0
   37.9010   23.0010   31.3490 C   0  0  0  0  0  0  0  0  0  0  0  0
   36.6010   23.7450   31.4660 C   0  0  2  0  0  0  0  0  0  0  0  0
   35.7600   25.3830   30.5690 H   0  0  0  0  0  0  0  0  0  0  0  0
   37.8790   26.6120   30.4820 H   0  0  0  0  0  0  0  0  0  0  0  0
   38.9140   24.6440   32.5150 H   0  0  0  0  0  0  0  0  0  0  0  0
   39.8740   25.5350   31.2210 H   0  0  0  0  0  0  0  0  0  0  0  0
   37.7480   22.1140   30.6990 H   0  0  0  0  0  0  0  0  0  0  0  0
   38.2690   22.6330   32.3250 H   0  0  0  0  0  0  0  0  0  0  0  0
   36.4490   23.9790   32.5520 H   0  0  0  0  0  0  0  0  0  0  0  0
   35.5430   22.9490   30.9750 O   0  0  0  0  0  0  0  0  0  0  0  0
   34.8310   23.5490   30.6220 H   0  0  0  0  0  0  0  0  0  0  0  0
  1 20  1  0  0  0  0
  1  6  1  0  0  0  0
  2  1  2  0  0  0  0
  3  2  1  0  0  0  0
  3  4  2  0  0  0  0
  4  5  1  0  0  0  0
  5  6  2  0  0  0  0
  5  9  1  0  0  0  0
  7  2  1  0  0  0  0
  8  3  1  0  0  0  0
  9 19  2  0  0  0  0
  9 10  1  0  0  0  0
 10 12  2  0  0  0  0
 11 10  1  0  0  0  0
 12 13  1  0  0  0  0
 14 15  1  0  0  0  0
 14 13  2  0  0  0  0
 16 15  2  0  0  0  0
 17 16  1  0  0  0  0
 18 19  1  0  0  0  0
 18 17  2  0  0  0  0
 19 14  1  0  0  0  0
 21 22  1  0  0  0  0
 21 26  1  0  0  0  0
 22 28  1  6  0  0  0
 22 23  1  0  0  0  0
 22 20  1  0  0  0  0
 23 29  1  0  0  0  0
 24 25  1  0  0  0  0
 24 23  1  0  0  0  0
 25 26  1  0  0  0  0
 25 32  1  0  0  0  0
 26 33  1  1  0  0  0
 27 21  1  0  0  0  0
 30 23  1  0  0  0  0
 31 25  1  0  0  0  0
 34 26  1  0  0  0  0
 35 34  1  0  0  0  0
M  END
>  <minimizedAffinity>
-6.04441929

$$$$

 OpenBabel03272502193D

 35 38  0  0  1  0  0  0  0  0999 V2000
   37.5070   24.9590   32.5590 C   0  0  0  0  0  0  0  0  0  0  0  0
   37.8890   26.2280   32.1410 C   0  0  0  0  0  0  0  0  0  0  0  0
   38.5890   26.9990   33.0570 C   0  0  0  0  0  0  0  0  0  0  0  0
   38.8540   26.4770   34.2860 N   0  0  0  0  0  0  0  0  0  0  0  0
   38.4880   25.2720   34.6740 C   0  0  0  0  0  0  0  0  0  0  0  0
   37.8210   24.5600   33.7760 N   0  0  0  0  0  0  0  0  0  0  0  0
   37.7220   26.7180   31.1910 H   0  0  0  0  0  0  0  0  0  0  0  0
   38.9280   27.9900   32.8310 H   0  0  0  0  0  0  0  0  0  0  0  0
   38.6800   24.5650   35.9250 C   0  0  0  0  0  0  0  0  0  0  0  0
   37.8770   24.7870   37.0250 C   0  0  0  0  0  0  0  0  0  0  0  0
   37.0640   25.5090   36.9850 H   0  0  0  0  0  0  0  0  0  0  0  0
   38.0080   24.1490   38.2370 C   0  0  0  0  0  3  0  0  0  0  0  0
   39.0020   23.2120   38.4080 C   0  0  0  0  0  3  0  0  0  0  0  0
   39.8350   22.9450   37.3500 C   0  0  0  0  0  0  0  0  0  0  0  0
   40.8210   22.0020   37.5470 C   0  0  0  0  0  3  0  0  0  0  0  0
   41.6930   21.6850   36.5270 C   0  0  0  0  0  3  0  0  0  0  0  0
   41.5230   22.3580   35.3110 C   0  0  0  0  0  3  0  0  0  0  0  0
   40.5240   23.2850   35.1750 C   0  0  0  0  0  3  0  0  0  0  0  0
   39.6460   23.6190   36.1720 C   0  0  0  0  0  0  0  0  0  0  0  0
   36.6000   24.0090   31.3470 S   0  0  0  0  0  0  0  0  0  0  0  0
   37.0050   21.8390   32.9030 N   0  0  0  0  0  0  0  0  0  0  0  0
   35.9680   22.4530   32.1120 C   0  0  2  0  0  0  0  0  0  0  0  0
   35.5890   21.4940   30.9960 C   0  0  0  0  0  0  0  0  0  0  0  0
   36.0350   20.1900   31.2970 O   0  0  0  0  0  0  0  0  0  0  0  0
   37.4420   20.2590   31.1780 C   0  0  0  0  0  0  0  0  0  0  0  0
   38.0340   21.3580   32.0150 C   0  0  2  0  0  0  0  0  0  0  0  0
   37.4150   22.4860   33.6080 H   0  0  0  0  0  0  0  0  0  0  0  0
   35.1160   22.6710   32.7790 H   0  0  0  0  0  0  0  0  0  0  0  0
   36.1850   21.7920   30.1030 H   0  0  0  0  0  0  0  0  0  0  0  0
   34.5030   21.5020   30.7930 H   0  0  0  0  0  0  0  0  0  0  0  0
   37.8200   19.2830   31.5500 H   0  0  0  0  0  0  0  0  0  0  0  0
   37.7270   20.3360   30.1130 H   0  0  0  0  0  0  0  0  0  0  0  0
   38.4070   22.1460   31.3110 H   0  0  0  0  0  0  0  0  0  0  0  0
   39.0910   20.8510   32.8010 O   0  0  0  0  0  0  0  0  0  0  0  0
   39.1560   21.3920   33.6330 H   0  0  0  0  0  0  0  0  0  0  0  0
  1  6  1  0  0  0  0
  2  1  2  0  0  0  0
  2  3  1  0  0  0  0
  3  4  2  0  0  0  0
  4  5  1  0  0  0  0
  5  9  1  0  0  0  0
  6  5  2  0  0  0  0
  7  2  1  0  0  0  0
  8  3  1  0  0  0  0
  9 19  2  0  0  0  0
  9 10  1  0  0  0  0
 10 12  2  0  0  0  0
 11 10  1  0  0  0  0
 12 13  1  0  0  0  0
 14 15  1  0  0  0  0
 14 13  2  0  0  0  0
 16 15  2  0  0  0  0
 17 16  1  0  0  0  0
 18 17  2  0  0  0  0
 18 19  1  0  0  0  0
 19 14  1  0  0  0  0
 20 22  1  0  0  0  0
 20  1  1  0  0  0  0
 21 27  1  0  0  0  0
 22 28  1  1  0  0  0
 22 21  1  0  0  0  0
 23 24  1  0  0  0  0
 23 22  1  0  0  0  0
 25 24  1  0  0  0  0
 25 31  1  0  0  0  0
 25 26  1  0  0  0  0
 26 33  1  6  0  0  0
 26 34  1  0  0  0  0
 26 21  1  0  0  0  0
 29 23  1  0  0  0  0
 30 23  1  0  0  0  0
 32 25  1  0  0  0  0
 34 35  1  0  0  0  0
M  END
>  <minimizedAffinity>
-6.03189516

$$$$
