
 OpenBabel03272500263D

 36 39  0  0  0  0  0  0  0  0999 V2000
   38.6560   31.9670   44.6640 C   0  0  0  0  0  0  0  0  0  0  0  0
   39.5850   32.8210   45.1530 C   0  0  0  0  0  0  0  0  0  0  0  0
   39.6670   33.0410   46.5310 C   0  0  0  0  0  0  0  0  0  0  0  0
   38.7730   32.3570   47.3100 N   0  0  0  0  0  0  0  0  0  0  0  0
   37.8590   31.5160   46.8190 C   0  0  0  0  0  0  0  0  0  0  0  0
   37.8520   31.3650   45.4920 N   0  0  0  0  0  0  0  0  0  0  0  0
   40.3050   33.3800   44.5860 H   0  0  0  0  0  0  0  0  0  0  0  0
   40.3560   33.6870   47.0110 H   0  0  0  0  0  0  0  0  0  0  0  0
   36.8520   30.7250   47.5300 C   0  0  0  0  0  0  0  0  0  0  0  0
   35.7260   30.2260   46.8740 C   0  0  0  0  0  0  0  0  0  0  0  0
   35.6000   30.4320   45.8120 H   0  0  0  0  0  0  0  0  0  0  0  0
   34.7470   29.4820   47.4790 C   0  0  0  0  0  0  0  0  0  0  0  0
   34.8520   29.1910   48.8170 C   0  0  0  0  0  0  0  0  0  0  0  0
   35.9420   29.6560   49.5180 C   0  0  0  0  0  0  0  0  0  0  0  0
   36.0150   29.3460   50.8570 C   0  0  0  0  0  0  0  0  0  0  0  0
   37.0680   29.7740   51.6140 C   0  0  0  0  0  0  0  0  0  0  0  0
   38.0420   30.5300   50.9540 C   0  0  0  0  0  0  0  0  0  0  0  0
   37.9280   30.8160   49.6150 C   0  0  0  0  0  0  0  0  0  0  0  0
   36.8820   30.3960   48.8420 C   0  0  0  0  0  0  0  0  0  0  0  0
   38.5430   31.7220   43.2420 C   0  0  0  0  0  0  0  0  0  0  0  0
   38.3600   30.6360   43.0580 H   0  0  0  0  0  0  0  0  0  0  0  0
   37.5850   32.2050   42.9020 H   0  0  0  0  0  0  0  0  0  0  0  0
   39.6280   32.1370   42.3520 C   0  0  0  0  0  0  0  0  0  0  0  0
   40.3300   32.8120   42.8830 H   0  0  0  0  0  0  0  0  0  0  0  0
   39.2500   32.7670   41.4940 H   0  0  0  0  0  0  0  0  0  0  0  0
   40.3760   31.0340   41.7280 C   0  0  0  0  0  0  0  0  0  0  0  0
   40.8420   29.9840   42.5010 C   0  0  0  0  0  0  0  0  0  0  0  0
   41.4950   29.1100   41.6760 C   0  0  0  0  0  0  0  0  0  0  0  0
   41.4280   29.6080   40.4480 N   0  0  0  0  0  0  0  0  0  0  0  0
   40.7610   30.7520   40.4900 N   0  0  0  0  0  0  0  0  0  0  0  0
   40.7760   29.7660   43.5700 H   0  0  0  0  0  0  0  0  0  0  0  0
   41.9990   28.1740   41.8790 H   0  0  0  0  0  0  0  0  0  0  0  0
   41.9710   29.0560   39.2000 C   0  0  0  0  0  0  0  0  0  0  0  0
   41.0730   28.1950   38.6200 F   0  0  0  0  0  0  0  0  0  0  0  0
   43.1620   28.3800   39.4340 F   0  0  0  0  0  0  0  0  0  0  0  0
   42.2290   30.0730   38.2810 F   0  0  0  0  0  0  0  0  0  0  0  0
  1  2  2  0  0  0  0
  1  6  1  0  0  0  0
  2  3  1  0  0  0  0
  3  8  1  0  0  0  0
  3  4  2  0  0  0  0
  5  4  1  0  0  0  0
  5  9  1  0  0  0  0
  6  5  2  0  0  0  0
  7  2  1  0  0  0  0
  9 19  1  0  0  0  0
 10 12  1  0  0  0  0
 10  9  2  0  0  0  0
 11 10  1  0  0  0  0
 12 13  2  0  0  0  0
 13 14  1  0  0  0  0
 14 15  1  0  0  0  0
 15 16  2  0  0  0  0
 17 16  1  0  0  0  0
 18 17  2  0  0  0  0
 19 14  2  0  0  0  0
 19 18  1  0  0  0  0
 20  1  1  0  0  0  0
 21 20  1  0  0  0  0
 22 20  1  0  0  0  0
 23 24  1  0  0  0  0
 23 20  1  0  0  0  0
 25 23  1  0  0  0  0
 26 23  1  0  0  0  0
 26 27  1  0  0  0  0
 27 31  1  0  0  0  0
 28 32  1  0  0  0  0
 28 27  2  0  0  0  0
 29 30  1  0  0  0  0
 29 28  1  0  0  0  0
 30 26  2  0  0  0  0
 33 35  1  0  0  0  0
 33 29  1  0  0  0  0
 34 33  1  0  0  0  0
 36 33  1  0  0  0  0
M  END
>  <minimizedAffinity>
-7.17637253

>  <minimizedRMSD>
9.22109604

$$$$
