
 OpenBabel03272510073D

 32 35  0  0  0  0  0  0  0  0999 V2000
   36.6940   30.3890   47.8550 C   0  0  0  0  0  0  0  0  0  0  0  0
   36.9110   30.7910   46.5100 C   0  0  0  0  0  0  0  0  0  0  0  0
   36.0240   30.3450   45.5320 C   0  0  0  0  0  0  0  0  0  0  0  0
   34.9890   29.5480   45.9060 N   0  0  0  0  0  0  0  0  0  0  0  0
   34.8020   29.1810   47.1800 C   0  0  0  0  0  0  0  0  0  0  0  0
   35.6380   29.5900   48.1630 N   0  0  0  0  0  0  0  0  0  0  0  0
   33.6950   28.3420   47.5150 N   0  0  0  0  0  0  0  0  0  0  0  0
   32.3070   28.7300   47.2480 C   0  0  0  0  0  0  0  0  0  0  0  0
   31.5070   27.5110   47.5160 C   0  0  0  0  0  0  0  0  0  0  0  0
   32.5000   26.3790   47.6590 C   0  0  0  0  0  0  0  0  0  0  0  0
   33.7450   27.0430   48.1390 C   0  0  0  0  0  0  0  0  0  0  0  0
   37.3220   30.6790   48.6820 H   0  0  0  0  0  0  0  0  0  0  0  0
   36.2370   30.6670   44.5340 H   0  0  0  0  0  0  0  0  0  0  0  0
   32.0740   29.6040   47.8620 H   0  0  0  0  0  0  0  0  0  0  0  0
   32.1920   29.0310   46.1740 H   0  0  0  0  0  0  0  0  0  0  0  0
   30.7630   27.3140   46.6980 H   0  0  0  0  0  0  0  0  0  0  0  0
   30.9680   27.6610   48.4770 H   0  0  0  0  0  0  0  0  0  0  0  0
   32.1150   25.7110   48.4780 H   0  0  0  0  0  0  0  0  0  0  0  0
   32.6050   25.8520   46.7080 H   0  0  0  0  0  0  0  0  0  0  0  0
   33.7860   27.1360   49.2380 H   0  0  0  0  0  0  0  0  0  0  0  0
   34.6090   26.4480   47.7360 H   0  0  0  0  0  0  0  0  0  0  0  0
   38.0800   31.6230   46.3710 C   0  0  0  0  0  0  0  0  0  0  0  0
   38.7520   31.5290   45.1470 C   0  0  0  0  0  0  0  0  0  0  0  0
   38.4010   30.8390   44.3650 H   0  0  0  0  0  0  0  0  0  0  0  0
   39.8760   32.2660   44.8210 C   0  0  0  0  0  0  0  0  0  0  0  0
   40.3490   33.1550   45.7940 C   0  0  0  0  0  0  0  0  0  0  0  0
   39.7180   33.2790   47.0130 C   0  0  0  0  0  0  0  0  0  0  0  0
   40.2060   34.1520   47.9530 C   0  0  0  0  0  0  0  0  0  0  0  0
   39.5300   34.2220   49.1560 C   0  0  0  0  0  0  0  0  0  0  0  0
   38.3990   33.4650   49.4590 C   0  0  0  0  0  0  0  0  0  0  0  0
   37.9660   32.6120   48.4720 C   0  0  0  0  0  0  0  0  0  0  0  0
   38.6130   32.5170   47.2630 C   0  0  0  0  0  0  0  0  0  0  0  0
  1  6  1  0  0  0  0
  1 12  1  0  0  0  0
  2  1  2  0  0  0  0
  3  4  2  0  0  0  0
  3  2  1  0  0  0  0
  4  5  1  0  0  0  0
  5  7  1  0  0  0  0
  5  6  2  0  0  0  0
  7 11  1  0  0  0  0
  8  7  1  0  0  0  0
  8  9  1  0  0  0  0
  8 14  1  0  0  0  0
  9 10  1  0  0  0  0
  9 17  1  0  0  0  0
 10 11  1  0  0  0  0
 10 18  1  0  0  0  0
 11 20  1  0  0  0  0
 13  3  1  0  0  0  0
 15  8  1  0  0  0  0
 16  9  1  0  0  0  0
 19 10  1  0  0  0  0
 21 11  1  0  0  0  0
 22  2  1  0  0  0  0
 22 32  1  0  0  0  0
 23 22  2  0  0  0  0
 24 23  1  0  0  0  0
 25 23  1  0  0  0  0
 25 26  2  0  0  0  0
 26 27  1  0  0  0  0
 27 32  2  0  0  0  0
 27 28  1  0  0  0  0
 28 29  2  0  0  0  0
 29 30  1  0  0  0  0
 31 30  2  0  0  0  0
 32 31  1  0  0  0  0
M  END
>  <minimizedAffinity>
-6.10859394

>  <minimizedRMSD>
3.64168501

$$$$
