
 OpenBabel03272510083D

 46 51  0  0  0  0  0  0  0  0999 V2000
   35.5530   30.2310   46.9290 C   0  0  0  0  0  0  0  0  0  0  0  0
   35.9040   30.7190   48.1470 N   0  0  0  0  0  0  0  0  0  0  0  0
   37.0810   31.3550   48.2940 C   0  0  0  0  0  0  0  0  0  0  0  0
   37.9800   31.5550   47.2860 N   0  0  0  0  0  0  0  0  0  0  0  0
   37.6630   31.0840   46.0740 C   0  0  0  0  0  0  0  0  0  0  0  0
   38.5020   31.2180   44.9790 C   0  0  0  0  0  0  0  0  0  0  0  0
   38.1460   30.7010   43.7300 C   0  0  0  0  0  0  0  0  0  0  0  0
   36.9200   30.0410   43.5880 C   0  0  0  0  0  0  0  0  0  0  0  0
   36.1080   29.9300   44.7080 C   0  0  0  0  0  0  0  0  0  0  0  0
   36.4630   30.4370   45.9220 C   0  0  0  0  0  0  0  0  0  0  0  0
   37.4090   31.7650   49.2530 H   0  0  0  0  0  0  0  0  0  0  0  0
   39.4310   31.7440   45.1850 H   0  0  0  0  0  0  0  0  0  0  0  0
   38.8870   30.8750   42.9690 H   0  0  0  0  0  0  0  0  0  0  0  0
   36.8500   29.7270   42.5590 H   0  0  0  0  0  0  0  0  0  0  0  0
   33.9820   28.2210   47.1360 C   0  0  0  0  0  0  0  0  0  0  0  0
   34.2900   29.5840   46.8770 C   0  0  0  0  0  0  0  0  0  0  0  0
   33.2380   30.4360   46.5090 C   0  0  0  0  0  0  0  0  0  0  0  0
   31.9720   29.9570   46.4020 N   0  0  0  0  0  0  0  0  0  0  0  0
   31.7410   28.6340   46.6590 C   0  0  0  0  0  0  0  0  0  0  0  0
   32.7200   27.7810   47.0210 N   0  0  0  0  0  0  0  0  0  0  0  0
   30.3830   28.1640   46.5020 N   0  0  0  0  0  0  0  0  0  0  0  0
   29.2710   28.6600   47.2550 C   0  0  0  0  0  0  0  0  0  0  0  0
   28.0770   28.0320   46.6050 C   0  0  0  0  0  0  0  0  0  0  0  0
   28.5470   27.4610   45.2820 C   0  0  0  0  0  0  0  0  0  0  0  0
   29.9680   27.1210   45.5450 C   0  0  0  0  0  0  0  0  0  0  0  0
   34.8430   27.6330   47.4170 H   0  0  0  0  0  0  0  0  0  0  0  0
   33.3070   31.4700   46.2950 H   0  0  0  0  0  0  0  0  0  0  0  0
   29.3570   28.4030   48.3180 H   0  0  0  0  0  0  0  0  0  0  0  0
   29.1580   29.7740   47.1170 H   0  0  0  0  0  0  0  0  0  0  0  0
   27.7700   27.1680   47.2390 H   0  0  0  0  0  0  0  0  0  0  0  0
   27.2210   28.7210   46.4940 H   0  0  0  0  0  0  0  0  0  0  0  0
   28.0020   26.5310   45.0240 H   0  0  0  0  0  0  0  0  0  0  0  0
   28.4610   28.2520   44.5110 H   0  0  0  0  0  0  0  0  0  0  0  0
   30.6320   27.1360   44.6690 H   0  0  0  0  0  0  0  0  0  0  0  0
   30.0270   26.1460   46.0800 H   0  0  0  0  0  0  0  0  0  0  0  0
   34.9450   29.2590   44.1490 C   0  0  0  0  0  0  0  0  0  0  0  0
   34.6010   27.9180   44.1090 C   0  0  0  0  0  0  0  0  0  0  0  0
   35.3510   27.3030   44.6360 H   0  0  0  0  0  0  0  0  0  0  0  0
   33.4860   27.3930   43.5060 C   0  0  0  0  0  3  0  0  0  0  0  0
   32.6390   28.2840   42.8860 C   0  0  0  0  0  3  0  0  0  0  0  0
   32.8460   29.6440   42.8400 C   0  0  0  0  0  0  0  0  0  0  0  0
   32.0090   30.5420   42.2210 C   0  0  0  0  0  3  0  0  0  0  0  0
   32.2740   31.8830   42.2080 C   0  0  0  0  0  3  0  0  0  0  0  0
   33.4010   32.3630   42.8230 C   0  0  0  0  0  3  0  0  0  0  0  0
   34.2250   31.4530   43.4370 C   0  0  0  0  0  3  0  0  0  0  0  0
   33.9930   30.0710   43.4750 C   0  0  0  0  0  0  0  0  0  0  0  0
  1  2  1  0  0  0  0
  2  3  2  0  0  0  0
  3 11  1  0  0  0  0
  4  3  1  0  0  0  0
  5  4  2  0  0  0  0
  6 12  1  0  0  0  0
  6  5  1  0  0  0  0
  7  6  2  0  0  0  0
  8  7  1  0  0  0  0
  8  9  2  0  0  0  0
  9 10  1  0  0  0  0
 10  5  1  0  0  0  0
 10  1  2  0  0  0  0
 13  7  1  0  0  0  0
 14  8  1  0  0  0  0
 15 26  1  0  0  0  0
 16  1  1  0  0  0  0
 16 15  2  0  0  0  0
 17 16  1  0  0  0  0
 18 17  2  0  0  0  0
 18 19  1  0  0  0  0
 19 20  2  0  0  0  0
 20 15  1  0  0  0  0
 21 19  1  0  0  0  0
 21 22  1  0  0  0  0
 22 28  1  0  0  0  0
 23 30  1  0  0  0  0
 23 22  1  0  0  0  0
 24 25  1  0  0  0  0
 24 23  1  0  0  0  0
 25 35  1  0  0  0  0
 25 21  1  0  0  0  0
 27 17  1  0  0  0  0
 29 22  1  0  0  0  0
 31 23  1  0  0  0  0
 32 24  1  0  0  0  0
 33 24  1  0  0  0  0
 34 25  1  0  0  0  0
 36  9  1  0  0  0  0
 37 36  1  0  0  0  0
 37 38  1  0  0  0  0
 39 37  2  0  0  0  0
 40 39  1  0  0  0  0
 41 40  2  0  0  0  0
 41 46  1  0  0  0  0
 42 41  1  0  0  0  0
 43 42  2  0  0  0  0
 43 44  1  0  0  0  0
 44 45  2  0  0  0  0
 45 46  1  0  0  0  0
 46 36  2  0  0  0  0
M  END
>  <minimizedAffinity>
-4.96812391

>  <minimizedRMSD>
3.24248791

$$$$
