
 OpenBabel03272501173D

 37 41  0  0  1  0  0  0  0  0999 V2000
   34.7400   28.7070   50.1670 C   0  0  0  0  0  0  0  0  0  0  0  0
   34.7650   27.7580   50.7400 H   0  0  0  0  0  0  0  0  0  0  0  0
   34.3500   29.4780   50.8820 H   0  0  0  0  0  0  0  0  0  0  0  0
   36.6130   30.4030   49.9400 C   0  0  1  0  0  0  0  0  0  0  0  0
   36.1000   29.0980   49.6610 C   0  0  1  0  0  0  0  0  0  0  0  0
   37.3040   29.1630   50.5480 C   0  0  0  0  0  0  0  0  0  0  0  0
   36.1560   31.0840   50.7150 H   0  0  0  0  0  0  0  0  0  0  0  0
   36.2660   28.7060   48.6100 H   0  0  0  0  0  0  0  0  0  0  0  0
   37.0990   28.9290   51.6110 H   0  0  0  0  0  0  0  0  0  0  0  0
   38.2430   28.8200   50.1110 H   0  0  0  0  0  0  0  0  0  0  0  0
   37.5260   31.1240   48.9750 C   0  0  0  0  0  0  0  0  0  0  0  0
   38.0210   32.3520   49.3960 C   0  0  0  0  0  0  0  0  0  0  0  0
   38.8500   33.0180   48.4760 C   0  0  0  0  0  0  0  0  0  0  0  0
   39.1170   32.4490   47.2610 N   0  0  0  0  0  0  0  0  0  0  0  0
   38.6080   31.2370   46.8900 C   0  0  0  0  0  0  0  0  0  0  0  0
   37.7960   30.5660   47.7700 N   0  0  0  0  0  0  0  0  0  0  0  0
   37.8010   32.7780   50.3440 H   0  0  0  0  0  0  0  0  0  0  0  0
   39.2790   33.9750   48.7160 H   0  0  0  0  0  0  0  0  0  0  0  0
   38.8250   30.8020   45.9360 H   0  0  0  0  0  0  0  0  0  0  0  0
   33.7210   28.6300   49.0760 C   0  0  0  0  0  0  0  0  0  0  0  0
   33.8010   29.3510   47.9130 C   0  0  0  0  0  0  0  0  0  0  0  0
   32.7620   29.0780   47.1360 N   0  0  0  0  0  0  0  0  0  0  0  0
   32.0120   28.1930   47.7670 C   0  0  0  0  0  0  0  0  0  0  0  0
   32.6000   27.9240   48.9490 N   0  0  0  0  0  0  0  0  0  0  0  0
   34.6180   30.0540   47.6760 H   0  0  0  0  0  0  0  0  0  0  0  0
   32.6120   29.5330   46.2410 H   0  0  0  0  0  0  0  0  0  0  0  0
   30.8130   27.4390   47.4580 C   0  0  0  0  0  0  0  0  0  0  0  0
   30.8430   26.4170   46.4980 C   0  0  0  0  0  0  0  0  0  0  0  0
   31.7800   26.1870   45.9940 H   0  0  0  0  0  0  0  0  0  0  0  0
   29.7750   25.6480   46.1130 C   0  0  0  0  0  3  0  0  0  0  0  0
   28.5510   25.8600   46.6890 C   0  0  0  0  0  3  0  0  0  0  0  0
   28.4360   26.8460   47.6380 C   0  0  0  0  0  0  0  0  0  0  0  0
   27.1920   27.0440   48.1640 C   0  0  0  0  0  3  0  0  0  0  0  0
   26.9740   28.0210   49.0840 C   0  0  0  0  0  3  0  0  0  0  0  0
   28.0760   28.7950   49.4550 C   0  0  0  0  0  3  0  0  0  0  0  0
   29.3000   28.5410   48.8860 C   0  0  0  0  0  3  0  0  0  0  0  0
   29.5480   27.5660   47.9620 C   0  0  0  0  0  0  0  0  0  0  0  0
  1  2  1  0  0  0  0
  1  3  1  0  0  0  0
  4  6  1  0  0  0  0
  4  7  1  1  0  0  0
  5  8  1  6  0  0  0
  5  4  1  0  0  0  0
  5  1  1  0  0  0  0
  5  6  1  0  0  0  0
  6  9  1  0  0  0  0
 10  6  1  0  0  0  0
 11 12  1  0  0  0  0
 11  4  1  0  0  0  0
 12 17  1  0  0  0  0
 13 18  1  0  0  0  0
 13 12  2  0  0  0  0
 14 13  1  0  0  0  0
 15 14  2  0  0  0  0
 15 16  1  0  0  0  0
 16 11  2  0  0  0  0
 19 15  1  0  0  0  0
 20  1  1  0  0  0  0
 21 20  2  0  0  0  0
 22 23  1  0  0  0  0
 22 21  1  0  0  0  0
 23 24  2  0  0  0  0
 24 20  1  0  0  0  0
 25 21  1  0  0  0  0
 26 22  1  0  0  0  0
 27 23  1  0  0  0  0
 27 37  1  0  0  0  0
 28 27  2  0  0  0  0
 29 28  1  0  0  0  0
 30 28  1  0  0  0  0
 30 31  2  0  0  0  0
 31 32  1  0  0  0  0
 32 37  2  0  0  0  0
 32 33  1  0  0  0  0
 33 34  2  0  0  0  0
 34 35  1  0  0  0  0
 36 35  2  0  0  0  0
 37 36  1  0  0  0  0
M  END
>  <minimizedAffinity>
-6.90766859

>  <minimizedRMSD>
2.33555388

$$$$
