
 OpenBabel03272510023D

 23 25  0  0  0  0  0  0  0  0999 V2000
   38.2250   31.3320   50.2400 C   0  0  0  0  0  0  0  0  0  0  0  0
   38.3920   31.4140   48.8590 C   0  0  0  0  0  0  0  0  0  0  0  0
   37.4650   30.8110   48.0260 C   0  0  0  0  0  0  0  0  0  0  0  0
   36.4420   30.1690   48.6570 N   0  0  0  0  0  0  0  0  0  0  0  0
   36.2840   30.0910   49.9730 C   0  0  0  0  0  0  0  0  0  0  0  0
   37.1840   30.6780   50.7440 N   0  0  0  0  0  0  0  0  0  0  0  0
   38.9470   31.8040   50.8910 H   0  0  0  0  0  0  0  0  0  0  0  0
   39.2700   31.9110   48.5170 H   0  0  0  0  0  0  0  0  0  0  0  0
   37.4800   30.7090   46.5880 C   0  0  0  0  0  0  0  0  0  0  0  0
   36.2530   30.4280   45.9760 C   0  0  0  0  0  0  0  0  0  0  0  0
   35.3600   30.2880   46.5750 H   0  0  0  0  0  0  0  0  0  0  0  0
   36.0550   30.3030   44.6320 C   0  0  0  0  0  3  0  0  0  0  0  0
   37.1190   30.4610   43.7730 C   0  0  0  0  0  3  0  0  0  0  0  0
   38.3420   30.7400   44.3100 C   0  0  0  0  0  0  0  0  0  0  0  0
   39.4200   30.9370   43.4780 C   0  0  0  0  0  3  0  0  0  0  0  0
   40.6770   31.2580   43.9710 C   0  0  0  0  0  3  0  0  0  0  0  0
   40.7920   31.3720   45.3430 C   0  0  0  0  0  3  0  0  0  0  0  0
   39.7100   31.1710   46.1380 C   0  0  0  0  0  3  0  0  0  0  0  0
   38.4830   30.8540   45.6650 C   0  0  0  0  0  0  0  0  0  0  0  0
   35.1180   29.3460   50.5100 C   0  0  0  0  0  0  0  0  0  0  0  0
   35.2390   29.0850   51.8650 F   0  0  0  0  0  0  0  0  0  0  0  0
   33.9370   30.0450   50.3220 F   0  0  0  0  0  0  0  0  0  0  0  0
   34.9260   28.1330   49.8710 F   0  0  0  0  0  0  0  0  0  0  0  0
  1  6  1  0  0  0  0
  1  7  1  0  0  0  0
  2  1  2  0  0  0  0
  3  4  2  0  0  0  0
  3  2  1  0  0  0  0
  4  5  1  0  0  0  0
  5 20  1  0  0  0  0
  5  6  2  0  0  0  0
  8  2  1  0  0  0  0
  9  3  1  0  0  0  0
 10 11  1  0  0  0  0
 10  9  1  0  0  0  0
 12 10  2  0  0  0  0
 13 14  2  0  0  0  0
 13 12  1  0  0  0  0
 14 19  1  0  0  0  0
 15 16  2  0  0  0  0
 15 14  1  0  0  0  0
 16 17  1  0  0  0  0
 17 18  2  0  0  0  0
 19 18  1  0  0  0  0
 19  9  2  0  0  0  0
 20 21  1  0  0  0  0
 22 20  1  0  0  0  0
 23 20  1  0  0  0  0
M  END
>  <minimizedAffinity>
-6.67968321

>  <minimizedRMSD>
0.874848545

$$$$
