
 OpenBabel03272505393D

 33 36  0  0  0  0  0  0  0  0999 V2000
   35.8580   30.2210   46.4490 C   0  0  0  0  0  0  0  0  0  0  0  0
   34.5790   29.7150   46.5450 C   0  0  0  0  0  0  0  0  0  0  0  0
   33.8930   29.2790   45.4370 C   0  0  0  0  0  0  0  0  0  0  0  0
   34.4420   29.3210   44.1650 C   0  0  0  0  0  0  0  0  0  0  0  0
   35.7160   29.8220   44.0490 C   0  0  0  0  0  0  0  0  0  0  0  0
   36.3810   30.2530   45.1820 C   0  0  0  0  0  0  0  0  0  0  0  0
   34.0890   29.6520   47.5090 H   0  0  0  0  0  0  0  0  0  0  0  0
   32.8730   28.8780   45.5350 H   0  0  0  0  0  0  0  0  0  0  0  0
   33.8620   28.9650   43.3230 H   0  0  0  0  0  0  0  0  0  0  0  0
   36.1500   29.8590   43.0630 H   0  0  0  0  0  0  0  0  0  0  0  0
   37.7320   30.7780   45.0140 C   0  0  0  0  0  0  0  0  0  0  0  0
   38.6810   30.2470   45.8880 C   0  0  0  0  0  0  0  0  0  0  0  0
   38.5140   29.5020   46.6580 H   0  0  0  0  0  0  0  0  0  0  0  0
   40.0060   30.6660   45.8290 C   0  0  0  0  0  0  0  0  0  0  0  0
   40.3550   31.6110   44.8920 C   0  0  0  0  0  0  0  0  0  0  0  0
   39.4330   32.1330   44.0370 C   0  0  0  0  0  0  0  0  0  0  0  0
   39.7670   33.0830   43.0910 C   0  0  0  0  0  0  0  0  0  0  0  0
   38.7630   33.5680   42.2520 C   0  0  0  0  0  0  0  0  0  0  0  0
   37.4720   33.1480   42.3210 C   0  0  0  0  0  0  0  0  0  0  0  0
   37.0990   32.2010   43.2540 C   0  0  0  0  0  0  0  0  0  0  0  0
   38.1100   31.7220   44.0880 C   0  0  0  0  0  0  0  0  0  0  0  0
   37.2450   30.4020   49.8240 C   0  0  0  0  0  0  0  0  0  0  0  0
   37.9320   31.6200   49.8150 C   0  0  0  0  0  0  0  0  0  0  0  0
   37.9060   32.3660   48.6340 C   0  0  0  0  0  0  0  0  0  0  0  0
   37.2180   31.8640   47.5760 N   0  0  0  0  0  0  0  0  0  0  0  0
   36.5640   30.6760   47.6270 C   0  0  0  0  0  0  0  0  0  0  0  0
   36.5820   29.9590   48.7410 N   0  0  0  0  0  0  0  0  0  0  0  0
   38.4680   31.9880   50.6690 H   0  0  0  0  0  0  0  0  0  0  0  0
   38.4170   33.3250   48.5490 H   0  0  0  0  0  0  0  0  0  0  0  0
   37.2730   29.6010   51.0900 C   0  0  0  0  0  0  0  0  0  0  0  0
   35.9730   29.4200   51.5520 F   0  0  0  0  0  0  0  0  0  0  0  0
   37.9040   28.4310   50.8370 F   0  0  0  0  0  0  0  0  0  0  0  0
   37.9140   30.3580   52.0630 F   0  0  0  0  0  0  0  0  0  0  0  0
  1  2  1  0  0  0  0
  1 26  1  0  0  0  0
  2  7  1  0  0  0  0
  3  8  1  0  0  0  0
  3  2  2  0  0  0  0
  4  3  1  0  0  0  0
  5  4  2  0  0  0  0
  5  6  1  0  0  0  0
  6  1  2  0  0  0  0
  9  4  1  0  0  0  0
 10  5  1  0  0  0  0
 11  6  1  0  0  0  0
 11 12  1  0  0  0  0
 12 13  1  0  0  0  0
 14 12  2  0  0  0  0
 15 14  1  0  0  0  0
 16 21  1  0  0  0  0
 16 15  2  0  0  0  0
 17 16  1  0  0  0  0
 18 19  1  0  0  0  0
 18 17  2  0  0  0  0
 19 20  2  0  0  0  0
 20 21  1  0  0  0  0
 21 11  2  0  0  0  0
 22 30  1  0  0  0  0
 23 22  1  0  0  0  0
 23 28  1  0  0  0  0
 24 23  2  0  0  0  0
 25 26  2  0  0  0  0
 25 24  1  0  0  0  0
 26 27  1  0  0  0  0
 27 22  2  0  0  0  0
 29 24  1  0  0  0  0
 30 31  1  0  0  0  0
 30 33  1  0  0  0  0
 32 30  1  0  0  0  0
M  END
>  <minimizedAffinity>
-6.46934795

>  <minimizedRMSD>
0.734069943

$$$$
