
 OpenBabel03272509243D

 26 28  0  0  0  0  0  0  0  0999 V2000
   38.1160   30.5920   47.3210 C   0  0  0  0  0  0  0  0  0  0  0  0
   38.6730   29.7640   47.7970 H   0  0  0  0  0  0  0  0  0  0  0  0
   37.2690   30.1990   46.7110 H   0  0  0  0  0  0  0  0  0  0  0  0
   38.9650   31.4060   46.3900 C   0  0  0  0  0  0  0  0  0  0  0  0
   39.4650   32.6640   46.7210 C   0  0  0  0  0  0  0  0  0  0  0  0
   39.2020   33.0780   47.7030 H   0  0  0  0  0  0  0  0  0  0  0  0
   40.2530   33.3370   45.8170 C   0  0  0  0  0  3  0  0  0  0  0  0
   40.5920   32.8360   44.5770 C   0  0  0  0  0  3  0  0  0  0  0  0
   40.0960   31.5880   44.2500 C   0  0  0  0  0  0  0  0  0  0  0  0
   40.4190   31.0750   43.0110 C   0  0  0  0  0  3  0  0  0  0  0  0
   39.9460   29.8290   42.6220 C   0  0  0  0  0  3  0  0  0  0  0  0
   39.1430   29.1010   43.4880 C   0  0  0  0  0  3  0  0  0  0  0  0
   38.8460   29.6690   44.7330 C   0  0  0  0  0  3  0  0  0  0  0  0
   39.3060   30.9120   45.1500 C   0  0  0  0  0  0  0  0  0  0  0  0
   37.5440   31.5630   48.3530 C   0  0  0  0  0  0  0  0  0  0  0  0
   36.6120   32.0080   47.8800 H   0  0  0  0  0  0  0  0  0  0  0  0
   38.2340   32.3220   48.6960 H   0  0  0  0  0  0  0  0  0  0  0  0
   37.0510   29.8110   51.6840 C   0  0  0  0  0  0  0  0  0  0  0  0
   37.6980   30.5730   50.6930 C   0  0  0  0  0  0  0  0  0  0  0  0
   37.0120   30.7780   49.5110 C   0  0  0  0  0  0  0  0  0  0  0  0
   35.7610   30.2360   49.3740 N   0  0  0  0  0  0  0  0  0  0  0  0
   35.1750   29.5140   50.3410 C   0  0  0  0  0  0  0  0  0  0  0  0
   35.8210   29.2990   51.5020 N   0  0  0  0  0  0  0  0  0  0  0  0
   37.5790   29.6450   52.6120 H   0  0  0  0  0  0  0  0  0  0  0  0
   38.6780   30.9970   50.8040 H   0  0  0  0  0  0  0  0  0  0  0  0
   34.1810   29.1580   50.0630 H   0  0  0  0  0  0  0  0  0  0  0  0
  1  2  1  0  0  0  0
  1 15  1  0  0  0  0
  3  1  1  0  0  0  0
  4  5  1  0  0  0  0
  4  1  1  0  0  0  0
  5  6  1  0  0  0  0
  7  5  2  0  0  0  0
  8  7  1  0  0  0  0
  9  8  2  0  0  0  0
  9 14  1  0  0  0  0
 10  9  1  0  0  0  0
 11 10  2  0  0  0  0
 11 12  1  0  0  0  0
 12 13  2  0  0  0  0
 13 14  1  0  0  0  0
 14  4  2  0  0  0  0
 15 17  1  0  0  0  0
 15 20  1  0  0  0  0
 16 15  1  0  0  0  0
 18 24  1  0  0  0  0
 19 25  1  0  0  0  0
 19 18  2  0  0  0  0
 20 19  1  0  0  0  0
 21 20  2  0  0  0  0
 21 22  1  0  0  0  0
 22 23  2  0  0  0  0
 23 18  1  0  0  0  0
 26 22  1  0  0  0  0
M  END
>  <minimizedAffinity>
-6.00832987

>  <minimizedRMSD>
1.49047208

$$$$
