
 OpenBabel03262521333D

 27 30  0  0  1  0  0  0  0  0999 V2000
   37.5550   32.0360   48.4990 C   0  0  1  0  0  0  0  0  0  0  0  0
   38.6920   32.8820   48.7980 C   0  0  0  0  0  0  0  0  0  0  0  0
   38.8920   31.6400   47.9040 C   0  0  2  0  0  0  0  0  0  0  0  0
   36.8030   32.4130   47.7800 H   0  0  0  0  0  0  0  0  0  0  0  0
   39.1660   32.7660   49.8160 H   0  0  0  0  0  0  0  0  0  0  0  0
   38.8090   33.8840   48.4110 H   0  0  0  0  0  0  0  0  0  0  0  0
   39.4310   30.7630   48.3680 H   0  0  0  0  0  0  0  0  0  0  0  0
   39.3430   32.0590   46.5730 C   0  0  0  0  0  0  0  0  0  0  0  0
   39.8040   33.3830   46.6120 C   0  0  0  0  0  0  0  0  0  0  0  0
   39.8710   34.0380   47.4910 H   0  0  0  0  0  0  0  0  0  0  0  0
   40.2490   34.0270   45.4480 C   0  0  0  0  0  0  0  0  0  0  0  0
   40.2460   33.3740   44.2230 C   0  0  0  0  0  0  0  0  0  0  0  0
   39.7940   32.0880   44.2120 C   0  0  0  0  0  0  0  0  0  0  0  0
   39.7430   31.3000   43.0720 C   0  0  0  0  0  0  0  0  0  0  0  0
   39.2950   29.9810   43.0540 C   0  0  0  0  0  0  0  0  0  0  0  0
   38.8680   29.3990   44.2470 C   0  0  0  0  0  0  0  0  0  0  0  0
   38.9110   30.1630   45.3890 C   0  0  0  0  0  0  0  0  0  0  0  0
   39.3600   31.4600   45.3580 C   0  0  0  0  0  0  0  0  0  0  0  0
   35.2770   29.5930   50.2080 C   0  0  0  0  0  0  0  0  0  0  0  0
   35.7910   30.4980   49.2380 C   0  0  0  0  0  0  0  0  0  0  0  0
   37.0280   31.0820   49.4930 C   0  0  0  0  0  0  0  0  0  0  0  0
   37.6800   30.7600   50.6540 N   0  0  0  0  0  0  0  0  0  0  0  0
   37.1640   29.8990   51.5490 C   0  0  0  0  0  0  0  0  0  0  0  0
   35.9570   29.3070   51.3340 N   0  0  0  0  0  0  0  0  0  0  0  0
   34.3190   29.1260   50.0310 H   0  0  0  0  0  0  0  0  0  0  0  0
   35.1630   30.6530   48.3730 H   0  0  0  0  0  0  0  0  0  0  0  0
   37.8180   29.7650   52.4040 H   0  0  0  0  0  0  0  0  0  0  0  0
  1  4  1  6  0  0  0
  1  2  1  0  0  0  0
  1 21  1  0  0  0  0
  2  5  1  0  0  0  0
  3  7  1  1  0  0  0
  3  1  1  0  0  0  0
  3  2  1  0  0  0  0
  6  2  1  0  0  0  0
  8  9  1  0  0  0  0
  8  3  1  0  0  0  0
  9 10  1  0  0  0  0
 11  9  2  0  0  0  0
 12 11  1  0  0  0  0
 13 12  2  0  0  0  0
 13 18  1  0  0  0  0
 14 13  1  0  0  0  0
 15 14  2  0  0  0  0
 15 16  1  0  0  0  0
 16 17  2  0  0  0  0
 18 17  1  0  0  0  0
 18  8  2  0  0  0  0
 19 24  1  0  0  0  0
 20 21  1  0  0  0  0
 20 19  2  0  0  0  0
 21 22  2  0  0  0  0
 22 23  1  0  0  0  0
 23 27  1  0  0  0  0
 24 23  2  0  0  0  0
 25 19  1  0  0  0  0
 26 20  1  0  0  0  0
M  END
>  <minimizedAffinity>
-6.22836447

>  <minimizedRMSD>
3.75245261

$$$$
