
 OpenBabel03272505273D

 33 36  0  0  0  0  0  0  0  0999 V2000
   37.4910   31.0350   46.9460 N   0  0  0  0  0  0  0  0  0  0  0  0
   37.0210   30.5760   45.7540 C   0  0  0  0  0  0  0  0  0  0  0  0
   37.5600   30.9850   44.5400 C   0  0  0  0  0  0  0  0  0  0  0  0
   38.6260   31.9030   44.5930 C   0  0  0  0  0  0  0  0  0  0  0  0
   39.1410   32.2980   43.5210 O   0  0  0  0  0  0  0  0  0  0  0  0
   39.0920   32.3590   45.7880 N   0  0  0  0  0  0  0  0  0  0  0  0
   38.4920   31.8930   46.8890 C   0  0  0  0  0  0  0  0  0  0  0  0
   38.9460   32.3340   47.9640 O   0  0  0  0  0  0  0  0  0  0  0  0
   36.1960   29.8650   45.7150 H   0  0  0  0  0  0  0  0  0  0  0  0
   37.0570   30.4960   43.2590 C   0  0  0  0  0  0  0  0  0  0  0  0
   36.0170   31.0850   42.5430 C   0  0  0  0  0  0  0  0  0  0  0  0
   35.5570   31.9680   42.9800 H   0  0  0  0  0  0  0  0  0  0  0  0
   35.6350   30.5150   41.3310 C   0  0  0  0  0  0  0  0  0  0  0  0
   36.2510   29.3990   40.8260 C   0  0  0  0  0  0  0  0  0  0  0  0
   37.2780   28.8390   41.5620 C   0  0  0  0  0  0  0  0  0  0  0  0
   37.9270   27.7070   41.0860 C   0  0  0  0  0  0  0  0  0  0  0  0
   38.9600   27.1100   41.7800 C   0  0  0  0  0  0  0  0  0  0  0  0
   39.3880   27.6250   42.9890 C   0  0  0  0  0  0  0  0  0  0  0  0
   38.7370   28.7480   43.4560 C   0  0  0  0  0  0  0  0  0  0  0  0
   37.7040   29.3560   42.7700 C   0  0  0  0  0  0  0  0  0  0  0  0
   37.1230   29.6440   50.3690 C   0  0  0  0  0  0  0  0  0  0  0  0
   37.6910   30.0530   49.1530 C   0  0  0  0  0  0  0  0  0  0  0  0
   36.9360   30.6170   48.1600 C   0  0  0  0  0  0  0  0  0  0  0  0
   35.5940   30.7750   48.3830 N   0  0  0  0  0  0  0  0  0  0  0  0
   35.0230   30.3830   49.5600 C   0  0  0  0  0  0  0  0  0  0  0  0
   35.7790   29.8210   50.5500 N   0  0  0  0  0  0  0  0  0  0  0  0
   37.6370   29.2020   51.1850 H   0  0  0  0  0  0  0  0  0  0  0  0
   38.7280   29.8460   49.1530 H   0  0  0  0  0  0  0  0  0  0  0  0
   33.9630   30.5050   49.7430 H   0  0  0  0  0  0  0  0  0  0  0  0
   40.1950   33.3020   45.8390 C   0  0  0  0  0  0  0  0  0  0  0  0
   40.0210   34.2670   44.9020 F   0  0  0  0  0  0  0  0  0  0  0  0
   41.4180   32.7060   45.5700 F   0  0  0  0  0  0  0  0  0  0  0  0
   40.2170   33.9030   47.0910 F   0  0  0  0  0  0  0  0  0  0  0  0
  1 23  1  0  0  0  0
  2  1  1  0  0  0  0
  3  4  1  0  0  0  0
  3  2  2  0  0  0  0
  4  6  1  0  0  0  0
  5  4  2  0  0  0  0
  6 30  1  0  0  0  0
  6  7  1  0  0  0  0
  7  1  1  0  0  0  0
  7  8  2  0  0  0  0
  9  2  1  0  0  0  0
 10  3  1  0  0  0  0
 11 12  1  0  0  0  0
 11 10  2  0  0  0  0
 13 11  1  0  0  0  0
 14 13  2  0  0  0  0
 14 15  1  0  0  0  0
 15 20  1  0  0  0  0
 16 15  2  0  0  0  0
 16 17  1  0  0  0  0
 17 18  2  0  0  0  0
 18 19  1  0  0  0  0
 20 10  1  0  0  0  0
 20 19  2  0  0  0  0
 21 26  1  0  0  0  0
 21 27  1  0  0  0  0
 22 28  1  0  0  0  0
 22 21  2  0  0  0  0
 23 24  2  0  0  0  0
 23 22  1  0  0  0  0
 24 25  1  0  0  0  0
 25 29  1  0  0  0  0
 25 26  2  0  0  0  0
 30 33  1  0  0  0  0
 31 30  1  0  0  0  0
 32 30  1  0  0  0  0
M  END
>  <minimizedAffinity>
-6.72890854

>  <minimizedRMSD>
1.91499901

$$$$
