
 OpenBabel03272502483D

 44 48  0  0  0  0  0  0  0  0999 V2000
   34.4680   27.5750   49.5300 Cl  0  0  0  0  0  0  0  0  0  0  0  0
   33.8630   28.5270   48.2080 C   0  0  0  0  0  0  0  0  0  0  0  0
   34.4480   29.7370   47.9230 C   0  0  0  0  0  0  0  0  0  0  0  0
   33.9990   30.5200   46.8860 C   0  0  0  0  0  0  0  0  0  0  0  0
   32.9500   30.1200   46.0970 C   0  0  0  0  0  0  0  0  0  0  0  0
   32.3430   28.9090   46.3580 C   0  0  0  0  0  0  0  0  0  0  0  0
   30.9880   28.2740   45.4250 Cl  0  0  0  0  0  0  0  0  0  0  0  0
   32.8220   28.1570   47.4030 C   0  0  0  0  0  0  0  0  0  0  0  0
   34.4510   31.4780   46.6510 H   0  0  0  0  0  0  0  0  0  0  0  0
   32.4160   30.8820   44.9870 C   0  0  0  0  0  0  0  0  0  0  0  0
   31.3780   31.7400   45.3550 C   0  0  0  0  0  0  0  0  0  0  0  0
   30.9980   31.8420   46.3450 H   0  0  0  0  0  0  0  0  0  0  0  0
   30.7880   32.5250   44.3610 C   0  0  0  0  0  0  0  0  0  0  0  0
   31.1590   32.5140   43.0320 C   0  0  0  0  0  0  0  0  0  0  0  0
   32.1960   31.6410   42.7240 C   0  0  0  0  0  0  0  0  0  0  0  0
   32.6470   31.5570   41.4030 C   0  0  0  0  0  0  0  0  0  0  0  0
   33.6910   30.6810   41.0870 C   0  0  0  0  0  0  0  0  0  0  0  0
   34.2850   29.8940   42.0760 C   0  0  0  0  0  0  0  0  0  0  0  0
   33.8370   29.9760   43.3980 C   0  0  0  0  0  0  0  0  0  0  0  0
   32.8110   30.8470   43.6690 C   0  0  0  0  0  0  0  0  0  0  0  0
   36.7540   30.2270   50.7420 C   0  0  0  0  0  0  0  0  0  0  0  0
   37.6990   31.1110   50.2310 C   0  0  0  0  0  0  0  0  0  0  0  0
   37.5250   31.5310   48.9070 C   0  0  0  0  0  0  0  0  0  0  0  0
   36.4620   31.0570   48.2120 N   0  0  0  0  0  0  0  0  0  0  0  0
   35.5730   30.2040   48.7430 C   0  0  0  0  0  0  0  0  0  0  0  0
   35.7300   29.7980   50.0050 N   0  0  0  0  0  0  0  0  0  0  0  0
   36.9160   29.9260   51.7570 H   0  0  0  0  0  0  0  0  0  0  0  0
   38.5650   31.5230   50.7310 H   0  0  0  0  0  0  0  0  0  0  0  0
   38.4490   32.4590   48.2550 C   0  0  0  0  0  0  0  0  0  0  0  0
   39.0270   33.5420   48.8720 C   0  0  0  0  0  0  0  0  0  0  0  0
   39.8390   34.2130   48.0070 N   0  0  0  0  0  0  0  0  0  0  0  0
   39.7710   33.5500   46.8480 C   0  0  0  0  0  0  0  0  0  0  0  0
   38.9400   32.5150   47.0240 N   0  0  0  0  0  0  0  0  0  0  0  0
   40.6700   32.6500   44.7850 C   0  0  0  0  0  0  0  0  0  0  0  0
   40.3620   31.5040   45.1730 O   0  0  0  0  0  0  0  0  0  0  0  0
   40.3940   33.7790   45.6050 N   0  0  0  0  0  0  0  0  0  0  0  0
   38.9300   33.9120   49.8900 H   0  0  0  0  0  0  0  0  0  0  0  0
   40.4120   35.0650   48.1650 H   0  0  0  0  0  0  0  0  0  0  0  0
   41.1610   32.7960   43.7980 H   0  0  0  0  0  0  0  0  0  0  0  0
   40.6320   34.7610   45.3270 H   0  0  0  0  0  0  0  0  0  0  0  0
   32.1760   26.8350   47.7060 C   0  0  0  0  0  0  0  0  0  0  0  0
   33.1400   25.8190   47.7480 F   0  0  0  0  0  0  0  0  0  0  0  0
   31.3570   26.4530   46.6340 F   0  0  0  0  0  0  0  0  0  0  0  0
   31.3900   26.8720   48.8230 F   0  0  0  0  0  0  0  0  0  0  0  0
  2  1  1  0  0  0  0
  3  2  1  0  0  0  0
  3 25  1  0  0  0  0
  4  3  2  0  0  0  0
  5  6  2  0  0  0  0
  5  4  1  0  0  0  0
  6  8  1  0  0  0  0
  7  6  1  0  0  0  0
  8 41  1  0  0  0  0
  8  2  2  0  0  0  0
  9  4  1  0  0  0  0
 10 11  1  0  0  0  0
 10  5  1  0  0  0  0
 11 12  1  0  0  0  0
 13 11  2  0  0  0  0
 14 13  1  0  0  0  0
 15 14  2  0  0  0  0
 15 20  1  0  0  0  0
 16 15  1  0  0  0  0
 17 16  2  0  0  0  0
 17 18  1  0  0  0  0
 18 19  2  0  0  0  0
 19 20  1  0  0  0  0
 20 10  2  0  0  0  0
 21 27  1  0  0  0  0
 22 28  1  0  0  0  0
 22 21  1  0  0  0  0
 23 22  2  0  0  0  0
 24 25  2  0  0  0  0
 24 23  1  0  0  0  0
 25 26  1  0  0  0  0
 26 21  2  0  0  0  0
 29 30  2  0  0  0  0
 29 23  1  0  0  0  0
 30 37  1  0  0  0  0
 31 38  1  0  0  0  0
 31 30  1  0  0  0  0
 32 33  2  0  0  0  0
 32 31  1  0  0  0  0
 33 29  1  0  0  0  0
 34 35  2  0  0  0  0
 34 36  1  0  0  0  0
 36 32  1  0  0  0  0
 39 34  1  0  0  0  0
 40 36  1  0  0  0  0
 41 42  1  0  0  0  0
 41 44  1  0  0  0  0
 43 41  1  0  0  0  0
M  END
>  <minimizedAffinity>
-7.06753397

>  <minimizedRMSD>
0.906236053

$$$$
