
 OpenBabel03262520203D

 23 25  0  0  0  0  0  0  0  0999 V2000
   40.7040   22.2260   35.8190 C   0  0  0  0  0  0  0  0  0  0  0  0
   40.2770   22.8100   37.0510 C   0  0  0  0  0  0  0  0  0  0  0  0
   38.9190   23.0730   37.1770 C   0  0  0  0  0  0  0  0  0  0  0  0
   38.1500   22.7490   36.1220 N   0  0  0  0  0  0  0  0  0  0  0  0
   38.5380   22.2050   34.9720 C   0  0  0  0  0  0  0  0  0  0  0  0
   39.8340   21.9550   34.8540 N   0  0  0  0  0  0  0  0  0  0  0  0
   41.7480   21.9960   35.6600 H   0  0  0  0  0  0  0  0  0  0  0  0
   40.9830   23.0260   37.8270 H   0  0  0  0  0  0  0  0  0  0  0  0
   37.4200   21.9940   34.0600 C   0  0  0  0  0  0  0  0  0  0  0  0
   36.5530   20.9280   34.1870 C   0  0  0  0  0  0  0  0  0  0  0  0
   36.6860   20.1940   34.9980 H   0  0  0  0  0  0  0  0  0  0  0  0
   35.4890   20.6870   33.3580 C   0  0  0  0  0  3  0  0  0  0  0  0
   35.2220   21.5210   32.3220 C   0  0  0  0  0  3  0  0  0  0  0  0
   36.0450   22.5950   32.1430 C   0  0  0  0  0  0  0  0  0  0  0  0
   35.7640   23.4420   31.0840 C   0  0  0  0  0  3  0  0  0  0  0  0
   36.5400   24.5460   30.8330 C   0  0  0  0  0  3  0  0  0  0  0  0
   37.6170   24.7660   31.6960 C   0  0  0  0  0  3  0  0  0  0  0  0
   37.8590   23.8970   32.7370 C   0  0  0  0  0  3  0  0  0  0  0  0
   37.1000   22.8030   32.9950 C   0  0  0  0  0  0  0  0  0  0  0  0
   38.3870   23.6820   38.4280 C   0  0  0  0  0  0  0  0  0  0  0  0
   37.3310   22.8740   38.7870 F   0  0  0  0  0  0  0  0  0  0  0  0
   39.2990   23.7140   39.4460 F   0  0  0  0  0  0  0  0  0  0  0  0
   37.9110   24.9700   38.2060 F   0  0  0  0  0  0  0  0  0  0  0  0
  1  2  1  0  0  0  0
  2  3  2  0  0  0  0
  2  8  1  0  0  0  0
  3 20  1  0  0  0  0
  4  3  1  0  0  0  0
  5  4  2  0  0  0  0
  6  5  1  0  0  0  0
  6  1  2  0  0  0  0
  7  1  1  0  0  0  0
  9 10  1  0  0  0  0
  9  5  1  0  0  0  0
 10 11  1  0  0  0  0
 12 10  2  0  0  0  0
 13 12  1  0  0  0  0
 14 13  2  0  0  0  0
 14 19  1  0  0  0  0
 15 14  1  0  0  0  0
 16 15  2  0  0  0  0
 16 17  1  0  0  0  0
 17 18  2  0  0  0  0
 18 19  1  0  0  0  0
 19  9  2  0  0  0  0
 20 21  1  0  0  0  0
 20 22  1  0  0  0  0
 23 20  1  0  0  0  0
M  END
>  <minimizedAffinity>
-6.07587671

$$$$

 OpenBabel03262520203D

 23 25  0  0  0  0  0  0  0  0999 V2000
   40.7110   22.0950   35.7470 C   0  0  0  0  0  0  0  0  0  0  0  0
   40.2020   22.5340   37.0080 C   0  0  0  0  0  0  0  0  0  0  0  0
   38.9610   23.1590   36.9960 C   0  0  0  0  0  0  0  0  0  0  0  0
   38.3710   23.2850   35.7930 N   0  0  0  0  0  0  0  0  0  0  0  0
   38.8370   22.8800   34.6150 C   0  0  0  0  0  0  0  0  0  0  0  0
   40.0200   22.2830   34.6290 N   0  0  0  0  0  0  0  0  0  0  0  0
   41.6710   21.6020   35.6910 H   0  0  0  0  0  0  0  0  0  0  0  0
   40.7630   22.3790   37.9080 H   0  0  0  0  0  0  0  0  0  0  0  0
   37.9160   23.1870   33.5270 C   0  0  0  0  0  0  0  0  0  0  0  0
   37.9120   24.4080   32.8840 C   0  0  0  0  0  0  0  0  0  0  0  0
   38.6190   25.1990   33.1840 H   0  0  0  0  0  0  0  0  0  0  0  0
   37.0690   24.7450   31.8580 C   0  0  0  0  0  3  0  0  0  0  0  0
   36.1530   23.8560   31.4000 C   0  0  0  0  0  3  0  0  0  0  0  0
   36.1070   22.6290   31.9960 C   0  0  0  0  0  0  0  0  0  0  0  0
   35.1700   21.7250   31.5210 C   0  0  0  0  0  3  0  0  0  0  0  0
   35.0580   20.4690   32.0620 C   0  0  0  0  0  3  0  0  0  0  0  0
   35.9320   20.1550   33.1070 C   0  0  0  0  0  3  0  0  0  0  0  0
   36.8480   21.0840   33.5470 C   0  0  0  0  0  3  0  0  0  0  0  0
   36.9690   22.3280   33.0210 C   0  0  0  0  0  0  0  0  0  0  0  0
   38.3570   23.6470   38.2660 C   0  0  0  0  0  0  0  0  0  0  0  0
   37.9620   24.9380   37.9890 F   0  0  0  0  0  0  0  0  0  0  0  0
   37.2710   22.9180   38.6660 F   0  0  0  0  0  0  0  0  0  0  0  0
   39.2890   23.6760   39.2970 F   0  0  0  0  0  0  0  0  0  0  0  0
  1  2  1  0  0  0  0
  2  8  1  0  0  0  0
  3  2  2  0  0  0  0
  3 20  1  0  0  0  0
  4  3  1  0  0  0  0
  5  6  1  0  0  0  0
  5  4  2  0  0  0  0
  6  1  2  0  0  0  0
  7  1  1  0  0  0  0
  9  5  1  0  0  0  0
 10 11  1  0  0  0  0
 10  9  2  0  0  0  0
 12 10  1  0  0  0  0
 13 12  2  0  0  0  0
 13 14  1  0  0  0  0
 14 19  1  0  0  0  0
 15 14  2  0  0  0  0
 15 16  1  0  0  0  0
 16 17  2  0  0  0  0
 17 18  1  0  0  0  0
 19  9  1  0  0  0  0
 19 18  2  0  0  0  0
 20 22  1  0  0  0  0
 20 23  1  0  0  0  0
 21 20  1  0  0  0  0
M  END
>  <minimizedAffinity>
-5.95718288

$$$$

 OpenBabel03262520203D

 23 25  0  0  0  0  0  0  0  0999 V2000
   37.3460   27.4390   33.1950 C   0  0  0  0  0  0  0  0  0  0  0  0
   36.5030   26.7570   32.2640 C   0  0  0  0  0  0  0  0  0  0  0  0
   36.6540   25.3790   32.1820 C   0  0  0  0  0  0  0  0  0  0  0  0
   37.5820   24.8330   32.9890 N   0  0  0  0  0  0  0  0  0  0  0  0
   38.3710   25.4600   33.8580 C   0  0  0  0  0  0  0  0  0  0  0  0
   38.2240   26.7750   33.9350 N   0  0  0  0  0  0  0  0  0  0  0  0
   37.2760   28.5120   33.3060 H   0  0  0  0  0  0  0  0  0  0  0  0
   35.7950   27.2980   31.6690 H   0  0  0  0  0  0  0  0  0  0  0  0
   39.2540   24.5360   34.5610 C   0  0  0  0  0  0  0  0  0  0  0  0
   40.3530   23.9610   33.9590 C   0  0  0  0  0  0  0  0  0  0  0  0
   40.5970   24.1880   32.9080 H   0  0  0  0  0  0  0  0  0  0  0  0
   41.2120   23.0890   34.5760 C   0  0  0  0  0  3  0  0  0  0  0  0
   41.0160   22.7310   35.8700 C   0  0  0  0  0  3  0  0  0  0  0  0
   39.9450   23.2680   36.5220 C   0  0  0  0  0  0  0  0  0  0  0  0
   39.7530   22.8990   37.8430 C   0  0  0  0  0  3  0  0  0  0  0  0
   38.7010   23.3930   38.5730 C   0  0  0  0  0  3  0  0  0  0  0  0
   37.8430   24.2800   37.9160 C   0  0  0  0  0  3  0  0  0  0  0  0
   38.0710   24.6190   36.6010 C   0  0  0  0  0  3  0  0  0  0  0  0
   39.1070   24.1380   35.8700 C   0  0  0  0  0  0  0  0  0  0  0  0
   35.8160   24.5890   31.2380 C   0  0  0  0  0  0  0  0  0  0  0  0
   36.7170   24.0280   30.3590 F   0  0  0  0  0  0  0  0  0  0  0  0
   35.1010   23.5950   31.8480 F   0  0  0  0  0  0  0  0  0  0  0  0
   34.9430   25.4040   30.5260 F   0  0  0  0  0  0  0  0  0  0  0  0
  1  7  1  0  0  0  0
  1  6  1  0  0  0  0
  2  1  2  0  0  0  0
  3  2  1  0  0  0  0
  3  4  2  0  0  0  0
  4  5  1  0  0  0  0
  5  6  2  0  0  0  0
  5  9  1  0  0  0  0
  8  2  1  0  0  0  0
  9 19  1  0  0  0  0
 10  9  2  0  0  0  0
 10 12  1  0  0  0  0
 11 10  1  0  0  0  0
 12 13  2  0  0  0  0
 13 14  1  0  0  0  0
 14 15  1  0  0  0  0
 15 16  2  0  0  0  0
 17 16  1  0  0  0  0
 18 17  2  0  0  0  0
 19 14  2  0  0  0  0
 19 18  1  0  0  0  0
 20 22  1  0  0  0  0
 20  3  1  0  0  0  0
 21 20  1  0  0  0  0
 23 20  1  0  0  0  0
M  END
>  <minimizedAffinity>
-5.83488512

$$$$

 OpenBabel03262520203D

 23 25  0  0  0  0  0  0  0  0999 V2000
   38.7510   26.8330   32.8570 C   0  0  0  0  0  0  0  0  0  0  0  0
   37.8130   26.1620   32.0140 C   0  0  0  0  0  0  0  0  0  0  0  0
   37.2420   25.0010   32.5190 C   0  0  0  0  0  0  0  0  0  0  0  0
   37.6350   24.6320   33.7520 N   0  0  0  0  0  0  0  0  0  0  0  0
   38.5070   25.2510   34.5440 C   0  0  0  0  0  0  0  0  0  0  0  0
   39.0510   26.3580   34.0600 N   0  0  0  0  0  0  0  0  0  0  0  0
   39.2300   27.7430   32.5210 H   0  0  0  0  0  0  0  0  0  0  0  0
   37.5740   26.5510   31.0450 H   0  0  0  0  0  0  0  0  0  0  0  0
   38.6830   24.5560   35.8140 C   0  0  0  0  0  0  0  0  0  0  0  0
   37.8600   24.7790   36.8990 C   0  0  0  0  0  0  0  0  0  0  0  0
   37.0320   25.5030   36.8320 H   0  0  0  0  0  0  0  0  0  0  0  0
   37.9840   24.1520   38.1110 C   0  0  0  0  0  3  0  0  0  0  0  0
   38.9660   23.2390   38.3160 C   0  0  0  0  0  3  0  0  0  0  0  0
   39.8130   22.9740   37.2800 C   0  0  0  0  0  0  0  0  0  0  0  0
   40.8120   22.0400   37.4970 C   0  0  0  0  0  3  0  0  0  0  0  0
   41.7060   21.7130   36.5080 C   0  0  0  0  0  3  0  0  0  0  0  0
   41.5540   22.3690   35.2830 C   0  0  0  0  0  3  0  0  0  0  0  0
   40.5460   23.2920   35.1120 C   0  0  0  0  0  3  0  0  0  0  0  0
   39.6570   23.6220   36.0800 C   0  0  0  0  0  0  0  0  0  0  0  0
   36.2540   24.2380   31.7070 C   0  0  0  0  0  0  0  0  0  0  0  0
   36.8290   24.1440   30.4580 F   0  0  0  0  0  0  0  0  0  0  0  0
   36.0100   22.9820   32.1890 F   0  0  0  0  0  0  0  0  0  0  0  0
   35.0480   24.9230   31.5950 F   0  0  0  0  0  0  0  0  0  0  0  0
  1  6  1  0  0  0  0
  2  3  1  0  0  0  0
  2  1  2  0  0  0  0
  3  4  2  0  0  0  0
  4  5  1  0  0  0  0
  5  9  1  0  0  0  0
  6  5  2  0  0  0  0
  7  1  1  0  0  0  0
  8  2  1  0  0  0  0
  9 19  2  0  0  0  0
  9 10  1  0  0  0  0
 10 12  2  0  0  0  0
 11 10  1  0  0  0  0
 12 13  1  0  0  0  0
 14 15  1  0  0  0  0
 14 13  2  0  0  0  0
 16 15  2  0  0  0  0
 17 16  1  0  0  0  0
 18 17  2  0  0  0  0
 18 19  1  0  0  0  0
 19 14  1  0  0  0  0
 20 22  1  0  0  0  0
 20  3  1  0  0  0  0
 21 20  1  0  0  0  0
 23 20  1  0  0  0  0
M  END
>  <minimizedAffinity>
-5.78710032

$$$$

 OpenBabel03262520203D

 23 25  0  0  0  0  0  0  0  0999 V2000
   40.1570   23.2240   35.2980 C   0  0  0  0  0  0  0  0  0  0  0  0
   39.7300   23.0600   36.6520 C   0  0  0  0  0  0  0  0  0  0  0  0
   38.7740   23.9540   37.1150 C   0  0  0  0  0  0  0  0  0  0  0  0
   38.3520   24.8820   36.2360 N   0  0  0  0  0  0  0  0  0  0  0  0
   38.7430   25.0410   34.9750 C   0  0  0  0  0  0  0  0  0  0  0  0
   39.6560   24.1870   34.5350 N   0  0  0  0  0  0  0  0  0  0  0  0
   40.8990   22.5580   34.8790 H   0  0  0  0  0  0  0  0  0  0  0  0
   40.1380   22.2800   37.2630 H   0  0  0  0  0  0  0  0  0  0  0  0
   38.0630   26.1570   34.3270 C   0  0  0  0  0  0  0  0  0  0  0  0
   37.0930   26.9020   34.9640 C   0  0  0  0  0  0  0  0  0  0  0  0
   36.8010   26.6690   36.0010 H   0  0  0  0  0  0  0  0  0  0  0  0
   36.4260   27.9580   34.4000 C   0  0  0  0  0  3  0  0  0  0  0  0
   36.6980   28.3410   33.1270 C   0  0  0  0  0  3  0  0  0  0  0  0
   37.6500   27.6430   32.4430 C   0  0  0  0  0  0  0  0  0  0  0  0
   37.9230   28.0420   31.1450 C   0  0  0  0  0  3  0  0  0  0  0  0
   38.8660   27.3940   30.3870 C   0  0  0  0  0  3  0  0  0  0  0  0
   39.5290   26.3220   30.9910 C   0  0  0  0  0  3  0  0  0  0  0  0
   39.2250   25.9600   32.2840 C   0  0  0  0  0  3  0  0  0  0  0  0
   38.2960   26.5910   33.0430 C   0  0  0  0  0  0  0  0  0  0  0  0
   38.2720   23.8560   38.5140 C   0  0  0  0  0  0  0  0  0  0  0  0
   37.7180   25.0910   38.7720 F   0  0  0  0  0  0  0  0  0  0  0  0
   37.3210   22.8890   38.6830 F   0  0  0  0  0  0  0  0  0  0  0  0
   39.3100   23.6340   39.4130 F   0  0  0  0  0  0  0  0  0  0  0  0
  1  2  1  0  0  0  0
  2  3  2  0  0  0  0
  2  8  1  0  0  0  0
  3 20  1  0  0  0  0
  4  3  1  0  0  0  0
  5  4  2  0  0  0  0
  6  5  1  0  0  0  0
  6  1  2  0  0  0  0
  7  1  1  0  0  0  0
  9 10  1  0  0  0  0
  9  5  1  0  0  0  0
 10 11  1  0  0  0  0
 12 10  2  0  0  0  0
 13 12  1  0  0  0  0
 14 19  1  0  0  0  0
 14 13  2  0  0  0  0
 15 14  1  0  0  0  0
 16 17  1  0  0  0  0
 16 15  2  0  0  0  0
 17 18  2  0  0  0  0
 18 19  1  0  0  0  0
 19  9  2  0  0  0  0
 20 22  1  0  0  0  0
 20 21  1  0  0  0  0
 20 23  1  0  0  0  0
M  END
>  <minimizedAffinity>
-5.78001213

$$$$

 OpenBabel03262520203D

 23 25  0  0  0  0  0  0  0  0999 V2000
   33.0500   29.8450   33.9380 C   0  0  0  0  0  0  0  0  0  0  0  0
   33.4650   30.8440   34.8730 C   0  0  0  0  0  0  0  0  0  0  0  0
   34.8330   30.9740   35.0770 C   0  0  0  0  0  0  0  0  0  0  0  0
   35.6220   30.1430   34.3710 N   0  0  0  0  0  0  0  0  0  0  0  0
   35.2440   29.2120   33.4990 C   0  0  0  0  0  0  0  0  0  0  0  0
   33.9380   29.0890   33.3060 N   0  0  0  0  0  0  0  0  0  0  0  0
   31.9980   29.6960   33.7360 H   0  0  0  0  0  0  0  0  0  0  0  0
   32.7430   31.4520   35.3800 H   0  0  0  0  0  0  0  0  0  0  0  0
   36.3820   28.5040   32.9260 C   0  0  0  0  0  0  0  0  0  0  0  0
   36.6010   28.4360   31.5650 C   0  0  0  0  0  0  0  0  0  0  0  0
   35.9070   28.9250   30.8630 H   0  0  0  0  0  0  0  0  0  0  0  0
   37.6540   27.7850   30.9780 C   0  0  0  0  0  3  0  0  0  0  0  0
   38.5780   27.1450   31.7390 C   0  0  0  0  0  3  0  0  0  0  0  0
   38.4160   27.1760   33.0930 C   0  0  0  0  0  0  0  0  0  0  0  0
   39.3640   26.5220   33.8630 C   0  0  0  0  0  3  0  0  0  0  0  0
   39.2780   26.5050   35.2320 C   0  0  0  0  0  3  0  0  0  0  0  0
   38.1930   27.1780   35.8010 C   0  0  0  0  0  3  0  0  0  0  0  0
   37.2740   27.8150   34.9980 C   0  0  0  0  0  3  0  0  0  0  0  0
   37.3480   27.8390   33.6440 C   0  0  0  0  0  0  0  0  0  0  0  0
   35.3530   31.9890   36.0330 C   0  0  0  0  0  0  0  0  0  0  0  0
   36.7070   31.7420   36.1010 F   0  0  0  0  0  0  0  0  0  0  0  0
   35.1480   33.2780   35.6230 F   0  0  0  0  0  0  0  0  0  0  0  0
   34.8040   31.8250   37.3010 F   0  0  0  0  0  0  0  0  0  0  0  0
  1  2  1  0  0  0  0
  2  3  2  0  0  0  0
  2  8  1  0  0  0  0
  3 20  1  0  0  0  0
  4  3  1  0  0  0  0
  5  4  2  0  0  0  0
  6  5  1  0  0  0  0
  6  1  2  0  0  0  0
  7  1  1  0  0  0  0
  9  5  1  0  0  0  0
  9 19  1  0  0  0  0
 10  9  2  0  0  0  0
 11 10  1  0  0  0  0
 12 10  1  0  0  0  0
 12 13  2  0  0  0  0
 13 14  1  0  0  0  0
 14 19  2  0  0  0  0
 14 15  1  0  0  0  0
 15 16  2  0  0  0  0
 16 17  1  0  0  0  0
 18 17  2  0  0  0  0
 19 18  1  0  0  0  0
 20 21  1  0  0  0  0
 20 23  1  0  0  0  0
 22 20  1  0  0  0  0
M  END
>  <minimizedAffinity>
-5.75050402

$$$$

 OpenBabel03262520203D

 23 25  0  0  0  0  0  0  0  0999 V2000
   36.7780   23.6270   31.9070 C   0  0  0  0  0  0  0  0  0  0  0  0
   35.9440   22.4720   31.7970 C   0  0  0  0  0  0  0  0  0  0  0  0
   36.2540   21.4000   32.6230 C   0  0  0  0  0  0  0  0  0  0  0  0
   37.3100   21.5640   33.4410 N   0  0  0  0  0  0  0  0  0  0  0  0
   38.0910   22.6350   33.5500 C   0  0  0  0  0  0  0  0  0  0  0  0
   37.7930   23.6570   32.7610 N   0  0  0  0  0  0  0  0  0  0  0  0
   36.5880   24.4950   31.2910 H   0  0  0  0  0  0  0  0  0  0  0  0
   35.1250   22.4530   31.1060 H   0  0  0  0  0  0  0  0  0  0  0  0
   39.1390   22.4490   34.5470 C   0  0  0  0  0  0  0  0  0  0  0  0
   40.3750   21.9240   34.2310 C   0  0  0  0  0  0  0  0  0  0  0  0
   40.6060   21.6240   33.1960 H   0  0  0  0  0  0  0  0  0  0  0  0
   41.3910   21.7300   35.1300 C   0  0  0  0  0  3  0  0  0  0  0  0
   41.2270   22.0600   36.4350 C   0  0  0  0  0  3  0  0  0  0  0  0
   40.0250   22.5850   36.8110 C   0  0  0  0  0  0  0  0  0  0  0  0
   39.8660   22.9210   38.1450 C   0  0  0  0  0  3  0  0  0  0  0  0
   38.6900   23.4560   38.6080 C   0  0  0  0  0  3  0  0  0  0  0  0
   37.6720   23.6420   37.6670 C   0  0  0  0  0  3  0  0  0  0  0  0
   37.8740   23.2940   36.3500 C   0  0  0  0  0  3  0  0  0  0  0  0
   39.0310   22.7650   35.8810 C   0  0  0  0  0  0  0  0  0  0  0  0
   35.4370   20.1560   32.5730 C   0  0  0  0  0  0  0  0  0  0  0  0
   35.5410   19.6200   33.8390 F   0  0  0  0  0  0  0  0  0  0  0  0
   34.1190   20.3820   32.2850 F   0  0  0  0  0  0  0  0  0  0  0  0
   35.9510   19.2440   31.6570 F   0  0  0  0  0  0  0  0  0  0  0  0
  1  6  1  0  0  0  0
  2  1  2  0  0  0  0
  2  3  1  0  0  0  0
  3  4  2  0  0  0  0
  4  5  1  0  0  0  0
  5  9  1  0  0  0  0
  6  5  2  0  0  0  0
  7  1  1  0  0  0  0
  8  2  1  0  0  0  0
  9 19  1  0  0  0  0
 10  9  2  0  0  0  0
 10 12  1  0  0  0  0
 11 10  1  0  0  0  0
 12 13  2  0  0  0  0
 13 14  1  0  0  0  0
 14 15  1  0  0  0  0
 15 16  2  0  0  0  0
 17 16  1  0  0  0  0
 18 17  2  0  0  0  0
 19 18  1  0  0  0  0
 19 14  2  0  0  0  0
 20  3  1  0  0  0  0
 20 21  1  0  0  0  0
 22 20  1  0  0  0  0
 23 20  1  0  0  0  0
M  END
>  <minimizedAffinity>
-5.72138119

$$$$

 OpenBabel03262520203D

 23 25  0  0  0  0  0  0  0  0999 V2000
   35.9020   28.4240   32.0630 C   0  0  0  0  0  0  0  0  0  0  0  0
   36.7730   27.4710   32.6760 C   0  0  0  0  0  0  0  0  0  0  0  0
   37.0030   27.6240   34.0370 C   0  0  0  0  0  0  0  0  0  0  0  0
   36.3790   28.6560   34.6340 N   0  0  0  0  0  0  0  0  0  0  0  0
   35.5660   29.5470   34.0710 C   0  0  0  0  0  0  0  0  0  0  0  0
   35.3480   29.3990   32.7720 N   0  0  0  0  0  0  0  0  0  0  0  0
   35.6830   28.3580   31.0060 H   0  0  0  0  0  0  0  0  0  0  0  0
   37.2170   26.6860   32.0980 H   0  0  0  0  0  0  0  0  0  0  0  0
   35.0730   30.5240   35.0350 C   0  0  0  0  0  0  0  0  0  0  0  0
   35.8630   31.5460   35.5210 C   0  0  0  0  0  0  0  0  0  0  0  0
   36.9080   31.6510   35.1870 H   0  0  0  0  0  0  0  0  0  0  0  0
   35.4480   32.4880   36.4260 C   0  0  0  0  0  3  0  0  0  0  0  0
   34.1810   32.4630   36.9110 C   0  0  0  0  0  3  0  0  0  0  0  0
   33.3500   31.4760   36.4680 C   0  0  0  0  0  0  0  0  0  0  0  0
   32.0580   31.4590   36.9670 C   0  0  0  0  0  3  0  0  0  0  0  0
   31.1580   30.5020   36.5730 C   0  0  0  0  0  3  0  0  0  0  0  0
   31.6110   29.5550   35.6500 C   0  0  0  0  0  3  0  0  0  0  0  0
   32.9040   29.6100   35.1800 C   0  0  0  0  0  3  0  0  0  0  0  0
   33.8030   30.5510   35.5610 C   0  0  0  0  0  0  0  0  0  0  0  0
   37.8990   26.6770   34.7560 C   0  0  0  0  0  0  0  0  0  0  0  0
   38.6940   27.4800   35.5440 F   0  0  0  0  0  0  0  0  0  0  0  0
   37.2250   25.7890   35.5490 F   0  0  0  0  0  0  0  0  0  0  0  0
   38.7090   25.9710   33.8730 F   0  0  0  0  0  0  0  0  0  0  0  0
  1  2  2  0  0  0  0
  1  6  1  0  0  0  0
  2  3  1  0  0  0  0
  3  4  2  0  0  0  0
  3 20  1  0  0  0  0
  5  4  1  0  0  0  0
  5  9  1  0  0  0  0
  6  5  2  0  0  0  0
  7  1  1  0  0  0  0
  8  2  1  0  0  0  0
  9 10  2  0  0  0  0
  9 19  1  0  0  0  0
 10 12  1  0  0  0  0
 11 10  1  0  0  0  0
 12 13  2  0  0  0  0
 14 13  1  0  0  0  0
 14 15  1  0  0  0  0
 16 15  2  0  0  0  0
 17 16  1  0  0  0  0
 18 19  1  0  0  0  0
 18 17  2  0  0  0  0
 19 14  2  0  0  0  0
 20 21  1  0  0  0  0
 20 22  1  0  0  0  0
 23 20  1  0  0  0  0
M  END
>  <minimizedAffinity>
-5.69559908

$$$$

 OpenBabel03262520203D

 23 25  0  0  0  0  0  0  0  0999 V2000
   37.1480   23.6300   32.2150 C   0  0  0  0  0  0  0  0  0  0  0  0
   36.3890   22.4390   31.9990 C   0  0  0  0  0  0  0  0  0  0  0  0
   36.3740   21.5140   33.0350 C   0  0  0  0  0  0  0  0  0  0  0  0
   37.0800   21.8390   34.1340 N   0  0  0  0  0  0  0  0  0  0  0  0
   37.7880   22.9460   34.3440 C   0  0  0  0  0  0  0  0  0  0  0  0
   37.8000   23.8270   33.3540 N   0  0  0  0  0  0  0  0  0  0  0  0
   37.1970   24.3890   31.4470 H   0  0  0  0  0  0  0  0  0  0  0  0
   35.8630   22.2850   31.0780 H   0  0  0  0  0  0  0  0  0  0  0  0
   38.4190   22.9510   35.6590 C   0  0  0  0  0  0  0  0  0  0  0  0
   37.7640   23.3900   36.7910 C   0  0  0  0  0  0  0  0  0  0  0  0
   36.7260   23.7550   36.7290 H   0  0  0  0  0  0  0  0  0  0  0  0
   38.3110   23.4150   38.0470 C   0  0  0  0  0  3  0  0  0  0  0  0
   39.5840   22.9900   38.2510 C   0  0  0  0  0  3  0  0  0  0  0  0
   40.2850   22.5430   37.1690 C   0  0  0  0  0  0  0  0  0  0  0  0
   41.5820   22.1100   37.3850 C   0  0  0  0  0  3  0  0  0  0  0  0
   42.3570   21.6440   36.3530 C   0  0  0  0  0  3  0  0  0  0  0  0
   41.7700   21.6310   35.0840 C   0  0  0  0  0  3  0  0  0  0  0  0
   40.4770   22.0710   34.9150 C   0  0  0  0  0  3  0  0  0  0  0  0
   39.7010   22.5340   35.9260 C   0  0  0  0  0  0  0  0  0  0  0  0
   35.6090   20.2440   32.8940 C   0  0  0  0  0  0  0  0  0  0  0  0
   35.4540   19.7860   34.1850 F   0  0  0  0  0  0  0  0  0  0  0  0
   34.3780   20.4130   32.3230 F   0  0  0  0  0  0  0  0  0  0  0  0
   36.3210   19.2970   32.1660 F   0  0  0  0  0  0  0  0  0  0  0  0
  1  6  1  0  0  0  0
  2  1  2  0  0  0  0
  2  3  1  0  0  0  0
  3  4  2  0  0  0  0
  4  5  1  0  0  0  0
  5  9  1  0  0  0  0
  6  5  2  0  0  0  0
  7  1  1  0  0  0  0
  8  2  1  0  0  0  0
  9 19  2  0  0  0  0
  9 10  1  0  0  0  0
 10 12  2  0  0  0  0
 11 10  1  0  0  0  0
 12 13  1  0  0  0  0
 14 15  1  0  0  0  0
 14 13  2  0  0  0  0
 16 15  2  0  0  0  0
 17 16  1  0  0  0  0
 18 17  2  0  0  0  0
 18 19  1  0  0  0  0
 19 14  1  0  0  0  0
 20  3  1  0  0  0  0
 20 21  1  0  0  0  0
 22 20  1  0  0  0  0
 23 20  1  0  0  0  0
M  END
>  <minimizedAffinity>
-5.66857338

$$$$
