
 OpenBabel03272510273D

 47 52  0  0  1  0  0  0  0  0999 V2000
   39.6730   31.7850   41.8980 N   0  0  0  0  0  0  0  0  0  0  0  0
   39.3390   33.2070   41.9820 C   0  0  1  0  0  0  0  0  0  0  0  0
   37.9710   33.4190   41.5340 C   0  0  0  0  0  0  0  0  0  0  0  0
   37.8660   33.0650   40.1800 O   0  0  0  0  0  0  0  0  0  0  0  0
   38.2930   31.7890   39.8810 C   0  0  0  0  0  0  0  0  0  0  0  0
   39.6590   31.5100   40.4770 C   0  0  2  0  0  0  0  0  0  0  0  0
   38.9750   31.1620   42.2820 H   0  0  0  0  0  0  0  0  0  0  0  0
   40.0530   33.7110   41.3040 H   0  0  0  0  0  0  0  0  0  0  0  0
   37.7950   34.5400   41.5200 H   0  0  0  0  0  0  0  0  0  0  0  0
   37.1080   32.9910   41.9700 H   0  0  0  0  0  0  0  0  0  0  0  0
   38.3500   31.7150   38.7910 H   0  0  0  0  0  0  0  0  0  0  0  0
   37.5840   31.0650   40.3400 H   0  0  0  0  0  0  0  0  0  0  0  0
   40.3710   32.2610   40.0690 H   0  0  0  0  0  0  0  0  0  0  0  0
   40.0530   30.1200   40.2680 C   0  0  0  0  0  0  0  0  0  0  0  0
   39.3600   28.9960   40.6270 C   0  0  0  0  0  0  0  0  0  0  0  0
   38.4040   29.0910   41.1190 H   0  0  0  0  0  0  0  0  0  0  0  0
   39.7550   27.6910   40.4260 C   0  0  0  0  0  3  0  0  0  0  0  0
   40.9620   27.4510   39.8040 C   0  0  0  0  0  3  0  0  0  0  0  0
   41.7090   28.5450   39.4160 C   0  0  0  0  0  0  0  0  0  0  0  0
   42.9040   28.2510   38.7980 C   0  0  0  0  0  3  0  0  0  0  0  0
   43.7180   29.2810   38.3730 C   0  0  0  0  0  3  0  0  0  0  0  0
   43.3180   30.5860   38.5760 C   0  0  0  0  0  3  0  0  0  0  0  0
   42.1270   30.8060   39.1930 C   0  0  0  0  0  3  0  0  0  0  0  0
   41.2530   29.8420   39.6490 C   0  0  0  0  0  0  0  0  0  0  0  0
   39.4940   33.5720   43.3430 O   0  0  0  0  0  0  0  0  0  0  0  0
   36.2220   30.2030   46.9130 C   0  0  0  0  0  0  0  0  0  0  0  0
   37.0650   30.7380   47.8690 C   0  0  0  0  0  0  0  0  0  0  0  0
   38.0780   31.6430   47.5170 C   0  0  0  0  0  0  0  0  0  0  0  0
   38.1650   31.9530   46.1660 C   0  0  0  0  0  0  0  0  0  0  0  0
   39.0630   32.8100   45.5780 N   0  0  0  0  0  0  0  0  0  0  0  0
   38.7780   32.8070   44.2640 C   0  0  0  0  0  0  0  0  0  0  0  0
   37.7680   32.0020   44.0330 N   0  0  0  0  0  0  0  0  0  0  0  0
   37.3510   31.4490   45.1830 C   0  0  0  0  0  0  0  0  0  0  0  0
   36.3520   30.5470   45.5740 C   0  0  0  0  0  0  0  0  0  0  0  0
   35.4300   29.5050   47.1350 H   0  0  0  0  0  0  0  0  0  0  0  0
   38.7410   32.0650   48.2540 H   0  0  0  0  0  0  0  0  0  0  0  0
   39.8160   33.3510   46.0770 H   0  0  0  0  0  0  0  0  0  0  0  0
   35.7070   30.1450   44.8040 H   0  0  0  0  0  0  0  0  0  0  0  0
   37.4410   30.1360   51.5660 C   0  0  0  0  0  0  0  0  0  0  0  0
   37.7580   30.5760   50.2840 C   0  0  0  0  0  0  0  0  0  0  0  0
   36.8830   30.3460   49.2530 C   0  0  0  0  0  0  0  0  0  0  0  0
   35.7140   29.6790   49.5560 N   0  0  0  0  0  0  0  0  0  0  0  0
   35.4150   29.2570   50.8010 C   0  0  0  0  0  0  0  0  0  0  0  0
   36.2660   29.4850   51.7830 N   0  0  0  0  0  0  0  0  0  0  0  0
   38.1540   30.3340   52.3520 H   0  0  0  0  0  0  0  0  0  0  0  0
   38.6650   31.0920   50.0500 H   0  0  0  0  0  0  0  0  0  0  0  0
   34.4670   28.7410   50.9360 H   0  0  0  0  0  0  0  0  0  0  0  0
  1  2  1  0  0  0  0
  1  7  1  0  0  0  0
  2  8  1  6  0  0  0
  2 25  1  0  0  0  0
  3 10  1  0  0  0  0
  3  2  1  0  0  0  0
  4  3  1  0  0  0  0
  5  4  1  0  0  0  0
  5 12  1  0  0  0  0
  5  6  1  0  0  0  0
  6 13  1  6  0  0  0
  6  1  1  0  0  0  0
  9  3  1  0  0  0  0
 11  5  1  0  0  0  0
 14  6  1  0  0  0  0
 14 15  1  0  0  0  0
 15 16  1  0  0  0  0
 17 15  2  0  0  0  0
 18 17  1  0  0  0  0
 19 24  1  0  0  0  0
 19 18  2  0  0  0  0
 20 19  1  0  0  0  0
 21 22  1  0  0  0  0
 21 20  2  0  0  0  0
 22 23  2  0  0  0  0
 23 24  1  0  0  0  0
 24 14  2  0  0  0  0
 25 31  1  0  0  0  0
 26 35  1  0  0  0  0
 26 27  1  0  0  0  0
 27 41  1  0  0  0  0
 28 27  2  0  0  0  0
 28 36  1  0  0  0  0
 29 28  1  0  0  0  0
 30 37  1  0  0  0  0
 30 29  1  0  0  0  0
 31 30  1  0  0  0  0
 32 31  2  0  0  0  0
 32 33  1  0  0  0  0
 33 34  1  0  0  0  0
 33 29  2  0  0  0  0
 34 26  2  0  0  0  0
 38 34  1  0  0  0  0
 39 44  1  0  0  0  0
 39 45  1  0  0  0  0
 40 39  2  0  0  0  0
 41 42  2  0  0  0  0
 41 40  1  0  0  0  0
 42 43  1  0  0  0  0
 43 47  1  0  0  0  0
 43 44  2  0  0  0  0
 46 40  1  0  0  0  0
M  END
>  <minimizedAffinity>
-6.58195066

>  <minimizedRMSD>
0.692598879

$$$$
