
 OpenBabel03272510023D

 23 25  0  0  0  0  0  0  0  0999 V2000
   37.1010   29.6840   51.3720 C   0  0  0  0  0  0  0  0  0  0  0  0
   37.9750   30.6320   50.8410 C   0  0  0  0  0  0  0  0  0  0  0  0
   37.6880   31.2100   49.6160 C   0  0  0  0  0  0  0  0  0  0  0  0
   36.5400   30.7810   49.0210 N   0  0  0  0  0  0  0  0  0  0  0  0
   35.7090   29.8770   49.5270 C   0  0  0  0  0  0  0  0  0  0  0  0
   36.0070   29.3440   50.7000 N   0  0  0  0  0  0  0  0  0  0  0  0
   37.3230   29.2340   52.3290 H   0  0  0  0  0  0  0  0  0  0  0  0
   38.8580   30.8280   51.4040 H   0  0  0  0  0  0  0  0  0  0  0  0
   38.4790   32.1460   48.8560 C   0  0  0  0  0  0  0  0  0  0  0  0
   38.7980   33.3490   49.4980 C   0  0  0  0  0  0  0  0  0  0  0  0
   38.4490   33.5420   50.5050 H   0  0  0  0  0  0  0  0  0  0  0  0
   39.5430   34.3540   48.9560 C   0  0  0  0  0  3  0  0  0  0  0  0
   40.0410   34.2180   47.6800 C   0  0  0  0  0  3  0  0  0  0  0  0
   39.7660   33.0650   47.0050 C   0  0  0  0  0  0  0  0  0  0  0  0
   40.2760   32.8810   45.7400 C   0  0  0  0  0  3  0  0  0  0  0  0
   40.0570   31.7120   45.0230 C   0  0  0  0  0  3  0  0  0  0  0  0
   39.2980   30.7400   45.6450 C   0  0  0  0  0  3  0  0  0  0  0  0
   38.8070   30.9510   46.8940 C   0  0  0  0  0  3  0  0  0  0  0  0
   39.0150   32.0880   47.5970 C   0  0  0  0  0  0  0  0  0  0  0  0
   34.4980   29.5070   48.7530 C   0  0  0  0  0  0  0  0  0  0  0  0
   33.4810   29.0280   49.5610 F   0  0  0  0  0  0  0  0  0  0  0  0
   33.9960   30.5870   48.0450 F   0  0  0  0  0  0  0  0  0  0  0  0
   34.7580   28.5400   47.7970 F   0  0  0  0  0  0  0  0  0  0  0  0
  1  7  1  0  0  0  0
  2  1  1  0  0  0  0
  2  8  1  0  0  0  0
  3  2  2  0  0  0  0
  4  5  2  0  0  0  0
  4  3  1  0  0  0  0
  5  6  1  0  0  0  0
  6  1  2  0  0  0  0
  9 10  1  0  0  0  0
  9  3  1  0  0  0  0
 10 11  1  0  0  0  0
 12 10  2  0  0  0  0
 13 12  1  0  0  0  0
 14 19  1  0  0  0  0
 14 13  2  0  0  0  0
 15 14  1  0  0  0  0
 16 17  1  0  0  0  0
 16 15  2  0  0  0  0
 17 18  2  0  0  0  0
 18 19  1  0  0  0  0
 19  9  2  0  0  0  0
 20  5  1  0  0  0  0
 20 21  1  0  0  0  0
 22 20  1  0  0  0  0
 23 20  1  0  0  0  0
M  END
>  <minimizedAffinity>
-7.43234825

>  <minimizedRMSD>
3.30694914

$$$$
