
 OpenBabel03272504133D

 23 25  0  0  0  0  0  0  0  0999 V2000
   38.8120   23.2040   37.2540 C   0  0  0  0  0  0  0  0  0  0  0  0
   38.0670   23.3790   36.0980 C   0  0  0  0  0  0  0  0  0  0  0  0
   38.4880   22.9240   34.8680 C   0  0  0  0  0  0  0  0  0  0  0  0
   39.7110   22.2780   34.8870 N   0  0  0  0  0  0  0  0  0  0  0  0
   40.4240   22.1100   36.0060 C   0  0  0  0  0  0  0  0  0  0  0  0
   39.9730   22.5720   37.1720 N   0  0  0  0  0  0  0  0  0  0  0  0
   37.1340   23.8410   36.2170 H   0  0  0  0  0  0  0  0  0  0  0  0
   41.3730   21.5970   35.9590 H   0  0  0  0  0  0  0  0  0  0  0  0
   37.8470   22.9420   33.5910 C   0  0  0  0  0  0  0  0  0  0  0  0
   38.1980   23.9840   32.7170 C   0  0  0  0  0  0  0  0  0  0  0  0
   38.9430   24.7300   33.0350 H   0  0  0  0  0  0  0  0  0  0  0  0
   37.6890   24.1780   31.4620 C   0  0  0  0  0  3  0  0  0  0  0  0
   36.7520   23.2920   30.9850 C   0  0  0  0  0  3  0  0  0  0  0  0
   36.3590   22.2560   31.7760 C   0  0  0  0  0  0  0  0  0  0  0  0
   35.3940   21.3830   31.3210 C   0  0  0  0  0  3  0  0  0  0  0  0
   34.9280   20.3290   32.1030 C   0  0  0  0  0  3  0  0  0  0  0  0
   35.4920   20.2040   33.3790 C   0  0  0  0  0  3  0  0  0  0  0  0
   36.4430   21.0960   33.7750 C   0  0  0  0  0  3  0  0  0  0  0  0
   36.9160   22.1360   33.0170 C   0  0  0  0  0  0  0  0  0  0  0  0
   38.2840   23.7300   38.5420 C   0  0  0  0  0  0  0  0  0  0  0  0
   37.8560   25.0370   38.3680 F   0  0  0  0  0  0  0  0  0  0  0  0
   37.2950   22.8740   38.9720 F   0  0  0  0  0  0  0  0  0  0  0  0
   39.3250   23.7460   39.4610 F   0  0  0  0  0  0  0  0  0  0  0  0
  1 20  1  0  0  0  0
  2  7  1  0  0  0  0
  2  1  2  0  0  0  0
  3  4  2  0  0  0  0
  3  2  1  0  0  0  0
  4  5  1  0  0  0  0
  5  6  2  0  0  0  0
  6  1  1  0  0  0  0
  8  5  1  0  0  0  0
  9  3  1  0  0  0  0
 10 11  1  0  0  0  0
 10  9  2  0  0  0  0
 12 10  1  0  0  0  0
 13 12  2  0  0  0  0
 13 14  1  0  0  0  0
 14 19  1  0  0  0  0
 15 14  2  0  0  0  0
 15 16  1  0  0  0  0
 16 17  2  0  0  0  0
 17 18  1  0  0  0  0
 19  9  1  0  0  0  0
 19 18  2  0  0  0  0
 20 22  1  0  0  0  0
 20 23  1  0  0  0  0
 21 20  1  0  0  0  0
M  END
>  <minimizedAffinity>
-6.22086525

$$$$

 OpenBabel03272504133D

 23 25  0  0  0  0  0  0  0  0999 V2000
   40.0470   22.9970   37.0300 C   0  0  0  0  0  0  0  0  0  0  0  0
   39.6440   23.7800   35.9600 C   0  0  0  0  0  0  0  0  0  0  0  0
   38.4960   24.5400   35.9890 C   0  0  0  0  0  0  0  0  0  0  0  0
   37.7860   24.4570   37.1730 N   0  0  0  0  0  0  0  0  0  0  0  0
   38.1820   23.7000   38.2030 C   0  0  0  0  0  0  0  0  0  0  0  0
   39.3000   22.9810   38.1240 N   0  0  0  0  0  0  0  0  0  0  0  0
   40.2890   23.7990   35.1340 H   0  0  0  0  0  0  0  0  0  0  0  0
   37.5850   23.6750   39.1030 H   0  0  0  0  0  0  0  0  0  0  0  0
   37.9500   25.4520   35.0340 C   0  0  0  0  0  0  0  0  0  0  0  0
   37.7210   26.7680   35.4680 C   0  0  0  0  0  0  0  0  0  0  0  0
   37.9720   27.0480   36.5040 H   0  0  0  0  0  0  0  0  0  0  0  0
   37.1990   27.7800   34.7100 C   0  0  0  0  0  3  0  0  0  0  0  0
   36.8580   27.5170   33.4040 C   0  0  0  0  0  3  0  0  0  0  0  0
   37.0470   26.2620   32.9100 C   0  0  0  0  0  0  0  0  0  0  0  0
   36.6760   25.9800   31.6130 C   0  0  0  0  0  3  0  0  0  0  0  0
   36.8130   24.7050   31.0700 C   0  0  0  0  0  3  0  0  0  0  0  0
   37.3480   23.7230   31.9140 C   0  0  0  0  0  3  0  0  0  0  0  0
   37.6990   24.0610   33.1860 C   0  0  0  0  0  3  0  0  0  0  0  0
   37.5740   25.3110   33.7360 C   0  0  0  0  0  0  0  0  0  0  0  0
   41.3010   22.2030   36.9140 C   0  0  0  0  0  0  0  0  0  0  0  0
   41.3970   21.3300   37.9870 F   0  0  0  0  0  0  0  0  0  0  0  0
   41.2900   21.5770   35.6870 F   0  0  0  0  0  0  0  0  0  0  0  0
   42.3760   23.0790   36.9860 F   0  0  0  0  0  0  0  0  0  0  0  0
  1  6  1  0  0  0  0
  2  3  1  0  0  0  0
  2  1  2  0  0  0  0
  3  4  2  0  0  0  0
  4  5  1  0  0  0  0
  5  8  1  0  0  0  0
  6  5  2  0  0  0  0
  7  2  1  0  0  0  0
  9 10  1  0  0  0  0
  9  3  1  0  0  0  0
 10 11  1  0  0  0  0
 12 10  2  0  0  0  0
 13 12  1  0  0  0  0
 14 13  2  0  0  0  0
 14 19  1  0  0  0  0
 15 14  1  0  0  0  0
 16 15  2  0  0  0  0
 16 17  1  0  0  0  0
 17 18  2  0  0  0  0
 18 19  1  0  0  0  0
 19  9  2  0  0  0  0
 20 23  1  0  0  0  0
 20  1  1  0  0  0  0
 20 21  1  0  0  0  0
 22 20  1  0  0  0  0
M  END
>  <minimizedAffinity>
-5.78360033

$$$$

 OpenBabel03272504133D

 23 25  0  0  0  0  0  0  0  0999 V2000
   38.8200   23.7330   36.8770 C   0  0  0  0  0  0  0  0  0  0  0  0
   37.9380   24.0800   35.8660 C   0  0  0  0  0  0  0  0  0  0  0  0
   38.2920   24.0680   34.5360 C   0  0  0  0  0  0  0  0  0  0  0  0
   39.5970   23.6790   34.2970 N   0  0  0  0  0  0  0  0  0  0  0  0
   40.4440   23.3430   35.2770 C   0  0  0  0  0  0  0  0  0  0  0  0
   40.0520   23.3740   36.5490 N   0  0  0  0  0  0  0  0  0  0  0  0
   36.9610   24.3110   36.1670 H   0  0  0  0  0  0  0  0  0  0  0  0
   41.4530   23.0470   35.0280 H   0  0  0  0  0  0  0  0  0  0  0  0
   37.5240   24.3200   33.3570 C   0  0  0  0  0  0  0  0  0  0  0  0
   37.1890   23.2100   32.5650 C   0  0  0  0  0  0  0  0  0  0  0  0
   37.5150   22.2040   32.8750 H   0  0  0  0  0  0  0  0  0  0  0  0
   36.4710   23.2470   31.4010 C   0  0  0  0  0  3  0  0  0  0  0  0
   36.0250   24.4630   30.9400 C   0  0  0  0  0  3  0  0  0  0  0  0
   36.3120   25.5870   31.6520 C   0  0  0  0  0  0  0  0  0  0  0  0
   35.8980   26.8140   31.1790 C   0  0  0  0  0  3  0  0  0  0  0  0
   36.1980   27.9980   31.8480 C   0  0  0  0  0  3  0  0  0  0  0  0
   36.9430   27.8760   33.0280 C   0  0  0  0  0  3  0  0  0  0  0  0
   37.3230   26.6360   33.4470 C   0  0  0  0  0  3  0  0  0  0  0  0
   37.0350   25.4610   32.8030 C   0  0  0  0  0  0  0  0  0  0  0  0
   38.3560   23.7760   38.2910 C   0  0  0  0  0  0  0  0  0  0  0  0
   37.9950   25.0740   38.6200 F   0  0  0  0  0  0  0  0  0  0  0  0
   37.3330   22.8640   38.4240 F   0  0  0  0  0  0  0  0  0  0  0  0
   39.4200   23.4150   39.1060 F   0  0  0  0  0  0  0  0  0  0  0  0
  1 20  1  0  0  0  0
  2  7  1  0  0  0  0
  2  1  2  0  0  0  0
  3  2  1  0  0  0  0
  4  3  2  0  0  0  0
  4  5  1  0  0  0  0
  5  6  2  0  0  0  0
  6  1  1  0  0  0  0
  8  5  1  0  0  0  0
  9  3  1  0  0  0  0
 10 11  1  0  0  0  0
 10  9  2  0  0  0  0
 12 10  1  0  0  0  0
 13 12  2  0  0  0  0
 13 14  1  0  0  0  0
 14 19  1  0  0  0  0
 15 14  2  0  0  0  0
 15 16  1  0  0  0  0
 16 17  2  0  0  0  0
 17 18  1  0  0  0  0
 19  9  1  0  0  0  0
 19 18  2  0  0  0  0
 20 22  1  0  0  0  0
 20 21  1  0  0  0  0
 20 23  1  0  0  0  0
M  END
>  <minimizedAffinity>
-5.77875423

$$$$

 OpenBabel03272504133D

 23 25  0  0  0  0  0  0  0  0999 V2000
   37.1150   25.3100   32.3310 C   0  0  0  0  0  0  0  0  0  0  0  0
   37.4180   24.5140   33.4250 C   0  0  0  0  0  0  0  0  0  0  0  0
   38.1810   24.9620   34.4800 C   0  0  0  0  0  0  0  0  0  0  0  0
   38.6150   26.2690   34.3550 N   0  0  0  0  0  0  0  0  0  0  0  0
   38.3180   27.0330   33.2970 C   0  0  0  0  0  0  0  0  0  0  0  0
   37.5770   26.5510   32.3010 N   0  0  0  0  0  0  0  0  0  0  0  0
   36.9930   23.5560   33.4290 H   0  0  0  0  0  0  0  0  0  0  0  0
   38.6860   28.0480   33.2560 H   0  0  0  0  0  0  0  0  0  0  0  0
   38.5430   24.3330   35.7110 C   0  0  0  0  0  0  0  0  0  0  0  0
   37.7900   24.6750   36.8460 C   0  0  0  0  0  0  0  0  0  0  0  0
   36.9610   25.3940   36.7500 H   0  0  0  0  0  0  0  0  0  0  0  0
   37.9860   24.1900   38.1110 C   0  0  0  0  0  3  0  0  0  0  0  0
   39.0020   23.2870   38.3200 C   0  0  0  0  0  3  0  0  0  0  0  0
   39.7780   22.9080   37.2670 C   0  0  0  0  0  0  0  0  0  0  0  0
   40.8210   22.0300   37.4750 C   0  0  0  0  0  3  0  0  0  0  0  0
   41.6690   21.6390   36.4420 C   0  0  0  0  0  3  0  0  0  0  0  0
   41.4060   22.1870   35.1800 C   0  0  0  0  0  3  0  0  0  0  0  0
   40.3600   23.0480   35.0340 C   0  0  0  0  0  3  0  0  0  0  0  0
   39.5140   23.4420   36.0390 C   0  0  0  0  0  0  0  0  0  0  0  0
   36.2860   24.7450   31.2320 C   0  0  0  0  0  0  0  0  0  0  0  0
   35.5540   25.7600   30.6350 F   0  0  0  0  0  0  0  0  0  0  0  0
   37.1290   24.0850   30.3660 F   0  0  0  0  0  0  0  0  0  0  0  0
   35.3850   23.8460   31.7880 F   0  0  0  0  0  0  0  0  0  0  0  0
  1  2  1  0  0  0  0
  2  7  1  0  0  0  0
  2  3  2  0  0  0  0
  3  9  1  0  0  0  0
  4  3  1  0  0  0  0
  5  4  2  0  0  0  0
  6  1  2  0  0  0  0
  6  5  1  0  0  0  0
  8  5  1  0  0  0  0
  9 19  2  0  0  0  0
  9 10  1  0  0  0  0
 10 12  2  0  0  0  0
 11 10  1  0  0  0  0
 12 13  1  0  0  0  0
 14 15  1  0  0  0  0
 14 13  2  0  0  0  0
 16 15  2  0  0  0  0
 17 16  1  0  0  0  0
 18 17  2  0  0  0  0
 18 19  1  0  0  0  0
 19 14  1  0  0  0  0
 20 23  1  0  0  0  0
 20  1  1  0  0  0  0
 21 20  1  0  0  0  0
 22 20  1  0  0  0  0
M  END
>  <minimizedAffinity>
-5.74800539

$$$$

 OpenBabel03272504133D

 23 25  0  0  0  0  0  0  0  0999 V2000
   38.1490   23.9660   36.9430 C   0  0  0  0  0  0  0  0  0  0  0  0
   38.2520   22.8450   36.1350 C   0  0  0  0  0  0  0  0  0  0  0  0
   38.2320   22.9170   34.7600 C   0  0  0  0  0  0  0  0  0  0  0  0
   38.1040   24.1990   34.2580 N   0  0  0  0  0  0  0  0  0  0  0  0
   38.0080   25.2780   35.0440 C   0  0  0  0  0  0  0  0  0  0  0  0
   38.0300   25.1540   36.3700 N   0  0  0  0  0  0  0  0  0  0  0  0
   38.3920   21.9310   36.6290 H   0  0  0  0  0  0  0  0  0  0  0  0
   37.9100   26.2550   34.5940 H   0  0  0  0  0  0  0  0  0  0  0  0
   38.3910   21.9050   33.7640 C   0  0  0  0  0  0  0  0  0  0  0  0
   39.7000   21.6350   33.3330 C   0  0  0  0  0  0  0  0  0  0  0  0
   40.5410   22.1940   33.7720 H   0  0  0  0  0  0  0  0  0  0  0  0
   40.0550   20.7130   32.3860 C   0  0  0  0  0  3  0  0  0  0  0  0
   39.0650   19.9700   31.7850 C   0  0  0  0  0  3  0  0  0  0  0  0
   37.7700   20.1770   32.1480 C   0  0  0  0  0  0  0  0  0  0  0  0
   36.7690   19.4620   31.5270 C   0  0  0  0  0  3  0  0  0  0  0  0
   35.4250   19.6600   31.8330 C   0  0  0  0  0  3  0  0  0  0  0  0
   35.1440   20.6270   32.8070 C   0  0  0  0  0  3  0  0  0  0  0  0
   36.1750   21.3020   33.3880 C   0  0  0  0  0  3  0  0  0  0  0  0
   37.5030   21.1170   33.1020 C   0  0  0  0  0  0  0  0  0  0  0  0
   38.1760   23.7970   38.4220 C   0  0  0  0  0  0  0  0  0  0  0  0
   37.9350   25.0190   39.0310 F   0  0  0  0  0  0  0  0  0  0  0  0
   37.2600   22.8220   38.7500 F   0  0  0  0  0  0  0  0  0  0  0  0
   39.4510   23.3880   38.7870 F   0  0  0  0  0  0  0  0  0  0  0  0
  1 20  1  0  0  0  0
  2  7  1  0  0  0  0
  2  1  2  0  0  0  0
  3  2  1  0  0  0  0
  4  3  2  0  0  0  0
  4  5  1  0  0  0  0
  5  6  2  0  0  0  0
  6  1  1  0  0  0  0
  8  5  1  0  0  0  0
  9  3  1  0  0  0  0
 10  9  1  0  0  0  0
 10 11  1  0  0  0  0
 12 10  2  0  0  0  0
 13 14  2  0  0  0  0
 13 12  1  0  0  0  0
 14 19  1  0  0  0  0
 15 16  2  0  0  0  0
 15 14  1  0  0  0  0
 16 17  1  0  0  0  0
 17 18  2  0  0  0  0
 19 18  1  0  0  0  0
 19  9  2  0  0  0  0
 20 22  1  0  0  0  0
 20 23  1  0  0  0  0
 20 21  1  0  0  0  0
M  END
>  <minimizedAffinity>
-5.74443531

$$$$

 OpenBabel03272504133D

 23 25  0  0  0  0  0  0  0  0999 V2000
   36.0190   21.2100   32.3500 C   0  0  0  0  0  0  0  0  0  0  0  0
   37.0480   21.0920   33.2700 C   0  0  0  0  0  0  0  0  0  0  0  0
   37.8970   22.1330   33.5710 C   0  0  0  0  0  0  0  0  0  0  0  0
   37.6330   23.3020   32.8810 N   0  0  0  0  0  0  0  0  0  0  0  0
   36.6360   23.4110   31.9950 C   0  0  0  0  0  0  0  0  0  0  0  0
   35.8440   22.3720   31.7380 N   0  0  0  0  0  0  0  0  0  0  0  0
   37.1200   20.1710   33.7650 H   0  0  0  0  0  0  0  0  0  0  0  0
   36.4780   24.3500   31.4870 H   0  0  0  0  0  0  0  0  0  0  0  0
   38.9580   22.2350   34.5240 C   0  0  0  0  0  0  0  0  0  0  0  0
   40.2460   21.8940   34.0810 C   0  0  0  0  0  0  0  0  0  0  0  0
   40.3950   21.5750   33.0370 H   0  0  0  0  0  0  0  0  0  0  0  0
   41.3840   21.9170   34.8420 C   0  0  0  0  0  3  0  0  0  0  0  0
   41.2890   22.3030   36.1580 C   0  0  0  0  0  3  0  0  0  0  0  0
   40.0720   22.6450   36.6620 C   0  0  0  0  0  0  0  0  0  0  0  0
   39.9620   23.0000   37.9890 C   0  0  0  0  0  3  0  0  0  0  0  0
   38.7360   23.3230   38.5650 C   0  0  0  0  0  3  0  0  0  0  0  0
   37.6190   23.2670   37.7220 C   0  0  0  0  0  3  0  0  0  0  0  0
   37.7880   22.9120   36.4170 C   0  0  0  0  0  3  0  0  0  0  0  0
   38.9880   22.5940   35.8340 C   0  0  0  0  0  0  0  0  0  0  0  0
   35.1480   20.0320   32.0820 C   0  0  0  0  0  0  0  0  0  0  0  0
   33.8260   20.4410   32.0080 F   0  0  0  0  0  0  0  0  0  0  0  0
   35.6070   19.4250   30.9340 F   0  0  0  0  0  0  0  0  0  0  0  0
   35.2610   19.1590   33.1550 F   0  0  0  0  0  0  0  0  0  0  0  0
  1  2  1  0  0  0  0
  2  3  2  0  0  0  0
  2  7  1  0  0  0  0
  3  9  1  0  0  0  0
  4  3  1  0  0  0  0
  5  4  2  0  0  0  0
  6  5  1  0  0  0  0
  6  1  2  0  0  0  0
  8  5  1  0  0  0  0
  9 19  1  0  0  0  0
 10  9  2  0  0  0  0
 10 12  1  0  0  0  0
 11 10  1  0  0  0  0
 12 13  2  0  0  0  0
 13 14  1  0  0  0  0
 14 15  1  0  0  0  0
 15 16  2  0  0  0  0
 17 16  1  0  0  0  0
 18 17  2  0  0  0  0
 19 18  1  0  0  0  0
 19 14  2  0  0  0  0
 20  1  1  0  0  0  0
 20 23  1  0  0  0  0
 21 20  1  0  0  0  0
 22 20  1  0  0  0  0
M  END
>  <minimizedAffinity>
-5.69611835

$$$$

 OpenBabel03272504133D

 23 25  0  0  0  0  0  0  0  0999 V2000
   37.3800   26.1430   32.9260 C   0  0  0  0  0  0  0  0  0  0  0  0
   37.8020   25.8330   34.2080 C   0  0  0  0  0  0  0  0  0  0  0  0
   37.9840   24.5360   34.6370 C   0  0  0  0  0  0  0  0  0  0  0  0
   37.7140   23.5760   33.6780 N   0  0  0  0  0  0  0  0  0  0  0  0
   37.3090   23.8820   32.4410 C   0  0  0  0  0  0  0  0  0  0  0  0
   37.1450   25.1530   32.0770 N   0  0  0  0  0  0  0  0  0  0  0  0
   38.0210   26.6470   34.8310 H   0  0  0  0  0  0  0  0  0  0  0  0
   37.1130   23.0890   31.7350 H   0  0  0  0  0  0  0  0  0  0  0  0
   38.4720   24.0170   35.8750 C   0  0  0  0  0  0  0  0  0  0  0  0
   37.7780   24.3860   37.0390 C   0  0  0  0  0  0  0  0  0  0  0  0
   36.8970   25.0430   36.9590 H   0  0  0  0  0  0  0  0  0  0  0  0
   38.0930   24.0020   38.3130 C   0  0  0  0  0  3  0  0  0  0  0  0
   39.1810   23.1810   38.5040 C   0  0  0  0  0  3  0  0  0  0  0  0
   39.9060   22.7820   37.4240 C   0  0  0  0  0  0  0  0  0  0  0  0
   41.0180   21.9890   37.6090 C   0  0  0  0  0  3  0  0  0  0  0  0
   41.8180   21.5830   36.5430 C   0  0  0  0  0  3  0  0  0  0  0  0
   41.4320   22.0260   35.2720 C   0  0  0  0  0  3  0  0  0  0  0  0
   40.3220   22.8070   35.1490 C   0  0  0  0  0  3  0  0  0  0  0  0
   39.5230   23.2130   36.1870 C   0  0  0  0  0  0  0  0  0  0  0  0
   37.2050   27.5720   32.5460 C   0  0  0  0  0  0  0  0  0  0  0  0
   36.9100   28.3180   33.6770 F   0  0  0  0  0  0  0  0  0  0  0  0
   38.3490   27.9760   31.8960 F   0  0  0  0  0  0  0  0  0  0  0  0
   36.1180   27.6600   31.6870 F   0  0  0  0  0  0  0  0  0  0  0  0
  1  2  1  0  0  0  0
  2  3  2  0  0  0  0
  2  7  1  0  0  0  0
  3  9  1  0  0  0  0
  4  3  1  0  0  0  0
  5  4  2  0  0  0  0
  6  5  1  0  0  0  0
  6  1  2  0  0  0  0
  8  5  1  0  0  0  0
  9 19  2  0  0  0  0
  9 10  1  0  0  0  0
 10 12  2  0  0  0  0
 11 10  1  0  0  0  0
 12 13  1  0  0  0  0
 14 15  1  0  0  0  0
 14 13  2  0  0  0  0
 16 15  2  0  0  0  0
 17 16  1  0  0  0  0
 18 17  2  0  0  0  0
 18 19  1  0  0  0  0
 19 14  1  0  0  0  0
 20  1  1  0  0  0  0
 20 21  1  0  0  0  0
 22 20  1  0  0  0  0
 23 20  1  0  0  0  0
M  END
>  <minimizedAffinity>
-5.64488316

$$$$

 OpenBabel03272504133D

 23 25  0  0  0  0  0  0  0  0999 V2000
   36.7400   20.5070   32.7040 C   0  0  0  0  0  0  0  0  0  0  0  0
   36.6830   21.4060   33.7580 C   0  0  0  0  0  0  0  0  0  0  0  0
   37.7970   22.0560   34.2400 C   0  0  0  0  0  0  0  0  0  0  0  0
   38.9710   21.7380   33.5820 N   0  0  0  0  0  0  0  0  0  0  0  0
   39.0200   20.8710   32.5640 C   0  0  0  0  0  0  0  0  0  0  0  0
   37.9130   20.2660   32.1370 N   0  0  0  0  0  0  0  0  0  0  0  0
   35.7290   21.6020   34.1450 H   0  0  0  0  0  0  0  0  0  0  0  0
   39.9670   20.6620   32.0900 H   0  0  0  0  0  0  0  0  0  0  0  0
   37.9370   23.0530   35.2530 C   0  0  0  0  0  0  0  0  0  0  0  0
   37.8830   22.6180   36.5880 C   0  0  0  0  0  0  0  0  0  0  0  0
   37.7450   21.5460   36.8030 H   0  0  0  0  0  0  0  0  0  0  0  0
   37.9860   23.4170   37.6930 C   0  0  0  0  0  3  0  0  0  0  0  0
   38.1590   24.7700   37.5150 C   0  0  0  0  0  3  0  0  0  0  0  0
   38.2180   25.2690   36.2500 C   0  0  0  0  0  0  0  0  0  0  0  0
   38.3560   26.6270   36.0620 C   0  0  0  0  0  3  0  0  0  0  0  0
   38.3850   27.1940   34.7900 C   0  0  0  0  0  3  0  0  0  0  0  0
   38.2640   26.3090   33.7120 C   0  0  0  0  0  3  0  0  0  0  0  0
   38.1320   24.9760   33.9580 C   0  0  0  0  0  3  0  0  0  0  0  0
   38.1050   24.4010   35.2020 C   0  0  0  0  0  0  0  0  0  0  0  0
   35.4870   19.8450   32.2480 C   0  0  0  0  0  0  0  0  0  0  0  0
   35.6270   19.4510   30.9260 F   0  0  0  0  0  0  0  0  0  0  0  0
   35.2220   18.8070   33.1130 F   0  0  0  0  0  0  0  0  0  0  0  0
   34.4610   20.7790   32.3030 F   0  0  0  0  0  0  0  0  0  0  0  0
  1  2  1  0  0  0  0
  2  7  1  0  0  0  0
  2  3  2  0  0  0  0
  3  9  1  0  0  0  0
  4  3  1  0  0  0  0
  5  4  2  0  0  0  0
  6  5  1  0  0  0  0
  6  1  2  0  0  0  0
  8  5  1  0  0  0  0
  9 10  1  0  0  0  0
 10 11  1  0  0  0  0
 10 12  2  0  0  0  0
 13 12  1  0  0  0  0
 14 13  2  0  0  0  0
 15 14  1  0  0  0  0
 16 15  2  0  0  0  0
 17 18  2  0  0  0  0
 17 16  1  0  0  0  0
 18 19  1  0  0  0  0
 19  9  2  0  0  0  0
 19 14  1  0  0  0  0
 20 23  1  0  0  0  0
 20  1  1  0  0  0  0
 20 22  1  0  0  0  0
 21 20  1  0  0  0  0
M  END
>  <minimizedAffinity>
-5.61641979

$$$$

 OpenBabel03272504133D

 23 25  0  0  0  0  0  0  0  0999 V2000
   40.2330   22.4090   36.5360 C   0  0  0  0  0  0  0  0  0  0  0  0
   39.7140   22.3180   35.2550 C   0  0  0  0  0  0  0  0  0  0  0  0
   38.4850   22.8380   34.9130 C   0  0  0  0  0  0  0  0  0  0  0  0
   37.8190   23.4590   35.9540 N   0  0  0  0  0  0  0  0  0  0  0  0
   38.3270   23.5450   37.1890 C   0  0  0  0  0  0  0  0  0  0  0  0
   39.5200   23.0230   37.4690 N   0  0  0  0  0  0  0  0  0  0  0  0
   40.3310   21.8670   34.5380 H   0  0  0  0  0  0  0  0  0  0  0  0
   37.7600   24.0430   37.9630 H   0  0  0  0  0  0  0  0  0  0  0  0
   37.8120   22.9080   33.6550 C   0  0  0  0  0  0  0  0  0  0  0  0
   38.1170   24.0030   32.8300 C   0  0  0  0  0  0  0  0  0  0  0  0
   38.8530   24.7500   33.1690 H   0  0  0  0  0  0  0  0  0  0  0  0
   37.5740   24.2520   31.5980 C   0  0  0  0  0  3  0  0  0  0  0  0
   36.6450   23.3700   31.0980 C   0  0  0  0  0  3  0  0  0  0  0  0
   36.2950   22.2840   31.8410 C   0  0  0  0  0  0  0  0  0  0  0  0
   35.3390   21.4140   31.3620 C   0  0  0  0  0  3  0  0  0  0  0  0
   34.9170   20.3090   32.0980 C   0  0  0  0  0  3  0  0  0  0  0  0
   35.5150   20.1300   33.3520 C   0  0  0  0  0  3  0  0  0  0  0  0
   36.4560   21.0220   33.7720 C   0  0  0  0  0  3  0  0  0  0  0  0
   36.8850   22.1120   33.0600 C   0  0  0  0  0  0  0  0  0  0  0  0
   41.5680   21.8160   36.8210 C   0  0  0  0  0  0  0  0  0  0  0  0
   41.5240   21.1320   38.0260 F   0  0  0  0  0  0  0  0  0  0  0  0
   41.9140   21.0270   35.7460 F   0  0  0  0  0  0  0  0  0  0  0  0
   42.4810   22.8530   36.9570 F   0  0  0  0  0  0  0  0  0  0  0  0
  1 20  1  0  0  0  0
  1  6  1  0  0  0  0
  2  1  2  0  0  0  0
  3  2  1  0  0  0  0
  3  4  2  0  0  0  0
  4  5  1  0  0  0  0
  5  6  2  0  0  0  0
  5  8  1  0  0  0  0
  7  2  1  0  0  0  0
  9  3  1  0  0  0  0
 10 11  1  0  0  0  0
 10  9  2  0  0  0  0
 12 10  1  0  0  0  0
 13 12  2  0  0  0  0
 13 14  1  0  0  0  0
 14 19  1  0  0  0  0
 15 14  2  0  0  0  0
 15 16  1  0  0  0  0
 16 17  2  0  0  0  0
 17 18  1  0  0  0  0
 19  9  1  0  0  0  0
 19 18  2  0  0  0  0
 20 23  1  0  0  0  0
 20 21  1  0  0  0  0
 22 20  1  0  0  0  0
M  END
>  <minimizedAffinity>
-5.60656643

$$$$
