
 OpenBabel03272510273D

 47 52  0  0  1  0  0  0  0  0999 V2000
   39.7000   31.8150   41.9140 N   0  0  0  0  0  0  0  0  0  0  0  0
   39.3390   33.2300   41.9990 C   0  0  1  0  0  0  0  0  0  0  0  0
   37.9660   33.4170   41.5550 C   0  0  0  0  0  0  0  0  0  0  0  0
   37.8650   33.0610   40.2000 O   0  0  0  0  0  0  0  0  0  0  0  0
   38.3150   31.7940   39.9000 C   0  0  0  0  0  0  0  0  0  0  0  0
   39.6880   31.5410   40.4930 C   0  0  2  0  0  0  0  0  0  0  0  0
   39.0150   31.1790   42.2990 H   0  0  0  0  0  0  0  0  0  0  0  0
   40.0420   33.7480   41.3190 H   0  0  0  0  0  0  0  0  0  0  0  0
   37.7690   34.5340   41.5410 H   0  0  0  0  0  0  0  0  0  0  0  0
   37.1130   32.9730   41.9930 H   0  0  0  0  0  0  0  0  0  0  0  0
   38.3710   31.7210   38.8100 H   0  0  0  0  0  0  0  0  0  0  0  0
   37.6220   31.0560   40.3610 H   0  0  0  0  0  0  0  0  0  0  0  0
   40.3840   32.3050   40.0830 H   0  0  0  0  0  0  0  0  0  0  0  0
   40.1080   30.1590   40.2820 C   0  0  0  0  0  0  0  0  0  0  0  0
   40.8490   29.6630   39.2440 C   0  0  0  0  0  0  0  0  0  0  0  0
   41.1930   30.3290   38.4670 H   0  0  0  0  0  0  0  0  0  0  0  0
   41.2290   28.3510   39.0600 C   0  0  0  0  0  3  0  0  0  0  0  0
   40.8440   27.4130   39.9950 C   0  0  0  0  0  3  0  0  0  0  0  0
   40.0950   27.8500   41.0670 C   0  0  0  0  0  0  0  0  0  0  0  0
   39.7380   26.8730   41.9710 C   0  0  0  0  0  3  0  0  0  0  0  0
   38.9890   27.2160   43.0790 C   0  0  0  0  0  3  0  0  0  0  0  0
   38.6120   28.5320   43.2580 C   0  0  0  0  0  3  0  0  0  0  0  0
   38.9970   29.4450   42.3270 C   0  0  0  0  0  3  0  0  0  0  0  0
   39.7420   29.1930   41.1950 C   0  0  0  0  0  0  0  0  0  0  0  0
   39.4910   33.5990   43.3600 O   0  0  0  0  0  0  0  0  0  0  0  0
   36.2130   30.2350   46.9290 C   0  0  0  0  0  0  0  0  0  0  0  0
   37.0680   30.7540   47.8830 C   0  0  0  0  0  0  0  0  0  0  0  0
   38.0870   31.6520   47.5300 C   0  0  0  0  0  0  0  0  0  0  0  0
   38.1670   31.9720   46.1800 C   0  0  0  0  0  0  0  0  0  0  0  0
   39.0690   32.8250   45.5920 N   0  0  0  0  0  0  0  0  0  0  0  0
   38.7750   32.8330   44.2810 C   0  0  0  0  0  0  0  0  0  0  0  0
   37.7540   32.0400   44.0510 N   0  0  0  0  0  0  0  0  0  0  0  0
   37.3410   31.4830   45.2000 C   0  0  0  0  0  0  0  0  0  0  0  0
   36.3360   30.5870   45.5920 C   0  0  0  0  0  0  0  0  0  0  0  0
   35.4160   29.5420   47.1530 H   0  0  0  0  0  0  0  0  0  0  0  0
   38.7600   32.0630   48.2660 H   0  0  0  0  0  0  0  0  0  0  0  0
   39.8310   33.3540   46.0900 H   0  0  0  0  0  0  0  0  0  0  0  0
   35.6820   30.1970   44.8240 H   0  0  0  0  0  0  0  0  0  0  0  0
   37.4600   30.1330   51.5750 C   0  0  0  0  0  0  0  0  0  0  0  0
   37.7710   30.5810   50.2940 C   0  0  0  0  0  0  0  0  0  0  0  0
   36.8920   30.3540   49.2650 C   0  0  0  0  0  0  0  0  0  0  0  0
   35.7270   29.6820   49.5700 N   0  0  0  0  0  0  0  0  0  0  0  0
   35.4340   29.2520   50.8130 C   0  0  0  0  0  0  0  0  0  0  0  0
   36.2880   29.4770   51.7930 N   0  0  0  0  0  0  0  0  0  0  0  0
   38.1760   30.3290   52.3600 H   0  0  0  0  0  0  0  0  0  0  0  0
   38.6750   31.1010   50.0600 H   0  0  0  0  0  0  0  0  0  0  0  0
   34.4890   28.7320   50.9480 H   0  0  0  0  0  0  0  0  0  0  0  0
  1  2  1  0  0  0  0
  1  7  1  0  0  0  0
  2  8  1  6  0  0  0
  2 25  1  0  0  0  0
  3 10  1  0  0  0  0
  3  2  1  0  0  0  0
  4  3  1  0  0  0  0
  5  4  1  0  0  0  0
  5 12  1  0  0  0  0
  5  6  1  0  0  0  0
  6 13  1  6  0  0  0
  6  1  1  0  0  0  0
  9  3  1  0  0  0  0
 11  5  1  0  0  0  0
 14  6  1  0  0  0  0
 14 24  1  0  0  0  0
 15 14  2  0  0  0  0
 16 15  1  0  0  0  0
 17 15  1  0  0  0  0
 17 18  2  0  0  0  0
 18 19  1  0  0  0  0
 19 24  2  0  0  0  0
 19 20  1  0  0  0  0
 20 21  2  0  0  0  0
 21 22  1  0  0  0  0
 23 22  2  0  0  0  0
 24 23  1  0  0  0  0
 25 31  1  0  0  0  0
 26 35  1  0  0  0  0
 26 27  1  0  0  0  0
 27 41  1  0  0  0  0
 28 27  2  0  0  0  0
 28 36  1  0  0  0  0
 29 28  1  0  0  0  0
 30 37  1  0  0  0  0
 30 29  1  0  0  0  0
 31 30  1  0  0  0  0
 32 31  2  0  0  0  0
 32 33  1  0  0  0  0
 33 34  1  0  0  0  0
 33 29  2  0  0  0  0
 34 26  2  0  0  0  0
 38 34  1  0  0  0  0
 39 44  1  0  0  0  0
 39 45  1  0  0  0  0
 40 39  2  0  0  0  0
 41 42  2  0  0  0  0
 41 40  1  0  0  0  0
 42 43  1  0  0  0  0
 43 47  1  0  0  0  0
 43 44  2  0  0  0  0
 46 40  1  0  0  0  0
M  END
>  <minimizedAffinity>
-6.79018784

>  <minimizedRMSD>
0.59284687

$$$$
