
 OpenBabel03272507483D

 48 53  0  0  1  0  0  0  0  0999 V2000
   32.1960   28.3030   47.1570 N   0  0  0  0  0  0  0  0  0  0  0  0
   32.5780   27.8470   48.4460 C   0  0  0  0  0  0  0  0  0  0  0  0
   33.8060   28.4390   49.0400 C   0  0  0  0  0  0  0  0  0  0  0  0
   34.9110   28.7110   48.1230 C   0  0  1  0  0  0  0  0  0  0  0  0
   34.4370   29.1210   46.7210 C   0  0  0  0  0  0  0  0  0  0  0  0
   33.3420   28.1340   46.2960 C   0  0  0  0  0  0  0  0  0  0  0  0
   32.7490   26.7450   48.3770 H   0  0  0  0  0  0  0  0  0  0  0  0
   31.7600   27.9470   49.1940 H   0  0  0  0  0  0  0  0  0  0  0  0
   34.0880   27.8990   49.9410 H   0  0  0  0  0  0  0  0  0  0  0  0
   33.4220   29.4570   49.3840 H   0  0  0  0  0  0  0  0  0  0  0  0
   35.5460   27.8050   47.9100 H   0  0  0  0  0  0  0  0  0  0  0  0
   35.2550   28.9720   46.0030 H   0  0  0  0  0  0  0  0  0  0  0  0
   34.0040   30.1200   46.7070 H   0  0  0  0  0  0  0  0  0  0  0  0
   33.0230   28.4220   45.2730 H   0  0  0  0  0  0  0  0  0  0  0  0
   33.7210   27.0910   46.2670 H   0  0  0  0  0  0  0  0  0  0  0  0
   35.9110   30.0580   49.9080 C   0  0  0  0  0  0  0  0  0  0  0  0
   35.8250   29.7990   48.5530 C   0  0  0  0  0  0  0  0  0  0  0  0
   36.5120   30.5030   47.5990 C   0  0  0  0  0  0  0  0  0  0  0  0
   37.3410   31.5350   48.0250 C   0  0  0  0  0  0  0  0  0  0  0  0
   37.4270   31.7930   49.3750 C   0  0  0  0  0  0  0  0  0  0  0  0
   36.7340   31.0830   50.3430 C   0  0  0  0  0  0  0  0  0  0  0  0
   38.3090   32.8680   49.6010 O   0  0  0  0  0  0  0  0  0  0  0  0
   39.0230   33.0090   48.3800 C   0  0  0  0  0  0  0  0  0  0  0  0
   38.1830   32.4590   47.3960 O   0  0  0  0  0  0  0  0  0  0  0  0
   35.4360   29.5710   50.7480 H   0  0  0  0  0  0  0  0  0  0  0  0
   36.4260   30.2820   46.5630 H   0  0  0  0  0  0  0  0  0  0  0  0
   36.8550   31.3490   51.4070 H   0  0  0  0  0  0  0  0  0  0  0  0
   39.2240   34.0760   48.1560 H   0  0  0  0  0  0  0  0  0  0  0  0
   39.9790   32.4250   48.4620 H   0  0  0  0  0  0  0  0  0  0  0  0
   30.9480   28.8270   46.7420 C   0  0  0  0  0  0  0  0  0  0  0  0
   30.6820   29.4670   45.5410 C   0  0  0  0  0  0  0  0  0  0  0  0
   29.3810   29.9110   45.3390 C   0  0  0  0  0  0  0  0  0  0  0  0
   28.4400   29.7040   46.3140 N   0  0  0  0  0  0  0  0  0  0  0  0
   28.7380   29.0790   47.4670 C   0  0  0  0  0  0  0  0  0  0  0  0
   29.9600   28.6810   47.6140 N   0  0  0  0  0  0  0  0  0  0  0  0
   31.5040   29.5660   44.8630 H   0  0  0  0  0  0  0  0  0  0  0  0
   29.1660   30.4020   44.4240 H   0  0  0  0  0  0  0  0  0  0  0  0
   27.5730   28.9880   48.3310 C   0  0  0  0  0  0  0  0  0  0  0  0
   26.3700   29.5730   47.9910 C   0  0  0  0  0  0  0  0  0  0  0  0
   26.2330   30.1290   47.0690 H   0  0  0  0  0  0  0  0  0  0  0  0
   25.2290   29.5240   48.7610 C   0  0  0  0  0  0  0  0  0  0  0  0
   25.2380   28.8570   49.9600 C   0  0  0  0  0  0  0  0  0  0  0  0
   26.4010   28.2590   50.3470 C   0  0  0  0  0  0  0  0  0  0  0  0
   26.3940   27.5920   51.5520 C   0  0  0  0  0  0  0  0  0  0  0  0
   27.5290   26.9560   52.0170 C   0  0  0  0  0  0  0  0  0  0  0  0
   28.6500   27.0330   51.2060 C   0  0  0  0  0  0  0  0  0  0  0  0
   28.6160   27.7050   50.0190 C   0  0  0  0  0  0  0  0  0  0  0  0
   27.5120   28.3390   49.5390 C   0  0  0  0  0  0  0  0  0  0  0  0
  1  2  1  0  0  0  0
  2  3  1  0  0  0  0
  2  8  1  0  0  0  0
  3 10  1  0  0  0  0
  3  9  1  0  0  0  0
  4 11  1  6  0  0  0
  4 17  1  0  0  0  0
  4  3  1  0  0  0  0
  5  4  1  0  0  0  0
  6  5  1  0  0  0  0
  6  1  1  0  0  0  0
  7  2  1  0  0  0  0
 12  5  1  0  0  0  0
 13  5  1  0  0  0  0
 14  6  1  0  0  0  0
 15  6  1  0  0  0  0
 16 21  1  0  0  0  0
 16 25  1  0  0  0  0
 17 16  2  0  0  0  0
 18 19  2  0  0  0  0
 18 17  1  0  0  0  0
 19 20  1  0  0  0  0
 20 22  1  0  0  0  0
 20 21  2  0  0  0  0
 21 27  1  0  0  0  0
 23 29  1  0  0  0  0
 23 22  1  0  0  0  0
 24 19  1  0  0  0  0
 24 23  1  0  0  0  0
 26 18  1  0  0  0  0
 28 23  1  0  0  0  0
 30  1  1  0  0  0  0
 30 35  1  0  0  0  0
 31 30  2  0  0  0  0
 32 31  1  0  0  0  0
 32 33  2  0  0  0  0
 33 34  1  0  0  0  0
 34 35  2  0  0  0  0
 34 38  1  0  0  0  0
 36 31  1  0  0  0  0
 37 32  1  0  0  0  0
 38 48  1  0  0  0  0
 39 38  2  0  0  0  0
 39 41  1  0  0  0  0
 40 39  1  0  0  0  0
 41 42  2  0  0  0  0
 42 43  1  0  0  0  0
 43 44  1  0  0  0  0
 44 45  2  0  0  0  0
 46 45  1  0  0  0  0
 47 46  2  0  0  0  0
 48 47  1  0  0  0  0
 48 43  2  0  0  0  0
M  END
>  <minimizedAffinity>
-9.12114143

>  <minimizedRMSD>
1.25144148

$$$$
