
 OpenBabel03272510023D

 23 25  0  0  0  0  0  0  0  0999 V2000
   38.2280   31.3570   50.3750 C   0  0  0  0  0  0  0  0  0  0  0  0
   38.5110   31.4350   49.0120 C   0  0  0  0  0  0  0  0  0  0  0  0
   37.6710   30.8090   48.1070 C   0  0  0  0  0  0  0  0  0  0  0  0
   36.6110   30.1490   48.6530 N   0  0  0  0  0  0  0  0  0  0  0  0
   36.3430   30.0740   49.9510 C   0  0  0  0  0  0  0  0  0  0  0  0
   37.1610   30.6840   50.7920 N   0  0  0  0  0  0  0  0  0  0  0  0
   38.8820   31.8470   51.0820 H   0  0  0  0  0  0  0  0  0  0  0  0
   39.4050   31.9490   48.7430 H   0  0  0  0  0  0  0  0  0  0  0  0
   37.8110   30.7020   46.6760 C   0  0  0  0  0  0  0  0  0  0  0  0
   39.1090   30.8440   46.1700 C   0  0  0  0  0  0  0  0  0  0  0  0
   39.9410   31.0330   46.8380 H   0  0  0  0  0  0  0  0  0  0  0  0
   39.4510   30.7640   44.8520 C   0  0  0  0  0  3  0  0  0  0  0  0
   38.4750   30.5250   43.9110 C   0  0  0  0  0  3  0  0  0  0  0  0
   37.1900   30.3740   44.3440 C   0  0  0  0  0  0  0  0  0  0  0  0
   36.1950   30.1020   43.4350 C   0  0  0  0  0  3  0  0  0  0  0  0
   34.8770   29.9030   43.8260 C   0  0  0  0  0  3  0  0  0  0  0  0
   34.6150   29.9930   45.1790 C   0  0  0  0  0  3  0  0  0  0  0  0
   35.6190   30.2660   46.0530 C   0  0  0  0  0  3  0  0  0  0  0  0
   36.9040   30.4640   45.6780 C   0  0  0  0  0  0  0  0  0  0  0  0
   35.1510   29.3080   50.3920 C   0  0  0  0  0  0  0  0  0  0  0  0
   35.1740   29.0320   51.7480 F   0  0  0  0  0  0  0  0  0  0  0  0
   33.9770   29.9950   50.1240 F   0  0  0  0  0  0  0  0  0  0  0  0
   35.0220   28.1010   49.7260 F   0  0  0  0  0  0  0  0  0  0  0  0
  1  6  1  0  0  0  0
  1  7  1  0  0  0  0
  2  1  2  0  0  0  0
  3  4  2  0  0  0  0
  3  2  1  0  0  0  0
  4  5  1  0  0  0  0
  5 20  1  0  0  0  0
  5  6  2  0  0  0  0
  8  2  1  0  0  0  0
  9  3  1  0  0  0  0
 10  9  1  0  0  0  0
 10 11  1  0  0  0  0
 12 10  2  0  0  0  0
 13 14  2  0  0  0  0
 13 12  1  0  0  0  0
 14 19  1  0  0  0  0
 15 16  2  0  0  0  0
 15 14  1  0  0  0  0
 16 17  1  0  0  0  0
 17 18  2  0  0  0  0
 19 18  1  0  0  0  0
 19  9  2  0  0  0  0
 20 21  1  0  0  0  0
 22 20  1  0  0  0  0
 23 20  1  0  0  0  0
M  END
>  <minimizedAffinity>
-6.02839947

>  <minimizedRMSD>
1.234905

$$$$
