
 OpenBabel03272509543D

 45 49  0  0  0  0  0  0  0  0999 V2000
   34.0510   29.2790   47.9350 C   0  0  0  0  0  0  0  0  0  0  0  0
   34.4750   30.1280   47.3750 H   0  0  0  0  0  0  0  0  0  0  0  0
   33.3690   29.7060   48.7070 H   0  0  0  0  0  0  0  0  0  0  0  0
   33.2450   28.3440   47.0990 C   0  0  0  0  0  0  0  0  0  0  0  0
   33.1520   28.7800   46.0800 H   0  0  0  0  0  0  0  0  0  0  0  0
   33.7120   27.3490   46.9650 H   0  0  0  0  0  0  0  0  0  0  0  0
   31.8490   28.1760   47.5970 C   0  0  0  0  0  0  0  0  0  0  0  0
   31.6460   27.6710   48.8590 C   0  0  0  0  0  0  0  0  0  0  0  0
   30.3970   27.4890   49.3540 C   0  0  0  0  0  0  0  0  0  0  0  0
   29.3520   27.7970   48.6220 N   0  0  0  0  0  0  0  0  0  0  0  0
   29.5150   28.2990   47.3730 C   0  0  0  0  0  0  0  0  0  0  0  0
   30.7640   28.4810   46.8760 N   0  0  0  0  0  0  0  0  0  0  0  0
   32.5110   27.4220   49.4470 H   0  0  0  0  0  0  0  0  0  0  0  0
   30.1930   27.0930   50.3410 H   0  0  0  0  0  0  0  0  0  0  0  0
   28.5130   28.7150   46.3740 C   0  0  0  0  0  0  0  0  0  0  0  0
   27.9900   29.9880   46.2800 C   0  0  0  0  0  0  0  0  0  0  0  0
   28.3420   30.7460   46.9970 H   0  0  0  0  0  0  0  0  0  0  0  0
   27.0610   30.3830   45.3570 C   0  0  0  0  0  3  0  0  0  0  0  0
   26.5830   29.4850   44.4350 C   0  0  0  0  0  3  0  0  0  0  0  0
   27.0660   28.2000   44.4770 C   0  0  0  0  0  0  0  0  0  0  0  0
   26.5520   27.3440   43.5290 C   0  0  0  0  0  3  0  0  0  0  0  0
   26.9790   26.0350   43.4960 C   0  0  0  0  0  3  0  0  0  0  0  0
   27.9270   25.6490   44.4440 C   0  0  0  0  0  3  0  0  0  0  0  0
   28.3940   26.5590   45.3580 C   0  0  0  0  0  3  0  0  0  0  0  0
   27.9890   27.8710   45.4200 C   0  0  0  0  0  0  0  0  0  0  0  0
   35.0450   28.5640   48.6790 O   0  0  0  0  0  0  0  0  0  0  0  0
   37.1590   30.0310   51.1980 C   0  0  0  0  0  0  0  0  0  0  0  0
   38.0080   30.8320   50.3820 C   0  0  0  0  0  0  0  0  0  0  0  0
   37.7780   30.8020   49.0230 C   0  0  0  0  0  0  0  0  0  0  0  0
   36.7610   30.0050   48.5790 N   0  0  0  0  0  0  0  0  0  0  0  0
   35.9840   29.2660   49.3660 C   0  0  0  0  0  0  0  0  0  0  0  0
   36.1910   29.2820   50.6940 N   0  0  0  0  0  0  0  0  0  0  0  0
   37.3640   30.0750   52.2720 H   0  0  0  0  0  0  0  0  0  0  0  0
   38.8030   31.4540   50.7430 H   0  0  0  0  0  0  0  0  0  0  0  0
   38.8020   33.5010   49.2060 F   0  0  0  0  0  0  0  0  0  0  0  0
   39.0140   32.8010   48.0900 C   0  0  0  0  0  0  0  0  0  0  0  0
   38.5300   31.5460   48.0290 C   0  0  0  0  0  0  0  0  0  0  0  0
   38.8110   30.9090   46.8140 C   0  0  0  0  0  0  0  0  0  0  0  0
   39.5080   31.5040   45.7920 C   0  0  0  0  0  0  0  0  0  0  0  0
   39.9760   32.7800   45.9090 C   0  0  0  0  0  0  0  0  0  0  0  0
   39.7190   33.4450   47.0930 C   0  0  0  0  0  0  0  0  0  0  0  0
   38.4840   29.8860   46.6130 H   0  0  0  0  0  0  0  0  0  0  0  0
   39.7100   30.9850   44.8640 H   0  0  0  0  0  0  0  0  0  0  0  0
   40.5200   33.2620   45.1270 H   0  0  0  0  0  0  0  0  0  0  0  0
   40.0750   34.4530   47.2160 H   0  0  0  0  0  0  0  0  0  0  0  0
  1 26  1  0  0  0  0
  1  3  1  0  0  0  0
  2  1  1  0  0  0  0
  4  7  1  0  0  0  0
  4  1  1  0  0  0  0
  5  4  1  0  0  0  0
  6  4  1  0  0  0  0
  7  8  1  0  0  0  0
  8  9  2  0  0  0  0
  8 13  1  0  0  0  0
  9 14  1  0  0  0  0
 10  9  1  0  0  0  0
 11 10  2  0  0  0  0
 12 11  1  0  0  0  0
 12  7  2  0  0  0  0
 15 11  1  0  0  0  0
 16 15  1  0  0  0  0
 16 17  1  0  0  0  0
 18 16  2  0  0  0  0
 19 20  2  0  0  0  0
 19 18  1  0  0  0  0
 20 25  1  0  0  0  0
 21 20  1  0  0  0  0
 22 21  2  0  0  0  0
 22 23  1  0  0  0  0
 23 24  2  0  0  0  0
 24 25  1  0  0  0  0
 25 15  2  0  0  0  0
 26 31  1  0  0  0  0
 27 33  1  0  0  0  0
 28 34  1  0  0  0  0
 28 27  2  0  0  0  0
 29 28  1  0  0  0  0
 30 29  2  0  0  0  0
 30 31  1  0  0  0  0
 31 32  2  0  0  0  0
 32 27  1  0  0  0  0
 36 35  1  0  0  0  0
 37 36  1  0  0  0  0
 37 29  1  0  0  0  0
 38 37  2  0  0  0  0
 39 40  2  0  0  0  0
 39 38  1  0  0  0  0
 40 41  1  0  0  0  0
 41 45  1  0  0  0  0
 41 36  2  0  0  0  0
 42 38  1  0  0  0  0
 43 39  1  0  0  0  0
 44 40  1  0  0  0  0
M  END
>  <minimizedAffinity>
-7.26508474

>  <minimizedRMSD>
1.40134096

$$$$
