
 OpenBabel03272509543D

 45 49  0  0  0  0  0  0  0  0999 V2000
   34.4490   28.6190   48.1330 C   0  0  0  0  0  0  0  0  0  0  0  0
   35.2280   28.8810   47.3990 H   0  0  0  0  0  0  0  0  0  0  0  0
   33.8190   29.5280   48.2760 H   0  0  0  0  0  0  0  0  0  0  0  0
   33.5470   27.5170   47.6940 C   0  0  0  0  0  0  0  0  0  0  0  0
   33.7280   27.3290   46.6120 H   0  0  0  0  0  0  0  0  0  0  0  0
   33.7360   26.5550   48.2070 H   0  0  0  0  0  0  0  0  0  0  0  0
   32.1020   27.8690   47.8090 C   0  0  0  0  0  0  0  0  0  0  0  0
   31.4050   27.4720   48.9250 C   0  0  0  0  0  0  0  0  0  0  0  0
   30.0870   27.7570   49.0710 C   0  0  0  0  0  0  0  0  0  0  0  0
   29.4540   28.4250   48.1350 N   0  0  0  0  0  0  0  0  0  0  0  0
   30.1110   28.8340   47.0220 C   0  0  0  0  0  0  0  0  0  0  0  0
   31.4300   28.5490   46.8740 N   0  0  0  0  0  0  0  0  0  0  0  0
   31.9360   26.9240   49.6820 H   0  0  0  0  0  0  0  0  0  0  0  0
   29.5010   27.4620   49.9330 H   0  0  0  0  0  0  0  0  0  0  0  0
   29.6260   29.5870   45.8500 C   0  0  0  0  0  0  0  0  0  0  0  0
   30.3060   30.6340   45.2630 C   0  0  0  0  0  0  0  0  0  0  0  0
   31.2750   30.9300   45.6960 H   0  0  0  0  0  0  0  0  0  0  0  0
   29.8620   31.3380   44.1770 C   0  0  0  0  0  3  0  0  0  0  0  0
   28.6620   31.0170   43.5930 C   0  0  0  0  0  3  0  0  0  0  0  0
   27.9390   29.9830   44.1320 C   0  0  0  0  0  0  0  0  0  0  0  0
   26.7450   29.7070   43.5050 C   0  0  0  0  0  3  0  0  0  0  0  0
   25.9530   28.6840   43.9780 C   0  0  0  0  0  3  0  0  0  0  0  0
   26.4180   27.9760   45.0860 C   0  0  0  0  0  3  0  0  0  0  0  0
   27.6200   28.3100   45.6580 C   0  0  0  0  0  3  0  0  0  0  0  0
   28.4350   29.3220   45.2130 C   0  0  0  0  0  0  0  0  0  0  0  0
   34.9910   28.3430   49.4310 O   0  0  0  0  0  0  0  0  0  0  0  0
   37.3100   30.1670   51.4950 C   0  0  0  0  0  0  0  0  0  0  0  0
   38.0560   30.8530   50.4950 C   0  0  0  0  0  0  0  0  0  0  0  0
   37.6950   30.6300   49.1830 C   0  0  0  0  0  0  0  0  0  0  0  0
   36.6570   29.7700   48.9590 N   0  0  0  0  0  0  0  0  0  0  0  0
   35.9770   29.1420   49.9150 C   0  0  0  0  0  0  0  0  0  0  0  0
   36.3130   29.3470   51.2010 N   0  0  0  0  0  0  0  0  0  0  0  0
   37.6180   30.3640   52.5270 H   0  0  0  0  0  0  0  0  0  0  0  0
   38.8690   31.5250   50.6840 H   0  0  0  0  0  0  0  0  0  0  0  0
   38.9580   33.2250   48.9840 F   0  0  0  0  0  0  0  0  0  0  0  0
   38.9190   32.4380   47.9070 C   0  0  0  0  0  0  0  0  0  0  0  0
   38.3280   31.2330   48.0250 C   0  0  0  0  0  0  0  0  0  0  0  0
   38.3460   30.4950   46.8350 C   0  0  0  0  0  0  0  0  0  0  0  0
   38.9090   30.9540   45.6690 C   0  0  0  0  0  0  0  0  0  0  0  0
   39.4950   32.1840   45.6080 C   0  0  0  0  0  0  0  0  0  0  0  0
   39.4990   32.9460   46.7620 C   0  0  0  0  0  0  0  0  0  0  0  0
   37.9060   29.4970   46.7710 H   0  0  0  0  0  0  0  0  0  0  0  0
   38.9080   30.3600   44.7650 H   0  0  0  0  0  0  0  0  0  0  0  0
   39.9390   32.5600   44.7120 H   0  0  0  0  0  0  0  0  0  0  0  0
   39.9530   33.9200   46.7450 H   0  0  0  0  0  0  0  0  0  0  0  0
  1  3  1  0  0  0  0
  1 26  1  0  0  0  0
  2  1  1  0  0  0  0
  4  7  1  0  0  0  0
  4  1  1  0  0  0  0
  4  6  1  0  0  0  0
  5  4  1  0  0  0  0
  7  8  1  0  0  0  0
  8  9  2  0  0  0  0
  8 13  1  0  0  0  0
  9 14  1  0  0  0  0
 10  9  1  0  0  0  0
 11 10  2  0  0  0  0
 12 11  1  0  0  0  0
 12  7  2  0  0  0  0
 15 11  1  0  0  0  0
 16 17  1  0  0  0  0
 16 15  1  0  0  0  0
 18 16  2  0  0  0  0
 19 20  2  0  0  0  0
 19 18  1  0  0  0  0
 20 25  1  0  0  0  0
 21 22  2  0  0  0  0
 21 20  1  0  0  0  0
 22 23  1  0  0  0  0
 23 24  2  0  0  0  0
 25 24  1  0  0  0  0
 25 15  2  0  0  0  0
 26 31  1  0  0  0  0
 27 33  1  0  0  0  0
 28 34  1  0  0  0  0
 28 27  2  0  0  0  0
 29 28  1  0  0  0  0
 30 29  2  0  0  0  0
 30 31  1  0  0  0  0
 31 32  2  0  0  0  0
 32 27  1  0  0  0  0
 36 37  1  0  0  0  0
 36 35  1  0  0  0  0
 37 29  1  0  0  0  0
 38 37  2  0  0  0  0
 39 38  1  0  0  0  0
 40 39  2  0  0  0  0
 40 41  1  0  0  0  0
 41 36  2  0  0  0  0
 42 38  1  0  0  0  0
 43 39  1  0  0  0  0
 44 40  1  0  0  0  0
 45 41  1  0  0  0  0
M  END
>  <minimizedAffinity>
-7.15569735

>  <minimizedRMSD>
0.29085952

$$$$
