
 OpenBabel03272503023D

 30 33  0  0  0  0  0  0  0  0999 V2000
   37.9860   30.2810   46.6220 F   0  0  0  0  0  0  0  0  0  0  0  0
   38.5720   31.4480   46.9600 C   0  0  0  0  0  0  0  0  0  0  0  0
   38.4030   31.9390   48.2180 C   0  0  0  0  0  0  0  0  0  0  0  0
   39.0250   33.1410   48.5120 C   0  0  0  0  0  0  0  0  0  0  0  0
   39.7860   33.8210   47.5770 C   0  0  0  0  0  0  0  0  0  0  0  0
   39.9380   33.3000   46.3180 C   0  0  0  0  0  0  0  0  0  0  0  0
   39.3290   32.1110   46.0110 C   0  0  0  0  0  0  0  0  0  0  0  0
   38.9000   33.5500   49.5140 H   0  0  0  0  0  0  0  0  0  0  0  0
   40.2410   34.7550   47.8800 H   0  0  0  0  0  0  0  0  0  0  0  0
   40.5290   33.8160   45.5730 H   0  0  0  0  0  0  0  0  0  0  0  0
   39.5170   31.5920   44.6580 C   0  0  0  0  0  0  0  0  0  0  0  0
   40.6620   30.9130   44.2880 C   0  0  0  0  0  0  0  0  0  0  0  0
   41.4430   30.7590   45.0200 H   0  0  0  0  0  0  0  0  0  0  0  0
   40.8910   30.4030   43.0290 C   0  0  0  0  0  0  0  0  0  0  0  0
   39.9200   30.5780   42.0650 C   0  0  0  0  0  0  0  0  0  0  0  0
   38.7510   31.2580   42.4020 C   0  0  0  0  0  0  0  0  0  0  0  0
   37.7740   31.4300   41.4220 C   0  0  0  0  0  0  0  0  0  0  0  0
   36.6570   32.0990   41.8010 C   0  0  0  0  0  0  0  0  0  0  0  0
   36.4040   32.6170   43.0510 C   0  0  0  0  0  0  0  0  0  0  0  0
   37.4070   32.4230   43.9990 C   0  0  0  0  0  0  0  0  0  0  0  0
   38.5670   31.7500   43.6760 C   0  0  0  0  0  0  0  0  0  0  0  0
   37.3040   29.9440   51.2350 C   0  0  0  0  0  0  0  0  0  0  0  0
   38.1230   30.6680   50.3550 C   0  0  0  0  0  0  0  0  0  0  0  0
   37.5910   31.1810   49.1640 C   0  0  0  0  0  0  0  0  0  0  0  0
   36.2880   30.9430   48.9290 N   0  0  0  0  0  0  0  0  0  0  0  0
   35.5230   30.2460   49.7890 C   0  0  0  0  0  0  0  0  0  0  0  0
   36.0270   29.7510   50.9320 N   0  0  0  0  0  0  0  0  0  0  0  0
   37.8780   29.6270   52.0950 H   0  0  0  0  0  0  0  0  0  0  0  0
   39.1780   30.8820   50.5070 H   0  0  0  0  0  0  0  0  0  0  0  0
   34.4710   30.0330   49.6370 H   0  0  0  0  0  0  0  0  0  0  0  0
  1  2  1  0  0  0  0
  2  3  1  0  0  0  0
  3  4  2  0  0  0  0
  3 24  1  0  0  0  0
  4  8  1  0  0  0  0
  5  9  1  0  0  0  0
  5  4  1  0  0  0  0
  6  5  2  0  0  0  0
  7  6  1  0  0  0  0
  7  2  2  0  0  0  0
 10  6  1  0  0  0  0
 11  7  1  0  0  0  0
 12 11  1  0  0  0  0
 12 13  1  0  0  0  0
 14 12  2  0  0  0  0
 15 16  2  0  0  0  0
 15 14  1  0  0  0  0
 16 21  1  0  0  0  0
 17 18  2  0  0  0  0
 17 16  1  0  0  0  0
 18 19  1  0  0  0  0
 19 20  2  0  0  0  0
 21 20  1  0  0  0  0
 21 11  2  0  0  0  0
 22 28  1  0  0  0  0
 23 29  1  0  0  0  0
 23 22  2  0  0  0  0
 24 23  1  0  0  0  0
 25 24  2  0  0  0  0
 25 26  1  0  0  0  0
 26 27  2  0  0  0  0
 27 22  1  0  0  0  0
 30 26  1  0  0  0  0
M  END
>  <minimizedAffinity>
-6.58516073

>  <minimizedRMSD>
2.02600431

$$$$
