
 OpenBabel03262521383D

 30 33  0  0  0  0  0  0  0  0999 V2000
   38.4340   30.8250   47.3610 F   0  0  0  0  0  0  0  0  0  0  0  0
   37.1780   30.5340   46.8800 C   0  0  0  0  0  0  0  0  0  0  0  0
   36.1530   30.1280   47.7130 C   0  0  0  0  0  0  0  0  0  0  0  0
   34.9090   29.8470   47.1830 C   0  0  0  0  0  0  0  0  0  0  0  0
   34.6760   29.9710   45.8150 C   0  0  0  0  0  0  0  0  0  0  0  0
   35.7350   30.3800   45.0270 C   0  0  0  0  0  0  0  0  0  0  0  0
   36.9770   30.6650   45.5190 C   0  0  0  0  0  0  0  0  0  0  0  0
   34.1320   29.5320   47.8670 H   0  0  0  0  0  0  0  0  0  0  0  0
   33.7080   29.7460   45.4410 H   0  0  0  0  0  0  0  0  0  0  0  0
   35.5470   30.4740   43.9660 H   0  0  0  0  0  0  0  0  0  0  0  0
   38.1000   31.1030   44.6640 C   0  0  0  0  0  0  0  0  0  0  0  0
   38.3810   32.4590   44.6770 C   0  0  0  0  0  0  0  0  0  0  0  0
   37.8130   33.1440   45.2750 H   0  0  0  0  0  0  0  0  0  0  0  0
   39.4180   32.9850   43.9100 C   0  0  0  0  0  0  0  0  0  0  0  0
   40.1500   32.1050   43.1400 C   0  0  0  0  0  0  0  0  0  0  0  0
   39.8720   30.7560   43.1250 C   0  0  0  0  0  0  0  0  0  0  0  0
   40.6070   29.8630   42.3510 C   0  0  0  0  0  0  0  0  0  0  0  0
   40.2630   28.5260   42.3930 C   0  0  0  0  0  0  0  0  0  0  0  0
   39.2360   28.0100   43.1550 C   0  0  0  0  0  0  0  0  0  0  0  0
   38.4910   28.9000   43.9360 C   0  0  0  0  0  0  0  0  0  0  0  0
   38.8470   30.2310   43.8820 C   0  0  0  0  0  0  0  0  0  0  0  0
   37.5910   30.7750   49.5160 C   0  0  0  0  0  0  0  0  0  0  0  0
   36.4690   30.0240   49.1160 C   0  0  0  0  0  0  0  0  0  0  0  0
   35.8020   29.2830   50.0800 C   0  0  0  0  0  0  0  0  0  0  0  0
   36.2640   29.3160   51.3670 N   0  0  0  0  0  0  0  0  0  0  0  0
   37.3390   30.0430   51.7240 C   0  0  0  0  0  0  0  0  0  0  0  0
   38.0000   30.7690   50.8020 N   0  0  0  0  0  0  0  0  0  0  0  0
   38.1980   31.3920   48.8680 H   0  0  0  0  0  0  0  0  0  0  0  0
   34.9590   28.7310   49.7300 H   0  0  0  0  0  0  0  0  0  0  0  0
   37.5830   29.9730   52.7600 H   0  0  0  0  0  0  0  0  0  0  0  0
  2  1  1  0  0  0  0
  2  3  1  0  0  0  0
  3 23  1  0  0  0  0
  4  3  2  0  0  0  0
  4  8  1  0  0  0  0
  5  4  1  0  0  0  0
  6  7  1  0  0  0  0
  6  5  2  0  0  0  0
  7  2  2  0  0  0  0
  9  5  1  0  0  0  0
 10  6  1  0  0  0  0
 11 12  1  0  0  0  0
 11  7  1  0  0  0  0
 12 13  1  0  0  0  0
 14 12  2  0  0  0  0
 15 14  1  0  0  0  0
 16 15  2  0  0  0  0
 16 21  1  0  0  0  0
 17 18  2  0  0  0  0
 17 16  1  0  0  0  0
 18 19  1  0  0  0  0
 19 20  2  0  0  0  0
 21 20  1  0  0  0  0
 21 11  2  0  0  0  0
 22 27  1  0  0  0  0
 23 22  2  0  0  0  0
 23 24  1  0  0  0  0
 24 25  2  0  0  0  0
 25 26  1  0  0  0  0
 26 30  1  0  0  0  0
 27 26  2  0  0  0  0
 28 22  1  0  0  0  0
 29 24  1  0  0  0  0
M  END
>  <minimizedAffinity>
-6.6178298

>  <minimizedRMSD>
6.7083931

$$$$
