
 OpenBabel03272510023D

 23 25  0  0  0  0  0  0  0  0999 V2000
   38.2780   31.1280   50.4750 C   0  0  0  0  0  0  0  0  0  0  0  0
   38.4400   31.4320   49.1240 C   0  0  0  0  0  0  0  0  0  0  0  0
   37.4700   31.0380   48.2180 C   0  0  0  0  0  0  0  0  0  0  0  0
   36.4120   30.3630   48.7510 N   0  0  0  0  0  0  0  0  0  0  0  0
   36.2600   30.0730   50.0380 C   0  0  0  0  0  0  0  0  0  0  0  0
   37.2010   30.4640   50.8800 N   0  0  0  0  0  0  0  0  0  0  0  0
   39.0340   31.4380   51.1830 H   0  0  0  0  0  0  0  0  0  0  0  0
   39.3460   31.9240   48.8550 H   0  0  0  0  0  0  0  0  0  0  0  0
   37.4670   31.1810   46.7840 C   0  0  0  0  0  0  0  0  0  0  0  0
   36.4430   30.5160   46.0980 C   0  0  0  0  0  0  0  0  0  0  0  0
   35.7120   29.9280   46.6410 H   0  0  0  0  0  0  0  0  0  0  0  0
   36.2600   30.5370   44.7470 C   0  0  0  0  0  3  0  0  0  0  0  0
   37.1280   31.2530   43.9560 C   0  0  0  0  0  3  0  0  0  0  0  0
   38.1470   31.9250   44.5670 C   0  0  0  0  0  0  0  0  0  0  0  0
   39.0130   32.6800   43.8090 C   0  0  0  0  0  3  0  0  0  0  0  0
   40.0440   33.4110   44.3850 C   0  0  0  0  0  3  0  0  0  0  0  0
   40.1570   33.3440   45.7590 C   0  0  0  0  0  3  0  0  0  0  0  0
   39.2870   32.5890   46.4800 C   0  0  0  0  0  3  0  0  0  0  0  0
   38.2830   31.8720   45.9260 C   0  0  0  0  0  0  0  0  0  0  0  0
   35.0520   29.3220   50.4630 C   0  0  0  0  0  0  0  0  0  0  0  0
   35.0610   29.0350   51.8170 F   0  0  0  0  0  0  0  0  0  0  0  0
   33.8920   30.0290   50.1920 F   0  0  0  0  0  0  0  0  0  0  0  0
   34.9110   28.1230   49.7860 F   0  0  0  0  0  0  0  0  0  0  0  0
  1  6  1  0  0  0  0
  1  7  1  0  0  0  0
  2  1  2  0  0  0  0
  3  4  2  0  0  0  0
  3  2  1  0  0  0  0
  4  5  1  0  0  0  0
  5 20  1  0  0  0  0
  5  6  2  0  0  0  0
  8  2  1  0  0  0  0
  9  3  1  0  0  0  0
 10 11  1  0  0  0  0
 10  9  1  0  0  0  0
 12 10  2  0  0  0  0
 13 14  2  0  0  0  0
 13 12  1  0  0  0  0
 14 19  1  0  0  0  0
 15 16  2  0  0  0  0
 15 14  1  0  0  0  0
 16 17  1  0  0  0  0
 17 18  2  0  0  0  0
 19 18  1  0  0  0  0
 19  9  2  0  0  0  0
 20 21  1  0  0  0  0
 22 20  1  0  0  0  0
 23 20  1  0  0  0  0
M  END
>  <minimizedAffinity>
-6.80593634

>  <minimizedRMSD>
0.586874366

$$$$
