
 OpenBabel03272509473D

 27 29  0  0  0  0  0  0  0  0999 V2000
   33.8440   27.1640   48.0050 C   0  0  0  0  0  0  0  0  0  0  0  0
   34.7410   26.5260   48.0270 H   0  0  0  0  0  0  0  0  0  0  0  0
   33.0760   26.5840   48.5970 H   0  0  0  0  0  0  0  0  0  0  0  0
   33.3470   27.3820   46.6320 C   0  0  0  0  0  0  0  0  0  0  0  0
   33.9840   28.3470   45.8620 C   0  0  0  0  0  0  0  0  0  0  0  0
   34.8260   28.8910   46.2770 H   0  0  0  0  0  0  0  0  0  0  0  0
   33.6530   28.7040   44.5760 C   0  0  0  0  0  3  0  0  0  0  0  0
   32.5720   28.0190   44.0130 C   0  0  0  0  0  3  0  0  0  0  0  0
   31.9070   27.0510   44.7420 C   0  0  0  0  0  0  0  0  0  0  0  0
   30.8380   26.3400   44.2370 C   0  0  0  0  0  3  0  0  0  0  0  0
   30.1560   25.3640   44.9380 C   0  0  0  0  0  3  0  0  0  0  0  0
   30.5870   25.1020   46.2090 C   0  0  0  0  0  3  0  0  0  0  0  0
   31.6420   25.7710   46.7710 C   0  0  0  0  0  3  0  0  0  0  0  0
   32.2890   26.7340   46.0360 C   0  0  0  0  0  0  0  0  0  0  0  0
   34.0530   28.4650   48.7060 C   0  0  0  0  0  0  0  0  0  0  0  0
   33.1230   29.0000   48.8650 H   0  0  0  0  0  0  0  0  0  0  0  0
   34.6550   29.1090   48.0080 H   0  0  0  0  0  0  0  0  0  0  0  0
   34.7670   28.2800   49.9130 O   0  0  0  0  0  0  0  0  0  0  0  0
   37.4160   30.2920   51.3800 C   0  0  0  0  0  0  0  0  0  0  0  0
   38.0740   30.7050   50.2250 C   0  0  0  0  0  0  0  0  0  0  0  0
   37.5870   30.2790   48.9910 C   0  0  0  0  0  0  0  0  0  0  0  0
   36.4760   29.4720   49.0220 N   0  0  0  0  0  0  0  0  0  0  0  0
   35.8670   29.0930   50.1450 C   0  0  0  0  0  0  0  0  0  0  0  0
   36.3420   29.5080   51.3290 N   0  0  0  0  0  0  0  0  0  0  0  0
   37.8340   30.6490   52.3020 H   0  0  0  0  0  0  0  0  0  0  0  0
   38.9520   31.3390   50.1520 H   0  0  0  0  0  0  0  0  0  0  0  0
   38.0200   30.5390   48.0210 H   0  0  0  0  0  0  0  0  0  0  0  0
  1  2  1  0  0  0  0
  1  3  1  0  0  0  0
  1 15  1  0  0  0  0
  4  1  1  0  0  0  0
  5  6  1  0  0  0  0
  5  4  2  0  0  0  0
  7  5  1  0  0  0  0
  8  7  2  0  0  0  0
  8  9  1  0  0  0  0
  9 14  1  0  0  0  0
 10  9  2  0  0  0  0
 10 11  1  0  0  0  0
 11 12  2  0  0  0  0
 12 13  1  0  0  0  0
 14  4  1  0  0  0  0
 14 13  2  0  0  0  0
 15 16  1  0  0  0  0
 15 18  1  0  0  0  0
 17 15  1  0  0  0  0
 18 23  1  0  0  0  0
 19 25  1  0  0  0  0
 20 19  2  0  0  0  0
 21 22  2  0  0  0  0
 21 20  1  0  0  0  0
 22 23  1  0  0  0  0
 23 24  2  0  0  0  0
 24 19  1  0  0  0  0
 26 20  1  0  0  0  0
 27 21  1  0  0  0  0
M  END
>  <minimizedAffinity>
-4.09301281

>  <minimizedRMSD>
0.787704289

$$$$
