
 OpenBabel03262520203D

 23 25  0  0  0  0  0  0  0  0999 V2000
   37.9540   32.3410   49.3900 C   0  0  0  0  0  0  0  0  0  0  0  0
   38.9510   32.8590   48.5080 C   0  0  0  0  0  0  0  0  0  0  0  0
   38.8600   32.4820   47.1740 C   0  0  0  0  0  0  0  0  0  0  0  0
   37.8390   31.6660   46.8560 N   0  0  0  0  0  0  0  0  0  0  0  0
   36.9060   31.1790   47.6690 C   0  0  0  0  0  0  0  0  0  0  0  0
   36.9950   31.5410   48.9410 N   0  0  0  0  0  0  0  0  0  0  0  0
   37.9700   32.5990   50.4390 H   0  0  0  0  0  0  0  0  0  0  0  0
   39.7230   33.5060   48.8750 H   0  0  0  0  0  0  0  0  0  0  0  0
   35.9560   30.3260   46.9650 C   0  0  0  0  0  0  0  0  0  0  0  0
   35.9310   30.2250   45.5900 C   0  0  0  0  0  0  0  0  0  0  0  0
   36.6440   30.7980   44.9750 H   0  0  0  0  0  0  0  0  0  0  0  0
   35.0590   29.4390   44.8820 C   0  0  0  0  0  0  0  0  0  0  0  0
   34.1340   28.6850   45.5280 C   0  0  0  0  0  0  0  0  0  0  0  0
   34.1070   28.7420   46.8910 C   0  0  0  0  0  0  0  0  0  0  0  0
   33.1610   27.9690   47.5420 C   0  0  0  0  0  0  0  0  0  0  0  0
   33.0660   27.9660   48.9110 C   0  0  0  0  0  0  0  0  0  0  0  0
   33.9690   28.7780   49.6040 C   0  0  0  0  0  0  0  0  0  0  0  0
   34.8940   29.5300   48.9160 C   0  0  0  0  0  0  0  0  0  0  0  0
   34.9970   29.5420   47.5640 C   0  0  0  0  0  0  0  0  0  0  0  0
   39.8590   32.9760   46.1870 C   0  0  0  0  0  0  0  0  0  0  0  0
   40.4480   34.0600   46.8000 F   0  0  0  0  0  0  0  0  0  0  0  0
   40.8200   32.0530   45.8780 F   0  0  0  0  0  0  0  0  0  0  0  0
   39.2480   33.4030   45.0120 F   0  0  0  0  0  0  0  0  0  0  0  0
  1  7  1  0  0  0  0
  2  8  1  0  0  0  0
  2  1  2  0  0  0  0
  3  2  1  0  0  0  0
  4  3  2  0  0  0  0
  4  5  1  0  0  0  0
  5  6  2  0  0  0  0
  6  1  1  0  0  0  0
  9 19  1  0  0  0  0
  9  5  1  0  0  0  0
 10  9  2  0  0  0  0
 11 10  1  0  0  0  0
 12 13  2  0  0  0  0
 12 10  1  0  0  0  0
 13 14  1  0  0  0  0
 14 15  2  0  0  0  0
 14 19  1  0  0  0  0
 15 16  1  0  0  0  0
 16 17  2  0  0  0  0
 18 17  1  0  0  0  0
 19 18  2  0  0  0  0
 20 21  1  0  0  0  0
 20  3  1  0  0  0  0
 22 20  1  0  0  0  0
 23 20  1  0  0  0  0
M  END
>  <minimizedAffinity>
-6.38007498

>  <minimizedRMSD>
3.46777153

$$$$
