
 OpenBabel03272501163D

 37 41  0  0  1  0  0  0  0  0999 V2000
   34.9550   28.9990   50.4650 C   0  0  0  0  0  0  0  0  0  0  0  0
   34.9860   28.0510   51.0390 H   0  0  0  0  0  0  0  0  0  0  0  0
   34.4810   29.7490   51.1510 H   0  0  0  0  0  0  0  0  0  0  0  0
   36.6700   30.8390   50.1420 C   0  0  1  0  0  0  0  0  0  0  0  0
   36.3250   29.4550   50.0510 C   0  0  1  0  0  0  0  0  0  0  0  0
   37.3910   29.8100   51.0400 C   0  0  0  0  0  0  0  0  0  0  0  0
   36.0530   31.5840   50.7230 H   0  0  0  0  0  0  0  0  0  0  0  0
   36.6640   28.9120   49.1150 H   0  0  0  0  0  0  0  0  0  0  0  0
   37.0720   29.7380   52.0980 H   0  0  0  0  0  0  0  0  0  0  0  0
   38.4080   29.5100   50.7800 H   0  0  0  0  0  0  0  0  0  0  0  0
   37.6280   31.4880   49.1700 C   0  0  0  0  0  0  0  0  0  0  0  0
   38.0950   32.7500   49.5150 C   0  0  0  0  0  0  0  0  0  0  0  0
   38.9680   33.3470   48.5860 C   0  0  0  0  0  0  0  0  0  0  0  0
   39.3000   32.6840   47.4370 N   0  0  0  0  0  0  0  0  0  0  0  0
   38.8150   31.4420   47.1400 C   0  0  0  0  0  0  0  0  0  0  0  0
   37.9620   30.8370   48.0290 N   0  0  0  0  0  0  0  0  0  0  0  0
   37.8250   33.2490   50.4120 H   0  0  0  0  0  0  0  0  0  0  0  0
   39.3790   34.3240   48.7700 H   0  0  0  0  0  0  0  0  0  0  0  0
   39.0830   30.9330   46.2360 H   0  0  0  0  0  0  0  0  0  0  0  0
   34.0160   28.8740   49.3080 C   0  0  0  0  0  0  0  0  0  0  0  0
   34.1990   29.5200   48.1120 C   0  0  0  0  0  0  0  0  0  0  0  0
   33.2130   29.2200   47.2780 N   0  0  0  0  0  0  0  0  0  0  0  0
   32.3960   28.3930   47.9050 C   0  0  0  0  0  0  0  0  0  0  0  0
   32.8890   28.1870   49.1410 N   0  0  0  0  0  0  0  0  0  0  0  0
   35.0500   30.1880   47.8940 H   0  0  0  0  0  0  0  0  0  0  0  0
   33.1410   29.6210   46.3480 H   0  0  0  0  0  0  0  0  0  0  0  0
   31.2040   27.6470   47.5540 C   0  0  0  0  0  0  0  0  0  0  0  0
   29.9460   28.0510   48.0250 C   0  0  0  0  0  0  0  0  0  0  0  0
   29.8720   28.9400   48.6500 H   0  0  0  0  0  0  0  0  0  0  0  0
   28.7550   27.4220   47.7710 C   0  0  0  0  0  3  0  0  0  0  0  0
   28.7420   26.2940   46.9940 C   0  0  0  0  0  3  0  0  0  0  0  0
   29.9340   25.8300   46.4950 C   0  0  0  0  0  0  0  0  0  0  0  0
   29.8810   24.6860   45.7520 C   0  0  0  0  0  3  0  0  0  0  0  0
   31.0140   24.1330   45.2430 C   0  0  0  0  0  3  0  0  0  0  0  0
   32.2150   24.7890   45.5210 C   0  0  0  0  0  3  0  0  0  0  0  0
   32.1960   25.9360   46.2760 C   0  0  0  0  0  3  0  0  0  0  0  0
   31.0740   26.5160   46.7960 C   0  0  0  0  0  0  0  0  0  0  0  0
  1  2  1  0  0  0  0
  1  3  1  0  0  0  0
  4  7  1  1  0  0  0
  4  6  1  0  0  0  0
  5  8  1  6  0  0  0
  5  4  1  0  0  0  0
  5  1  1  0  0  0  0
  5  6  1  0  0  0  0
  6  9  1  0  0  0  0
 10  6  1  0  0  0  0
 11 12  1  0  0  0  0
 11  4  1  0  0  0  0
 12 17  1  0  0  0  0
 13 18  1  0  0  0  0
 13 12  2  0  0  0  0
 14 13  1  0  0  0  0
 15 14  2  0  0  0  0
 15 16  1  0  0  0  0
 16 11  2  0  0  0  0
 19 15  1  0  0  0  0
 20  1  1  0  0  0  0
 21 20  2  0  0  0  0
 22 23  1  0  0  0  0
 22 21  1  0  0  0  0
 23 24  2  0  0  0  0
 24 20  1  0  0  0  0
 25 21  1  0  0  0  0
 26 22  1  0  0  0  0
 27 23  1  0  0  0  0
 27 28  1  0  0  0  0
 28 29  1  0  0  0  0
 30 28  2  0  0  0  0
 31 30  1  0  0  0  0
 32 37  1  0  0  0  0
 32 31  2  0  0  0  0
 33 32  1  0  0  0  0
 34 35  1  0  0  0  0
 34 33  2  0  0  0  0
 35 36  2  0  0  0  0
 36 37  1  0  0  0  0
 37 27  2  0  0  0  0
M  END
>  <minimizedAffinity>
-6.1930666

>  <minimizedRMSD>
1.27429545

$$$$
