
 OpenBabel03272509253D

 26 28  0  0  0  0  0  0  0  0999 V2000
   38.1170   30.5930   47.3210 C   0  0  0  0  0  0  0  0  0  0  0  0
   38.6740   29.7650   47.7970 H   0  0  0  0  0  0  0  0  0  0  0  0
   37.2690   30.1990   46.7120 H   0  0  0  0  0  0  0  0  0  0  0  0
   38.9650   31.4070   46.3900 C   0  0  0  0  0  0  0  0  0  0  0  0
   39.4650   32.6650   46.7200 C   0  0  0  0  0  0  0  0  0  0  0  0
   39.2020   33.0780   47.7030 H   0  0  0  0  0  0  0  0  0  0  0  0
   40.2540   33.3370   45.8160 C   0  0  0  0  0  3  0  0  0  0  0  0
   40.5900   32.8360   44.5760 C   0  0  0  0  0  3  0  0  0  0  0  0
   40.0960   31.5880   44.2490 C   0  0  0  0  0  0  0  0  0  0  0  0
   40.4180   31.0760   43.0100 C   0  0  0  0  0  3  0  0  0  0  0  0
   39.9440   29.8290   42.6210 C   0  0  0  0  0  3  0  0  0  0  0  0
   39.1420   29.1010   43.4880 C   0  0  0  0  0  3  0  0  0  0  0  0
   38.8450   29.6680   44.7320 C   0  0  0  0  0  3  0  0  0  0  0  0
   39.3050   30.9120   45.1490 C   0  0  0  0  0  0  0  0  0  0  0  0
   37.5460   31.5640   48.3540 C   0  0  0  0  0  0  0  0  0  0  0  0
   36.6140   32.0090   47.8800 H   0  0  0  0  0  0  0  0  0  0  0  0
   38.2360   32.3220   48.6970 H   0  0  0  0  0  0  0  0  0  0  0  0
   37.0510   29.8110   51.6840 C   0  0  0  0  0  0  0  0  0  0  0  0
   37.6980   30.5730   50.6940 C   0  0  0  0  0  0  0  0  0  0  0  0
   37.0130   30.7780   49.5110 C   0  0  0  0  0  0  0  0  0  0  0  0
   35.7620   30.2370   49.3730 N   0  0  0  0  0  0  0  0  0  0  0  0
   35.1760   29.5140   50.3410 C   0  0  0  0  0  0  0  0  0  0  0  0
   35.8210   29.2990   51.5020 N   0  0  0  0  0  0  0  0  0  0  0  0
   37.5790   29.6450   52.6120 H   0  0  0  0  0  0  0  0  0  0  0  0
   38.6780   30.9970   50.8050 H   0  0  0  0  0  0  0  0  0  0  0  0
   34.1810   29.1590   50.0620 H   0  0  0  0  0  0  0  0  0  0  0  0
  1  2  1  0  0  0  0
  1 15  1  0  0  0  0
  3  1  1  0  0  0  0
  4  5  1  0  0  0  0
  4  1  1  0  0  0  0
  5  6  1  0  0  0  0
  7  5  2  0  0  0  0
  8  7  1  0  0  0  0
  9  8  2  0  0  0  0
  9 14  1  0  0  0  0
 10  9  1  0  0  0  0
 11 10  2  0  0  0  0
 11 12  1  0  0  0  0
 12 13  2  0  0  0  0
 13 14  1  0  0  0  0
 14  4  2  0  0  0  0
 15 17  1  0  0  0  0
 15 20  1  0  0  0  0
 16 15  1  0  0  0  0
 18 24  1  0  0  0  0
 19 25  1  0  0  0  0
 19 18  2  0  0  0  0
 20 19  1  0  0  0  0
 21 20  2  0  0  0  0
 21 22  1  0  0  0  0
 22 23  2  0  0  0  0
 23 18  1  0  0  0  0
 26 22  1  0  0  0  0
M  END
>  <minimizedAffinity>
-6.00836086

>  <minimizedRMSD>
1.44509542

$$$$
