
 OpenBabel03272500133D

 23 25  0  0  0  0  0  0  0  0999 V2000
   38.1670   26.1720   36.8000 C   0  0  0  0  0  0  0  0  0  0  0  0
   38.1490   24.7720   36.7340 C   0  0  0  0  0  0  0  0  0  0  0  0
   38.1490   24.1810   35.4730 C   0  0  0  0  0  0  0  0  0  0  0  0
   38.1650   25.0210   34.3970 N   0  0  0  0  0  0  0  0  0  0  0  0
   38.1800   26.3480   34.4770 C   0  0  0  0  0  0  0  0  0  0  0  0
   38.1810   26.8980   35.6680 N   0  0  0  0  0  0  0  0  0  0  0  0
   38.1680   26.7150   37.7370 H   0  0  0  0  0  0  0  0  0  0  0  0
   38.1350   23.1250   35.4130 H   0  0  0  0  0  0  0  0  0  0  0  0
   38.1950   26.9490   33.1470 C   0  0  0  0  0  0  0  0  0  0  0  0
   39.1520   26.6450   32.2010 C   0  0  0  0  0  0  0  0  0  0  0  0
   39.9530   25.9220   32.4240 H   0  0  0  0  0  0  0  0  0  0  0  0
   39.2260   27.1690   30.9390 C   0  0  0  0  0  3  0  0  0  0  0  0
   38.2820   28.0820   30.5440 C   0  0  0  0  0  3  0  0  0  0  0  0
   37.2940   28.4360   31.4350 C   0  0  0  0  0  0  0  0  0  0  0  0
   36.3800   29.3470   30.9950 C   0  0  0  0  0  3  0  0  0  0  0  0
   35.3590   29.7590   31.8160 C   0  0  0  0  0  3  0  0  0  0  0  0
   35.3170   29.2000   33.0970 C   0  0  0  0  0  3  0  0  0  0  0  0
   36.2730   28.2840   33.4780 C   0  0  0  0  0  3  0  0  0  0  0  0
   37.2920   27.8680   32.6700 C   0  0  0  0  0  0  0  0  0  0  0  0
   38.1250   23.9930   38.0190 C   0  0  0  0  0  0  0  0  0  0  0  0
   39.3800   23.3840   38.2250 F   0  0  0  0  0  0  0  0  0  0  0  0
   37.9280   24.8840   39.0400 F   0  0  0  0  0  0  0  0  0  0  0  0
   37.1580   23.0200   38.0340 F   0  0  0  0  0  0  0  0  0  0  0  0
  1  7  1  0  0  0  0
  2  1  1  0  0  0  0
  2 20  1  0  0  0  0
  3  2  2  0  0  0  0
  4  5  2  0  0  0  0
  4  3  1  0  0  0  0
  5  6  1  0  0  0  0
  6  1  2  0  0  0  0
  8  3  1  0  0  0  0
  9  5  1  0  0  0  0
 10 11  1  0  0  0  0
 10  9  2  0  0  0  0
 12 10  1  0  0  0  0
 13 12  2  0  0  0  0
 13 14  1  0  0  0  0
 14 19  1  0  0  0  0
 15 14  2  0  0  0  0
 15 16  1  0  0  0  0
 16 17  2  0  0  0  0
 17 18  1  0  0  0  0
 19  9  1  0  0  0  0
 19 18  2  0  0  0  0
 20 23  1  0  0  0  0
 20 21  1  0  0  0  0
 20 22  1  0  0  0  0
M  END
>  <minimizedAffinity>
-5.84057999

$$$$

 OpenBabel03272500133D

 23 25  0  0  0  0  0  0  0  0999 V2000
   37.3470   25.8400   32.8900 C   0  0  0  0  0  0  0  0  0  0  0  0
   37.1320   27.1830   33.2360 C   0  0  0  0  0  0  0  0  0  0  0  0
   37.3590   27.5580   34.5580 C   0  0  0  0  0  0  0  0  0  0  0  0
   37.7730   26.5790   35.4150 N   0  0  0  0  0  0  0  0  0  0  0  0
   37.9710   25.3100   35.0710 C   0  0  0  0  0  0  0  0  0  0  0  0
   37.7560   24.9640   33.8240 N   0  0  0  0  0  0  0  0  0  0  0  0
   37.1950   25.4620   31.8870 H   0  0  0  0  0  0  0  0  0  0  0  0
   37.2000   28.5670   34.8270 H   0  0  0  0  0  0  0  0  0  0  0  0
   38.4120   24.5230   36.2190 C   0  0  0  0  0  0  0  0  0  0  0  0
   37.7500   24.5330   37.4290 C   0  0  0  0  0  0  0  0  0  0  0  0
   36.8470   25.1490   37.5710 H   0  0  0  0  0  0  0  0  0  0  0  0
   38.1070   23.8230   38.5430 C   0  0  0  0  0  3  0  0  0  0  0  0
   39.2160   23.0190   38.4900 C   0  0  0  0  0  3  0  0  0  0  0  0
   39.9290   22.9570   37.3130 C   0  0  0  0  0  0  0  0  0  0  0  0
   41.0240   22.1440   37.3110 C   0  0  0  0  0  3  0  0  0  0  0  0
   41.7950   22.0200   36.1820 C   0  0  0  0  0  3  0  0  0  0  0  0
   41.3980   22.7610   35.0640 C   0  0  0  0  0  3  0  0  0  0  0  0
   40.2800   23.5640   35.1350 C   0  0  0  0  0  3  0  0  0  0  0  0
   39.5070   23.6950   36.2530 C   0  0  0  0  0  0  0  0  0  0  0  0
   36.6670   28.1330   32.1690 C   0  0  0  0  0  0  0  0  0  0  0  0
   36.3750   29.3860   32.7470 F   0  0  0  0  0  0  0  0  0  0  0  0
   37.7060   28.3160   31.2950 F   0  0  0  0  0  0  0  0  0  0  0  0
   35.5530   27.6860   31.5050 F   0  0  0  0  0  0  0  0  0  0  0  0
  1  2  2  0  0  0  0
  1  6  1  0  0  0  0
  2  3  1  0  0  0  0
  3  8  1  0  0  0  0
  3  4  2  0  0  0  0
  5  4  1  0  0  0  0
  5  9  1  0  0  0  0
  6  5  2  0  0  0  0
  7  1  1  0  0  0  0
  9 19  2  0  0  0  0
  9 10  1  0  0  0  0
 10 11  1  0  0  0  0
 10 12  2  0  0  0  0
 13 12  1  0  0  0  0
 14 13  2  0  0  0  0
 15 14  1  0  0  0  0
 16 15  2  0  0  0  0
 17 18  2  0  0  0  0
 17 16  1  0  0  0  0
 18 19  1  0  0  0  0
 19 14  1  0  0  0  0
 20 21  1  0  0  0  0
 20  2  1  0  0  0  0
 22 20  1  0  0  0  0
 23 20  1  0  0  0  0
M  END
>  <minimizedAffinity>
-5.7592473

$$$$

 OpenBabel03272500133D

 23 25  0  0  0  0  0  0  0  0999 V2000
   38.0790   24.5120   34.4220 C   0  0  0  0  0  0  0  0  0  0  0  0
   38.4620   24.7440   35.7500 C   0  0  0  0  0  0  0  0  0  0  0  0
   38.2530   26.0170   36.2740 C   0  0  0  0  0  0  0  0  0  0  0  0
   37.6890   26.9420   35.4440 N   0  0  0  0  0  0  0  0  0  0  0  0
   37.3320   26.7060   34.1850 C   0  0  0  0  0  0  0  0  0  0  0  0
   37.5300   25.5050   33.6980 N   0  0  0  0  0  0  0  0  0  0  0  0
   38.2040   23.5540   33.9340 H   0  0  0  0  0  0  0  0  0  0  0  0
   38.5400   26.2010   37.2760 H   0  0  0  0  0  0  0  0  0  0  0  0
   36.7590   27.9020   33.5740 C   0  0  0  0  0  0  0  0  0  0  0  0
   35.9560   28.7830   34.2680 C   0  0  0  0  0  0  0  0  0  0  0  0
   35.7150   28.6080   35.3290 H   0  0  0  0  0  0  0  0  0  0  0  0
   35.3870   29.9190   33.7600 C   0  0  0  0  0  3  0  0  0  0  0  0
   35.6140   30.2440   32.4480 C   0  0  0  0  0  3  0  0  0  0  0  0
   36.4080   29.4120   31.6900 C   0  0  0  0  0  0  0  0  0  0  0  0
   36.6040   29.7780   30.3910 C   0  0  0  0  0  3  0  0  0  0  0  0
   37.3810   29.0080   29.5620 C   0  0  0  0  0  3  0  0  0  0  0  0
   37.9440   27.8550   30.1180 C   0  0  0  0  0  3  0  0  0  0  0  0
   37.7060   27.5440   31.4390 C   0  0  0  0  0  3  0  0  0  0  0  0
   36.9350   28.3020   32.2720 C   0  0  0  0  0  0  0  0  0  0  0  0
   39.0790   23.6140   36.5270 C   0  0  0  0  0  0  0  0  0  0  0  0
   38.8120   23.7860   37.9010 F   0  0  0  0  0  0  0  0  0  0  0  0
   38.4640   22.4560   36.1310 F   0  0  0  0  0  0  0  0  0  0  0  0
   40.4360   23.5250   36.3510 F   0  0  0  0  0  0  0  0  0  0  0  0
  1  2  1  0  0  0  0
  2  3  2  0  0  0  0
  2 20  1  0  0  0  0
  3  8  1  0  0  0  0
  4  3  1  0  0  0  0
  5  4  2  0  0  0  0
  6  5  1  0  0  0  0
  6  1  2  0  0  0  0
  7  1  1  0  0  0  0
  9  5  1  0  0  0  0
  9 10  1  0  0  0  0
 10 11  1  0  0  0  0
 12 10  2  0  0  0  0
 13 12  1  0  0  0  0
 14 19  1  0  0  0  0
 14 13  2  0  0  0  0
 15 14  1  0  0  0  0
 16 17  1  0  0  0  0
 16 15  2  0  0  0  0
 17 18  2  0  0  0  0
 18 19  1  0  0  0  0
 19  9  2  0  0  0  0
 20 21  1  0  0  0  0
 22 20  1  0  0  0  0
 23 20  1  0  0  0  0
M  END
>  <minimizedAffinity>
-5.54407024

$$$$

 OpenBabel03272500133D

 23 25  0  0  0  0  0  0  0  0999 V2000
   36.6890   28.0070   32.9480 C   0  0  0  0  0  0  0  0  0  0  0  0
   36.7100   28.6860   31.7220 C   0  0  0  0  0  0  0  0  0  0  0  0
   36.1700   29.9690   31.6800 C   0  0  0  0  0  0  0  0  0  0  0  0
   35.6600   30.4620   32.8460 N   0  0  0  0  0  0  0  0  0  0  0  0
   35.6460   29.8040   34.0010 C   0  0  0  0  0  0  0  0  0  0  0  0
   36.1570   28.5970   34.0330 N   0  0  0  0  0  0  0  0  0  0  0  0
   37.0870   27.0070   33.0710 H   0  0  0  0  0  0  0  0  0  0  0  0
   36.1820   30.4890   30.7590 H   0  0  0  0  0  0  0  0  0  0  0  0
   35.0310   30.6100   35.0510 C   0  0  0  0  0  0  0  0  0  0  0  0
   35.7040   31.6200   35.7070 C   0  0  0  0  0  0  0  0  0  0  0  0
   36.7500   31.8560   35.4540 H   0  0  0  0  0  0  0  0  0  0  0  0
   35.1900   32.4120   36.6990 C   0  0  0  0  0  3  0  0  0  0  0  0
   33.8950   32.2130   37.1020 C   0  0  0  0  0  3  0  0  0  0  0  0
   33.1590   31.2210   36.4920 C   0  0  0  0  0  0  0  0  0  0  0  0
   31.8770   31.0640   36.9280 C   0  0  0  0  0  3  0  0  0  0  0  0
   31.0700   30.0990   36.3770 C   0  0  0  0  0  3  0  0  0  0  0  0
   31.6310   29.3100   35.3670 C   0  0  0  0  0  3  0  0  0  0  0  0
   32.9340   29.5240   34.9740 C   0  0  0  0  0  3  0  0  0  0  0  0
   33.7450   30.4790   35.5150 C   0  0  0  0  0  0  0  0  0  0  0  0
   37.3060   27.9940   30.5280 C   0  0  0  0  0  0  0  0  0  0  0  0
   38.7050   28.1700   30.5290 F   0  0  0  0  0  0  0  0  0  0  0  0
   37.0600   26.6530   30.6620 F   0  0  0  0  0  0  0  0  0  0  0  0
   36.8060   28.4590   29.3380 F   0  0  0  0  0  0  0  0  0  0  0  0
  1  7  1  0  0  0  0
  1  6  1  0  0  0  0
  2  1  2  0  0  0  0
  3  2  1  0  0  0  0
  3  4  2  0  0  0  0
  4  5  1  0  0  0  0
  5  6  2  0  0  0  0
  5  9  1  0  0  0  0
  8  3  1  0  0  0  0
  9 19  2  0  0  0  0
  9 10  1  0  0  0  0
 10 12  2  0  0  0  0
 11 10  1  0  0  0  0
 12 13  1  0  0  0  0
 14 15  1  0  0  0  0
 14 13  2  0  0  0  0
 16 15  2  0  0  0  0
 17 16  1  0  0  0  0
 18 17  2  0  0  0  0
 18 19  1  0  0  0  0
 19 14  1  0  0  0  0
 20 21  1  0  0  0  0
 20 22  1  0  0  0  0
 20  2  1  0  0  0  0
 23 20  1  0  0  0  0
M  END
>  <minimizedAffinity>
-5.51281166

$$$$

 OpenBabel03272500133D

 23 25  0  0  0  0  0  0  0  0999 V2000
   35.0030   31.4780   35.8250 C   0  0  0  0  0  0  0  0  0  0  0  0
   33.6430   31.1470   35.9100 C   0  0  0  0  0  0  0  0  0  0  0  0
   33.2060   30.0170   35.2250 C   0  0  0  0  0  0  0  0  0  0  0  0
   34.1440   29.3190   34.5220 N   0  0  0  0  0  0  0  0  0  0  0  0
   35.4310   29.6470   34.4500 C   0  0  0  0  0  0  0  0  0  0  0  0
   35.8360   30.7130   35.0980 N   0  0  0  0  0  0  0  0  0  0  0  0
   35.4290   32.3390   36.3250 H   0  0  0  0  0  0  0  0  0  0  0  0
   32.1820   29.7600   35.2840 H   0  0  0  0  0  0  0  0  0  0  0  0
   36.1650   28.6970   33.6190 C   0  0  0  0  0  0  0  0  0  0  0  0
   35.9080   28.5300   32.2740 C   0  0  0  0  0  0  0  0  0  0  0  0
   35.1250   29.1200   31.7730 H   0  0  0  0  0  0  0  0  0  0  0  0
   36.5550   27.6600   31.4380 C   0  0  0  0  0  3  0  0  0  0  0  0
   37.5520   26.8680   31.9460 C   0  0  0  0  0  3  0  0  0  0  0  0
   37.8650   26.9800   33.2830 C   0  0  0  0  0  0  0  0  0  0  0  0
   38.8630   26.1720   33.7410 C   0  0  0  0  0  3  0  0  0  0  0  0
   39.2420   26.2150   35.0600 C   0  0  0  0  0  3  0  0  0  0  0  0
   38.5580   27.1160   35.8820 C   0  0  0  0  0  3  0  0  0  0  0  0
   37.5590   27.9040   35.3540 C   0  0  0  0  0  3  0  0  0  0  0  0
   37.1740   27.8690   34.0450 C   0  0  0  0  0  0  0  0  0  0  0  0
   32.7390   32.0290   36.7250 C   0  0  0  0  0  0  0  0  0  0  0  0
   33.4760   32.6220   37.7710 F   0  0  0  0  0  0  0  0  0  0  0  0
   32.3000   33.0390   35.9090 F   0  0  0  0  0  0  0  0  0  0  0  0
   31.6780   31.3500   37.2660 F   0  0  0  0  0  0  0  0  0  0  0  0
  1  2  1  0  0  0  0
  1  7  1  0  0  0  0
  2 20  1  0  0  0  0
  3  8  1  0  0  0  0
  3  2  2  0  0  0  0
  4  3  1  0  0  0  0
  5  4  2  0  0  0  0
  5  6  1  0  0  0  0
  6  1  2  0  0  0  0
  9 19  1  0  0  0  0
  9  5  1  0  0  0  0
 10  9  2  0  0  0  0
 11 10  1  0  0  0  0
 12 13  2  0  0  0  0
 12 10  1  0  0  0  0
 13 14  1  0  0  0  0
 14 15  2  0  0  0  0
 14 19  1  0  0  0  0
 15 16  1  0  0  0  0
 16 17  2  0  0  0  0
 18 17  1  0  0  0  0
 19 18  2  0  0  0  0
 20 23  1  0  0  0  0
 20 21  1  0  0  0  0
 22 20  1  0  0  0  0
M  END
>  <minimizedAffinity>
-5.46139717

$$$$

 OpenBabel03272500133D

 23 25  0  0  0  0  0  0  0  0999 V2000
   37.3420   24.5490   32.1830 C   0  0  0  0  0  0  0  0  0  0  0  0
   36.1790   23.9250   31.7120 C   0  0  0  0  0  0  0  0  0  0  0  0
   35.2240   24.7190   31.0820 C   0  0  0  0  0  0  0  0  0  0  0  0
   35.5010   26.0510   30.9760 N   0  0  0  0  0  0  0  0  0  0  0  0
   36.6100   26.6290   31.4300 C   0  0  0  0  0  0  0  0  0  0  0  0
   37.5050   25.8740   32.0210 N   0  0  0  0  0  0  0  0  0  0  0  0
   38.1360   24.0090   32.6840 H   0  0  0  0  0  0  0  0  0  0  0  0
   34.3430   24.2560   30.7240 H   0  0  0  0  0  0  0  0  0  0  0  0
   36.5970   28.0630   31.1580 C   0  0  0  0  0  0  0  0  0  0  0  0
   36.9580   28.5940   29.9370 C   0  0  0  0  0  0  0  0  0  0  0  0
   37.2740   27.9390   29.1100 H   0  0  0  0  0  0  0  0  0  0  0  0
   36.9700   29.9240   29.6150 C   0  0  0  0  0  3  0  0  0  0  0  0
   36.5960   30.8400   30.5640 C   0  0  0  0  0  3  0  0  0  0  0  0
   36.2230   30.3840   31.8090 C   0  0  0  0  0  0  0  0  0  0  0  0
   35.8600   31.3340   32.7170 C   0  0  0  0  0  3  0  0  0  0  0  0
   35.4720   30.9710   33.9840 C   0  0  0  0  0  3  0  0  0  0  0  0
   35.4730   29.6030   34.2750 C   0  0  0  0  0  3  0  0  0  0  0  0
   35.8510   28.6970   33.3090 C   0  0  0  0  0  3  0  0  0  0  0  0
   36.2380   29.0460   32.0470 C   0  0  0  0  0  0  0  0  0  0  0  0
   36.0260   22.4430   31.9170 C   0  0  0  0  0  0  0  0  0  0  0  0
   36.9050   22.0150   32.9330 F   0  0  0  0  0  0  0  0  0  0  0  0
   34.7490   22.2150   32.3560 F   0  0  0  0  0  0  0  0  0  0  0  0
   36.2820   21.7190   30.7810 F   0  0  0  0  0  0  0  0  0  0  0  0
  1  7  1  0  0  0  0
  2 20  1  0  0  0  0
  2  1  2  0  0  0  0
  3  2  1  0  0  0  0
  4  3  2  0  0  0  0
  4  5  1  0  0  0  0
  5  6  2  0  0  0  0
  6  1  1  0  0  0  0
  8  3  1  0  0  0  0
  9  5  1  0  0  0  0
  9 19  1  0  0  0  0
 10  9  2  0  0  0  0
 11 10  1  0  0  0  0
 12 10  1  0  0  0  0
 12 13  2  0  0  0  0
 13 14  1  0  0  0  0
 14 19  2  0  0  0  0
 14 15  1  0  0  0  0
 15 16  2  0  0  0  0
 16 17  1  0  0  0  0
 18 17  2  0  0  0  0
 19 18  1  0  0  0  0
 20 22  1  0  0  0  0
 20 21  1  0  0  0  0
 23 20  1  0  0  0  0
M  END
>  <minimizedAffinity>
-5.45894432

$$$$

 OpenBabel03272500133D

 23 25  0  0  0  0  0  0  0  0999 V2000
   36.6060   26.7310   32.8010 C   0  0  0  0  0  0  0  0  0  0  0  0
   36.5610   27.9060   33.5660 C   0  0  0  0  0  0  0  0  0  0  0  0
   37.3770   27.9810   34.6910 C   0  0  0  0  0  0  0  0  0  0  0  0
   38.1590   26.8950   34.9600 N   0  0  0  0  0  0  0  0  0  0  0  0
   38.1900   25.7870   34.2250 C   0  0  0  0  0  0  0  0  0  0  0  0
   37.4190   25.7240   33.1660 N   0  0  0  0  0  0  0  0  0  0  0  0
   36.0060   26.5870   31.9120 H   0  0  0  0  0  0  0  0  0  0  0  0
   37.3490   28.8630   35.2740 H   0  0  0  0  0  0  0  0  0  0  0  0
   39.1290   24.8190   34.7830 C   0  0  0  0  0  0  0  0  0  0  0  0
   40.2140   24.3400   34.0780 C   0  0  0  0  0  0  0  0  0  0  0  0
   40.4100   24.6800   33.0490 H   0  0  0  0  0  0  0  0  0  0  0  0
   41.1310   23.4340   34.5380 C   0  0  0  0  0  3  0  0  0  0  0  0
   40.9930   22.9360   35.8070 C   0  0  0  0  0  3  0  0  0  0  0  0
   39.9320   23.3680   36.5730 C   0  0  0  0  0  0  0  0  0  0  0  0
   39.8380   22.8440   37.8280 C   0  0  0  0  0  3  0  0  0  0  0  0
   38.8130   23.2170   38.6620 C   0  0  0  0  0  3  0  0  0  0  0  0
   37.8960   24.1440   38.1560 C   0  0  0  0  0  3  0  0  0  0  0  0
   38.0510   24.6350   36.8780 C   0  0  0  0  0  3  0  0  0  0  0  0
   39.0660   24.2700   36.0410 C   0  0  0  0  0  0  0  0  0  0  0  0
   35.6350   29.0080   33.1330 C   0  0  0  0  0  0  0  0  0  0  0  0
   34.6630   28.4900   32.2530 F   0  0  0  0  0  0  0  0  0  0  0  0
   34.9800   29.4600   34.2480 F   0  0  0  0  0  0  0  0  0  0  0  0
   36.2900   30.0380   32.5070 F   0  0  0  0  0  0  0  0  0  0  0  0
  1  6  2  0  0  0  0
  1  2  1  0  0  0  0
  2  3  2  0  0  0  0
  3  4  1  0  0  0  0
  3  8  1  0  0  0  0
  5  9  1  0  0  0  0
  5  4  2  0  0  0  0
  6  5  1  0  0  0  0
  7  1  1  0  0  0  0
  9 19  1  0  0  0  0
 10 12  1  0  0  0  0
 10  9  2  0  0  0  0
 11 10  1  0  0  0  0
 12 13  2  0  0  0  0
 13 14  1  0  0  0  0
 14 15  1  0  0  0  0
 15 16  2  0  0  0  0
 17 16  1  0  0  0  0
 18 17  2  0  0  0  0
 19 14  2  0  0  0  0
 19 18  1  0  0  0  0
 20  2  1  0  0  0  0
 20 22  1  0  0  0  0
 21 20  1  0  0  0  0
 23 20  1  0  0  0  0
M  END
>  <minimizedAffinity>
-5.41219425

$$$$

 OpenBabel03272500133D

 23 25  0  0  0  0  0  0  0  0999 V2000
   38.1620   26.0610   36.7650 C   0  0  0  0  0  0  0  0  0  0  0  0
   38.1780   24.6590   36.7890 C   0  0  0  0  0  0  0  0  0  0  0  0
   38.1890   23.9880   35.5690 C   0  0  0  0  0  0  0  0  0  0  0  0
   38.1830   24.7570   34.4420 N   0  0  0  0  0  0  0  0  0  0  0  0
   38.1670   26.0870   34.4350 C   0  0  0  0  0  0  0  0  0  0  0  0
   38.1570   26.7120   35.5880 N   0  0  0  0  0  0  0  0  0  0  0  0
   38.1510   26.6630   37.6650 H   0  0  0  0  0  0  0  0  0  0  0  0
   38.2010   22.9310   35.5780 H   0  0  0  0  0  0  0  0  0  0  0  0
   38.1640   26.6000   33.0690 C   0  0  0  0  0  0  0  0  0  0  0  0
   37.0150   26.7040   32.3130 C   0  0  0  0  0  0  0  0  0  0  0  0
   36.0410   26.3950   32.7240 H   0  0  0  0  0  0  0  0  0  0  0  0
   36.9410   27.1740   31.0290 C   0  0  0  0  0  3  0  0  0  0  0  0
   38.0900   27.5880   30.4070 C   0  0  0  0  0  3  0  0  0  0  0  0
   39.2780   27.5150   31.1000 C   0  0  0  0  0  0  0  0  0  0  0  0
   40.3930   27.9390   30.4390 C   0  0  0  0  0  3  0  0  0  0  0  0
   41.6210   27.9020   31.0520 C   0  0  0  0  0  3  0  0  0  0  0  0
   41.6560   27.4150   32.3620 C   0  0  0  0  0  3  0  0  0  0  0  0
   40.4910   27.0030   32.9720 C   0  0  0  0  0  3  0  0  0  0  0  0
   39.2650   27.0350   32.3720 C   0  0  0  0  0  0  0  0  0  0  0  0
   38.1750   23.9650   38.1220 C   0  0  0  0  0  0  0  0  0  0  0  0
   39.4440   23.3970   38.3610 F   0  0  0  0  0  0  0  0  0  0  0  0
   37.9630   24.9160   39.0850 F   0  0  0  0  0  0  0  0  0  0  0  0
   37.2290   22.9750   38.2060 F   0  0  0  0  0  0  0  0  0  0  0  0
  1  2  1  0  0  0  0
  1  7  1  0  0  0  0
  2 20  1  0  0  0  0
  3  8  1  0  0  0  0
  3  2  2  0  0  0  0
  4  3  1  0  0  0  0
  5  4  2  0  0  0  0
  5  6  1  0  0  0  0
  6  1  2  0  0  0  0
  9  5  1  0  0  0  0
 10 11  1  0  0  0  0
 10  9  2  0  0  0  0
 12 10  1  0  0  0  0
 13 12  2  0  0  0  0
 13 14  1  0  0  0  0
 14 19  1  0  0  0  0
 15 16  1  0  0  0  0
 15 14  2  0  0  0  0
 16 17  2  0  0  0  0
 17 18  1  0  0  0  0
 19 18  2  0  0  0  0
 19  9  1  0  0  0  0
 20 23  1  0  0  0  0
 20 21  1  0  0  0  0
 20 22  1  0  0  0  0
M  END
>  <minimizedAffinity>
-5.39554548

$$$$

 OpenBabel03272500133D

 23 25  0  0  0  0  0  0  0  0999 V2000
   37.1470   21.0150   32.9870 C   0  0  0  0  0  0  0  0  0  0  0  0
   35.9370   21.0630   32.2790 C   0  0  0  0  0  0  0  0  0  0  0  0
   35.5450   22.2870   31.7440 C   0  0  0  0  0  0  0  0  0  0  0  0
   36.3770   23.3480   31.9550 N   0  0  0  0  0  0  0  0  0  0  0  0
   37.5210   23.2860   32.6310 C   0  0  0  0  0  0  0  0  0  0  0  0
   37.8840   22.1300   33.1310 N   0  0  0  0  0  0  0  0  0  0  0  0
   37.5270   20.1060   33.4360 H   0  0  0  0  0  0  0  0  0  0  0  0
   34.6340   22.3320   31.2080 H   0  0  0  0  0  0  0  0  0  0  0  0
   38.1700   24.5940   32.6740 C   0  0  0  0  0  0  0  0  0  0  0  0
   38.6940   25.2040   31.5540 C   0  0  0  0  0  0  0  0  0  0  0  0
   38.6390   24.7140   30.5690 H   0  0  0  0  0  0  0  0  0  0  0  0
   39.3150   26.4240   31.5240 C   0  0  0  0  0  3  0  0  0  0  0  0
   39.4440   27.1310   32.6900 C   0  0  0  0  0  3  0  0  0  0  0  0
   38.9440   26.5850   33.8520 C   0  0  0  0  0  0  0  0  0  0  0  0
   39.0980   27.3270   34.9850 C   0  0  0  0  0  3  0  0  0  0  0  0
   38.6300   26.8620   36.1890 C   0  0  0  0  0  3  0  0  0  0  0  0
   38.0020   25.6120   36.1800 C   0  0  0  0  0  3  0  0  0  0  0  0
   37.8800   24.9150   34.9980 C   0  0  0  0  0  3  0  0  0  0  0  0
   38.3420   25.3680   33.7960 C   0  0  0  0  0  0  0  0  0  0  0  0
   35.1340   19.7990   32.1440 C   0  0  0  0  0  0  0  0  0  0  0  0
   35.2380   19.0450   33.3310 F   0  0  0  0  0  0  0  0  0  0  0  0
   33.8200   20.1570   31.9990 F   0  0  0  0  0  0  0  0  0  0  0  0
   35.5410   19.0190   31.0920 F   0  0  0  0  0  0  0  0  0  0  0  0
  1  6  1  0  0  0  0
  1  7  1  0  0  0  0
  2  1  2  0  0  0  0
  3  4  2  0  0  0  0
  3  2  1  0  0  0  0
  4  5  1  0  0  0  0
  5  9  1  0  0  0  0
  5  6  2  0  0  0  0
  8  3  1  0  0  0  0
  9 19  1  0  0  0  0
 10  9  2  0  0  0  0
 11 10  1  0  0  0  0
 12 10  1  0  0  0  0
 12 13  2  0  0  0  0
 13 14  1  0  0  0  0
 14 15  1  0  0  0  0
 15 16  2  0  0  0  0
 17 16  1  0  0  0  0
 18 17  2  0  0  0  0
 19 14  2  0  0  0  0
 19 18  1  0  0  0  0
 20  2  1  0  0  0  0
 20 21  1  0  0  0  0
 22 20  1  0  0  0  0
 23 20  1  0  0  0  0
M  END
>  <minimizedAffinity>
-5.39400196

$$$$
