
 OpenBabel03272509473D

 27 29  0  0  0  0  0  0  0  0999 V2000
   33.8500   27.7100   48.2590 C   0  0  0  0  0  0  0  0  0  0  0  0
   34.4880   27.6980   47.3610 H   0  0  0  0  0  0  0  0  0  0  0  0
   33.9370   26.6640   48.6760 H   0  0  0  0  0  0  0  0  0  0  0  0
   32.4380   27.9990   47.9380 C   0  0  0  0  0  0  0  0  0  0  0  0
   31.4660   27.4720   48.7770 C   0  0  0  0  0  0  0  0  0  0  0  0
   31.7660   26.8880   49.6420 H   0  0  0  0  0  0  0  0  0  0  0  0
   30.1060   27.6140   48.6320 C   0  0  0  0  0  3  0  0  0  0  0  0
   29.6880   28.3630   47.5260 C   0  0  0  0  0  3  0  0  0  0  0  0
   30.6200   28.9060   46.6630 C   0  0  0  0  0  0  0  0  0  0  0  0
   30.2670   29.6570   45.5600 C   0  0  0  0  0  3  0  0  0  0  0  0
   31.1720   30.2180   44.6820 C   0  0  0  0  0  3  0  0  0  0  0  0
   32.4980   30.0020   44.9410 C   0  0  0  0  0  3  0  0  0  0  0  0
   32.9170   29.2670   46.0180 C   0  0  0  0  0  3  0  0  0  0  0  0
   31.9800   28.7290   46.8640 C   0  0  0  0  0  0  0  0  0  0  0  0
   34.3570   28.6470   49.3040 C   0  0  0  0  0  0  0  0  0  0  0  0
   33.7530   28.6230   50.2060 H   0  0  0  0  0  0  0  0  0  0  0  0
   34.2360   29.6850   48.8880 H   0  0  0  0  0  0  0  0  0  0  0  0
   35.7230   28.4050   49.5800 O   0  0  0  0  0  0  0  0  0  0  0  0
   38.2020   30.9760   50.2650 C   0  0  0  0  0  0  0  0  0  0  0  0
   38.1840   31.6590   49.0520 C   0  0  0  0  0  0  0  0  0  0  0  0
   37.3260   31.2140   48.0490 C   0  0  0  0  0  0  0  0  0  0  0  0
   36.5560   30.1170   48.3490 N   0  0  0  0  0  0  0  0  0  0  0  0
   36.5950   29.4830   49.5210 C   0  0  0  0  0  0  0  0  0  0  0  0
   37.4240   29.9180   50.4820 N   0  0  0  0  0  0  0  0  0  0  0  0
   38.8810   31.3600   51.0020 H   0  0  0  0  0  0  0  0  0  0  0  0
   38.7730   32.5260   48.7710 H   0  0  0  0  0  0  0  0  0  0  0  0
   37.2270   31.6700   47.0600 H   0  0  0  0  0  0  0  0  0  0  0  0
  1  3  1  0  0  0  0
  1 15  1  0  0  0  0
  2  1  1  0  0  0  0
  4  1  1  0  0  0  0
  4  5  1  0  0  0  0
  5  6  1  0  0  0  0
  7  5  2  0  0  0  0
  8  7  1  0  0  0  0
  9 14  1  0  0  0  0
  9  8  2  0  0  0  0
 10  9  1  0  0  0  0
 11 12  1  0  0  0  0
 11 10  2  0  0  0  0
 12 13  2  0  0  0  0
 13 14  1  0  0  0  0
 14  4  2  0  0  0  0
 15 18  1  0  0  0  0
 15 16  1  0  0  0  0
 17 15  1  0  0  0  0
 19 24  1  0  0  0  0
 19 25  1  0  0  0  0
 20 19  2  0  0  0  0
 21 22  2  0  0  0  0
 21 20  1  0  0  0  0
 22 23  1  0  0  0  0
 23 18  1  0  0  0  0
 23 24  2  0  0  0  0
 26 20  1  0  0  0  0
 27 21  1  0  0  0  0
M  END
>  <minimizedAffinity>
-4.56232882

>  <minimizedRMSD>
2.39207745

$$$$
