
 OpenBabel03272509473D

 27 29  0  0  0  0  0  0  0  0999 V2000
   32.7710   27.9060   48.8390 C   0  0  0  0  0  0  0  0  0  0  0  0
   32.7990   27.1170   49.6070 H   0  0  0  0  0  0  0  0  0  0  0  0
   31.8100   28.4620   49.0470 H   0  0  0  0  0  0  0  0  0  0  0  0
   32.7370   27.3540   47.4710 C   0  0  0  0  0  0  0  0  0  0  0  0
   33.7470   26.4730   47.1050 C   0  0  0  0  0  0  0  0  0  0  0  0
   34.5100   26.2070   47.8280 H   0  0  0  0  0  0  0  0  0  0  0  0
   33.8930   25.8750   45.8760 C   0  0  0  0  0  3  0  0  0  0  0  0
   32.9230   26.1990   44.9220 C   0  0  0  0  0  3  0  0  0  0  0  0
   31.9000   27.0700   45.2410 C   0  0  0  0  0  0  0  0  0  0  0  0
   30.9130   27.4220   44.3420 C   0  0  0  0  0  3  0  0  0  0  0  0
   29.8750   28.2860   44.6310 C   0  0  0  0  0  3  0  0  0  0  0  0
   29.8430   28.8130   45.8920 C   0  0  0  0  0  3  0  0  0  0  0  0
   30.7900   28.5060   46.8320 C   0  0  0  0  0  3  0  0  0  0  0  0
   31.8040   27.6430   46.4990 C   0  0  0  0  0  0  0  0  0  0  0  0
   33.8890   28.8840   48.9880 C   0  0  0  0  0  0  0  0  0  0  0  0
   33.5510   29.8380   49.3810 H   0  0  0  0  0  0  0  0  0  0  0  0
   34.2620   29.1010   47.9500 H   0  0  0  0  0  0  0  0  0  0  0  0
   34.9390   28.3380   49.7630 O   0  0  0  0  0  0  0  0  0  0  0  0
   37.5040   30.3260   51.4020 C   0  0  0  0  0  0  0  0  0  0  0  0
   38.1830   30.8110   50.2880 C   0  0  0  0  0  0  0  0  0  0  0  0
   37.7380   30.4390   49.0220 C   0  0  0  0  0  0  0  0  0  0  0  0
   36.6440   29.6090   48.9810 N   0  0  0  0  0  0  0  0  0  0  0  0
   36.0140   29.1600   50.0660 C   0  0  0  0  0  0  0  0  0  0  0  0
   36.4490   29.5240   51.2820 N   0  0  0  0  0  0  0  0  0  0  0  0
   37.8890   30.6430   52.3530 H   0  0  0  0  0  0  0  0  0  0  0  0
   39.0490   31.4650   50.2720 H   0  0  0  0  0  0  0  0  0  0  0  0
   38.1910   30.7570   48.0790 H   0  0  0  0  0  0  0  0  0  0  0  0
  1 15  1  0  0  0  0
  1  3  1  0  0  0  0
  1  2  1  0  0  0  0
  4  1  1  0  0  0  0
  5  4  1  0  0  0  0
  5  6  1  0  0  0  0
  7  5  2  0  0  0  0
  8  9  2  0  0  0  0
  8  7  1  0  0  0  0
  9 14  1  0  0  0  0
 10 11  2  0  0  0  0
 10  9  1  0  0  0  0
 11 12  1  0  0  0  0
 12 13  2  0  0  0  0
 14 13  1  0  0  0  0
 14  4  2  0  0  0  0
 15 16  1  0  0  0  0
 15 18  1  0  0  0  0
 17 15  1  0  0  0  0
 18 23  1  0  0  0  0
 19 25  1  0  0  0  0
 20 19  2  0  0  0  0
 21 20  1  0  0  0  0
 22 21  2  0  0  0  0
 22 23  1  0  0  0  0
 23 24  2  0  0  0  0
 24 19  1  0  0  0  0
 26 20  1  0  0  0  0
 27 21  1  0  0  0  0
M  END
>  <minimizedAffinity>
-4.30666256

>  <minimizedRMSD>
1.52142441

$$$$
