
 OpenBabel03272509483D

 27 29  0  0  0  0  0  0  0  0999 V2000
   35.0630   29.4870   33.4210 C   0  0  0  0  0  0  0  0  0  0  0  0
   35.2670   30.0840   32.5190 H   0  0  0  0  0  0  0  0  0  0  0  0
   34.1380   28.8940   33.1600 H   0  0  0  0  0  0  0  0  0  0  0  0
   34.7910   30.3320   34.6010 C   0  0  0  0  0  0  0  0  0  0  0  0
   35.8140   31.1560   35.0530 C   0  0  0  0  0  0  0  0  0  0  0  0
   36.7620   31.1690   34.5250 H   0  0  0  0  0  0  0  0  0  0  0  0
   35.7570   31.9950   36.1410 C   0  0  0  0  0  3  0  0  0  0  0  0
   34.5450   32.0000   36.8410 C   0  0  0  0  0  3  0  0  0  0  0  0
   33.5000   31.1970   36.4290 C   0  0  0  0  0  0  0  0  0  0  0  0
   32.2830   31.1640   37.0780 C   0  0  0  0  0  3  0  0  0  0  0  0
   31.2170   30.3770   36.6870 C   0  0  0  0  0  3  0  0  0  0  0  0
   31.4040   29.5870   35.5860 C   0  0  0  0  0  3  0  0  0  0  0  0
   32.5860   29.5710   34.8970 C   0  0  0  0  0  3  0  0  0  0  0  0
   33.6180   30.3710   35.3210 C   0  0  0  0  0  0  0  0  0  0  0  0
   36.1490   28.5060   33.7120 C   0  0  0  0  0  0  0  0  0  0  0  0
   35.8160   27.7030   34.3610 H   0  0  0  0  0  0  0  0  0  0  0  0
   36.9320   29.0610   34.2980 H   0  0  0  0  0  0  0  0  0  0  0  0
   36.7180   28.0110   32.5140 O   0  0  0  0  0  0  0  0  0  0  0  0
   36.7570   24.3890   32.2010 C   0  0  0  0  0  0  0  0  0  0  0  0
   35.7100   24.2130   31.3000 C   0  0  0  0  0  0  0  0  0  0  0  0
   35.0330   25.3380   30.8360 C   0  0  0  0  0  0  0  0  0  0  0  0
   35.4660   26.5500   31.3170 N   0  0  0  0  0  0  0  0  0  0  0  0
   36.4720   26.6870   32.1800 C   0  0  0  0  0  0  0  0  0  0  0  0
   37.1190   25.5980   32.6220 N   0  0  0  0  0  0  0  0  0  0  0  0
   37.2430   23.4890   32.5270 H   0  0  0  0  0  0  0  0  0  0  0  0
   35.3340   23.2790   30.8950 H   0  0  0  0  0  0  0  0  0  0  0  0
   34.1990   25.3210   30.1290 H   0  0  0  0  0  0  0  0  0  0  0  0
  1 15  1  0  0  0  0
  1  4  1  0  0  0  0
  2  1  1  0  0  0  0
  3  1  1  0  0  0  0
  4  5  2  0  0  0  0
  4 14  1  0  0  0  0
  5  7  1  0  0  0  0
  6  5  1  0  0  0  0
  7  8  2  0  0  0  0
  9  8  1  0  0  0  0
  9 10  1  0  0  0  0
 11 10  2  0  0  0  0
 12 11  1  0  0  0  0
 13 14  1  0  0  0  0
 13 12  2  0  0  0  0
 14  9  2  0  0  0  0
 15 17  1  0  0  0  0
 15 16  1  0  0  0  0
 18 15  1  0  0  0  0
 19 25  1  0  0  0  0
 19 24  1  0  0  0  0
 20 19  2  0  0  0  0
 21 20  1  0  0  0  0
 21 22  2  0  0  0  0
 22 23  1  0  0  0  0
 23 18  1  0  0  0  0
 23 24  2  0  0  0  0
 26 20  1  0  0  0  0
 27 21  1  0  0  0  0
M  END
>  <minimizedAffinity>
-5.23310757

$$$$

 OpenBabel03272509483D

 27 29  0  0  0  0  0  0  0  0999 V2000
   38.4920   26.4280   33.7340 C   0  0  0  0  0  0  0  0  0  0  0  0
   39.2190   26.7410   34.5000 H   0  0  0  0  0  0  0  0  0  0  0  0
   39.1230   26.2190   32.8210 H   0  0  0  0  0  0  0  0  0  0  0  0
   37.5130   27.4890   33.4260 C   0  0  0  0  0  0  0  0  0  0  0  0
   36.6840   27.9200   34.4530 C   0  0  0  0  0  0  0  0  0  0  0  0
   36.7890   27.4850   35.4420 H   0  0  0  0  0  0  0  0  0  0  0  0
   35.7040   28.8780   34.3550 C   0  0  0  0  0  3  0  0  0  0  0  0
   35.5460   29.4580   33.0910 C   0  0  0  0  0  3  0  0  0  0  0  0
   36.3470   29.0620   32.0390 C   0  0  0  0  0  0  0  0  0  0  0  0
   36.2390   29.6010   30.7730 C   0  0  0  0  0  3  0  0  0  0  0  0
   37.0290   29.2300   29.7020 C   0  0  0  0  0  3  0  0  0  0  0  0
   37.9700   28.2640   29.9340 C   0  0  0  0  0  3  0  0  0  0  0  0
   38.1290   27.6880   31.1650 C   0  0  0  0  0  3  0  0  0  0  0  0
   37.3220   28.0880   32.2010 C   0  0  0  0  0  0  0  0  0  0  0  0
   37.7990   25.1560   34.0940 C   0  0  0  0  0  0  0  0  0  0  0  0
   37.2490   24.7370   33.2570 H   0  0  0  0  0  0  0  0  0  0  0  0
   37.0220   25.4230   34.8610 H   0  0  0  0  0  0  0  0  0  0  0  0
   38.7080   24.2240   34.6460 O   0  0  0  0  0  0  0  0  0  0  0  0
   37.8720   24.1970   38.1840 C   0  0  0  0  0  0  0  0  0  0  0  0
   38.8930   23.3850   38.6690 C   0  0  0  0  0  0  0  0  0  0  0  0
   39.8270   22.8790   37.7670 C   0  0  0  0  0  0  0  0  0  0  0  0
   39.6550   23.2330   36.4510 N   0  0  0  0  0  0  0  0  0  0  0  0
   38.6660   24.0130   36.0160 C   0  0  0  0  0  0  0  0  0  0  0  0
   37.7710   24.4960   36.8920 N   0  0  0  0  0  0  0  0  0  0  0  0
   37.1800   24.5590   38.9210 H   0  0  0  0  0  0  0  0  0  0  0  0
   39.0680   23.0800   39.6950 H   0  0  0  0  0  0  0  0  0  0  0  0
   40.6690   22.2340   38.0320 H   0  0  0  0  0  0  0  0  0  0  0  0
  1 15  1  0  0  0  0
  1  2  1  0  0  0  0
  3  1  1  0  0  0  0
  4  1  1  0  0  0  0
  4  5  1  0  0  0  0
  5  6  1  0  0  0  0
  7  5  2  0  0  0  0
  8  7  1  0  0  0  0
  9 14  1  0  0  0  0
  9  8  2  0  0  0  0
 10  9  1  0  0  0  0
 11 12  1  0  0  0  0
 11 10  2  0  0  0  0
 12 13  2  0  0  0  0
 13 14  1  0  0  0  0
 14  4  2  0  0  0  0
 15 18  1  0  0  0  0
 15 17  1  0  0  0  0
 16 15  1  0  0  0  0
 18 23  1  0  0  0  0
 19 20  1  0  0  0  0
 19 25  1  0  0  0  0
 20 26  1  0  0  0  0
 21 27  1  0  0  0  0
 21 20  2  0  0  0  0
 22 21  1  0  0  0  0
 23 22  2  0  0  0  0
 23 24  1  0  0  0  0
 24 19  2  0  0  0  0
M  END
>  <minimizedAffinity>
-5.19788456

$$$$

 OpenBabel03272509483D

 27 29  0  0  0  0  0  0  0  0999 V2000
   38.6440   24.1920   33.2910 C   0  0  0  0  0  0  0  0  0  0  0  0
   39.7150   23.9660   33.4130 H   0  0  0  0  0  0  0  0  0  0  0  0
   38.4980   24.2460   32.1720 H   0  0  0  0  0  0  0  0  0  0  0  0
   38.2730   25.4850   33.9000 C   0  0  0  0  0  0  0  0  0  0  0  0
   38.8450   25.8090   35.1230 C   0  0  0  0  0  0  0  0  0  0  0  0
   39.5500   25.1230   35.5810 H   0  0  0  0  0  0  0  0  0  0  0  0
   38.6090   26.9510   35.8510 C   0  0  0  0  0  3  0  0  0  0  0  0
   37.7030   27.8550   35.2850 C   0  0  0  0  0  3  0  0  0  0  0  0
   37.1090   27.5760   34.0690 C   0  0  0  0  0  0  0  0  0  0  0  0
   36.2130   28.4320   33.4620 C   0  0  0  0  0  3  0  0  0  0  0  0
   35.6060   28.1840   32.2460 C   0  0  0  0  0  3  0  0  0  0  0  0
   35.9290   27.0090   31.6240 C   0  0  0  0  0  3  0  0  0  0  0  0
   36.8100   26.1160   32.1710 C   0  0  0  0  0  3  0  0  0  0  0  0
   37.3890   26.4050   33.3810 C   0  0  0  0  0  0  0  0  0  0  0  0
   37.7690   23.0960   33.7990 C   0  0  0  0  0  0  0  0  0  0  0  0
   37.2160   22.6080   33.0030 H   0  0  0  0  0  0  0  0  0  0  0  0
   36.9910   23.5840   34.4480 H   0  0  0  0  0  0  0  0  0  0  0  0
   38.5130   22.1700   34.5670 O   0  0  0  0  0  0  0  0  0  0  0  0
   40.0310   22.7470   37.8210 C   0  0  0  0  0  0  0  0  0  0  0  0
   38.9270   23.2220   38.5220 C   0  0  0  0  0  0  0  0  0  0  0  0
   37.7080   23.3270   37.8560 C   0  0  0  0  0  0  0  0  0  0  0  0
   37.7010   22.9440   36.5370 N   0  0  0  0  0  0  0  0  0  0  0  0
   38.7760   22.4920   35.8910 C   0  0  0  0  0  0  0  0  0  0  0  0
   39.9450   22.3940   36.5410 N   0  0  0  0  0  0  0  0  0  0  0  0
   40.9450   22.6870   38.3810 H   0  0  0  0  0  0  0  0  0  0  0  0
   38.8860   23.5360   39.5600 H   0  0  0  0  0  0  0  0  0  0  0  0
   36.7770   23.6860   38.3040 H   0  0  0  0  0  0  0  0  0  0  0  0
  1  2  1  0  0  0  0
  1 15  1  0  0  0  0
  1  4  1  0  0  0  0
  3  1  1  0  0  0  0
  4  5  1  0  0  0  0
  5  6  1  0  0  0  0
  5  7  2  0  0  0  0
  8  7  1  0  0  0  0
  9  8  2  0  0  0  0
 10  9  1  0  0  0  0
 11 10  2  0  0  0  0
 12 13  2  0  0  0  0
 12 11  1  0  0  0  0
 13 14  1  0  0  0  0
 14  4  2  0  0  0  0
 14  9  1  0  0  0  0
 15 17  1  0  0  0  0
 15 18  1  0  0  0  0
 16 15  1  0  0  0  0
 18 23  1  0  0  0  0
 19 25  1  0  0  0  0
 19 20  1  0  0  0  0
 20 26  1  0  0  0  0
 21 27  1  0  0  0  0
 21 20  2  0  0  0  0
 22 21  1  0  0  0  0
 23 22  2  0  0  0  0
 23 24  1  0  0  0  0
 24 19  2  0  0  0  0
M  END
>  <minimizedAffinity>
-5.16100216

$$$$

 OpenBabel03272509483D

 27 29  0  0  0  0  0  0  0  0999 V2000
   39.0300   25.0680   34.3930 C   0  0  0  0  0  0  0  0  0  0  0  0
   39.9780   24.9680   33.8410 H   0  0  0  0  0  0  0  0  0  0  0  0
   38.9180   26.1800   34.5530 H   0  0  0  0  0  0  0  0  0  0  0  0
   39.0690   24.3830   35.7000 C   0  0  0  0  0  0  0  0  0  0  0  0
   38.1150   24.7380   36.6440 C   0  0  0  0  0  0  0  0  0  0  0  0
   37.3680   25.4850   36.3920 H   0  0  0  0  0  0  0  0  0  0  0  0
   38.0030   24.2290   37.9160 C   0  0  0  0  0  3  0  0  0  0  0  0
   38.9520   23.2630   38.2680 C   0  0  0  0  0  3  0  0  0  0  0  0
   39.9210   22.8770   37.3630 C   0  0  0  0  0  0  0  0  0  0  0  0
   40.8790   21.9270   37.6540 C   0  0  0  0  0  3  0  0  0  0  0  0
   41.8570   21.5170   36.7690 C   0  0  0  0  0  3  0  0  0  0  0  0
   41.8570   22.1020   35.5330 C   0  0  0  0  0  3  0  0  0  0  0  0
   40.9360   23.0510   35.1800 C   0  0  0  0  0  3  0  0  0  0  0  0
   39.9820   23.4280   36.0920 C   0  0  0  0  0  0  0  0  0  0  0  0
   37.8550   24.6150   33.5930 C   0  0  0  0  0  0  0  0  0  0  0  0
   37.5130   25.3750   32.8980 H   0  0  0  0  0  0  0  0  0  0  0  0
   37.0100   24.4710   34.3200 H   0  0  0  0  0  0  0  0  0  0  0  0
   38.1300   23.3910   32.9390 O   0  0  0  0  0  0  0  0  0  0  0  0
   35.8320   20.6950   33.7590 C   0  0  0  0  0  0  0  0  0  0  0  0
   35.1020   20.6310   32.5760 C   0  0  0  0  0  0  0  0  0  0  0  0
   35.4240   21.5110   31.5450 C   0  0  0  0  0  0  0  0  0  0  0  0
   36.4550   22.3840   31.7910 N   0  0  0  0  0  0  0  0  0  0  0  0
   37.1370   22.4220   32.9360 C   0  0  0  0  0  0  0  0  0  0  0  0
   36.8200   21.5710   33.9230 N   0  0  0  0  0  0  0  0  0  0  0  0
   35.5420   19.9960   34.5200 H   0  0  0  0  0  0  0  0  0  0  0  0
   34.2820   19.9610   32.3380 H   0  0  0  0  0  0  0  0  0  0  0  0
   34.9210   21.5510   30.5750 H   0  0  0  0  0  0  0  0  0  0  0  0
  1  3  1  0  0  0  0
  1  4  1  0  0  0  0
  2  1  1  0  0  0  0
  4 14  2  0  0  0  0
  4  5  1  0  0  0  0
  5  7  2  0  0  0  0
  6  5  1  0  0  0  0
  7  8  1  0  0  0  0
  9 10  1  0  0  0  0
  9  8  2  0  0  0  0
 11 10  2  0  0  0  0
 12 11  1  0  0  0  0
 13 12  2  0  0  0  0
 13 14  1  0  0  0  0
 14  9  1  0  0  0  0
 15 17  1  0  0  0  0
 15  1  1  0  0  0  0
 16 15  1  0  0  0  0
 18 15  1  0  0  0  0
 19 24  1  0  0  0  0
 19 25  1  0  0  0  0
 20 19  2  0  0  0  0
 21 22  2  0  0  0  0
 21 20  1  0  0  0  0
 22 23  1  0  0  0  0
 23 18  1  0  0  0  0
 23 24  2  0  0  0  0
 26 20  1  0  0  0  0
 27 21  1  0  0  0  0
M  END
>  <minimizedAffinity>
-5.15571404

$$$$

 OpenBabel03272509483D

 27 29  0  0  0  0  0  0  0  0999 V2000
   34.5910   29.3130   33.2590 C   0  0  0  0  0  0  0  0  0  0  0  0
   33.9120   29.6720   32.4700 H   0  0  0  0  0  0  0  0  0  0  0  0
   34.1790   28.2990   33.5400 H   0  0  0  0  0  0  0  0  0  0  0  0
   34.5860   30.1940   34.4440 C   0  0  0  0  0  0  0  0  0  0  0  0
   35.7930   30.7610   34.8320 C   0  0  0  0  0  0  0  0  0  0  0  0
   36.6880   30.5580   34.2520 H   0  0  0  0  0  0  0  0  0  0  0  0
   35.9900   31.5860   35.9120 C   0  0  0  0  0  3  0  0  0  0  0  0
   34.8530   31.8660   36.6790 C   0  0  0  0  0  3  0  0  0  0  0  0
   33.6310   31.3250   36.3310 C   0  0  0  0  0  0  0  0  0  0  0  0
   32.4760   31.5690   37.0470 C   0  0  0  0  0  3  0  0  0  0  0  0
   31.2390   31.0480   36.7230 C   0  0  0  0  0  3  0  0  0  0  0  0
   31.1780   30.2410   35.6200 C   0  0  0  0  0  3  0  0  0  0  0  0
   32.2850   29.9570   34.8670 C   0  0  0  0  0  3  0  0  0  0  0  0
   33.4940   30.4980   35.2270 C   0  0  0  0  0  0  0  0  0  0  0  0
   35.9820   29.1030   32.7610 C   0  0  0  0  0  0  0  0  0  0  0  0
   36.6900   29.7850   33.2210 H   0  0  0  0  0  0  0  0  0  0  0  0
   35.9730   29.3700   31.6690 H   0  0  0  0  0  0  0  0  0  0  0  0
   36.3750   27.7530   32.9150 O   0  0  0  0  0  0  0  0  0  0  0  0
   38.5560   27.2440   35.7800 C   0  0  0  0  0  0  0  0  0  0  0  0
   39.7300   26.8780   35.1280 C   0  0  0  0  0  0  0  0  0  0  0  0
   39.7300   26.8200   33.7360 C   0  0  0  0  0  0  0  0  0  0  0  0
   38.5470   27.1350   33.1140 N   0  0  0  0  0  0  0  0  0  0  0  0
   37.4370   27.4820   33.7660 C   0  0  0  0  0  0  0  0  0  0  0  0
   37.4470   27.5360   35.1060 N   0  0  0  0  0  0  0  0  0  0  0  0
   38.6110   27.2720   36.8520 H   0  0  0  0  0  0  0  0  0  0  0  0
   40.6850   26.6200   35.5760 H   0  0  0  0  0  0  0  0  0  0  0  0
   40.5910   26.5460   33.1200 H   0  0  0  0  0  0  0  0  0  0  0  0
  1  3  1  0  0  0  0
  1  4  1  0  0  0  0
  2  1  1  0  0  0  0
  4  5  2  0  0  0  0
  4 14  1  0  0  0  0
  5  7  1  0  0  0  0
  6  5  1  0  0  0  0
  7  8  2  0  0  0  0
  9  8  1  0  0  0  0
  9 10  1  0  0  0  0
 11 10  2  0  0  0  0
 12 11  1  0  0  0  0
 13 14  1  0  0  0  0
 13 12  2  0  0  0  0
 14  9  2  0  0  0  0
 15 18  1  0  0  0  0
 15 16  1  0  0  0  0
 15  1  1  0  0  0  0
 17 15  1  0  0  0  0
 18 23  1  0  0  0  0
 19 25  1  0  0  0  0
 20 26  1  0  0  0  0
 20 19  1  0  0  0  0
 21 20  2  0  0  0  0
 22 21  1  0  0  0  0
 22 23  2  0  0  0  0
 23 24  1  0  0  0  0
 24 19  2  0  0  0  0
 27 21  1  0  0  0  0
M  END
>  <minimizedAffinity>
-5.13757515

$$$$

 OpenBabel03272509483D

 27 29  0  0  0  0  0  0  0  0999 V2000
   40.0280   23.7150   33.7440 C   0  0  0  0  0  0  0  0  0  0  0  0
   40.9690   24.0040   33.2500 H   0  0  0  0  0  0  0  0  0  0  0  0
   39.4460   24.6790   33.8190 H   0  0  0  0  0  0  0  0  0  0  0  0
   40.2530   23.1670   35.0970 C   0  0  0  0  0  0  0  0  0  0  0  0
   41.2650   22.2280   35.2520 C   0  0  0  0  0  0  0  0  0  0  0  0
   41.8630   21.9420   34.3940 H   0  0  0  0  0  0  0  0  0  0  0  0
   41.6090   21.5950   36.4230 C   0  0  0  0  0  3  0  0  0  0  0  0
   40.8550   21.9450   37.5480 C   0  0  0  0  0  3  0  0  0  0  0  0
   39.8380   22.8750   37.4410 C   0  0  0  0  0  0  0  0  0  0  0  0
   39.0650   23.2610   38.5170 C   0  0  0  0  0  3  0  0  0  0  0  0
   38.0460   24.1910   38.4440 C   0  0  0  0  0  3  0  0  0  0  0  0
   37.8050   24.7490   37.2190 C   0  0  0  0  0  3  0  0  0  0  0  0
   38.5340   24.4100   36.1110 C   0  0  0  0  0  3  0  0  0  0  0  0
   39.5380   23.4810   36.2310 C   0  0  0  0  0  0  0  0  0  0  0  0
   39.2190   22.7710   32.9190 C   0  0  0  0  0  0  0  0  0  0  0  0
   39.3840   21.7350   33.1970 H   0  0  0  0  0  0  0  0  0  0  0  0
   39.5990   22.8630   31.8640 H   0  0  0  0  0  0  0  0  0  0  0  0
   37.8470   23.1140   32.9580 O   0  0  0  0  0  0  0  0  0  0  0  0
   35.5280   20.8270   31.3420 C   0  0  0  0  0  0  0  0  0  0  0  0
   35.1100   20.0870   32.4440 C   0  0  0  0  0  0  0  0  0  0  0  0
   35.6380   20.3980   33.6950 C   0  0  0  0  0  0  0  0  0  0  0  0
   36.5430   21.4310   33.7340 N   0  0  0  0  0  0  0  0  0  0  0  0
   36.9240   22.1220   32.6600 C   0  0  0  0  0  0  0  0  0  0  0  0
   36.4110   21.8160   31.4590 N   0  0  0  0  0  0  0  0  0  0  0  0
   35.0910   20.5450   30.4020 H   0  0  0  0  0  0  0  0  0  0  0  0
   34.4010   19.2650   32.4610 H   0  0  0  0  0  0  0  0  0  0  0  0
   35.3840   19.8860   34.6280 H   0  0  0  0  0  0  0  0  0  0  0  0
  1  3  1  0  0  0  0
  1  4  1  0  0  0  0
  2  1  1  0  0  0  0
  4  5  2  0  0  0  0
  4 14  1  0  0  0  0
  5  7  1  0  0  0  0
  6  5  1  0  0  0  0
  7  8  2  0  0  0  0
  9  8  1  0  0  0  0
  9 10  1  0  0  0  0
 11 10  2  0  0  0  0
 12 11  1  0  0  0  0
 13 14  1  0  0  0  0
 13 12  2  0  0  0  0
 14  9  2  0  0  0  0
 15 18  1  0  0  0  0
 15 16  1  0  0  0  0
 15  1  1  0  0  0  0
 17 15  1  0  0  0  0
 19 24  2  0  0  0  0
 19 20  1  0  0  0  0
 20 26  1  0  0  0  0
 20 21  2  0  0  0  0
 21 22  1  0  0  0  0
 21 27  1  0  0  0  0
 23 18  1  0  0  0  0
 23 22  2  0  0  0  0
 24 23  1  0  0  0  0
 25 19  1  0  0  0  0
M  END
>  <minimizedAffinity>
-5.09810829

$$$$

 OpenBabel03272509483D

 27 29  0  0  0  0  0  0  0  0999 V2000
   38.0610   27.5610   35.4860 C   0  0  0  0  0  0  0  0  0  0  0  0
   38.7250   28.4050   35.2410 H   0  0  0  0  0  0  0  0  0  0  0  0
   37.6680   27.8070   36.5160 H   0  0  0  0  0  0  0  0  0  0  0  0
   38.7840   26.2750   35.5270 C   0  0  0  0  0  0  0  0  0  0  0  0
   38.1620   25.2050   36.1570 C   0  0  0  0  0  0  0  0  0  0  0  0
   37.1710   25.3370   36.5790 H   0  0  0  0  0  0  0  0  0  0  0  0
   38.6820   23.9420   36.3120 C   0  0  0  0  0  3  0  0  0  0  0  0
   39.9590   23.7410   35.7780 C   0  0  0  0  0  3  0  0  0  0  0  0
   40.6170   24.7760   35.1420 C   0  0  0  0  0  0  0  0  0  0  0  0
   41.8760   24.6350   34.5930 C   0  0  0  0  0  3  0  0  0  0  0  0
   42.5570   25.6470   33.9470 C   0  0  0  0  0  3  0  0  0  0  0  0
   41.9270   26.8580   33.8590 C   0  0  0  0  0  3  0  0  0  0  0  0
   40.6790   27.0660   34.3830 C   0  0  0  0  0  3  0  0  0  0  0  0
   40.0390   26.0300   35.0160 C   0  0  0  0  0  0  0  0  0  0  0  0
   36.8850   27.4780   34.5710 C   0  0  0  0  0  0  0  0  0  0  0  0
   36.2060   28.3160   34.6970 H   0  0  0  0  0  0  0  0  0  0  0  0
   36.3020   26.5690   34.8830 H   0  0  0  0  0  0  0  0  0  0  0  0
   37.3000   27.3360   33.2260 O   0  0  0  0  0  0  0  0  0  0  0  0
   35.1450   25.5470   30.9080 C   0  0  0  0  0  0  0  0  0  0  0  0
   35.6260   24.2520   31.0800 C   0  0  0  0  0  0  0  0  0  0  0  0
   36.6670   24.0420   31.9810 C   0  0  0  0  0  0  0  0  0  0  0  0
   37.1390   25.1540   32.6350 N   0  0  0  0  0  0  0  0  0  0  0  0
   36.6580   26.3830   32.4490 C   0  0  0  0  0  0  0  0  0  0  0  0
   35.6540   26.5760   31.5800 N   0  0  0  0  0  0  0  0  0  0  0  0
   34.3430   25.6520   30.2020 H   0  0  0  0  0  0  0  0  0  0  0  0
   35.2860   23.3470   30.5860 H   0  0  0  0  0  0  0  0  0  0  0  0
   37.1240   23.0720   32.1970 H   0  0  0  0  0  0  0  0  0  0  0  0
  1  4  1  0  0  0  0
  1  3  1  0  0  0  0
  2  1  1  0  0  0  0
  4  5  1  0  0  0  0
  5  7  2  0  0  0  0
  5  6  1  0  0  0  0
  8  7  1  0  0  0  0
  9  8  2  0  0  0  0
 10  9  1  0  0  0  0
 11 10  2  0  0  0  0
 12 11  1  0  0  0  0
 12 13  2  0  0  0  0
 13 14  1  0  0  0  0
 14  9  1  0  0  0  0
 14  4  2  0  0  0  0
 15 16  1  0  0  0  0
 15 17  1  0  0  0  0
 15  1  1  0  0  0  0
 18 15  1  0  0  0  0
 19 20  2  0  0  0  0
 19 24  1  0  0  0  0
 20 21  1  0  0  0  0
 21 27  1  0  0  0  0
 21 22  2  0  0  0  0
 23 22  1  0  0  0  0
 23 18  1  0  0  0  0
 24 23  2  0  0  0  0
 25 19  1  0  0  0  0
 26 20  1  0  0  0  0
M  END
>  <minimizedAffinity>
-5.0838542

$$$$

 OpenBabel03272509483D

 27 29  0  0  0  0  0  0  0  0999 V2000
   38.7210   25.3210   34.7540 C   0  0  0  0  0  0  0  0  0  0  0  0
   38.9100   24.7230   33.8490 H   0  0  0  0  0  0  0  0  0  0  0  0
   39.5110   26.1290   34.7230 H   0  0  0  0  0  0  0  0  0  0  0  0
   38.8740   24.5290   35.9900 C   0  0  0  0  0  0  0  0  0  0  0  0
   37.9990   24.7890   37.0360 C   0  0  0  0  0  0  0  0  0  0  0  0
   37.2270   25.5420   36.9110 H   0  0  0  0  0  0  0  0  0  0  0  0
   37.9970   24.1720   38.2640 C   0  0  0  0  0  3  0  0  0  0  0  0
   38.9810   23.1940   38.4540 C   0  0  0  0  0  3  0  0  0  0  0  0
   39.8740   22.9010   37.4420 C   0  0  0  0  0  0  0  0  0  0  0  0
   40.8610   21.9450   37.5720 C   0  0  0  0  0  3  0  0  0  0  0  0
   41.7650   21.6260   36.5780 C   0  0  0  0  0  3  0  0  0  0  0  0
   41.6570   22.3140   35.4000 C   0  0  0  0  0  3  0  0  0  0  0  0
   40.7020   23.2750   35.2070 C   0  0  0  0  0  3  0  0  0  0  0  0
   39.8240   23.5590   36.2220 C   0  0  0  0  0  0  0  0  0  0  0  0
   37.3930   25.9990   34.7220 C   0  0  0  0  0  0  0  0  0  0  0  0
   36.7480   25.6800   35.5340 H   0  0  0  0  0  0  0  0  0  0  0  0
   36.8820   25.6560   33.7800 H   0  0  0  0  0  0  0  0  0  0  0  0
   37.5430   27.4060   34.6920 O   0  0  0  0  0  0  0  0  0  0  0  0
   34.9210   29.6690   33.5870 C   0  0  0  0  0  0  0  0  0  0  0  0
   34.9300   29.4020   32.2210 C   0  0  0  0  0  0  0  0  0  0  0  0
   35.8320   28.4590   31.7320 C   0  0  0  0  0  0  0  0  0  0  0  0
   36.6510   27.8630   32.6590 N   0  0  0  0  0  0  0  0  0  0  0  0
   36.6190   28.1400   33.9620 C   0  0  0  0  0  0  0  0  0  0  0  0
   35.7470   29.0480   34.4250 N   0  0  0  0  0  0  0  0  0  0  0  0
   34.2070   30.4040   33.9090 H   0  0  0  0  0  0  0  0  0  0  0  0
   34.3050   29.8470   31.4530 H   0  0  0  0  0  0  0  0  0  0  0  0
   35.9290   28.1690   30.6820 H   0  0  0  0  0  0  0  0  0  0  0  0
  1  4  1  0  0  0  0
  2  1  1  0  0  0  0
  3  1  1  0  0  0  0
  4 14  2  0  0  0  0
  4  5  1  0  0  0  0
  5  7  2  0  0  0  0
  6  5  1  0  0  0  0
  7  8  1  0  0  0  0
  9 10  1  0  0  0  0
  9  8  2  0  0  0  0
 11 10  2  0  0  0  0
 12 11  1  0  0  0  0
 13 12  2  0  0  0  0
 13 14  1  0  0  0  0
 14  9  1  0  0  0  0
 15  1  1  0  0  0  0
 15 16  1  0  0  0  0
 17 15  1  0  0  0  0
 18 15  1  0  0  0  0
 19 25  1  0  0  0  0
 19 24  1  0  0  0  0
 20 19  2  0  0  0  0
 21 20  1  0  0  0  0
 21 22  2  0  0  0  0
 22 23  1  0  0  0  0
 23 24  2  0  0  0  0
 23 18  1  0  0  0  0
 26 20  1  0  0  0  0
 27 21  1  0  0  0  0
M  END
>  <minimizedAffinity>
-5.06645966

$$$$

 OpenBabel03272509483D

 27 29  0  0  0  0  0  0  0  0999 V2000
   41.1930   26.7880   33.7240 C   0  0  0  0  0  0  0  0  0  0  0  0
   41.7630   27.7250   33.6250 H   0  0  0  0  0  0  0  0  0  0  0  0
   41.2970   26.2910   32.7150 H   0  0  0  0  0  0  0  0  0  0  0  0
   39.7650   27.0300   34.0100 C   0  0  0  0  0  0  0  0  0  0  0  0
   39.3680   27.0480   35.3410 C   0  0  0  0  0  0  0  0  0  0  0  0
   40.1090   26.9040   36.1210 H   0  0  0  0  0  0  0  0  0  0  0  0
   38.0870   27.2370   35.8020 C   0  0  0  0  0  3  0  0  0  0  0  0
   37.1100   27.4270   34.8190 C   0  0  0  0  0  3  0  0  0  0  0  0
   37.4570   27.4170   33.4820 C   0  0  0  0  0  0  0  0  0  0  0  0
   36.5370   27.6020   32.4700 C   0  0  0  0  0  3  0  0  0  0  0  0
   36.8540   27.6030   31.1260 C   0  0  0  0  0  3  0  0  0  0  0  0
   38.1670   27.4040   30.8000 C   0  0  0  0  0  3  0  0  0  0  0  0
   39.1300   27.2140   31.7540 C   0  0  0  0  0  3  0  0  0  0  0  0
   38.7690   27.2210   33.0780 C   0  0  0  0  0  0  0  0  0  0  0  0
   41.7870   25.8650   34.7350 C   0  0  0  0  0  0  0  0  0  0  0  0
   41.4290   26.0700   35.7390 H   0  0  0  0  0  0  0  0  0  0  0  0
   42.8890   26.0850   34.7590 H   0  0  0  0  0  0  0  0  0  0  0  0
   41.5820   24.5140   34.3690 O   0  0  0  0  0  0  0  0  0  0  0  0
   42.1970   21.8690   36.7870 C   0  0  0  0  0  0  0  0  0  0  0  0
   40.9690   21.8500   37.4430 C   0  0  0  0  0  0  0  0  0  0  0  0
   39.9800   22.7420   37.0320 C   0  0  0  0  0  0  0  0  0  0  0  0
   40.3090   23.5800   35.9950 N   0  0  0  0  0  0  0  0  0  0  0  0
   41.4950   23.5750   35.3870 C   0  0  0  0  0  0  0  0  0  0  0  0
   42.4410   22.7130   35.7880 N   0  0  0  0  0  0  0  0  0  0  0  0
   42.9220   21.1630   37.1440 H   0  0  0  0  0  0  0  0  0  0  0  0
   40.6650   21.2090   38.2640 H   0  0  0  0  0  0  0  0  0  0  0  0
   38.9810   22.8170   37.4720 H   0  0  0  0  0  0  0  0  0  0  0  0
  1  4  1  0  0  0  0
  1 15  1  0  0  0  0
  2  1  1  0  0  0  0
  3  1  1  0  0  0  0
  4  5  1  0  0  0  0
  5  7  2  0  0  0  0
  5  6  1  0  0  0  0
  8  7  1  0  0  0  0
  9  8  2  0  0  0  0
 10  9  1  0  0  0  0
 11 10  2  0  0  0  0
 12 11  1  0  0  0  0
 12 13  2  0  0  0  0
 13 14  1  0  0  0  0
 14  9  1  0  0  0  0
 14  4  2  0  0  0  0
 15 17  1  0  0  0  0
 15 16  1  0  0  0  0
 18 15  1  0  0  0  0
 18 23  1  0  0  0  0
 19 25  1  0  0  0  0
 19 20  1  0  0  0  0
 20 26  1  0  0  0  0
 21 20  2  0  0  0  0
 21 27  1  0  0  0  0
 22 21  1  0  0  0  0
 23 24  1  0  0  0  0
 23 22  2  0  0  0  0
 24 19  2  0  0  0  0
M  END
>  <minimizedAffinity>
-5.01999855

$$$$
