
 OpenBabel03272504283D

 44 48  0  0  0  0  0  0  0  0999 V2000
   34.6280   29.3070   48.0710 C   0  0  0  0  0  0  0  0  0  0  0  0
   34.6530   28.0350   48.4980 C   0  0  0  0  0  0  0  0  0  0  0  0
   33.7150   27.1580   48.1230 C   0  0  0  0  0  0  0  0  0  0  0  0
   32.7260   27.5790   47.2940 N   0  0  0  0  0  0  0  0  0  0  0  0
   32.7080   28.8370   46.8740 C   0  0  0  0  0  0  0  0  0  0  0  0
   33.6460   29.7170   47.2490 N   0  0  0  0  0  0  0  0  0  0  0  0
   35.4410   27.6970   49.1600 H   0  0  0  0  0  0  0  0  0  0  0  0
   33.7460   26.1280   48.4770 H   0  0  0  0  0  0  0  0  0  0  0  0
   30.3020   28.9760   46.3900 C   0  0  0  0  0  0  0  0  0  0  0  0
   31.6260   29.1590   45.9790 C   0  0  0  0  0  0  0  0  0  0  0  0
   31.9890   29.6200   44.7250 C   0  0  0  0  0  0  0  0  0  0  0  0
   31.0000   29.9200   43.8110 C   0  0  0  0  0  0  0  0  0  0  0  0
   29.6690   29.7680   44.1310 C   0  0  0  0  0  0  0  0  0  0  0  0
   29.4070   29.3110   45.3840 C   0  0  0  0  0  0  0  0  0  0  0  0
   33.0280   29.7470   44.4520 H   0  0  0  0  0  0  0  0  0  0  0  0
   31.2700   30.2820   42.8230 H   0  0  0  0  0  0  0  0  0  0  0  0
   28.8850   29.9950   43.4360 H   0  0  0  0  0  0  0  0  0  0  0  0
   28.3470   29.1920   45.6320 H   0  0  0  0  0  0  0  0  0  0  0  0
   29.8340   28.4490   47.9000 S   0  0  0  0  0  0  0  0  0  0  0  0
   29.3850   27.0160   47.4610 O   0  0  0  0  0  0  0  0  0  0  0  0
   28.6040   29.2310   48.2850 O   0  0  0  0  0  0  0  0  0  0  0  0
   30.1330   27.8490   49.3480 C   0  0  0  0  0  0  0  0  0  0  0  0
   29.7590   26.5580   49.7840 F   0  0  0  0  0  0  0  0  0  0  0  0
   29.2180   28.4410   50.3360 F   0  0  0  0  0  0  0  0  0  0  0  0
   31.1920   28.3490   50.1600 F   0  0  0  0  0  0  0  0  0  0  0  0
   36.6800   31.6760   49.9850 C   0  0  0  0  0  0  0  0  0  0  0  0
   37.6070   32.1120   49.0380 C   0  0  0  0  0  0  0  0  0  0  0  0
   37.5220   31.5990   47.7520 C   0  0  0  0  0  0  0  0  0  0  0  0
   36.5230   30.6940   47.5220 N   0  0  0  0  0  0  0  0  0  0  0  0
   35.6420   30.2880   48.4520 C   0  0  0  0  0  0  0  0  0  0  0  0
   35.7360   30.7910   49.6790 N   0  0  0  0  0  0  0  0  0  0  0  0
   36.7420   32.0750   50.9880 H   0  0  0  0  0  0  0  0  0  0  0  0
   38.3510   32.7750   49.3510 H   0  0  0  0  0  0  0  0  0  0  0  0
   38.3910   31.8310   46.6230 C   0  0  0  0  0  0  0  0  0  0  0  0
   39.4500   32.7340   46.8210 C   0  0  0  0  0  0  0  0  0  0  0  0
   39.5670   33.2220   47.7920 H   0  0  0  0  0  0  0  0  0  0  0  0
   40.3820   33.0670   45.8650 C   0  0  0  0  0  3  0  0  0  0  0  0
   40.3040   32.4960   44.6160 C   0  0  0  0  0  3  0  0  0  0  0  0
   39.2910   31.6010   44.3600 C   0  0  0  0  0  0  0  0  0  0  0  0
   39.2080   30.9860   43.1300 C   0  0  0  0  0  3  0  0  0  0  0  0
   38.2230   30.0390   42.8260 C   0  0  0  0  0  3  0  0  0  0  0  0
   37.3360   29.7670   43.8630 C   0  0  0  0  0  3  0  0  0  0  0  0
   37.4390   30.3950   45.0800 C   0  0  0  0  0  3  0  0  0  0  0  0
   38.3970   31.3140   45.3590 C   0  0  0  0  0  0  0  0  0  0  0  0
  1 30  1  0  0  0  0
  1  2  1  0  0  0  0
  2  7  1  0  0  0  0
  3  8  1  0  0  0  0
  3  2  2  0  0  0  0
  4  3  1  0  0  0  0
  5  6  1  0  0  0  0
  5  4  2  0  0  0  0
  6  1  2  0  0  0  0
  9 19  1  0  0  0  0
 10  9  1  0  0  0  0
 10  5  1  0  0  0  0
 11 10  2  0  0  0  0
 12 13  2  0  0  0  0
 12 11  1  0  0  0  0
 13 14  1  0  0  0  0
 14 18  1  0  0  0  0
 14  9  2  0  0  0  0
 15 11  1  0  0  0  0
 16 12  1  0  0  0  0
 17 13  1  0  0  0  0
 19 21  2  0  0  0  0
 19 22  1  0  0  0  0
 20 19  2  0  0  0  0
 22 23  1  0  0  0  0
 22 25  1  0  0  0  0
 22 24  1  0  0  0  0
 26 32  1  0  0  0  0
 27 33  1  0  0  0  0
 27 26  2  0  0  0  0
 28 27  1  0  0  0  0
 29 28  2  0  0  0  0
 29 30  1  0  0  0  0
 30 31  2  0  0  0  0
 31 26  1  0  0  0  0
 34 35  1  0  0  0  0
 34 28  1  0  0  0  0
 35 36  1  0  0  0  0
 37 35  2  0  0  0  0
 38 37  1  0  0  0  0
 39 38  2  0  0  0  0
 39 44  1  0  0  0  0
 40 39  1  0  0  0  0
 41 40  2  0  0  0  0
 41 42  1  0  0  0  0
 42 43  2  0  0  0  0
 43 44  1  0  0  0  0
 44 34  2  0  0  0  0
M  END
>  <minimizedAffinity>
-7.48094893

>  <minimizedRMSD>
1.68191385

$$$$
