
 OpenBabel03272502073D

 41 45  0  0  0  0  0  0  0  0999 V2000
   34.4260   30.3790   47.5790 F   0  0  0  0  0  0  0  0  0  0  0  0
   34.7830   29.9330   46.3300 C   0  0  0  0  0  0  0  0  0  0  0  0
   33.8870   29.2880   45.4890 C   0  0  0  0  0  0  0  0  0  0  0  0
   34.3090   28.8830   44.2490 C   0  0  0  0  0  0  0  0  0  0  0  0
   35.6270   29.1160   43.8330 C   0  0  0  0  0  0  0  0  0  0  0  0
   36.4730   29.7630   44.7180 C   0  0  0  0  0  0  0  0  0  0  0  0
   36.0960   30.1740   45.9410 C   0  0  0  0  0  0  0  0  0  0  0  0
   33.5720   28.3930   43.6510 H   0  0  0  0  0  0  0  0  0  0  0  0
   35.9150   28.7790   42.8480 H   0  0  0  0  0  0  0  0  0  0  0  0
   37.4690   29.9020   44.3170 H   0  0  0  0  0  0  0  0  0  0  0  0
   37.9270   32.4030   44.7080 Br  0  0  0  0  0  0  0  0  0  0  0  0
   37.9140   31.8570   46.5340 C   0  0  0  0  0  0  0  0  0  0  0  0
   37.0390   30.8360   46.8200 C   0  0  0  0  0  0  0  0  0  0  0  0
   37.0040   30.3510   48.1400 C   0  0  0  0  0  0  0  0  0  0  0  0
   37.8040   30.8750   49.0950 C   0  0  0  0  0  0  0  0  0  0  0  0
   38.6670   31.9070   48.7500 C   0  0  0  0  0  0  0  0  0  0  0  0
   38.7300   32.4140   47.4490 C   0  0  0  0  0  0  0  0  0  0  0  0
   36.3480   29.5500   48.4530 H   0  0  0  0  0  0  0  0  0  0  0  0
   37.7970   30.5200   50.1170 H   0  0  0  0  0  0  0  0  0  0  0  0
   39.3250   32.3560   49.4820 H   0  0  0  0  0  0  0  0  0  0  0  0
   39.5390   33.4200   47.0230 O   0  0  0  0  0  0  0  0  0  0  0  0
   40.1680   33.2670   46.2540 H   0  0  0  0  0  0  0  0  0  0  0  0
   32.3460   27.9990   46.8180 C   0  0  0  0  0  0  0  0  0  0  0  0
   32.5670   29.1100   46.0330 C   0  0  0  0  0  0  0  0  0  0  0  0
   31.5060   29.9760   45.8420 C   0  0  0  0  0  0  0  0  0  0  0  0
   30.3050   29.6970   46.4290 N   0  0  0  0  0  0  0  0  0  0  0  0
   30.1260   28.6230   47.1780 C   0  0  0  0  0  0  0  0  0  0  0  0
   31.1210   27.8040   47.3610 N   0  0  0  0  0  0  0  0  0  0  0  0
   33.1140   27.2540   47.0310 H   0  0  0  0  0  0  0  0  0  0  0  0
   31.7050   30.8270   45.2290 H   0  0  0  0  0  0  0  0  0  0  0  0
   28.7500   28.5810   47.6770 C   0  0  0  0  0  0  0  0  0  0  0  0
   27.6650   29.0190   46.9460 C   0  0  0  0  0  0  0  0  0  0  0  0
   27.8070   29.4270   45.9310 H   0  0  0  0  0  0  0  0  0  0  0  0
   26.3640   29.0090   47.3450 C   0  0  0  0  0  0  0  0  0  0  0  0
   26.0590   28.5220   48.5950 C   0  0  0  0  0  0  0  0  0  0  0  0
   27.0850   28.0640   49.3900 C   0  0  0  0  0  0  0  0  0  0  0  0
   26.7470   27.5820   50.6350 C   0  0  0  0  0  0  0  0  0  0  0  0
   27.7210   27.1080   51.4860 C   0  0  0  0  0  0  0  0  0  0  0  0
   29.0250   27.1380   51.0360 C   0  0  0  0  0  0  0  0  0  0  0  0
   29.3050   27.6310   49.7820 C   0  0  0  0  0  0  0  0  0  0  0  0
   28.3690   28.1140   48.9000 C   0  0  0  0  0  0  0  0  0  0  0  0
  2  1  1  0  0  0  0
  3 24  1  0  0  0  0
  3  2  2  0  0  0  0
  4  3  1  0  0  0  0
  5  4  2  0  0  0  0
  5  6  1  0  0  0  0
  6  7  2  0  0  0  0
  7  2  1  0  0  0  0
  7 13  1  0  0  0  0
  8  4  1  0  0  0  0
  9  5  1  0  0  0  0
 10  6  1  0  0  0  0
 11 12  1  0  0  0  0
 12 13  2  0  0  0  0
 12 17  1  0  0  0  0
 13 14  1  0  0  0  0
 14 18  1  0  0  0  0
 14 15  2  0  0  0  0
 15 19  1  0  0  0  0
 16 15  1  0  0  0  0
 16 20  1  0  0  0  0
 17 16  2  0  0  0  0
 21 17  1  0  0  0  0
 22 21  1  0  0  0  0
 23 29  1  0  0  0  0
 23 28  1  0  0  0  0
 24 23  2  0  0  0  0
 25 24  1  0  0  0  0
 25 26  2  0  0  0  0
 26 27  1  0  0  0  0
 27 28  2  0  0  0  0
 27 31  1  0  0  0  0
 30 25  1  0  0  0  0
 31 41  1  0  0  0  0
 32 34  1  0  0  0  0
 32 31  2  0  0  0  0
 33 32  1  0  0  0  0
 34 35  2  0  0  0  0
 35 36  1  0  0  0  0
 36 37  1  0  0  0  0
 37 38  2  0  0  0  0
 39 38  1  0  0  0  0
 40 39  2  0  0  0  0
 41 36  2  0  0  0  0
 41 40  1  0  0  0  0
M  END
>  <minimizedAffinity>
-8.28072643

>  <minimizedRMSD>
0.471486598

$$$$
