
 OpenBabel03272510103D

 31 33  0  0  0  0  0  0  0  0999 V2000
   35.2280   29.7660   46.6680 C   0  0  0  0  0  0  0  0  0  0  0  0
   36.3630   30.1070   46.0020 C   0  0  0  0  0  0  0  0  0  0  0  0
   36.4120   30.3270   44.6330 C   0  0  0  0  0  0  0  0  0  0  0  0
   35.2670   30.2030   43.8720 C   0  0  0  0  0  0  0  0  0  0  0  0
   34.1210   29.8570   44.5710 C   0  0  0  0  0  0  0  0  0  0  0  0
   34.1240   29.6520   45.9020 N   0  0  0  0  0  0  0  0  0  0  0  0
   37.2960   30.2220   46.5290 H   0  0  0  0  0  0  0  0  0  0  0  0
   37.3150   30.5990   44.0970 H   0  0  0  0  0  0  0  0  0  0  0  0
   33.1630   29.7280   44.0960 H   0  0  0  0  0  0  0  0  0  0  0  0
   34.7830   28.3330   48.6870 C   0  0  0  0  0  0  0  0  0  0  0  0
   35.1790   29.5370   48.1000 C   0  0  0  0  0  0  0  0  0  0  0  0
   35.5510   30.5820   48.9470 C   0  0  0  0  0  0  0  0  0  0  0  0
   35.5130   30.3880   50.2980 N   0  0  0  0  0  0  0  0  0  0  0  0
   35.1230   29.2080   50.8200 C   0  0  0  0  0  0  0  0  0  0  0  0
   34.7560   28.1750   50.0240 N   0  0  0  0  0  0  0  0  0  0  0  0
   34.5080   27.5670   47.9800 H   0  0  0  0  0  0  0  0  0  0  0  0
   35.8780   31.5660   48.6100 H   0  0  0  0  0  0  0  0  0  0  0  0
   35.1030   29.0850   51.9020 H   0  0  0  0  0  0  0  0  0  0  0  0
   35.2070   30.4010   42.5010 O   0  0  0  0  0  0  0  0  0  0  0  0
   36.5410   29.2710   40.9250 C   0  0  0  0  0  0  0  0  0  0  0  0
   36.2910   30.4080   41.6670 C   0  0  0  0  0  0  0  0  0  0  0  0
   37.1190   31.5090   41.5580 C   0  0  0  0  0  0  0  0  0  0  0  0
   36.9340   32.4210   42.1400 H   0  0  0  0  0  0  0  0  0  0  0  0
   38.2010   31.4360   40.6850 C   0  0  0  0  0  0  0  0  0  0  0  0
   38.8680   32.3050   40.5890 H   0  0  0  0  0  0  0  0  0  0  0  0
   38.4780   30.3070   39.9260 C   0  0  0  0  0  3  0  0  0  0  0  0
   37.6320   29.2140   40.0540 C   0  0  0  0  0  3  0  0  0  0  0  0
   34.7260   27.9910   42.2180 H   0  0  0  0  0  0  0  0  0  0  0  0
   35.4870   27.8820   41.0700 S   0  0  0  0  0  0  0  0  0  0  0  0
   34.6290   27.8370   39.8400 O   0  0  0  0  0  0  0  0  0  0  0  0
   36.3170   26.6340   41.0980 O   0  0  0  0  0  0  0  0  0  0  0  0
  1 11  1  0  0  0  0
  2  7  1  0  0  0  0
  2  1  1  0  0  0  0
  3  2  2  0  0  0  0
  4  5  2  0  0  0  0
  4  3  1  0  0  0  0
  5  6  1  0  0  0  0
  6  1  2  0  0  0  0
  8  3  1  0  0  0  0
  9  5  1  0  0  0  0
 10 15  1  0  0  0  0
 11 10  2  0  0  0  0
 11 12  1  0  0  0  0
 12 13  2  0  0  0  0
 13 14  1  0  0  0  0
 14 18  1  0  0  0  0
 15 14  2  0  0  0  0
 16 10  1  0  0  0  0
 17 12  1  0  0  0  0
 19  4  1  0  0  0  0
 20 29  1  0  0  0  0
 20 21  1  0  0  0  0
 21 19  1  0  0  0  0
 22 21  2  0  0  0  0
 22 23  1  0  0  0  0
 24 22  1  0  0  0  0
 25 24  1  0  0  0  0
 26 27  1  0  0  0  0
 26 24  2  0  0  0  0
 27 20  2  0  0  0  0
 29 31  2  0  0  0  0
 29 28  1  0  0  0  0
 30 29  2  0  0  0  0
M  END
>  <minimizedAffinity>
-2.7452023

>  <minimizedRMSD>
6.26557827

$$$$
