
 OpenBabel03272507583D

 35 37  0  0  0  0  0  0  0  0999 V2000
   36.8240   31.1730   48.4400 C   0  0  0  0  0  0  0  0  0  0  0  0
   37.1460   32.0180   49.4860 C   0  0  0  0  0  0  0  0  0  0  0  0
   38.0630   33.0380   49.2830 C   0  0  0  0  0  0  0  0  0  0  0  0
   38.6450   33.1950   48.0320 C   0  0  0  0  0  0  0  0  0  0  0  0
   38.3100   32.3430   47.0100 C   0  0  0  0  0  0  0  0  0  0  0  0
   37.4230   31.3810   47.2650 N   0  0  0  0  0  0  0  0  0  0  0  0
   36.7440   31.9810   50.5000 H   0  0  0  0  0  0  0  0  0  0  0  0
   38.3410   33.7270   50.0900 H   0  0  0  0  0  0  0  0  0  0  0  0
   39.3420   33.9880   47.9230 H   0  0  0  0  0  0  0  0  0  0  0  0
   35.1610   28.3150   50.2120 C   0  0  0  0  0  0  0  0  0  0  0  0
   36.1350   29.2980   49.8710 C   0  0  0  0  0  0  0  0  0  0  0  0
   35.8530   30.1580   48.8160 C   0  0  0  0  0  0  0  0  0  0  0  0
   34.6620   30.0190   48.1620 N   0  0  0  0  0  0  0  0  0  0  0  0
   33.7620   29.0610   48.5270 C   0  0  0  0  0  0  0  0  0  0  0  0
   34.0020   28.2230   49.5320 N   0  0  0  0  0  0  0  0  0  0  0  0
   32.6090   29.1170   47.7050 N   0  0  0  0  0  0  0  0  0  0  0  0
   35.3710   27.6380   51.0350 H   0  0  0  0  0  0  0  0  0  0  0  0
   32.2950   28.3660   47.0740 H   0  0  0  0  0  0  0  0  0  0  0  0
   32.0090   29.9770   47.7210 H   0  0  0  0  0  0  0  0  0  0  0  0
   37.3970   29.3500   50.6610 C   0  0  0  0  0  0  0  0  0  0  0  0
   38.4580   29.7780   49.8890 F   0  0  0  0  0  0  0  0  0  0  0  0
   37.2200   30.2570   51.6830 F   0  0  0  0  0  0  0  0  0  0  0  0
   37.7420   28.1460   51.2210 F   0  0  0  0  0  0  0  0  0  0  0  0
   38.3830   31.7320   44.6260 C   0  0  0  0  0  0  0  0  0  0  0  0
   38.8900   32.4630   45.6790 C   0  0  0  0  0  0  0  0  0  0  0  0
   39.9570   33.2990   45.4190 C   0  0  0  0  0  0  0  0  0  0  0  0
   40.4110   33.9000   46.1770 H   0  0  0  0  0  0  0  0  0  0  0  0
   40.5270   33.4360   44.1770 C   0  0  0  0  0  0  0  0  0  0  0  0
   41.3660   34.0940   43.9720 H   0  0  0  0  0  0  0  0  0  0  0  0
   40.0430   32.7220   43.1120 C   0  0  0  0  0  3  0  0  0  0  0  0
   38.9780   31.8850   43.3670 C   0  0  0  0  0  3  0  0  0  0  0  0
   36.8780   30.2490   46.1050 H   0  0  0  0  0  0  0  0  0  0  0  0
   37.0410   30.6340   44.8010 S   0  0  0  0  0  0  0  0  0  0  0  0
   37.3540   29.3490   44.0480 O   0  0  0  0  0  0  0  0  0  0  0  0
   35.7680   31.1600   44.1990 O   0  0  0  0  0  0  0  0  0  0  0  0
  1 12  1  0  0  0  0
  1  2  1  0  0  0  0
  2  7  1  0  0  0  0
  3  2  2  0  0  0  0
  3  8  1  0  0  0  0
  4  3  1  0  0  0  0
  5  6  1  0  0  0  0
  5  4  2  0  0  0  0
  6  1  2  0  0  0  0
  9  4  1  0  0  0  0
 10 17  1  0  0  0  0
 11 10  1  0  0  0  0
 11 20  1  0  0  0  0
 12 11  2  0  0  0  0
 13 14  2  0  0  0  0
 13 12  1  0  0  0  0
 14 15  1  0  0  0  0
 15 10  2  0  0  0  0
 16 19  1  0  0  0  0
 16 14  1  0  0  0  0
 18 16  1  0  0  0  0
 20 23  1  0  0  0  0
 20 22  1  0  0  0  0
 21 20  1  0  0  0  0
 24 33  1  0  0  0  0
 24 25  1  0  0  0  0
 25  5  1  0  0  0  0
 26 25  2  0  0  0  0
 26 27  1  0  0  0  0
 28 26  1  0  0  0  0
 29 28  1  0  0  0  0
 30 31  1  0  0  0  0
 30 28  2  0  0  0  0
 31 24  2  0  0  0  0
 33 32  1  0  0  0  0
 34 33  2  0  0  0  0
 35 33  2  0  0  0  0
M  END
>  <minimizedAffinity>
-6.5752182

>  <minimizedRMSD>
1.33893383

$$$$
