
 OpenBabel03272509573D

 49 52  0  0  0  0  0  0  0  0999 V2000
   33.5400   27.5230   47.7000 C   0  0  0  0  0  0  0  0  0  0  0  0
   33.7240   26.5860   48.2430 H   0  0  0  0  0  0  0  0  0  0  0  0
   33.8100   27.3120   46.6400 H   0  0  0  0  0  0  0  0  0  0  0  0
   32.0920   27.8870   47.7670 C   0  0  0  0  0  0  0  0  0  0  0  0
   31.3850   27.4710   48.8780 C   0  0  0  0  0  0  0  0  0  0  0  0
   30.0530   27.7630   49.0150 C   0  0  0  0  0  0  0  0  0  0  0  0
   29.4300   28.4510   48.0720 N   0  0  0  0  0  0  0  0  0  0  0  0
   30.1290   28.8630   46.9720 C   0  0  0  0  0  0  0  0  0  0  0  0
   31.4320   28.5810   46.8330 N   0  0  0  0  0  0  0  0  0  0  0  0
   31.8740   26.9140   49.6480 H   0  0  0  0  0  0  0  0  0  0  0  0
   29.4790   27.4420   49.8860 H   0  0  0  0  0  0  0  0  0  0  0  0
   29.3950   29.6370   45.9410 C   0  0  0  0  0  0  0  0  0  0  0  0
   28.8710   30.4730   46.4920 H   0  0  0  0  0  0  0  0  0  0  0  0
   30.1390   30.1930   45.3050 H   0  0  0  0  0  0  0  0  0  0  0  0
   28.7210   28.1920   43.9930 C   0  0  0  0  0  0  0  0  0  0  0  0
   28.4250   28.8530   45.1630 C   0  0  0  0  0  0  0  0  0  0  0  0
   27.1120   28.7700   45.6430 C   0  0  0  0  0  0  0  0  0  0  0  0
   26.8650   29.2830   46.5610 H   0  0  0  0  0  0  0  0  0  0  0  0
   26.1130   28.0630   45.0080 C   0  0  0  0  0  0  0  0  0  0  0  0
   25.1070   28.0320   45.4290 H   0  0  0  0  0  0  0  0  0  0  0  0
   26.3920   27.3950   43.8360 C   0  0  0  0  0  3  0  0  0  0  0  0
   27.6890   27.4830   43.3670 C   0  0  0  0  0  3  0  0  0  0  0  0
   31.2780   27.8420   44.2320 H   0  0  0  0  0  0  0  0  0  0  0  0
   30.3180   28.2440   43.3210 S   0  0  0  0  0  0  0  0  0  0  0  0
   30.6560   29.5100   42.6260 O   0  0  0  0  0  0  0  0  0  0  0  0
   30.3610   27.1620   42.2430 O   0  0  0  0  0  0  0  0  0  0  0  0
   34.4320   28.6470   48.1710 C   0  0  0  0  0  0  0  0  0  0  0  0
   35.2100   28.9080   47.4530 H   0  0  0  0  0  0  0  0  0  0  0  0
   33.8000   29.5480   48.3300 H   0  0  0  0  0  0  0  0  0  0  0  0
   34.9900   28.3480   49.4430 O   0  0  0  0  0  0  0  0  0  0  0  0
   37.3190   30.1680   51.5120 C   0  0  0  0  0  0  0  0  0  0  0  0
   38.0500   30.8580   50.5200 C   0  0  0  0  0  0  0  0  0  0  0  0
   37.6880   30.6490   49.1950 C   0  0  0  0  0  0  0  0  0  0  0  0
   36.6480   29.7850   48.9720 N   0  0  0  0  0  0  0  0  0  0  0  0
   35.9720   29.1430   49.9270 C   0  0  0  0  0  0  0  0  0  0  0  0
   36.3200   29.3450   51.2060 N   0  0  0  0  0  0  0  0  0  0  0  0
   37.6180   30.3460   52.5350 H   0  0  0  0  0  0  0  0  0  0  0  0
   38.8690   31.5380   50.7120 H   0  0  0  0  0  0  0  0  0  0  0  0
   38.9430   33.2610   49.0230 F   0  0  0  0  0  0  0  0  0  0  0  0
   38.9090   32.4780   47.9500 C   0  0  0  0  0  0  0  0  0  0  0  0
   38.3240   31.2710   48.0510 C   0  0  0  0  0  0  0  0  0  0  0  0
   38.3410   30.5220   46.8640 C   0  0  0  0  0  0  0  0  0  0  0  0
   38.9120   30.9990   45.7100 C   0  0  0  0  0  0  0  0  0  0  0  0
   39.4980   32.2320   45.6480 C   0  0  0  0  0  0  0  0  0  0  0  0
   39.4790   32.9530   46.7960 C   0  0  0  0  0  0  0  0  0  0  0  0
   37.8890   29.5270   46.8430 H   0  0  0  0  0  0  0  0  0  0  0  0
   38.8870   30.3610   44.8240 H   0  0  0  0  0  0  0  0  0  0  0  0
   39.9310   32.5530   44.7140 H   0  0  0  0  0  0  0  0  0  0  0  0
   39.9430   33.9520   46.7840 H   0  0  0  0  0  0  0  0  0  0  0  0
  1  4  1  0  0  0  0
  1 27  1  0  0  0  0
  1  2  1  0  0  0  0
  3  1  1  0  0  0  0
  4  5  1  0  0  0  0
  5  6  2  0  0  0  0
  5 10  1  0  0  0  0
  6 11  1  0  0  0  0
  7  6  1  0  0  0  0
  8  7  2  0  0  0  0
  9  8  1  0  0  0  0
  9  4  2  0  0  0  0
 12 13  1  0  0  0  0
 12  8  1  0  0  0  0
 14 12  1  0  0  0  0
 15 16  1  0  0  0  0
 16 17  2  0  0  0  0
 16 12  1  0  0  0  0
 17 18  1  0  0  0  0
 19 20  1  0  0  0  0
 19 17  1  0  0  0  0
 21 19  2  0  0  0  0
 22 21  1  0  0  0  0
 22 15  2  0  0  0  0
 24 15  1  0  0  0  0
 24 23  1  0  0  0  0
 25 24  2  0  0  0  0
 26 24  2  0  0  0  0
 27 29  1  0  0  0  0
 27 30  1  0  0  0  0
 28 27  1  0  0  0  0
 30 35  1  0  0  0  0
 31 37  1  0  0  0  0
 32 38  1  0  0  0  0
 32 31  2  0  0  0  0
 33 32  1  0  0  0  0
 34 33  2  0  0  0  0
 34 35  1  0  0  0  0
 35 36  2  0  0  0  0
 36 31  1  0  0  0  0
 40 41  1  0  0  0  0
 40 39  1  0  0  0  0
 41 33  1  0  0  0  0
 42 41  2  0  0  0  0
 43 42  1  0  0  0  0
 44 43  2  0  0  0  0
 44 45  1  0  0  0  0
 45 40  2  0  0  0  0
 46 42  1  0  0  0  0
 47 43  1  0  0  0  0
 48 44  1  0  0  0  0
 49 45  1  0  0  0  0
M  END
>  <minimizedAffinity>
-6.42113638

>  <minimizedRMSD>
0.827450812

$$$$
