
 OpenBabel03272510123D

 38 41  0  0  0  0  0  0  0  0999 V2000
   37.3840   27.1630   31.6410 O   0  0  0  0  0  0  0  0  0  0  0  0
   36.2620   23.1130   31.9830 C   0  0  0  0  0  0  0  0  0  0  0  0
   35.4560   24.0200   31.3760 C   0  0  0  0  0  0  0  0  0  0  0  0
   35.7530   25.3570   31.2260 C   0  0  0  0  0  0  0  0  0  0  0  0
   36.9340   25.8480   31.7080 C   0  0  0  0  0  0  0  0  0  0  0  0
   37.7730   24.9180   32.3380 C   0  0  0  0  0  0  0  0  0  0  0  0
   37.4400   23.6190   32.4610 N   0  0  0  0  0  0  0  0  0  0  0  0
   34.5030   23.7140   30.9670 H   0  0  0  0  0  0  0  0  0  0  0  0
   35.1060   26.0680   30.7430 H   0  0  0  0  0  0  0  0  0  0  0  0
   38.7320   25.1840   32.7590 H   0  0  0  0  0  0  0  0  0  0  0  0
   35.7460   21.1190   33.3920 C   0  0  0  0  0  0  0  0  0  0  0  0
   35.9590   21.7260   32.1460 C   0  0  0  0  0  0  0  0  0  0  0  0
   35.8620   20.9040   31.0560 C   0  0  0  0  0  0  0  0  0  0  0  0
   35.5740   19.5700   31.2180 N   0  0  0  0  0  0  0  0  0  0  0  0
   35.3810   19.0500   32.4580 C   0  0  0  0  0  0  0  0  0  0  0  0
   35.4630   19.8110   33.5500 N   0  0  0  0  0  0  0  0  0  0  0  0
   35.8100   21.7230   34.2900 H   0  0  0  0  0  0  0  0  0  0  0  0
   36.0210   21.3390   30.0690 H   0  0  0  0  0  0  0  0  0  0  0  0
   35.1690   17.9950   32.3450 H   0  0  0  0  0  0  0  0  0  0  0  0
   36.6930   28.2040   32.2590 C   0  0  0  0  0  0  0  0  0  0  0  0
   36.3930   29.2500   31.3860 C   0  0  0  0  0  0  0  0  0  0  0  0
   35.7110   30.2100   32.1260 C   0  0  0  0  0  0  0  0  0  0  0  0
   35.6190   29.7320   33.3870 N   0  0  0  0  0  0  0  0  0  0  0  0
   36.1960   28.5590   33.4540 N   0  0  0  0  0  0  0  0  0  0  0  0
   36.5470   29.4940   30.3390 H   0  0  0  0  0  0  0  0  0  0  0  0
   35.2930   31.1730   31.8630 H   0  0  0  0  0  0  0  0  0  0  0  0
   33.6260   30.2770   34.7320 C   0  0  0  0  0  0  0  0  0  0  0  0
   35.0020   30.3670   34.5000 C   0  0  0  0  0  0  0  0  0  0  0  0
   35.8210   31.0830   35.3500 C   0  0  0  0  0  0  0  0  0  0  0  0
   36.8840   31.1560   35.1770 H   0  0  0  0  0  0  0  0  0  0  0  0
   35.2750   31.7290   36.4590 C   0  0  0  0  0  0  0  0  0  0  0  0
   35.8580   32.3060   37.1670 H   0  0  0  0  0  0  0  0  0  0  0  0
   33.9160   31.6320   36.6780 C   0  0  0  0  0  3  0  0  0  0  0  0
   33.0870   30.9270   35.8450 C   0  0  0  0  0  3  0  0  0  0  0  0
   33.3360   28.2580   33.1260 H   0  0  0  0  0  0  0  0  0  0  0  0
   32.6470   29.3530   33.6120 S   0  0  0  0  0  0  0  0  0  0  0  0
   32.1290   30.2170   32.4840 O   0  0  0  0  0  0  0  0  0  0  0  0
   31.4690   28.8060   34.3740 O   0  0  0  0  0  0  0  0  0  0  0  0
  1  5  1  0  0  0  0
  1 20  1  0  0  0  0
  2 12  1  0  0  0  0
  2  7  1  0  0  0  0
  3  2  2  0  0  0  0
  4  3  1  0  0  0  0
  4  5  2  0  0  0  0
  5  6  1  0  0  0  0
  6  7  2  0  0  0  0
  6 10  1  0  0  0  0
  8  3  1  0  0  0  0
  9  4  1  0  0  0  0
 11 16  1  0  0  0  0
 11 17  1  0  0  0  0
 12 11  2  0  0  0  0
 13 14  2  0  0  0  0
 13 12  1  0  0  0  0
 14 15  1  0  0  0  0
 15 16  2  0  0  0  0
 18 13  1  0  0  0  0
 19 15  1  0  0  0  0
 20 24  2  0  0  0  0
 21 22  2  0  0  0  0
 21 20  1  0  0  0  0
 22 23  1  0  0  0  0
 23 24  1  0  0  0  0
 23 28  1  0  0  0  0
 25 21  1  0  0  0  0
 26 22  1  0  0  0  0
 27 34  1  0  0  0  0
 28 27  2  0  0  0  0
 28 29  1  0  0  0  0
 29 31  2  0  0  0  0
 30 29  1  0  0  0  0
 31 33  1  0  0  0  0
 31 32  1  0  0  0  0
 34 33  2  0  0  0  0
 35 36  1  0  0  0  0
 36 38  2  0  0  0  0
 36 27  1  0  0  0  0
 37 36  2  0  0  0  0
M  END
>  <minimizedAffinity>
-6.20985889

$$$$

 OpenBabel03272510123D

 38 41  0  0  0  0  0  0  0  0999 V2000
   37.0420   26.7990   31.2610 O   0  0  0  0  0  0  0  0  0  0  0  0
   35.5640   29.4810   34.1580 C   0  0  0  0  0  0  0  0  0  0  0  0
   36.4280   28.4900   34.4910 C   0  0  0  0  0  0  0  0  0  0  0  0
   36.9540   27.5770   33.6020 C   0  0  0  0  0  0  0  0  0  0  0  0
   36.6060   27.6380   32.2820 C   0  0  0  0  0  0  0  0  0  0  0  0
   35.7130   28.6600   31.9300 C   0  0  0  0  0  0  0  0  0  0  0  0
   35.2260   29.5300   32.8340 N   0  0  0  0  0  0  0  0  0  0  0  0
   36.7540   28.3720   35.5150 H   0  0  0  0  0  0  0  0  0  0  0  0
   37.6390   26.7940   33.8770 H   0  0  0  0  0  0  0  0  0  0  0  0
   35.3640   28.8110   30.9180 H   0  0  0  0  0  0  0  0  0  0  0  0
   35.7890   31.3200   35.8310 C   0  0  0  0  0  0  0  0  0  0  0  0
   35.0130   30.4290   35.0750 C   0  0  0  0  0  0  0  0  0  0  0  0
   33.6590   30.5080   35.2620 C   0  0  0  0  0  0  0  0  0  0  0  0
   33.1340   31.4190   36.1480 N   0  0  0  0  0  0  0  0  0  0  0  0
   33.9470   32.2510   36.8470 C   0  0  0  0  0  0  0  0  0  0  0  0
   35.2720   32.2120   36.6990 N   0  0  0  0  0  0  0  0  0  0  0  0
   36.8660   31.3030   35.7230 H   0  0  0  0  0  0  0  0  0  0  0  0
   33.0220   29.8320   34.6920 H   0  0  0  0  0  0  0  0  0  0  0  0
   33.3230   32.8730   37.4750 H   0  0  0  0  0  0  0  0  0  0  0  0
   37.0080   25.4110   31.3920 C   0  0  0  0  0  0  0  0  0  0  0  0
   38.0250   24.7730   30.6820 C   0  0  0  0  0  0  0  0  0  0  0  0
   37.8730   23.4080   30.8990 C   0  0  0  0  0  0  0  0  0  0  0  0
   36.8010   23.2630   31.7090 N   0  0  0  0  0  0  0  0  0  0  0  0
   36.3020   24.4390   31.9910 N   0  0  0  0  0  0  0  0  0  0  0  0
   38.8560   25.0520   30.0410 H   0  0  0  0  0  0  0  0  0  0  0  0
   38.4280   22.5480   30.5490 H   0  0  0  0  0  0  0  0  0  0  0  0
   36.6640   21.5010   33.4280 C   0  0  0  0  0  0  0  0  0  0  0  0
   36.2610   22.0430   32.2040 C   0  0  0  0  0  0  0  0  0  0  0  0
   35.3160   21.4100   31.4220 C   0  0  0  0  0  0  0  0  0  0  0  0
   35.0010   21.8230   30.4760 H   0  0  0  0  0  0  0  0  0  0  0  0
   34.7500   20.2100   31.8530 C   0  0  0  0  0  0  0  0  0  0  0  0
   34.0040   19.6600   31.2910 H   0  0  0  0  0  0  0  0  0  0  0  0
   35.1550   19.6850   33.0620 C   0  0  0  0  0  3  0  0  0  0  0  0
   36.0920   20.2990   33.8520 C   0  0  0  0  0  3  0  0  0  0  0  0
   37.7170   23.7270   34.2520 H   0  0  0  0  0  0  0  0  0  0  0  0
   37.8680   22.3580   34.3680 S   0  0  0  0  0  0  0  0  0  0  0  0
   39.2690   21.9300   33.9970 O   0  0  0  0  0  0  0  0  0  0  0  0
   37.6370   22.0300   35.8190 O   0  0  0  0  0  0  0  0  0  0  0  0
  1 20  1  0  0  0  0
  1  5  1  0  0  0  0
  2  3  1  0  0  0  0
  2 12  1  0  0  0  0
  3  8  1  0  0  0  0
  4  9  1  0  0  0  0
  4  3  2  0  0  0  0
  5  4  1  0  0  0  0
  6  5  2  0  0  0  0
  6  7  1  0  0  0  0
  7  2  2  0  0  0  0
 10  6  1  0  0  0  0
 11 16  1  0  0  0  0
 12 13  1  0  0  0  0
 12 11  2  0  0  0  0
 13 14  2  0  0  0  0
 14 15  1  0  0  0  0
 15 19  1  0  0  0  0
 16 15  2  0  0  0  0
 17 11  1  0  0  0  0
 18 13  1  0  0  0  0
 20 24  2  0  0  0  0
 21 22  2  0  0  0  0
 21 20  1  0  0  0  0
 22 23  1  0  0  0  0
 23 24  1  0  0  0  0
 23 28  1  0  0  0  0
 25 21  1  0  0  0  0
 26 22  1  0  0  0  0
 27 34  1  0  0  0  0
 27 36  1  0  0  0  0
 28 27  2  0  0  0  0
 29 31  2  0  0  0  0
 29 28  1  0  0  0  0
 30 29  1  0  0  0  0
 31 33  1  0  0  0  0
 32 31  1  0  0  0  0
 33 34  2  0  0  0  0
 35 36  1  0  0  0  0
 36 38  2  0  0  0  0
 37 36  2  0  0  0  0
M  END
>  <minimizedAffinity>
-6.02322483

$$$$

 OpenBabel03272510123D

 38 41  0  0  0  0  0  0  0  0999 V2000
   37.1830   27.4090   32.6300 O   0  0  0  0  0  0  0  0  0  0  0  0
   39.4130   24.7190   34.9880 C   0  0  0  0  0  0  0  0  0  0  0  0
   39.7330   26.0350   34.9260 C   0  0  0  0  0  0  0  0  0  0  0  0
   39.0530   26.9740   34.1810 C   0  0  0  0  0  0  0  0  0  0  0  0
   37.9730   26.5940   33.4340 C   0  0  0  0  0  0  0  0  0  0  0  0
   37.6360   25.2340   33.4910 C   0  0  0  0  0  0  0  0  0  0  0  0
   38.3310   24.3540   34.2360 N   0  0  0  0  0  0  0  0  0  0  0  0
   40.5750   26.4190   35.4870 H   0  0  0  0  0  0  0  0  0  0  0  0
   39.3160   28.0160   34.1390 H   0  0  0  0  0  0  0  0  0  0  0  0
   36.8030   24.8130   32.9470 H   0  0  0  0  0  0  0  0  0  0  0  0
   41.3940   23.2650   35.4250 C   0  0  0  0  0  0  0  0  0  0  0  0
   40.1160   23.7400   35.7560 C   0  0  0  0  0  0  0  0  0  0  0  0
   39.5530   23.2050   36.8830 C   0  0  0  0  0  0  0  0  0  0  0  0
   40.2320   22.2610   37.6160 N   0  0  0  0  0  0  0  0  0  0  0  0
   41.4670   21.8470   37.2350 C   0  0  0  0  0  0  0  0  0  0  0  0
   42.0580   22.3390   36.1450 N   0  0  0  0  0  0  0  0  0  0  0  0
   41.8880   23.6530   34.5440 H   0  0  0  0  0  0  0  0  0  0  0  0
   38.5600   23.5490   37.1730 H   0  0  0  0  0  0  0  0  0  0  0  0
   41.8050   21.1100   37.9520 H   0  0  0  0  0  0  0  0  0  0  0  0
   36.4540   28.4720   33.1600 C   0  0  0  0  0  0  0  0  0  0  0  0
   36.1560   29.4520   32.2130 C   0  0  0  0  0  0  0  0  0  0  0  0
   35.4350   30.4430   32.8700 C   0  0  0  0  0  0  0  0  0  0  0  0
   35.3190   30.0460   34.1580 N   0  0  0  0  0  0  0  0  0  0  0  0
   35.9180   28.8930   34.3160 N   0  0  0  0  0  0  0  0  0  0  0  0
   36.3340   29.6300   31.1570 H   0  0  0  0  0  0  0  0  0  0  0  0
   35.0050   31.3770   32.5340 H   0  0  0  0  0  0  0  0  0  0  0  0
   33.3020   30.5490   35.4820 C   0  0  0  0  0  0  0  0  0  0  0  0
   34.6600   30.7390   35.2110 C   0  0  0  0  0  0  0  0  0  0  0  0
   35.4190   31.6140   35.9600 C   0  0  0  0  0  0  0  0  0  0  0  0
   36.4680   31.7660   35.7560 H   0  0  0  0  0  0  0  0  0  0  0  0
   34.8300   32.3240   37.0070 C   0  0  0  0  0  0  0  0  0  0  0  0
   35.3650   33.0250   37.6360 H   0  0  0  0  0  0  0  0  0  0  0  0
   33.4890   32.1270   37.2650 C   0  0  0  0  0  3  0  0  0  0  0  0
   32.7190   31.2630   36.5310 C   0  0  0  0  0  3  0  0  0  0  0  0
   33.2130   28.4200   33.9980 H   0  0  0  0  0  0  0  0  0  0  0  0
   32.3990   29.4230   34.4890 S   0  0  0  0  0  0  0  0  0  0  0  0
   31.6700   30.1310   33.3700 O   0  0  0  0  0  0  0  0  0  0  0  0
   31.3810   28.7470   35.3690 O   0  0  0  0  0  0  0  0  0  0  0  0
  1 20  1  0  0  0  0
  1  5  1  0  0  0  0
  2 12  1  0  0  0  0
  3  2  1  0  0  0  0
  3  8  1  0  0  0  0
  4  3  2  0  0  0  0
  5  6  2  0  0  0  0
  5  4  1  0  0  0  0
  6  7  1  0  0  0  0
  7  2  2  0  0  0  0
  9  4  1  0  0  0  0
 10  6  1  0  0  0  0
 11 12  2  0  0  0  0
 11 16  1  0  0  0  0
 12 13  1  0  0  0  0
 13 18  1  0  0  0  0
 13 14  2  0  0  0  0
 15 14  1  0  0  0  0
 15 19  1  0  0  0  0
 16 15  2  0  0  0  0
 17 11  1  0  0  0  0
 20 24  2  0  0  0  0
 21 22  2  0  0  0  0
 21 20  1  0  0  0  0
 22 23  1  0  0  0  0
 23 24  1  0  0  0  0
 23 28  1  0  0  0  0
 25 21  1  0  0  0  0
 26 22  1  0  0  0  0
 27 34  1  0  0  0  0
 28 27  2  0  0  0  0
 28 29  1  0  0  0  0
 29 31  2  0  0  0  0
 30 29  1  0  0  0  0
 31 33  1  0  0  0  0
 31 32  1  0  0  0  0
 34 33  2  0  0  0  0
 35 36  1  0  0  0  0
 36 38  2  0  0  0  0
 36 27  1  0  0  0  0
 37 36  2  0  0  0  0
M  END
>  <minimizedAffinity>
-6.00080156

$$$$

 OpenBabel03272510123D

 38 41  0  0  0  0  0  0  0  0999 V2000
   37.9900   26.1680   32.3200 O   0  0  0  0  0  0  0  0  0  0  0  0
   35.9320   29.3220   34.2140 C   0  0  0  0  0  0  0  0  0  0  0  0
   35.9400   29.1960   32.8640 C   0  0  0  0  0  0  0  0  0  0  0  0
   36.5880   28.1950   32.1730 C   0  0  0  0  0  0  0  0  0  0  0  0
   37.2850   27.2390   32.8590 C   0  0  0  0  0  0  0  0  0  0  0  0
   37.2820   27.3630   34.2560 C   0  0  0  0  0  0  0  0  0  0  0  0
   36.6340   28.3600   34.8860 N   0  0  0  0  0  0  0  0  0  0  0  0
   35.4130   29.9110   32.2460 H   0  0  0  0  0  0  0  0  0  0  0  0
   36.5880   28.1040   31.1020 H   0  0  0  0  0  0  0  0  0  0  0  0
   37.7960   26.6690   34.9070 H   0  0  0  0  0  0  0  0  0  0  0  0
   35.9220   31.2460   35.8040 C   0  0  0  0  0  0  0  0  0  0  0  0
   35.2660   30.3600   34.9360 C   0  0  0  0  0  0  0  0  0  0  0  0
   33.9150   30.5390   34.8080 C   0  0  0  0  0  0  0  0  0  0  0  0
   33.2790   31.5370   35.5080 N   0  0  0  0  0  0  0  0  0  0  0  0
   33.9780   32.3570   36.3330 C   0  0  0  0  0  0  0  0  0  0  0  0
   35.2960   32.2230   36.4900 N   0  0  0  0  0  0  0  0  0  0  0  0
   36.9910   31.1510   35.9440 H   0  0  0  0  0  0  0  0  0  0  0  0
   33.3700   29.8700   34.1420 H   0  0  0  0  0  0  0  0  0  0  0  0
   33.2810   33.0580   36.7720 H   0  0  0  0  0  0  0  0  0  0  0  0
   38.3870   25.0860   33.1030 C   0  0  0  0  0  0  0  0  0  0  0  0
   37.6140   23.9450   32.8850 C   0  0  0  0  0  0  0  0  0  0  0  0
   38.1140   22.9530   33.7220 C   0  0  0  0  0  0  0  0  0  0  0  0
   39.1450   23.5040   34.4010 N   0  0  0  0  0  0  0  0  0  0  0  0
   39.2960   24.7510   34.0320 N   0  0  0  0  0  0  0  0  0  0  0  0
   36.7710   23.6510   32.2680 H   0  0  0  0  0  0  0  0  0  0  0  0
   37.8250   21.9230   33.8850 H   0  0  0  0  0  0  0  0  0  0  0  0
   39.6540   22.9040   36.7370 C   0  0  0  0  0  0  0  0  0  0  0  0
   39.9650   22.8690   35.3740 C   0  0  0  0  0  0  0  0  0  0  0  0
   41.0900   22.2120   34.9180 C   0  0  0  0  0  0  0  0  0  0  0  0
   41.3350   22.1820   33.8670 H   0  0  0  0  0  0  0  0  0  0  0  0
   41.9340   21.5710   35.8240 C   0  0  0  0  0  0  0  0  0  0  0  0
   42.8310   21.0360   35.5350 H   0  0  0  0  0  0  0  0  0  0  0  0
   41.6170   21.6110   37.1660 C   0  0  0  0  0  3  0  0  0  0  0  0
   40.5050   22.2590   37.6370 C   0  0  0  0  0  3  0  0  0  0  0  0
   37.9500   24.8380   36.4260 H   0  0  0  0  0  0  0  0  0  0  0  0
   38.2110   23.7570   37.2460 S   0  0  0  0  0  0  0  0  0  0  0  0
   38.2990   24.1800   38.6950 O   0  0  0  0  0  0  0  0  0  0  0  0
   37.0430   22.8200   37.0910 O   0  0  0  0  0  0  0  0  0  0  0  0
  1  5  1  0  0  0  0
  1 20  1  0  0  0  0
  2  7  1  0  0  0  0
  2 12  1  0  0  0  0
  3  2  2  0  0  0  0
  4  5  2  0  0  0  0
  4  3  1  0  0  0  0
  5  6  1  0  0  0  0
  6  7  2  0  0  0  0
  6 10  1  0  0  0  0
  8  3  1  0  0  0  0
  9  4  1  0  0  0  0
 11 17  1  0  0  0  0
 11 16  1  0  0  0  0
 12 11  2  0  0  0  0
 13 12  1  0  0  0  0
 13 14  2  0  0  0  0
 14 15  1  0  0  0  0
 15 16  2  0  0  0  0
 15 19  1  0  0  0  0
 18 13  1  0  0  0  0
 20 24  2  0  0  0  0
 21 20  1  0  0  0  0
 21 22  2  0  0  0  0
 22 26  1  0  0  0  0
 22 23  1  0  0  0  0
 23 28  1  0  0  0  0
 24 23  1  0  0  0  0
 25 21  1  0  0  0  0
 27 36  1  0  0  0  0
 27 34  1  0  0  0  0
 28 27  2  0  0  0  0
 29 28  1  0  0  0  0
 29 31  2  0  0  0  0
 30 29  1  0  0  0  0
 31 33  1  0  0  0  0
 32 31  1  0  0  0  0
 33 34  2  0  0  0  0
 35 36  1  0  0  0  0
 36 37  2  0  0  0  0
 38 36  2  0  0  0  0
M  END
>  <minimizedAffinity>
-5.89724731

$$$$

 OpenBabel03272510123D

 38 41  0  0  0  0  0  0  0  0999 V2000
   36.5990   27.8400   32.0750 O   0  0  0  0  0  0  0  0  0  0  0  0
   36.1410   23.6670   31.6940 C   0  0  0  0  0  0  0  0  0  0  0  0
   35.3410   24.5290   31.0190 C   0  0  0  0  0  0  0  0  0  0  0  0
   35.4290   25.9020   31.0910 C   0  0  0  0  0  0  0  0  0  0  0  0
   36.3770   26.4790   31.8880 C   0  0  0  0  0  0  0  0  0  0  0  0
   37.2090   25.5950   32.5910 C   0  0  0  0  0  0  0  0  0  0  0  0
   37.0840   24.2590   32.4880 N   0  0  0  0  0  0  0  0  0  0  0  0
   34.5650   24.1540   30.3660 H   0  0  0  0  0  0  0  0  0  0  0  0
   34.7890   26.5760   30.5500 H   0  0  0  0  0  0  0  0  0  0  0  0
   37.9950   25.9310   33.2520 H   0  0  0  0  0  0  0  0  0  0  0  0
   36.9760   21.4380   30.9420 C   0  0  0  0  0  0  0  0  0  0  0  0
   36.0530   22.2420   31.6270 C   0  0  0  0  0  0  0  0  0  0  0  0
   35.0270   21.5790   32.2470 C   0  0  0  0  0  0  0  0  0  0  0  0
   34.9450   20.2090   32.1760 N   0  0  0  0  0  0  0  0  0  0  0  0
   35.8760   19.4940   31.4930 C   0  0  0  0  0  0  0  0  0  0  0  0
   36.8940   20.0950   30.8740 N   0  0  0  0  0  0  0  0  0  0  0  0
   37.8080   21.9090   30.4340 H   0  0  0  0  0  0  0  0  0  0  0  0
   34.2890   22.1700   32.7900 H   0  0  0  0  0  0  0  0  0  0  0  0
   35.6130   18.4480   31.5720 H   0  0  0  0  0  0  0  0  0  0  0  0
   35.6650   28.6520   32.7160 C   0  0  0  0  0  0  0  0  0  0  0  0
   35.1400   29.6400   31.8840 C   0  0  0  0  0  0  0  0  0  0  0  0
   34.2320   30.3680   32.6450 C   0  0  0  0  0  0  0  0  0  0  0  0
   34.2320   29.8160   33.8790 N   0  0  0  0  0  0  0  0  0  0  0  0
   35.0730   28.8140   33.9100 N   0  0  0  0  0  0  0  0  0  0  0  0
   35.2520   29.9680   30.8550 H   0  0  0  0  0  0  0  0  0  0  0  0
   33.6000   31.2150   32.4130 H   0  0  0  0  0  0  0  0  0  0  0  0
   33.8780   31.2540   35.8490 C   0  0  0  0  0  0  0  0  0  0  0  0
   33.4580   30.2260   35.0000 C   0  0  0  0  0  0  0  0  0  0  0  0
   32.2670   29.5640   35.2180 C   0  0  0  0  0  0  0  0  0  0  0  0
   31.9380   28.7710   34.5660 H   0  0  0  0  0  0  0  0  0  0  0  0
   31.4640   29.9210   36.3020 C   0  0  0  0  0  0  0  0  0  0  0  0
   30.5180   29.4450   36.5320 H   0  0  0  0  0  0  0  0  0  0  0  0
   31.8880   30.9370   37.1330 C   0  0  0  0  0  3  0  0  0  0  0  0
   33.0680   31.6050   36.9320 C   0  0  0  0  0  3  0  0  0  0  0  0
   35.4970   32.4130   34.1830 H   0  0  0  0  0  0  0  0  0  0  0  0
   35.4010   32.0510   35.5130 S   0  0  0  0  0  0  0  0  0  0  0  0
   36.5770   31.1980   35.9310 O   0  0  0  0  0  0  0  0  0  0  0  0
   35.4350   33.3320   36.3020 O   0  0  0  0  0  0  0  0  0  0  0  0
  1 20  1  0  0  0  0
  2  7  1  0  0  0  0
  3  4  1  0  0  0  0
  3  2  2  0  0  0  0
  4  5  2  0  0  0  0
  5  1  1  0  0  0  0
  5  6  1  0  0  0  0
  6 10  1  0  0  0  0
  7  6  2  0  0  0  0
  8  3  1  0  0  0  0
  9  4  1  0  0  0  0
 11 12  1  0  0  0  0
 12  2  1  0  0  0  0
 12 13  2  0  0  0  0
 13 18  1  0  0  0  0
 14 13  1  0  0  0  0
 15 19  1  0  0  0  0
 15 14  2  0  0  0  0
 16 11  2  0  0  0  0
 16 15  1  0  0  0  0
 17 11  1  0  0  0  0
 20 24  2  0  0  0  0
 21 22  2  0  0  0  0
 21 20  1  0  0  0  0
 22 23  1  0  0  0  0
 23 24  1  0  0  0  0
 23 28  1  0  0  0  0
 25 21  1  0  0  0  0
 26 22  1  0  0  0  0
 27 34  1  0  0  0  0
 28 29  1  0  0  0  0
 28 27  2  0  0  0  0
 29 31  2  0  0  0  0
 30 29  1  0  0  0  0
 31 32  1  0  0  0  0
 31 33  1  0  0  0  0
 34 33  2  0  0  0  0
 35 36  1  0  0  0  0
 36 27  1  0  0  0  0
 36 37  2  0  0  0  0
 36 38  2  0  0  0  0
M  END
>  <minimizedAffinity>
-5.81151724

$$$$

 OpenBabel03272510123D

 38 41  0  0  0  0  0  0  0  0999 V2000
   37.3620   27.7830   32.5690 O   0  0  0  0  0  0  0  0  0  0  0  0
   39.3710   24.9530   34.9640 C   0  0  0  0  0  0  0  0  0  0  0  0
   39.8920   26.1850   34.7400 C   0  0  0  0  0  0  0  0  0  0  0  0
   39.2960   27.1620   33.9710 C   0  0  0  0  0  0  0  0  0  0  0  0
   38.0930   26.9130   33.3730 C   0  0  0  0  0  0  0  0  0  0  0  0
   37.5470   25.6410   33.5980 C   0  0  0  0  0  0  0  0  0  0  0  0
   38.1670   24.7190   34.3580 N   0  0  0  0  0  0  0  0  0  0  0  0
   40.8420   26.4630   35.1770 H   0  0  0  0  0  0  0  0  0  0  0  0
   39.7190   28.1360   33.8010 H   0  0  0  0  0  0  0  0  0  0  0  0
   36.6010   25.3270   33.1800 H   0  0  0  0  0  0  0  0  0  0  0  0
   39.3740   23.3470   36.8730 C   0  0  0  0  0  0  0  0  0  0  0  0
   39.9850   23.9350   35.7560 C   0  0  0  0  0  0  0  0  0  0  0  0
   41.2380   23.4770   35.4500 C   0  0  0  0  0  0  0  0  0  0  0  0
   41.8260   22.5000   36.2180 N   0  0  0  0  0  0  0  0  0  0  0  0
   41.1740   21.9760   37.2880 C   0  0  0  0  0  0  0  0  0  0  0  0
   39.9510   22.3890   37.6250 N   0  0  0  0  0  0  0  0  0  0  0  0
   38.3810   23.6700   37.1620 H   0  0  0  0  0  0  0  0  0  0  0  0
   41.7460   23.9100   34.5880 H   0  0  0  0  0  0  0  0  0  0  0  0
   41.8200   21.2330   37.7370 H   0  0  0  0  0  0  0  0  0  0  0  0
   36.2300   28.4410   33.0460 C   0  0  0  0  0  0  0  0  0  0  0  0
   35.3670   28.8460   32.0280 C   0  0  0  0  0  0  0  0  0  0  0  0
   34.2920   29.4820   32.6400 C   0  0  0  0  0  0  0  0  0  0  0  0
   34.5270   29.4450   33.9710 N   0  0  0  0  0  0  0  0  0  0  0  0
   35.6620   28.8340   34.1980 N   0  0  0  0  0  0  0  0  0  0  0  0
   35.3220   28.7960   30.9450 H   0  0  0  0  0  0  0  0  0  0  0  0
   33.3990   29.9480   32.2440 H   0  0  0  0  0  0  0  0  0  0  0  0
   33.9450   31.2250   35.5720 C   0  0  0  0  0  0  0  0  0  0  0  0
   33.7010   29.9730   35.0010 C   0  0  0  0  0  0  0  0  0  0  0  0
   32.6400   29.1950   35.4180 C   0  0  0  0  0  0  0  0  0  0  0  0
   32.4460   28.2290   34.9800 H   0  0  0  0  0  0  0  0  0  0  0  0
   31.7940   29.6590   36.4250 C   0  0  0  0  0  0  0  0  0  0  0  0
   30.9430   29.1020   36.8000 H   0  0  0  0  0  0  0  0  0  0  0  0
   32.0440   30.8960   36.9810 C   0  0  0  0  0  3  0  0  0  0  0  0
   33.0930   31.6820   36.5800 C   0  0  0  0  0  3  0  0  0  0  0  0
   35.6160   31.8460   33.6840 H   0  0  0  0  0  0  0  0  0  0  0  0
   35.3100   32.1590   34.9950 S   0  0  0  0  0  0  0  0  0  0  0  0
   36.5160   31.9900   35.8910 O   0  0  0  0  0  0  0  0  0  0  0  0
   34.9100   33.6100   34.9990 O   0  0  0  0  0  0  0  0  0  0  0  0
  1 20  1  0  0  0  0
  1  5  1  0  0  0  0
  2 12  1  0  0  0  0
  3  2  1  0  0  0  0
  3  8  1  0  0  0  0
  4  3  2  0  0  0  0
  5  6  2  0  0  0  0
  5  4  1  0  0  0  0
  6  7  1  0  0  0  0
  7  2  2  0  0  0  0
  9  4  1  0  0  0  0
 10  6  1  0  0  0  0
 11 17  1  0  0  0  0
 11 16  1  0  0  0  0
 12 11  2  0  0  0  0
 13 12  1  0  0  0  0
 13 14  2  0  0  0  0
 14 15  1  0  0  0  0
 15 16  2  0  0  0  0
 15 19  1  0  0  0  0
 18 13  1  0  0  0  0
 20 24  2  0  0  0  0
 21 22  2  0  0  0  0
 21 20  1  0  0  0  0
 22 23  1  0  0  0  0
 23 24  1  0  0  0  0
 23 28  1  0  0  0  0
 25 21  1  0  0  0  0
 26 22  1  0  0  0  0
 27 34  1  0  0  0  0
 28 29  1  0  0  0  0
 28 27  2  0  0  0  0
 29 31  2  0  0  0  0
 30 29  1  0  0  0  0
 31 32  1  0  0  0  0
 31 33  1  0  0  0  0
 34 33  2  0  0  0  0
 35 36  1  0  0  0  0
 36 38  2  0  0  0  0
 36 27  1  0  0  0  0
 36 37  2  0  0  0  0
M  END
>  <minimizedAffinity>
-5.71801329

$$$$

 OpenBabel03272510123D

 38 41  0  0  0  0  0  0  0  0999 V2000
   37.2930   26.9470   31.5930 O   0  0  0  0  0  0  0  0  0  0  0  0
   35.5470   29.7420   34.2220 C   0  0  0  0  0  0  0  0  0  0  0  0
   35.5180   29.9240   32.8780 C   0  0  0  0  0  0  0  0  0  0  0  0
   36.0650   29.0570   31.9570 C   0  0  0  0  0  0  0  0  0  0  0  0
   36.6910   27.9200   32.3850 C   0  0  0  0  0  0  0  0  0  0  0  0
   36.7270   27.7250   33.7730 C   0  0  0  0  0  0  0  0  0  0  0  0
   36.1780   28.6010   34.6350 N   0  0  0  0  0  0  0  0  0  0  0  0
   35.0410   30.7980   32.4560 H   0  0  0  0  0  0  0  0  0  0  0  0
   36.0360   29.2110   30.8930 H   0  0  0  0  0  0  0  0  0  0  0  0
   37.1930   26.8640   34.2330 H   0  0  0  0  0  0  0  0  0  0  0  0
   33.6130   30.7190   35.4590 C   0  0  0  0  0  0  0  0  0  0  0  0
   34.9850   30.6390   35.1820 C   0  0  0  0  0  0  0  0  0  0  0  0
   35.7900   31.4880   35.8940 C   0  0  0  0  0  0  0  0  0  0  0  0
   35.2440   32.3510   36.8140 N   0  0  0  0  0  0  0  0  0  0  0  0
   33.9030   32.3750   37.0300 C   0  0  0  0  0  0  0  0  0  0  0  0
   33.0790   31.5660   36.3620 N   0  0  0  0  0  0  0  0  0  0  0  0
   32.9290   30.0710   34.9260 H   0  0  0  0  0  0  0  0  0  0  0  0
   36.8630   31.4550   35.7070 H   0  0  0  0  0  0  0  0  0  0  0  0
   33.7030   33.1210   37.7870 H   0  0  0  0  0  0  0  0  0  0  0  0
   36.8110   25.6400   31.5490 C   0  0  0  0  0  0  0  0  0  0  0  0
   35.5670   25.5400   30.9270 C   0  0  0  0  0  0  0  0  0  0  0  0
   35.2090   24.1960   30.9520 C   0  0  0  0  0  0  0  0  0  0  0  0
   36.2180   23.5400   31.5690 N   0  0  0  0  0  0  0  0  0  0  0  0
   37.1490   24.3930   31.9140 N   0  0  0  0  0  0  0  0  0  0  0  0
   34.8470   26.2040   30.4570 H   0  0  0  0  0  0  0  0  0  0  0  0
   34.3390   23.6660   30.5890 H   0  0  0  0  0  0  0  0  0  0  0  0
   37.3540   21.3650   31.3420 C   0  0  0  0  0  0  0  0  0  0  0  0
   36.2990   22.1440   31.8260 C   0  0  0  0  0  0  0  0  0  0  0  0
   35.2870   21.5820   32.5780 C   0  0  0  0  0  0  0  0  0  0  0  0
   34.4700   22.1780   32.9550 H   0  0  0  0  0  0  0  0  0  0  0  0
   35.3100   20.2170   32.8640 C   0  0  0  0  0  0  0  0  0  0  0  0
   34.5500   19.7120   33.4480 H   0  0  0  0  0  0  0  0  0  0  0  0
   36.3560   19.4590   32.3820 C   0  0  0  0  0  3  0  0  0  0  0  0
   37.3700   19.9990   31.6330 C   0  0  0  0  0  3  0  0  0  0  0  0
   38.2120   23.4020   29.9800 H   0  0  0  0  0  0  0  0  0  0  0  0
   38.6040   22.1430   30.3940 S   0  0  0  0  0  0  0  0  0  0  0  0
   39.0210   21.2880   29.2180 O   0  0  0  0  0  0  0  0  0  0  0  0
   39.8000   22.3460   31.2860 O   0  0  0  0  0  0  0  0  0  0  0  0
  1  5  1  0  0  0  0
  2  7  1  0  0  0  0
  2 12  1  0  0  0  0
  3  2  2  0  0  0  0
  4  5  2  0  0  0  0
  4  3  1  0  0  0  0
  5  6  1  0  0  0  0
  6 10  1  0  0  0  0
  6  7  2  0  0  0  0
  8  3  1  0  0  0  0
  9  4  1  0  0  0  0
 11 16  1  0  0  0  0
 12 11  2  0  0  0  0
 12 13  1  0  0  0  0
 13 14  2  0  0  0  0
 14 15  1  0  0  0  0
 15 19  1  0  0  0  0
 16 15  2  0  0  0  0
 17 11  1  0  0  0  0
 18 13  1  0  0  0  0
 20  1  1  0  0  0  0
 20 24  2  0  0  0  0
 21 22  2  0  0  0  0
 21 20  1  0  0  0  0
 22 23  1  0  0  0  0
 23 28  1  0  0  0  0
 23 24  1  0  0  0  0
 25 21  1  0  0  0  0
 26 22  1  0  0  0  0
 27 34  2  0  0  0  0
 27 28  1  0  0  0  0
 28 29  2  0  0  0  0
 29 31  1  0  0  0  0
 29 30  1  0  0  0  0
 31 32  1  0  0  0  0
 33 31  2  0  0  0  0
 34 33  1  0  0  0  0
 35 36  1  0  0  0  0
 36 38  2  0  0  0  0
 36 27  1  0  0  0  0
 37 36  2  0  0  0  0
M  END
>  <minimizedAffinity>
-5.61958504

$$$$

 OpenBabel03272510123D

 38 41  0  0  0  0  0  0  0  0999 V2000
   36.3220   28.4360   33.2120 O   0  0  0  0  0  0  0  0  0  0  0  0
   38.3580   25.5070   35.4590 C   0  0  0  0  0  0  0  0  0  0  0  0
   38.2390   26.7820   35.9060 C   0  0  0  0  0  0  0  0  0  0  0  0
   37.5890   27.7920   35.2300 C   0  0  0  0  0  0  0  0  0  0  0  0
   37.0100   27.5350   34.0190 C   0  0  0  0  0  0  0  0  0  0  0  0
   37.1300   26.2200   33.5490 C   0  0  0  0  0  0  0  0  0  0  0  0
   37.7750   25.2650   34.2460 N   0  0  0  0  0  0  0  0  0  0  0  0
   38.6680   27.0690   36.8560 H   0  0  0  0  0  0  0  0  0  0  0  0
   37.5000   28.8000   35.5940 H   0  0  0  0  0  0  0  0  0  0  0  0
   36.7140   25.8940   32.6060 H   0  0  0  0  0  0  0  0  0  0  0  0
   38.6150   23.9500   37.3920 C   0  0  0  0  0  0  0  0  0  0  0  0
   39.0340   24.4550   36.1520 C   0  0  0  0  0  0  0  0  0  0  0  0
   40.1550   23.8790   35.6190 C   0  0  0  0  0  0  0  0  0  0  0  0
   40.8030   22.8710   36.2920 N   0  0  0  0  0  0  0  0  0  0  0  0
   40.3410   22.4320   37.4910 C   0  0  0  0  0  0  0  0  0  0  0  0
   39.2510   22.9610   38.0510 N   0  0  0  0  0  0  0  0  0  0  0  0
   37.7330   24.3680   37.8610 H   0  0  0  0  0  0  0  0  0  0  0  0
   40.5110   24.2450   34.6560 H   0  0  0  0  0  0  0  0  0  0  0  0
   41.0000   21.6440   37.8310 H   0  0  0  0  0  0  0  0  0  0  0  0
   35.6350   29.5230   33.7500 C   0  0  0  0  0  0  0  0  0  0  0  0
   34.4320   29.7840   33.0940 C   0  0  0  0  0  0  0  0  0  0  0  0
   33.8570   30.8810   33.7270 C   0  0  0  0  0  0  0  0  0  0  0  0
   34.7030   31.2410   34.7190 N   0  0  0  0  0  0  0  0  0  0  0  0
   35.7390   30.4410   34.7230 N   0  0  0  0  0  0  0  0  0  0  0  0
   33.8630   29.3760   32.2650 H   0  0  0  0  0  0  0  0  0  0  0  0
   32.9360   31.4220   33.5560 H   0  0  0  0  0  0  0  0  0  0  0  0
   35.2800   33.4940   35.5350 C   0  0  0  0  0  0  0  0  0  0  0  0
   34.5370   32.3140   35.6380 C   0  0  0  0  0  0  0  0  0  0  0  0
   33.6060   32.1440   36.6420 C   0  0  0  0  0  0  0  0  0  0  0  0
   33.0300   31.2360   36.7260 H   0  0  0  0  0  0  0  0  0  0  0  0
   33.3980   33.1600   37.5740 C   0  0  0  0  0  0  0  0  0  0  0  0
   32.6840   33.0950   38.3870 H   0  0  0  0  0  0  0  0  0  0  0  0
   34.1360   34.3210   37.4630 C   0  0  0  0  0  3  0  0  0  0  0  0
   35.0650   34.5070   36.4730 C   0  0  0  0  0  3  0  0  0  0  0  0
   37.0370   32.4260   33.9510 H   0  0  0  0  0  0  0  0  0  0  0  0
   36.4440   33.6420   34.2360 S   0  0  0  0  0  0  0  0  0  0  0  0
   37.4830   34.6970   34.5390 O   0  0  0  0  0  0  0  0  0  0  0  0
   35.6980   34.0490   32.9930 O   0  0  0  0  0  0  0  0  0  0  0  0
  1 20  1  0  0  0  0
  1  5  1  0  0  0  0
  2  3  1  0  0  0  0
  2 12  1  0  0  0  0
  3  8  1  0  0  0  0
  4  9  1  0  0  0  0
  4  3  2  0  0  0  0
  5  4  1  0  0  0  0
  6  5  2  0  0  0  0
  6  7  1  0  0  0  0
  7  2  2  0  0  0  0
 10  6  1  0  0  0  0
 11 17  1  0  0  0  0
 11 16  1  0  0  0  0
 12 11  2  0  0  0  0
 13 12  1  0  0  0  0
 13 14  2  0  0  0  0
 14 15  1  0  0  0  0
 15 19  1  0  0  0  0
 15 16  2  0  0  0  0
 18 13  1  0  0  0  0
 20 24  2  0  0  0  0
 21 22  2  0  0  0  0
 21 20  1  0  0  0  0
 22 23  1  0  0  0  0
 23 24  1  0  0  0  0
 23 28  1  0  0  0  0
 25 21  1  0  0  0  0
 26 22  1  0  0  0  0
 27 28  2  0  0  0  0
 27 34  1  0  0  0  0
 28 29  1  0  0  0  0
 29 30  1  0  0  0  0
 29 31  2  0  0  0  0
 31 32  1  0  0  0  0
 33 31  1  0  0  0  0
 34 33  2  0  0  0  0
 35 36  1  0  0  0  0
 36 37  2  0  0  0  0
 36 27  1  0  0  0  0
 38 36  2  0  0  0  0
M  END
>  <minimizedAffinity>
-5.51892567

$$$$

 OpenBabel03272510123D

 38 41  0  0  0  0  0  0  0  0999 V2000
   36.5810   26.6510   32.9790 O   0  0  0  0  0  0  0  0  0  0  0  0
   37.8120   28.8720   29.6140 C   0  0  0  0  0  0  0  0  0  0  0  0
   36.7820   29.2860   30.3940 C   0  0  0  0  0  0  0  0  0  0  0  0
   36.3230   28.6160   31.5080 C   0  0  0  0  0  0  0  0  0  0  0  0
   36.9190   27.4470   31.8890 C   0  0  0  0  0  0  0  0  0  0  0  0
   37.9840   27.0110   31.0880 C   0  0  0  0  0  0  0  0  0  0  0  0
   38.3980   27.7000   30.0080 N   0  0  0  0  0  0  0  0  0  0  0  0
   36.2560   30.2010   30.1610 H   0  0  0  0  0  0  0  0  0  0  0  0
   35.5060   28.9540   32.1190 H   0  0  0  0  0  0  0  0  0  0  0  0
   38.5350   26.1030   31.2880 H   0  0  0  0  0  0  0  0  0  0  0  0
   39.3780   29.1200   27.6870 C   0  0  0  0  0  0  0  0  0  0  0  0
   38.2900   29.5590   28.4560 C   0  0  0  0  0  0  0  0  0  0  0  0
   37.6890   30.7150   28.0350 C   0  0  0  0  0  0  0  0  0  0  0  0
   38.1550   31.3730   26.9230 N   0  0  0  0  0  0  0  0  0  0  0  0
   39.2160   30.8900   26.2260 C   0  0  0  0  0  0  0  0  0  0  0  0
   39.8340   29.7670   26.5960 N   0  0  0  0  0  0  0  0  0  0  0  0
   39.8920   28.2110   27.9720 H   0  0  0  0  0  0  0  0  0  0  0  0
   36.8390   31.0880   28.6070 H   0  0  0  0  0  0  0  0  0  0  0  0
   39.4040   31.5630   25.4010 H   0  0  0  0  0  0  0  0  0  0  0  0
   37.5460   26.1750   33.8650 C   0  0  0  0  0  0  0  0  0  0  0  0
   37.9640   27.1370   34.7840 C   0  0  0  0  0  0  0  0  0  0  0  0
   38.9170   26.5330   35.5970 C   0  0  0  0  0  0  0  0  0  0  0  0
   39.0450   25.2600   35.1600 N   0  0  0  0  0  0  0  0  0  0  0  0
   38.2400   25.0610   34.1480 N   0  0  0  0  0  0  0  0  0  0  0  0
   37.7480   28.1760   35.0140 H   0  0  0  0  0  0  0  0  0  0  0  0
   39.5010   26.8980   36.4310 H   0  0  0  0  0  0  0  0  0  0  0  0
   39.4630   23.3210   36.6230 C   0  0  0  0  0  0  0  0  0  0  0  0
   39.9070   24.2580   35.6850 C   0  0  0  0  0  0  0  0  0  0  0  0
   41.2100   24.2470   35.2310 C   0  0  0  0  0  0  0  0  0  0  0  0
   41.5590   24.9670   34.5080 H   0  0  0  0  0  0  0  0  0  0  0  0
   42.1040   23.2890   35.7100 C   0  0  0  0  0  0  0  0  0  0  0  0
   43.1390   23.2210   35.3960 H   0  0  0  0  0  0  0  0  0  0  0  0
   41.6540   22.3690   36.6340 C   0  0  0  0  0  3  0  0  0  0  0  0
   40.3640   22.3650   37.0970 C   0  0  0  0  0  3  0  0  0  0  0  0
   37.2020   24.5860   36.7870 H   0  0  0  0  0  0  0  0  0  0  0  0
   37.7960   23.3940   37.1560 S   0  0  0  0  0  0  0  0  0  0  0  0
   37.6800   23.1650   38.6460 O   0  0  0  0  0  0  0  0  0  0  0  0
   37.0360   22.3070   36.4440 O   0  0  0  0  0  0  0  0  0  0  0  0
  1 20  1  0  0  0  0
  2  7  2  0  0  0  0
  2  3  1  0  0  0  0
  3  4  2  0  0  0  0
  4  5  1  0  0  0  0
  4  9  1  0  0  0  0
  5  1  1  0  0  0  0
  6 10  1  0  0  0  0
  6  5  2  0  0  0  0
  7  6  1  0  0  0  0
  8  3  1  0  0  0  0
 11 17  1  0  0  0  0
 11 12  1  0  0  0  0
 12  2  1  0  0  0  0
 13 12  2  0  0  0  0
 13 18  1  0  0  0  0
 14 13  1  0  0  0  0
 15 16  1  0  0  0  0
 15 14  2  0  0  0  0
 16 11  2  0  0  0  0
 19 15  1  0  0  0  0
 20 24  2  0  0  0  0
 20 21  1  0  0  0  0
 21 25  1  0  0  0  0
 21 22  2  0  0  0  0
 22 26  1  0  0  0  0
 23 22  1  0  0  0  0
 23 28  1  0  0  0  0
 24 23  1  0  0  0  0
 27 34  1  0  0  0  0
 27 36  1  0  0  0  0
 28 27  2  0  0  0  0
 29 28  1  0  0  0  0
 29 31  2  0  0  0  0
 30 29  1  0  0  0  0
 31 33  1  0  0  0  0
 32 31  1  0  0  0  0
 33 34  2  0  0  0  0
 35 36  1  0  0  0  0
 36 37  2  0  0  0  0
 38 36  2  0  0  0  0
M  END
>  <minimizedAffinity>
-5.42430687

$$$$
