
 OpenBabel03272510023D

 24 25  0  0  0  0  0  0  0  0999 V2000
   38.0400   31.3610   49.9070 C   0  0  0  0  0  0  0  0  0  0  0  0
   38.0840   31.3810   48.4950 C   0  0  0  0  0  0  0  0  0  0  0  0
   37.1010   30.7000   47.7950 C   0  0  0  0  0  0  0  0  0  0  0  0
   36.1690   30.0610   48.5390 N   0  0  0  0  0  0  0  0  0  0  0  0
   36.1360   30.0480   49.8720 C   0  0  0  0  0  0  0  0  0  0  0  0
   37.0750   30.7000   50.5490 N   0  0  0  0  0  0  0  0  0  0  0  0
   38.7610   31.8600   50.5080 H   0  0  0  0  0  0  0  0  0  0  0  0
   38.8710   31.9200   47.9980 H   0  0  0  0  0  0  0  0  0  0  0  0
   35.9230   30.2940   45.6770 C   0  0  0  0  0  0  0  0  0  0  0  0
   37.0630   30.6630   46.3400 C   0  0  0  0  0  0  0  0  0  0  0  0
   38.1450   30.9910   45.5660 C   0  0  0  0  0  0  0  0  0  0  0  0
   39.0900   31.2950   45.9940 H   0  0  0  0  0  0  0  0  0  0  0  0
   38.1600   30.9730   44.1870 C   0  0  0  0  0  0  0  0  0  0  0  0
   39.0190   31.2330   43.5920 H   0  0  0  0  0  0  0  0  0  0  0  0
   37.0150   30.6020   43.5140 C   0  0  0  0  0  3  0  0  0  0  0  0
   35.9210   30.2710   44.2830 C   0  0  0  0  0  3  0  0  0  0  0  0
   34.4520   30.2360   47.8190 H   0  0  0  0  0  0  0  0  0  0  0  0
   34.4570   29.8470   46.5190 S   0  0  0  0  0  0  0  0  0  0  0  0
   34.1790   28.3580   46.3530 O   0  0  0  0  0  0  0  0  0  0  0  0
   33.2710   30.5260   45.8740 O   0  0  0  0  0  0  0  0  0  0  0  0
   35.0410   29.3000   50.5290 C   0  0  0  0  0  0  0  0  0  0  0  0
   35.2830   29.0900   51.8840 F   0  0  0  0  0  0  0  0  0  0  0  0
   33.8310   30.0110   50.4740 F   0  0  0  0  0  0  0  0  0  0  0  0
   34.7780   28.0770   49.9880 F   0  0  0  0  0  0  0  0  0  0  0  0
  1  7  1  0  0  0  0
  1  6  1  0  0  0  0
  2  1  2  0  0  0  0
  3  2  1  0  0  0  0
  3  4  2  0  0  0  0
  4  5  1  0  0  0  0
  5 21  1  0  0  0  0
  5  6  2  0  0  0  0
  8  2  1  0  0  0  0
  9 10  1  0  0  0  0
  9 18  1  0  0  0  0
 10  3  1  0  0  0  0
 11 12  1  0  0  0  0
 11 10  2  0  0  0  0
 13 11  1  0  0  0  0
 14 13  1  0  0  0  0
 15 13  2  0  0  0  0
 15 16  1  0  0  0  0
 16  9  2  0  0  0  0
 18 17  1  0  0  0  0
 19 18  2  0  0  0  0
 20 18  2  0  0  0  0
 21 22  1  0  0  0  0
 23 21  1  0  0  0  0
 24 21  1  0  0  0  0
M  END
>  <minimizedAffinity>
-5.28384829

>  <minimizedRMSD>
0.864402831

$$$$
