
 OpenBabel03272504573D

 36 38  0  0  1  0  0  0  0  0999 V2000
   38.0430   30.2090   49.3460 C   0  0  1  0  0  0  0  0  0  0  0  0
   37.6000   30.1210   50.7220 C   0  0  0  0  0  0  0  0  0  0  0  0
   36.6100   30.1290   49.6290 C   0  0  2  0  0  0  0  0  0  0  0  0
   38.4410   29.3080   48.7680 H   0  0  0  0  0  0  0  0  0  0  0  0
   37.6590   31.0700   51.3090 H   0  0  0  0  0  0  0  0  0  0  0  0
   38.2050   29.3930   51.2030 H   0  0  0  0  0  0  0  0  0  0  0  0
   35.9080   30.9370   49.7390 H   0  0  0  0  0  0  0  0  0  0  0  0
   38.5560   31.5080   48.7990 C   0  0  0  0  0  0  0  0  0  0  0  0
   38.5730   32.5940   49.7070 C   0  0  0  0  0  0  0  0  0  0  0  0
   39.0550   33.7710   49.1760 C   0  0  0  0  0  0  0  0  0  0  0  0
   39.4710   33.8260   47.8710 N   0  0  0  0  0  0  0  0  0  0  0  0
   39.4340   32.7620   47.0490 C   0  0  0  0  0  0  0  0  0  0  0  0
   38.9610   31.5730   47.5330 N   0  0  0  0  0  0  0  0  0  0  0  0
   39.8710   32.8020   45.7210 N   0  0  0  0  0  0  0  0  0  0  0  0
   38.2430   32.5340   50.7310 H   0  0  0  0  0  0  0  0  0  0  0  0
   39.1060   34.6640   49.8040 H   0  0  0  0  0  0  0  0  0  0  0  0
   39.8280   33.7540   45.2600 H   0  0  0  0  0  0  0  0  0  0  0  0
   40.2090   31.9340   45.2460 H   0  0  0  0  0  0  0  0  0  0  0  0
   35.9880   28.9170   49.3360 O   0  0  0  0  0  0  0  0  0  0  0  0
   33.5380   28.1800   49.3210 O   0  0  0  0  0  0  0  0  0  0  0  0
   34.4540   29.2040   48.6630 P   0  0  1  0  0  0  0  0  0  0  0  0
   33.9020   30.6890   49.2430 O   0  0  0  0  0  0  0  0  0  0  0  0
   34.4900   31.4320   49.2620 H   0  0  0  0  0  0  0  0  0  0  0  0
   34.5500   29.0770   47.0390 O   0  0  0  0  0  0  0  0  0  0  0  0
   33.3220   30.2120   45.1780 C   0  0  0  0  0  0  0  0  0  0  0  0
   34.3690   29.7270   45.9150 C   0  0  0  0  0  0  0  0  0  0  0  0
   35.6400   29.9670   45.3560 C   0  0  0  0  0  0  0  0  0  0  0  0
   36.6300   29.7000   45.7180 H   0  0  0  0  0  0  0  0  0  0  0  0
   35.8030   30.6500   44.1400 C   0  0  0  0  0  0  0  0  0  0  0  0
   36.7210   30.8820   43.6340 H   0  0  0  0  0  0  0  0  0  0  0  0
   34.6600   31.0910   43.4910 C   0  0  0  0  0  3  0  0  0  0  0  0
   33.3910   30.8880   43.9850 C   0  0  0  0  0  3  0  0  0  0  0  0
   31.6320   30.2940   47.1570 H   0  0  0  0  0  0  0  0  0  0  0  0
   31.7780   29.9070   45.8810 S   0  0  0  0  0  0  0  0  0  0  0  0
   30.6790   30.6370   45.1030 O   0  0  0  0  0  0  0  0  0  0  0  0
   31.4760   28.4340   45.6570 O   0  0  0  0  0  0  0  0  0  0  0  0
  1  4  1  6  0  0  0
  1  3  1  0  0  0  0
  1  2  1  0  0  0  0
  2  6  1  0  0  0  0
  2  5  1  0  0  0  0
  3  7  1  6  0  0  0
  3  2  1  0  0  0  0
  8  1  1  0  0  0  0
  8  9  1  0  0  0  0
  9 15  1  0  0  0  0
 10  9  2  0  0  0  0
 10 16  1  0  0  0  0
 11 10  1  0  0  0  0
 12 13  1  0  0  0  0
 12 11  2  0  0  0  0
 13  8  2  0  0  0  0
 14 12  1  0  0  0  0
 17 14  1  0  0  0  0
 18 14  1  0  0  0  0
 19  3  1  0  0  0  0
 21 22  1  0  0  0  0
 21 20  2  1  0  0  0
 21 19  1  0  0  0  0
 22 23  1  0  0  0  0
 24 21  1  0  0  0  0
 25 34  1  0  0  0  0
 25 26  1  0  0  0  0
 26 24  1  0  0  0  0
 27 28  1  0  0  0  0
 27 26  2  0  0  0  0
 29 27  1  0  0  0  0
 30 29  1  0  0  0  0
 31 32  1  0  0  0  0
 31 29  2  0  0  0  0
 32 25  2  0  0  0  0
 34 33  1  0  0  0  0
 35 34  2  0  0  0  0
 36 34  2  0  0  0  0
M  END
>  <minimizedAffinity>
-5.2276206

>  <minimizedRMSD>
2.19338536

$$$$
