
 OpenBabel03272504563D

 36 38  0  0  1  0  0  0  0  0999 V2000
   37.0270   31.5340   48.6960 C   0  0  1  0  0  0  0  0  0  0  0  0
   36.1690   30.9800   47.6690 C   0  0  0  0  0  0  0  0  0  0  0  0
   37.1580   30.1200   48.3470 C   0  0  2  0  0  0  0  0  0  0  0  0
   36.6730   31.7040   49.7700 H   0  0  0  0  0  0  0  0  0  0  0  0
   36.4310   31.2600   46.6200 H   0  0  0  0  0  0  0  0  0  0  0  0
   35.1810   31.3150   47.8680 H   0  0  0  0  0  0  0  0  0  0  0  0
   37.8350   29.6690   47.6430 H   0  0  0  0  0  0  0  0  0  0  0  0
   38.1680   32.4340   48.3250 C   0  0  0  0  0  0  0  0  0  0  0  0
   38.5390   33.3900   49.3000 C   0  0  0  0  0  0  0  0  0  0  0  0
   39.5950   34.1960   48.9320 C   0  0  0  0  0  0  0  0  0  0  0  0
   40.1960   34.0410   47.7100 N   0  0  0  0  0  0  0  0  0  0  0  0
   39.8020   33.1140   46.8180 C   0  0  0  0  0  0  0  0  0  0  0  0
   38.7570   32.2910   47.1410 N   0  0  0  0  0  0  0  0  0  0  0  0
   40.4190   32.9340   45.5750 N   0  0  0  0  0  0  0  0  0  0  0  0
   38.0570   33.5000   50.2580 H   0  0  0  0  0  0  0  0  0  0  0  0
   39.9520   34.9650   49.6230 H   0  0  0  0  0  0  0  0  0  0  0  0
   40.9010   33.7910   45.1820 H   0  0  0  0  0  0  0  0  0  0  0  0
   40.3850   32.0060   45.0950 H   0  0  0  0  0  0  0  0  0  0  0  0
   36.6620   29.2040   49.2730 O   0  0  0  0  0  0  0  0  0  0  0  0
   34.6500   27.7440   49.8740 O   0  0  0  0  0  0  0  0  0  0  0  0
   35.0120   28.9240   48.9810 P   0  0  1  0  0  0  0  0  0  0  0  0
   34.1430   30.2180   49.6280 O   0  0  0  0  0  0  0  0  0  0  0  0
   34.4440   31.1040   49.4800 H   0  0  0  0  0  0  0  0  0  0  0  0
   34.7890   28.6560   47.3880 O   0  0  0  0  0  0  0  0  0  0  0  0
   32.5490   28.2740   46.3370 C   0  0  0  0  0  0  0  0  0  0  0  0
   33.8790   28.5790   46.4460 C   0  0  0  0  0  0  0  0  0  0  0  0
   34.5040   28.9160   45.2280 C   0  0  0  0  0  0  0  0  0  0  0  0
   35.5330   29.1960   45.0170 H   0  0  0  0  0  0  0  0  0  0  0  0
   33.8040   28.9320   44.0110 C   0  0  0  0  0  0  0  0  0  0  0  0
   34.1840   29.1730   43.0350 H   0  0  0  0  0  0  0  0  0  0  0  0
   32.4580   28.6030   44.0380 C   0  0  0  0  0  3  0  0  0  0  0  0
   31.7900   28.2660   45.1940 C   0  0  0  0  0  3  0  0  0  0  0  0
   32.1880   28.6010   48.8960 H   0  0  0  0  0  0  0  0  0  0  0  0
   31.8080   27.8660   47.8400 S   0  0  0  0  0  0  0  0  0  0  0  0
   30.2880   28.0320   47.7520 O   0  0  0  0  0  0  0  0  0  0  0  0
   32.0080   26.3740   48.0380 O   0  0  0  0  0  0  0  0  0  0  0  0
  1  4  1  1  0  0  0
  2  6  1  0  0  0  0
  2  3  1  0  0  0  0
  2  1  1  0  0  0  0
  3  7  1  6  0  0  0
  3  1  1  0  0  0  0
  3 19  1  0  0  0  0
  5  2  1  0  0  0  0
  8  1  1  0  0  0  0
  8  9  1  0  0  0  0
  9 15  1  0  0  0  0
 10  9  2  0  0  0  0
 10 16  1  0  0  0  0
 11 10  1  0  0  0  0
 12 13  1  0  0  0  0
 12 11  2  0  0  0  0
 13  8  2  0  0  0  0
 14 12  1  0  0  0  0
 17 14  1  0  0  0  0
 18 14  1  0  0  0  0
 21 19  1  0  0  0  0
 21 22  1  0  0  0  0
 21 20  2  1  0  0  0
 23 22  1  0  0  0  0
 24 21  1  0  0  0  0
 25 26  1  0  0  0  0
 25 34  1  0  0  0  0
 26 24  1  0  0  0  0
 27 26  2  0  0  0  0
 28 27  1  0  0  0  0
 29 31  2  0  0  0  0
 29 27  1  0  0  0  0
 30 29  1  0  0  0  0
 31 32  1  0  0  0  0
 32 25  2  0  0  0  0
 34 36  2  0  0  0  0
 34 33  1  0  0  0  0
 35 34  2  0  0  0  0
M  END
>  <minimizedAffinity>
-4.552701

>  <minimizedRMSD>
0.32290563

$$$$
