
 OpenBabel03262523293D

 34 37  0  0  0  0  0  0  0  0999 V2000
   36.4720   29.2020   50.1180 C   0  0  0  0  0  0  0  0  0  0  0  0
   37.2380   29.9540   49.2200 C   0  0  0  0  0  0  0  0  0  0  0  0
   36.7280   30.2390   47.9680 C   0  0  0  0  0  0  0  0  0  0  0  0
   35.4840   29.7660   47.6630 N   0  0  0  0  0  0  0  0  0  0  0  0
   34.7570   29.0380   48.5450 C   0  0  0  0  0  0  0  0  0  0  0  0
   35.2470   28.7640   49.7500 N   0  0  0  0  0  0  0  0  0  0  0  0
   36.8290   28.9590   51.0980 H   0  0  0  0  0  0  0  0  0  0  0  0
   38.2130   30.3140   49.4850 H   0  0  0  0  0  0  0  0  0  0  0  0
   37.0830   30.7930   45.6470 C   0  0  0  0  0  0  0  0  0  0  0  0
   37.4340   31.0070   46.9620 C   0  0  0  0  0  0  0  0  0  0  0  0
   38.4230   31.9250   47.2800 C   0  0  0  0  0  0  0  0  0  0  0  0
   39.0250   32.5990   46.2210 C   0  0  0  0  0  0  0  0  0  0  0  0
   40.0170   33.5420   46.3010 N   0  0  0  0  0  0  0  0  0  0  0  0
   40.2800   33.9100   45.0430 C   0  0  0  0  0  0  0  0  0  0  0  0
   39.5010   33.2440   44.1860 N   0  0  0  0  0  0  0  0  0  0  0  0
   38.7010   32.4130   44.8890 C   0  0  0  0  0  0  0  0  0  0  0  0
   37.7090   31.4900   44.6100 C   0  0  0  0  0  0  0  0  0  0  0  0
   36.3260   30.1030   45.2720 H   0  0  0  0  0  0  0  0  0  0  0  0
   38.7010   32.0970   48.2900 H   0  0  0  0  0  0  0  0  0  0  0  0
   40.4640   33.8860   47.1960 H   0  0  0  0  0  0  0  0  0  0  0  0
   41.0540   34.6680   44.8590 H   0  0  0  0  0  0  0  0  0  0  0  0
   37.4720   31.3570   43.5740 H   0  0  0  0  0  0  0  0  0  0  0  0
   33.0250   28.6350   46.8310 C   0  0  0  0  0  0  0  0  0  0  0  0
   33.4530   28.5780   48.1410 C   0  0  0  0  0  0  0  0  0  0  0  0
   32.5690   28.0520   49.0780 C   0  0  0  0  0  0  0  0  0  0  0  0
   32.8150   27.9660   50.1330 H   0  0  0  0  0  0  0  0  0  0  0  0
   31.3010   27.5960   48.7330 C   0  0  0  0  0  0  0  0  0  0  0  0
   30.6070   27.1850   49.4520 H   0  0  0  0  0  0  0  0  0  0  0  0
   30.8720   27.6520   47.4240 C   0  0  0  0  0  0  0  0  0  0  0  0
   31.7710   28.1790   46.5190 C   0  0  0  0  0  0  0  0  0  0  0  0
   35.2730   29.7370   46.0990 H   0  0  0  0  0  0  0  0  0  0  0  0
   34.0770   29.2840   45.5930 S   0  0  0  0  0  0  0  0  0  0  0  0
   34.4650   28.1560   44.6520 O   0  0  0  0  0  0  0  0  0  0  0  0
   33.3890   30.2990   44.7270 O   0  0  0  0  0  0  0  0  0  0  0  0
  1  7  1  0  0  0  0
  2  8  1  0  0  0  0
  2  1  2  0  0  0  0
  3  2  1  0  0  0  0
  4  3  2  0  0  0  0
  4  5  1  0  0  0  0
  5  6  2  0  0  0  0
  6  1  1  0  0  0  0
  9 10  1  0  0  0  0
 10 11  2  0  0  0  0
 10  3  1  0  0  0  0
 11 19  1  0  0  0  0
 12 13  1  0  0  0  0
 12 11  1  0  0  0  0
 13 20  1  0  0  0  0
 14 13  1  0  0  0  0
 15 16  1  0  0  0  0
 15 14  2  0  0  0  0
 16 12  2  0  0  0  0
 17 16  1  0  0  0  0
 17  9  2  0  0  0  0
 18  9  1  0  0  0  0
 21 14  1  0  0  0  0
 22 17  1  0  0  0  0
 23 24  1  0  0  0  0
 24  5  1  0  0  0  0
 24 25  2  0  0  0  0
 25 26  1  0  0  0  0
 27 25  1  0  0  0  0
 27 28  1  0  0  0  0
 29 27  2  0  0  0  0
 30 23  2  0  0  0  0
 30 29  1  0  0  0  0
 32 31  1  0  0  0  0
 32 23  1  0  0  0  0
 33 32  2  0  0  0  0
 34 32  2  0  0  0  0
M  END
>  <minimizedAffinity>
-6.17889023

>  <minimizedRMSD>
2.09844947

$$$$
