
 OpenBabel03272500513D

 48 53  0  0  1  0  0  0  0  0999 V2000
   30.1040   28.7360   46.5460 C   0  0  0  0  0  0  0  0  0  0  0  0
   30.6170   27.6440   45.8670 C   0  0  0  0  0  0  0  0  0  0  0  0
   31.9270   27.5230   46.2120 N   0  0  0  0  0  0  0  0  0  0  0  0
   32.2410   28.5090   47.0840 C   0  0  0  0  0  0  0  0  0  0  0  0
   31.1270   29.2430   47.2830 N   0  0  0  0  0  0  0  0  0  0  0  0
   30.0930   26.9730   45.1710 H   0  0  0  0  0  0  0  0  0  0  0  0
   32.5650   26.7830   45.8490 H   0  0  0  0  0  0  0  0  0  0  0  0
   27.9040   29.4330   47.6570 C   0  0  1  0  0  0  0  0  0  0  0  0
   27.5650   28.2680   46.6520 C   0  0  0  0  0  0  0  0  0  0  0  0
   28.6910   29.2350   46.4410 C   0  0  2  0  0  0  0  0  0  0  0  0
   28.3160   29.0690   48.6320 H   0  0  0  0  0  0  0  0  0  0  0  0
   26.6260   28.4050   46.0930 H   0  0  0  0  0  0  0  0  0  0  0  0
   27.8650   27.2590   46.9830 H   0  0  0  0  0  0  0  0  0  0  0  0
   28.5320   29.9160   45.5810 H   0  0  0  0  0  0  0  0  0  0  0  0
   25.9180   32.4100   47.2720 C   0  0  0  0  0  0  0  0  0  0  0  0
   25.2840   31.8190   48.3570 C   0  0  0  0  0  0  0  0  0  0  0  0
   25.9530   30.6100   48.6470 C   0  0  0  0  0  0  0  0  0  0  0  0
   26.9460   30.5130   47.7510 N   0  0  0  0  0  0  0  0  0  0  0  0
   26.8910   31.5690   46.9770 N   0  0  0  0  0  0  0  0  0  0  0  0
   24.4340   32.1120   48.9590 H   0  0  0  0  0  0  0  0  0  0  0  0
   25.7130   29.9090   49.4330 H   0  0  0  0  0  0  0  0  0  0  0  0
   25.4090   34.8610   47.4660 C   0  0  0  0  0  0  0  0  0  0  0  0
   25.5100   33.6580   46.6950 C   0  0  0  0  0  0  0  0  0  0  0  0
   25.1960   33.7550   45.3730 C   0  0  0  0  0  0  0  0  0  0  0  0
   24.8120   34.9570   44.8610 N   0  0  0  0  0  0  0  0  0  0  0  0
   24.7310   36.0670   45.6220 C   0  0  0  0  0  0  0  0  0  0  0  0
   25.0310   36.0210   46.9400 N   0  0  0  0  0  0  0  0  0  0  0  0
   25.6630   34.7680   48.5160 H   0  0  0  0  0  0  0  0  0  0  0  0
   25.2580   32.8660   44.7500 H   0  0  0  0  0  0  0  0  0  0  0  0
   24.4090   36.9340   45.0510 H   0  0  0  0  0  0  0  0  0  0  0  0
   33.5720   28.7580   47.7130 C   0  0  0  0  0  0  0  0  0  0  0  0
   33.9320   28.1410   48.9270 C   0  0  0  0  0  0  0  0  0  0  0  0
   35.6160   28.8020   49.2140 S   0  0  0  0  0  0  0  0  0  0  0  0
   35.5420   29.8130   47.6210 C   0  0  0  0  0  0  0  0  0  0  0  0
   34.5140   29.5360   47.2530 N   0  0  0  0  0  0  0  0  0  0  0  0
   33.3640   27.4510   49.5390 H   0  0  0  0  0  0  0  0  0  0  0  0
   37.4100   31.3840   48.1300 C   0  0  0  0  0  0  0  0  0  0  0  0
   36.6770   30.6510   47.2200 C   0  0  0  0  0  0  0  0  0  0  0  0
   37.0520   30.7290   45.8790 C   0  0  0  0  0  0  0  0  0  0  0  0
   36.5040   30.1680   45.1330 H   0  0  0  0  0  0  0  0  0  0  0  0
   38.1040   31.4890   45.4130 C   0  0  0  0  0  0  0  0  0  0  0  0
   38.3610   31.5210   44.3710 H   0  0  0  0  0  0  0  0  0  0  0  0
   38.8090   32.2040   46.3510 C   0  0  0  0  0  0  0  0  0  0  0  0
   38.4650   32.1510   47.6850 C   0  0  0  0  0  0  0  0  0  0  0  0
   35.8170   30.3670   49.8920 H   0  0  0  0  0  0  0  0  0  0  0  0
   36.8670   31.2260   49.7830 S   0  0  0  0  0  0  0  0  0  0  0  0
   37.9990   30.8550   50.6980 O   0  0  0  0  0  0  0  0  0  0  0  0
   36.3790   32.5800   50.2740 O   0  0  0  0  0  0  0  0  0  0  0  0
  1  5  1  0  0  0  0
  2  3  1  0  0  0  0
  2  1  2  0  0  0  0
  3  4  1  0  0  0  0
  4  5  2  0  0  0  0
  4 31  1  0  0  0  0
  6  2  1  0  0  0  0
  7  3  1  0  0  0  0
  8 18  1  0  0  0  0
  8 11  1  1  0  0  0
  9 13  1  0  0  0  0
  9  8  1  0  0  0  0
 10 14  1  6  0  0  0
 10  1  1  0  0  0  0
 10  9  1  0  0  0  0
 10  8  1  0  0  0  0
 12  9  1  0  0  0  0
 15 16  1  0  0  0  0
 16 17  2  0  0  0  0
 16 20  1  0  0  0  0
 17 21  1  0  0  0  0
 18 17  1  0  0  0  0
 19 15  2  0  0  0  0
 19 18  1  0  0  0  0
 22 28  1  0  0  0  0
 23 15  1  0  0  0  0
 23 22  2  0  0  0  0
 24 23  1  0  0  0  0
 25 24  2  0  0  0  0
 25 26  1  0  0  0  0
 26 27  2  0  0  0  0
 27 22  1  0  0  0  0
 29 24  1  0  0  0  0
 30 26  1  0  0  0  0
 31 32  2  0  0  0  0
 32 33  1  0  0  0  0
 32 36  1  0  0  0  0
 34 33  1  0  0  0  0
 35 34  2  0  0  0  0
 35 31  1  0  0  0  0
 37 46  1  0  0  0  0
 38 34  1  0  0  0  0
 38 37  2  0  0  0  0
 39 38  1  0  0  0  0
 40 39  1  0  0  0  0
 41 39  2  0  0  0  0
 41 43  1  0  0  0  0
 42 41  1  0  0  0  0
 43 44  2  0  0  0  0
 44 37  1  0  0  0  0
 46 45  1  0  0  0  0
 46 48  2  0  0  0  0
 46 47  2  0  0  0  0
M  END
>  <minimizedAffinity>
-7.48648882

>  <minimizedRMSD>
4.97862864

$$$$
