
 OpenBabel03272507583D

 35 37  0  0  0  0  0  0  0  0999 V2000
   37.0140   30.9150   47.8190 C   0  0  0  0  0  0  0  0  0  0  0  0
   37.4310   31.9590   48.6250 C   0  0  0  0  0  0  0  0  0  0  0  0
   38.4320   32.8070   48.1810 C   0  0  0  0  0  0  0  0  0  0  0  0
   39.0030   32.5960   46.9320 C   0  0  0  0  0  0  0  0  0  0  0  0
   38.5720   31.5530   46.1510 C   0  0  0  0  0  0  0  0  0  0  0  0
   37.6060   30.7710   46.6330 N   0  0  0  0  0  0  0  0  0  0  0  0
   37.0460   32.2100   49.6160 H   0  0  0  0  0  0  0  0  0  0  0  0
   38.7880   33.6450   48.7930 H   0  0  0  0  0  0  0  0  0  0  0  0
   39.7670   33.2690   46.6330 H   0  0  0  0  0  0  0  0  0  0  0  0
   35.1330   28.7440   50.2320 C   0  0  0  0  0  0  0  0  0  0  0  0
   36.1860   29.5170   49.6630 C   0  0  0  0  0  0  0  0  0  0  0  0
   35.9610   30.1190   48.4310 C   0  0  0  0  0  0  0  0  0  0  0  0
   34.7480   29.9410   47.8290 N   0  0  0  0  0  0  0  0  0  0  0  0
   33.7710   29.1910   48.4160 C   0  0  0  0  0  0  0  0  0  0  0  0
   33.9550   28.6020   49.5950 N   0  0  0  0  0  0  0  0  0  0  0  0
   32.6090   29.1560   47.6050 N   0  0  0  0  0  0  0  0  0  0  0  0
   35.2980   28.2690   51.1950 H   0  0  0  0  0  0  0  0  0  0  0  0
   32.2130   28.3090   47.1750 H   0  0  0  0  0  0  0  0  0  0  0  0
   32.0930   30.0480   47.4110 H   0  0  0  0  0  0  0  0  0  0  0  0
   37.4660   29.6370   50.4170 C   0  0  0  0  0  0  0  0  0  0  0  0
   38.5440   29.7540   49.5650 F   0  0  0  0  0  0  0  0  0  0  0  0
   37.4000   30.7820   51.1810 F   0  0  0  0  0  0  0  0  0  0  0  0
   37.7060   28.5810   51.2590 F   0  0  0  0  0  0  0  0  0  0  0  0
   38.4180   31.5800   43.6940 C   0  0  0  0  0  0  0  0  0  0  0  0
   39.1360   31.2860   44.8340 C   0  0  0  0  0  0  0  0  0  0  0  0
   40.3920   30.7380   44.6750 C   0  0  0  0  0  0  0  0  0  0  0  0
   41.0160   30.4820   45.5040 H   0  0  0  0  0  0  0  0  0  0  0  0
   40.9530   30.4760   43.4480 C   0  0  0  0  0  0  0  0  0  0  0  0
   41.9430   30.0440   43.3220 H   0  0  0  0  0  0  0  0  0  0  0  0
   40.2640   30.7570   42.2980 C   0  0  0  0  0  3  0  0  0  0  0  0
   39.0080   31.3040   42.4540 C   0  0  0  0  0  3  0  0  0  0  0  0
   36.6050   32.9530   44.9080 H   0  0  0  0  0  0  0  0  0  0  0  0
   36.8210   32.2730   43.7380 S   0  0  0  0  0  0  0  0  0  0  0  0
   35.7960   31.1470   43.7450 O   0  0  0  0  0  0  0  0  0  0  0  0
   36.5060   33.1050   42.5280 O   0  0  0  0  0  0  0  0  0  0  0  0
  1 12  1  0  0  0  0
  1  2  1  0  0  0  0
  2  7  1  0  0  0  0
  3  2  2  0  0  0  0
  3  8  1  0  0  0  0
  4  3  1  0  0  0  0
  5  6  1  0  0  0  0
  5  4  2  0  0  0  0
  6  1  2  0  0  0  0
  9  4  1  0  0  0  0
 10 17  1  0  0  0  0
 11 10  1  0  0  0  0
 11 20  1  0  0  0  0
 12 11  2  0  0  0  0
 13 14  2  0  0  0  0
 13 12  1  0  0  0  0
 14 15  1  0  0  0  0
 15 10  2  0  0  0  0
 16 14  1  0  0  0  0
 18 16  1  0  0  0  0
 19 16  1  0  0  0  0
 20 22  1  0  0  0  0
 20 23  1  0  0  0  0
 21 20  1  0  0  0  0
 24 33  1  0  0  0  0
 24 25  1  0  0  0  0
 25  5  1  0  0  0  0
 26 25  2  0  0  0  0
 26 27  1  0  0  0  0
 28 26  1  0  0  0  0
 29 28  1  0  0  0  0
 30 31  1  0  0  0  0
 30 28  2  0  0  0  0
 31 24  2  0  0  0  0
 33 34  2  0  0  0  0
 33 32  1  0  0  0  0
 35 33  2  0  0  0  0
M  END
>  <minimizedAffinity>
-6.48945856

>  <minimizedRMSD>
1.71385109

$$$$
