
 OpenBabel03272509533D

 46 49  0  0  0  0  0  0  0  0999 V2000
   34.4440   28.6140   48.1560 C   0  0  0  0  0  0  0  0  0  0  0  0
   33.9820   29.6170   48.0990 H   0  0  0  0  0  0  0  0  0  0  0  0
   35.3190   28.6040   47.4580 H   0  0  0  0  0  0  0  0  0  0  0  0
   33.5400   27.5120   47.7160 C   0  0  0  0  0  0  0  0  0  0  0  0
   33.6850   26.6420   48.3750 H   0  0  0  0  0  0  0  0  0  0  0  0
   33.7660   27.1600   46.6740 H   0  0  0  0  0  0  0  0  0  0  0  0
   32.1020   27.9020   47.7200 C   0  0  0  0  0  0  0  0  0  0  0  0
   31.3330   27.5810   48.8200 C   0  0  0  0  0  0  0  0  0  0  0  0
   30.0120   27.8990   48.9030 C   0  0  0  0  0  0  0  0  0  0  0  0
   29.4460   28.5370   47.9000 N   0  0  0  0  0  0  0  0  0  0  0  0
   30.1760   28.8650   46.8070 C   0  0  0  0  0  0  0  0  0  0  0  0
   31.4880   28.5520   46.7170 N   0  0  0  0  0  0  0  0  0  0  0  0
   31.8040   27.0570   49.6420 H   0  0  0  0  0  0  0  0  0  0  0  0
   29.4310   27.6330   49.7850 H   0  0  0  0  0  0  0  0  0  0  0  0
   28.4000   29.1160   45.0970 C   0  0  0  0  0  0  0  0  0  0  0  0
   29.5770   29.5760   45.6680 C   0  0  0  0  0  0  0  0  0  0  0  0
   30.1760   30.7260   45.1370 C   0  0  0  0  0  0  0  0  0  0  0  0
   31.0990   31.0780   45.5930 H   0  0  0  0  0  0  0  0  0  0  0  0
   29.6440   31.4170   44.0710 C   0  0  0  0  0  0  0  0  0  0  0  0
   30.1550   32.3020   43.7040 H   0  0  0  0  0  0  0  0  0  0  0  0
   28.4890   30.9930   43.4860 C   0  0  0  0  0  3  0  0  0  0  0  0
   27.9120   29.8620   44.0190 C   0  0  0  0  0  3  0  0  0  0  0  0
   28.3550   26.8570   46.3890 H   0  0  0  0  0  0  0  0  0  0  0  0
   27.5780   27.7090   45.6730 S   0  0  0  0  0  0  0  0  0  0  0  0
   26.3420   28.1580   46.4310 O   0  0  0  0  0  0  0  0  0  0  0  0
   27.0730   26.9370   44.4650 O   0  0  0  0  0  0  0  0  0  0  0  0
   34.9880   28.3270   49.4330 O   0  0  0  0  0  0  0  0  0  0  0  0
   37.3110   30.1690   51.5090 C   0  0  0  0  0  0  0  0  0  0  0  0
   38.0390   30.8520   50.5010 C   0  0  0  0  0  0  0  0  0  0  0  0
   37.6900   30.6400   49.1880 C   0  0  0  0  0  0  0  0  0  0  0  0
   36.6490   29.7700   48.9680 N   0  0  0  0  0  0  0  0  0  0  0  0
   35.9750   29.1350   49.9180 C   0  0  0  0  0  0  0  0  0  0  0  0
   36.3150   29.3410   51.2090 N   0  0  0  0  0  0  0  0  0  0  0  0
   37.6290   30.3740   52.5240 H   0  0  0  0  0  0  0  0  0  0  0  0
   38.8430   31.5250   50.6730 H   0  0  0  0  0  0  0  0  0  0  0  0
   38.9440   33.2350   48.9960 F   0  0  0  0  0  0  0  0  0  0  0  0
   38.9120   32.4530   47.9240 C   0  0  0  0  0  0  0  0  0  0  0  0
   38.3200   31.2490   48.0460 C   0  0  0  0  0  0  0  0  0  0  0  0
   38.3410   30.5030   46.8560 C   0  0  0  0  0  0  0  0  0  0  0  0
   38.9100   30.9620   45.6910 C   0  0  0  0  0  0  0  0  0  0  0  0
   39.4920   32.1890   45.6330 C   0  0  0  0  0  0  0  0  0  0  0  0
   39.4930   32.9510   46.7750 C   0  0  0  0  0  0  0  0  0  0  0  0
   37.9020   29.5070   46.7930 H   0  0  0  0  0  0  0  0  0  0  0  0
   38.9100   30.3640   44.7870 H   0  0  0  0  0  0  0  0  0  0  0  0
   39.9420   32.5680   44.7340 H   0  0  0  0  0  0  0  0  0  0  0  0
   39.9490   33.9310   46.7610 H   0  0  0  0  0  0  0  0  0  0  0  0
  1 27  1  0  0  0  0
  2  1  1  0  0  0  0
  3  1  1  0  0  0  0
  4  7  1  0  0  0  0
  4  1  1  0  0  0  0
  4  5  1  0  0  0  0
  6  4  1  0  0  0  0
  7  8  1  0  0  0  0
  8  9  2  0  0  0  0
  8 13  1  0  0  0  0
  9 14  1  0  0  0  0
 10  9  1  0  0  0  0
 11 10  2  0  0  0  0
 12 11  1  0  0  0  0
 12  7  2  0  0  0  0
 15 16  1  0  0  0  0
 15 24  1  0  0  0  0
 16 11  1  0  0  0  0
 17 18  1  0  0  0  0
 17 16  2  0  0  0  0
 19 17  1  0  0  0  0
 20 19  1  0  0  0  0
 21 22  1  0  0  0  0
 21 19  2  0  0  0  0
 22 15  2  0  0  0  0
 24 23  1  0  0  0  0
 24 25  2  0  0  0  0
 26 24  2  0  0  0  0
 27 32  1  0  0  0  0
 28 34  1  0  0  0  0
 29 35  1  0  0  0  0
 29 28  2  0  0  0  0
 30 29  1  0  0  0  0
 31 30  2  0  0  0  0
 31 32  1  0  0  0  0
 32 33  2  0  0  0  0
 33 28  1  0  0  0  0
 37 38  1  0  0  0  0
 37 36  1  0  0  0  0
 38 30  1  0  0  0  0
 39 38  2  0  0  0  0
 40 39  1  0  0  0  0
 41 40  2  0  0  0  0
 41 42  1  0  0  0  0
 42 37  2  0  0  0  0
 43 39  1  0  0  0  0
 44 40  1  0  0  0  0
 45 41  1  0  0  0  0
 46 42  1  0  0  0  0
M  END
>  <minimizedAffinity>
-6.7135067

>  <minimizedRMSD>
0.514068365

$$$$
