
 OpenBabel03272504563D

 36 38  0  0  1  0  0  0  0  0999 V2000
   36.9280   31.4670   48.7840 C   0  0  1  0  0  0  0  0  0  0  0  0
   36.0170   30.9800   47.7690 C   0  0  0  0  0  0  0  0  0  0  0  0
   37.0160   30.0690   48.3600 C   0  0  2  0  0  0  0  0  0  0  0  0
   36.6240   31.5900   49.8780 H   0  0  0  0  0  0  0  0  0  0  0  0
   36.2390   31.3060   46.7240 H   0  0  0  0  0  0  0  0  0  0  0  0
   35.0450   31.3220   48.0260 H   0  0  0  0  0  0  0  0  0  0  0  0
   37.6530   29.6420   47.6060 H   0  0  0  0  0  0  0  0  0  0  0  0
   38.0700   32.3640   48.4070 C   0  0  0  0  0  0  0  0  0  0  0  0
   38.4360   33.3310   49.3730 C   0  0  0  0  0  0  0  0  0  0  0  0
   39.4920   34.1340   49.0000 C   0  0  0  0  0  0  0  0  0  0  0  0
   40.0990   33.9650   47.7830 N   0  0  0  0  0  0  0  0  0  0  0  0
   39.7110   33.0280   46.9000 C   0  0  0  0  0  0  0  0  0  0  0  0
   38.6650   32.2080   47.2280 N   0  0  0  0  0  0  0  0  0  0  0  0
   40.3330   32.8340   45.6620 N   0  0  0  0  0  0  0  0  0  0  0  0
   37.9490   33.4520   50.3270 H   0  0  0  0  0  0  0  0  0  0  0  0
   39.8460   34.9110   49.6840 H   0  0  0  0  0  0  0  0  0  0  0  0
   40.8160   33.6870   45.2610 H   0  0  0  0  0  0  0  0  0  0  0  0
   40.3030   31.9010   45.1930 H   0  0  0  0  0  0  0  0  0  0  0  0
   36.5420   29.1180   49.2620 O   0  0  0  0  0  0  0  0  0  0  0  0
   34.6080   27.4790   49.6050 O   0  0  0  0  0  0  0  0  0  0  0  0
   34.8850   28.8490   48.9980 P   0  0  1  0  0  0  0  0  0  0  0  0
   34.0230   29.9200   49.9760 O   0  0  0  0  0  0  0  0  0  0  0  0
   34.2900   30.8280   50.0260 H   0  0  0  0  0  0  0  0  0  0  0  0
   34.5740   28.9520   47.4000 O   0  0  0  0  0  0  0  0  0  0  0  0
   32.5620   27.9600   46.2910 C   0  0  0  0  0  0  0  0  0  0  0  0
   33.8210   28.4780   46.4370 C   0  0  0  0  0  0  0  0  0  0  0  0
   34.5680   28.5460   45.2440 C   0  0  0  0  0  0  0  0  0  0  0  0
   35.5780   28.9060   45.0650 H   0  0  0  0  0  0  0  0  0  0  0  0
   34.0490   28.1120   44.0120 C   0  0  0  0  0  0  0  0  0  0  0  0
   34.5340   28.1210   43.0550 H   0  0  0  0  0  0  0  0  0  0  0  0
   32.7580   27.6070   44.0020 C   0  0  0  0  0  3  0  0  0  0  0  0
   31.9780   27.5150   45.1310 C   0  0  0  0  0  3  0  0  0  0  0  0
   32.0380   28.7590   48.7140 H   0  0  0  0  0  0  0  0  0  0  0  0
   31.6680   27.8870   47.7630 S   0  0  0  0  0  0  0  0  0  0  0  0
   30.1850   28.1690   47.5050 O   0  0  0  0  0  0  0  0  0  0  0  0
   31.6950   26.4400   48.2240 O   0  0  0  0  0  0  0  0  0  0  0  0
  1  4  1  1  0  0  0
  2  6  1  0  0  0  0
  2  3  1  0  0  0  0
  2  1  1  0  0  0  0
  3  7  1  6  0  0  0
  3  1  1  0  0  0  0
  3 19  1  0  0  0  0
  5  2  1  0  0  0  0
  8  1  1  0  0  0  0
  8  9  1  0  0  0  0
  9 15  1  0  0  0  0
 10  9  2  0  0  0  0
 10 16  1  0  0  0  0
 11 10  1  0  0  0  0
 12 13  1  0  0  0  0
 12 11  2  0  0  0  0
 13  8  2  0  0  0  0
 14 12  1  0  0  0  0
 17 14  1  0  0  0  0
 18 14  1  0  0  0  0
 21 19  1  0  0  0  0
 21 20  2  1  0  0  0
 21 22  1  0  0  0  0
 22 23  1  0  0  0  0
 24 21  1  0  0  0  0
 25 26  1  0  0  0  0
 25 34  1  0  0  0  0
 26 24  1  0  0  0  0
 27 26  2  0  0  0  0
 28 27  1  0  0  0  0
 29 27  1  0  0  0  0
 30 29  1  0  0  0  0
 31 29  2  0  0  0  0
 31 32  1  0  0  0  0
 32 25  2  0  0  0  0
 34 36  2  0  0  0  0
 34 33  1  0  0  0  0
 35 34  2  0  0  0  0
M  END
>  <minimizedAffinity>
-4.47576237

>  <minimizedRMSD>
0.750051677

$$$$
