
 OpenBabel03272504573D

 36 38  0  0  1  0  0  0  0  0999 V2000
   37.0140   31.5230   48.6580 C   0  0  1  0  0  0  0  0  0  0  0  0
   36.2080   30.9390   47.6070 C   0  0  0  0  0  0  0  0  0  0  0  0
   37.1760   30.1040   48.3430 C   0  0  2  0  0  0  0  0  0  0  0  0
   36.6130   31.7090   49.7110 H   0  0  0  0  0  0  0  0  0  0  0  0
   36.5110   31.2010   46.5640 H   0  0  0  0  0  0  0  0  0  0  0  0
   35.2080   31.2640   47.7560 H   0  0  0  0  0  0  0  0  0  0  0  0
   37.8880   29.6480   47.6770 H   0  0  0  0  0  0  0  0  0  0  0  0
   38.1590   32.4300   48.3170 C   0  0  0  0  0  0  0  0  0  0  0  0
   38.5150   33.3710   49.3130 C   0  0  0  0  0  0  0  0  0  0  0  0
   39.5740   34.1840   48.9720 C   0  0  0  0  0  0  0  0  0  0  0  0
   40.1940   34.0480   47.7580 N   0  0  0  0  0  0  0  0  0  0  0  0
   39.8150   33.1350   46.8460 C   0  0  0  0  0  0  0  0  0  0  0  0
   38.7660   32.3060   47.1400 N   0  0  0  0  0  0  0  0  0  0  0  0
   40.4490   32.9750   45.6090 N   0  0  0  0  0  0  0  0  0  0  0  0
   38.0180   33.4650   50.2650 H   0  0  0  0  0  0  0  0  0  0  0  0
   39.9210   34.9420   49.6810 H   0  0  0  0  0  0  0  0  0  0  0  0
   40.9360   33.8390   45.2360 H   0  0  0  0  0  0  0  0  0  0  0  0
   40.4240   32.0550   45.1140 H   0  0  0  0  0  0  0  0  0  0  0  0
   36.6530   29.2010   49.2660 O   0  0  0  0  0  0  0  0  0  0  0  0
   34.5660   27.8530   49.8760 O   0  0  0  0  0  0  0  0  0  0  0  0
   34.9720   29.0690   49.0540 P   0  0  1  0  0  0  0  0  0  0  0  0
   34.2450   30.3690   49.8460 O   0  0  0  0  0  0  0  0  0  0  0  0
   34.6070   31.2400   49.7470 H   0  0  0  0  0  0  0  0  0  0  0  0
   34.6420   28.9460   47.4610 O   0  0  0  0  0  0  0  0  0  0  0  0
   33.0740   27.7920   45.8870 C   0  0  0  0  0  0  0  0  0  0  0  0
   33.6710   28.8040   46.5900 C   0  0  0  0  0  0  0  0  0  0  0  0
   33.1290   30.0830   46.3510 C   0  0  0  0  0  0  0  0  0  0  0  0
   33.4000   31.0510   46.7630 H   0  0  0  0  0  0  0  0  0  0  0  0
   32.0620   30.2850   45.4590 C   0  0  0  0  0  0  0  0  0  0  0  0
   31.5820   31.2120   45.2100 H   0  0  0  0  0  0  0  0  0  0  0  0
   31.5470   29.1750   44.8100 C   0  0  0  0  0  3  0  0  0  0  0  0
   32.0320   27.9010   45.0000 C   0  0  0  0  0  3  0  0  0  0  0  0
   34.5290   26.1480   47.2880 H   0  0  0  0  0  0  0  0  0  0  0  0
   33.7540   26.2380   46.1960 S   0  0  0  0  0  0  0  0  0  0  0  0
   32.6490   25.1970   46.3930 O   0  0  0  0  0  0  0  0  0  0  0  0
   34.4530   25.8020   44.9190 O   0  0  0  0  0  0  0  0  0  0  0  0
  1  4  1  1  0  0  0
  2  6  1  0  0  0  0
  2  3  1  0  0  0  0
  2  1  1  0  0  0  0
  3  7  1  6  0  0  0
  3  1  1  0  0  0  0
  3 19  1  0  0  0  0
  5  2  1  0  0  0  0
  8  1  1  0  0  0  0
  8  9  1  0  0  0  0
  9 15  1  0  0  0  0
 10  9  2  0  0  0  0
 10 16  1  0  0  0  0
 11 10  1  0  0  0  0
 12 13  1  0  0  0  0
 12 11  2  0  0  0  0
 13  8  2  0  0  0  0
 14 12  1  0  0  0  0
 17 14  1  0  0  0  0
 18 14  1  0  0  0  0
 21 19  1  0  0  0  0
 21 22  1  0  0  0  0
 21 20  2  1  0  0  0
 23 22  1  0  0  0  0
 24 21  1  0  0  0  0
 25 34  1  0  0  0  0
 25 26  1  0  0  0  0
 26 24  1  0  0  0  0
 27 26  2  0  0  0  0
 27 28  1  0  0  0  0
 29 27  1  0  0  0  0
 30 29  1  0  0  0  0
 31 32  1  0  0  0  0
 31 29  2  0  0  0  0
 32 25  2  0  0  0  0
 34 35  2  0  0  0  0
 34 33  1  0  0  0  0
 36 34  2  0  0  0  0
M  END
>  <minimizedAffinity>
-4.64822149

>  <minimizedRMSD>
0.931771338

$$$$
