
 OpenBabel03262520133D

 45 47  0  0  0  0  0  0  0  0999 V2000
   33.6170   29.0720   48.7570 C   0  0  0  0  0  0  0  0  0  0  0  0
   33.3490   29.2230   49.8590 H   0  0  0  0  0  0  0  0  0  0  0  0
   32.9650   29.7510   48.2450 H   0  0  0  0  0  0  0  0  0  0  0  0
   35.0460   29.4720   48.6920 C   0  0  0  0  0  0  0  0  0  0  0  0
   35.6780   28.6320   49.0570 H   0  0  0  0  0  0  0  0  0  0  0  0
   35.2250   30.3140   49.4190 H   0  0  0  0  0  0  0  0  0  0  0  0
   37.9530   30.6930   48.6650 Br  0  0  0  0  0  0  0  0  0  0  0  0
   36.7910   30.4180   47.1490 C   0  0  0  0  0  0  0  0  0  0  0  0
   37.1940   30.7650   45.8810 C   0  0  0  0  0  0  0  0  0  0  0  0
   36.3290   30.5490   44.8550 C   0  0  0  0  0  0  0  0  0  0  0  0
   35.0720   29.9990   45.0510 C   0  0  0  0  0  0  0  0  0  0  0  0
   34.6940   29.6590   46.3460 C   0  0  0  0  0  0  0  0  0  0  0  0
   35.5600   29.8720   47.3840 C   0  0  0  0  0  0  0  0  0  0  0  0
   36.6980   30.8430   43.8600 H   0  0  0  0  0  0  0  0  0  0  0  0
   34.5080   29.8940   44.1380 H   0  0  0  0  0  0  0  0  0  0  0  0
   33.7130   29.2730   46.3050 H   0  0  0  0  0  0  0  0  0  0  0  0
   39.7540   33.3010   45.2850 C   0  0  0  0  0  0  0  0  0  0  0  0
   40.9660   32.5390   45.2020 C   0  0  0  0  0  0  0  0  0  0  0  0
   40.8570   31.1830   45.3540 C   0  0  0  0  0  0  0  0  0  0  0  0
   39.6290   30.6010   45.5750 N   0  0  0  0  0  0  0  0  0  0  0  0
   38.5180   31.3590   45.6450 C   0  0  0  0  0  0  0  0  0  0  0  0
   38.5950   32.6910   45.5000 N   0  0  0  0  0  0  0  0  0  0  0  0
   39.8920   34.3640   45.1590 H   0  0  0  0  0  0  0  0  0  0  0  0
   41.9510   32.9260   45.0330 H   0  0  0  0  0  0  0  0  0  0  0  0
   41.6430   30.4430   45.3250 H   0  0  0  0  0  0  0  0  0  0  0  0
   33.5190   27.6750   48.5560 N   0  0  0  0  0  0  0  0  0  0  0  0
   34.2600   27.2840   47.9450 H   0  0  0  0  0  0  0  0  0  0  0  0
   32.2290   27.1120   48.3670 C   0  0  0  0  0  0  0  0  0  0  0  0
   31.9650   26.9660   47.3220 H   0  0  0  0  0  0  0  0  0  0  0  0
   32.2250   26.0940   48.8390 H   0  0  0  0  0  0  0  0  0  0  0  0
   31.2380   28.0020   49.0530 C   0  0  0  0  0  0  0  0  0  0  0  0
   30.9450   27.6060   50.0610 H   0  0  0  0  0  0  0  0  0  0  0  0
   31.4130   29.0680   49.0560 H   0  0  0  0  0  0  0  0  0  0  0  0
   29.6330   28.2910   46.9820 C   0  0  0  0  0  0  0  0  0  0  0  0
   29.9720   27.8400   48.2210 C   0  0  0  0  0  0  0  0  0  0  0  0
   28.9580   27.0400   48.7920 C   0  0  0  0  0  0  0  0  0  0  0  0
   29.0950   26.6060   49.7970 H   0  0  0  0  0  0  0  0  0  0  0  0
   27.7430   26.7040   48.2350 C   0  0  0  0  0  0  0  0  0  0  0  0
   27.0220   26.0840   48.7440 H   0  0  0  0  0  0  0  0  0  0  0  0
   27.5120   27.2160   46.9790 C   0  0  0  0  0  3  0  0  0  0  0  0
   28.4610   28.0010   46.3730 C   0  0  0  0  0  3  0  0  0  0  0  0
   31.6770   29.9160   47.0370 H   0  0  0  0  0  0  0  0  0  0  0  0
   30.7950   29.3240   46.2160 S   0  0  0  0  0  0  0  0  0  0  0  0
   31.5330   28.4840   45.1750 O   0  0  0  0  0  0  0  0  0  0  0  0
   30.0890   30.3850   45.3820 O   0  0  0  0  0  0  0  0  0  0  0  0
  1  2  1  0  0  0  0
  3  1  1  0  0  0  0
  4  1  1  0  0  0  0
  4  5  1  0  0  0  0
  4  6  1  0  0  0  0
  8 13  1  0  0  0  0
  8  7  1  0  0  0  0
  9  8  2  0  0  0  0
 10 11  2  0  0  0  0
 10  9  1  0  0  0  0
 11 12  1  0  0  0  0
 12 13  2  0  0  0  0
 13  4  1  0  0  0  0
 14 10  1  0  0  0  0
 15 11  1  0  0  0  0
 16 12  1  0  0  0  0
 17 22  1  0  0  0  0
 18 17  2  0  0  0  0
 18 19  1  0  0  0  0
 19 20  2  0  0  0  0
 20 21  1  0  0  0  0
 21  9  1  0  0  0  0
 22 21  2  0  0  0  0
 23 17  1  0  0  0  0
 24 18  1  0  0  0  0
 25 19  1  0  0  0  0
 26  1  1  0  0  0  0
 27 26  1  0  0  0  0
 28 26  1  0  0  0  0
 28 30  1  0  0  0  0
 28 31  1  0  0  0  0
 29 28  1  0  0  0  0
 31 33  1  0  0  0  0
 31 32  1  0  0  0  0
 34 35  1  0  0  0  0
 35 36  2  0  0  0  0
 35 31  1  0  0  0  0
 36 37  1  0  0  0  0
 38 39  1  0  0  0  0
 38 36  1  0  0  0  0
 40 38  2  0  0  0  0
 41 40  1  0  0  0  0
 41 34  2  0  0  0  0
 43 34  1  0  0  0  0
 43 42  1  0  0  0  0
 44 43  2  0  0  0  0
 45 43  2  0  0  0  0
M  END
>  <minimizedAffinity>
-5.09135628

>  <minimizedRMSD>
2.62952399

$$$$
