
 OpenBabel03272506553D

 23 24  0  0  0  0  0  0  0  0999 V2000
   32.6990   26.7760   47.8040 C   0  0  0  0  0  0  0  0  0  0  0  0
   32.9240   27.8620   48.6060 C   0  0  0  0  0  0  0  0  0  0  0  0
   31.9140   28.3840   49.4010 C   0  0  0  0  0  0  0  0  0  0  0  0
   32.0620   29.2380   50.0420 H   0  0  0  0  0  0  0  0  0  0  0  0
   30.6410   27.8310   49.4150 C   0  0  0  0  0  0  0  0  0  0  0  0
   29.8120   28.1850   50.0070 H   0  0  0  0  0  0  0  0  0  0  0  0
   30.4450   26.7380   48.5970 C   0  0  0  0  0  3  0  0  0  0  0  0
   31.4230   26.2030   47.8040 C   0  0  0  0  0  3  0  0  0  0  0  0
   36.2840   28.9150   49.6890 C   0  0  0  0  0  0  0  0  0  0  0  0
   36.6550   29.8440   48.7160 C   0  0  0  0  0  0  0  0  0  0  0  0
   35.7260   30.0910   47.6940 C   0  0  0  0  0  0  0  0  0  0  0  0
   34.5470   29.4180   47.7220 N   0  0  0  0  0  0  0  0  0  0  0  0
   34.2290   28.5330   48.6750 C   0  0  0  0  0  0  0  0  0  0  0  0
   35.1010   28.2730   49.6720 N   0  0  0  0  0  0  0  0  0  0  0  0
   36.9400   28.6650   50.5110 H   0  0  0  0  0  0  0  0  0  0  0  0
   35.9990   30.8080   46.9350 H   0  0  0  0  0  0  0  0  0  0  0  0
   37.9220   30.4970   48.7810 N   0  0  0  0  0  0  0  0  0  0  0  0
   38.6550   30.0500   49.3470 H   0  0  0  0  0  0  0  0  0  0  0  0
   38.0450   31.3910   48.2540 H   0  0  0  0  0  0  0  0  0  0  0  0
   35.2150   26.2630   47.3900 H   0  0  0  0  0  0  0  0  0  0  0  0
   33.9710   26.1280   46.8110 S   0  0  0  0  0  0  0  0  0  0  0  0
   33.7590   24.6280   46.6860 O   0  0  0  0  0  0  0  0  0  0  0  0
   33.9570   26.6790   45.4170 O   0  0  0  0  0  0  0  0  0  0  0  0
  1  2  1  0  0  0  0
  2 13  1  0  0  0  0
  2  3  2  0  0  0  0
  3  5  1  0  0  0  0
  3  4  1  0  0  0  0
  5  6  1  0  0  0  0
  7  5  2  0  0  0  0
  8  1  2  0  0  0  0
  8  7  1  0  0  0  0
  9 15  1  0  0  0  0
 10 17  1  0  0  0  0
 10  9  2  0  0  0  0
 11 12  2  0  0  0  0
 11 10  1  0  0  0  0
 12 13  1  0  0  0  0
 13 14  2  0  0  0  0
 14  9  1  0  0  0  0
 16 11  1  0  0  0  0
 17 18  1  0  0  0  0
 19 17  1  0  0  0  0
 21 20  1  0  0  0  0
 21  1  1  0  0  0  0
 22 21  2  0  0  0  0
 23 21  2  0  0  0  0
M  END
>  <minimizedAffinity>
-3.58413243

>  <minimizedRMSD>
1.57950556

$$$$
