
 OpenBabel03272506063D

 33 35  0  0  0  0  0  0  0  0999 V2000
   33.6280   28.8570   47.6990 C   0  0  0  0  0  0  0  0  0  0  0  0
   33.4830   30.0520   46.8980 C   0  0  0  0  0  0  0  0  0  0  0  0
   31.9540   29.7170   46.0490 S   0  0  0  0  0  0  0  0  0  0  0  0
   31.7240   28.0460   46.8720 C   0  0  0  0  0  0  0  0  0  0  0  0
   32.6850   27.9640   47.5780 N   0  0  0  0  0  0  0  0  0  0  0  0
   34.1360   30.8890   46.8530 H   0  0  0  0  0  0  0  0  0  0  0  0
   29.5800   27.1330   47.5640 C   0  0  0  0  0  0  0  0  0  0  0  0
   30.5810   27.1570   46.6130 C   0  0  0  0  0  0  0  0  0  0  0  0
   30.5440   26.3970   45.4620 C   0  0  0  0  0  0  0  0  0  0  0  0
   31.3430   26.4350   44.7330 H   0  0  0  0  0  0  0  0  0  0  0  0
   29.4850   25.5640   45.2100 C   0  0  0  0  0  0  0  0  0  0  0  0
   29.3650   24.9330   44.3410 H   0  0  0  0  0  0  0  0  0  0  0  0
   28.4740   25.5300   46.1550 C   0  0  0  0  0  3  0  0  0  0  0  0
   28.5290   26.2980   47.3000 C   0  0  0  0  0  3  0  0  0  0  0  0
   30.8540   28.9030   48.9330 H   0  0  0  0  0  0  0  0  0  0  0  0
   29.7210   28.1360   48.9900 S   0  0  0  0  0  0  0  0  0  0  0  0
   29.6370   27.3050   50.2260 O   0  0  0  0  0  0  0  0  0  0  0  0
   28.5370   29.0840   49.0430 O   0  0  0  0  0  0  0  0  0  0  0  0
   34.8360   28.7580   48.5870 C   0  0  0  0  0  0  0  0  0  0  0  0
   34.7570   27.8650   49.2390 H   0  0  0  0  0  0  0  0  0  0  0  0
   35.7210   28.5750   47.9430 H   0  0  0  0  0  0  0  0  0  0  0  0
   34.9560   29.9650   49.4680 C   0  0  0  0  0  0  0  0  0  0  0  0
   35.0870   29.6750   50.5440 H   0  0  0  0  0  0  0  0  0  0  0  0
   34.0950   30.6370   49.4380 H   0  0  0  0  0  0  0  0  0  0  0  0
   37.7630   32.4010   49.5330 C   0  0  0  0  0  0  0  0  0  0  0  0
   38.5510   31.9890   48.4530 C   0  0  0  0  0  0  0  0  0  0  0  0
   38.1090   30.8830   47.7200 C   0  0  0  0  0  0  0  0  0  0  0  0
   36.9580   30.2750   48.0850 N   0  0  0  0  0  0  0  0  0  0  0  0
   36.2320   30.7140   49.1390 C   0  0  0  0  0  0  0  0  0  0  0  0
   36.6170   31.7640   49.8640 N   0  0  0  0  0  0  0  0  0  0  0  0
   38.1230   33.2620   50.0880 H   0  0  0  0  0  0  0  0  0  0  0  0
   39.4670   32.5170   48.2080 H   0  0  0  0  0  0  0  0  0  0  0  0
   38.7100   30.5630   46.8930 H   0  0  0  0  0  0  0  0  0  0  0  0
  1 19  1  0  0  0  0
  2  1  2  0  0  0  0
  3  4  1  0  0  0  0
  3  2  1  0  0  0  0
  4  5  2  0  0  0  0
  5  1  1  0  0  0  0
  6  2  1  0  0  0  0
  7 16  1  0  0  0  0
  8  4  1  0  0  0  0
  8  7  2  0  0  0  0
  9  8  1  0  0  0  0
 10  9  1  0  0  0  0
 11  9  2  0  0  0  0
 11 13  1  0  0  0  0
 12 11  1  0  0  0  0
 13 14  2  0  0  0  0
 14  7  1  0  0  0  0
 15 16  1  0  0  0  0
 16 18  2  0  0  0  0
 16 17  2  0  0  0  0
 19 20  1  0  0  0  0
 19 22  1  0  0  0  0
 21 19  1  0  0  0  0
 22 23  1  0  0  0  0
 24 22  1  0  0  0  0
 25 30  1  0  0  0  0
 25 31  1  0  0  0  0
 26 25  2  0  0  0  0
 27 28  2  0  0  0  0
 27 26  1  0  0  0  0
 28 29  1  0  0  0  0
 29 22  1  0  0  0  0
 29 30  2  0  0  0  0
 32 26  1  0  0  0  0
 33 27  1  0  0  0  0
M  END
>  <minimizedAffinity>
-4.92759085

>  <minimizedRMSD>
2.21638513

$$$$
