
 OpenBabel03272509473D

 28 29  0  0  0  0  0  0  0  0999 V2000
   33.8810   27.3070   48.0130 C   0  0  0  0  0  0  0  0  0  0  0  0
   34.8770   26.8000   47.9610 H   0  0  0  0  0  0  0  0  0  0  0  0
   33.1970   26.5450   48.4320 H   0  0  0  0  0  0  0  0  0  0  0  0
   32.1950   27.0860   46.3480 C   0  0  0  0  0  0  0  0  0  0  0  0
   33.4350   27.6630   46.6460 C   0  0  0  0  0  0  0  0  0  0  0  0
   34.0600   28.4440   45.7040 C   0  0  0  0  0  0  0  0  0  0  0  0
   35.0090   28.8400   46.0360 H   0  0  0  0  0  0  0  0  0  0  0  0
   33.4820   28.6650   44.4760 C   0  0  0  0  0  0  0  0  0  0  0  0
   34.0310   29.2980   43.7680 H   0  0  0  0  0  0  0  0  0  0  0  0
   32.2620   28.1170   44.1380 C   0  0  0  0  0  3  0  0  0  0  0  0
   31.6240   27.3220   45.0950 C   0  0  0  0  0  3  0  0  0  0  0  0
   31.9270   25.2690   48.1790 H   0  0  0  0  0  0  0  0  0  0  0  0
   31.2010   26.0680   47.3410 S   0  0  0  0  0  0  0  0  0  0  0  0
   30.1720   26.8410   48.1340 O   0  0  0  0  0  0  0  0  0  0  0  0
   30.4750   25.1110   46.4090 O   0  0  0  0  0  0  0  0  0  0  0  0
   33.9740   28.5010   48.9160 C   0  0  0  0  0  0  0  0  0  0  0  0
   34.3870   29.3360   48.2770 H   0  0  0  0  0  0  0  0  0  0  0  0
   32.9750   28.8450   49.2140 H   0  0  0  0  0  0  0  0  0  0  0  0
   34.8550   28.2520   49.9910 O   0  0  0  0  0  0  0  0  0  0  0  0
   37.4600   30.3330   51.3780 C   0  0  0  0  0  0  0  0  0  0  0  0
   38.0890   30.7560   50.1880 C   0  0  0  0  0  0  0  0  0  0  0  0
   37.5790   30.3000   48.9760 C   0  0  0  0  0  0  0  0  0  0  0  0
   36.4950   29.4670   49.0200 N   0  0  0  0  0  0  0  0  0  0  0  0
   35.9280   29.0900   50.1800 C   0  0  0  0  0  0  0  0  0  0  0  0
   36.4170   29.5280   51.3620 N   0  0  0  0  0  0  0  0  0  0  0  0
   37.8270   30.6660   52.3300 H   0  0  0  0  0  0  0  0  0  0  0  0
   38.9490   31.4190   50.2080 H   0  0  0  0  0  0  0  0  0  0  0  0
   38.0140   30.5840   48.0250 H   0  0  0  0  0  0  0  0  0  0  0  0
  1  3  1  0  0  0  0
  1 16  1  0  0  0  0
  2  1  1  0  0  0  0
  4  5  1  0  0  0  0
  4 13  1  0  0  0  0
  5  1  1  0  0  0  0
  6  7  1  0  0  0  0
  6  5  2  0  0  0  0
  8  6  1  0  0  0  0
  9  8  1  0  0  0  0
 10  8  2  0  0  0  0
 10 11  1  0  0  0  0
 11  4  2  0  0  0  0
 13 14  2  0  0  0  0
 13 12  1  0  0  0  0
 15 13  2  0  0  0  0
 16 18  1  0  0  0  0
 16 19  1  0  0  0  0
 17 16  1  0  0  0  0
 19 24  1  0  0  0  0
 20 26  1  0  0  0  0
 21 27  1  0  0  0  0
 21 20  2  0  0  0  0
 22 23  2  0  0  0  0
 22 21  1  0  0  0  0
 23 24  1  0  0  0  0
 24 25  2  0  0  0  0
 25 20  1  0  0  0  0
 28 22  1  0  0  0  0
M  END
>  <minimizedAffinity>
-3.99490619

>  <minimizedRMSD>
0.690878928

$$$$
