
 OpenBabel03272509573D

 49 52  0  0  0  0  0  0  0  0999 V2000
   33.5370   27.5260   47.6980 C   0  0  0  0  0  0  0  0  0  0  0  0
   33.7220   26.5880   48.2400 H   0  0  0  0  0  0  0  0  0  0  0  0
   33.8070   27.3160   46.6380 H   0  0  0  0  0  0  0  0  0  0  0  0
   32.0890   27.8890   47.7660 C   0  0  0  0  0  0  0  0  0  0  0  0
   31.3830   27.4740   48.8790 C   0  0  0  0  0  0  0  0  0  0  0  0
   30.0510   27.7650   49.0170 C   0  0  0  0  0  0  0  0  0  0  0  0
   29.4270   28.4520   48.0740 N   0  0  0  0  0  0  0  0  0  0  0  0
   30.1240   28.8630   46.9730 C   0  0  0  0  0  0  0  0  0  0  0  0
   31.4270   28.5810   46.8320 N   0  0  0  0  0  0  0  0  0  0  0  0
   31.8740   26.9180   49.6490 H   0  0  0  0  0  0  0  0  0  0  0  0
   29.4790   27.4450   49.8900 H   0  0  0  0  0  0  0  0  0  0  0  0
   29.3880   29.6350   45.9420 C   0  0  0  0  0  0  0  0  0  0  0  0
   28.8640   30.4710   46.4930 H   0  0  0  0  0  0  0  0  0  0  0  0
   30.1310   30.1910   45.3050 H   0  0  0  0  0  0  0  0  0  0  0  0
   28.7130   28.1830   44.0010 C   0  0  0  0  0  0  0  0  0  0  0  0
   28.4180   28.8500   45.1660 C   0  0  0  0  0  0  0  0  0  0  0  0
   27.1040   28.7710   45.6460 C   0  0  0  0  0  0  0  0  0  0  0  0
   26.8550   29.2900   46.5600 H   0  0  0  0  0  0  0  0  0  0  0  0
   26.1040   28.0630   45.0110 C   0  0  0  0  0  0  0  0  0  0  0  0
   25.0980   28.0370   45.4310 H   0  0  0  0  0  0  0  0  0  0  0  0
   26.3840   27.3900   43.8430 C   0  0  0  0  0  3  0  0  0  0  0  0
   27.6820   27.4730   43.3750 C   0  0  0  0  0  3  0  0  0  0  0  0
   31.2750   27.8820   44.2600 H   0  0  0  0  0  0  0  0  0  0  0  0
   30.3120   28.2280   43.3300 S   0  0  0  0  0  0  0  0  0  0  0  0
   30.6340   29.4670   42.5800 O   0  0  0  0  0  0  0  0  0  0  0  0
   30.3740   27.1000   42.3010 O   0  0  0  0  0  0  0  0  0  0  0  0
   34.4280   28.6500   48.1700 C   0  0  0  0  0  0  0  0  0  0  0  0
   35.2060   28.9130   47.4520 H   0  0  0  0  0  0  0  0  0  0  0  0
   33.7960   29.5500   48.3320 H   0  0  0  0  0  0  0  0  0  0  0  0
   34.9880   28.3490   49.4420 O   0  0  0  0  0  0  0  0  0  0  0  0
   37.3180   30.1660   51.5110 C   0  0  0  0  0  0  0  0  0  0  0  0
   38.0490   30.8570   50.5200 C   0  0  0  0  0  0  0  0  0  0  0  0
   37.6870   30.6490   49.1950 C   0  0  0  0  0  0  0  0  0  0  0  0
   36.6460   29.7850   48.9710 N   0  0  0  0  0  0  0  0  0  0  0  0
   35.9700   29.1430   49.9260 C   0  0  0  0  0  0  0  0  0  0  0  0
   36.3180   29.3440   51.2050 N   0  0  0  0  0  0  0  0  0  0  0  0
   37.6170   30.3440   52.5340 H   0  0  0  0  0  0  0  0  0  0  0  0
   38.8680   31.5360   50.7120 H   0  0  0  0  0  0  0  0  0  0  0  0
   38.9430   33.2600   49.0230 F   0  0  0  0  0  0  0  0  0  0  0  0
   38.9090   32.4770   47.9500 C   0  0  0  0  0  0  0  0  0  0  0  0
   38.3230   31.2700   48.0510 C   0  0  0  0  0  0  0  0  0  0  0  0
   38.3400   30.5220   46.8640 C   0  0  0  0  0  0  0  0  0  0  0  0
   38.9110   30.9990   45.7090 C   0  0  0  0  0  0  0  0  0  0  0  0
   39.4970   32.2320   45.6480 C   0  0  0  0  0  0  0  0  0  0  0  0
   39.4790   32.9520   46.7970 C   0  0  0  0  0  0  0  0  0  0  0  0
   37.8880   29.5270   46.8420 H   0  0  0  0  0  0  0  0  0  0  0  0
   38.8860   30.3610   44.8240 H   0  0  0  0  0  0  0  0  0  0  0  0
   39.9310   32.5530   44.7140 H   0  0  0  0  0  0  0  0  0  0  0  0
   39.9430   33.9510   46.7840 H   0  0  0  0  0  0  0  0  0  0  0  0
  1  4  1  0  0  0  0
  1 27  1  0  0  0  0
  1  2  1  0  0  0  0
  3  1  1  0  0  0  0
  4  5  1  0  0  0  0
  5  6  2  0  0  0  0
  5 10  1  0  0  0  0
  6 11  1  0  0  0  0
  7  6  1  0  0  0  0
  8  7  2  0  0  0  0
  9  8  1  0  0  0  0
  9  4  2  0  0  0  0
 12 13  1  0  0  0  0
 12  8  1  0  0  0  0
 14 12  1  0  0  0  0
 15 16  1  0  0  0  0
 16 17  2  0  0  0  0
 16 12  1  0  0  0  0
 17 18  1  0  0  0  0
 19 20  1  0  0  0  0
 19 17  1  0  0  0  0
 21 19  2  0  0  0  0
 22 21  1  0  0  0  0
 22 15  2  0  0  0  0
 24 15  1  0  0  0  0
 24 23  1  0  0  0  0
 25 24  2  0  0  0  0
 26 24  2  0  0  0  0
 27 29  1  0  0  0  0
 27 30  1  0  0  0  0
 28 27  1  0  0  0  0
 30 35  1  0  0  0  0
 31 37  1  0  0  0  0
 32 38  1  0  0  0  0
 32 31  2  0  0  0  0
 33 32  1  0  0  0  0
 34 33  2  0  0  0  0
 34 35  1  0  0  0  0
 35 36  2  0  0  0  0
 36 31  1  0  0  0  0
 40 41  1  0  0  0  0
 40 39  1  0  0  0  0
 41 33  1  0  0  0  0
 42 41  2  0  0  0  0
 43 42  1  0  0  0  0
 44 43  2  0  0  0  0
 44 45  1  0  0  0  0
 45 40  2  0  0  0  0
 46 42  1  0  0  0  0
 47 43  1  0  0  0  0
 48 44  1  0  0  0  0
 49 45  1  0  0  0  0
M  END
>  <minimizedAffinity>
-6.42546654

>  <minimizedRMSD>
0.997451663

$$$$
