
 OpenBabel03272505033D

 32 34  0  0  0  0  0  0  0  0999 V2000
   37.0810   30.8590   46.4230 Cl  0  0  0  0  0  0  0  0  0  0  0  0
   38.0580   31.9800   47.3710 C   0  0  0  0  0  0  0  0  0  0  0  0
   37.9840   31.9050   48.7290 C   0  0  0  0  0  0  0  0  0  0  0  0
   38.7640   32.8310   49.4050 C   0  0  0  0  0  0  0  0  0  0  0  0
   39.5450   33.7450   48.7230 C   0  0  0  0  0  0  0  0  0  0  0  0
   39.5750   33.7680   47.3510 C   0  0  0  0  0  0  0  0  0  0  0  0
   38.8050   32.8530   46.6460 C   0  0  0  0  0  0  0  0  0  0  0  0
   38.7630   32.8400   50.4890 H   0  0  0  0  0  0  0  0  0  0  0  0
   40.1320   34.4410   49.3130 H   0  0  0  0  0  0  0  0  0  0  0  0
   40.1950   34.4950   46.8430 H   0  0  0  0  0  0  0  0  0  0  0  0
   37.7730   29.9080   50.2040 C   0  0  0  0  0  0  0  0  0  0  0  0
   37.1630   30.9410   49.4730 C   0  0  0  0  0  0  0  0  0  0  0  0
   35.7710   31.0570   49.4530 C   0  0  0  0  0  0  0  0  0  0  0  0
   35.0830   30.1210   50.1710 N   0  0  0  0  0  0  0  0  0  0  0  0
   35.6570   29.1440   50.8620 C   0  0  0  0  0  0  0  0  0  0  0  0
   36.9950   29.0330   50.8820 N   0  0  0  0  0  0  0  0  0  0  0  0
   38.8550   29.8960   50.1640 H   0  0  0  0  0  0  0  0  0  0  0  0
   35.3080   31.8500   48.8920 H   0  0  0  0  0  0  0  0  0  0  0  0
   35.0790   28.4180   51.4210 H   0  0  0  0  0  0  0  0  0  0  0  0
   38.8570   32.9030   45.2750 O   0  0  0  0  0  0  0  0  0  0  0  0
   38.6140   31.7000   43.3720 C   0  0  0  0  0  0  0  0  0  0  0  0
   39.4350   31.9420   44.4810 C   0  0  0  0  0  0  0  0  0  0  0  0
   40.5990   31.2170   44.5690 C   0  0  0  0  0  0  0  0  0  0  0  0
   41.1710   31.4730   45.4450 H   0  0  0  0  0  0  0  0  0  0  0  0
   40.9360   30.2920   43.6040 C   0  0  0  0  0  0  0  0  0  0  0  0
   41.8640   29.7730   43.7570 H   0  0  0  0  0  0  0  0  0  0  0  0
   40.1350   30.0510   42.5160 C   0  0  0  0  0  3  0  0  0  0  0  0
   38.9640   30.7640   42.4020 C   0  0  0  0  0  3  0  0  0  0  0  0
   36.8780   33.5100   43.8980 H   0  0  0  0  0  0  0  0  0  0  0  0
   37.0800   32.4900   43.0230 S   0  0  0  0  0  0  0  0  0  0  0  0
   35.9260   31.5370   43.1590 O   0  0  0  0  0  0  0  0  0  0  0  0
   37.1170   33.0000   41.6180 O   0  0  0  0  0  0  0  0  0  0  0  0
  1  2  1  0  0  0  0
  2  3  1  0  0  0  0
  3  4  2  0  0  0  0
  3 12  1  0  0  0  0
  4  8  1  0  0  0  0
  5  9  1  0  0  0  0
  5  4  1  0  0  0  0
  6  5  2  0  0  0  0
  7  6  1  0  0  0  0
  7  2  2  0  0  0  0
 10  6  1  0  0  0  0
 11 16  1  0  0  0  0
 12 11  2  0  0  0  0
 13 12  1  0  0  0  0
 13 14  2  0  0  0  0
 14 15  1  0  0  0  0
 15 16  2  0  0  0  0
 15 19  1  0  0  0  0
 17 11  1  0  0  0  0
 18 13  1  0  0  0  0
 20  7  1  0  0  0  0
 21 22  1  0  0  0  0
 22 23  2  0  0  0  0
 22 20  1  0  0  0  0
 23 24  1  0  0  0  0
 25 26  1  0  0  0  0
 25 23  1  0  0  0  0
 27 25  2  0  0  0  0
 28 27  1  0  0  0  0
 28 21  2  0  0  0  0
 30 31  2  0  0  0  0
 30 21  1  0  0  0  0
 30 29  1  0  0  0  0
 32 30  2  0  0  0  0
M  END
>  <minimizedAffinity>
-5.27297115

>  <minimizedRMSD>
1.58953822

$$$$
