
 OpenBabel03262520253D

 45 48  0  0  0  0  0  0  0  0999 V2000
   32.3030   28.3920   47.2710 C   0  0  0  0  0  0  0  0  0  0  0  0
   32.6180   27.8030   48.5040 C   0  0  0  0  0  0  0  0  0  0  0  0
   33.8180   27.8680   49.1260 C   0  0  0  0  0  0  0  0  0  0  0  0
   34.8430   28.5410   48.5670 C   0  0  0  0  0  0  0  0  0  0  0  0
   34.5480   29.1150   47.3710 C   0  0  0  0  0  0  0  0  0  0  0  0
   33.3650   29.0230   46.8070 N   0  0  0  0  0  0  0  0  0  0  0  0
   31.8330   27.2260   49.0400 H   0  0  0  0  0  0  0  0  0  0  0  0
   33.9680   27.3650   50.1080 H   0  0  0  0  0  0  0  0  0  0  0  0
   35.8270   28.6460   48.9850 H   0  0  0  0  0  0  0  0  0  0  0  0
   29.9880   28.6160   47.7040 C   0  0  0  0  0  0  0  0  0  0  0  0
   30.9650   28.2590   46.7150 C   0  0  0  0  0  0  0  0  0  0  0  0
   30.4850   27.8910   45.4910 C   0  0  0  0  0  0  0  0  0  0  0  0
   29.1230   27.8930   45.3110 N   0  0  0  0  0  0  0  0  0  0  0  0
   28.2320   28.2270   46.2370 C   0  0  0  0  0  0  0  0  0  0  0  0
   28.6890   28.5910   47.4450 N   0  0  0  0  0  0  0  0  0  0  0  0
   26.8830   28.1800   45.8670 N   0  0  0  0  0  0  0  0  0  0  0  0
   30.2160   28.9270   48.7140 H   0  0  0  0  0  0  0  0  0  0  0  0
   26.2450   27.5590   46.4390 H   0  0  0  0  0  0  0  0  0  0  0  0
   26.4240   28.6940   45.0810 H   0  0  0  0  0  0  0  0  0  0  0  0
   31.4200   27.5120   44.4450 C   0  0  0  0  0  0  0  0  0  0  0  0
   32.2580   26.5980   44.9170 F   0  0  0  0  0  0  0  0  0  0  0  0
   30.8290   27.0220   43.2940 F   0  0  0  0  0  0  0  0  0  0  0  0
   32.2020   28.6150   44.0250 F   0  0  0  0  0  0  0  0  0  0  0  0
   36.2430   30.8770   48.6580 F   0  0  0  0  0  0  0  0  0  0  0  0
   36.4120   30.7610   47.2920 C   0  0  0  0  0  0  0  0  0  0  0  0
   35.5750   29.8880   46.6410 C   0  0  0  0  0  0  0  0  0  0  0  0
   35.7790   29.8080   45.2870 C   0  0  0  0  0  0  0  0  0  0  0  0
   36.7370   30.5370   44.6320 C   0  0  0  0  0  0  0  0  0  0  0  0
   37.5470   31.3960   45.3440 C   0  0  0  0  0  0  0  0  0  0  0  0
   37.3990   31.5260   46.6950 C   0  0  0  0  0  0  0  0  0  0  0  0
   35.1430   29.1290   44.7090 H   0  0  0  0  0  0  0  0  0  0  0  0
   36.8470   30.4280   43.5620 H   0  0  0  0  0  0  0  0  0  0  0  0
   38.3080   31.9850   44.8720 H   0  0  0  0  0  0  0  0  0  0  0  0
   39.3960   33.0360   46.9800 C   0  0  0  0  0  0  0  0  0  0  0  0
   38.2520   32.4340   47.4580 C   0  0  0  0  0  0  0  0  0  0  0  0
   37.8540   32.6950   48.7740 C   0  0  0  0  0  0  0  0  0  0  0  0
   36.9640   32.2510   49.2030 H   0  0  0  0  0  0  0  0  0  0  0  0
   38.6280   33.5400   49.5170 C   0  0  0  0  0  0  0  0  0  0  0  0
   38.3300   33.7520   50.5430 H   0  0  0  0  0  0  0  0  0  0  0  0
   39.7900   34.1670   49.0680 C   0  0  0  0  0  0  0  0  0  0  0  0
   40.1620   33.8860   47.7510 C   0  0  0  0  0  0  0  0  0  0  0  0
   38.9870   31.9510   44.6660 H   0  0  0  0  0  0  0  0  0  0  0  0
   39.8760   32.7030   45.3520 S   0  0  0  0  0  0  0  0  0  0  0  0
   41.2220   32.0180   45.3740 O   0  0  0  0  0  0  0  0  0  0  0  0
   40.1250   34.0060   44.6040 O   0  0  0  0  0  0  0  0  0  0  0  0
  1  2  1  0  0  0  0
  2  7  1  0  0  0  0
  2  3  2  0  0  0  0
  3  8  1  0  0  0  0
  4  9  1  0  0  0  0
  4  3  1  0  0  0  0
  5  4  2  0  0  0  0
  6  1  2  0  0  0  0
  6  5  1  0  0  0  0
 10 17  1  0  0  0  0
 11  1  1  0  0  0  0
 11 10  2  0  0  0  0
 12 11  1  0  0  0  0
 13 12  2  0  0  0  0
 13 14  1  0  0  0  0
 14 15  2  0  0  0  0
 15 10  1  0  0  0  0
 16 14  1  0  0  0  0
 16 18  1  0  0  0  0
 19 16  1  0  0  0  0
 20 21  1  0  0  0  0
 20 12  1  0  0  0  0
 22 20  1  0  0  0  0
 23 20  1  0  0  0  0
 25 24  1  0  0  0  0
 26 25  2  0  0  0  0
 26  5  1  0  0  0  0
 27 26  1  0  0  0  0
 28 27  2  0  0  0  0
 28 29  1  0  0  0  0
 29 30  2  0  0  0  0
 30 25  1  0  0  0  0
 30 35  1  0  0  0  0
 31 27  1  0  0  0  0
 32 28  1  0  0  0  0
 33 29  1  0  0  0  0
 34 35  2  0  0  0  0
 34 41  1  0  0  0  0
 35 36  1  0  0  0  0
 36 37  1  0  0  0  0
 36 38  2  0  0  0  0
 38 39  1  0  0  0  0
 40 38  1  0  0  0  0
 41 40  2  0  0  0  0
 42 43  1  0  0  0  0
 43 44  2  0  0  0  0
 43 34  1  0  0  0  0
 45 43  2  0  0  0  0
M  END
>  <minimizedAffinity>
-6.35898113

>  <minimizedRMSD>
3.62485123

$$$$
