
 OpenBabel03272504573D

 36 38  0  0  1  0  0  0  0  0999 V2000
   37.0170   31.5480   48.6370 C   0  0  1  0  0  0  0  0  0  0  0  0
   36.2760   30.8870   47.5830 C   0  0  0  0  0  0  0  0  0  0  0  0
   37.2140   30.1150   48.4190 C   0  0  2  0  0  0  0  0  0  0  0  0
   36.5570   31.7920   49.6540 H   0  0  0  0  0  0  0  0  0  0  0  0
   36.6310   31.0890   46.5430 H   0  0  0  0  0  0  0  0  0  0  0  0
   35.2660   31.2050   47.6590 H   0  0  0  0  0  0  0  0  0  0  0  0
   37.9670   29.6300   47.8220 H   0  0  0  0  0  0  0  0  0  0  0  0
   38.1660   32.4510   48.3000 C   0  0  0  0  0  0  0  0  0  0  0  0
   38.5220   33.3900   49.2980 C   0  0  0  0  0  0  0  0  0  0  0  0
   39.5860   34.2000   48.9620 C   0  0  0  0  0  0  0  0  0  0  0  0
   40.2090   34.0620   47.7500 N   0  0  0  0  0  0  0  0  0  0  0  0
   39.8300   33.1510   46.8360 C   0  0  0  0  0  0  0  0  0  0  0  0
   38.7770   32.3260   47.1260 N   0  0  0  0  0  0  0  0  0  0  0  0
   40.4690   32.9890   45.6010 N   0  0  0  0  0  0  0  0  0  0  0  0
   38.0220   33.4860   50.2490 H   0  0  0  0  0  0  0  0  0  0  0  0
   39.9320   34.9560   49.6720 H   0  0  0  0  0  0  0  0  0  0  0  0
   40.9600   33.8510   45.2310 H   0  0  0  0  0  0  0  0  0  0  0  0
   40.4420   32.0690   45.1060 H   0  0  0  0  0  0  0  0  0  0  0  0
   36.6540   29.2620   49.3680 O   0  0  0  0  0  0  0  0  0  0  0  0
   34.5050   28.0930   50.1170 O   0  0  0  0  0  0  0  0  0  0  0  0
   34.9800   29.1300   49.1070 P   0  0  1  0  0  0  0  0  0  0  0  0
   34.2600   30.5680   49.6170 O   0  0  0  0  0  0  0  0  0  0  0  0
   34.6510   31.3980   49.3780 H   0  0  0  0  0  0  0  0  0  0  0  0
   34.7120   28.7240   47.5500 O   0  0  0  0  0  0  0  0  0  0  0  0
   32.8300   27.5370   46.4040 C   0  0  0  0  0  0  0  0  0  0  0  0
   33.7720   28.4960   46.6640 C   0  0  0  0  0  0  0  0  0  0  0  0
   33.7820   29.5700   45.7520 C   0  0  0  0  0  0  0  0  0  0  0  0
   34.4100   30.4570   45.7140 H   0  0  0  0  0  0  0  0  0  0  0  0
   32.8900   29.6360   44.6680 C   0  0  0  0  0  0  0  0  0  0  0  0
   32.8170   30.4060   43.9230 H   0  0  0  0  0  0  0  0  0  0  0  0
   31.9840   28.5980   44.5160 C   0  0  0  0  0  3  0  0  0  0  0  0
   31.9230   27.5220   45.3730 C   0  0  0  0  0  3  0  0  0  0  0  0
   32.7520   26.5820   48.8250 H   0  0  0  0  0  0  0  0  0  0  0  0
   32.8380   26.2340   47.5330 S   0  0  0  0  0  0  0  0  0  0  0  0
   31.6520   25.2980   47.2820 O   0  0  0  0  0  0  0  0  0  0  0  0
   34.0560   25.3830   47.2140 O   0  0  0  0  0  0  0  0  0  0  0  0
  1  4  1  1  0  0  0
  2  6  1  0  0  0  0
  2  3  1  0  0  0  0
  2  1  1  0  0  0  0
  3  7  1  6  0  0  0
  3  1  1  0  0  0  0
  3 19  1  0  0  0  0
  5  2  1  0  0  0  0
  8  1  1  0  0  0  0
  8  9  1  0  0  0  0
  9 15  1  0  0  0  0
 10  9  2  0  0  0  0
 10 16  1  0  0  0  0
 11 10  1  0  0  0  0
 12 13  1  0  0  0  0
 12 11  2  0  0  0  0
 13  8  2  0  0  0  0
 14 12  1  0  0  0  0
 17 14  1  0  0  0  0
 18 14  1  0  0  0  0
 21 19  1  0  0  0  0
 21 22  1  0  0  0  0
 21 20  2  1  0  0  0
 23 22  1  0  0  0  0
 24 21  1  0  0  0  0
 25 26  1  0  0  0  0
 25 34  1  0  0  0  0
 26 24  1  0  0  0  0
 27 26  2  0  0  0  0
 28 27  1  0  0  0  0
 29 27  1  0  0  0  0
 30 29  1  0  0  0  0
 31 29  2  0  0  0  0
 31 32  1  0  0  0  0
 32 25  2  0  0  0  0
 34 33  1  0  0  0  0
 35 34  2  0  0  0  0
 36 34  2  0  0  0  0
M  END
>  <minimizedAffinity>
-4.70400143

>  <minimizedRMSD>
0.413886607

$$$$
