
 OpenBabel03272504563D

 36 38  0  0  1  0  0  0  0  0999 V2000
   37.0210   31.5780   48.6960 C   0  0  1  0  0  0  0  0  0  0  0  0
   36.3840   30.7320   47.7080 C   0  0  0  0  0  0  0  0  0  0  0  0
   37.2810   30.1380   48.7170 C   0  0  2  0  0  0  0  0  0  0  0  0
   36.4780   31.9530   49.6290 H   0  0  0  0  0  0  0  0  0  0  0  0
   36.8100   30.7900   46.6770 H   0  0  0  0  0  0  0  0  0  0  0  0
   35.3610   31.0140   47.6640 H   0  0  0  0  0  0  0  0  0  0  0  0
   38.0920   29.6020   48.2570 H   0  0  0  0  0  0  0  0  0  0  0  0
   38.1630   32.4690   48.3050 C   0  0  0  0  0  0  0  0  0  0  0  0
   38.5510   33.4280   49.2710 C   0  0  0  0  0  0  0  0  0  0  0  0
   39.6070   34.2260   48.8850 C   0  0  0  0  0  0  0  0  0  0  0  0
   40.1930   34.0600   47.6570 N   0  0  0  0  0  0  0  0  0  0  0  0
   39.7830   33.1300   46.7760 C   0  0  0  0  0  0  0  0  0  0  0  0
   38.7370   32.3150   47.1160 N   0  0  0  0  0  0  0  0  0  0  0  0
   40.3840   32.9390   45.5270 N   0  0  0  0  0  0  0  0  0  0  0  0
   38.0810   33.5470   50.2330 H   0  0  0  0  0  0  0  0  0  0  0  0
   39.9770   34.9970   49.5670 H   0  0  0  0  0  0  0  0  0  0  0  0
   40.8660   33.7900   45.1220 H   0  0  0  0  0  0  0  0  0  0  0  0
   40.3390   32.0080   45.0530 H   0  0  0  0  0  0  0  0  0  0  0  0
   36.6790   29.4160   49.7460 O   0  0  0  0  0  0  0  0  0  0  0  0
   34.4780   28.4360   50.6060 O   0  0  0  0  0  0  0  0  0  0  0  0
   35.0170   29.2460   49.4340 P   0  0  1  0  0  0  0  0  0  0  0  0
   34.2980   30.7620   49.6080 O   0  0  0  0  0  0  0  0  0  0  0  0
   34.7130   31.5240   49.2280 H   0  0  0  0  0  0  0  0  0  0  0  0
   34.8160   28.5380   47.9780 O   0  0  0  0  0  0  0  0  0  0  0  0
   33.2220   28.2110   46.0750 C   0  0  0  0  0  0  0  0  0  0  0  0
   33.9420   27.9350   47.2070 C   0  0  0  0  0  0  0  0  0  0  0  0
   33.7220   26.6500   47.7430 C   0  0  0  0  0  0  0  0  0  0  0  0
   34.1490   26.1700   48.6190 H   0  0  0  0  0  0  0  0  0  0  0  0
   32.8320   25.7380   47.1500 C   0  0  0  0  0  0  0  0  0  0  0  0
   32.5970   24.7440   47.4770 H   0  0  0  0  0  0  0  0  0  0  0  0
   32.1650   26.1420   46.0050 C   0  0  0  0  0  3  0  0  0  0  0  0
   32.3360   27.3830   45.4330 C   0  0  0  0  0  3  0  0  0  0  0  0
   34.7880   30.0820   45.1640 H   0  0  0  0  0  0  0  0  0  0  0  0
   33.5080   29.7880   45.4390 S   0  0  0  0  0  0  0  0  0  0  0  0
   32.7520   29.9820   44.1230 O   0  0  0  0  0  0  0  0  0  0  0  0
   32.8540   30.7730   46.3930 O   0  0  0  0  0  0  0  0  0  0  0  0
  1  3  1  0  0  0  0
  1  4  1  1  0  0  0
  2  1  1  0  0  0  0
  2  3  1  0  0  0  0
  3  7  1  6  0  0  0
  3 19  1  0  0  0  0
  5  2  1  0  0  0  0
  6  2  1  0  0  0  0
  8  1  1  0  0  0  0
  8  9  1  0  0  0  0
  9 15  1  0  0  0  0
 10  9  2  0  0  0  0
 10 16  1  0  0  0  0
 11 10  1  0  0  0  0
 12 13  1  0  0  0  0
 12 11  2  0  0  0  0
 13  8  2  0  0  0  0
 14 12  1  0  0  0  0
 17 14  1  0  0  0  0
 18 14  1  0  0  0  0
 21 22  1  0  0  0  0
 21 19  1  0  0  0  0
 21 20  2  1  0  0  0
 23 22  1  0  0  0  0
 24 21  1  0  0  0  0
 25 26  1  0  0  0  0
 26 27  2  0  0  0  0
 26 24  1  0  0  0  0
 27 28  1  0  0  0  0
 29 30  1  0  0  0  0
 29 27  1  0  0  0  0
 31 29  2  0  0  0  0
 32 31  1  0  0  0  0
 32 25  2  0  0  0  0
 33 34  1  0  0  0  0
 34 25  1  0  0  0  0
 34 36  2  0  0  0  0
 35 34  2  0  0  0  0
M  END
>  <minimizedAffinity>
-5.0348196

>  <minimizedRMSD>
1.07294619

$$$$
