
 OpenBabel03272510103D

 31 33  0  0  0  0  0  0  0  0999 V2000
   36.8300   30.9390   47.7880 C   0  0  0  0  0  0  0  0  0  0  0  0
   37.7290   31.9580   47.8130 C   0  0  0  0  0  0  0  0  0  0  0  0
   38.2250   32.5710   46.6720 C   0  0  0  0  0  0  0  0  0  0  0  0
   37.8090   32.1510   45.4250 C   0  0  0  0  0  0  0  0  0  0  0  0
   36.8910   31.1110   45.4220 C   0  0  0  0  0  0  0  0  0  0  0  0
   36.4380   30.5470   46.5580 N   0  0  0  0  0  0  0  0  0  0  0  0
   38.1010   32.3400   48.7500 H   0  0  0  0  0  0  0  0  0  0  0  0
   38.9440   33.3840   46.6870 H   0  0  0  0  0  0  0  0  0  0  0  0
   36.4870   30.6910   44.5160 H   0  0  0  0  0  0  0  0  0  0  0  0
   37.0810   29.9990   50.1080 C   0  0  0  0  0  0  0  0  0  0  0  0
   36.3110   30.2990   48.9830 C   0  0  0  0  0  0  0  0  0  0  0  0
   34.9570   29.9620   49.0130 C   0  0  0  0  0  0  0  0  0  0  0  0
   34.4470   29.3600   50.1280 N   0  0  0  0  0  0  0  0  0  0  0  0
   35.2290   29.0890   51.1910 C   0  0  0  0  0  0  0  0  0  0  0  0
   36.5470   29.4040   51.1920 N   0  0  0  0  0  0  0  0  0  0  0  0
   38.1170   30.2840   50.0220 H   0  0  0  0  0  0  0  0  0  0  0  0
   34.2540   30.1450   48.2000 H   0  0  0  0  0  0  0  0  0  0  0  0
   34.7920   28.6070   52.0650 H   0  0  0  0  0  0  0  0  0  0  0  0
   38.2420   32.6940   44.2250 O   0  0  0  0  0  0  0  0  0  0  0  0
   40.0770   31.3440   43.6310 C   0  0  0  0  0  0  0  0  0  0  0  0
   38.9240   32.0060   43.2600 C   0  0  0  0  0  0  0  0  0  0  0  0
   38.4870   31.9640   41.9480 C   0  0  0  0  0  0  0  0  0  0  0  0
   37.5730   32.4860   41.6360 H   0  0  0  0  0  0  0  0  0  0  0  0
   39.2380   31.2430   41.0260 C   0  0  0  0  0  0  0  0  0  0  0  0
   38.9020   31.2030   39.9800 H   0  0  0  0  0  0  0  0  0  0  0  0
   40.4000   30.5670   41.3690 C   0  0  0  0  0  3  0  0  0  0  0  0
   40.8180   30.6240   42.6920 C   0  0  0  0  0  3  0  0  0  0  0  0
   40.0740   32.5000   45.9260 H   0  0  0  0  0  0  0  0  0  0  0  0
   40.6210   31.4020   45.2930 S   0  0  0  0  0  0  0  0  0  0  0  0
   40.2010   30.1180   45.9500 O   0  0  0  0  0  0  0  0  0  0  0  0
   42.1190   31.4620   45.3200 O   0  0  0  0  0  0  0  0  0  0  0  0
  1  2  1  0  0  0  0
  1 11  1  0  0  0  0
  2  7  1  0  0  0  0
  3  8  1  0  0  0  0
  3  2  2  0  0  0  0
  4  3  1  0  0  0  0
  5  4  2  0  0  0  0
  5  6  1  0  0  0  0
  6  1  2  0  0  0  0
  9  5  1  0  0  0  0
 10 15  1  0  0  0  0
 11 12  1  0  0  0  0
 11 10  2  0  0  0  0
 12 13  2  0  0  0  0
 13 14  1  0  0  0  0
 14 15  2  0  0  0  0
 14 18  1  0  0  0  0
 16 10  1  0  0  0  0
 17 12  1  0  0  0  0
 19  4  1  0  0  0  0
 20 29  1  0  0  0  0
 21 20  1  0  0  0  0
 21 19  1  0  0  0  0
 22 21  2  0  0  0  0
 23 22  1  0  0  0  0
 24 26  2  0  0  0  0
 24 22  1  0  0  0  0
 25 24  1  0  0  0  0
 26 27  1  0  0  0  0
 27 20  2  0  0  0  0
 29 31  2  0  0  0  0
 29 28  1  0  0  0  0
 29 30  2  0  0  0  0
M  END
>  <minimizedAffinity>
-3.86114621

>  <minimizedRMSD>
4.09992075

$$$$
