
 OpenBabel03272504563D

 36 38  0  0  1  0  0  0  0  0999 V2000
   36.9430   31.4840   48.7860 C   0  0  1  0  0  0  0  0  0  0  0  0
   36.0420   30.9770   47.7720 C   0  0  0  0  0  0  0  0  0  0  0  0
   37.0380   30.0800   48.3870 C   0  0  2  0  0  0  0  0  0  0  0  0
   36.6290   31.6240   49.8750 H   0  0  0  0  0  0  0  0  0  0  0  0
   36.2720   31.2860   46.7240 H   0  0  0  0  0  0  0  0  0  0  0  0
   35.0670   31.3200   48.0150 H   0  0  0  0  0  0  0  0  0  0  0  0
   37.6840   29.6410   47.6460 H   0  0  0  0  0  0  0  0  0  0  0  0
   38.0850   32.3780   48.4040 C   0  0  0  0  0  0  0  0  0  0  0  0
   38.4570   33.3450   49.3680 C   0  0  0  0  0  0  0  0  0  0  0  0
   39.5130   34.1460   48.9900 C   0  0  0  0  0  0  0  0  0  0  0  0
   40.1150   33.9740   47.7710 N   0  0  0  0  0  0  0  0  0  0  0  0
   39.7220   33.0370   46.8910 C   0  0  0  0  0  0  0  0  0  0  0  0
   38.6750   32.2190   47.2230 N   0  0  0  0  0  0  0  0  0  0  0  0
   40.3390   32.8410   45.6500 N   0  0  0  0  0  0  0  0  0  0  0  0
   37.9740   33.4680   50.3240 H   0  0  0  0  0  0  0  0  0  0  0  0
   39.8710   34.9220   49.6720 H   0  0  0  0  0  0  0  0  0  0  0  0
   40.8220   33.6920   45.2470 H   0  0  0  0  0  0  0  0  0  0  0  0
   40.3050   31.9070   45.1820 H   0  0  0  0  0  0  0  0  0  0  0  0
   36.5600   29.1420   49.3010 O   0  0  0  0  0  0  0  0  0  0  0  0
   34.6420   27.4870   49.6550 O   0  0  0  0  0  0  0  0  0  0  0  0
   34.9150   28.8370   49.0040 P   0  0  1  0  0  0  0  0  0  0  0  0
   34.0100   29.9300   49.9170 O   0  0  0  0  0  0  0  0  0  0  0  0
   34.2630   30.8430   49.9400 H   0  0  0  0  0  0  0  0  0  0  0  0
   34.6450   28.8750   47.3960 O   0  0  0  0  0  0  0  0  0  0  0  0
   32.5200   28.0410   46.3690 C   0  0  0  0  0  0  0  0  0  0  0  0
   33.7980   28.5250   46.4570 C   0  0  0  0  0  0  0  0  0  0  0  0
   34.4360   28.7270   45.2170 C   0  0  0  0  0  0  0  0  0  0  0  0
   35.4320   29.0950   44.9890 H   0  0  0  0  0  0  0  0  0  0  0  0
   33.7980   28.4480   43.9970 C   0  0  0  0  0  0  0  0  0  0  0  0
   34.1930   28.5660   43.0060 H   0  0  0  0  0  0  0  0  0  0  0  0
   32.5000   27.9610   44.0450 C   0  0  0  0  0  3  0  0  0  0  0  0
   31.8230   27.7430   45.2240 C   0  0  0  0  0  3  0  0  0  0  0  0
   32.2370   28.5490   48.9080 H   0  0  0  0  0  0  0  0  0  0  0  0
   31.7600   27.8040   47.8990 S   0  0  0  0  0  0  0  0  0  0  0  0
   30.2690   28.1350   47.8150 O   0  0  0  0  0  0  0  0  0  0  0  0
   31.7960   26.3110   48.1800 O   0  0  0  0  0  0  0  0  0  0  0  0
  1  4  1  1  0  0  0
  2  6  1  0  0  0  0
  2  3  1  0  0  0  0
  2  1  1  0  0  0  0
  3  7  1  6  0  0  0
  3  1  1  0  0  0  0
  3 19  1  0  0  0  0
  5  2  1  0  0  0  0
  8  1  1  0  0  0  0
  8  9  1  0  0  0  0
  9 15  1  0  0  0  0
 10  9  2  0  0  0  0
 10 16  1  0  0  0  0
 11 10  1  0  0  0  0
 12 13  1  0  0  0  0
 12 11  2  0  0  0  0
 13  8  2  0  0  0  0
 14 12  1  0  0  0  0
 17 14  1  0  0  0  0
 18 14  1  0  0  0  0
 21 19  1  0  0  0  0
 21 20  2  1  0  0  0
 21 22  1  0  0  0  0
 22 23  1  0  0  0  0
 24 21  1  0  0  0  0
 25 26  1  0  0  0  0
 25 34  1  0  0  0  0
 26 24  1  0  0  0  0
 27 26  2  0  0  0  0
 28 27  1  0  0  0  0
 29 31  2  0  0  0  0
 29 27  1  0  0  0  0
 30 29  1  0  0  0  0
 31 32  1  0  0  0  0
 32 25  2  0  0  0  0
 34 36  2  0  0  0  0
 34 33  1  0  0  0  0
 35 34  2  0  0  0  0
M  END
>  <minimizedAffinity>
-4.52425623

>  <minimizedRMSD>
0.294847667

$$$$
