
 OpenBabel03272509463D

 28 29  0  0  0  0  0  0  0  0999 V2000
   34.0120   28.0170   49.0620 C   0  0  0  0  0  0  0  0  0  0  0  0
   34.7670   27.9750   48.2380 H   0  0  0  0  0  0  0  0  0  0  0  0
   34.1620   27.0810   49.6320 H   0  0  0  0  0  0  0  0  0  0  0  0
   32.6600   28.4630   47.1540 C   0  0  0  0  0  0  0  0  0  0  0  0
   32.6480   28.0210   48.4830 C   0  0  0  0  0  0  0  0  0  0  0  0
   31.4560   27.6630   49.0650 C   0  0  0  0  0  0  0  0  0  0  0  0
   31.5590   27.3370   50.0890 H   0  0  0  0  0  0  0  0  0  0  0  0
   30.2780   27.7330   48.3570 C   0  0  0  0  0  0  0  0  0  0  0  0
   29.3600   27.4330   48.8790 H   0  0  0  0  0  0  0  0  0  0  0  0
   30.2410   28.1620   47.0480 C   0  0  0  0  0  3  0  0  0  0  0  0
   31.4540   28.5280   46.4530 C   0  0  0  0  0  3  0  0  0  0  0  0
   35.1460   29.1630   46.9200 H   0  0  0  0  0  0  0  0  0  0  0  0
   34.0080   28.9740   46.1890 S   0  0  0  0  0  0  0  0  0  0  0  0
   34.2910   28.0410   45.0320 O   0  0  0  0  0  0  0  0  0  0  0  0
   33.6610   30.3440   45.6300 O   0  0  0  0  0  0  0  0  0  0  0  0
   34.2750   29.2190   49.9200 C   0  0  0  0  0  0  0  0  0  0  0  0
   34.2140   30.1080   49.2270 H   0  0  0  0  0  0  0  0  0  0  0  0
   33.4620   29.3700   50.6410 H   0  0  0  0  0  0  0  0  0  0  0  0
   35.5640   29.1550   50.4920 O   0  0  0  0  0  0  0  0  0  0  0  0
   38.4280   31.3390   50.2140 C   0  0  0  0  0  0  0  0  0  0  0  0
   38.2540   31.7960   48.8900 C   0  0  0  0  0  0  0  0  0  0  0  0
   37.1600   31.3250   48.1700 C   0  0  0  0  0  0  0  0  0  0  0  0
   36.3210   30.4450   48.7980 N   0  0  0  0  0  0  0  0  0  0  0  0
   36.5270   30.0380   50.0630 C   0  0  0  0  0  0  0  0  0  0  0  0
   37.5870   30.4900   50.7700 N   0  0  0  0  0  0  0  0  0  0  0  0
   39.2590   31.6820   50.7990 H   0  0  0  0  0  0  0  0  0  0  0  0
   38.9500   32.4950   48.4380 H   0  0  0  0  0  0  0  0  0  0  0  0
   36.9680   31.6330   47.1490 H   0  0  0  0  0  0  0  0  0  0  0  0
  1  3  1  0  0  0  0
  1 16  1  0  0  0  0
  2  1  1  0  0  0  0
  4  5  1  0  0  0  0
  5  1  1  0  0  0  0
  5  6  2  0  0  0  0
  6  7  1  0  0  0  0
  8  9  1  0  0  0  0
  8  6  1  0  0  0  0
 10  8  2  0  0  0  0
 11 10  1  0  0  0  0
 11  4  2  0  0  0  0
 13 12  1  0  0  0  0
 13  4  1  0  0  0  0
 14 13  2  0  0  0  0
 15 13  2  0  0  0  0
 16 19  1  0  0  0  0
 16 18  1  0  0  0  0
 17 16  1  0  0  0  0
 20 25  1  0  0  0  0
 20 26  1  0  0  0  0
 21 20  2  0  0  0  0
 22 23  2  0  0  0  0
 22 21  1  0  0  0  0
 23 24  1  0  0  0  0
 24 19  1  0  0  0  0
 24 25  2  0  0  0  0
 27 21  1  0  0  0  0
 28 22  1  0  0  0  0
M  END
>  <minimizedAffinity>
-4.24900579

>  <minimizedRMSD>
2.7245419

$$$$
