
 OpenBabel03272504093D

 36 38  0  0  0  0  0  0  0  0999 V2000
   36.5920   30.6740   49.7740 C   0  0  0  0  0  0  0  0  0  0  0  0
   36.4270   30.6510   48.4010 C   0  0  0  0  0  0  0  0  0  0  0  0
   35.2010   30.2010   47.8420 C   0  0  0  0  0  0  0  0  0  0  0  0
   34.2470   29.8130   48.7070 N   0  0  0  0  0  0  0  0  0  0  0  0
   34.4340   29.8460   50.0620 C   0  0  0  0  0  0  0  0  0  0  0  0
   35.5990   30.2740   50.5750 N   0  0  0  0  0  0  0  0  0  0  0  0
   33.3550   29.4180   50.8950 N   0  0  0  0  0  0  0  0  0  0  0  0
   37.5540   31.0300   50.1800 H   0  0  0  0  0  0  0  0  0  0  0  0
   33.0310   28.4570   51.0560 H   0  0  0  0  0  0  0  0  0  0  0  0
   32.9720   30.3190   51.3010 H   0  0  0  0  0  0  0  0  0  0  0  0
   37.8970   33.2430   49.0280 Cl  0  0  0  0  0  0  0  0  0  0  0  0
   38.3240   32.2380   47.6740 C   0  0  0  0  0  0  0  0  0  0  0  0
   37.5560   31.1110   47.5620 C   0  0  0  0  0  0  0  0  0  0  0  0
   37.8370   30.2360   46.5040 C   0  0  0  0  0  0  0  0  0  0  0  0
   38.8210   30.4650   45.6090 C   0  0  0  0  0  0  0  0  0  0  0  0
   39.5880   31.6170   45.7420 C   0  0  0  0  0  0  0  0  0  0  0  0
   40.8730   31.9660   44.6170 Cl  0  0  0  0  0  0  0  0  0  0  0  0
   39.3320   32.4720   46.7570 C   0  0  0  0  0  0  0  0  0  0  0  0
   37.3120   29.3080   46.3200 H   0  0  0  0  0  0  0  0  0  0  0  0
   39.0820   29.8200   44.7700 H   0  0  0  0  0  0  0  0  0  0  0  0
   39.9030   33.4030   46.9170 H   0  0  0  0  0  0  0  0  0  0  0  0
   35.0490   30.2060   46.3900 C   0  0  0  0  0  0  0  0  0  0  0  0
   35.4490   31.1610   45.9970 H   0  0  0  0  0  0  0  0  0  0  0  0
   35.7230   29.4170   45.9580 H   0  0  0  0  0  0  0  0  0  0  0  0
   33.0460   28.8140   45.6190 C   0  0  0  0  0  0  0  0  0  0  0  0
   33.6570   30.0170   45.9110 C   0  0  0  0  0  0  0  0  0  0  0  0
   32.8590   31.1460   45.7600 C   0  0  0  0  0  0  0  0  0  0  0  0
   33.3090   32.1260   45.9850 H   0  0  0  0  0  0  0  0  0  0  0  0
   31.5450   31.1590   45.3530 C   0  0  0  0  0  0  0  0  0  0  0  0
   31.0210   32.1250   45.2740 H   0  0  0  0  0  0  0  0  0  0  0  0
   30.9490   29.9410   45.0660 C   0  0  0  0  0  3  0  0  0  0  0  0
   31.7330   28.8080   45.2130 C   0  0  0  0  0  3  0  0  0  0  0  0
   34.9910   27.5460   46.6430 H   0  0  0  0  0  0  0  0  0  0  0  0
   33.9790   27.3590   45.7560 S   0  0  0  0  0  0  0  0  0  0  0  0
   33.0950   26.2530   46.3260 O   0  0  0  0  0  0  0  0  0  0  0  0
   34.4380   26.8320   44.4260 O   0  0  0  0  0  0  0  0  0  0  0  0
  1  8  1  0  0  0  0
  1  6  1  0  0  0  0
  2  1  2  0  0  0  0
  3  2  1  0  0  0  0
  3  4  2  0  0  0  0
  4  5  1  0  0  0  0
  5  6  2  0  0  0  0
  5  7  1  0  0  0  0
  7  9  1  0  0  0  0
  7 10  1  0  0  0  0
 12 11  1  0  0  0  0
 13 12  1  0  0  0  0
 13  2  1  0  0  0  0
 14 13  2  0  0  0  0
 15 16  2  0  0  0  0
 15 14  1  0  0  0  0
 16 18  1  0  0  0  0
 17 16  1  0  0  0  0
 18 21  1  0  0  0  0
 18 12  2  0  0  0  0
 19 14  1  0  0  0  0
 20 15  1  0  0  0  0
 22  3  1  0  0  0  0
 23 22  1  0  0  0  0
 24 22  1  0  0  0  0
 25 34  1  0  0  0  0
 25 26  1  0  0  0  0
 26 22  1  0  0  0  0
 27 26  2  0  0  0  0
 27 28  1  0  0  0  0
 29 27  1  0  0  0  0
 30 29  1  0  0  0  0
 31 32  1  0  0  0  0
 31 29  2  0  0  0  0
 32 25  2  0  0  0  0
 34 35  2  0  0  0  0
 34 33  1  0  0  0  0
 36 34  2  0  0  0  0
M  END
>  <minimizedAffinity>
-5.19844627

>  <minimizedRMSD>
1.54649544

$$$$
