
 OpenBabel03272506563D

 23 24  0  0  0  0  0  0  0  0999 V2000
   37.7120   25.5380   33.9060 C   0  0  0  0  0  0  0  0  0  0  0  0
   38.2760   25.6910   35.1430 C   0  0  0  0  0  0  0  0  0  0  0  0
   38.2000   26.9000   35.8180 C   0  0  0  0  0  0  0  0  0  0  0  0
   38.6340   27.0520   36.7930 H   0  0  0  0  0  0  0  0  0  0  0  0
   37.5530   27.9990   35.2690 C   0  0  0  0  0  0  0  0  0  0  0  0
   37.4560   28.9670   35.7360 H   0  0  0  0  0  0  0  0  0  0  0  0
   36.9950   27.8140   34.0200 C   0  0  0  0  0  3  0  0  0  0  0  0
   37.0550   26.6320   33.3340 C   0  0  0  0  0  3  0  0  0  0  0  0
   40.8420   23.2350   36.1210 C   0  0  0  0  0  0  0  0  0  0  0  0
   40.2350   22.5430   37.1700 C   0  0  0  0  0  0  0  0  0  0  0  0
   38.9380   22.9430   37.5220 C   0  0  0  0  0  0  0  0  0  0  0  0
   38.3690   23.9620   36.8270 N   0  0  0  0  0  0  0  0  0  0  0  0
   38.9860   24.6010   35.8250 C   0  0  0  0  0  0  0  0  0  0  0  0
   40.2350   24.2410   35.4630 N   0  0  0  0  0  0  0  0  0  0  0  0
   41.8400   22.9930   35.7860 H   0  0  0  0  0  0  0  0  0  0  0  0
   38.4560   22.4160   38.3310 H   0  0  0  0  0  0  0  0  0  0  0  0
   40.9230   21.4840   37.8350 N   0  0  0  0  0  0  0  0  0  0  0  0
   41.9480   21.4590   37.7490 H   0  0  0  0  0  0  0  0  0  0  0  0
   40.3580   20.7900   38.3730 H   0  0  0  0  0  0  0  0  0  0  0  0
   37.7260   22.9370   33.9200 H   0  0  0  0  0  0  0  0  0  0  0  0
   37.8120   24.0170   33.0680 S   0  0  0  0  0  0  0  0  0  0  0  0
   36.6010   23.8960   32.1570 O   0  0  0  0  0  0  0  0  0  0  0  0
   39.0210   23.9210   32.1860 O   0  0  0  0  0  0  0  0  0  0  0  0
  1  2  1  0  0  0  0
  2  3  2  0  0  0  0
  2 13  1  0  0  0  0
  3  4  1  0  0  0  0
  5  6  1  0  0  0  0
  5  3  1  0  0  0  0
  7  5  2  0  0  0  0
  8  1  2  0  0  0  0
  8  7  1  0  0  0  0
  9 10  1  0  0  0  0
 10 11  2  0  0  0  0
 10 17  1  0  0  0  0
 11 16  1  0  0  0  0
 12 11  1  0  0  0  0
 13 12  2  0  0  0  0
 14 13  1  0  0  0  0
 14  9  2  0  0  0  0
 15  9  1  0  0  0  0
 17 19  1  0  0  0  0
 18 17  1  0  0  0  0
 21  1  1  0  0  0  0
 21 20  1  0  0  0  0
 22 21  2  0  0  0  0
 23 21  2  0  0  0  0
M  END
>  <minimizedAffinity>
-4.79531908

$$$$

 OpenBabel03272506563D

 23 24  0  0  0  0  0  0  0  0999 V2000
   37.6450   25.5040   33.8450 C   0  0  0  0  0  0  0  0  0  0  0  0
   38.1780   25.6780   35.0930 C   0  0  0  0  0  0  0  0  0  0  0  0
   38.1020   26.9040   35.7390 C   0  0  0  0  0  0  0  0  0  0  0  0
   38.5120   27.0720   36.7210 H   0  0  0  0  0  0  0  0  0  0  0  0
   37.4850   27.9980   35.1480 C   0  0  0  0  0  0  0  0  0  0  0  0
   37.3890   28.9780   35.5900 H   0  0  0  0  0  0  0  0  0  0  0  0
   36.9570   27.7920   33.8890 C   0  0  0  0  0  3  0  0  0  0  0  0
   37.0190   26.5930   33.2330 C   0  0  0  0  0  3  0  0  0  0  0  0
   38.8960   22.9220   37.4300 C   0  0  0  0  0  0  0  0  0  0  0  0
   40.2130   22.5770   37.1200 C   0  0  0  0  0  0  0  0  0  0  0  0
   40.8320   23.3120   36.0990 C   0  0  0  0  0  0  0  0  0  0  0  0
   40.1180   24.2950   35.4910 N   0  0  0  0  0  0  0  0  0  0  0  0
   38.8550   24.5950   35.8190 C   0  0  0  0  0  0  0  0  0  0  0  0
   38.2310   23.9060   36.7970 N   0  0  0  0  0  0  0  0  0  0  0  0
   38.3440   22.4070   38.2040 H   0  0  0  0  0  0  0  0  0  0  0  0
   41.8500   23.0570   35.8480 H   0  0  0  0  0  0  0  0  0  0  0  0
   40.8730   21.5250   37.8230 N   0  0  0  0  0  0  0  0  0  0  0  0
   40.2810   20.8410   38.3130 H   0  0  0  0  0  0  0  0  0  0  0  0
   41.9170   21.5000   37.8060 H   0  0  0  0  0  0  0  0  0  0  0  0
   37.6270   22.9040   33.9200 H   0  0  0  0  0  0  0  0  0  0  0  0
   37.7450   23.9640   33.0450 S   0  0  0  0  0  0  0  0  0  0  0  0
   36.5530   23.8350   32.1110 O   0  0  0  0  0  0  0  0  0  0  0  0
   38.9720   23.8320   32.1930 O   0  0  0  0  0  0  0  0  0  0  0  0
  1  2  1  0  0  0  0
  2  3  2  0  0  0  0
  2 13  1  0  0  0  0
  3  4  1  0  0  0  0
  5  6  1  0  0  0  0
  5  3  1  0  0  0  0
  7  5  2  0  0  0  0
  8  1  2  0  0  0  0
  8  7  1  0  0  0  0
  9 15  1  0  0  0  0
 10  9  1  0  0  0  0
 10 17  1  0  0  0  0
 11 10  2  0  0  0  0
 12 13  2  0  0  0  0
 12 11  1  0  0  0  0
 13 14  1  0  0  0  0
 14  9  2  0  0  0  0
 16 11  1  0  0  0  0
 17 18  1  0  0  0  0
 19 17  1  0  0  0  0
 21  1  1  0  0  0  0
 21 20  1  0  0  0  0
 22 21  2  0  0  0  0
 23 21  2  0  0  0  0
M  END
>  <minimizedAffinity>
-4.73632097

$$$$

 OpenBabel03272506563D

 23 24  0  0  0  0  0  0  0  0999 V2000
   33.6380   30.4710   35.1430 C   0  0  0  0  0  0  0  0  0  0  0  0
   34.9070   30.5850   34.6450 C   0  0  0  0  0  0  0  0  0  0  0  0
   35.8540   31.3790   35.2750 C   0  0  0  0  0  0  0  0  0  0  0  0
   36.8610   31.4890   34.9070 H   0  0  0  0  0  0  0  0  0  0  0  0
   35.5540   32.0870   36.4310 C   0  0  0  0  0  0  0  0  0  0  0  0
   36.2380   32.7220   36.9720 H   0  0  0  0  0  0  0  0  0  0  0  0
   34.2660   31.9530   36.9080 C   0  0  0  0  0  3  0  0  0  0  0  0
   33.3150   31.1760   36.3060 C   0  0  0  0  0  3  0  0  0  0  0  0
   36.2450   28.0420   32.3380 C   0  0  0  0  0  0  0  0  0  0  0  0
   36.1270   28.6530   31.0890 C   0  0  0  0  0  0  0  0  0  0  0  0
   35.5820   29.9450   31.0690 C   0  0  0  0  0  0  0  0  0  0  0  0
   35.2120   30.5040   32.2490 N   0  0  0  0  0  0  0  0  0  0  0  0
   35.3420   29.8840   33.4290 C   0  0  0  0  0  0  0  0  0  0  0  0
   35.8620   28.6400   33.4830 N   0  0  0  0  0  0  0  0  0  0  0  0
   36.6540   27.0480   32.4460 H   0  0  0  0  0  0  0  0  0  0  0  0
   35.4850   30.4300   30.1100 H   0  0  0  0  0  0  0  0  0  0  0  0
   36.5490   27.9740   29.9070 N   0  0  0  0  0  0  0  0  0  0  0  0
   36.6320   26.9500   29.9550 H   0  0  0  0  0  0  0  0  0  0  0  0
   36.7500   28.5450   29.0550 H   0  0  0  0  0  0  0  0  0  0  0  0
   33.0080   28.3240   33.8160 H   0  0  0  0  0  0  0  0  0  0  0  0
   32.4580   29.4720   34.3460 S   0  0  0  0  0  0  0  0  0  0  0  0
   31.4640   28.9870   35.3880 O   0  0  0  0  0  0  0  0  0  0  0  0
   31.6660   30.2220   33.3160 O   0  0  0  0  0  0  0  0  0  0  0  0
  1  8  1  0  0  0  0
  2  1  2  0  0  0  0
  2  3  1  0  0  0  0
  3  5  2  0  0  0  0
  4  3  1  0  0  0  0
  5  7  1  0  0  0  0
  5  6  1  0  0  0  0
  8  7  2  0  0  0  0
  9 15  1  0  0  0  0
  9 14  1  0  0  0  0
 10  9  2  0  0  0  0
 11 10  1  0  0  0  0
 11 12  2  0  0  0  0
 12 13  1  0  0  0  0
 13 14  2  0  0  0  0
 13  2  1  0  0  0  0
 16 11  1  0  0  0  0
 17 18  1  0  0  0  0
 17 10  1  0  0  0  0
 19 17  1  0  0  0  0
 20 21  1  0  0  0  0
 21  1  1  0  0  0  0
 21 22  2  0  0  0  0
 23 21  2  0  0  0  0
M  END
>  <minimizedAffinity>
-4.5086174

$$$$

 OpenBabel03272506563D

 23 24  0  0  0  0  0  0  0  0999 V2000
   38.0270   26.2830   33.8750 C   0  0  0  0  0  0  0  0  0  0  0  0
   37.9950   24.9150   33.8680 C   0  0  0  0  0  0  0  0  0  0  0  0
   37.3010   24.2220   32.8870 C   0  0  0  0  0  0  0  0  0  0  0  0
   37.2570   23.1450   32.8550 H   0  0  0  0  0  0  0  0  0  0  0  0
   36.6150   24.8830   31.8780 C   0  0  0  0  0  0  0  0  0  0  0  0
   36.0560   24.4100   31.0860 H   0  0  0  0  0  0  0  0  0  0  0  0
   36.6650   26.2620   31.9130 C   0  0  0  0  0  3  0  0  0  0  0  0
   37.3430   26.9690   32.8680 C   0  0  0  0  0  3  0  0  0  0  0  0
   40.5420   22.9580   35.6730 C   0  0  0  0  0  0  0  0  0  0  0  0
   39.8860   22.5900   36.8490 C   0  0  0  0  0  0  0  0  0  0  0  0
   38.5620   23.0320   36.9960 C   0  0  0  0  0  0  0  0  0  0  0  0
   38.0190   23.7750   35.9980 N   0  0  0  0  0  0  0  0  0  0  0  0
   38.6830   24.1060   34.8830 C   0  0  0  0  0  0  0  0  0  0  0  0
   39.9570   23.6970   34.7110 N   0  0  0  0  0  0  0  0  0  0  0  0
   41.5620   22.6610   35.4790 H   0  0  0  0  0  0  0  0  0  0  0  0
   38.0420   22.7550   37.9000 H   0  0  0  0  0  0  0  0  0  0  0  0
   40.5510   21.8040   37.8360 N   0  0  0  0  0  0  0  0  0  0  0  0
   41.5800   21.7910   37.8150 H   0  0  0  0  0  0  0  0  0  0  0  0
   39.9670   21.2850   38.5290 H   0  0  0  0  0  0  0  0  0  0  0  0
   38.7400   28.5100   35.0150 H   0  0  0  0  0  0  0  0  0  0  0  0
   38.9010   27.1430   35.1080 S   0  0  0  0  0  0  0  0  0  0  0  0
   38.3100   26.7700   36.4580 O   0  0  0  0  0  0  0  0  0  0  0  0
   40.3520   26.7680   35.1580 O   0  0  0  0  0  0  0  0  0  0  0  0
  1 21  1  0  0  0  0
  2  1  1  0  0  0  0
  2 13  1  0  0  0  0
  3  2  2  0  0  0  0
  4  3  1  0  0  0  0
  5  7  2  0  0  0  0
  5  3  1  0  0  0  0
  6  5  1  0  0  0  0
  7  8  1  0  0  0  0
  8  1  2  0  0  0  0
  9 10  1  0  0  0  0
 10 11  2  0  0  0  0
 10 17  1  0  0  0  0
 11 16  1  0  0  0  0
 12 11  1  0  0  0  0
 13 12  2  0  0  0  0
 14 13  1  0  0  0  0
 14  9  2  0  0  0  0
 15  9  1  0  0  0  0
 17 19  1  0  0  0  0
 18 17  1  0  0  0  0
 20 21  1  0  0  0  0
 21 23  2  0  0  0  0
 21 22  2  0  0  0  0
M  END
>  <minimizedAffinity>
-4.47228956

$$$$

 OpenBabel03272506563D

 23 24  0  0  0  0  0  0  0  0999 V2000
   39.0440   25.1830   33.3150 C   0  0  0  0  0  0  0  0  0  0  0  0
   39.5680   25.5060   34.5380 C   0  0  0  0  0  0  0  0  0  0  0  0
   40.4500   26.5670   34.6800 C   0  0  0  0  0  0  0  0  0  0  0  0
   40.8790   26.8450   35.6290 H   0  0  0  0  0  0  0  0  0  0  0  0
   40.8360   27.3410   33.5940 C   0  0  0  0  0  0  0  0  0  0  0  0
   41.5160   28.1770   33.6310 H   0  0  0  0  0  0  0  0  0  0  0  0
   40.2920   26.9900   32.3750 C   0  0  0  0  0  3  0  0  0  0  0  0
   39.4190   25.9500   32.2080 C   0  0  0  0  0  3  0  0  0  0  0  0
   37.9640   24.4350   37.6770 C   0  0  0  0  0  0  0  0  0  0  0  0
   38.6850   23.2930   38.0280 C   0  0  0  0  0  0  0  0  0  0  0  0
   39.7220   22.9120   37.1640 C   0  0  0  0  0  0  0  0  0  0  0  0
   39.9490   23.6700   36.0610 N   0  0  0  0  0  0  0  0  0  0  0  0
   39.2340   24.7610   35.7590 C   0  0  0  0  0  0  0  0  0  0  0  0
   38.2300   25.1540   36.5700 N   0  0  0  0  0  0  0  0  0  0  0  0
   37.1490   24.7990   38.2860 H   0  0  0  0  0  0  0  0  0  0  0  0
   40.2880   22.0300   37.4230 H   0  0  0  0  0  0  0  0  0  0  0  0
   38.3630   22.5670   39.2140 N   0  0  0  0  0  0  0  0  0  0  0  0
   37.4250   22.7060   39.6120 H   0  0  0  0  0  0  0  0  0  0  0  0
   39.0890   21.9340   39.6180 H   0  0  0  0  0  0  0  0  0  0  0  0
   37.1200   23.7020   34.2470 H   0  0  0  0  0  0  0  0  0  0  0  0
   37.9380   23.8520   33.1470 S   0  0  0  0  0  0  0  0  0  0  0  0
   36.9950   24.1610   31.9960 O   0  0  0  0  0  0  0  0  0  0  0  0
   38.6280   22.5660   32.8020 O   0  0  0  0  0  0  0  0  0  0  0  0
  1  2  1  0  0  0  0
  2  3  2  0  0  0  0
  2 13  1  0  0  0  0
  3  4  1  0  0  0  0
  5  6  1  0  0  0  0
  5  3  1  0  0  0  0
  7  5  2  0  0  0  0
  8  7  1  0  0  0  0
  8  1  2  0  0  0  0
  9 10  1  0  0  0  0
  9 15  1  0  0  0  0
 10 17  1  0  0  0  0
 11 16  1  0  0  0  0
 11 10  2  0  0  0  0
 12 11  1  0  0  0  0
 13 12  2  0  0  0  0
 13 14  1  0  0  0  0
 14  9  2  0  0  0  0
 17 18  1  0  0  0  0
 17 19  1  0  0  0  0
 21  1  1  0  0  0  0
 21 20  1  0  0  0  0
 22 21  2  0  0  0  0
 23 21  2  0  0  0  0
M  END
>  <minimizedAffinity>
-4.46458626

$$$$

 OpenBabel03272506563D

 23 24  0  0  0  0  0  0  0  0999 V2000
   39.3220   23.3820   36.6680 C   0  0  0  0  0  0  0  0  0  0  0  0
   39.7280   24.3100   35.7480 C   0  0  0  0  0  0  0  0  0  0  0  0
   41.0220   24.3040   35.2500 C   0  0  0  0  0  0  0  0  0  0  0  0
   41.3710   25.0220   34.5250 H   0  0  0  0  0  0  0  0  0  0  0  0
   41.9550   23.3620   35.6620 C   0  0  0  0  0  0  0  0  0  0  0  0
   42.9760   23.2990   35.3180 H   0  0  0  0  0  0  0  0  0  0  0  0
   41.5170   22.4400   36.5910 C   0  0  0  0  0  3  0  0  0  0  0  0
   40.2460   22.4240   37.0970 C   0  0  0  0  0  3  0  0  0  0  0  0
   37.8650   27.4640   35.3580 C   0  0  0  0  0  0  0  0  0  0  0  0
   37.1240   27.2540   34.1950 C   0  0  0  0  0  0  0  0  0  0  0  0
   37.2850   26.0130   33.5610 C   0  0  0  0  0  0  0  0  0  0  0  0
   38.1380   25.1140   34.1160 N   0  0  0  0  0  0  0  0  0  0  0  0
   38.8310   25.3550   35.2360 C   0  0  0  0  0  0  0  0  0  0  0  0
   38.7000   26.5400   35.8700 N   0  0  0  0  0  0  0  0  0  0  0  0
   37.8010   28.3920   35.9090 H   0  0  0  0  0  0  0  0  0  0  0  0
   36.7180   25.8360   32.6600 H   0  0  0  0  0  0  0  0  0  0  0  0
   36.2520   28.2680   33.6960 N   0  0  0  0  0  0  0  0  0  0  0  0
   36.4210   29.2320   34.0110 H   0  0  0  0  0  0  0  0  0  0  0  0
   35.4920   27.9850   33.0380 H   0  0  0  0  0  0  0  0  0  0  0  0
   37.0340   24.5730   37.0040 H   0  0  0  0  0  0  0  0  0  0  0  0
   37.6970   23.3970   37.2860 S   0  0  0  0  0  0  0  0  0  0  0  0
   36.9050   22.3180   36.5660 O   0  0  0  0  0  0  0  0  0  0  0  0
   37.6310   23.0720   38.7490 O   0  0  0  0  0  0  0  0  0  0  0  0
  1  8  1  0  0  0  0
  1 21  1  0  0  0  0
  2  1  2  0  0  0  0
  3  5  2  0  0  0  0
  3  2  1  0  0  0  0
  4  3  1  0  0  0  0
  5  7  1  0  0  0  0
  6  5  1  0  0  0  0
  7  8  2  0  0  0  0
  9 14  1  0  0  0  0
  9 15  1  0  0  0  0
 10  9  2  0  0  0  0
 11 12  2  0  0  0  0
 11 10  1  0  0  0  0
 12 13  1  0  0  0  0
 13  2  1  0  0  0  0
 13 14  2  0  0  0  0
 16 11  1  0  0  0  0
 17 18  1  0  0  0  0
 17 10  1  0  0  0  0
 19 17  1  0  0  0  0
 20 21  1  0  0  0  0
 21 23  2  0  0  0  0
 22 21  2  0  0  0  0
M  END
>  <minimizedAffinity>
-4.41109514

$$$$

 OpenBabel03272506563D

 23 24  0  0  0  0  0  0  0  0999 V2000
   39.7440   23.0930   36.4090 C   0  0  0  0  0  0  0  0  0  0  0  0
   38.6370   23.7730   35.9810 C   0  0  0  0  0  0  0  0  0  0  0  0
   37.6980   24.2510   36.8840 C   0  0  0  0  0  0  0  0  0  0  0  0
   36.8160   24.7900   36.5770 H   0  0  0  0  0  0  0  0  0  0  0  0
   37.8430   24.0600   38.2510 C   0  0  0  0  0  0  0  0  0  0  0  0
   37.1540   24.4020   39.0080 H   0  0  0  0  0  0  0  0  0  0  0  0
   38.9690   23.3700   38.6520 C   0  0  0  0  0  3  0  0  0  0  0  0
   39.9100   22.8900   37.7820 C   0  0  0  0  0  3  0  0  0  0  0  0
   38.5220   25.3710   32.6630 C   0  0  0  0  0  0  0  0  0  0  0  0
   37.8350   24.4380   31.8850 C   0  0  0  0  0  0  0  0  0  0  0  0
   37.4210   23.2630   32.5290 C   0  0  0  0  0  0  0  0  0  0  0  0
   37.7130   23.1170   33.8470 N   0  0  0  0  0  0  0  0  0  0  0  0
   38.3750   24.0370   34.5590 C   0  0  0  0  0  0  0  0  0  0  0  0
   38.7870   25.1780   33.9690 N   0  0  0  0  0  0  0  0  0  0  0  0
   38.8770   26.3030   32.2460 H   0  0  0  0  0  0  0  0  0  0  0  0
   36.8880   22.5330   31.9400 H   0  0  0  0  0  0  0  0  0  0  0  0
   37.5790   24.6920   30.5040 N   0  0  0  0  0  0  0  0  0  0  0  0
   38.1680   25.3940   30.0360 H   0  0  0  0  0  0  0  0  0  0  0  0
   36.8130   24.1570   30.0370 H   0  0  0  0  0  0  0  0  0  0  0  0
   40.3480   22.1390   34.0650 H   0  0  0  0  0  0  0  0  0  0  0  0
   40.9160   22.5000   35.2690 S   0  0  0  0  0  0  0  0  0  0  0  0
   41.8670   23.6360   34.9300 O   0  0  0  0  0  0  0  0  0  0  0  0
   41.7570   21.3910   35.8280 O   0  0  0  0  0  0  0  0  0  0  0  0
  1  8  1  0  0  0  0
  2  1  2  0  0  0  0
  2  3  1  0  0  0  0
  3  5  2  0  0  0  0
  4  3  1  0  0  0  0
  5  7  1  0  0  0  0
  5  6  1  0  0  0  0
  8  7  2  0  0  0  0
  9 14  1  0  0  0  0
 10 11  1  0  0  0  0
 10  9  2  0  0  0  0
 11 12  2  0  0  0  0
 12 13  1  0  0  0  0
 13  2  1  0  0  0  0
 14 13  2  0  0  0  0
 15  9  1  0  0  0  0
 16 11  1  0  0  0  0
 17 10  1  0  0  0  0
 18 17  1  0  0  0  0
 19 17  1  0  0  0  0
 20 21  1  0  0  0  0
 21 23  2  0  0  0  0
 21  1  1  0  0  0  0
 22 21  2  0  0  0  0
M  END
>  <minimizedAffinity>
-4.32854939

$$$$

 OpenBabel03272506563D

 23 24  0  0  0  0  0  0  0  0999 V2000
   37.2100   24.2830   32.5530 C   0  0  0  0  0  0  0  0  0  0  0  0
   36.2340   23.7250   31.7730 C   0  0  0  0  0  0  0  0  0  0  0  0
   35.3490   24.5200   31.0590 C   0  0  0  0  0  0  0  0  0  0  0  0
   34.5700   24.1100   30.4360 H   0  0  0  0  0  0  0  0  0  0  0  0
   35.4170   25.9050   31.1060 C   0  0  0  0  0  0  0  0  0  0  0  0
   34.7630   26.5830   30.5790 H   0  0  0  0  0  0  0  0  0  0  0  0
   36.4110   26.4380   31.9020 C   0  0  0  0  0  3  0  0  0  0  0  0
   37.2960   25.6770   32.6140 C   0  0  0  0  0  3  0  0  0  0  0  0
   36.6400   20.2150   30.7290 C   0  0  0  0  0  0  0  0  0  0  0  0
   35.6660   19.5480   31.4730 C   0  0  0  0  0  0  0  0  0  0  0  0
   34.8800   20.3330   32.3300 C   0  0  0  0  0  0  0  0  0  0  0  0
   35.1180   21.6690   32.3750 N   0  0  0  0  0  0  0  0  0  0  0  0
   36.0640   22.2720   31.6430 C   0  0  0  0  0  0  0  0  0  0  0  0
   36.8370   21.5450   30.8100 N   0  0  0  0  0  0  0  0  0  0  0  0
   37.2890   19.6880   30.0450 H   0  0  0  0  0  0  0  0  0  0  0  0
   34.1230   19.8310   32.9110 H   0  0  0  0  0  0  0  0  0  0  0  0
   35.4980   18.1360   31.3490 N   0  0  0  0  0  0  0  0  0  0  0  0
   36.2880   17.5990   30.9660 H   0  0  0  0  0  0  0  0  0  0  0  0
   34.5900   17.7190   31.6520 H   0  0  0  0  0  0  0  0  0  0  0  0
   38.8140   22.2400   32.6860 H   0  0  0  0  0  0  0  0  0  0  0  0
   38.3160   23.2790   33.4430 S   0  0  0  0  0  0  0  0  0  0  0  0
   39.5300   24.1170   33.8080 O   0  0  0  0  0  0  0  0  0  0  0  0
   37.7350   22.7820   34.7340 O   0  0  0  0  0  0  0  0  0  0  0  0
  1  8  1  0  0  0  0
  1 21  1  0  0  0  0
  2  1  2  0  0  0  0
  3  5  2  0  0  0  0
  3  2  1  0  0  0  0
  4  3  1  0  0  0  0
  5  7  1  0  0  0  0
  6  5  1  0  0  0  0
  7  8  2  0  0  0  0
  9 14  2  0  0  0  0
  9 10  1  0  0  0  0
 10 11  2  0  0  0  0
 11 12  1  0  0  0  0
 11 16  1  0  0  0  0
 13  2  1  0  0  0  0
 13 12  2  0  0  0  0
 14 13  1  0  0  0  0
 15  9  1  0  0  0  0
 17 10  1  0  0  0  0
 17 19  1  0  0  0  0
 18 17  1  0  0  0  0
 20 21  1  0  0  0  0
 21 22  2  0  0  0  0
 21 23  2  0  0  0  0
M  END
>  <minimizedAffinity>
-4.27963829

$$$$

 OpenBabel03272506563D

 23 24  0  0  0  0  0  0  0  0999 V2000
   39.8780   24.0150   35.7980 C   0  0  0  0  0  0  0  0  0  0  0  0
   38.6840   24.6060   36.1100 C   0  0  0  0  0  0  0  0  0  0  0  0
   38.0180   24.2930   37.2860 C   0  0  0  0  0  0  0  0  0  0  0  0
   37.0760   24.7420   37.5590 H   0  0  0  0  0  0  0  0  0  0  0  0
   38.5320   23.3740   38.1900 C   0  0  0  0  0  0  0  0  0  0  0  0
   38.0700   23.0830   39.1200 H   0  0  0  0  0  0  0  0  0  0  0  0
   39.7370   22.7940   37.8470 C   0  0  0  0  0  3  0  0  0  0  0  0
   40.4140   23.0860   36.6950 C   0  0  0  0  0  3  0  0  0  0  0  0
   37.0030   26.1990   33.2450 C   0  0  0  0  0  0  0  0  0  0  0  0
   36.8470   27.5210   33.6630 C   0  0  0  0  0  0  0  0  0  0  0  0
   37.3320   27.8390   34.9400 C   0  0  0  0  0  0  0  0  0  0  0  0
   37.9100   26.8520   35.6720 N   0  0  0  0  0  0  0  0  0  0  0  0
   38.0410   25.5930   35.2330 C   0  0  0  0  0  0  0  0  0  0  0  0
   37.5850   25.2550   34.0090 N   0  0  0  0  0  0  0  0  0  0  0  0
   36.6580   25.8680   32.2760 H   0  0  0  0  0  0  0  0  0  0  0  0
   37.2190   28.8580   35.2770 H   0  0  0  0  0  0  0  0  0  0  0  0
   36.2230   28.4830   32.8130 N   0  0  0  0  0  0  0  0  0  0  0  0
   35.6240   28.1260   32.0570 H   0  0  0  0  0  0  0  0  0  0  0  0
   36.4010   29.4950   32.9990 H   0  0  0  0  0  0  0  0  0  0  0  0
   39.9160   25.1330   33.4500 H   0  0  0  0  0  0  0  0  0  0  0  0
   40.7060   24.4140   34.3220 S   0  0  0  0  0  0  0  0  0  0  0  0
   41.8620   25.3410   34.6610 O   0  0  0  0  0  0  0  0  0  0  0  0
   41.3040   23.2130   33.6510 O   0  0  0  0  0  0  0  0  0  0  0  0
  1  2  2  0  0  0  0
  1  8  1  0  0  0  0
  2  3  1  0  0  0  0
  3  4  1  0  0  0  0
  3  5  2  0  0  0  0
  5  6  1  0  0  0  0
  7  5  1  0  0  0  0
  8  7  2  0  0  0  0
  9 10  2  0  0  0  0
  9 14  1  0  0  0  0
 10 11  1  0  0  0  0
 11 16  1  0  0  0  0
 11 12  2  0  0  0  0
 13 12  1  0  0  0  0
 13  2  1  0  0  0  0
 14 13  2  0  0  0  0
 15  9  1  0  0  0  0
 17 19  1  0  0  0  0
 17 10  1  0  0  0  0
 18 17  1  0  0  0  0
 20 21  1  0  0  0  0
 21 22  2  0  0  0  0
 21  1  1  0  0  0  0
 23 21  2  0  0  0  0
M  END
>  <minimizedAffinity>
-4.26324844

$$$$
