
 OpenBabel03272510023D

 24 25  0  0  0  0  0  0  0  0999 V2000
   38.2280   31.3480   49.8210 C   0  0  0  0  0  0  0  0  0  0  0  0
   38.2500   31.4190   48.4100 C   0  0  0  0  0  0  0  0  0  0  0  0
   37.2370   30.7950   47.7020 C   0  0  0  0  0  0  0  0  0  0  0  0
   36.2960   30.1580   48.4360 N   0  0  0  0  0  0  0  0  0  0  0  0
   36.2840   30.0950   49.7690 C   0  0  0  0  0  0  0  0  0  0  0  0
   37.2520   30.6920   50.4540 N   0  0  0  0  0  0  0  0  0  0  0  0
   38.9720   31.8020   50.4290 H   0  0  0  0  0  0  0  0  0  0  0  0
   39.0470   31.9530   47.9210 H   0  0  0  0  0  0  0  0  0  0  0  0
   38.2250   31.2910   45.5070 C   0  0  0  0  0  0  0  0  0  0  0  0
   37.1750   30.8150   46.2470 C   0  0  0  0  0  0  0  0  0  0  0  0
   36.0840   30.3690   45.5490 C   0  0  0  0  0  0  0  0  0  0  0  0
   35.2070   29.9760   46.0430 H   0  0  0  0  0  0  0  0  0  0  0  0
   35.9760   30.3670   44.1750 C   0  0  0  0  0  0  0  0  0  0  0  0
   35.1110   30.0130   43.6410 H   0  0  0  0  0  0  0  0  0  0  0  0
   37.0290   30.8440   43.4240 C   0  0  0  0  0  3  0  0  0  0  0  0
   38.1330   31.2960   44.1140 C   0  0  0  0  0  3  0  0  0  0  0  0
   39.6920   31.7760   47.5970 H   0  0  0  0  0  0  0  0  0  0  0  0
   39.6900   31.8960   46.2460 S   0  0  0  0  0  0  0  0  0  0  0  0
   39.9710   33.3200   45.7830 O   0  0  0  0  0  0  0  0  0  0  0  0
   40.8770   31.0990   45.7530 O   0  0  0  0  0  0  0  0  0  0  0  0
   35.1760   29.3560   50.4140 C   0  0  0  0  0  0  0  0  0  0  0  0
   35.3980   29.1530   51.7740 F   0  0  0  0  0  0  0  0  0  0  0  0
   33.9700   30.0730   50.3390 F   0  0  0  0  0  0  0  0  0  0  0  0
   34.9150   28.1310   49.8780 F   0  0  0  0  0  0  0  0  0  0  0  0
  1  7  1  0  0  0  0
  1  6  1  0  0  0  0
  2  1  2  0  0  0  0
  3  2  1  0  0  0  0
  3  4  2  0  0  0  0
  4  5  1  0  0  0  0
  5 21  1  0  0  0  0
  5  6  2  0  0  0  0
  8  2  1  0  0  0  0
  9 18  1  0  0  0  0
  9 10  1  0  0  0  0
 10  3  1  0  0  0  0
 11 12  1  0  0  0  0
 11 10  2  0  0  0  0
 13 11  1  0  0  0  0
 14 13  1  0  0  0  0
 15 16  1  0  0  0  0
 15 13  2  0  0  0  0
 16  9  2  0  0  0  0
 18 17  1  0  0  0  0
 19 18  2  0  0  0  0
 20 18  2  0  0  0  0
 21 22  1  0  0  0  0
 23 21  1  0  0  0  0
 24 21  1  0  0  0  0
M  END
>  <minimizedAffinity>
-5.74205494

>  <minimizedRMSD>
0.87179327

$$$$
