
 OpenBabel03272509573D

 49 52  0  0  0  0  0  0  0  0999 V2000
   33.5240   27.5360   47.6410 C   0  0  0  0  0  0  0  0  0  0  0  0
   33.7250   26.5810   48.1450 H   0  0  0  0  0  0  0  0  0  0  0  0
   33.7750   27.3650   46.5680 H   0  0  0  0  0  0  0  0  0  0  0  0
   32.0760   27.8870   47.7490 C   0  0  0  0  0  0  0  0  0  0  0  0
   31.3930   27.4230   48.8560 C   0  0  0  0  0  0  0  0  0  0  0  0
   30.0620   27.7010   49.0300 C   0  0  0  0  0  0  0  0  0  0  0  0
   29.4170   28.4210   48.1270 N   0  0  0  0  0  0  0  0  0  0  0  0
   30.0930   28.8810   47.0310 C   0  0  0  0  0  0  0  0  0  0  0  0
   31.3940   28.6140   46.8570 N   0  0  0  0  0  0  0  0  0  0  0  0
   31.9000   26.8390   49.5940 H   0  0  0  0  0  0  0  0  0  0  0  0
   29.5070   27.3410   49.8990 H   0  0  0  0  0  0  0  0  0  0  0  0
   29.3340   29.6910   46.0460 C   0  0  0  0  0  0  0  0  0  0  0  0
   28.7870   30.4790   46.6440 H   0  0  0  0  0  0  0  0  0  0  0  0
   30.0610   30.3040   45.4430 H   0  0  0  0  0  0  0  0  0  0  0  0
   28.6950   28.3510   44.0140 C   0  0  0  0  0  0  0  0  0  0  0  0
   28.3870   28.9250   45.2250 C   0  0  0  0  0  0  0  0  0  0  0  0
   27.0810   28.7640   45.7070 C   0  0  0  0  0  0  0  0  0  0  0  0
   26.8220   29.2090   46.6560 H   0  0  0  0  0  0  0  0  0  0  0  0
   26.1020   28.0650   45.0330 C   0  0  0  0  0  0  0  0  0  0  0  0
   25.1010   27.9710   45.4560 H   0  0  0  0  0  0  0  0  0  0  0  0
   26.3950   27.4840   43.8190 C   0  0  0  0  0  3  0  0  0  0  0  0
   27.6850   27.6470   43.3490 C   0  0  0  0  0  3  0  0  0  0  0  0
   31.2690   28.1280   44.2340 H   0  0  0  0  0  0  0  0  0  0  0  0
   30.2850   28.5020   43.3370 S   0  0  0  0  0  0  0  0  0  0  0  0
   30.5540   29.8020   42.6740 O   0  0  0  0  0  0  0  0  0  0  0  0
   30.3790   27.4520   42.2310 O   0  0  0  0  0  0  0  0  0  0  0  0
   34.4190   28.6480   48.1350 C   0  0  0  0  0  0  0  0  0  0  0  0
   35.2950   28.8070   47.5050 H   0  0  0  0  0  0  0  0  0  0  0  0
   33.8290   29.5910   48.1410 H   0  0  0  0  0  0  0  0  0  0  0  0
   34.7950   28.4290   49.4880 O   0  0  0  0  0  0  0  0  0  0  0  0
   37.2010   30.0420   51.6370 C   0  0  0  0  0  0  0  0  0  0  0  0
   37.9620   30.7470   50.6790 C   0  0  0  0  0  0  0  0  0  0  0  0
   37.5920   30.6180   49.3470 C   0  0  0  0  0  0  0  0  0  0  0  0
   36.5150   29.8130   49.0840 N   0  0  0  0  0  0  0  0  0  0  0  0
   35.8100   29.1560   50.0080 C   0  0  0  0  0  0  0  0  0  0  0  0
   36.1670   29.2800   51.2940 N   0  0  0  0  0  0  0  0  0  0  0  0
   37.5070   30.1580   52.6680 H   0  0  0  0  0  0  0  0  0  0  0  0
   38.8100   31.3790   50.9020 H   0  0  0  0  0  0  0  0  0  0  0  0
   38.8150   33.2480   49.2530 F   0  0  0  0  0  0  0  0  0  0  0  0
   38.8260   32.4810   48.1680 C   0  0  0  0  0  0  0  0  0  0  0  0
   38.2550   31.2650   48.2330 C   0  0  0  0  0  0  0  0  0  0  0  0
   38.3210   30.5350   47.0360 C   0  0  0  0  0  0  0  0  0  0  0  0
   38.9210   31.0360   45.9080 C   0  0  0  0  0  0  0  0  0  0  0  0
   39.4910   32.2780   45.8830 C   0  0  0  0  0  0  0  0  0  0  0  0
   39.4260   32.9810   47.0400 C   0  0  0  0  0  0  0  0  0  0  0  0
   37.8840   29.5340   46.9860 H   0  0  0  0  0  0  0  0  0  0  0  0
   38.9340   30.4110   45.0130 H   0  0  0  0  0  0  0  0  0  0  0  0
   39.9490   32.6190   44.9680 H   0  0  0  0  0  0  0  0  0  0  0  0
   39.8760   33.9870   47.0570 H   0  0  0  0  0  0  0  0  0  0  0  0
  1  4  1  0  0  0  0
  1 27  1  0  0  0  0
  1  2  1  0  0  0  0
  3  1  1  0  0  0  0
  4  5  1  0  0  0  0
  5  6  2  0  0  0  0
  5 10  1  0  0  0  0
  6 11  1  0  0  0  0
  7  6  1  0  0  0  0
  8  7  2  0  0  0  0
  9  8  1  0  0  0  0
  9  4  2  0  0  0  0
 12 13  1  0  0  0  0
 12  8  1  0  0  0  0
 14 12  1  0  0  0  0
 15 16  1  0  0  0  0
 16 17  2  0  0  0  0
 16 12  1  0  0  0  0
 17 18  1  0  0  0  0
 19 20  1  0  0  0  0
 19 17  1  0  0  0  0
 21 19  2  0  0  0  0
 22 21  1  0  0  0  0
 22 15  2  0  0  0  0
 24 15  1  0  0  0  0
 24 23  1  0  0  0  0
 25 24  2  0  0  0  0
 26 24  2  0  0  0  0
 27 29  1  0  0  0  0
 27 30  1  0  0  0  0
 28 27  1  0  0  0  0
 30 35  1  0  0  0  0
 31 37  1  0  0  0  0
 32 38  1  0  0  0  0
 32 31  2  0  0  0  0
 33 32  1  0  0  0  0
 34 33  2  0  0  0  0
 34 35  1  0  0  0  0
 35 36  2  0  0  0  0
 36 31  1  0  0  0  0
 40 41  1  0  0  0  0
 40 39  1  0  0  0  0
 41 33  1  0  0  0  0
 42 41  2  0  0  0  0
 43 42  1  0  0  0  0
 44 43  2  0  0  0  0
 44 45  1  0  0  0  0
 45 49  1  0  0  0  0
 45 40  2  0  0  0  0
 46 42  1  0  0  0  0
 47 43  1  0  0  0  0
 48 44  1  0  0  0  0
M  END
>  <minimizedAffinity>
-6.38147354

>  <minimizedRMSD>
0.640594721

$$$$
