
 OpenBabel03262520263D

 45 48  0  0  0  0  0  0  0  0999 V2000
   37.8680   24.9610   33.6410 C   0  0  0  0  0  0  0  0  0  0  0  0
   37.3900   24.1470   32.6050 C   0  0  0  0  0  0  0  0  0  0  0  0
   36.6580   24.5650   31.5460 C   0  0  0  0  0  0  0  0  0  0  0  0
   36.3250   25.8640   31.4150 C   0  0  0  0  0  0  0  0  0  0  0  0
   36.7840   26.6620   32.4150 C   0  0  0  0  0  0  0  0  0  0  0  0
   37.4920   26.2070   33.4230 N   0  0  0  0  0  0  0  0  0  0  0  0
   37.6160   23.0580   32.6290 H   0  0  0  0  0  0  0  0  0  0  0  0
   36.3240   23.8360   30.7720 H   0  0  0  0  0  0  0  0  0  0  0  0
   35.7490   26.2860   30.6120 H   0  0  0  0  0  0  0  0  0  0  0  0
   37.9500   23.2930   35.3160 C   0  0  0  0  0  0  0  0  0  0  0  0
   38.6600   24.3880   34.7190 C   0  0  0  0  0  0  0  0  0  0  0  0
   39.8910   24.6700   35.2370 C   0  0  0  0  0  0  0  0  0  0  0  0
   40.3420   23.8900   36.2740 N   0  0  0  0  0  0  0  0  0  0  0  0
   39.6730   22.8800   36.8160 C   0  0  0  0  0  0  0  0  0  0  0  0
   38.4600   22.5910   36.3170 N   0  0  0  0  0  0  0  0  0  0  0  0
   40.2980   22.1910   37.8610 N   0  0  0  0  0  0  0  0  0  0  0  0
   36.9690   22.9540   35.0140 H   0  0  0  0  0  0  0  0  0  0  0  0
   39.7850   22.1430   38.7860 H   0  0  0  0  0  0  0  0  0  0  0  0
   41.2260   21.7090   37.8360 H   0  0  0  0  0  0  0  0  0  0  0  0
   40.6620   25.7700   34.6820 C   0  0  0  0  0  0  0  0  0  0  0  0
   41.8920   25.7360   35.1770 F   0  0  0  0  0  0  0  0  0  0  0  0
   40.7380   25.7820   33.3010 F   0  0  0  0  0  0  0  0  0  0  0  0
   40.1060   27.0230   35.0370 F   0  0  0  0  0  0  0  0  0  0  0  0
   35.5930   27.9370   34.5580 F   0  0  0  0  0  0  0  0  0  0  0  0
   35.9050   28.7340   33.4750 C   0  0  0  0  0  0  0  0  0  0  0  0
   36.4970   28.1130   32.4030 C   0  0  0  0  0  0  0  0  0  0  0  0
   36.7870   28.9440   31.3520 C   0  0  0  0  0  0  0  0  0  0  0  0
   36.5100   30.2860   31.3640 C   0  0  0  0  0  0  0  0  0  0  0  0
   35.9150   30.8510   32.4720 C   0  0  0  0  0  0  0  0  0  0  0  0
   35.5990   30.0820   33.5550 C   0  0  0  0  0  0  0  0  0  0  0  0
   37.2610   28.5090   30.4650 H   0  0  0  0  0  0  0  0  0  0  0  0
   36.7640   30.8880   30.5020 H   0  0  0  0  0  0  0  0  0  0  0  0
   35.6810   31.8960   32.5240 H   0  0  0  0  0  0  0  0  0  0  0  0
   33.6300   30.5690   35.0510 C   0  0  0  0  0  0  0  0  0  0  0  0
   34.9670   30.6710   34.7330 C   0  0  0  0  0  0  0  0  0  0  0  0
   35.8090   31.3920   35.5890 C   0  0  0  0  0  0  0  0  0  0  0  0
   36.8680   31.5040   35.3900 H   0  0  0  0  0  0  0  0  0  0  0  0
   35.2530   31.9570   36.7000 C   0  0  0  0  0  0  0  0  0  0  0  0
   35.8970   32.5200   37.3740 H   0  0  0  0  0  0  0  0  0  0  0  0
   33.9070   31.8750   37.0540 C   0  0  0  0  0  3  0  0  0  0  0  0
   33.0920   31.1500   36.1810 C   0  0  0  0  0  3  0  0  0  0  0  0
   33.1840   28.5730   33.4650 H   0  0  0  0  0  0  0  0  0  0  0  0
   32.6020   29.6760   33.9840 S   0  0  0  0  0  0  0  0  0  0  0  0
   32.1480   30.5920   32.8710 O   0  0  0  0  0  0  0  0  0  0  0  0
   31.3180   29.2860   34.7010 O   0  0  0  0  0  0  0  0  0  0  0  0
  1 11  1  0  0  0  0
  2  7  1  0  0  0  0
  2  1  2  0  0  0  0
  3  2  1  0  0  0  0
  4  3  2  0  0  0  0
  4  5  1  0  0  0  0
  5  6  2  0  0  0  0
  6  1  1  0  0  0  0
  8  3  1  0  0  0  0
  9  4  1  0  0  0  0
 10 15  1  0  0  0  0
 11 12  1  0  0  0  0
 11 10  2  0  0  0  0
 12 13  2  0  0  0  0
 13 14  1  0  0  0  0
 14 16  1  0  0  0  0
 15 14  2  0  0  0  0
 16 18  1  0  0  0  0
 17 10  1  0  0  0  0
 19 16  1  0  0  0  0
 20 23  1  0  0  0  0
 20 21  1  0  0  0  0
 20 12  1  0  0  0  0
 22 20  1  0  0  0  0
 25 30  1  0  0  0  0
 25 24  1  0  0  0  0
 26  5  1  0  0  0  0
 26 25  2  0  0  0  0
 27 28  2  0  0  0  0
 27 26  1  0  0  0  0
 28 29  1  0  0  0  0
 29 33  1  0  0  0  0
 29 30  2  0  0  0  0
 30 35  1  0  0  0  0
 31 27  1  0  0  0  0
 32 28  1  0  0  0  0
 34 41  1  0  0  0  0
 35 34  2  0  0  0  0
 35 36  1  0  0  0  0
 36 38  2  0  0  0  0
 37 36  1  0  0  0  0
 38 40  1  0  0  0  0
 38 39  1  0  0  0  0
 41 40  2  0  0  0  0
 42 43  1  0  0  0  0
 43 45  2  0  0  0  0
 43 34  1  0  0  0  0
 44 43  2  0  0  0  0
M  END
>  <minimizedAffinity>
-7.55307484

$$$$

 OpenBabel03262520263D

 45 48  0  0  0  0  0  0  0  0999 V2000
   37.8540   26.5180   32.9440 C   0  0  0  0  0  0  0  0  0  0  0  0
   38.7600   26.6120   31.8780 C   0  0  0  0  0  0  0  0  0  0  0  0
   38.7410   27.5550   30.9070 C   0  0  0  0  0  0  0  0  0  0  0  0
   37.7960   28.5160   30.9050 C   0  0  0  0  0  0  0  0  0  0  0  0
   36.9120   28.4320   31.9350 C   0  0  0  0  0  0  0  0  0  0  0  0
   36.9730   27.4960   32.8540 N   0  0  0  0  0  0  0  0  0  0  0  0
   39.5750   25.8600   31.7980 H   0  0  0  0  0  0  0  0  0  0  0  0
   39.5080   27.5440   30.1000 H   0  0  0  0  0  0  0  0  0  0  0  0
   37.7020   29.3020   30.1790 H   0  0  0  0  0  0  0  0  0  0  0  0
   37.8340   24.1800   33.3050 C   0  0  0  0  0  0  0  0  0  0  0  0
   37.9930   25.4600   33.9340 C   0  0  0  0  0  0  0  0  0  0  0  0
   38.2460   25.4530   35.2750 C   0  0  0  0  0  0  0  0  0  0  0  0
   38.3260   24.2330   35.9040 N   0  0  0  0  0  0  0  0  0  0  0  0
   38.1760   23.0570   35.3080 C   0  0  0  0  0  0  0  0  0  0  0  0
   37.9260   23.0490   33.9890 N   0  0  0  0  0  0  0  0  0  0  0  0
   38.3020   21.9170   36.1100 N   0  0  0  0  0  0  0  0  0  0  0  0
   37.6300   24.0280   32.2550 H   0  0  0  0  0  0  0  0  0  0  0  0
   37.4810   21.2500   36.1370 H   0  0  0  0  0  0  0  0  0  0  0  0
   39.1250   21.6420   36.6930 H   0  0  0  0  0  0  0  0  0  0  0  0
   38.4130   26.7150   35.9750 C   0  0  0  0  0  0  0  0  0  0  0  0
   39.6080   27.2180   35.6920 F   0  0  0  0  0  0  0  0  0  0  0  0
   37.4510   27.6660   35.6870 F   0  0  0  0  0  0  0  0  0  0  0  0
   38.3590   26.5400   37.3790 F   0  0  0  0  0  0  0  0  0  0  0  0
   35.4020   28.6550   34.2390 F   0  0  0  0  0  0  0  0  0  0  0  0
   35.0780   29.5230   33.2140 C   0  0  0  0  0  0  0  0  0  0  0  0
   35.8210   29.4220   32.0630 C   0  0  0  0  0  0  0  0  0  0  0  0
   35.4610   30.3020   31.0750 C   0  0  0  0  0  0  0  0  0  0  0  0
   34.4440   31.2090   31.2170 C   0  0  0  0  0  0  0  0  0  0  0  0
   33.7360   31.2610   32.3990 C   0  0  0  0  0  0  0  0  0  0  0  0
   34.0400   30.4140   33.4260 C   0  0  0  0  0  0  0  0  0  0  0  0
   36.0160   30.2720   30.1310 H   0  0  0  0  0  0  0  0  0  0  0  0
   34.2100   31.8750   30.3980 H   0  0  0  0  0  0  0  0  0  0  0  0
   32.9330   31.9540   32.5530 H   0  0  0  0  0  0  0  0  0  0  0  0
   33.6530   31.1970   35.7900 C   0  0  0  0  0  0  0  0  0  0  0  0
   33.2950   30.4610   34.6810 C   0  0  0  0  0  0  0  0  0  0  0  0
   32.1280   29.6890   34.7360 C   0  0  0  0  0  0  0  0  0  0  0  0
   31.7970   29.0920   33.8950 H   0  0  0  0  0  0  0  0  0  0  0  0
   31.4060   29.7090   35.8940 C   0  0  0  0  0  0  0  0  0  0  0  0
   30.4960   29.1130   35.9500 H   0  0  0  0  0  0  0  0  0  0  0  0
   31.7370   30.4400   37.0340 C   0  0  0  0  0  3  0  0  0  0  0  0
   32.9060   31.2000   36.9490 C   0  0  0  0  0  3  0  0  0  0  0  0
   35.2780   32.7610   34.5180 H   0  0  0  0  0  0  0  0  0  0  0  0
   35.0980   32.1460   35.7070 S   0  0  0  0  0  0  0  0  0  0  0  0
   36.2800   31.2560   36.0120 O   0  0  0  0  0  0  0  0  0  0  0  0
   35.1060   33.1820   36.8230 O   0  0  0  0  0  0  0  0  0  0  0  0
  1 11  1  0  0  0  0
  2  1  2  0  0  0  0
  3  2  1  0  0  0  0
  4  3  2  0  0  0  0
  4  5  1  0  0  0  0
  5 26  1  0  0  0  0
  5  6  2  0  0  0  0
  6  1  1  0  0  0  0
  7  2  1  0  0  0  0
  8  3  1  0  0  0  0
  9  4  1  0  0  0  0
 10 11  2  0  0  0  0
 10 15  1  0  0  0  0
 11 12  1  0  0  0  0
 12 13  2  0  0  0  0
 12 20  1  0  0  0  0
 14 13  1  0  0  0  0
 14 16  1  0  0  0  0
 15 14  2  0  0  0  0
 16 18  1  0  0  0  0
 16 19  1  0  0  0  0
 17 10  1  0  0  0  0
 20 23  1  0  0  0  0
 21 20  1  0  0  0  0
 22 20  1  0  0  0  0
 25 30  1  0  0  0  0
 25 24  1  0  0  0  0
 26 25  2  0  0  0  0
 27 28  2  0  0  0  0
 27 26  1  0  0  0  0
 28 29  1  0  0  0  0
 29 33  1  0  0  0  0
 29 30  2  0  0  0  0
 30 35  1  0  0  0  0
 31 27  1  0  0  0  0
 32 28  1  0  0  0  0
 34 41  1  0  0  0  0
 35 36  1  0  0  0  0
 35 34  2  0  0  0  0
 36 38  2  0  0  0  0
 37 36  1  0  0  0  0
 38 39  1  0  0  0  0
 38 40  1  0  0  0  0
 41 40  2  0  0  0  0
 42 43  1  0  0  0  0
 43 34  1  0  0  0  0
 43 44  2  0  0  0  0
 43 45  2  0  0  0  0
M  END
>  <minimizedAffinity>
-7.41962671

$$$$

 OpenBabel03262520263D

 45 48  0  0  0  0  0  0  0  0999 V2000
   37.8790   26.5140   32.9270 C   0  0  0  0  0  0  0  0  0  0  0  0
   38.7760   26.5810   31.8510 C   0  0  0  0  0  0  0  0  0  0  0  0
   38.7780   27.5250   30.8810 C   0  0  0  0  0  0  0  0  0  0  0  0
   37.8640   28.5150   30.8900 C   0  0  0  0  0  0  0  0  0  0  0  0
   36.9890   28.4590   31.9290 C   0  0  0  0  0  0  0  0  0  0  0  0
   37.0300   27.5200   32.8460 N   0  0  0  0  0  0  0  0  0  0  0  0
   39.5670   25.8030   31.7610 H   0  0  0  0  0  0  0  0  0  0  0  0
   39.5360   27.4900   30.0670 H   0  0  0  0  0  0  0  0  0  0  0  0
   37.7880   29.3040   30.1660 H   0  0  0  0  0  0  0  0  0  0  0  0
   37.8220   24.1750   33.2790 C   0  0  0  0  0  0  0  0  0  0  0  0
   37.9950   25.4510   33.9140 C   0  0  0  0  0  0  0  0  0  0  0  0
   38.2360   25.4350   35.2570 C   0  0  0  0  0  0  0  0  0  0  0  0
   38.2930   24.2130   35.8820 N   0  0  0  0  0  0  0  0  0  0  0  0
   38.1320   23.0410   35.2810 C   0  0  0  0  0  0  0  0  0  0  0  0
   37.8930   23.0400   33.9600 N   0  0  0  0  0  0  0  0  0  0  0  0
   38.2350   21.8960   36.0800 N   0  0  0  0  0  0  0  0  0  0  0  0
   37.6250   24.0300   32.2270 H   0  0  0  0  0  0  0  0  0  0  0  0
   37.4040   21.2410   36.0980 H   0  0  0  0  0  0  0  0  0  0  0  0
   39.0490   21.6080   36.6700 H   0  0  0  0  0  0  0  0  0  0  0  0
   38.4150   26.6930   35.9630 C   0  0  0  0  0  0  0  0  0  0  0  0
   39.6080   27.1940   35.6680 F   0  0  0  0  0  0  0  0  0  0  0  0
   37.4510   27.6480   35.6930 F   0  0  0  0  0  0  0  0  0  0  0  0
   38.3780   26.5090   37.3660 F   0  0  0  0  0  0  0  0  0  0  0  0
   35.7110   28.9220   34.3350 F   0  0  0  0  0  0  0  0  0  0  0  0
   35.3040   29.7030   33.2720 C   0  0  0  0  0  0  0  0  0  0  0  0
   35.9310   29.4820   32.0700 C   0  0  0  0  0  0  0  0  0  0  0  0
   35.4920   30.2800   31.0440 C   0  0  0  0  0  0  0  0  0  0  0  0
   34.5080   31.2210   31.1990 C   0  0  0  0  0  0  0  0  0  0  0  0
   33.9170   31.3950   32.4320 C   0  0  0  0  0  0  0  0  0  0  0  0
   34.3060   30.6350   33.4990 C   0  0  0  0  0  0  0  0  0  0  0  0
   35.9530   30.1520   30.0580 H   0  0  0  0  0  0  0  0  0  0  0  0
   34.2070   31.8180   30.3490 H   0  0  0  0  0  0  0  0  0  0  0  0
   33.1450   32.1190   32.5980 H   0  0  0  0  0  0  0  0  0  0  0  0
   32.5260   30.1950   35.2280 C   0  0  0  0  0  0  0  0  0  0  0  0
   33.6850   30.8110   34.8090 C   0  0  0  0  0  0  0  0  0  0  0  0
   34.3400   31.6810   35.6900 C   0  0  0  0  0  0  0  0  0  0  0  0
   35.2550   32.1920   35.4160 H   0  0  0  0  0  0  0  0  0  0  0  0
   33.7890   31.8710   36.9240 C   0  0  0  0  0  0  0  0  0  0  0  0
   34.2880   32.5440   37.6190 H   0  0  0  0  0  0  0  0  0  0  0  0
   32.6180   31.2650   37.3820 C   0  0  0  0  0  3  0  0  0  0  0  0
   31.9880   30.4040   36.4800 C   0  0  0  0  0  3  0  0  0  0  0  0
   32.5670   28.4840   33.2860 H   0  0  0  0  0  0  0  0  0  0  0  0
   31.7270   29.1250   34.1280 S   0  0  0  0  0  0  0  0  0  0  0  0
   30.7080   29.9120   33.3390 O   0  0  0  0  0  0  0  0  0  0  0  0
   30.9030   28.1040   34.9000 O   0  0  0  0  0  0  0  0  0  0  0  0
  1 11  1  0  0  0  0
  2  1  2  0  0  0  0
  3  4  2  0  0  0  0
  3  2  1  0  0  0  0
  4  5  1  0  0  0  0
  5 26  1  0  0  0  0
  5  6  2  0  0  0  0
  6  1  1  0  0  0  0
  7  2  1  0  0  0  0
  8  3  1  0  0  0  0
  9  4  1  0  0  0  0
 10 11  2  0  0  0  0
 10 15  1  0  0  0  0
 11 12  1  0  0  0  0
 12 13  2  0  0  0  0
 12 20  1  0  0  0  0
 14 13  1  0  0  0  0
 14 16  1  0  0  0  0
 15 14  2  0  0  0  0
 16 18  1  0  0  0  0
 16 19  1  0  0  0  0
 17 10  1  0  0  0  0
 20 23  1  0  0  0  0
 21 20  1  0  0  0  0
 22 20  1  0  0  0  0
 25 30  1  0  0  0  0
 25 24  1  0  0  0  0
 26 25  2  0  0  0  0
 27 28  2  0  0  0  0
 27 26  1  0  0  0  0
 28 29  1  0  0  0  0
 29 33  1  0  0  0  0
 29 30  2  0  0  0  0
 30 35  1  0  0  0  0
 31 27  1  0  0  0  0
 32 28  1  0  0  0  0
 34 41  1  0  0  0  0
 35 34  2  0  0  0  0
 35 36  1  0  0  0  0
 36 38  2  0  0  0  0
 37 36  1  0  0  0  0
 38 40  1  0  0  0  0
 38 39  1  0  0  0  0
 41 40  2  0  0  0  0
 42 43  1  0  0  0  0
 43 45  2  0  0  0  0
 43 34  1  0  0  0  0
 44 43  2  0  0  0  0
M  END
>  <minimizedAffinity>
-7.41482115

$$$$

 OpenBabel03262520263D

 45 48  0  0  0  0  0  0  0  0999 V2000
   38.2780   25.4820   34.1940 C   0  0  0  0  0  0  0  0  0  0  0  0
   39.3330   25.3470   33.2800 C   0  0  0  0  0  0  0  0  0  0  0  0
   39.5630   26.1490   32.2150 C   0  0  0  0  0  0  0  0  0  0  0  0
   38.7440   27.1860   31.9500 C   0  0  0  0  0  0  0  0  0  0  0  0
   37.7170   27.3260   32.8300 C   0  0  0  0  0  0  0  0  0  0  0  0
   37.5370   26.5190   33.8510 N   0  0  0  0  0  0  0  0  0  0  0  0
   40.0610   24.5170   33.4190 H   0  0  0  0  0  0  0  0  0  0  0  0
   40.4330   25.9580   31.5470 H   0  0  0  0  0  0  0  0  0  0  0  0
   38.8470   27.8730   31.1310 H   0  0  0  0  0  0  0  0  0  0  0  0
   38.2560   25.2740   36.5500 C   0  0  0  0  0  0  0  0  0  0  0  0
   38.1500   24.5580   35.3110 C   0  0  0  0  0  0  0  0  0  0  0  0
   37.9470   23.2120   35.4010 C   0  0  0  0  0  0  0  0  0  0  0  0
   37.8620   22.6610   36.6570 N   0  0  0  0  0  0  0  0  0  0  0  0
   37.9620   23.3370   37.7940 C   0  0  0  0  0  0  0  0  0  0  0  0
   38.1620   24.6620   37.7210 N   0  0  0  0  0  0  0  0  0  0  0  0
   37.8390   22.6060   38.9810 N   0  0  0  0  0  0  0  0  0  0  0  0
   38.4170   26.3400   36.6370 H   0  0  0  0  0  0  0  0  0  0  0  0
   38.6440   22.6540   39.6660 H   0  0  0  0  0  0  0  0  0  0  0  0
   37.0320   22.0100   39.2770 H   0  0  0  0  0  0  0  0  0  0  0  0
   37.8360   22.4260   34.1840 C   0  0  0  0  0  0  0  0  0  0  0  0
   37.2640   21.2620   34.4650 F   0  0  0  0  0  0  0  0  0  0  0  0
   37.1260   23.0370   33.1660 F   0  0  0  0  0  0  0  0  0  0  0  0
   39.1090   22.1390   33.6340 F   0  0  0  0  0  0  0  0  0  0  0  0
   36.6090   28.6340   34.9970 F   0  0  0  0  0  0  0  0  0  0  0  0
   36.1960   29.0650   33.7520 C   0  0  0  0  0  0  0  0  0  0  0  0
   36.7390   28.4220   32.6670 C   0  0  0  0  0  0  0  0  0  0  0  0
   36.2970   28.8830   31.4530 C   0  0  0  0  0  0  0  0  0  0  0  0
   35.3880   29.9010   31.3270 C   0  0  0  0  0  0  0  0  0  0  0  0
   34.8800   30.5070   32.4570 C   0  0  0  0  0  0  0  0  0  0  0  0
   35.2760   30.0970   33.6990 C   0  0  0  0  0  0  0  0  0  0  0  0
   36.6930   28.4120   30.5470 H   0  0  0  0  0  0  0  0  0  0  0  0
   35.0800   30.2180   30.3400 H   0  0  0  0  0  0  0  0  0  0  0  0
   34.1670   31.3050   32.4050 H   0  0  0  0  0  0  0  0  0  0  0  0
   33.4940   30.4970   35.4360 C   0  0  0  0  0  0  0  0  0  0  0  0
   34.7420   30.7320   34.9010 C   0  0  0  0  0  0  0  0  0  0  0  0
   35.5850   31.6480   35.5410 C   0  0  0  0  0  0  0  0  0  0  0  0
   36.5770   31.8720   35.1670 H   0  0  0  0  0  0  0  0  0  0  0  0
   35.1200   32.2620   36.6680 C   0  0  0  0  0  0  0  0  0  0  0  0
   35.7660   32.9770   37.1760 H   0  0  0  0  0  0  0  0  0  0  0  0
   33.8650   32.0490   37.2380 C   0  0  0  0  0  3  0  0  0  0  0  0
   33.0460   31.1300   36.5760 C   0  0  0  0  0  3  0  0  0  0  0  0
   33.1280   28.4610   33.8780 H   0  0  0  0  0  0  0  0  0  0  0  0
   32.4630   29.3630   34.6330 S   0  0  0  0  0  0  0  0  0  0  0  0
   31.4780   30.1250   33.7780 O   0  0  0  0  0  0  0  0  0  0  0  0
   31.5960   28.6350   35.6510 O   0  0  0  0  0  0  0  0  0  0  0  0
  1 11  1  0  0  0  0
  2  7  1  0  0  0  0
  2  1  2  0  0  0  0
  3  2  1  0  0  0  0
  4  3  2  0  0  0  0
  4  5  1  0  0  0  0
  5  6  2  0  0  0  0
  6  1  1  0  0  0  0
  8  3  1  0  0  0  0
  9  4  1  0  0  0  0
 10 17  1  0  0  0  0
 10 15  1  0  0  0  0
 11 12  1  0  0  0  0
 11 10  2  0  0  0  0
 12 13  2  0  0  0  0
 13 14  1  0  0  0  0
 14 16  1  0  0  0  0
 15 14  2  0  0  0  0
 16 19  1  0  0  0  0
 16 18  1  0  0  0  0
 20 21  1  0  0  0  0
 20 12  1  0  0  0  0
 22 20  1  0  0  0  0
 23 20  1  0  0  0  0
 25 24  1  0  0  0  0
 26  5  1  0  0  0  0
 26 25  2  0  0  0  0
 27 26  1  0  0  0  0
 28 27  2  0  0  0  0
 28 29  1  0  0  0  0
 29 30  2  0  0  0  0
 30 25  1  0  0  0  0
 30 35  1  0  0  0  0
 31 27  1  0  0  0  0
 32 28  1  0  0  0  0
 33 29  1  0  0  0  0
 34 41  1  0  0  0  0
 35 34  2  0  0  0  0
 35 36  1  0  0  0  0
 36 38  2  0  0  0  0
 37 36  1  0  0  0  0
 38 39  1  0  0  0  0
 38 40  1  0  0  0  0
 41 40  2  0  0  0  0
 42 43  1  0  0  0  0
 43 34  1  0  0  0  0
 43 45  2  0  0  0  0
 44 43  2  0  0  0  0
M  END
>  <minimizedAffinity>
-7.39993477

$$$$

 OpenBabel03262520263D

 45 48  0  0  0  0  0  0  0  0999 V2000
   35.1050   29.6070   33.4920 C   0  0  0  0  0  0  0  0  0  0  0  0
   35.0350   29.9900   32.1450 C   0  0  0  0  0  0  0  0  0  0  0  0
   35.8450   29.5480   31.1550 C   0  0  0  0  0  0  0  0  0  0  0  0
   36.8270   28.6630   31.4180 C   0  0  0  0  0  0  0  0  0  0  0  0
   36.9040   28.2860   32.7220 C   0  0  0  0  0  0  0  0  0  0  0  0
   36.0910   28.7440   33.6470 N   0  0  0  0  0  0  0  0  0  0  0  0
   34.2540   30.7190   31.8340 H   0  0  0  0  0  0  0  0  0  0  0  0
   35.7070   29.9150   30.1120 H   0  0  0  0  0  0  0  0  0  0  0  0
   37.5160   28.2590   30.7000 H   0  0  0  0  0  0  0  0  0  0  0  0
   32.8560   29.5970   34.2230 C   0  0  0  0  0  0  0  0  0  0  0  0
   34.1610   30.1460   34.4590 C   0  0  0  0  0  0  0  0  0  0  0  0
   34.2750   31.0190   35.5010 C   0  0  0  0  0  0  0  0  0  0  0  0
   33.1430   31.2970   36.2300 N   0  0  0  0  0  0  0  0  0  0  0  0
   31.9430   30.7800   36.0000 C   0  0  0  0  0  0  0  0  0  0  0  0
   31.8150   29.9200   34.9770 N   0  0  0  0  0  0  0  0  0  0  0  0
   30.9070   31.1720   36.8550 N   0  0  0  0  0  0  0  0  0  0  0  0
   32.6120   28.8960   33.4370 H   0  0  0  0  0  0  0  0  0  0  0  0
   30.0560   31.6210   36.4140 H   0  0  0  0  0  0  0  0  0  0  0  0
   30.8740   31.0720   37.8960 H   0  0  0  0  0  0  0  0  0  0  0  0
   35.5680   31.6160   35.7910 C   0  0  0  0  0  0  0  0  0  0  0  0
   35.4620   32.3910   36.8630 F   0  0  0  0  0  0  0  0  0  0  0  0
   36.5890   30.7060   35.9990 F   0  0  0  0  0  0  0  0  0  0  0  0
   36.0090   32.4390   34.7270 F   0  0  0  0  0  0  0  0  0  0  0  0
   36.4920   26.5760   34.8540 F   0  0  0  0  0  0  0  0  0  0  0  0
   37.7140   26.4720   34.2190 C   0  0  0  0  0  0  0  0  0  0  0  0
   37.9320   27.3170   33.1580 C   0  0  0  0  0  0  0  0  0  0  0  0
   39.1590   27.1780   32.5620 C   0  0  0  0  0  0  0  0  0  0  0  0
   40.0960   26.2730   32.9860 C   0  0  0  0  0  0  0  0  0  0  0  0
   39.8170   25.4520   34.0580 C   0  0  0  0  0  0  0  0  0  0  0  0
   38.6140   25.5360   34.7000 C   0  0  0  0  0  0  0  0  0  0  0  0
   39.3940   27.8230   31.7090 H   0  0  0  0  0  0  0  0  0  0  0  0
   41.0460   26.2130   32.4720 H   0  0  0  0  0  0  0  0  0  0  0  0
   40.5210   24.7300   34.4230 H   0  0  0  0  0  0  0  0  0  0  0  0
   38.0000   23.3310   35.7530 C   0  0  0  0  0  0  0  0  0  0  0  0
   38.3100   24.6710   35.8360 C   0  0  0  0  0  0  0  0  0  0  0  0
   38.3420   25.2760   37.0990 C   0  0  0  0  0  0  0  0  0  0  0  0
   38.5800   26.3250   37.2250 H   0  0  0  0  0  0  0  0  0  0  0  0
   38.0630   24.4980   38.1850 C   0  0  0  0  0  0  0  0  0  0  0  0
   38.0840   24.9560   39.1720 H   0  0  0  0  0  0  0  0  0  0  0  0
   37.7450   23.1400   38.1390 C   0  0  0  0  0  3  0  0  0  0  0  0
   37.7210   22.5660   36.8660 C   0  0  0  0  0  3  0  0  0  0  0  0
   37.7170   23.4680   33.1830 H   0  0  0  0  0  0  0  0  0  0  0  0
   37.9630   22.5970   34.1870 S   0  0  0  0  0  0  0  0  0  0  0  0
   36.9210   21.5040   34.1880 O   0  0  0  0  0  0  0  0  0  0  0  0
   39.2740   21.8710   33.9200 O   0  0  0  0  0  0  0  0  0  0  0  0
  1  6  1  0  0  0  0
  1 11  1  0  0  0  0
  2  1  2  0  0  0  0
  3  4  2  0  0  0  0
  3  2  1  0  0  0  0
  4  5  1  0  0  0  0
  5 26  1  0  0  0  0
  5  6  2  0  0  0  0
  7  2  1  0  0  0  0
  8  3  1  0  0  0  0
  9  4  1  0  0  0  0
 10 11  2  0  0  0  0
 10 15  1  0  0  0  0
 11 12  1  0  0  0  0
 12 20  1  0  0  0  0
 12 13  2  0  0  0  0
 14 13  1  0  0  0  0
 14 16  1  0  0  0  0
 15 14  2  0  0  0  0
 16 19  1  0  0  0  0
 17 10  1  0  0  0  0
 18 16  1  0  0  0  0
 20 22  1  0  0  0  0
 20 21  1  0  0  0  0
 23 20  1  0  0  0  0
 25 30  1  0  0  0  0
 25 24  1  0  0  0  0
 26 25  2  0  0  0  0
 27 28  2  0  0  0  0
 27 26  1  0  0  0  0
 28 29  1  0  0  0  0
 29 33  1  0  0  0  0
 29 30  2  0  0  0  0
 30 35  1  0  0  0  0
 31 27  1  0  0  0  0
 32 28  1  0  0  0  0
 34 35  2  0  0  0  0
 34 41  1  0  0  0  0
 35 36  1  0  0  0  0
 36 37  1  0  0  0  0
 36 38  2  0  0  0  0
 38 39  1  0  0  0  0
 40 38  1  0  0  0  0
 41 40  2  0  0  0  0
 42 43  1  0  0  0  0
 43 44  2  0  0  0  0
 43 34  1  0  0  0  0
 45 43  2  0  0  0  0
M  END
>  <minimizedAffinity>
-7.17119408

$$$$

 OpenBabel03262520263D

 45 48  0  0  0  0  0  0  0  0999 V2000
   37.6670   24.7020   32.4610 C   0  0  0  0  0  0  0  0  0  0  0  0
   39.0600   24.8410   32.5410 C   0  0  0  0  0  0  0  0  0  0  0  0
   39.7390   26.0110   32.5240 C   0  0  0  0  0  0  0  0  0  0  0  0
   39.0810   27.1820   32.4230 C   0  0  0  0  0  0  0  0  0  0  0  0
   37.7300   27.0590   32.3440 C   0  0  0  0  0  0  0  0  0  0  0  0
   37.1170   25.8970   32.3650 N   0  0  0  0  0  0  0  0  0  0  0  0
   39.6870   23.9250   32.6260 H   0  0  0  0  0  0  0  0  0  0  0  0
   40.8510   26.0140   32.5930 H   0  0  0  0  0  0  0  0  0  0  0  0
   39.5340   28.1560   32.4010 H   0  0  0  0  0  0  0  0  0  0  0  0
   36.2600   23.1730   31.3290 C   0  0  0  0  0  0  0  0  0  0  0  0
   37.0560   23.3820   32.5050 C   0  0  0  0  0  0  0  0  0  0  0  0
   37.1040   22.3510   33.3990 C   0  0  0  0  0  0  0  0  0  0  0  0
   36.3930   21.2130   33.1010 N   0  0  0  0  0  0  0  0  0  0  0  0
   35.6610   21.0360   32.0080 C   0  0  0  0  0  0  0  0  0  0  0  0
   35.6050   22.0410   31.1200 N   0  0  0  0  0  0  0  0  0  0  0  0
   35.0140   19.8030   31.8690 N   0  0  0  0  0  0  0  0  0  0  0  0
   36.1270   23.8960   30.5360 H   0  0  0  0  0  0  0  0  0  0  0  0
   33.9620   19.8170   31.7560 H   0  0  0  0  0  0  0  0  0  0  0  0
   35.4540   18.8540   31.8640 H   0  0  0  0  0  0  0  0  0  0  0  0
   37.8870   22.4980   34.6140 C   0  0  0  0  0  0  0  0  0  0  0  0
   39.1670   22.2810   34.3380 F   0  0  0  0  0  0  0  0  0  0  0  0
   37.7680   23.7310   35.2310 F   0  0  0  0  0  0  0  0  0  0  0  0
   37.5070   21.5500   35.5940 F   0  0  0  0  0  0  0  0  0  0  0  0
   36.5900   28.2570   34.5580 F   0  0  0  0  0  0  0  0  0  0  0  0
   36.3150   28.8470   33.3400 C   0  0  0  0  0  0  0  0  0  0  0  0
   36.8760   28.2610   32.2320 C   0  0  0  0  0  0  0  0  0  0  0  0
   36.5740   28.8810   31.0460 C   0  0  0  0  0  0  0  0  0  0  0  0
   35.7790   29.9930   30.9670 C   0  0  0  0  0  0  0  0  0  0  0  0
   35.2460   30.5360   32.1180 C   0  0  0  0  0  0  0  0  0  0  0  0
   35.5050   29.9690   33.3340 C   0  0  0  0  0  0  0  0  0  0  0  0
   36.9910   28.4610   30.1240 H   0  0  0  0  0  0  0  0  0  0  0  0
   35.5790   30.4350   30.0010 H   0  0  0  0  0  0  0  0  0  0  0  0
   34.6190   31.4040   32.1020 H   0  0  0  0  0  0  0  0  0  0  0  0
   33.6500   30.3550   34.9960 C   0  0  0  0  0  0  0  0  0  0  0  0
   34.9450   30.5350   34.5570 C   0  0  0  0  0  0  0  0  0  0  0  0
   35.8110   31.3200   35.3280 C   0  0  0  0  0  0  0  0  0  0  0  0
   36.8390   31.4960   35.0340 H   0  0  0  0  0  0  0  0  0  0  0  0
   35.3220   31.8660   36.4790 C   0  0  0  0  0  0  0  0  0  0  0  0
   35.9850   32.4790   37.0870 H   0  0  0  0  0  0  0  0  0  0  0  0
   34.0200   31.7060   36.9530 C   0  0  0  0  0  3  0  0  0  0  0  0
   33.1790   30.9180   36.1630 C   0  0  0  0  0  3  0  0  0  0  0  0
   33.2240   28.4170   33.3320 H   0  0  0  0  0  0  0  0  0  0  0  0
   32.5910   29.3830   34.0330 S   0  0  0  0  0  0  0  0  0  0  0  0
   31.8270   30.2860   33.0930 O   0  0  0  0  0  0  0  0  0  0  0  0
   31.5170   28.7550   34.9110 O   0  0  0  0  0  0  0  0  0  0  0  0
  1 11  1  0  0  0  0
  1  2  1  0  0  0  0
  2  7  1  0  0  0  0
  3  2  2  0  0  0  0
  3  8  1  0  0  0  0
  4  3  1  0  0  0  0
  5  6  1  0  0  0  0
  5  4  2  0  0  0  0
  6  1  2  0  0  0  0
  9  4  1  0  0  0  0
 10 11  1  0  0  0  0
 11 12  2  0  0  0  0
 12 20  1  0  0  0  0
 13 12  1  0  0  0  0
 14 13  2  0  0  0  0
 15 10  2  0  0  0  0
 15 14  1  0  0  0  0
 16 14  1  0  0  0  0
 17 10  1  0  0  0  0
 18 16  1  0  0  0  0
 19 16  1  0  0  0  0
 20 22  1  0  0  0  0
 20 23  1  0  0  0  0
 21 20  1  0  0  0  0
 25 24  1  0  0  0  0
 26  5  1  0  0  0  0
 26 25  2  0  0  0  0
 27 26  1  0  0  0  0
 28 27  2  0  0  0  0
 28 29  1  0  0  0  0
 29 30  2  0  0  0  0
 30 25  1  0  0  0  0
 30 35  1  0  0  0  0
 31 27  1  0  0  0  0
 32 28  1  0  0  0  0
 33 29  1  0  0  0  0
 34 41  1  0  0  0  0
 35 34  2  0  0  0  0
 35 36  1  0  0  0  0
 36 38  2  0  0  0  0
 37 36  1  0  0  0  0
 38 40  1  0  0  0  0
 38 39  1  0  0  0  0
 41 40  2  0  0  0  0
 42 43  1  0  0  0  0
 43 45  2  0  0  0  0
 43 34  1  0  0  0  0
 44 43  2  0  0  0  0
M  END
>  <minimizedAffinity>
-7.05518436

$$$$

 OpenBabel03262520263D

 45 48  0  0  0  0  0  0  0  0999 V2000
   35.1780   29.5750   33.2290 C   0  0  0  0  0  0  0  0  0  0  0  0
   35.1920   30.2660   32.0090 C   0  0  0  0  0  0  0  0  0  0  0  0
   35.9680   29.9660   30.9410 C   0  0  0  0  0  0  0  0  0  0  0  0
   36.8230   28.9260   30.9870 C   0  0  0  0  0  0  0  0  0  0  0  0
   36.8170   28.2500   32.1660 C   0  0  0  0  0  0  0  0  0  0  0  0
   36.0440   28.5810   33.1750 N   0  0  0  0  0  0  0  0  0  0  0  0
   34.5180   31.1410   31.8790 H   0  0  0  0  0  0  0  0  0  0  0  0
   35.9040   30.5790   30.0130 H   0  0  0  0  0  0  0  0  0  0  0  0
   37.4750   28.6150   30.1920 H   0  0  0  0  0  0  0  0  0  0  0  0
   32.9950   29.3810   34.1210 C   0  0  0  0  0  0  0  0  0  0  0  0
   34.2820   29.9910   34.2980 C   0  0  0  0  0  0  0  0  0  0  0  0
   34.4280   30.7990   35.3880 C   0  0  0  0  0  0  0  0  0  0  0  0
   33.3430   30.9590   36.2150 N   0  0  0  0  0  0  0  0  0  0  0  0
   32.1580   30.3880   36.0380 C   0  0  0  0  0  0  0  0  0  0  0  0
   31.9990   29.5900   34.9690 N   0  0  0  0  0  0  0  0  0  0  0  0
   31.1720   30.6590   36.9920 N   0  0  0  0  0  0  0  0  0  0  0  0
   32.7310   28.7200   33.3070 H   0  0  0  0  0  0  0  0  0  0  0  0
   30.2660   31.0840   36.6470 H   0  0  0  0  0  0  0  0  0  0  0  0
   31.2240   30.4890   38.0230 H   0  0  0  0  0  0  0  0  0  0  0  0
   35.7050   31.4530   35.6240 C   0  0  0  0  0  0  0  0  0  0  0  0
   36.6260   30.5340   35.8810 F   0  0  0  0  0  0  0  0  0  0  0  0
   36.1470   32.2460   34.5800 F   0  0  0  0  0  0  0  0  0  0  0  0
   35.6480   32.3100   36.7490 F   0  0  0  0  0  0  0  0  0  0  0  0
   35.8610   25.6580   32.0940 F   0  0  0  0  0  0  0  0  0  0  0  0
   37.2160   25.7990   32.3230 C   0  0  0  0  0  0  0  0  0  0  0  0
   37.7030   27.0830   32.3610 C   0  0  0  0  0  0  0  0  0  0  0  0
   39.0520   27.1720   32.5920 C   0  0  0  0  0  0  0  0  0  0  0  0
   39.8530   26.0750   32.7710 C   0  0  0  0  0  0  0  0  0  0  0  0
   39.3030   24.8120   32.7210 C   0  0  0  0  0  0  0  0  0  0  0  0
   37.9660   24.6480   32.4950 C   0  0  0  0  0  0  0  0  0  0  0  0
   39.5030   28.1700   32.6340 H   0  0  0  0  0  0  0  0  0  0  0  0
   40.9110   26.2140   32.9500 H   0  0  0  0  0  0  0  0  0  0  0  0
   39.8920   23.9270   32.8560 H   0  0  0  0  0  0  0  0  0  0  0  0
   37.3630   22.4070   33.4770 C   0  0  0  0  0  0  0  0  0  0  0  0
   37.3740   23.3150   32.4400 C   0  0  0  0  0  0  0  0  0  0  0  0
   36.7770   22.9530   31.2260 C   0  0  0  0  0  0  0  0  0  0  0  0
   36.7540   23.6250   30.3770 H   0  0  0  0  0  0  0  0  0  0  0  0
   36.2130   21.7130   31.1380 C   0  0  0  0  0  0  0  0  0  0  0  0
   35.7450   21.4200   30.1990 H   0  0  0  0  0  0  0  0  0  0  0  0
   36.1840   20.7700   32.1660 C   0  0  0  0  0  3  0  0  0  0  0  0
   36.7880   21.1590   33.3640 C   0  0  0  0  0  3  0  0  0  0  0  0
   38.2570   24.2020   35.1160 H   0  0  0  0  0  0  0  0  0  0  0  0
   38.1060   22.8670   34.9710 S   0  0  0  0  0  0  0  0  0  0  0  0
   39.4480   22.1820   35.0760 O   0  0  0  0  0  0  0  0  0  0  0  0
   37.3060   22.3150   36.1430 O   0  0  0  0  0  0  0  0  0  0  0  0
  1 11  1  0  0  0  0
  2  1  2  0  0  0  0
  3  4  2  0  0  0  0
  3  2  1  0  0  0  0
  4  5  1  0  0  0  0
  5 26  1  0  0  0  0
  5  6  2  0  0  0  0
  6  1  1  0  0  0  0
  7  2  1  0  0  0  0
  8  3  1  0  0  0  0
  9  4  1  0  0  0  0
 10 11  2  0  0  0  0
 10 15  1  0  0  0  0
 11 12  1  0  0  0  0
 12 20  1  0  0  0  0
 12 13  2  0  0  0  0
 14 13  1  0  0  0  0
 14 16  1  0  0  0  0
 15 14  2  0  0  0  0
 16 19  1  0  0  0  0
 17 10  1  0  0  0  0
 18 16  1  0  0  0  0
 20 21  1  0  0  0  0
 20 23  1  0  0  0  0
 22 20  1  0  0  0  0
 24 25  1  0  0  0  0
 25 26  2  0  0  0  0
 25 30  1  0  0  0  0
 26 27  1  0  0  0  0
 27 31  1  0  0  0  0
 27 28  2  0  0  0  0
 28 32  1  0  0  0  0
 29 28  1  0  0  0  0
 29 33  1  0  0  0  0
 30 29  2  0  0  0  0
 34 43  1  0  0  0  0
 35 30  1  0  0  0  0
 35 34  2  0  0  0  0
 36 35  1  0  0  0  0
 37 36  1  0  0  0  0
 38 36  2  0  0  0  0
 38 40  1  0  0  0  0
 39 38  1  0  0  0  0
 40 41  2  0  0  0  0
 41 34  1  0  0  0  0
 43 44  2  0  0  0  0
 43 42  1  0  0  0  0
 43 45  2  0  0  0  0
M  END
>  <minimizedAffinity>
-7.05337238

$$$$

 OpenBabel03262520263D

 45 48  0  0  0  0  0  0  0  0999 V2000
   38.3540   25.3550   33.2160 C   0  0  0  0  0  0  0  0  0  0  0  0
   37.5610   24.4600   32.4840 C   0  0  0  0  0  0  0  0  0  0  0  0
   36.4660   24.7850   31.7590 C   0  0  0  0  0  0  0  0  0  0  0  0
   36.0460   26.0640   31.6920 C   0  0  0  0  0  0  0  0  0  0  0  0
   36.8070   26.9400   32.3990 C   0  0  0  0  0  0  0  0  0  0  0  0
   37.8640   26.5730   33.0880 N   0  0  0  0  0  0  0  0  0  0  0  0
   37.8320   23.3810   32.4810 H   0  0  0  0  0  0  0  0  0  0  0  0
   35.9020   23.9970   31.2110 H   0  0  0  0  0  0  0  0  0  0  0  0
   35.1910   26.4150   31.1440 H   0  0  0  0  0  0  0  0  0  0  0  0
   40.6880   24.9790   33.1170 C   0  0  0  0  0  0  0  0  0  0  0  0
   39.5200   24.8770   33.9450 C   0  0  0  0  0  0  0  0  0  0  0  0
   39.7070   24.3870   35.2050 C   0  0  0  0  0  0  0  0  0  0  0  0
   40.9850   24.0370   35.5710 N   0  0  0  0  0  0  0  0  0  0  0  0
   42.0550   24.1380   34.7930 C   0  0  0  0  0  0  0  0  0  0  0  0
   41.8860   24.6170   33.5510 N   0  0  0  0  0  0  0  0  0  0  0  0
   43.2800   23.7410   35.3430 N   0  0  0  0  0  0  0  0  0  0  0  0
   40.6950   25.3460   32.1000 H   0  0  0  0  0  0  0  0  0  0  0  0
   43.8160   22.9820   34.8360 H   0  0  0  0  0  0  0  0  0  0  0  0
   43.7350   24.1130   36.2080 H   0  0  0  0  0  0  0  0  0  0  0  0
   38.5650   24.2530   36.0940 C   0  0  0  0  0  0  0  0  0  0  0  0
   38.9900   23.9160   37.3040 F   0  0  0  0  0  0  0  0  0  0  0  0
   37.7800   25.3870   36.1980 F   0  0  0  0  0  0  0  0  0  0  0  0
   37.6900   23.2290   35.6610 F   0  0  0  0  0  0  0  0  0  0  0  0
   35.5980   28.1330   34.5790 F   0  0  0  0  0  0  0  0  0  0  0  0
   35.8670   28.9600   33.5060 C   0  0  0  0  0  0  0  0  0  0  0  0
   36.4680   28.3790   32.4160 C   0  0  0  0  0  0  0  0  0  0  0  0
   36.7130   29.2390   31.3760 C   0  0  0  0  0  0  0  0  0  0  0  0
   36.3870   30.5690   31.4150 C   0  0  0  0  0  0  0  0  0  0  0  0
   35.7860   31.0930   32.5400 C   0  0  0  0  0  0  0  0  0  0  0  0
   35.5120   30.2930   33.6130 C   0  0  0  0  0  0  0  0  0  0  0  0
   37.1910   28.8360   30.4760 H   0  0  0  0  0  0  0  0  0  0  0  0
   36.6080   31.1940   30.5600 H   0  0  0  0  0  0  0  0  0  0  0  0
   35.5140   32.1270   32.6130 H   0  0  0  0  0  0  0  0  0  0  0  0
   33.5360   30.7240   35.1180 C   0  0  0  0  0  0  0  0  0  0  0  0
   34.8750   30.8390   34.8090 C   0  0  0  0  0  0  0  0  0  0  0  0
   35.7110   31.5290   35.6940 C   0  0  0  0  0  0  0  0  0  0  0  0
   36.7710   31.6500   35.5040 H   0  0  0  0  0  0  0  0  0  0  0  0
   35.1500   32.0530   36.8230 C   0  0  0  0  0  0  0  0  0  0  0  0
   35.7900   32.5920   37.5200 H   0  0  0  0  0  0  0  0  0  0  0  0
   33.8020   31.9560   37.1680 C   0  0  0  0  0  3  0  0  0  0  0  0
   32.9930   31.2630   36.2650 C   0  0  0  0  0  3  0  0  0  0  0  0
   33.1790   29.3110   32.9780 H   0  0  0  0  0  0  0  0  0  0  0  0
   32.5150   29.8690   34.0140 S   0  0  0  0  0  0  0  0  0  0  0  0
   31.4580   30.8180   33.4980 O   0  0  0  0  0  0  0  0  0  0  0  0
   31.7300   28.7940   34.7540 O   0  0  0  0  0  0  0  0  0  0  0  0
  1 11  1  0  0  0  0
  2  1  2  0  0  0  0
  3  2  1  0  0  0  0
  4  3  2  0  0  0  0
  4  5  1  0  0  0  0
  5 26  1  0  0  0  0
  5  6  2  0  0  0  0
  6  1  1  0  0  0  0
  7  2  1  0  0  0  0
  8  3  1  0  0  0  0
  9  4  1  0  0  0  0
 10 15  2  0  0  0  0
 10 11  1  0  0  0  0
 11 12  2  0  0  0  0
 12 13  1  0  0  0  0
 12 20  1  0  0  0  0
 14 16  1  0  0  0  0
 14 13  2  0  0  0  0
 15 14  1  0  0  0  0
 16 19  1  0  0  0  0
 17 10  1  0  0  0  0
 18 16  1  0  0  0  0
 20 22  1  0  0  0  0
 20 21  1  0  0  0  0
 23 20  1  0  0  0  0
 25 30  1  0  0  0  0
 25 24  1  0  0  0  0
 26 25  2  0  0  0  0
 27 28  2  0  0  0  0
 27 26  1  0  0  0  0
 28 29  1  0  0  0  0
 29 33  1  0  0  0  0
 29 30  2  0  0  0  0
 30 35  1  0  0  0  0
 31 27  1  0  0  0  0
 32 28  1  0  0  0  0
 34 41  1  0  0  0  0
 35 34  2  0  0  0  0
 35 36  1  0  0  0  0
 36 38  2  0  0  0  0
 37 36  1  0  0  0  0
 38 40  1  0  0  0  0
 38 39  1  0  0  0  0
 41 40  2  0  0  0  0
 42 43  1  0  0  0  0
 43 45  2  0  0  0  0
 43 34  1  0  0  0  0
 44 43  2  0  0  0  0
M  END
>  <minimizedAffinity>
-6.9258852

$$$$

 OpenBabel03262520263D

 45 48  0  0  0  0  0  0  0  0999 V2000
   37.6420   23.4450   32.6520 C   0  0  0  0  0  0  0  0  0  0  0  0
   38.1920   23.2740   33.9310 C   0  0  0  0  0  0  0  0  0  0  0  0
   38.3830   24.2540   34.8460 C   0  0  0  0  0  0  0  0  0  0  0  0
   38.0370   25.5260   34.5670 C   0  0  0  0  0  0  0  0  0  0  0  0
   37.5040   25.7020   33.3290 C   0  0  0  0  0  0  0  0  0  0  0  0
   37.3390   24.7170   32.4770 N   0  0  0  0  0  0  0  0  0  0  0  0
   38.5080   22.2560   34.2490 H   0  0  0  0  0  0  0  0  0  0  0  0
   38.8290   24.0150   35.8380 H   0  0  0  0  0  0  0  0  0  0  0  0
   38.1510   26.3660   35.2270 H   0  0  0  0  0  0  0  0  0  0  0  0
   38.6430   22.1500   30.9450 C   0  0  0  0  0  0  0  0  0  0  0  0
   37.4770   22.3020   31.7660 C   0  0  0  0  0  0  0  0  0  0  0  0
   36.4800   21.3880   31.5850 C   0  0  0  0  0  0  0  0  0  0  0  0
   36.6750   20.4080   30.6420 N   0  0  0  0  0  0  0  0  0  0  0  0
   37.7610   20.2800   29.8890 C   0  0  0  0  0  0  0  0  0  0  0  0
   38.7500   21.1720   30.0560 N   0  0  0  0  0  0  0  0  0  0  0  0
   37.7870   19.2100   28.9870 N   0  0  0  0  0  0  0  0  0  0  0  0
   39.5100   22.7950   30.9740 H   0  0  0  0  0  0  0  0  0  0  0  0
   37.9260   19.4420   27.9630 H   0  0  0  0  0  0  0  0  0  0  0  0
   37.6840   18.1930   29.2070 H   0  0  0  0  0  0  0  0  0  0  0  0
   35.2680   21.4880   32.3810 C   0  0  0  0  0  0  0  0  0  0  0  0
   35.5520   21.2080   33.6470 F   0  0  0  0  0  0  0  0  0  0  0  0
   34.6440   22.7210   32.3270 F   0  0  0  0  0  0  0  0  0  0  0  0
   34.2920   20.5540   31.9590 F   0  0  0  0  0  0  0  0  0  0  0  0
   36.1730   27.4440   35.0120 F   0  0  0  0  0  0  0  0  0  0  0  0
   36.4150   27.9020   33.7320 C   0  0  0  0  0  0  0  0  0  0  0  0
   37.0750   27.0460   32.8860 C   0  0  0  0  0  0  0  0  0  0  0  0
   37.2910   27.5440   31.6260 C   0  0  0  0  0  0  0  0  0  0  0  0
   36.8830   28.7930   31.2380 C   0  0  0  0  0  0  0  0  0  0  0  0
   36.2240   29.6060   32.1350 C   0  0  0  0  0  0  0  0  0  0  0  0
   35.9750   29.1740   33.4070 C   0  0  0  0  0  0  0  0  0  0  0  0
   37.8140   26.9090   30.9030 H   0  0  0  0  0  0  0  0  0  0  0  0
   37.0840   29.1260   30.2290 H   0  0  0  0  0  0  0  0  0  0  0  0
   35.8870   30.5890   31.8740 H   0  0  0  0  0  0  0  0  0  0  0  0
   33.9110   30.1900   34.4360 C   0  0  0  0  0  0  0  0  0  0  0  0
   35.2780   30.0280   34.3640 C   0  0  0  0  0  0  0  0  0  0  0  0
   36.0850   30.7270   35.2700 C   0  0  0  0  0  0  0  0  0  0  0  0
   37.1650   30.6390   35.2620 H   0  0  0  0  0  0  0  0  0  0  0  0
   35.4670   31.5360   36.1800 C   0  0  0  0  0  0  0  0  0  0  0  0
   36.0830   32.0860   36.8910 H   0  0  0  0  0  0  0  0  0  0  0  0
   34.0890   31.7240   36.2820 C   0  0  0  0  0  3  0  0  0  0  0  0
   33.3110   31.0140   35.3640 C   0  0  0  0  0  3  0  0  0  0  0  0
   33.5260   28.2240   32.7960 H   0  0  0  0  0  0  0  0  0  0  0  0
   32.9270   29.3200   33.3090 S   0  0  0  0  0  0  0  0  0  0  0  0
   32.5230   30.2570   32.1950 O   0  0  0  0  0  0  0  0  0  0  0  0
   31.6120   28.9220   33.9650 O   0  0  0  0  0  0  0  0  0  0  0  0
  1  2  1  0  0  0  0
  2  7  1  0  0  0  0
  2  3  2  0  0  0  0
  3  8  1  0  0  0  0
  4  3  1  0  0  0  0
  4  9  1  0  0  0  0
  5  4  2  0  0  0  0
  6  1  2  0  0  0  0
  6  5  1  0  0  0  0
 10 17  1  0  0  0  0
 10 11  1  0  0  0  0
 11  1  1  0  0  0  0
 12 11  2  0  0  0  0
 12 20  1  0  0  0  0
 13 12  1  0  0  0  0
 14 15  1  0  0  0  0
 14 13  2  0  0  0  0
 15 10  2  0  0  0  0
 16 19  1  0  0  0  0
 16 14  1  0  0  0  0
 18 16  1  0  0  0  0
 20 21  1  0  0  0  0
 22 20  1  0  0  0  0
 23 20  1  0  0  0  0
 25 24  1  0  0  0  0
 26  5  1  0  0  0  0
 26 25  2  0  0  0  0
 27 26  1  0  0  0  0
 28 27  2  0  0  0  0
 28 29  1  0  0  0  0
 29 30  2  0  0  0  0
 30 25  1  0  0  0  0
 30 35  1  0  0  0  0
 31 27  1  0  0  0  0
 32 28  1  0  0  0  0
 33 29  1  0  0  0  0
 34 41  1  0  0  0  0
 35 34  2  0  0  0  0
 35 36  1  0  0  0  0
 36 38  2  0  0  0  0
 37 36  1  0  0  0  0
 38 40  1  0  0  0  0
 38 39  1  0  0  0  0
 41 40  2  0  0  0  0
 42 43  1  0  0  0  0
 43 45  2  0  0  0  0
 43 34  1  0  0  0  0
 44 43  2  0  0  0  0
M  END
>  <minimizedAffinity>
-6.9234519

$$$$
