
 OpenBabel03272509573D

 49 52  0  0  0  0  0  0  0  0999 V2000
   33.6010   27.4980   47.7360 C   0  0  0  0  0  0  0  0  0  0  0  0
   33.7720   26.5740   48.3060 H   0  0  0  0  0  0  0  0  0  0  0  0
   33.8910   27.2580   46.6870 H   0  0  0  0  0  0  0  0  0  0  0  0
   32.1530   27.8660   47.7660 C   0  0  0  0  0  0  0  0  0  0  0  0
   31.4110   27.4310   48.8460 C   0  0  0  0  0  0  0  0  0  0  0  0
   30.0760   27.7260   48.9480 C   0  0  0  0  0  0  0  0  0  0  0  0
   29.4850   28.4360   48.0010 N   0  0  0  0  0  0  0  0  0  0  0  0
   30.2190   28.8670   46.9320 C   0  0  0  0  0  0  0  0  0  0  0  0
   31.5240   28.5820   46.8270 N   0  0  0  0  0  0  0  0  0  0  0  0
   31.8740   26.8560   49.6190 H   0  0  0  0  0  0  0  0  0  0  0  0
   29.4750   27.3890   49.7950 H   0  0  0  0  0  0  0  0  0  0  0  0
   29.5200   29.6660   45.8950 C   0  0  0  0  0  0  0  0  0  0  0  0
   28.5530   30.0110   46.3670 H   0  0  0  0  0  0  0  0  0  0  0  0
   30.0760   30.6330   45.7440 H   0  0  0  0  0  0  0  0  0  0  0  0
   28.0310   28.3940   44.3140 C   0  0  0  0  0  0  0  0  0  0  0  0
   29.2480   28.9420   44.6460 C   0  0  0  0  0  0  0  0  0  0  0  0
   30.2960   28.8040   43.7270 C   0  0  0  0  0  0  0  0  0  0  0  0
   31.2580   29.2290   43.9710 H   0  0  0  0  0  0  0  0  0  0  0  0
   30.1670   28.1510   42.5180 C   0  0  0  0  0  0  0  0  0  0  0  0
   31.0180   28.0730   41.8410 H   0  0  0  0  0  0  0  0  0  0  0  0
   28.9550   27.5960   42.1720 C   0  0  0  0  0  3  0  0  0  0  0  0
   27.9250   27.7360   43.0830 C   0  0  0  0  0  3  0  0  0  0  0  0
   26.3730   29.8270   45.6990 H   0  0  0  0  0  0  0  0  0  0  0  0
   26.6780   28.5130   45.3920 S   0  0  0  0  0  0  0  0  0  0  0  0
   26.7550   27.6300   46.5820 O   0  0  0  0  0  0  0  0  0  0  0  0
   25.4620   28.0290   44.6030 O   0  0  0  0  0  0  0  0  0  0  0  0
   34.4870   28.6310   48.1950 C   0  0  0  0  0  0  0  0  0  0  0  0
   35.2830   28.8680   47.4880 H   0  0  0  0  0  0  0  0  0  0  0  0
   33.8560   29.5390   48.3140 H   0  0  0  0  0  0  0  0  0  0  0  0
   35.0140   28.3660   49.4880 O   0  0  0  0  0  0  0  0  0  0  0  0
   37.3590   30.1850   51.5400 C   0  0  0  0  0  0  0  0  0  0  0  0
   38.0830   30.8750   50.5440 C   0  0  0  0  0  0  0  0  0  0  0  0
   37.7120   30.6660   49.2210 C   0  0  0  0  0  0  0  0  0  0  0  0
   36.6700   29.8030   49.0060 N   0  0  0  0  0  0  0  0  0  0  0  0
   35.9990   29.1610   49.9650 C   0  0  0  0  0  0  0  0  0  0  0  0
   36.3570   29.3630   51.2410 N   0  0  0  0  0  0  0  0  0  0  0  0
   37.6640   30.3640   52.5610 H   0  0  0  0  0  0  0  0  0  0  0  0
   38.9030   31.5540   50.7300 H   0  0  0  0  0  0  0  0  0  0  0  0
   38.9400   33.2890   49.0320 F   0  0  0  0  0  0  0  0  0  0  0  0
   38.9130   32.4990   47.9630 C   0  0  0  0  0  0  0  0  0  0  0  0
   38.3400   31.2870   48.0730 C   0  0  0  0  0  0  0  0  0  0  0  0
   38.3640   30.5310   46.8910 C   0  0  0  0  0  0  0  0  0  0  0  0
   38.9280   31.0070   45.7330 C   0  0  0  0  0  0  0  0  0  0  0  0
   39.5010   32.2450   45.6630 C   0  0  0  0  0  0  0  0  0  0  0  0
   39.4770   32.9730   46.8060 C   0  0  0  0  0  0  0  0  0  0  0  0
   37.9220   29.5320   46.8760 H   0  0  0  0  0  0  0  0  0  0  0  0
   38.9090   30.3630   44.8510 H   0  0  0  0  0  0  0  0  0  0  0  0
   39.9300   32.5650   44.7260 H   0  0  0  0  0  0  0  0  0  0  0  0
   39.9300   33.9770   46.7870 H   0  0  0  0  0  0  0  0  0  0  0  0
  1  4  1  0  0  0  0
  1 27  1  0  0  0  0
  1  2  1  0  0  0  0
  3  1  1  0  0  0  0
  4  5  1  0  0  0  0
  5  6  2  0  0  0  0
  5 10  1  0  0  0  0
  6 11  1  0  0  0  0
  7  6  1  0  0  0  0
  8  7  2  0  0  0  0
  9  8  1  0  0  0  0
  9  4  2  0  0  0  0
 12 13  1  0  0  0  0
 12  8  1  0  0  0  0
 14 12  1  0  0  0  0
 15 16  1  0  0  0  0
 15 24  1  0  0  0  0
 16 12  1  0  0  0  0
 17 18  1  0  0  0  0
 17 16  2  0  0  0  0
 19 17  1  0  0  0  0
 20 19  1  0  0  0  0
 21 19  2  0  0  0  0
 21 22  1  0  0  0  0
 22 15  2  0  0  0  0
 24 23  1  0  0  0  0
 24 25  2  0  0  0  0
 26 24  2  0  0  0  0
 27 29  1  0  0  0  0
 27 30  1  0  0  0  0
 28 27  1  0  0  0  0
 30 35  1  0  0  0  0
 31 37  1  0  0  0  0
 32 38  1  0  0  0  0
 32 31  2  0  0  0  0
 33 32  1  0  0  0  0
 34 33  2  0  0  0  0
 34 35  1  0  0  0  0
 35 36  2  0  0  0  0
 36 31  1  0  0  0  0
 40 41  1  0  0  0  0
 40 39  1  0  0  0  0
 41 33  1  0  0  0  0
 42 41  2  0  0  0  0
 43 42  1  0  0  0  0
 44 43  2  0  0  0  0
 44 45  1  0  0  0  0
 45 40  2  0  0  0  0
 46 42  1  0  0  0  0
 47 43  1  0  0  0  0
 48 44  1  0  0  0  0
 49 45  1  0  0  0  0
M  END
>  <minimizedAffinity>
-6.45968628

>  <minimizedRMSD>
0.873525679

$$$$
