
 OpenBabel03272509463D

 28 29  0  0  0  0  0  0  0  0999 V2000
   32.8770   27.5960   48.4460 C   0  0  0  0  0  0  0  0  0  0  0  0
   33.2030   27.6020   47.3760 H   0  0  0  0  0  0  0  0  0  0  0  0
   33.0830   26.5680   48.7990 H   0  0  0  0  0  0  0  0  0  0  0  0
   30.9410   28.4130   47.3300 C   0  0  0  0  0  0  0  0  0  0  0  0
   31.4200   27.8540   48.5200 C   0  0  0  0  0  0  0  0  0  0  0  0
   30.5480   27.6190   49.5560 C   0  0  0  0  0  0  0  0  0  0  0  0
   31.0190   27.1860   50.4250 H   0  0  0  0  0  0  0  0  0  0  0  0
   29.2120   27.9270   49.4340 C   0  0  0  0  0  0  0  0  0  0  0  0
   28.5670   27.7160   50.2970 H   0  0  0  0  0  0  0  0  0  0  0  0
   28.6950   28.4800   48.2820 C   0  0  0  0  0  3  0  0  0  0  0  0
   29.5810   28.7200   47.2260 C   0  0  0  0  0  3  0  0  0  0  0  0
   32.9050   28.0140   45.6870 H   0  0  0  0  0  0  0  0  0  0  0  0
   31.8140   28.8110   45.8840 S   0  0  0  0  0  0  0  0  0  0  0  0
   30.9420   28.8030   44.6480 O   0  0  0  0  0  0  0  0  0  0  0  0
   32.3730   30.2120   46.0720 O   0  0  0  0  0  0  0  0  0  0  0  0
   33.6780   28.6010   49.2190 C   0  0  0  0  0  0  0  0  0  0  0  0
   33.7460   29.5120   48.5560 H   0  0  0  0  0  0  0  0  0  0  0  0
   33.1280   28.9420   50.1060 H   0  0  0  0  0  0  0  0  0  0  0  0
   34.9750   28.1130   49.4840 O   0  0  0  0  0  0  0  0  0  0  0  0
   37.2140   30.2320   51.3680 C   0  0  0  0  0  0  0  0  0  0  0  0
   37.9680   30.7850   50.3120 C   0  0  0  0  0  0  0  0  0  0  0  0
   37.6610   30.3960   49.0100 C   0  0  0  0  0  0  0  0  0  0  0  0
   36.6430   29.4980   48.8430 N   0  0  0  0  0  0  0  0  0  0  0  0
   35.9510   28.9970   49.8820 C   0  0  0  0  0  0  0  0  0  0  0  0
   36.2420   29.3690   51.1490 N   0  0  0  0  0  0  0  0  0  0  0  0
   37.4230   30.5090   52.3830 H   0  0  0  0  0  0  0  0  0  0  0  0
   38.7680   31.4940   50.4990 H   0  0  0  0  0  0  0  0  0  0  0  0
   38.2000   30.7800   48.1530 H   0  0  0  0  0  0  0  0  0  0  0  0
  1  5  1  0  0  0  0
  1  3  1  0  0  0  0
  1 16  1  0  0  0  0
  2  1  1  0  0  0  0
  4  5  1  0  0  0  0
  5  6  2  0  0  0  0
  6  7  1  0  0  0  0
  8  6  1  0  0  0  0
  8  9  1  0  0  0  0
 10  8  2  0  0  0  0
 11  4  2  0  0  0  0
 11 10  1  0  0  0  0
 12 13  1  0  0  0  0
 13 15  2  0  0  0  0
 13  4  1  0  0  0  0
 14 13  2  0  0  0  0
 16 19  1  0  0  0  0
 16 18  1  0  0  0  0
 17 16  1  0  0  0  0
 19 24  1  0  0  0  0
 20 26  1  0  0  0  0
 21 27  1  0  0  0  0
 21 20  2  0  0  0  0
 22 21  1  0  0  0  0
 23 22  2  0  0  0  0
 23 24  1  0  0  0  0
 24 25  2  0  0  0  0
 25 20  1  0  0  0  0
 28 22  1  0  0  0  0
M  END
>  <minimizedAffinity>
-4.56428385

>  <minimizedRMSD>
3.65485334

$$$$
