
 OpenBabel03272506563D

 23 24  0  0  0  0  0  0  0  0999 V2000
   32.6210   28.8420   47.0260 C   0  0  0  0  0  0  0  0  0  0  0  0
   33.3480   29.9970   46.9270 C   0  0  0  0  0  0  0  0  0  0  0  0
   32.9050   31.0560   46.1500 C   0  0  0  0  0  0  0  0  0  0  0  0
   33.4550   31.9790   46.0520 H   0  0  0  0  0  0  0  0  0  0  0  0
   31.7110   30.9890   45.4430 C   0  0  0  0  0  0  0  0  0  0  0  0
   31.3070   31.7720   44.8210 H   0  0  0  0  0  0  0  0  0  0  0  0
   31.0010   29.8130   45.5630 C   0  0  0  0  0  3  0  0  0  0  0  0
   31.4150   28.7520   46.3230 C   0  0  0  0  0  3  0  0  0  0  0  0
   35.8720   30.5170   49.5600 C   0  0  0  0  0  0  0  0  0  0  0  0
   37.0730   30.5310   48.8500 C   0  0  0  0  0  0  0  0  0  0  0  0
   36.9860   30.3580   47.4610 C   0  0  0  0  0  0  0  0  0  0  0  0
   35.7560   30.1920   46.9100 N   0  0  0  0  0  0  0  0  0  0  0  0
   34.6250   30.1850   47.6280 C   0  0  0  0  0  0  0  0  0  0  0  0
   34.6750   30.3490   48.9660 N   0  0  0  0  0  0  0  0  0  0  0  0
   35.8470   30.6430   50.6330 H   0  0  0  0  0  0  0  0  0  0  0  0
   37.9070   30.3670   46.8990 H   0  0  0  0  0  0  0  0  0  0  0  0
   38.3150   30.7140   49.5280 N   0  0  0  0  0  0  0  0  0  0  0  0
   38.3350   30.5160   50.5380 H   0  0  0  0  0  0  0  0  0  0  0  0
   39.1390   31.0360   48.9720 H   0  0  0  0  0  0  0  0  0  0  0  0
   33.7560   27.9410   49.1860 H   0  0  0  0  0  0  0  0  0  0  0  0
   33.1840   27.5190   48.0030 S   0  0  0  0  0  0  0  0  0  0  0  0
   31.9810   26.6910   48.4230 O   0  0  0  0  0  0  0  0  0  0  0  0
   34.0990   26.5950   47.2570 O   0  0  0  0  0  0  0  0  0  0  0  0
  1 21  1  0  0  0  0
  2  1  1  0  0  0  0
  2 13  1  0  0  0  0
  3  2  2  0  0  0  0
  4  3  1  0  0  0  0
  5  7  2  0  0  0  0
  5  3  1  0  0  0  0
  6  5  1  0  0  0  0
  7  8  1  0  0  0  0
  8  1  2  0  0  0  0
  9 15  1  0  0  0  0
 10 17  1  0  0  0  0
 10  9  2  0  0  0  0
 11 10  1  0  0  0  0
 12 11  2  0  0  0  0
 12 13  1  0  0  0  0
 13 14  2  0  0  0  0
 14  9  1  0  0  0  0
 16 11  1  0  0  0  0
 17 18  1  0  0  0  0
 19 17  1  0  0  0  0
 21 22  2  0  0  0  0
 21 20  1  0  0  0  0
 23 21  2  0  0  0  0
M  END
>  <minimizedAffinity>
-3.75351858

>  <minimizedRMSD>
3.1317966

$$$$
