
 OpenBabel03272509463D

 28 29  0  0  0  0  0  0  0  0999 V2000
   32.9810   28.1090   48.5140 C   0  0  0  0  0  0  0  0  0  0  0  0
   32.9640   26.9960   48.6150 H   0  0  0  0  0  0  0  0  0  0  0  0
   31.9200   28.4170   48.5840 H   0  0  0  0  0  0  0  0  0  0  0  0
   33.7180   27.3450   46.3840 C   0  0  0  0  0  0  0  0  0  0  0  0
   33.5080   28.4780   47.1800 C   0  0  0  0  0  0  0  0  0  0  0  0
   33.7920   29.7230   46.6720 C   0  0  0  0  0  0  0  0  0  0  0  0
   33.5950   30.5250   47.3660 H   0  0  0  0  0  0  0  0  0  0  0  0
   34.2790   29.8660   45.3930 C   0  0  0  0  0  0  0  0  0  0  0  0
   34.4870   30.8870   45.0460 H   0  0  0  0  0  0  0  0  0  0  0  0
   34.5020   28.7800   44.5730 C   0  0  0  0  0  3  0  0  0  0  0  0
   34.2140   27.5120   45.0890 C   0  0  0  0  0  3  0  0  0  0  0  0
   33.5130   25.4250   48.1140 H   0  0  0  0  0  0  0  0  0  0  0  0
   33.4480   25.6760   46.7730 S   0  0  0  0  0  0  0  0  0  0  0  0
   32.1480   25.1430   46.2130 O   0  0  0  0  0  0  0  0  0  0  0  0
   34.5960   24.8860   46.1640 O   0  0  0  0  0  0  0  0  0  0  0  0
   33.7870   28.7000   49.6330 C   0  0  0  0  0  0  0  0  0  0  0  0
   33.7510   29.8180   49.4780 H   0  0  0  0  0  0  0  0  0  0  0  0
   33.2950   28.5360   50.6000 H   0  0  0  0  0  0  0  0  0  0  0  0
   35.1270   28.2600   49.5730 O   0  0  0  0  0  0  0  0  0  0  0  0
   37.4880   30.3230   51.3680 C   0  0  0  0  0  0  0  0  0  0  0  0
   38.1810   30.8950   50.2810 C   0  0  0  0  0  0  0  0  0  0  0  0
   37.7950   30.5380   48.9920 C   0  0  0  0  0  0  0  0  0  0  0  0
   36.7630   29.6490   48.8650 N   0  0  0  0  0  0  0  0  0  0  0  0
   36.1310   29.1290   49.9320 C   0  0  0  0  0  0  0  0  0  0  0  0
   36.4980   29.4710   51.1870 N   0  0  0  0  0  0  0  0  0  0  0  0
   37.7580   30.5760   52.3740 H   0  0  0  0  0  0  0  0  0  0  0  0
   38.9950   31.5960   50.4360 H   0  0  0  0  0  0  0  0  0  0  0  0
   38.2850   30.9390   48.1130 H   0  0  0  0  0  0  0  0  0  0  0  0
  1  3  1  0  0  0  0
  1  2  1  0  0  0  0
  1 16  1  0  0  0  0
  4 13  1  0  0  0  0
  4  5  1  0  0  0  0
  5  1  1  0  0  0  0
  6  5  2  0  0  0  0
  6  7  1  0  0  0  0
  8  6  1  0  0  0  0
  9  8  1  0  0  0  0
 10 11  1  0  0  0  0
 10  8  2  0  0  0  0
 11  4  2  0  0  0  0
 13 12  1  0  0  0  0
 14 13  2  0  0  0  0
 15 13  2  0  0  0  0
 16 18  1  0  0  0  0
 17 16  1  0  0  0  0
 19 16  1  0  0  0  0
 19 24  1  0  0  0  0
 20 26  1  0  0  0  0
 21 27  1  0  0  0  0
 21 20  2  0  0  0  0
 22 21  1  0  0  0  0
 23 22  2  0  0  0  0
 23 24  1  0  0  0  0
 24 25  2  0  0  0  0
 25 20  1  0  0  0  0
 28 22  1  0  0  0  0
M  END
>  <minimizedAffinity>
-4.14160013

>  <minimizedRMSD>
1.79611373

$$$$
