
 OpenBabel03272500023D

 31 33  0  0  0  0  0  0  0  0999 V2000
   35.6930   28.9100   49.3850 C   0  0  0  0  0  0  0  0  0  0  0  0
   35.8520   29.9510   48.4430 C   0  0  0  0  0  0  0  0  0  0  0  0
   35.1460   29.8370   47.2480 C   0  0  0  0  0  0  0  0  0  0  0  0
   34.3540   28.7480   47.0570 N   0  0  0  0  0  0  0  0  0  0  0  0
   34.2180   27.7740   47.9640 C   0  0  0  0  0  0  0  0  0  0  0  0
   34.8880   27.8560   49.1270 N   0  0  0  0  0  0  0  0  0  0  0  0
   36.2080   28.9150   50.3500 H   0  0  0  0  0  0  0  0  0  0  0  0
   35.2640   30.6340   46.5190 H   0  0  0  0  0  0  0  0  0  0  0  0
   36.7100   31.0290   48.7720 N   0  0  0  0  0  0  0  0  0  0  0  0
   36.4110   31.8800   49.7730 C   0  0  0  0  0  0  0  0  0  0  0  0
   37.2740   32.9340   50.0790 C   0  0  0  0  0  0  0  0  0  0  0  0
   38.3940   32.9840   49.2760 C   0  0  0  0  0  0  0  0  0  0  0  0
   39.1970   33.9410   49.5370 O   0  0  0  0  0  0  0  0  0  0  0  0
   38.7150   32.1550   48.2770 N   0  0  0  0  0  0  0  0  0  0  0  0
   37.8350   31.1560   48.0360 C   0  0  0  0  0  0  0  0  0  0  0  0
   38.1140   30.3620   47.1020 O   0  0  0  0  0  0  0  0  0  0  0  0
   35.5080   31.7740   50.3630 H   0  0  0  0  0  0  0  0  0  0  0  0
   37.1010   33.6510   50.8640 H   0  0  0  0  0  0  0  0  0  0  0  0
   39.5920   32.3000   47.7450 H   0  0  0  0  0  0  0  0  0  0  0  0
   31.9720   26.7210   47.7890 C   0  0  0  0  0  0  0  0  0  0  0  0
   33.3400   26.6530   47.6480 C   0  0  0  0  0  0  0  0  0  0  0  0
   33.9180   25.4860   47.1930 C   0  0  0  0  0  0  0  0  0  0  0  0
   35.0010   25.3950   47.0680 H   0  0  0  0  0  0  0  0  0  0  0  0
   33.2070   24.3490   46.8570 C   0  0  0  0  0  0  0  0  0  0  0  0
   33.6370   23.4400   46.5040 H   0  0  0  0  0  0  0  0  0  0  0  0
   31.8370   24.4000   46.9930 C   0  0  0  0  0  0  0  0  0  0  0  0
   31.2630   25.5640   47.4470 C   0  0  0  0  0  0  0  0  0  0  0  0
   32.1060   29.1930   48.5140 H   0  0  0  0  0  0  0  0  0  0  0  0
   31.2150   28.1690   48.3590 S   0  0  0  0  0  0  0  0  0  0  0  0
   30.0700   28.6100   47.4860 O   0  0  0  0  0  0  0  0  0  0  0  0
   30.5830   27.8280   49.7010 O   0  0  0  0  0  0  0  0  0  0  0  0
  1  7  1  0  0  0  0
  2  9  1  0  0  0  0
  2  1  2  0  0  0  0
  3  2  1  0  0  0  0
  4  3  2  0  0  0  0
  4  5  1  0  0  0  0
  5  6  2  0  0  0  0
  6  1  1  0  0  0  0
  8  3  1  0  0  0  0
  9 10  1  0  0  0  0
 10 11  2  0  0  0  0
 10 17  1  0  0  0  0
 11 18  1  0  0  0  0
 12 13  2  0  0  0  0
 12 11  1  0  0  0  0
 14 12  1  0  0  0  0
 15 14  1  0  0  0  0
 15  9  1  0  0  0  0
 16 15  2  0  0  0  0
 19 14  1  0  0  0  0
 20 29  1  0  0  0  0
 21 20  1  0  0  0  0
 21  5  1  0  0  0  0
 22 21  2  0  0  0  0
 23 22  1  0  0  0  0
 24 26  2  0  0  0  0
 24 22  1  0  0  0  0
 25 24  1  0  0  0  0
 26 27  1  0  0  0  0
 27 20  2  0  0  0  0
 29 28  1  0  0  0  0
 29 31  2  0  0  0  0
 30 29  2  0  0  0  0
M  END
>  <minimizedAffinity>
-5.3377943

>  <minimizedRMSD>
1.39064634

$$$$
