
 OpenBabel03272501453D

 37 40  0  0  0  0  0  0  0  0999 V2000
   37.7970   27.2960   35.6950 C   0  0  0  0  0  0  0  0  0  0  0  0
   37.8670   26.0730   34.9650 C   0  0  0  0  0  0  0  0  0  0  0  0
   37.2480   26.0290   33.7140 C   0  0  0  0  0  0  0  0  0  0  0  0
   36.6280   27.1480   33.2780 N   0  0  0  0  0  0  0  0  0  0  0  0
   36.5700   28.2890   33.9710 C   0  0  0  0  0  0  0  0  0  0  0  0
   37.1610   28.3550   35.1840 N   0  0  0  0  0  0  0  0  0  0  0  0
   38.2060   27.5190   36.6640 H   0  0  0  0  0  0  0  0  0  0  0  0
   37.3330   25.0920   33.2180 H   0  0  0  0  0  0  0  0  0  0  0  0
   38.0650   24.5170   36.8230 C   0  0  0  0  0  0  0  0  0  0  0  0
   38.5850   25.0140   35.6430 C   0  0  0  0  0  0  0  0  0  0  0  0
   39.7740   24.4580   35.1820 C   0  0  0  0  0  0  0  0  0  0  0  0
   40.3820   23.4410   35.9170 C   0  0  0  0  0  0  0  0  0  0  0  0
   41.5090   22.7280   35.7300 N   0  0  0  0  0  0  0  0  0  0  0  0
   41.6650   21.8570   36.7260 C   0  0  0  0  0  0  0  0  0  0  0  0
   40.6290   22.0000   37.5760 N   0  0  0  0  0  0  0  0  0  0  0  0
   39.8410   22.9650   37.0890 C   0  0  0  0  0  0  0  0  0  0  0  0
   38.6700   23.5150   37.5420 C   0  0  0  0  0  0  0  0  0  0  0  0
   37.1410   24.8600   37.3040 H   0  0  0  0  0  0  0  0  0  0  0  0
   40.1970   24.8340   34.2610 H   0  0  0  0  0  0  0  0  0  0  0  0
   42.1260   22.8860   34.9000 H   0  0  0  0  0  0  0  0  0  0  0  0
   42.5160   21.1860   36.7620 H   0  0  0  0  0  0  0  0  0  0  0  0
   38.2730   23.1090   38.4770 H   0  0  0  0  0  0  0  0  0  0  0  0
   35.8570   29.4360   33.3870 C   0  0  0  0  0  0  0  0  0  0  0  0
   36.6150   30.1430   32.9330 H   0  0  0  0  0  0  0  0  0  0  0  0
   35.1660   29.1240   32.5650 H   0  0  0  0  0  0  0  0  0  0  0  0
   33.8320   30.1670   34.7300 C   0  0  0  0  0  0  0  0  0  0  0  0
   35.1780   30.1920   34.4630 C   0  0  0  0  0  0  0  0  0  0  0  0
   35.9370   30.9990   35.3130 C   0  0  0  0  0  0  0  0  0  0  0  0
   37.0260   31.0800   35.1710 H   0  0  0  0  0  0  0  0  0  0  0  0
   35.4510   31.7450   36.3630 C   0  0  0  0  0  0  0  0  0  0  0  0
   36.1000   32.3490   36.9800 H   0  0  0  0  0  0  0  0  0  0  0  0
   34.1060   31.7160   36.6260 C   0  0  0  0  0  3  0  0  0  0  0  0
   33.3360   30.9250   35.7990 C   0  0  0  0  0  3  0  0  0  0  0  0
   33.2730   28.0200   33.5110 H   0  0  0  0  0  0  0  0  0  0  0  0
   32.6870   29.2640   33.8100 S   0  0  0  0  0  0  0  0  0  0  0  0
   31.4670   28.9050   34.6000 O   0  0  0  0  0  0  0  0  0  0  0  0
   32.3470   29.9010   32.4800 O   0  0  0  0  0  0  0  0  0  0  0  0
  1  7  1  0  0  0  0
  2 10  1  0  0  0  0
  2  1  2  0  0  0  0
  3  2  1  0  0  0  0
  4  3  2  0  0  0  0
  4  5  1  0  0  0  0
  5  6  2  0  0  0  0
  6  1  1  0  0  0  0
  8  3  1  0  0  0  0
  9 18  1  0  0  0  0
  9 17  1  0  0  0  0
 10  9  2  0  0  0  0
 11 10  1  0  0  0  0
 11 12  2  0  0  0  0
 12 16  1  0  0  0  0
 13 12  1  0  0  0  0
 13 14  1  0  0  0  0
 14 21  1  0  0  0  0
 14 15  2  0  0  0  0
 16 17  2  0  0  0  0
 16 15  1  0  0  0  0
 17 22  1  0  0  0  0
 19 11  1  0  0  0  0
 20 13  1  0  0  0  0
 23  5  1  0  0  0  0
 23 27  1  0  0  0  0
 24 23  1  0  0  0  0
 25 23  1  0  0  0  0
 26 33  1  0  0  0  0
 27 26  2  0  0  0  0
 27 28  1  0  0  0  0
 28 30  2  0  0  0  0
 29 28  1  0  0  0  0
 30 32  1  0  0  0  0
 30 31  1  0  0  0  0
 33 32  2  0  0  0  0
 34 35  1  0  0  0  0
 35 36  2  0  0  0  0
 35 26  1  0  0  0  0
 37 35  2  0  0  0  0
M  END
>  <minimizedAffinity>
-6.23249578

$$$$

 OpenBabel03272501453D

 37 40  0  0  0  0  0  0  0  0999 V2000
   37.5140   27.4810   35.0590 C   0  0  0  0  0  0  0  0  0  0  0  0
   38.3170   27.0890   33.9470 C   0  0  0  0  0  0  0  0  0  0  0  0
   37.9320   27.5360   32.6810 C   0  0  0  0  0  0  0  0  0  0  0  0
   36.8280   28.3100   32.5950 N   0  0  0  0  0  0  0  0  0  0  0  0
   36.0840   28.6720   33.6440 C   0  0  0  0  0  0  0  0  0  0  0  0
   36.4370   28.2510   34.8790 N   0  0  0  0  0  0  0  0  0  0  0  0
   37.6480   27.2370   36.0980 H   0  0  0  0  0  0  0  0  0  0  0  0
   38.5680   27.2110   31.8930 H   0  0  0  0  0  0  0  0  0  0  0  0
   39.2470   24.8930   34.4230 C   0  0  0  0  0  0  0  0  0  0  0  0
   39.4480   26.2550   34.2940 C   0  0  0  0  0  0  0  0  0  0  0  0
   40.7360   26.7360   34.5080 C   0  0  0  0  0  0  0  0  0  0  0  0
   41.7530   25.8410   34.8380 C   0  0  0  0  0  0  0  0  0  0  0  0
   43.0630   26.0040   35.0980 N   0  0  0  0  0  0  0  0  0  0  0  0
   43.6230   24.8250   35.3660 C   0  0  0  0  0  0  0  0  0  0  0  0
   42.6690   23.8770   35.2820 N   0  0  0  0  0  0  0  0  0  0  0  0
   41.5240   24.4890   34.9590 C   0  0  0  0  0  0  0  0  0  0  0  0
   40.2540   24.0180   34.7480 C   0  0  0  0  0  0  0  0  0  0  0  0
   38.2890   24.3770   34.2860 H   0  0  0  0  0  0  0  0  0  0  0  0
   40.9130   27.7980   34.4120 H   0  0  0  0  0  0  0  0  0  0  0  0
   43.5140   26.9480   35.0760 H   0  0  0  0  0  0  0  0  0  0  0  0
   44.6780   24.7410   35.6040 H   0  0  0  0  0  0  0  0  0  0  0  0
   40.1140   22.9380   34.8540 H   0  0  0  0  0  0  0  0  0  0  0  0
   34.8990   29.5140   33.4160 C   0  0  0  0  0  0  0  0  0  0  0  0
   35.1040   30.2000   32.5390 H   0  0  0  0  0  0  0  0  0  0  0  0
   33.9990   28.9050   33.1520 H   0  0  0  0  0  0  0  0  0  0  0  0
   33.5660   30.4110   35.3790 C   0  0  0  0  0  0  0  0  0  0  0  0
   34.6870   30.3920   34.5880 C   0  0  0  0  0  0  0  0  0  0  0  0
   35.6960   31.2800   34.9670 C   0  0  0  0  0  0  0  0  0  0  0  0
   36.6310   31.3330   34.3890 H   0  0  0  0  0  0  0  0  0  0  0  0
   35.6490   32.1430   36.0380 C   0  0  0  0  0  0  0  0  0  0  0  0
   36.4700   32.8050   36.2720 H   0  0  0  0  0  0  0  0  0  0  0  0
   34.5270   32.1580   36.8250 C   0  0  0  0  0  3  0  0  0  0  0  0
   33.5170   31.2880   36.4700 C   0  0  0  0  0  3  0  0  0  0  0  0
   32.6370   28.1320   34.7860 H   0  0  0  0  0  0  0  0  0  0  0  0
   32.1790   29.4240   35.1030 S   0  0  0  0  0  0  0  0  0  0  0  0
   31.3600   29.2210   36.3400 O   0  0  0  0  0  0  0  0  0  0  0  0
   31.3420   29.8770   33.9250 O   0  0  0  0  0  0  0  0  0  0  0  0
  1  7  1  0  0  0  0
  2 10  1  0  0  0  0
  2  1  2  0  0  0  0
  3  2  1  0  0  0  0
  4  3  2  0  0  0  0
  4  5  1  0  0  0  0
  5  6  2  0  0  0  0
  6  1  1  0  0  0  0
  8  3  1  0  0  0  0
  9 17  1  0  0  0  0
 10  9  2  0  0  0  0
 10 11  1  0  0  0  0
 11 12  2  0  0  0  0
 12 16  1  0  0  0  0
 12 13  1  0  0  0  0
 13 14  1  0  0  0  0
 14 21  1  0  0  0  0
 15 14  2  0  0  0  0
 16 15  1  0  0  0  0
 17 22  1  0  0  0  0
 17 16  2  0  0  0  0
 18  9  1  0  0  0  0
 19 11  1  0  0  0  0
 20 13  1  0  0  0  0
 23  5  1  0  0  0  0
 23 27  1  0  0  0  0
 24 23  1  0  0  0  0
 25 23  1  0  0  0  0
 26 33  1  0  0  0  0
 27 28  1  0  0  0  0
 27 26  2  0  0  0  0
 28 30  2  0  0  0  0
 29 28  1  0  0  0  0
 30 31  1  0  0  0  0
 30 32  1  0  0  0  0
 33 32  2  0  0  0  0
 34 35  1  0  0  0  0
 35 26  1  0  0  0  0
 35 36  2  0  0  0  0
 37 35  2  0  0  0  0
M  END
>  <minimizedAffinity>
-5.7581768

$$$$

 OpenBabel03272501453D

 37 40  0  0  0  0  0  0  0  0999 V2000
   37.6010   26.8530   34.1280 C   0  0  0  0  0  0  0  0  0  0  0  0
   36.8350   27.0140   32.9360 C   0  0  0  0  0  0  0  0  0  0  0  0
   36.7180   25.9110   32.0870 C   0  0  0  0  0  0  0  0  0  0  0  0
   37.3350   24.7660   32.4530 N   0  0  0  0  0  0  0  0  0  0  0  0
   38.0490   24.6270   33.5740 C   0  0  0  0  0  0  0  0  0  0  0  0
   38.1770   25.6800   34.4100 N   0  0  0  0  0  0  0  0  0  0  0  0
   37.8030   27.5790   34.8940 H   0  0  0  0  0  0  0  0  0  0  0  0
   36.1370   26.0920   31.2160 H   0  0  0  0  0  0  0  0  0  0  0  0
   35.9100   29.0510   33.8890 C   0  0  0  0  0  0  0  0  0  0  0  0
   36.2730   28.3370   32.7620 C   0  0  0  0  0  0  0  0  0  0  0  0
   36.0720   28.9440   31.5260 C   0  0  0  0  0  0  0  0  0  0  0  0
   35.5230   30.2240   31.4760 C   0  0  0  0  0  0  0  0  0  0  0  0
   35.2170   31.0470   30.4560 N   0  0  0  0  0  0  0  0  0  0  0  0
   34.7030   32.1830   30.9260 C   0  0  0  0  0  0  0  0  0  0  0  0
   34.6720   32.1050   32.2710 N   0  0  0  0  0  0  0  0  0  0  0  0
   35.1710   30.9120   32.6150 C   0  0  0  0  0  0  0  0  0  0  0  0
   35.3690   30.3120   33.8310 C   0  0  0  0  0  0  0  0  0  0  0  0
   36.0080   28.6980   34.9230 H   0  0  0  0  0  0  0  0  0  0  0  0
   36.3490   28.4010   30.6330 H   0  0  0  0  0  0  0  0  0  0  0  0
   35.3840   30.7710   29.4600 H   0  0  0  0  0  0  0  0  0  0  0  0
   34.3900   32.9800   30.2610 H   0  0  0  0  0  0  0  0  0  0  0  0
   35.0760   30.8910   34.7120 H   0  0  0  0  0  0  0  0  0  0  0  0
   38.6780   23.3260   33.8560 C   0  0  0  0  0  0  0  0  0  0  0  0
   38.9780   22.8470   32.8760 H   0  0  0  0  0  0  0  0  0  0  0  0
   39.6100   23.4370   34.4660 H   0  0  0  0  0  0  0  0  0  0  0  0
   37.4540   22.2840   35.8190 C   0  0  0  0  0  0  0  0  0  0  0  0
   37.6820   22.4220   34.4720 C   0  0  0  0  0  0  0  0  0  0  0  0
   36.8740   21.6360   33.6490 C   0  0  0  0  0  0  0  0  0  0  0  0
   36.9890   21.6820   32.5560 H   0  0  0  0  0  0  0  0  0  0  0  0
   35.8980   20.7630   34.0740 C   0  0  0  0  0  0  0  0  0  0  0  0
   35.3090   20.1850   33.3780 H   0  0  0  0  0  0  0  0  0  0  0  0
   35.6730   20.6290   35.4200 C   0  0  0  0  0  3  0  0  0  0  0  0
   36.4610   21.3970   36.2530 C   0  0  0  0  0  3  0  0  0  0  0  0
   38.4520   24.4680   36.6170 H   0  0  0  0  0  0  0  0  0  0  0  0
   38.3370   23.1300   37.0350 S   0  0  0  0  0  0  0  0  0  0  0  0
   37.5930   23.2210   38.3300 O   0  0  0  0  0  0  0  0  0  0  0  0
   39.7510   22.6200   37.2150 O   0  0  0  0  0  0  0  0  0  0  0  0
  1  6  1  0  0  0  0
  1  7  1  0  0  0  0
  2  1  2  0  0  0  0
  3  4  2  0  0  0  0
  3  2  1  0  0  0  0
  4  5  1  0  0  0  0
  5 23  1  0  0  0  0
  5  6  2  0  0  0  0
  8  3  1  0  0  0  0
  9 18  1  0  0  0  0
 10  2  1  0  0  0  0
 10  9  2  0  0  0  0
 11 10  1  0  0  0  0
 12 11  2  0  0  0  0
 12 16  1  0  0  0  0
 13 14  1  0  0  0  0
 13 12  1  0  0  0  0
 14 15  2  0  0  0  0
 15 16  1  0  0  0  0
 16 17  2  0  0  0  0
 17  9  1  0  0  0  0
 17 22  1  0  0  0  0
 19 11  1  0  0  0  0
 20 13  1  0  0  0  0
 21 14  1  0  0  0  0
 23 25  1  0  0  0  0
 23 27  1  0  0  0  0
 24 23  1  0  0  0  0
 26 33  1  0  0  0  0
 26 35  1  0  0  0  0
 27 26  2  0  0  0  0
 28 30  2  0  0  0  0
 28 27  1  0  0  0  0
 29 28  1  0  0  0  0
 30 32  1  0  0  0  0
 31 30  1  0  0  0  0
 32 33  2  0  0  0  0
 34 35  1  0  0  0  0
 35 37  2  0  0  0  0
 35 36  2  0  0  0  0
M  END
>  <minimizedAffinity>
-5.70356846

$$$$

 OpenBabel03272501453D

 37 40  0  0  0  0  0  0  0  0999 V2000
   36.5030   27.9760   34.5740 C   0  0  0  0  0  0  0  0  0  0  0  0
   35.9550   29.0390   33.7970 C   0  0  0  0  0  0  0  0  0  0  0  0
   36.2210   29.0450   32.4260 C   0  0  0  0  0  0  0  0  0  0  0  0
   36.9780   28.0420   31.9280 N   0  0  0  0  0  0  0  0  0  0  0  0
   37.4860   27.0510   32.6650 C   0  0  0  0  0  0  0  0  0  0  0  0
   37.2420   27.0250   33.9940 N   0  0  0  0  0  0  0  0  0  0  0  0
   36.4100   27.8050   35.6310 H   0  0  0  0  0  0  0  0  0  0  0  0
   35.7870   29.8610   31.9010 H   0  0  0  0  0  0  0  0  0  0  0  0
   33.8360   30.1370   34.2670 C   0  0  0  0  0  0  0  0  0  0  0  0
   35.1800   29.9960   34.5600 C   0  0  0  0  0  0  0  0  0  0  0  0
   35.7010   30.7890   35.5770 C   0  0  0  0  0  0  0  0  0  0  0  0
   34.8620   31.6780   36.2460 C   0  0  0  0  0  0  0  0  0  0  0  0
   35.0720   32.5550   37.2460 N   0  0  0  0  0  0  0  0  0  0  0  0
   33.9370   33.1860   37.5430 C   0  0  0  0  0  0  0  0  0  0  0  0
   32.9700   32.7190   36.7290 N   0  0  0  0  0  0  0  0  0  0  0  0
   33.5270   31.7980   35.9330 C   0  0  0  0  0  0  0  0  0  0  0  0
   33.0160   31.0150   34.9310 C   0  0  0  0  0  0  0  0  0  0  0  0
   33.2940   29.5810   33.4920 H   0  0  0  0  0  0  0  0  0  0  0  0
   36.7500   30.6940   35.8200 H   0  0  0  0  0  0  0  0  0  0  0  0
   36.0160   32.6730   37.6830 H   0  0  0  0  0  0  0  0  0  0  0  0
   33.8940   33.9360   38.3250 H   0  0  0  0  0  0  0  0  0  0  0  0
   31.9510   31.1400   34.7130 H   0  0  0  0  0  0  0  0  0  0  0  0
   38.3010   26.0210   32.0020 C   0  0  0  0  0  0  0  0  0  0  0  0
   38.4190   26.2960   30.9110 H   0  0  0  0  0  0  0  0  0  0  0  0
   39.3300   25.9580   32.4380 H   0  0  0  0  0  0  0  0  0  0  0  0
   37.9100   23.6430   32.7980 C   0  0  0  0  0  0  0  0  0  0  0  0
   37.5780   24.7300   32.0270 C   0  0  0  0  0  0  0  0  0  0  0  0
   36.4460   24.5660   31.2270 C   0  0  0  0  0  0  0  0  0  0  0  0
   36.1080   25.3860   30.5750 H   0  0  0  0  0  0  0  0  0  0  0  0
   35.6660   23.4350   31.1560 C   0  0  0  0  0  0  0  0  0  0  0  0
   34.8010   23.3790   30.5110 H   0  0  0  0  0  0  0  0  0  0  0  0
   36.0010   22.3530   31.9270 C   0  0  0  0  0  3  0  0  0  0  0  0
   37.1160   22.4920   32.7270 C   0  0  0  0  0  3  0  0  0  0  0  0
   40.3020   24.3400   33.2450 H   0  0  0  0  0  0  0  0  0  0  0  0
   39.2750   23.5930   33.8510 S   0  0  0  0  0  0  0  0  0  0  0  0
   39.0310   24.3020   35.1460 O   0  0  0  0  0  0  0  0  0  0  0  0
   39.8290   22.1980   34.0510 O   0  0  0  0  0  0  0  0  0  0  0  0
  1  7  1  0  0  0  0
  2 10  1  0  0  0  0
  2  1  2  0  0  0  0
  3  2  1  0  0  0  0
  4  3  2  0  0  0  0
  4  5  1  0  0  0  0
  5  6  2  0  0  0  0
  6  1  1  0  0  0  0
  8  3  1  0  0  0  0
  9 10  2  0  0  0  0
  9 17  1  0  0  0  0
 10 11  1  0  0  0  0
 11 19  1  0  0  0  0
 11 12  2  0  0  0  0
 12 13  1  0  0  0  0
 13 14  1  0  0  0  0
 13 20  1  0  0  0  0
 14 21  1  0  0  0  0
 15 14  2  0  0  0  0
 16 12  1  0  0  0  0
 16 15  1  0  0  0  0
 17 16  2  0  0  0  0
 18  9  1  0  0  0  0
 22 17  1  0  0  0  0
 23 27  1  0  0  0  0
 23 25  1  0  0  0  0
 23  5  1  0  0  0  0
 24 23  1  0  0  0  0
 26 35  1  0  0  0  0
 27 26  2  0  0  0  0
 28 27  1  0  0  0  0
 29 28  1  0  0  0  0
 30 28  2  0  0  0  0
 30 32  1  0  0  0  0
 31 30  1  0  0  0  0
 32 33  2  0  0  0  0
 33 26  1  0  0  0  0
 34 35  1  0  0  0  0
 35 37  2  0  0  0  0
 35 36  2  0  0  0  0
M  END
>  <minimizedAffinity>
-5.64436769

$$$$

 OpenBabel03272501453D

 37 40  0  0  0  0  0  0  0  0999 V2000
   36.5720   28.0050   34.5670 C   0  0  0  0  0  0  0  0  0  0  0  0
   35.9660   29.0990   33.8820 C   0  0  0  0  0  0  0  0  0  0  0  0
   36.1310   29.1680   32.4970 C   0  0  0  0  0  0  0  0  0  0  0  0
   36.8500   28.1930   31.8990 N   0  0  0  0  0  0  0  0  0  0  0  0
   37.4130   27.1720   32.5510 C   0  0  0  0  0  0  0  0  0  0  0  0
   37.2670   27.0840   33.8910 N   0  0  0  0  0  0  0  0  0  0  0  0
   36.5570   27.7850   35.6190 H   0  0  0  0  0  0  0  0  0  0  0  0
   35.6570   30.0050   32.0430 H   0  0  0  0  0  0  0  0  0  0  0  0
   35.9750   30.8960   35.5200 C   0  0  0  0  0  0  0  0  0  0  0  0
   35.2470   30.0160   34.7430 C   0  0  0  0  0  0  0  0  0  0  0  0
   33.8600   30.0700   34.8400 C   0  0  0  0  0  0  0  0  0  0  0  0
   33.2730   30.9930   35.7030 C   0  0  0  0  0  0  0  0  0  0  0  0
   31.9910   31.2740   36.0050 N   0  0  0  0  0  0  0  0  0  0  0  0
   31.9410   32.2570   36.9030 C   0  0  0  0  0  0  0  0  0  0  0  0
   33.2030   32.6260   37.1940 N   0  0  0  0  0  0  0  0  0  0  0  0
   34.0230   31.8600   36.4650 C   0  0  0  0  0  0  0  0  0  0  0  0
   35.3890   31.8040   36.3670 C   0  0  0  0  0  0  0  0  0  0  0  0
   37.0700   30.9640   35.5470 H   0  0  0  0  0  0  0  0  0  0  0  0
   33.2730   29.3880   34.2410 H   0  0  0  0  0  0  0  0  0  0  0  0
   31.1970   30.7560   35.5610 H   0  0  0  0  0  0  0  0  0  0  0  0
   30.9950   32.6310   37.2790 H   0  0  0  0  0  0  0  0  0  0  0  0
   35.9490   32.5090   36.9890 H   0  0  0  0  0  0  0  0  0  0  0  0
   38.1790   26.1770   31.7830 C   0  0  0  0  0  0  0  0  0  0  0  0
   38.1490   26.4610   30.6880 H   0  0  0  0  0  0  0  0  0  0  0  0
   39.2560   26.1540   32.0870 H   0  0  0  0  0  0  0  0  0  0  0  0
   37.9460   23.8060   32.6560 C   0  0  0  0  0  0  0  0  0  0  0  0
   37.5150   24.8580   31.8870 C   0  0  0  0  0  0  0  0  0  0  0  0
   36.3390   24.6290   31.1720 C   0  0  0  0  0  0  0  0  0  0  0  0
   35.9210   25.4170   30.5270 H   0  0  0  0  0  0  0  0  0  0  0  0
   35.6050   23.4640   31.1800 C   0  0  0  0  0  0  0  0  0  0  0  0
   34.7010   23.3570   30.5990 H   0  0  0  0  0  0  0  0  0  0  0  0
   36.0380   22.4160   31.9500 C   0  0  0  0  0  3  0  0  0  0  0  0
   37.2000   22.6210   32.6670 C   0  0  0  0  0  3  0  0  0  0  0  0
   40.2510   24.7810   33.0340 H   0  0  0  0  0  0  0  0  0  0  0  0
   39.3810   23.8390   33.6120 S   0  0  0  0  0  0  0  0  0  0  0  0
   39.1440   24.3680   34.9920 O   0  0  0  0  0  0  0  0  0  0  0  0
   40.1290   22.5220   33.6190 O   0  0  0  0  0  0  0  0  0  0  0  0
  1  7  1  0  0  0  0
  2  1  2  0  0  0  0
  2 10  1  0  0  0  0
  3  2  1  0  0  0  0
  4  3  2  0  0  0  0
  4  5  1  0  0  0  0
  5  6  2  0  0  0  0
  6  1  1  0  0  0  0
  8  3  1  0  0  0  0
  9 18  1  0  0  0  0
  9 17  1  0  0  0  0
 10 11  1  0  0  0  0
 10  9  2  0  0  0  0
 11 12  2  0  0  0  0
 12 13  1  0  0  0  0
 12 16  1  0  0  0  0
 13 14  1  0  0  0  0
 14 15  2  0  0  0  0
 14 21  1  0  0  0  0
 16 15  1  0  0  0  0
 17 16  2  0  0  0  0
 17 22  1  0  0  0  0
 19 11  1  0  0  0  0
 20 13  1  0  0  0  0
 23 27  1  0  0  0  0
 23 25  1  0  0  0  0
 23  5  1  0  0  0  0
 24 23  1  0  0  0  0
 26 33  1  0  0  0  0
 26 35  1  0  0  0  0
 27 26  2  0  0  0  0
 28 30  2  0  0  0  0
 28 27  1  0  0  0  0
 29 28  1  0  0  0  0
 30 32  1  0  0  0  0
 31 30  1  0  0  0  0
 32 33  2  0  0  0  0
 34 35  1  0  0  0  0
 35 37  2  0  0  0  0
 35 36  2  0  0  0  0
M  END
>  <minimizedAffinity>
-5.62238932

$$$$

 OpenBabel03272501453D

 37 40  0  0  0  0  0  0  0  0999 V2000
   36.5870   26.8430   33.2560 C   0  0  0  0  0  0  0  0  0  0  0  0
   36.7410   27.9180   34.1800 C   0  0  0  0  0  0  0  0  0  0  0  0
   37.7010   27.7760   35.1850 C   0  0  0  0  0  0  0  0  0  0  0  0
   38.4200   26.6320   35.2120 N   0  0  0  0  0  0  0  0  0  0  0  0
   38.2670   25.6320   34.3400 C   0  0  0  0  0  0  0  0  0  0  0  0
   37.3450   25.7460   33.3590 N   0  0  0  0  0  0  0  0  0  0  0  0
   35.9080   26.7690   32.4260 H   0  0  0  0  0  0  0  0  0  0  0  0
   37.7690   28.6080   35.8430 H   0  0  0  0  0  0  0  0  0  0  0  0
   35.8070   30.0490   34.8860 C   0  0  0  0  0  0  0  0  0  0  0  0
   35.8530   29.0370   33.9450 C   0  0  0  0  0  0  0  0  0  0  0  0
   35.0370   29.1650   32.8260 C   0  0  0  0  0  0  0  0  0  0  0  0
   34.2190   30.2870   32.7020 C   0  0  0  0  0  0  0  0  0  0  0  0
   33.3420   30.6780   31.7580 N   0  0  0  0  0  0  0  0  0  0  0  0
   32.7990   31.8450   32.0990 C   0  0  0  0  0  0  0  0  0  0  0  0
   33.3250   32.2250   33.2800 N   0  0  0  0  0  0  0  0  0  0  0  0
   34.1930   31.2790   33.6550 C   0  0  0  0  0  0  0  0  0  0  0  0
   34.9990   31.1520   34.7570 C   0  0  0  0  0  0  0  0  0  0  0  0
   36.3910   30.0800   35.8140 H   0  0  0  0  0  0  0  0  0  0  0  0
   35.0580   28.3830   32.0790 H   0  0  0  0  0  0  0  0  0  0  0  0
   33.1610   30.1000   30.9050 H   0  0  0  0  0  0  0  0  0  0  0  0
   32.0630   32.3330   31.4680 H   0  0  0  0  0  0  0  0  0  0  0  0
   34.9490   31.9610   35.4900 H   0  0  0  0  0  0  0  0  0  0  0  0
   39.1100   24.4330   34.4820 C   0  0  0  0  0  0  0  0  0  0  0  0
   38.6740   23.6050   33.8470 H   0  0  0  0  0  0  0  0  0  0  0  0
   40.1530   24.6110   34.1200 H   0  0  0  0  0  0  0  0  0  0  0  0
   40.0670   23.3160   36.5490 C   0  0  0  0  0  0  0  0  0  0  0  0
   39.0520   23.9560   35.8820 C   0  0  0  0  0  0  0  0  0  0  0  0
   37.8930   24.1690   36.6280 C   0  0  0  0  0  0  0  0  0  0  0  0
   37.0270   24.6750   36.1720 H   0  0  0  0  0  0  0  0  0  0  0  0
   37.6980   23.7980   37.9390 C   0  0  0  0  0  0  0  0  0  0  0  0
   36.7690   23.9950   38.4550 H   0  0  0  0  0  0  0  0  0  0  0  0
   38.7130   23.1590   38.6020 C   0  0  0  0  0  3  0  0  0  0  0  0
   39.8710   22.9380   37.8840 C   0  0  0  0  0  3  0  0  0  0  0  0
   42.3590   22.2760   36.8210 H   0  0  0  0  0  0  0  0  0  0  0  0
   41.5870   22.9210   35.8370 S   0  0  0  0  0  0  0  0  0  0  0  0
   41.4670   21.9000   34.7490 O   0  0  0  0  0  0  0  0  0  0  0  0
   42.3820   24.1350   35.4050 O   0  0  0  0  0  0  0  0  0  0  0  0
  1  6  2  0  0  0  0
  1  2  1  0  0  0  0
  2  3  2  0  0  0  0
  3  4  1  0  0  0  0
  3  8  1  0  0  0  0
  5 23  1  0  0  0  0
  5  4  2  0  0  0  0
  6  5  1  0  0  0  0
  7  1  1  0  0  0  0
  9 18  1  0  0  0  0
 10  2  1  0  0  0  0
 10  9  2  0  0  0  0
 11 10  1  0  0  0  0
 12 11  2  0  0  0  0
 12 16  1  0  0  0  0
 13 14  1  0  0  0  0
 13 12  1  0  0  0  0
 14 15  2  0  0  0  0
 15 16  1  0  0  0  0
 16 17  2  0  0  0  0
 17  9  1  0  0  0  0
 17 22  1  0  0  0  0
 19 11  1  0  0  0  0
 20 13  1  0  0  0  0
 21 14  1  0  0  0  0
 23 27  1  0  0  0  0
 24 23  1  0  0  0  0
 25 23  1  0  0  0  0
 26 33  1  0  0  0  0
 27 26  2  0  0  0  0
 27 28  1  0  0  0  0
 28 30  2  0  0  0  0
 29 28  1  0  0  0  0
 30 31  1  0  0  0  0
 30 32  1  0  0  0  0
 33 32  2  0  0  0  0
 35 26  1  0  0  0  0
 35 34  1  0  0  0  0
 36 35  2  0  0  0  0
 37 35  2  0  0  0  0
M  END
>  <minimizedAffinity>
-5.57497883

$$$$

 OpenBabel03272501453D

 37 40  0  0  0  0  0  0  0  0999 V2000
   37.7680   26.7820   32.9780 C   0  0  0  0  0  0  0  0  0  0  0  0
   36.5840   27.2900   32.3660 C   0  0  0  0  0  0  0  0  0  0  0  0
   35.9210   26.4650   31.4550 C   0  0  0  0  0  0  0  0  0  0  0  0
   36.4430   25.2420   31.2160 N   0  0  0  0  0  0  0  0  0  0  0  0
   37.5530   24.7770   31.7970 C   0  0  0  0  0  0  0  0  0  0  0  0
   38.2120   25.5570   32.6820 N   0  0  0  0  0  0  0  0  0  0  0  0
   38.4080   27.2640   33.6950 H   0  0  0  0  0  0  0  0  0  0  0  0
   35.0470   26.8980   31.0320 H   0  0  0  0  0  0  0  0  0  0  0  0
   36.2510   29.6400   31.8390 C   0  0  0  0  0  0  0  0  0  0  0  0
   36.2260   28.6300   32.7820 C   0  0  0  0  0  0  0  0  0  0  0  0
   35.8540   28.9720   34.0780 C   0  0  0  0  0  0  0  0  0  0  0  0
   35.5290   30.2960   34.3690 C   0  0  0  0  0  0  0  0  0  0  0  0
   35.1440   30.9150   35.5000 N   0  0  0  0  0  0  0  0  0  0  0  0
   34.9480   32.2110   35.2650 C   0  0  0  0  0  0  0  0  0  0  0  0
   35.2070   32.4470   33.9640 N   0  0  0  0  0  0  0  0  0  0  0  0
   35.5620   31.2820   33.4090 C   0  0  0  0  0  0  0  0  0  0  0  0
   35.9290   30.9430   32.1320 C   0  0  0  0  0  0  0  0  0  0  0  0
   36.5250   29.5180   30.7850 H   0  0  0  0  0  0  0  0  0  0  0  0
   35.8290   28.1960   34.8300 H   0  0  0  0  0  0  0  0  0  0  0  0
   35.0350   30.3930   36.4000 H   0  0  0  0  0  0  0  0  0  0  0  0
   34.6330   32.8880   36.0520 H   0  0  0  0  0  0  0  0  0  0  0  0
   35.9430   31.7550   31.4000 H   0  0  0  0  0  0  0  0  0  0  0  0
   38.0230   23.4270   31.4460 C   0  0  0  0  0  0  0  0  0  0  0  0
   37.9630   23.3010   30.3230 H   0  0  0  0  0  0  0  0  0  0  0  0
   39.0910   23.2680   31.7390 H   0  0  0  0  0  0  0  0  0  0  0  0
   37.1760   21.9120   33.2970 C   0  0  0  0  0  0  0  0  0  0  0  0
   37.1040   22.4210   32.0250 C   0  0  0  0  0  0  0  0  0  0  0  0
   36.0500   21.9340   31.2500 C   0  0  0  0  0  0  0  0  0  0  0  0
   35.9160   22.2860   30.2160 H   0  0  0  0  0  0  0  0  0  0  0  0
   35.1110   21.0130   31.6540 C   0  0  0  0  0  0  0  0  0  0  0  0
   34.3210   20.6800   30.9970 H   0  0  0  0  0  0  0  0  0  0  0  0
   35.1870   20.5070   32.9260 C   0  0  0  0  0  3  0  0  0  0  0  0
   36.2210   20.9750   33.7110 C   0  0  0  0  0  3  0  0  0  0  0  0
   38.5150   23.7430   34.4200 H   0  0  0  0  0  0  0  0  0  0  0  0
   38.3990   22.3410   34.4360 S   0  0  0  0  0  0  0  0  0  0  0  0
   38.0080   22.0290   35.8470 O   0  0  0  0  0  0  0  0  0  0  0  0
   39.7670   21.7990   34.0820 O   0  0  0  0  0  0  0  0  0  0  0  0
  1  7  1  0  0  0  0
  2 10  1  0  0  0  0
  2  1  2  0  0  0  0
  3  2  1  0  0  0  0
  4  3  2  0  0  0  0
  4  5  1  0  0  0  0
  5  6  2  0  0  0  0
  6  1  1  0  0  0  0
  8  3  1  0  0  0  0
  9 17  2  0  0  0  0
  9 10  1  0  0  0  0
 10 11  2  0  0  0  0
 11 12  1  0  0  0  0
 11 19  1  0  0  0  0
 12 13  1  0  0  0  0
 13 20  1  0  0  0  0
 14 13  1  0  0  0  0
 14 21  1  0  0  0  0
 15 14  2  0  0  0  0
 16 15  1  0  0  0  0
 16 12  2  0  0  0  0
 17 16  1  0  0  0  0
 18  9  1  0  0  0  0
 22 17  1  0  0  0  0
 23 25  1  0  0  0  0
 23  5  1  0  0  0  0
 23 27  1  0  0  0  0
 24 23  1  0  0  0  0
 26 33  1  0  0  0  0
 26 35  1  0  0  0  0
 27 26  2  0  0  0  0
 28 30  2  0  0  0  0
 28 27  1  0  0  0  0
 29 28  1  0  0  0  0
 30 32  1  0  0  0  0
 31 30  1  0  0  0  0
 32 33  2  0  0  0  0
 34 35  1  0  0  0  0
 35 36  2  0  0  0  0
 37 35  2  0  0  0  0
M  END
>  <minimizedAffinity>
-5.56211662

$$$$

 OpenBabel03272501453D

 37 40  0  0  0  0  0  0  0  0999 V2000
   36.6860   27.9280   34.5500 C   0  0  0  0  0  0  0  0  0  0  0  0
   35.9280   28.8760   33.8010 C   0  0  0  0  0  0  0  0  0  0  0  0
   36.0070   28.8130   32.4080 C   0  0  0  0  0  0  0  0  0  0  0  0
   36.7920   27.8580   31.8640 N   0  0  0  0  0  0  0  0  0  0  0  0
   37.4970   26.9740   32.5760 C   0  0  0  0  0  0  0  0  0  0  0  0
   37.4370   27.0150   33.9250 N   0  0  0  0  0  0  0  0  0  0  0  0
   36.7540   27.8210   35.6170 H   0  0  0  0  0  0  0  0  0  0  0  0
   35.4220   29.5450   31.9050 H   0  0  0  0  0  0  0  0  0  0  0  0
   33.7870   29.7780   34.5170 C   0  0  0  0  0  0  0  0  0  0  0  0
   35.1650   29.8020   34.6110 C   0  0  0  0  0  0  0  0  0  0  0  0
   35.7320   30.7240   35.4870 C   0  0  0  0  0  0  0  0  0  0  0  0
   34.9000   31.5700   36.2190 C   0  0  0  0  0  0  0  0  0  0  0  0
   35.1490   32.5390   37.1190 N   0  0  0  0  0  0  0  0  0  0  0  0
   34.0020   33.0680   37.5450 C   0  0  0  0  0  0  0  0  0  0  0  0
   32.9900   32.4390   36.9170 N   0  0  0  0  0  0  0  0  0  0  0  0
   33.5290   31.5220   36.1050 C   0  0  0  0  0  0  0  0  0  0  0  0
   32.9740   30.6140   35.2420 C   0  0  0  0  0  0  0  0  0  0  0  0
   33.2070   29.1090   33.8690 H   0  0  0  0  0  0  0  0  0  0  0  0
   36.8090   30.7590   35.5740 H   0  0  0  0  0  0  0  0  0  0  0  0
   36.1250   32.7890   37.4000 H   0  0  0  0  0  0  0  0  0  0  0  0
   33.9860   33.8690   38.2770 H   0  0  0  0  0  0  0  0  0  0  0  0
   31.8820   30.6090   35.1800 H   0  0  0  0  0  0  0  0  0  0  0  0
   38.3210   25.9850   31.8620 C   0  0  0  0  0  0  0  0  0  0  0  0
   37.8660   25.8000   30.8430 H   0  0  0  0  0  0  0  0  0  0  0  0
   39.3640   26.3540   31.6930 H   0  0  0  0  0  0  0  0  0  0  0  0
   37.3720   23.6810   32.3410 C   0  0  0  0  0  0  0  0  0  0  0  0
   38.2690   24.6920   32.5800 C   0  0  0  0  0  0  0  0  0  0  0  0
   39.2060   24.4300   33.5810 C   0  0  0  0  0  0  0  0  0  0  0  0
   39.9630   25.1860   33.8410 H   0  0  0  0  0  0  0  0  0  0  0  0
   39.2920   23.2730   34.3220 C   0  0  0  0  0  0  0  0  0  0  0  0
   40.0450   23.1400   35.0850 H   0  0  0  0  0  0  0  0  0  0  0  0
   38.3940   22.2660   34.0800 C   0  0  0  0  0  3  0  0  0  0  0  0
   37.4590   22.5030   33.0930 C   0  0  0  0  0  3  0  0  0  0  0  0
   36.6890   24.1910   29.9580 H   0  0  0  0  0  0  0  0  0  0  0  0
   36.1090   23.7740   31.1700 S   0  0  0  0  0  0  0  0  0  0  0  0
   35.5240   22.4350   30.8460 O   0  0  0  0  0  0  0  0  0  0  0  0
   35.0500   24.8010   31.5080 O   0  0  0  0  0  0  0  0  0  0  0  0
  1  7  1  0  0  0  0
  2  1  2  0  0  0  0
  2 10  1  0  0  0  0
  3  2  1  0  0  0  0
  4  3  2  0  0  0  0
  4  5  1  0  0  0  0
  5  6  2  0  0  0  0
  6  1  1  0  0  0  0
  8  3  1  0  0  0  0
  9 10  2  0  0  0  0
  9 17  1  0  0  0  0
 10 11  1  0  0  0  0
 11 19  1  0  0  0  0
 11 12  2  0  0  0  0
 12 13  1  0  0  0  0
 13 20  1  0  0  0  0
 13 14  1  0  0  0  0
 14 21  1  0  0  0  0
 15 14  2  0  0  0  0
 16 12  1  0  0  0  0
 16 15  1  0  0  0  0
 17 16  2  0  0  0  0
 18  9  1  0  0  0  0
 22 17  1  0  0  0  0
 23  5  1  0  0  0  0
 23 27  1  0  0  0  0
 24 23  1  0  0  0  0
 25 23  1  0  0  0  0
 26 27  2  0  0  0  0
 26 33  1  0  0  0  0
 27 28  1  0  0  0  0
 28 29  1  0  0  0  0
 28 30  2  0  0  0  0
 30 31  1  0  0  0  0
 32 30  1  0  0  0  0
 33 32  2  0  0  0  0
 34 35  1  0  0  0  0
 35 37  2  0  0  0  0
 35 26  1  0  0  0  0
 36 35  2  0  0  0  0
M  END
>  <minimizedAffinity>
-5.54076338

$$$$

 OpenBabel03272501453D

 37 40  0  0  0  0  0  0  0  0999 V2000
   37.3960   27.3770   35.2070 C   0  0  0  0  0  0  0  0  0  0  0  0
   37.6230   26.1420   34.5320 C   0  0  0  0  0  0  0  0  0  0  0  0
   37.1950   26.0400   33.2060 C   0  0  0  0  0  0  0  0  0  0  0  0
   36.5970   27.1170   32.6520 N   0  0  0  0  0  0  0  0  0  0  0  0
   36.3900   28.2710   33.2950 C   0  0  0  0  0  0  0  0  0  0  0  0
   36.7960   28.3930   34.5780 N   0  0  0  0  0  0  0  0  0  0  0  0
   37.6510   27.6420   36.2170 H   0  0  0  0  0  0  0  0  0  0  0  0
   37.3910   25.0960   32.7570 H   0  0  0  0  0  0  0  0  0  0  0  0
   37.7740   24.8630   36.5940 C   0  0  0  0  0  0  0  0  0  0  0  0
   38.2810   25.1350   35.3370 C   0  0  0  0  0  0  0  0  0  0  0  0
   39.3990   24.4150   34.9280 C   0  0  0  0  0  0  0  0  0  0  0  0
   39.9520   23.4660   35.7870 C   0  0  0  0  0  0  0  0  0  0  0  0
   41.0060   22.6370   35.6740 N   0  0  0  0  0  0  0  0  0  0  0  0
   41.1340   21.9110   36.7830 C   0  0  0  0  0  0  0  0  0  0  0  0
   40.1520   22.2670   37.6340 N   0  0  0  0  0  0  0  0  0  0  0  0
   39.4250   23.2160   37.0340 C   0  0  0  0  0  0  0  0  0  0  0  0
   38.3240   23.9270   37.4350 C   0  0  0  0  0  0  0  0  0  0  0  0
   36.9030   25.3530   37.0460 H   0  0  0  0  0  0  0  0  0  0  0  0
   39.8110   24.6130   33.9480 H   0  0  0  0  0  0  0  0  0  0  0  0
   41.5980   22.6170   34.8110 H   0  0  0  0  0  0  0  0  0  0  0  0
   41.9270   21.1790   36.8930 H   0  0  0  0  0  0  0  0  0  0  0  0
   37.9360   23.6990   38.4320 H   0  0  0  0  0  0  0  0  0  0  0  0
   35.7210   29.3690   32.5800 C   0  0  0  0  0  0  0  0  0  0  0  0
   36.3710   30.2940   32.6420 H   0  0  0  0  0  0  0  0  0  0  0  0
   35.5820   29.1380   31.4940 H   0  0  0  0  0  0  0  0  0  0  0  0
   34.2810   30.7380   34.1590 C   0  0  0  0  0  0  0  0  0  0  0  0
   34.4560   29.7060   33.2710 C   0  0  0  0  0  0  0  0  0  0  0  0
   33.3150   28.9450   33.0130 C   0  0  0  0  0  0  0  0  0  0  0  0
   33.3630   28.0950   32.3140 H   0  0  0  0  0  0  0  0  0  0  0  0
   32.0700   29.1450   33.5650 C   0  0  0  0  0  0  0  0  0  0  0  0
   31.2290   28.5130   33.3190 H   0  0  0  0  0  0  0  0  0  0  0  0
   31.9000   30.1770   34.4510 C   0  0  0  0  0  3  0  0  0  0  0  0
   33.0150   30.9440   34.7210 C   0  0  0  0  0  3  0  0  0  0  0  0
   36.5610   31.7290   33.6860 H   0  0  0  0  0  0  0  0  0  0  0  0
   35.5430   31.8040   34.6540 S   0  0  0  0  0  0  0  0  0  0  0  0
   35.1270   33.2420   34.6260 O   0  0  0  0  0  0  0  0  0  0  0  0
   36.1810   31.4120   35.9700 O   0  0  0  0  0  0  0  0  0  0  0  0
  1  7  1  0  0  0  0
  2  1  2  0  0  0  0
  2 10  1  0  0  0  0
  3  2  1  0  0  0  0
  4  3  2  0  0  0  0
  4  5  1  0  0  0  0
  5  6  2  0  0  0  0
  6  1  1  0  0  0  0
  8  3  1  0  0  0  0
  9 18  1  0  0  0  0
  9 17  1  0  0  0  0
 10  9  2  0  0  0  0
 11 10  1  0  0  0  0
 11 12  2  0  0  0  0
 12 16  1  0  0  0  0
 13 12  1  0  0  0  0
 13 14  1  0  0  0  0
 14 21  1  0  0  0  0
 14 15  2  0  0  0  0
 16 17  2  0  0  0  0
 16 15  1  0  0  0  0
 17 22  1  0  0  0  0
 19 11  1  0  0  0  0
 20 13  1  0  0  0  0
 23 24  1  0  0  0  0
 23 27  1  0  0  0  0
 23  5  1  0  0  0  0
 25 23  1  0  0  0  0
 26 35  1  0  0  0  0
 26 33  1  0  0  0  0
 27 26  2  0  0  0  0
 28 27  1  0  0  0  0
 28 30  2  0  0  0  0
 29 28  1  0  0  0  0
 30 32  1  0  0  0  0
 31 30  1  0  0  0  0
 32 33  2  0  0  0  0
 34 35  1  0  0  0  0
 35 37  2  0  0  0  0
 36 35  2  0  0  0  0
M  END
>  <minimizedAffinity>
-5.53442812

$$$$
