
 OpenBabel03272504403D

 45 47  0  0  0  0  0  0  0  0999 V2000
   38.7210   26.1510   31.3320 C   0  0  0  0  0  0  0  0  0  0  0  0
   39.4910   25.3540   31.3600 H   0  0  0  0  0  0  0  0  0  0  0  0
   38.8860   26.6450   30.3330 H   0  0  0  0  0  0  0  0  0  0  0  0
   38.6530   23.2670   32.0070 Cl  0  0  0  0  0  0  0  0  0  0  0  0
   37.2220   24.2030   31.5700 C   0  0  0  0  0  0  0  0  0  0  0  0
   36.0090   23.5850   31.5330 C   0  0  0  0  0  0  0  0  0  0  0  0
   34.8930   24.2990   31.1960 C   0  0  0  0  0  0  0  0  0  0  0  0
   35.0200   25.6430   30.8970 C   0  0  0  0  0  0  0  0  0  0  0  0
   36.2900   26.2270   30.9510 C   0  0  0  0  0  0  0  0  0  0  0  0
   37.4140   25.5300   31.2850 C   0  0  0  0  0  0  0  0  0  0  0  0
   33.9330   23.7680   31.1780 H   0  0  0  0  0  0  0  0  0  0  0  0
   34.0780   26.1120   30.6450 H   0  0  0  0  0  0  0  0  0  0  0  0
   36.1800   27.2240   30.6980 H   0  0  0  0  0  0  0  0  0  0  0  0
   35.7960   19.9080   31.2710 C   0  0  0  0  0  0  0  0  0  0  0  0
   35.6470   19.5460   32.6420 C   0  0  0  0  0  0  0  0  0  0  0  0
   35.6260   20.5760   33.5990 C   0  0  0  0  0  0  0  0  0  0  0  0
   35.7490   21.8580   33.1690 N   0  0  0  0  0  0  0  0  0  0  0  0
   35.8890   22.1660   31.8500 C   0  0  0  0  0  0  0  0  0  0  0  0
   35.9110   21.1990   30.9300 N   0  0  0  0  0  0  0  0  0  0  0  0
   35.8120   19.1110   30.5240 H   0  0  0  0  0  0  0  0  0  0  0  0
   35.5540   18.5110   32.9380 H   0  0  0  0  0  0  0  0  0  0  0  0
   35.4800   20.1860   34.9380 N   0  0  0  0  0  0  0  0  0  0  0  0
   36.1250   20.1800   35.7500 H   0  0  0  0  0  0  0  0  0  0  0  0
   34.4890   19.8520   35.0230 H   0  0  0  0  0  0  0  0  0  0  0  0
   39.0170   27.1120   32.3970 C   0  0  0  0  0  0  0  0  0  0  0  0
   38.9260   28.1540   31.9980 H   0  0  0  0  0  0  0  0  0  0  0  0
   38.3140   27.0430   33.2610 H   0  0  0  0  0  0  0  0  0  0  0  0
   40.2840   26.9110   32.9110 O   0  0  0  0  0  0  0  0  0  0  0  0
   39.3630   27.4240   35.3290 O   0  0  0  0  0  0  0  0  0  0  0  0
   40.1890   26.4550   34.5200 P   0  0  2  0  0  0  0  0  0  0  0  0
   41.8050   26.3980   35.0990 O   0  0  0  0  0  0  0  0  0  0  0  0
   41.7440   26.5200   36.0930 H   0  0  0  0  0  0  0  0  0  0  0  0
   39.5550   24.9240   34.7220 O   0  0  0  0  0  0  0  0  0  0  0  0
   39.9960   23.4290   36.4170 C   0  0  0  0  0  0  0  0  0  0  0  0
   39.1690   24.4570   35.9590 C   0  0  0  0  0  0  0  0  0  0  0  0
   38.1300   24.8460   36.7610 C   0  0  0  0  0  0  0  0  0  0  0  0
   37.5360   25.6430   36.3400 H   0  0  0  0  0  0  0  0  0  0  0  0
   37.9010   24.2520   37.9790 C   0  0  0  0  0  0  0  0  0  0  0  0
   37.0520   24.6210   38.5550 H   0  0  0  0  0  0  0  0  0  0  0  0
   38.7130   23.2210   38.4610 C   0  0  0  0  0  3  0  0  0  0  0  0
   39.7580   22.8350   37.6450 C   0  0  0  0  0  3  0  0  0  0  0  0
   41.0510   22.7040   34.1910 H   0  0  0  0  0  0  0  0  0  0  0  0
   41.3770   22.8050   35.5120 S   0  0  0  0  0  0  0  0  0  0  0  0
   41.7020   21.4490   36.0830 O   0  0  0  0  0  0  0  0  0  0  0  0
   42.5930   23.6720   35.7260 O   0  0  0  0  0  0  0  0  0  0  0  0
  1  2  1  0  0  0  0
  1 25  1  0  0  0  0
  3  1  1  0  0  0  0
  5  4  1  0  0  0  0
  6  5  1  0  0  0  0
  6 18  1  0  0  0  0
  7  6  2  0  0  0  0
  8  9  2  0  0  0  0
  8  7  1  0  0  0  0
  9 10  1  0  0  0  0
 10  1  1  0  0  0  0
 10  5  2  0  0  0  0
 11  7  1  0  0  0  0
 12  8  1  0  0  0  0
 13  9  1  0  0  0  0
 14 15  1  0  0  0  0
 15 21  1  0  0  0  0
 15 16  2  0  0  0  0
 16 22  1  0  0  0  0
 17 16  1  0  0  0  0
 18 17  2  0  0  0  0
 19 14  2  0  0  0  0
 19 18  1  0  0  0  0
 20 14  1  0  0  0  0
 22 24  1  0  0  0  0
 22 23  1  0  0  0  0
 25 28  1  0  0  0  0
 25 27  1  0  0  0  0
 26 25  1  0  0  0  0
 28 30  1  0  0  0  0
 30 33  1  0  0  0  0
 30 31  1  0  0  0  0
 30 29  2  1  0  0  0
 31 32  1  0  0  0  0
 33 35  1  0  0  0  0
 34 41  1  0  0  0  0
 35 34  2  0  0  0  0
 35 36  1  0  0  0  0
 36 38  2  0  0  0  0
 37 36  1  0  0  0  0
 38 40  1  0  0  0  0
 38 39  1  0  0  0  0
 41 40  2  0  0  0  0
 42 43  1  0  0  0  0
 43 45  2  0  0  0  0
 43 44  2  0  0  0  0
 43 34  1  0  0  0  0
M  END
>  <minimizedAffinity>
-6.29872513

$$$$

 OpenBabel03272504403D

 45 47  0  0  0  0  0  0  0  0999 V2000
   37.2000   27.4990   32.9810 C   0  0  0  0  0  0  0  0  0  0  0  0
   36.6520   27.8470   33.8800 H   0  0  0  0  0  0  0  0  0  0  0  0
   38.2090   27.9920   33.0770 H   0  0  0  0  0  0  0  0  0  0  0  0
   38.8540   26.6380   35.2840 Cl  0  0  0  0  0  0  0  0  0  0  0  0
   38.1600   25.5220   34.1060 C   0  0  0  0  0  0  0  0  0  0  0  0
   38.3860   24.1860   34.2430 C   0  0  0  0  0  0  0  0  0  0  0  0
   37.8540   23.3110   33.3380 C   0  0  0  0  0  0  0  0  0  0  0  0
   37.0930   23.8030   32.2940 C   0  0  0  0  0  0  0  0  0  0  0  0
   36.8930   25.1840   32.2010 C   0  0  0  0  0  0  0  0  0  0  0  0
   37.4160   26.0730   33.0950 C   0  0  0  0  0  0  0  0  0  0  0  0
   38.0560   22.2410   33.4810 H   0  0  0  0  0  0  0  0  0  0  0  0
   36.7210   23.0280   31.6380 H   0  0  0  0  0  0  0  0  0  0  0  0
   36.3070   25.3540   31.3670 H   0  0  0  0  0  0  0  0  0  0  0  0
   41.1960   22.9540   36.3000 C   0  0  0  0  0  0  0  0  0  0  0  0
   40.5410   22.7260   37.5450 C   0  0  0  0  0  0  0  0  0  0  0  0
   39.1650   23.0030   37.6290 C   0  0  0  0  0  0  0  0  0  0  0  0
   38.5330   23.4730   36.5230 N   0  0  0  0  0  0  0  0  0  0  0  0
   39.1910   23.6790   35.3500 C   0  0  0  0  0  0  0  0  0  0  0  0
   40.4980   23.4210   35.2540 N   0  0  0  0  0  0  0  0  0  0  0  0
   42.2640   22.7410   36.2290 H   0  0  0  0  0  0  0  0  0  0  0  0
   41.0850   22.3510   38.4000 H   0  0  0  0  0  0  0  0  0  0  0  0
   38.5520   22.7680   38.8680 N   0  0  0  0  0  0  0  0  0  0  0  0
   38.1720   23.3950   39.6020 H   0  0  0  0  0  0  0  0  0  0  0  0
   38.5240   21.7240   38.9710 H   0  0  0  0  0  0  0  0  0  0  0  0
   36.5190   28.0260   31.7970 C   0  0  0  0  0  0  0  0  0  0  0  0
   36.9470   29.0260   31.5320 H   0  0  0  0  0  0  0  0  0  0  0  0
   36.6430   27.3830   30.8940 H   0  0  0  0  0  0  0  0  0  0  0  0
   35.1580   28.1350   32.0120 O   0  0  0  0  0  0  0  0  0  0  0  0
   33.4710   30.1300   32.3680 O   0  0  0  0  0  0  0  0  0  0  0  0
   34.8080   29.5750   32.7930 P   0  0  2  0  0  0  0  0  0  0  0  0
   36.0760   30.6600   32.3920 O   0  0  0  0  0  0  0  0  0  0  0  0
   35.6960   31.5800   32.5070 H   0  0  0  0  0  0  0  0  0  0  0  0
   34.8140   29.4260   34.4550 O   0  0  0  0  0  0  0  0  0  0  0  0
   33.4660   30.5990   35.9080 C   0  0  0  0  0  0  0  0  0  0  0  0
   34.7130   30.5230   35.2820 C   0  0  0  0  0  0  0  0  0  0  0  0
   35.6260   31.5040   35.5570 C   0  0  0  0  0  0  0  0  0  0  0  0
   36.5640   31.3790   35.0370 H   0  0  0  0  0  0  0  0  0  0  0  0
   35.3370   32.5340   36.4210 C   0  0  0  0  0  0  0  0  0  0  0  0
   36.1200   33.2740   36.5860 H   0  0  0  0  0  0  0  0  0  0  0  0
   34.0970   32.6330   37.0610 C   0  0  0  0  0  3  0  0  0  0  0  0
   33.1820   31.6390   36.7770 C   0  0  0  0  0  3  0  0  0  0  0  0
   32.6520   28.3580   34.9560 H   0  0  0  0  0  0  0  0  0  0  0  0
   32.1750   29.4210   35.6660 S   0  0  0  0  0  0  0  0  0  0  0  0
   31.0780   30.1180   34.9040 O   0  0  0  0  0  0  0  0  0  0  0  0
   31.5850   28.9940   36.9880 O   0  0  0  0  0  0  0  0  0  0  0  0
  1  3  1  0  0  0  0
  1 10  1  0  0  0  0
  1  2  1  0  0  0  0
  5  6  1  0  0  0  0
  5  4  1  0  0  0  0
  6 18  1  0  0  0  0
  7 11  1  0  0  0  0
  7  6  2  0  0  0  0
  8  7  1  0  0  0  0
  9  8  2  0  0  0  0
  9 10  1  0  0  0  0
 10  5  2  0  0  0  0
 12  8  1  0  0  0  0
 13  9  1  0  0  0  0
 14 15  1  0  0  0  0
 15 16  2  0  0  0  0
 15 21  1  0  0  0  0
 16 22  1  0  0  0  0
 17 16  1  0  0  0  0
 18 17  2  0  0  0  0
 19 18  1  0  0  0  0
 19 14  2  0  0  0  0
 20 14  1  0  0  0  0
 22 24  1  0  0  0  0
 22 23  1  0  0  0  0
 25 28  1  0  0  0  0
 25  1  1  0  0  0  0
 26 25  1  0  0  0  0
 27 25  1  0  0  0  0
 28 30  1  0  0  0  0
 30 29  2  6  0  0  0
 30 33  1  0  0  0  0
 31 32  1  0  0  0  0
 31 30  1  0  0  0  0
 33 35  1  0  0  0  0
 34 41  1  0  0  0  0
 35 36  1  0  0  0  0
 35 34  2  0  0  0  0
 36 38  2  0  0  0  0
 37 36  1  0  0  0  0
 38 39  1  0  0  0  0
 38 40  1  0  0  0  0
 41 40  2  0  0  0  0
 42 43  1  0  0  0  0
 43 34  1  0  0  0  0
 43 45  2  0  0  0  0
 44 43  2  0  0  0  0
M  END
>  <minimizedAffinity>
-6.15515471

$$$$

 OpenBabel03272504403D

 45 47  0  0  0  0  0  0  0  0999 V2000
   38.6020   26.3280   31.6240 C   0  0  0  0  0  0  0  0  0  0  0  0
   39.3820   25.5790   31.8700 H   0  0  0  0  0  0  0  0  0  0  0  0
   38.9120   26.7110   30.6100 H   0  0  0  0  0  0  0  0  0  0  0  0
   38.6440   23.4170   32.1760 Cl  0  0  0  0  0  0  0  0  0  0  0  0
   37.2010   24.2950   31.6630 C   0  0  0  0  0  0  0  0  0  0  0  0
   36.0310   23.6160   31.5050 C   0  0  0  0  0  0  0  0  0  0  0  0
   34.9070   24.2840   31.1080 C   0  0  0  0  0  0  0  0  0  0  0  0
   34.9810   25.6450   30.8740 C   0  0  0  0  0  0  0  0  0  0  0  0
   36.2070   26.2920   31.0520 C   0  0  0  0  0  0  0  0  0  0  0  0
   37.3400   25.6410   31.4470 C   0  0  0  0  0  0  0  0  0  0  0  0
   33.9820   23.7040   30.9930 H   0  0  0  0  0  0  0  0  0  0  0  0
   34.0360   26.0730   30.5660 H   0  0  0  0  0  0  0  0  0  0  0  0
   36.0620   27.2910   30.8320 H   0  0  0  0  0  0  0  0  0  0  0  0
   36.0370   19.9470   31.0800 C   0  0  0  0  0  0  0  0  0  0  0  0
   35.8140   19.5180   32.4210 C   0  0  0  0  0  0  0  0  0  0  0  0
   35.6700   20.5030   33.4150 C   0  0  0  0  0  0  0  0  0  0  0  0
   35.7520   21.8070   33.0470 N   0  0  0  0  0  0  0  0  0  0  0  0
   35.9670   22.1800   31.7560 C   0  0  0  0  0  0  0  0  0  0  0  0
   36.1050   21.2570   30.8010 N   0  0  0  0  0  0  0  0  0  0  0  0
   36.1490   19.1870   30.3050 H   0  0  0  0  0  0  0  0  0  0  0  0
   35.7560   18.4680   32.6680 H   0  0  0  0  0  0  0  0  0  0  0  0
   35.4520   20.0470   34.7230 N   0  0  0  0  0  0  0  0  0  0  0  0
   36.0390   20.0390   35.5780 H   0  0  0  0  0  0  0  0  0  0  0  0
   34.4770   19.6590   34.7230 H   0  0  0  0  0  0  0  0  0  0  0  0
   38.6920   27.4190   32.5960 C   0  0  0  0  0  0  0  0  0  0  0  0
   39.1960   28.3000   32.1250 H   0  0  0  0  0  0  0  0  0  0  0  0
   37.6960   27.7790   32.9480 H   0  0  0  0  0  0  0  0  0  0  0  0
   39.3830   27.0250   33.7250 O   0  0  0  0  0  0  0  0  0  0  0  0
   36.9160   27.1160   34.6510 O   0  0  0  0  0  0  0  0  0  0  0  0
   38.3130   26.6300   34.9510 P   0  0  2  0  0  0  0  0  0  0  0  0
   38.9220   27.3660   36.3770 O   0  0  0  0  0  0  0  0  0  0  0  0
   38.1340   27.4760   36.9880 H   0  0  0  0  0  0  0  0  0  0  0  0
   38.2490   24.9890   35.2500 O   0  0  0  0  0  0  0  0  0  0  0  0
   39.2150   23.7060   36.9000 C   0  0  0  0  0  0  0  0  0  0  0  0
   39.3640   24.2790   35.6350 C   0  0  0  0  0  0  0  0  0  0  0  0
   40.5450   24.0700   34.9750 C   0  0  0  0  0  0  0  0  0  0  0  0
   40.5870   24.5420   34.0050 H   0  0  0  0  0  0  0  0  0  0  0  0
   41.5560   23.3220   35.5300 C   0  0  0  0  0  0  0  0  0  0  0  0
   42.4640   23.2040   34.9380 H   0  0  0  0  0  0  0  0  0  0  0  0
   41.4330   22.7370   36.7950 C   0  0  0  0  0  3  0  0  0  0  0  0
   40.2380   22.9540   37.4530 C   0  0  0  0  0  3  0  0  0  0  0  0
   36.6630   23.9230   37.0790 H   0  0  0  0  0  0  0  0  0  0  0  0
   37.7620   23.8750   37.8870 S   0  0  0  0  0  0  0  0  0  0  0  0
   37.9040   25.1570   38.6660 O   0  0  0  0  0  0  0  0  0  0  0  0
   37.6680   22.7580   38.8970 O   0  0  0  0  0  0  0  0  0  0  0  0
  1  2  1  0  0  0  0
  1 25  1  0  0  0  0
  3  1  1  0  0  0  0
  5  4  1  0  0  0  0
  6  5  1  0  0  0  0
  6 18  1  0  0  0  0
  7  6  2  0  0  0  0
  8  9  2  0  0  0  0
  8  7  1  0  0  0  0
  9 10  1  0  0  0  0
 10  1  1  0  0  0  0
 10  5  2  0  0  0  0
 11  7  1  0  0  0  0
 12  8  1  0  0  0  0
 13  9  1  0  0  0  0
 14 15  1  0  0  0  0
 15 21  1  0  0  0  0
 15 16  2  0  0  0  0
 16 22  1  0  0  0  0
 17 16  1  0  0  0  0
 18 17  2  0  0  0  0
 19 14  2  0  0  0  0
 19 18  1  0  0  0  0
 20 14  1  0  0  0  0
 22 23  1  0  0  0  0
 24 22  1  0  0  0  0
 25 27  1  0  0  0  0
 25 28  1  0  0  0  0
 26 25  1  0  0  0  0
 28 30  1  0  0  0  0
 30 29  2  6  0  0  0
 30 33  1  0  0  0  0
 30 31  1  0  0  0  0
 31 32  1  0  0  0  0
 33 35  1  0  0  0  0
 34 41  1  0  0  0  0
 34 43  1  0  0  0  0
 35 34  2  0  0  0  0
 36 38  2  0  0  0  0
 36 35  1  0  0  0  0
 37 36  1  0  0  0  0
 38 40  1  0  0  0  0
 39 38  1  0  0  0  0
 40 41  2  0  0  0  0
 42 43  1  0  0  0  0
 43 44  2  0  0  0  0
 43 45  2  0  0  0  0
M  END
>  <minimizedAffinity>
-6.11595011

$$$$

 OpenBabel03272504403D

 45 47  0  0  0  0  0  0  0  0999 V2000
   37.3660   26.5900   32.3980 C   0  0  0  0  0  0  0  0  0  0  0  0
   37.0080   26.1490   33.3510 H   0  0  0  0  0  0  0  0  0  0  0  0
   36.8450   25.9760   31.6100 H   0  0  0  0  0  0  0  0  0  0  0  0
   36.2270   27.7240   34.8880 Cl  0  0  0  0  0  0  0  0  0  0  0  0
   36.2930   28.5970   33.3550 C   0  0  0  0  0  0  0  0  0  0  0  0
   35.7970   29.8640   33.2900 C   0  0  0  0  0  0  0  0  0  0  0  0
   35.8410   30.5510   32.1090 C   0  0  0  0  0  0  0  0  0  0  0  0
   36.3930   29.9420   30.9980 C   0  0  0  0  0  0  0  0  0  0  0  0
   36.8880   28.6400   31.1210 C   0  0  0  0  0  0  0  0  0  0  0  0
   36.8510   27.9380   32.2910 C   0  0  0  0  0  0  0  0  0  0  0  0
   35.4330   31.5700   32.0960 H   0  0  0  0  0  0  0  0  0  0  0  0
   36.3790   30.5720   30.1180 H   0  0  0  0  0  0  0  0  0  0  0  0
   37.2540   28.3610   30.1950 H   0  0  0  0  0  0  0  0  0  0  0  0
   35.3450   31.7760   36.4180 C   0  0  0  0  0  0  0  0  0  0  0  0
   33.9470   31.6090   36.6390 C   0  0  0  0  0  0  0  0  0  0  0  0
   33.2170   30.8490   35.7070 C   0  0  0  0  0  0  0  0  0  0  0  0
   33.8790   30.3150   34.6490 N   0  0  0  0  0  0  0  0  0  0  0  0
   35.2170   30.4960   34.4710 C   0  0  0  0  0  0  0  0  0  0  0  0
   35.9240   31.2150   35.3460 N   0  0  0  0  0  0  0  0  0  0  0  0
   35.9170   32.3650   37.1380 H   0  0  0  0  0  0  0  0  0  0  0  0
   33.4610   32.0530   37.4960 H   0  0  0  0  0  0  0  0  0  0  0  0
   31.8440   30.7050   35.9540 N   0  0  0  0  0  0  0  0  0  0  0  0
   30.9970   31.0870   35.4930 H   0  0  0  0  0  0  0  0  0  0  0  0
   31.7760   30.0700   36.7850 H   0  0  0  0  0  0  0  0  0  0  0  0
   38.8100   26.3670   32.3040 C   0  0  0  0  0  0  0  0  0  0  0  0
   39.0510   25.3260   32.6380 H   0  0  0  0  0  0  0  0  0  0  0  0
   39.2040   26.4630   31.2640 H   0  0  0  0  0  0  0  0  0  0  0  0
   39.5070   27.2830   33.0680 O   0  0  0  0  0  0  0  0  0  0  0  0
   39.2750   27.4160   35.6920 O   0  0  0  0  0  0  0  0  0  0  0  0
   39.8850   26.6240   34.5610 P   0  0  2  0  0  0  0  0  0  0  0  0
   41.5980   26.6250   34.6680 O   0  0  0  0  0  0  0  0  0  0  0  0
   41.8120   26.6170   35.6480 H   0  0  0  0  0  0  0  0  0  0  0  0
   39.3980   25.0340   34.7080 O   0  0  0  0  0  0  0  0  0  0  0  0
   39.9770   23.5390   36.3600 C   0  0  0  0  0  0  0  0  0  0  0  0
   39.0520   24.4910   35.9260 C   0  0  0  0  0  0  0  0  0  0  0  0
   37.9740   24.7460   36.7280 C   0  0  0  0  0  0  0  0  0  0  0  0
   37.3040   25.4920   36.3270 H   0  0  0  0  0  0  0  0  0  0  0  0
   37.7980   24.0940   37.9250 C   0  0  0  0  0  0  0  0  0  0  0  0
   36.9120   24.3560   38.5040 H   0  0  0  0  0  0  0  0  0  0  0  0
   38.7090   23.1370   38.3850 C   0  0  0  0  0  3  0  0  0  0  0  0
   39.7930   22.8860   37.5680 C   0  0  0  0  0  3  0  0  0  0  0  0
   41.1360   23.0730   34.1170 H   0  0  0  0  0  0  0  0  0  0  0  0
   41.4210   23.0880   35.4520 S   0  0  0  0  0  0  0  0  0  0  0  0
   41.8290   21.7170   35.9220 O   0  0  0  0  0  0  0  0  0  0  0  0
   42.5660   24.0180   35.7700 O   0  0  0  0  0  0  0  0  0  0  0  0
  1  2  1  0  0  0  0
  3  1  1  0  0  0  0
  5  4  1  0  0  0  0
  6  5  1  0  0  0  0
  6 18  1  0  0  0  0
  7  6  2  0  0  0  0
  8  9  2  0  0  0  0
  8  7  1  0  0  0  0
  9 10  1  0  0  0  0
 10  1  1  0  0  0  0
 10  5  2  0  0  0  0
 11  7  1  0  0  0  0
 12  8  1  0  0  0  0
 13  9  1  0  0  0  0
 14 15  1  0  0  0  0
 14 20  1  0  0  0  0
 15 21  1  0  0  0  0
 16 22  1  0  0  0  0
 16 15  2  0  0  0  0
 17 16  1  0  0  0  0
 18 17  2  0  0  0  0
 18 19  1  0  0  0  0
 19 14  2  0  0  0  0
 22 24  1  0  0  0  0
 23 22  1  0  0  0  0
 25  1  1  0  0  0  0
 25 26  1  0  0  0  0
 25 28  1  0  0  0  0
 27 25  1  0  0  0  0
 28 30  1  0  0  0  0
 30 31  1  0  0  0  0
 30 33  1  0  0  0  0
 30 29  2  1  0  0  0
 31 32  1  0  0  0  0
 33 35  1  0  0  0  0
 34 41  1  0  0  0  0
 35 34  2  0  0  0  0
 35 36  1  0  0  0  0
 36 38  2  0  0  0  0
 37 36  1  0  0  0  0
 38 40  1  0  0  0  0
 38 39  1  0  0  0  0
 41 40  2  0  0  0  0
 42 43  1  0  0  0  0
 43 45  2  0  0  0  0
 43 44  2  0  0  0  0
 43 34  1  0  0  0  0
M  END
>  <minimizedAffinity>
-6.04810095

$$$$

 OpenBabel03272504403D

 45 47  0  0  0  0  0  0  0  0999 V2000
   36.7620   28.0840   34.0910 C   0  0  0  0  0  0  0  0  0  0  0  0
   36.3230   28.1500   35.1070 H   0  0  0  0  0  0  0  0  0  0  0  0
   37.7070   28.6940   34.1700 H   0  0  0  0  0  0  0  0  0  0  0  0
   38.4360   26.8500   36.2010 Cl  0  0  0  0  0  0  0  0  0  0  0  0
   37.9390   26.0100   34.7300 C   0  0  0  0  0  0  0  0  0  0  0  0
   38.3360   24.7220   34.5330 C   0  0  0  0  0  0  0  0  0  0  0  0
   37.9570   24.0610   33.3990 C   0  0  0  0  0  0  0  0  0  0  0  0
   37.1730   24.7170   32.4680 C   0  0  0  0  0  0  0  0  0  0  0  0
   36.7940   26.0390   32.7210 C   0  0  0  0  0  0  0  0  0  0  0  0
   37.1630   26.7150   33.8480 C   0  0  0  0  0  0  0  0  0  0  0  0
   38.2950   23.0240   33.2750 H   0  0  0  0  0  0  0  0  0  0  0  0
   36.9310   24.1040   31.6110 H   0  0  0  0  0  0  0  0  0  0  0  0
   36.2190   26.3520   31.9210 H   0  0  0  0  0  0  0  0  0  0  0  0
   41.1760   23.1340   36.2800 C   0  0  0  0  0  0  0  0  0  0  0  0
   40.5600   22.7480   37.5060 C   0  0  0  0  0  0  0  0  0  0  0  0
   39.1970   23.0480   37.6840 C   0  0  0  0  0  0  0  0  0  0  0  0
   38.5410   23.6880   36.6820 N   0  0  0  0  0  0  0  0  0  0  0  0
   39.1640   24.0410   35.5240 C   0  0  0  0  0  0  0  0  0  0  0  0
   40.4570   23.7630   35.3400 N   0  0  0  0  0  0  0  0  0  0  0  0
   42.2340   22.9030   36.1370 H   0  0  0  0  0  0  0  0  0  0  0  0
   41.1210   22.2410   38.2770 H   0  0  0  0  0  0  0  0  0  0  0  0
   38.6210   22.6560   38.9010 N   0  0  0  0  0  0  0  0  0  0  0  0
   38.2900   23.1830   39.7310 H   0  0  0  0  0  0  0  0  0  0  0  0
   38.5630   21.6100   38.8560 H   0  0  0  0  0  0  0  0  0  0  0  0
   35.8470   28.7390   33.1540 C   0  0  0  0  0  0  0  0  0  0  0  0
   36.3990   29.5230   32.5770 H   0  0  0  0  0  0  0  0  0  0  0  0
   35.4150   28.0400   32.3990 H   0  0  0  0  0  0  0  0  0  0  0  0
   34.7750   29.3050   33.8170 O   0  0  0  0  0  0  0  0  0  0  0  0
   32.5010   29.7760   32.5680 O   0  0  0  0  0  0  0  0  0  0  0  0
   33.9040   30.2880   32.7770 P   0  0  2  0  0  0  0  0  0  0  0  0
   34.7730   30.3100   31.2960 O   0  0  0  0  0  0  0  0  0  0  0  0
   34.1030   30.5420   30.5880 H   0  0  0  0  0  0  0  0  0  0  0  0
   33.8170   31.8690   33.3040 O   0  0  0  0  0  0  0  0  0  0  0  0
   34.6990   32.7830   35.2250 C   0  0  0  0  0  0  0  0  0  0  0  0
   34.8990   32.5050   33.8700 C   0  0  0  0  0  0  0  0  0  0  0  0
   36.0890   32.8860   33.3100 C   0  0  0  0  0  0  0  0  0  0  0  0
   36.1700   32.6380   32.2620 H   0  0  0  0  0  0  0  0  0  0  0  0
   37.0610   33.5190   34.0470 C   0  0  0  0  0  0  0  0  0  0  0  0
   37.9790   33.7880   33.5240 H   0  0  0  0  0  0  0  0  0  0  0  0
   36.8860   33.8080   35.4040 C   0  0  0  0  0  3  0  0  0  0  0  0
   35.6830   33.4210   35.9610 C   0  0  0  0  0  3  0  0  0  0  0  0
   32.1370   32.7450   35.3790 H   0  0  0  0  0  0  0  0  0  0  0  0
   33.2280   32.3630   36.1040 S   0  0  0  0  0  0  0  0  0  0  0  0
   33.2740   33.0990   37.4180 O   0  0  0  0  0  0  0  0  0  0  0  0
   33.2000   30.8900   36.4290 O   0  0  0  0  0  0  0  0  0  0  0  0
  1  3  1  0  0  0  0
  1  2  1  0  0  0  0
  5  4  1  0  0  0  0
  6  5  1  0  0  0  0
  6 18  1  0  0  0  0
  7  6  2  0  0  0  0
  8  9  2  0  0  0  0
  8  7  1  0  0  0  0
  9 10  1  0  0  0  0
 10  1  1  0  0  0  0
 10  5  2  0  0  0  0
 11  7  1  0  0  0  0
 12  8  1  0  0  0  0
 13  9  1  0  0  0  0
 14 15  1  0  0  0  0
 15 16  2  0  0  0  0
 15 21  1  0  0  0  0
 16 22  1  0  0  0  0
 17 16  1  0  0  0  0
 18 17  2  0  0  0  0
 19 18  1  0  0  0  0
 19 14  2  0  0  0  0
 20 14  1  0  0  0  0
 22 23  1  0  0  0  0
 24 22  1  0  0  0  0
 25 28  1  0  0  0  0
 25  1  1  0  0  0  0
 26 25  1  0  0  0  0
 27 25  1  0  0  0  0
 30 29  2  6  0  0  0
 30 33  1  0  0  0  0
 30 28  1  0  0  0  0
 31 30  1  0  0  0  0
 32 31  1  0  0  0  0
 33 35  1  0  0  0  0
 34 41  1  0  0  0  0
 34 43  1  0  0  0  0
 35 34  2  0  0  0  0
 36 35  1  0  0  0  0
 36 38  2  0  0  0  0
 37 36  1  0  0  0  0
 38 40  1  0  0  0  0
 39 38  1  0  0  0  0
 40 41  2  0  0  0  0
 42 43  1  0  0  0  0
 43 45  2  0  0  0  0
 43 44  2  0  0  0  0
M  END
>  <minimizedAffinity>
-5.99350977

$$$$

 OpenBabel03272504403D

 45 47  0  0  0  0  0  0  0  0999 V2000
   38.6980   27.1110   32.0380 C   0  0  0  0  0  0  0  0  0  0  0  0
   38.9770   27.7660   32.8890 H   0  0  0  0  0  0  0  0  0  0  0  0
   39.6530   27.0220   31.4470 H   0  0  0  0  0  0  0  0  0  0  0  0
   39.1090   26.7470   34.9500 Cl  0  0  0  0  0  0  0  0  0  0  0  0
   38.5370   25.4690   33.8750 C   0  0  0  0  0  0  0  0  0  0  0  0
   38.2640   24.2380   34.3920 C   0  0  0  0  0  0  0  0  0  0  0  0
   37.8200   23.2410   33.5700 C   0  0  0  0  0  0  0  0  0  0  0  0
   37.6560   23.5020   32.2220 C   0  0  0  0  0  0  0  0  0  0  0  0
   37.9510   24.7830   31.7460 C   0  0  0  0  0  0  0  0  0  0  0  0
   38.3960   25.7920   32.5510 C   0  0  0  0  0  0  0  0  0  0  0  0
   37.6090   22.2630   34.0220 H   0  0  0  0  0  0  0  0  0  0  0  0
   37.3010   22.6460   31.6640 H   0  0  0  0  0  0  0  0  0  0  0  0
   37.7680   24.7820   30.7280 H   0  0  0  0  0  0  0  0  0  0  0  0
   37.9290   24.3000   38.0690 C   0  0  0  0  0  0  0  0  0  0  0  0
   38.9200   23.3490   38.4480 C   0  0  0  0  0  0  0  0  0  0  0  0
   39.6620   22.7250   37.4290 C   0  0  0  0  0  0  0  0  0  0  0  0
   39.3960   23.0610   36.1400 N   0  0  0  0  0  0  0  0  0  0  0  0
   38.4410   23.9750   35.8160 C   0  0  0  0  0  0  0  0  0  0  0  0
   37.7280   24.5750   36.7720 N   0  0  0  0  0  0  0  0  0  0  0  0
   37.3500   24.7880   38.8570 H   0  0  0  0  0  0  0  0  0  0  0  0
   39.0970   23.1120   39.4870 H   0  0  0  0  0  0  0  0  0  0  0  0
   40.6290   21.7940   37.8350 N   0  0  0  0  0  0  0  0  0  0  0  0
   40.6900   20.7610   37.7690 H   0  0  0  0  0  0  0  0  0  0  0  0
   41.3910   22.3610   38.2800 H   0  0  0  0  0  0  0  0  0  0  0  0
   37.6970   27.8110   31.2300 C   0  0  0  0  0  0  0  0  0  0  0  0
   38.1230   28.0400   30.2210 H   0  0  0  0  0  0  0  0  0  0  0  0
   36.7750   27.2090   31.0530 H   0  0  0  0  0  0  0  0  0  0  0  0
   37.2860   28.9780   31.8470 O   0  0  0  0  0  0  0  0  0  0  0  0
   35.0550   27.5730   31.8090 O   0  0  0  0  0  0  0  0  0  0  0  0
   35.6440   28.9160   32.1670 P   0  0  2  0  0  0  0  0  0  0  0  0
   34.9250   30.1660   31.2360 O   0  0  0  0  0  0  0  0  0  0  0  0
   33.9670   29.8970   31.1080 H   0  0  0  0  0  0  0  0  0  0  0  0
   35.2840   29.2420   33.7640 O   0  0  0  0  0  0  0  0  0  0  0  0
   34.0960   30.7000   35.0930 C   0  0  0  0  0  0  0  0  0  0  0  0
   34.0330   29.6690   34.1520 C   0  0  0  0  0  0  0  0  0  0  0  0
   32.7950   29.2380   33.7590 C   0  0  0  0  0  0  0  0  0  0  0  0
   32.8270   28.4410   33.0320 H   0  0  0  0  0  0  0  0  0  0  0  0
   31.6450   29.7960   34.2670 C   0  0  0  0  0  0  0  0  0  0  0  0
   30.7000   29.3950   33.9010 H   0  0  0  0  0  0  0  0  0  0  0  0
   31.6800   30.8290   35.2090 C   0  0  0  0  0  3  0  0  0  0  0  0
   32.9340   31.2560   35.6000 C   0  0  0  0  0  3  0  0  0  0  0  0
   36.4380   30.3620   36.0890 H   0  0  0  0  0  0  0  0  0  0  0  0
   35.6060   31.3740   35.7090 S   0  0  0  0  0  0  0  0  0  0  0  0
   35.2540   32.2420   36.8880 O   0  0  0  0  0  0  0  0  0  0  0  0
   36.2490   32.2730   34.6810 O   0  0  0  0  0  0  0  0  0  0  0  0
  1 10  1  0  0  0  0
  1  2  1  0  0  0  0
  3  1  1  0  0  0  0
  5  6  1  0  0  0  0
  5  4  1  0  0  0  0
  6 18  1  0  0  0  0
  7 11  1  0  0  0  0
  7  6  2  0  0  0  0
  8  7  1  0  0  0  0
  9  8  2  0  0  0  0
  9 10  1  0  0  0  0
 10  5  2  0  0  0  0
 12  8  1  0  0  0  0
 13  9  1  0  0  0  0
 14 15  1  0  0  0  0
 14 20  1  0  0  0  0
 15 21  1  0  0  0  0
 16 22  1  0  0  0  0
 16 15  2  0  0  0  0
 17 16  1  0  0  0  0
 18 17  2  0  0  0  0
 18 19  1  0  0  0  0
 19 14  2  0  0  0  0
 22 24  1  0  0  0  0
 23 22  1  0  0  0  0
 25 28  1  0  0  0  0
 25  1  1  0  0  0  0
 26 25  1  0  0  0  0
 27 25  1  0  0  0  0
 28 30  1  0  0  0  0
 30 29  2  6  0  0  0
 30 33  1  0  0  0  0
 31 30  1  0  0  0  0
 32 31  1  0  0  0  0
 33 35  1  0  0  0  0
 34 41  1  0  0  0  0
 34 43  1  0  0  0  0
 35 34  2  0  0  0  0
 36 35  1  0  0  0  0
 36 38  2  0  0  0  0
 37 36  1  0  0  0  0
 38 40  1  0  0  0  0
 39 38  1  0  0  0  0
 40 41  2  0  0  0  0
 43 42  1  0  0  0  0
 43 44  2  0  0  0  0
 45 43  2  0  0  0  0
M  END
>  <minimizedAffinity>
-5.93017101

$$$$

 OpenBabel03272504403D

 45 47  0  0  0  0  0  0  0  0999 V2000
   35.1290   30.8530   31.6930 C   0  0  0  0  0  0  0  0  0  0  0  0
   34.1530   31.0380   31.1980 H   0  0  0  0  0  0  0  0  0  0  0  0
   35.7390   31.7620   31.4240 H   0  0  0  0  0  0  0  0  0  0  0  0
   32.5630   29.7270   32.6570 Cl  0  0  0  0  0  0  0  0  0  0  0  0
   33.7970   30.4040   33.7230 C   0  0  0  0  0  0  0  0  0  0  0  0
   33.5770   30.4210   35.0670 C   0  0  0  0  0  0  0  0  0  0  0  0
   34.5250   30.9420   35.9030 C   0  0  0  0  0  0  0  0  0  0  0  0
   35.6940   31.4450   35.3640 C   0  0  0  0  0  0  0  0  0  0  0  0
   35.8670   31.4030   33.9770 C   0  0  0  0  0  0  0  0  0  0  0  0
   34.9320   30.8870   33.1270 C   0  0  0  0  0  0  0  0  0  0  0  0
   34.3130   30.9380   36.9800 H   0  0  0  0  0  0  0  0  0  0  0  0
   36.3740   31.8320   36.1110 H   0  0  0  0  0  0  0  0  0  0  0  0
   36.7900   31.8200   33.7690 H   0  0  0  0  0  0  0  0  0  0  0  0
   30.1230   30.0820   36.3280 C   0  0  0  0  0  0  0  0  0  0  0  0
   30.0990   28.7030   36.6880 C   0  0  0  0  0  0  0  0  0  0  0  0
   31.2670   27.9460   36.4830 C   0  0  0  0  0  0  0  0  0  0  0  0
   32.3530   28.5660   35.9550 N   0  0  0  0  0  0  0  0  0  0  0  0
   32.3390   29.8860   35.6240 C   0  0  0  0  0  0  0  0  0  0  0  0
   31.2380   30.6180   35.8120 N   0  0  0  0  0  0  0  0  0  0  0  0
   29.2180   30.6740   36.4850 H   0  0  0  0  0  0  0  0  0  0  0  0
   29.2100   28.2510   37.1050 H   0  0  0  0  0  0  0  0  0  0  0  0
   31.2100   26.5920   36.8470 N   0  0  0  0  0  0  0  0  0  0  0  0
   31.1910   25.7110   36.3000 H   0  0  0  0  0  0  0  0  0  0  0  0
   31.1830   26.5870   37.8950 H   0  0  0  0  0  0  0  0  0  0  0  0
   35.7360   29.6700   31.0820 C   0  0  0  0  0  0  0  0  0  0  0  0
   35.3030   28.7460   31.5410 H   0  0  0  0  0  0  0  0  0  0  0  0
   35.5470   29.5940   29.9850 H   0  0  0  0  0  0  0  0  0  0  0  0
   37.1090   29.6770   31.2380 O   0  0  0  0  0  0  0  0  0  0  0  0
   39.0450   28.7310   29.7180 O   0  0  0  0  0  0  0  0  0  0  0  0
   37.7870   28.3560   30.4630 P   0  0  2  0  0  0  0  0  0  0  0  0
   36.5900   27.7660   29.3830 O   0  0  0  0  0  0  0  0  0  0  0  0
   37.0870   27.2680   28.6680 H   0  0  0  0  0  0  0  0  0  0  0  0
   38.1450   27.1060   31.5090 O   0  0  0  0  0  0  0  0  0  0  0  0
   39.2400   27.0840   33.5350 C   0  0  0  0  0  0  0  0  0  0  0  0
   38.0200   27.2450   32.8740 C   0  0  0  0  0  0  0  0  0  0  0  0
   36.9120   27.5070   33.6340 C   0  0  0  0  0  0  0  0  0  0  0  0
   36.0080   27.6190   33.0540 H   0  0  0  0  0  0  0  0  0  0  0  0
   36.9870   27.6100   35.0020 C   0  0  0  0  0  0  0  0  0  0  0  0
   36.0570   27.8200   35.5320 H   0  0  0  0  0  0  0  0  0  0  0  0
   38.1950   27.4530   35.6890 C   0  0  0  0  0  3  0  0  0  0  0  0
   39.3070   27.1890   34.9140 C   0  0  0  0  0  3  0  0  0  0  0  0
   40.7280   27.2600   31.4500 H   0  0  0  0  0  0  0  0  0  0  0  0
   40.7630   26.7420   32.7120 S   0  0  0  0  0  0  0  0  0  0  0  0
   40.9140   25.2440   32.6660 O   0  0  0  0  0  0  0  0  0  0  0  0
   41.9310   27.2750   33.5050 O   0  0  0  0  0  0  0  0  0  0  0  0
  1 10  1  0  0  0  0
  2  1  1  0  0  0  0
  3  1  1  0  0  0  0
  4  5  1  0  0  0  0
  5  6  1  0  0  0  0
  6 18  1  0  0  0  0
  6  7  2  0  0  0  0
  7 11  1  0  0  0  0
  8  7  1  0  0  0  0
  8 12  1  0  0  0  0
  9  8  2  0  0  0  0
 10  5  2  0  0  0  0
 10  9  1  0  0  0  0
 13  9  1  0  0  0  0
 14 20  1  0  0  0  0
 14 15  1  0  0  0  0
 15 21  1  0  0  0  0
 16 15  2  0  0  0  0
 16 22  1  0  0  0  0
 17 16  1  0  0  0  0
 18 19  1  0  0  0  0
 18 17  2  0  0  0  0
 19 14  2  0  0  0  0
 22 24  1  0  0  0  0
 23 22  1  0  0  0  0
 25 28  1  0  0  0  0
 25 26  1  0  0  0  0
 25  1  1  0  0  0  0
 27 25  1  0  0  0  0
 30 29  2  6  0  0  0
 30 28  1  0  0  0  0
 30 33  1  0  0  0  0
 31 30  1  0  0  0  0
 32 31  1  0  0  0  0
 33 35  1  0  0  0  0
 34 41  1  0  0  0  0
 35 34  2  0  0  0  0
 35 36  1  0  0  0  0
 36 38  2  0  0  0  0
 37 36  1  0  0  0  0
 38 39  1  0  0  0  0
 38 40  1  0  0  0  0
 41 40  2  0  0  0  0
 42 43  1  0  0  0  0
 43 45  2  0  0  0  0
 43 34  1  0  0  0  0
 44 43  2  0  0  0  0
M  END
>  <minimizedAffinity>
-5.92243814

$$$$

 OpenBabel03272504403D

 45 47  0  0  0  0  0  0  0  0999 V2000
   38.1270   26.7890   32.1900 C   0  0  0  0  0  0  0  0  0  0  0  0
   39.1140   27.0000   31.7290 H   0  0  0  0  0  0  0  0  0  0  0  0
   38.3580   26.7180   33.2910 H   0  0  0  0  0  0  0  0  0  0  0  0
   36.5340   27.5800   34.5600 Cl  0  0  0  0  0  0  0  0  0  0  0  0
   36.4800   28.4330   33.0150 C   0  0  0  0  0  0  0  0  0  0  0  0
   35.6660   29.5170   32.8820 C   0  0  0  0  0  0  0  0  0  0  0  0
   35.6150   30.1850   31.6910 C   0  0  0  0  0  0  0  0  0  0  0  0
   36.3950   29.7450   30.6390 C   0  0  0  0  0  0  0  0  0  0  0  0
   37.2130   28.6260   30.8300 C   0  0  0  0  0  0  0  0  0  0  0  0
   37.2760   27.9460   32.0110 C   0  0  0  0  0  0  0  0  0  0  0  0
   34.9480   31.0550   31.6220 H   0  0  0  0  0  0  0  0  0  0  0  0
   36.2800   30.3440   29.7450 H   0  0  0  0  0  0  0  0  0  0  0  0
   37.7110   28.4540   29.9410 H   0  0  0  0  0  0  0  0  0  0  0  0
   32.8790   30.0140   35.2540 C   0  0  0  0  0  0  0  0  0  0  0  0
   33.4610   30.9420   36.1660 C   0  0  0  0  0  0  0  0  0  0  0  0
   34.7840   31.3590   35.9310 C   0  0  0  0  0  0  0  0  0  0  0  0
   35.4360   30.8570   34.8510 N   0  0  0  0  0  0  0  0  0  0  0  0
   34.8470   29.9720   34.0010 C   0  0  0  0  0  0  0  0  0  0  0  0
   33.5930   29.5660   34.2110 N   0  0  0  0  0  0  0  0  0  0  0  0
   31.8520   29.6870   35.4320 H   0  0  0  0  0  0  0  0  0  0  0  0
   32.9040   31.3150   37.0140 H   0  0  0  0  0  0  0  0  0  0  0  0
   35.3260   32.2720   36.8480 N   0  0  0  0  0  0  0  0  0  0  0  0
   36.0550   32.1920   37.5820 H   0  0  0  0  0  0  0  0  0  0  0  0
   34.8270   33.1760   36.6680 H   0  0  0  0  0  0  0  0  0  0  0  0
   37.6680   25.4830   31.7120 C   0  0  0  0  0  0  0  0  0  0  0  0
   36.8110   25.6220   31.0050 H   0  0  0  0  0  0  0  0  0  0  0  0
   38.4500   24.9190   31.1500 H   0  0  0  0  0  0  0  0  0  0  0  0
   37.2870   24.6730   32.7640 O   0  0  0  0  0  0  0  0  0  0  0  0
   39.5650   23.4930   32.1550 O   0  0  0  0  0  0  0  0  0  0  0  0
   38.5790   23.7360   33.2710 P   0  0  2  0  0  0  0  0  0  0  0  0
   37.9110   22.2570   33.8300 O   0  0  0  0  0  0  0  0  0  0  0  0
   38.6460   21.5790   33.7570 H   0  0  0  0  0  0  0  0  0  0  0  0
   39.3970   24.4080   34.5610 O   0  0  0  0  0  0  0  0  0  0  0  0
   40.0290   23.3450   36.5040 C   0  0  0  0  0  0  0  0  0  0  0  0
   39.0580   24.1200   35.8650 C   0  0  0  0  0  0  0  0  0  0  0  0
   37.9480   24.4730   36.5830 C   0  0  0  0  0  0  0  0  0  0  0  0
   37.2440   25.0700   36.0240 H   0  0  0  0  0  0  0  0  0  0  0  0
   37.7850   24.0840   37.8920 C   0  0  0  0  0  0  0  0  0  0  0  0
   36.8720   24.4070   38.3920 H   0  0  0  0  0  0  0  0  0  0  0  0
   38.7410   23.3080   38.5560 C   0  0  0  0  0  3  0  0  0  0  0  0
   39.8570   22.9570   37.8230 C   0  0  0  0  0  3  0  0  0  0  0  0
   42.0300   23.8110   34.9640 H   0  0  0  0  0  0  0  0  0  0  0  0
   41.5180   22.8020   35.7280 S   0  0  0  0  0  0  0  0  0  0  0  0
   41.1610   21.6160   34.8700 O   0  0  0  0  0  0  0  0  0  0  0  0
   42.5100   22.3160   36.7550 O   0  0  0  0  0  0  0  0  0  0  0  0
  1  3  1  0  0  0  0
  2  1  1  0  0  0  0
  5  4  1  0  0  0  0
  6  5  1  0  0  0  0
  6 18  1  0  0  0  0
  7  6  2  0  0  0  0
  8  9  2  0  0  0  0
  8  7  1  0  0  0  0
  9 10  1  0  0  0  0
 10  1  1  0  0  0  0
 10  5  2  0  0  0  0
 11  7  1  0  0  0  0
 12  8  1  0  0  0  0
 13  9  1  0  0  0  0
 14 20  1  0  0  0  0
 14 15  1  0  0  0  0
 15 21  1  0  0  0  0
 16 15  2  0  0  0  0
 16 22  1  0  0  0  0
 17 16  1  0  0  0  0
 18 19  1  0  0  0  0
 18 17  2  0  0  0  0
 19 14  2  0  0  0  0
 22 23  1  0  0  0  0
 24 22  1  0  0  0  0
 25  1  1  0  0  0  0
 25 28  1  0  0  0  0
 26 25  1  0  0  0  0
 27 25  1  0  0  0  0
 28 30  1  0  0  0  0
 30 29  2  6  0  0  0
 30 31  1  0  0  0  0
 30 33  1  0  0  0  0
 32 31  1  0  0  0  0
 33 35  1  0  0  0  0
 34 41  1  0  0  0  0
 35 34  2  0  0  0  0
 35 36  1  0  0  0  0
 36 38  2  0  0  0  0
 37 36  1  0  0  0  0
 38 39  1  0  0  0  0
 38 40  1  0  0  0  0
 41 40  2  0  0  0  0
 42 43  1  0  0  0  0
 43 34  1  0  0  0  0
 43 45  2  0  0  0  0
 44 43  2  0  0  0  0
M  END
>  <minimizedAffinity>
-5.91631556

$$$$

 OpenBabel03272504403D

 45 47  0  0  0  0  0  0  0  0999 V2000
   38.3480   26.7950   32.4110 C   0  0  0  0  0  0  0  0  0  0  0  0
   39.3410   27.0270   31.9750 H   0  0  0  0  0  0  0  0  0  0  0  0
   38.5420   26.7790   33.5210 H   0  0  0  0  0  0  0  0  0  0  0  0
   36.6690   27.6430   34.7000 Cl  0  0  0  0  0  0  0  0  0  0  0  0
   36.6210   28.4140   33.1130 C   0  0  0  0  0  0  0  0  0  0  0  0
   35.7710   29.4580   32.9070 C   0  0  0  0  0  0  0  0  0  0  0  0
   35.7230   30.0630   31.6830 C   0  0  0  0  0  0  0  0  0  0  0  0
   36.5460   29.6000   30.6720 C   0  0  0  0  0  0  0  0  0  0  0  0
   37.3990   28.5250   30.9390 C   0  0  0  0  0  0  0  0  0  0  0  0
   37.4590   27.9080   32.1540 C   0  0  0  0  0  0  0  0  0  0  0  0
   35.0270   30.9020   31.5540 H   0  0  0  0  0  0  0  0  0  0  0  0
   36.4290   30.1490   29.7470 H   0  0  0  0  0  0  0  0  0  0  0  0
   37.9250   28.3290   30.0710 H   0  0  0  0  0  0  0  0  0  0  0  0
   32.8760   30.0460   35.1240 C   0  0  0  0  0  0  0  0  0  0  0  0
   33.4400   30.9450   36.0750 C   0  0  0  0  0  0  0  0  0  0  0  0
   34.7890   31.3120   35.9180 C   0  0  0  0  0  0  0  0  0  0  0  0
   35.4810   30.7930   34.8720 N   0  0  0  0  0  0  0  0  0  0  0  0
   34.9080   29.9360   33.9830 C   0  0  0  0  0  0  0  0  0  0  0  0
   33.6290   29.5780   34.1180 N   0  0  0  0  0  0  0  0  0  0  0  0
   31.8290   29.7570   35.2420 H   0  0  0  0  0  0  0  0  0  0  0  0
   32.8510   31.3330   36.8940 H   0  0  0  0  0  0  0  0  0  0  0  0
   35.3140   32.1970   36.8710 N   0  0  0  0  0  0  0  0  0  0  0  0
   35.9960   32.0840   37.6440 H   0  0  0  0  0  0  0  0  0  0  0  0
   34.8590   33.1210   36.6720 H   0  0  0  0  0  0  0  0  0  0  0  0
   37.9580   25.4530   31.9730 C   0  0  0  0  0  0  0  0  0  0  0  0
   37.2380   25.5310   31.1200 H   0  0  0  0  0  0  0  0  0  0  0  0
   38.8160   24.8430   31.6050 H   0  0  0  0  0  0  0  0  0  0  0  0
   37.3900   24.7370   33.0090 O   0  0  0  0  0  0  0  0  0  0  0  0
   39.4410   23.1610   32.5000 O   0  0  0  0  0  0  0  0  0  0  0  0
   38.4630   23.5790   33.5690 P   0  0  2  0  0  0  0  0  0  0  0  0
   37.5090   22.2460   34.0800 O   0  0  0  0  0  0  0  0  0  0  0  0
   38.1100   21.4450   34.0360 H   0  0  0  0  0  0  0  0  0  0  0  0
   39.3250   24.0890   34.9040 O   0  0  0  0  0  0  0  0  0  0  0  0
   39.8080   22.9490   36.8460 C   0  0  0  0  0  0  0  0  0  0  0  0
   40.2190   23.2620   35.5480 C   0  0  0  0  0  0  0  0  0  0  0  0
   41.4020   22.7330   35.1080 C   0  0  0  0  0  0  0  0  0  0  0  0
   41.6530   23.0190   34.0980 H   0  0  0  0  0  0  0  0  0  0  0  0
   42.1670   21.9180   35.9080 C   0  0  0  0  0  0  0  0  0  0  0  0
   43.0950   21.5380   35.4810 H   0  0  0  0  0  0  0  0  0  0  0  0
   41.7790   21.5890   37.2110 C   0  0  0  0  0  3  0  0  0  0  0  0
   40.5850   22.1280   37.6460 C   0  0  0  0  0  3  0  0  0  0  0  0
   38.3370   23.3170   38.9170 H   0  0  0  0  0  0  0  0  0  0  0  0
   38.3140   23.5450   37.5720 S   0  0  0  0  0  0  0  0  0  0  0  0
   37.1790   22.7940   36.9260 O   0  0  0  0  0  0  0  0  0  0  0  0
   38.1100   25.0060   37.2530 O   0  0  0  0  0  0  0  0  0  0  0  0
  1  3  1  0  0  0  0
  2  1  1  0  0  0  0
  5  4  1  0  0  0  0
  6  5  1  0  0  0  0
  6 18  1  0  0  0  0
  7  6  2  0  0  0  0
  8  9  2  0  0  0  0
  8  7  1  0  0  0  0
  9 10  1  0  0  0  0
 10  1  1  0  0  0  0
 10  5  2  0  0  0  0
 11  7  1  0  0  0  0
 12  8  1  0  0  0  0
 13  9  1  0  0  0  0
 14 20  1  0  0  0  0
 14 15  1  0  0  0  0
 15 21  1  0  0  0  0
 16 15  2  0  0  0  0
 16 22  1  0  0  0  0
 17 16  1  0  0  0  0
 18 19  1  0  0  0  0
 18 17  2  0  0  0  0
 19 14  2  0  0  0  0
 22 23  1  0  0  0  0
 24 22  1  0  0  0  0
 25  1  1  0  0  0  0
 25 28  1  0  0  0  0
 26 25  1  0  0  0  0
 27 25  1  0  0  0  0
 28 30  1  0  0  0  0
 30 29  2  6  0  0  0
 30 31  1  0  0  0  0
 30 33  1  0  0  0  0
 32 31  1  0  0  0  0
 33 35  1  0  0  0  0
 34 43  1  0  0  0  0
 34 41  1  0  0  0  0
 35 34  2  0  0  0  0
 36 35  1  0  0  0  0
 36 38  2  0  0  0  0
 37 36  1  0  0  0  0
 38 40  1  0  0  0  0
 39 38  1  0  0  0  0
 40 41  2  0  0  0  0
 43 42  1  0  0  0  0
 44 43  2  0  0  0  0
 45 43  2  0  0  0  0
M  END
>  <minimizedAffinity>
-5.91374493

$$$$
