
 OpenBabel03272504243D

 42 45  0  0  0  0  0  0  0  0999 V2000
   31.2930   28.9130   46.8340 C   0  0  0  0  0  0  0  0  0  0  0  0
   32.4360   29.6870   46.6280 C   0  0  0  0  0  0  0  0  0  0  0  0
   32.5100   30.6660   45.6840 C   0  0  0  0  0  0  0  0  0  0  0  0
   31.4150   30.9210   44.8780 C   0  0  0  0  0  0  0  0  0  0  0  0
   30.2610   30.1860   45.0280 C   0  0  0  0  0  0  0  0  0  0  0  0
   30.2560   29.2120   46.0020 C   0  0  0  0  0  0  0  0  0  0  0  0
   33.4400   31.2130   45.6030 H   0  0  0  0  0  0  0  0  0  0  0  0
   31.5800   31.7110   44.1770 H   0  0  0  0  0  0  0  0  0  0  0  0
   29.4700   30.4560   44.3640 H   0  0  0  0  0  0  0  0  0  0  0  0
   29.2430   28.7580   45.9190 H   0  0  0  0  0  0  0  0  0  0  0  0
   35.6110   30.0570   48.4060 C   0  0  0  0  0  0  0  0  0  0  0  0
   35.6520   28.8810   49.0450 C   0  0  0  0  0  0  0  0  0  0  0  0
   34.6700   27.9610   48.9260 C   0  0  0  0  0  0  0  0  0  0  0  0
   33.5980   28.2320   48.1270 N   0  0  0  0  0  0  0  0  0  0  0  0
   33.5830   29.4240   47.4930 C   0  0  0  0  0  0  0  0  0  0  0  0
   34.5620   30.3340   47.6190 N   0  0  0  0  0  0  0  0  0  0  0  0
   36.4960   28.6290   49.6940 H   0  0  0  0  0  0  0  0  0  0  0  0
   34.7240   27.0170   49.4510 H   0  0  0  0  0  0  0  0  0  0  0  0
   37.7430   32.7360   49.7650 C   0  0  0  0  0  0  0  0  0  0  0  0
   38.6260   32.9890   48.7080 C   0  0  0  0  0  0  0  0  0  0  0  0
   38.4690   32.2230   47.5390 C   0  0  0  0  0  0  0  0  0  0  0  0
   37.4800   31.2910   47.5000 N   0  0  0  0  0  0  0  0  0  0  0  0
   36.6530   31.0740   48.5240 C   0  0  0  0  0  0  0  0  0  0  0  0
   36.7930   31.8040   49.6580 N   0  0  0  0  0  0  0  0  0  0  0  0
   37.9140   33.3480   50.6210 H   0  0  0  0  0  0  0  0  0  0  0  0
   39.4280   33.6830   48.6230 H   0  0  0  0  0  0  0  0  0  0  0  0
   39.0700   32.3030   46.6440 H   0  0  0  0  0  0  0  0  0  0  0  0
   31.0080   27.7490   47.9730 S   0  0  1  0  0  0  0  0  0  0  0  0
   30.6590   26.4040   47.2540 O   0  0  0  0  0  0  0  0  0  0  0  0
   30.8860   27.8350   49.3280 O   0  0  0  0  0  1  0  0  0  0  0  0
   28.2410   27.2210   47.5930 C   0  0  0  0  0  0  0  0  0  0  0  0
   29.2380   27.9740   48.3070 C   0  0  0  0  0  0  0  0  0  0  0  0
   28.7490   28.7550   49.2180 C   0  0  0  0  0  0  0  0  0  0  0  0
   29.3890   29.3860   49.8180 H   0  0  0  0  0  0  0  0  0  0  0  0
   27.4070   28.8850   49.5160 C   0  0  0  0  0  0  0  0  0  0  0  0
   27.1170   29.5680   50.2980 H   0  0  0  0  0  0  0  0  0  0  0  0
   26.5010   28.1450   48.8120 C   0  0  0  0  0  3  0  0  0  0  0  0
   26.8460   27.2720   47.8130 C   0  0  0  0  0  3  0  0  0  0  0  0
   30.0960   26.1980   46.2770 H   0  0  0  0  0  0  0  0  0  0  0  0
   28.6860   26.1530   46.2880 S   0  0  0  0  0  3  0  0  0  0  0  0
   28.3530   26.7390   44.9390 O   0  0  0  0  0  1  0  0  0  0  0  0
   28.3670   24.7610   46.3320 O   0  0  0  0  0  1  0  0  0  0  0  0
  1 28  1  0  0  0  0
  2  1  1  0  0  0  0
  2 15  1  0  0  0  0
  3  2  2  0  0  0  0
  4  5  2  0  0  0  0
  4  3  1  0  0  0  0
  5  6  1  0  0  0  0
  6  1  2  0  0  0  0
  7  3  1  0  0  0  0
  8  4  1  0  0  0  0
  9  5  1  0  0  0  0
 10  6  1  0  0  0  0
 11 23  1  0  0  0  0
 11 12  1  0  0  0  0
 12 17  1  0  0  0  0
 13 12  2  0  0  0  0
 13 18  1  0  0  0  0
 14 13  1  0  0  0  0
 15 16  1  0  0  0  0
 15 14  2  0  0  0  0
 16 11  2  0  0  0  0
 19 25  1  0  0  0  0
 20 19  2  0  0  0  0
 21 20  1  0  0  0  0
 22 21  2  0  0  0  0
 22 23  1  0  0  0  0
 23 24  2  0  0  0  0
 24 19  1  0  0  0  0
 26 20  1  0  0  0  0
 27 21  1  0  0  0  0
 28 32  1  0  0  0  0
 28 30  1  1  0  0  0
 29 28  1  0  0  0  0
 31 38  2  0  0  0  0
 31 32  1  0  0  0  0
 32 33  2  0  0  0  0
 33 35  1  0  0  0  0
 33 34  1  0  0  0  0
 35 36  1  0  0  0  0
 37 35  2  0  0  0  0
 38 37  1  0  0  0  0
 39 29  1  0  0  0  0
 40 42  1  0  0  0  0
 40 31  1  0  0  0  0
 41 40  1  0  0  0  0
M  END
>  <minimizedAffinity>
-6.46937752

>  <minimizedRMSD>
1.35857892

$$$$
