
 OpenBabel03272501443D

 37 40  0  0  0  0  0  0  0  0999 V2000
   33.0220   27.3640   48.2800 C   0  0  0  0  0  0  0  0  0  0  0  0
   33.8300   28.4010   47.7280 C   0  0  0  0  0  0  0  0  0  0  0  0
   33.5990   28.7650   46.3990 C   0  0  0  0  0  0  0  0  0  0  0  0
   32.6250   28.1120   45.7280 N   0  0  0  0  0  0  0  0  0  0  0  0
   31.8740   27.1420   46.2560 C   0  0  0  0  0  0  0  0  0  0  0  0
   32.0790   26.7730   47.5400 N   0  0  0  0  0  0  0  0  0  0  0  0
   33.0520   26.9510   49.2720 H   0  0  0  0  0  0  0  0  0  0  0  0
   34.2320   29.5420   46.0440 H   0  0  0  0  0  0  0  0  0  0  0  0
   34.5840   28.8140   50.0020 C   0  0  0  0  0  0  0  0  0  0  0  0
   34.8090   28.9460   48.6450 C   0  0  0  0  0  0  0  0  0  0  0  0
   35.9720   29.6000   48.2490 C   0  0  0  0  0  0  0  0  0  0  0  0
   36.8460   30.0860   49.2190 C   0  0  0  0  0  0  0  0  0  0  0  0
   38.0180   30.7450   49.1450 N   0  0  0  0  0  0  0  0  0  0  0  0
   38.4750   30.9970   50.3700 C   0  0  0  0  0  0  0  0  0  0  0  0
   37.5950   30.4980   51.2590 N   0  0  0  0  0  0  0  0  0  0  0  0
   36.5970   29.9400   50.5650 C   0  0  0  0  0  0  0  0  0  0  0  0
   35.4510   29.2960   50.9530 C   0  0  0  0  0  0  0  0  0  0  0  0
   33.7130   28.3270   50.4570 H   0  0  0  0  0  0  0  0  0  0  0  0
   36.1650   29.7140   47.1910 H   0  0  0  0  0  0  0  0  0  0  0  0
   38.4500   30.9920   48.2240 H   0  0  0  0  0  0  0  0  0  0  0  0
   39.4110   31.5230   50.5270 H   0  0  0  0  0  0  0  0  0  0  0  0
   35.2890   29.2010   52.0300 H   0  0  0  0  0  0  0  0  0  0  0  0
   30.8480   26.5030   45.4160 C   0  0  0  0  0  0  0  0  0  0  0  0
   29.9140   26.3500   46.0350 H   0  0  0  0  0  0  0  0  0  0  0  0
   30.5630   27.1450   44.5450 H   0  0  0  0  0  0  0  0  0  0  0  0
   30.5360   24.0190   45.0050 C   0  0  0  0  0  0  0  0  0  0  0  0
   31.3080   25.1540   45.0190 C   0  0  0  0  0  0  0  0  0  0  0  0
   32.6280   24.9790   44.6010 C   0  0  0  0  0  0  0  0  0  0  0  0
   33.3190   25.8360   44.5800 H   0  0  0  0  0  0  0  0  0  0  0  0
   33.1930   23.7930   44.1880 C   0  0  0  0  0  0  0  0  0  0  0  0
   34.2260   23.7320   43.8780 H   0  0  0  0  0  0  0  0  0  0  0  0
   32.4180   22.6620   44.1750 C   0  0  0  0  0  3  0  0  0  0  0  0
   31.1080   22.8110   44.5850 C   0  0  0  0  0  3  0  0  0  0  0  0
   28.7650   24.7750   46.6470 H   0  0  0  0  0  0  0  0  0  0  0  0
   28.8830   23.9750   45.4960 S   0  0  0  0  0  0  0  0  0  0  0  0
   27.9700   24.6310   44.5080 O   0  0  0  0  0  0  0  0  0  0  0  0
   28.4100   22.5920   45.8910 O   0  0  0  0  0  0  0  0  0  0  0  0
  1  7  1  0  0  0  0
  2  1  1  0  0  0  0
  2 10  1  0  0  0  0
  3  2  2  0  0  0  0
  4  5  2  0  0  0  0
  4  3  1  0  0  0  0
  5  6  1  0  0  0  0
  6  1  2  0  0  0  0
  8  3  1  0  0  0  0
  9 18  1  0  0  0  0
  9 17  1  0  0  0  0
 10  9  2  0  0  0  0
 11 10  1  0  0  0  0
 11 12  2  0  0  0  0
 12 16  1  0  0  0  0
 13 12  1  0  0  0  0
 13 14  1  0  0  0  0
 14 21  1  0  0  0  0
 14 15  2  0  0  0  0
 16 17  2  0  0  0  0
 16 15  1  0  0  0  0
 17 22  1  0  0  0  0
 19 11  1  0  0  0  0
 20 13  1  0  0  0  0
 23 24  1  0  0  0  0
 23  5  1  0  0  0  0
 25 23  1  0  0  0  0
 26 27  1  0  0  0  0
 26 35  1  0  0  0  0
 27 23  1  0  0  0  0
 28 27  2  0  0  0  0
 29 28  1  0  0  0  0
 30 28  1  0  0  0  0
 31 30  1  0  0  0  0
 32 30  2  0  0  0  0
 32 33  1  0  0  0  0
 33 26  2  0  0  0  0
 35 37  2  0  0  0  0
 35 34  1  0  0  0  0
 36 35  2  0  0  0  0
M  END
>  <minimizedAffinity>
-4.84325075

>  <minimizedRMSD>
4.57070208

$$$$
