
 OpenBabel03262520233D

 35 37  0  0  0  0  0  0  0  0999 V2000
   35.6500   30.1890   47.2720 C   0  0  0  0  0  0  0  0  0  0  0  0
   35.6690   29.2490   48.3140 C   0  0  0  0  0  0  0  0  0  0  0  0
   36.5550   29.2070   49.3340 C   0  0  0  0  0  0  0  0  0  0  0  0
   37.5350   30.1360   49.4060 C   0  0  0  0  0  0  0  0  0  0  0  0
   37.5430   31.0480   48.4180 C   0  0  0  0  0  0  0  0  0  0  0  0
   36.6460   31.0160   47.4670 N   0  0  0  0  0  0  0  0  0  0  0  0
   34.8840   28.4310   48.3360 H   0  0  0  0  0  0  0  0  0  0  0  0
   36.4750   28.4040   50.1180 H   0  0  0  0  0  0  0  0  0  0  0  0
   38.2220   30.1490   50.2180 H   0  0  0  0  0  0  0  0  0  0  0  0
   33.3290   29.9910   46.8820 C   0  0  0  0  0  0  0  0  0  0  0  0
   34.6070   30.1360   46.2610 C   0  0  0  0  0  0  0  0  0  0  0  0
   34.6290   30.2190   44.8940 C   0  0  0  0  0  0  0  0  0  0  0  0
   33.4240   30.1560   44.2410 N   0  0  0  0  0  0  0  0  0  0  0  0
   32.2390   30.0210   44.8300 C   0  0  0  0  0  0  0  0  0  0  0  0
   32.2110   29.9380   46.1680 N   0  0  0  0  0  0  0  0  0  0  0  0
   31.1200   29.9890   43.9850 N   0  0  0  0  0  0  0  0  0  0  0  0
   33.1570   29.9130   47.9360 H   0  0  0  0  0  0  0  0  0  0  0  0
   30.2590   29.3990   44.1660 H   0  0  0  0  0  0  0  0  0  0  0  0
   31.0690   30.5590   43.1050 H   0  0  0  0  0  0  0  0  0  0  0  0
   35.9090   30.3700   44.2030 C   0  0  0  0  0  0  0  0  0  0  0  0
   36.7810   29.5320   44.7210 F   0  0  0  0  0  0  0  0  0  0  0  0
   35.8350   30.1970   42.8330 F   0  0  0  0  0  0  0  0  0  0  0  0
   36.4260   31.6890   44.3790 F   0  0  0  0  0  0  0  0  0  0  0  0
   39.3260   32.3880   47.2210 C   0  0  0  0  0  0  0  0  0  0  0  0
   38.4690   32.2010   48.2760 C   0  0  0  0  0  0  0  0  0  0  0  0
   38.4760   33.2220   49.2350 C   0  0  0  0  0  0  0  0  0  0  0  0
   37.7970   33.0890   50.0780 H   0  0  0  0  0  0  0  0  0  0  0  0
   39.2400   34.3500   49.2110 C   0  0  0  0  0  0  0  0  0  0  0  0
   39.1580   35.0690   50.0130 H   0  0  0  0  0  0  0  0  0  0  0  0
   40.0980   34.5260   48.1540 C   0  0  0  0  0  0  0  0  0  0  0  0
   40.1160   33.5420   47.1900 C   0  0  0  0  0  0  0  0  0  0  0  0
   38.5920   30.2400   45.9270 H   0  0  0  0  0  0  0  0  0  0  0  0
   39.4240   31.3100   45.8640 S   0  0  0  0  0  0  0  0  0  0  0  0
   39.1860   32.0260   44.5430 O   0  0  0  0  0  0  0  0  0  0  0  0
   40.8790   30.8020   45.7840 O   0  0  0  0  0  0  0  0  0  0  0  0
  1  6  2  0  0  0  0
  1  2  1  0  0  0  0
  2  7  1  0  0  0  0
  2  3  2  0  0  0  0
  3  4  1  0  0  0  0
  3  8  1  0  0  0  0
  4  9  1  0  0  0  0
  5  4  2  0  0  0  0
  6  5  1  0  0  0  0
 10 17  1  0  0  0  0
 11 10  1  0  0  0  0
 11  1  1  0  0  0  0
 12 11  2  0  0  0  0
 13 14  2  0  0  0  0
 13 12  1  0  0  0  0
 14 15  1  0  0  0  0
 15 10  2  0  0  0  0
 16 18  1  0  0  0  0
 16 14  1  0  0  0  0
 19 16  1  0  0  0  0
 20 23  1  0  0  0  0
 20 21  1  0  0  0  0
 20 12  1  0  0  0  0
 22 20  1  0  0  0  0
 24 25  1  0  0  0  0
 25  5  1  0  0  0  0
 25 26  2  0  0  0  0
 26 27  1  0  0  0  0
 28 26  1  0  0  0  0
 28 29  1  0  0  0  0
 30 28  2  0  0  0  0
 31 24  2  0  0  0  0
 31 30  1  0  0  0  0
 33 32  1  0  0  0  0
 33 24  1  0  0  0  0
 34 33  2  0  0  0  0
 35 33  2  0  0  0  0
M  END
>  <minimizedAffinity>
-5.82580185

>  <minimizedRMSD>
3.0684123

$$$$
