
 OpenBabel03272504243D

 42 45  0  0  0  0  0  0  0  0999 V2000
   31.8300   28.8530   46.9970 C   0  0  0  0  0  0  0  0  0  0  0  0
   32.9340   29.6700   46.7510 C   0  0  0  0  0  0  0  0  0  0  0  0
   32.9700   30.5890   45.7460 C   0  0  0  0  0  0  0  0  0  0  0  0
   31.8720   30.7340   44.9160 C   0  0  0  0  0  0  0  0  0  0  0  0
   30.7560   29.9520   45.1040 C   0  0  0  0  0  0  0  0  0  0  0  0
   30.7890   29.0440   46.1390 C   0  0  0  0  0  0  0  0  0  0  0  0
   33.8710   31.1760   45.6370 H   0  0  0  0  0  0  0  0  0  0  0  0
   32.0050   31.4840   44.1660 H   0  0  0  0  0  0  0  0  0  0  0  0
   29.9590   30.1370   44.4170 H   0  0  0  0  0  0  0  0  0  0  0  0
   29.8010   28.5340   46.0770 H   0  0  0  0  0  0  0  0  0  0  0  0
   36.0910   30.2920   48.4890 C   0  0  0  0  0  0  0  0  0  0  0  0
   36.1570   29.1890   49.2450 C   0  0  0  0  0  0  0  0  0  0  0  0
   35.1970   28.2380   49.2170 C   0  0  0  0  0  0  0  0  0  0  0  0
   34.1220   28.4020   48.3920 N   0  0  0  0  0  0  0  0  0  0  0  0
   34.0830   29.5230   47.6410 C   0  0  0  0  0  0  0  0  0  0  0  0
   35.0400   30.4630   47.6750 N   0  0  0  0  0  0  0  0  0  0  0  0
   37.0030   29.0240   49.9180 H   0  0  0  0  0  0  0  0  0  0  0  0
   35.2700   27.3540   49.8360 H   0  0  0  0  0  0  0  0  0  0  0  0
   38.1280   33.1710   49.5540 C   0  0  0  0  0  0  0  0  0  0  0  0
   39.0380   33.3080   48.4990 C   0  0  0  0  0  0  0  0  0  0  0  0
   38.9330   32.3960   47.4330 C   0  0  0  0  0  0  0  0  0  0  0  0
   37.9640   31.4440   47.4860 N   0  0  0  0  0  0  0  0  0  0  0  0
   37.1100   31.3400   48.5060 C   0  0  0  0  0  0  0  0  0  0  0  0
   37.2000   32.2110   49.5400 N   0  0  0  0  0  0  0  0  0  0  0  0
   38.2600   33.8920   50.3290 H   0  0  0  0  0  0  0  0  0  0  0  0
   39.8290   34.0040   48.3490 H   0  0  0  0  0  0  0  0  0  0  0  0
   39.5600   32.3750   46.5530 H   0  0  0  0  0  0  0  0  0  0  0  0
   31.5910   27.7520   48.2080 S   0  0  0  0  0  0  0  0  0  0  0  0
   31.7110   26.3080   47.6170 O   0  0  0  0  0  0  0  0  0  0  0  0
   31.1800   27.9160   49.4960 O   0  0  0  0  0  0  0  0  0  0  0  0
   29.1490   26.5820   47.3450 C   0  0  0  0  0  0  0  0  0  0  0  0
   29.7860   27.5570   48.1890 C   0  0  0  0  0  0  0  0  0  0  0  0
   28.9620   28.2110   48.9460 C   0  0  0  0  0  0  0  0  0  0  0  0
   29.3110   28.9810   49.6190 H   0  0  0  0  0  0  0  0  0  0  0  0
   27.5950   28.0240   48.9790 C   0  0  0  0  0  0  0  0  0  0  0  0
   27.0090   28.6270   49.6530 H   0  0  0  0  0  0  0  0  0  0  0  0
   27.0380   27.0840   48.1610 C   0  0  0  0  0  3  0  0  0  0  0  0
   27.7640   26.3060   47.2960 C   0  0  0  0  0  3  0  0  0  0  0  0
   29.1220   24.7630   45.6400 H   0  0  0  0  0  0  0  0  0  0  0  0
   30.0730   25.6340   46.2100 S   0  0  0  0  0  0  0  0  0  0  0  0
   30.9970   24.6620   46.9040 O   0  0  0  0  0  0  0  0  0  0  0  0
   30.7220   26.2460   45.0940 O   0  0  0  0  0  0  0  0  0  0  0  0
  1 28  1  0  0  0  0
  2  1  1  0  0  0  0
  2 15  1  0  0  0  0
  3  2  2  0  0  0  0
  4  5  2  0  0  0  0
  4  3  1  0  0  0  0
  5  6  1  0  0  0  0
  6  1  2  0  0  0  0
  7  3  1  0  0  0  0
  8  4  1  0  0  0  0
  9  5  1  0  0  0  0
 10  6  1  0  0  0  0
 11 23  1  0  0  0  0
 11 12  1  0  0  0  0
 12 17  1  0  0  0  0
 13 12  2  0  0  0  0
 13 18  1  0  0  0  0
 14 13  1  0  0  0  0
 15 16  1  0  0  0  0
 15 14  2  0  0  0  0
 16 11  2  0  0  0  0
 19 25  1  0  0  0  0
 20 19  2  0  0  0  0
 21 22  2  0  0  0  0
 21 20  1  0  0  0  0
 22 23  1  0  0  0  0
 23 24  2  0  0  0  0
 24 19  1  0  0  0  0
 26 20  1  0  0  0  0
 27 21  1  0  0  0  0
 28 30  2  0  0  0  0
 29 28  2  0  0  0  0
 31 32  1  0  0  0  0
 32 28  1  0  0  0  0
 32 33  2  0  0  0  0
 33 35  1  0  0  0  0
 33 34  1  0  0  0  0
 35 36  1  0  0  0  0
 37 35  2  0  0  0  0
 38 31  2  0  0  0  0
 38 37  1  0  0  0  0
 39 40  1  0  0  0  0
 40 41  2  0  0  0  0
 40 31  1  0  0  0  0
 42 40  2  0  0  0  0
M  END
>  <minimizedAffinity>
-6.18899822

>  <minimizedRMSD>
0.77354151

$$$$
