
 OpenBabel03272509463D

 28 29  0  0  0  0  0  0  0  0999 V2000
   33.5310   27.0640   48.1420 C   0  0  0  0  0  0  0  0  0  0  0  0
   34.0330   26.1330   48.5030 H   0  0  0  0  0  0  0  0  0  0  0  0
   32.6170   27.1520   48.7590 H   0  0  0  0  0  0  0  0  0  0  0  0
   31.8140   27.2790   46.5070 C   0  0  0  0  0  0  0  0  0  0  0  0
   33.1450   26.8990   46.7210 C   0  0  0  0  0  0  0  0  0  0  0  0
   33.8960   26.4470   45.6640 C   0  0  0  0  0  0  0  0  0  0  0  0
   34.9060   26.1800   45.9380 H   0  0  0  0  0  0  0  0  0  0  0  0
   33.3570   26.3650   44.4010 C   0  0  0  0  0  0  0  0  0  0  0  0
   34.0090   25.9960   43.5990 H   0  0  0  0  0  0  0  0  0  0  0  0
   32.0530   26.7280   44.1420 C   0  0  0  0  0  3  0  0  0  0  0  0
   31.2840   27.1890   45.2180 C   0  0  0  0  0  3  0  0  0  0  0  0
   31.2210   28.2500   48.8360 H   0  0  0  0  0  0  0  0  0  0  0  0
   30.6550   27.8770   47.6510 S   0  0  0  0  0  0  0  0  0  0  0  0
   29.8170   29.0110   47.1040 O   0  0  0  0  0  0  0  0  0  0  0  0
   29.7340   26.7190   47.9970 O   0  0  0  0  0  0  0  0  0  0  0  0
   34.4390   28.2390   48.3570 C   0  0  0  0  0  0  0  0  0  0  0  0
   35.3440   28.0470   47.7080 H   0  0  0  0  0  0  0  0  0  0  0  0
   33.9940   29.1570   47.9530 H   0  0  0  0  0  0  0  0  0  0  0  0
   34.8390   28.3240   49.7080 O   0  0  0  0  0  0  0  0  0  0  0  0
   37.3640   30.2490   51.4300 C   0  0  0  0  0  0  0  0  0  0  0  0
   38.1000   30.7240   50.3240 C   0  0  0  0  0  0  0  0  0  0  0  0
   37.6840   30.3540   49.0480 C   0  0  0  0  0  0  0  0  0  0  0  0
   36.5820   29.5490   48.9520 N   0  0  0  0  0  0  0  0  0  0  0  0
   35.9110   29.1200   50.0360 C   0  0  0  0  0  0  0  0  0  0  0  0
   36.3080   29.4750   51.2790 N   0  0  0  0  0  0  0  0  0  0  0  0
   37.6560   30.5150   52.4270 H   0  0  0  0  0  0  0  0  0  0  0  0
   38.9690   31.3610   50.4550 H   0  0  0  0  0  0  0  0  0  0  0  0
   38.2030   30.6820   48.1560 H   0  0  0  0  0  0  0  0  0  0  0  0
  1 16  1  0  0  0  0
  1  2  1  0  0  0  0
  1  3  1  0  0  0  0
  4  5  1  0  0  0  0
  4 13  1  0  0  0  0
  5  1  1  0  0  0  0
  6  7  1  0  0  0  0
  6  5  2  0  0  0  0
  8  6  1  0  0  0  0
  9  8  1  0  0  0  0
 10  8  2  0  0  0  0
 10 11  1  0  0  0  0
 11  4  2  0  0  0  0
 13 15  2  0  0  0  0
 13 12  1  0  0  0  0
 14 13  2  0  0  0  0
 16 19  1  0  0  0  0
 17 16  1  0  0  0  0
 18 16  1  0  0  0  0
 19 24  1  0  0  0  0
 20 26  1  0  0  0  0
 21 27  1  0  0  0  0
 21 20  2  0  0  0  0
 22 21  1  0  0  0  0
 23 22  2  0  0  0  0
 23 24  1  0  0  0  0
 24 25  2  0  0  0  0
 25 20  1  0  0  0  0
 28 22  1  0  0  0  0
M  END
>  <minimizedAffinity>
-4.07892275

>  <minimizedRMSD>
1.35926557

$$$$
