
 OpenBabel03272509473D

 28 29  0  0  0  0  0  0  0  0999 V2000
   33.0000   27.5750   48.4240 C   0  0  0  0  0  0  0  0  0  0  0  0
   33.6630   26.8720   47.8620 H   0  0  0  0  0  0  0  0  0  0  0  0
   32.3390   26.9230   49.0260 H   0  0  0  0  0  0  0  0  0  0  0  0
   30.8100   28.1730   47.7110 C   0  0  0  0  0  0  0  0  0  0  0  0
   32.1770   28.3520   47.4680 C   0  0  0  0  0  0  0  0  0  0  0  0
   32.5800   29.1720   46.4420 C   0  0  0  0  0  0  0  0  0  0  0  0
   33.6530   29.2400   46.3420 H   0  0  0  0  0  0  0  0  0  0  0  0
   31.6570   29.8180   45.6530 C   0  0  0  0  0  0  0  0  0  0  0  0
   32.0420   30.4590   44.8500 H   0  0  0  0  0  0  0  0  0  0  0  0
   30.3010   29.6730   45.8540 C   0  0  0  0  0  3  0  0  0  0  0  0
   29.8880   28.8380   46.8980 C   0  0  0  0  0  3  0  0  0  0  0  0
   30.6450   25.9940   49.1060 H   0  0  0  0  0  0  0  0  0  0  0  0
   30.0360   27.2040   48.9230 S   0  0  0  0  0  0  0  0  0  0  0  0
   29.9030   27.9150   50.2510 O   0  0  0  0  0  0  0  0  0  0  0  0
   28.6440   26.8760   48.4090 O   0  0  0  0  0  0  0  0  0  0  0  0
   33.8380   28.4540   49.3060 C   0  0  0  0  0  0  0  0  0  0  0  0
   33.5440   29.5130   49.0480 H   0  0  0  0  0  0  0  0  0  0  0  0
   33.5540   28.3340   50.3600 H   0  0  0  0  0  0  0  0  0  0  0  0
   35.2110   28.2670   49.0420 O   0  0  0  0  0  0  0  0  0  0  0  0
   37.2120   30.1880   51.3560 C   0  0  0  0  0  0  0  0  0  0  0  0
   38.0450   30.8710   50.4450 C   0  0  0  0  0  0  0  0  0  0  0  0
   37.8690   30.6310   49.0850 C   0  0  0  0  0  0  0  0  0  0  0  0
   36.8940   29.7430   48.7210 N   0  0  0  0  0  0  0  0  0  0  0  0
   36.1230   29.1140   49.6270 C   0  0  0  0  0  0  0  0  0  0  0  0
   36.2870   29.3420   50.9500 N   0  0  0  0  0  0  0  0  0  0  0  0
   37.3200   30.3500   52.4110 H   0  0  0  0  0  0  0  0  0  0  0  0
   38.8050   31.5660   50.7850 H   0  0  0  0  0  0  0  0  0  0  0  0
   38.4730   31.1200   48.3310 H   0  0  0  0  0  0  0  0  0  0  0  0
  1  3  1  0  0  0  0
  1 16  1  0  0  0  0
  2  1  1  0  0  0  0
  4 13  1  0  0  0  0
  5  4  1  0  0  0  0
  5  1  1  0  0  0  0
  6  5  2  0  0  0  0
  7  6  1  0  0  0  0
  8 10  2  0  0  0  0
  8  6  1  0  0  0  0
  9  8  1  0  0  0  0
 10 11  1  0  0  0  0
 11  4  2  0  0  0  0
 13 12  1  0  0  0  0
 13 14  2  0  0  0  0
 15 13  2  0  0  0  0
 16 18  1  0  0  0  0
 17 16  1  0  0  0  0
 19 16  1  0  0  0  0
 19 24  1  0  0  0  0
 20 26  1  0  0  0  0
 21 27  1  0  0  0  0
 21 20  2  0  0  0  0
 22 21  1  0  0  0  0
 23 22  2  0  0  0  0
 23 24  1  0  0  0  0
 24 25  2  0  0  0  0
 25 20  1  0  0  0  0
 28 22  1  0  0  0  0
M  END
>  <minimizedAffinity>
-4.57203579

>  <minimizedRMSD>
1.84516239

$$$$
