
 OpenBabel03272509543D

 46 49  0  0  0  0  0  0  0  0999 V2000
   34.4380   28.5910   48.1590 C   0  0  0  0  0  0  0  0  0  0  0  0
   33.9800   29.5950   48.0950 H   0  0  0  0  0  0  0  0  0  0  0  0
   35.3090   28.5710   47.4560 H   0  0  0  0  0  0  0  0  0  0  0  0
   33.5270   27.4880   47.7350 C   0  0  0  0  0  0  0  0  0  0  0  0
   33.6570   26.6310   48.4150 H   0  0  0  0  0  0  0  0  0  0  0  0
   33.7590   27.1100   46.7030 H   0  0  0  0  0  0  0  0  0  0  0  0
   32.0930   27.8920   47.7160 C   0  0  0  0  0  0  0  0  0  0  0  0
   31.3070   27.5900   48.8100 C   0  0  0  0  0  0  0  0  0  0  0  0
   29.9890   27.9230   48.8730 C   0  0  0  0  0  0  0  0  0  0  0  0
   29.4410   28.5540   47.8560 N   0  0  0  0  0  0  0  0  0  0  0  0
   30.1880   28.8630   46.7680 C   0  0  0  0  0  0  0  0  0  0  0  0
   31.4990   28.5360   46.6980 N   0  0  0  0  0  0  0  0  0  0  0  0
   31.7630   27.0710   49.6440 H   0  0  0  0  0  0  0  0  0  0  0  0
   29.3940   27.6720   49.7500 H   0  0  0  0  0  0  0  0  0  0  0  0
   28.4900   29.0590   44.9760 C   0  0  0  0  0  0  0  0  0  0  0  0
   29.6110   29.5670   45.6130 C   0  0  0  0  0  0  0  0  0  0  0  0
   30.1760   30.7550   45.1340 C   0  0  0  0  0  0  0  0  0  0  0  0
   31.0550   31.1450   45.6430 H   0  0  0  0  0  0  0  0  0  0  0  0
   29.6620   31.4420   44.0560 C   0  0  0  0  0  0  0  0  0  0  0  0
   30.1450   32.3580   43.7320 H   0  0  0  0  0  0  0  0  0  0  0  0
   28.5620   30.9710   43.4060 C   0  0  0  0  0  3  0  0  0  0  0  0
   28.0170   29.8020   43.8870 C   0  0  0  0  0  3  0  0  0  0  0  0
   28.5110   26.7500   46.1770 H   0  0  0  0  0  0  0  0  0  0  0  0
   27.7130   27.6010   45.4830 S   0  0  0  0  0  0  0  0  0  0  0  0
   26.4510   27.9740   46.2390 O   0  0  0  0  0  0  0  0  0  0  0  0
   27.2550   26.8580   44.2380 O   0  0  0  0  0  0  0  0  0  0  0  0
   34.9880   28.3140   49.4360 O   0  0  0  0  0  0  0  0  0  0  0  0
   37.3120   30.1800   51.4880 C   0  0  0  0  0  0  0  0  0  0  0  0
   38.0400   30.8520   50.4720 C   0  0  0  0  0  0  0  0  0  0  0  0
   37.6910   30.6230   49.1620 C   0  0  0  0  0  0  0  0  0  0  0  0
   36.6500   29.7510   48.9530 N   0  0  0  0  0  0  0  0  0  0  0  0
   35.9760   29.1270   49.9110 C   0  0  0  0  0  0  0  0  0  0  0  0
   36.3160   29.3490   51.1980 N   0  0  0  0  0  0  0  0  0  0  0  0
   37.6310   30.3970   52.5000 H   0  0  0  0  0  0  0  0  0  0  0  0
   38.8440   31.5260   50.6350 H   0  0  0  0  0  0  0  0  0  0  0  0
   38.9640   33.2070   48.9440 F   0  0  0  0  0  0  0  0  0  0  0  0
   38.9210   32.4170   47.8780 C   0  0  0  0  0  0  0  0  0  0  0  0
   38.3200   31.2180   48.0120 C   0  0  0  0  0  0  0  0  0  0  0  0
   38.3300   30.4630   46.8280 C   0  0  0  0  0  0  0  0  0  0  0  0
   38.8970   30.9090   45.6570 C   0  0  0  0  0  0  0  0  0  0  0  0
   39.4880   32.1310   45.5860 C   0  0  0  0  0  0  0  0  0  0  0  0
   39.5000   32.9010   46.7230 C   0  0  0  0  0  0  0  0  0  0  0  0
   37.8830   29.4710   46.7740 H   0  0  0  0  0  0  0  0  0  0  0  0
   38.8890   30.3030   44.7570 H   0  0  0  0  0  0  0  0  0  0  0  0
   39.9370   32.5000   44.6820 H   0  0  0  0  0  0  0  0  0  0  0  0
   39.9640   33.8780   46.6980 H   0  0  0  0  0  0  0  0  0  0  0  0
  1 27  1  0  0  0  0
  2  1  1  0  0  0  0
  3  1  1  0  0  0  0
  4  1  1  0  0  0  0
  4  5  1  0  0  0  0
  6  4  1  0  0  0  0
  7  4  1  0  0  0  0
  7  8  1  0  0  0  0
  8  9  2  0  0  0  0
  8 13  1  0  0  0  0
  9 14  1  0  0  0  0
 10  9  1  0  0  0  0
 11 10  2  0  0  0  0
 12 11  1  0  0  0  0
 12  7  2  0  0  0  0
 15 24  1  0  0  0  0
 15 16  1  0  0  0  0
 16 11  1  0  0  0  0
 17 16  2  0  0  0  0
 17 18  1  0  0  0  0
 19 17  1  0  0  0  0
 20 19  1  0  0  0  0
 21 22  1  0  0  0  0
 21 19  2  0  0  0  0
 22 15  2  0  0  0  0
 24 23  1  0  0  0  0
 24 25  2  0  0  0  0
 26 24  2  0  0  0  0
 27 32  1  0  0  0  0
 28 34  1  0  0  0  0
 29 35  1  0  0  0  0
 29 28  2  0  0  0  0
 30 29  1  0  0  0  0
 31 30  2  0  0  0  0
 31 32  1  0  0  0  0
 32 33  2  0  0  0  0
 33 28  1  0  0  0  0
 37 38  1  0  0  0  0
 37 36  1  0  0  0  0
 38 30  1  0  0  0  0
 39 38  2  0  0  0  0
 40 39  1  0  0  0  0
 41 40  2  0  0  0  0
 41 42  1  0  0  0  0
 42 37  2  0  0  0  0
 43 39  1  0  0  0  0
 44 40  1  0  0  0  0
 45 41  1  0  0  0  0
 46 42  1  0  0  0  0
M  END
>  <minimizedAffinity>
-6.65120268

>  <minimizedRMSD>
0.342585623

$$$$
