
 OpenBabel03272509573D

 49 52  0  0  0  0  0  0  0  0999 V2000
   33.5390   27.5210   47.7020 C   0  0  0  0  0  0  0  0  0  0  0  0
   33.7220   26.5840   48.2450 H   0  0  0  0  0  0  0  0  0  0  0  0
   33.8090   27.3090   46.6420 H   0  0  0  0  0  0  0  0  0  0  0  0
   32.0910   27.8860   47.7680 C   0  0  0  0  0  0  0  0  0  0  0  0
   31.3840   27.4710   48.8790 C   0  0  0  0  0  0  0  0  0  0  0  0
   30.0510   27.7640   49.0160 C   0  0  0  0  0  0  0  0  0  0  0  0
   29.4290   28.4520   48.0720 N   0  0  0  0  0  0  0  0  0  0  0  0
   30.1290   28.8620   46.9720 C   0  0  0  0  0  0  0  0  0  0  0  0
   31.4310   28.5800   46.8330 N   0  0  0  0  0  0  0  0  0  0  0  0
   31.8730   26.9140   49.6500 H   0  0  0  0  0  0  0  0  0  0  0  0
   29.4780   27.4430   49.8870 H   0  0  0  0  0  0  0  0  0  0  0  0
   29.3950   29.6370   45.9410 C   0  0  0  0  0  0  0  0  0  0  0  0
   28.8710   30.4730   46.4920 H   0  0  0  0  0  0  0  0  0  0  0  0
   30.1400   30.1920   45.3050 H   0  0  0  0  0  0  0  0  0  0  0  0
   28.7210   28.1920   43.9940 C   0  0  0  0  0  0  0  0  0  0  0  0
   28.4260   28.8530   45.1630 C   0  0  0  0  0  0  0  0  0  0  0  0
   27.1120   28.7680   45.6430 C   0  0  0  0  0  0  0  0  0  0  0  0
   26.8630   29.2830   46.5600 H   0  0  0  0  0  0  0  0  0  0  0  0
   26.1120   28.0630   45.0070 C   0  0  0  0  0  0  0  0  0  0  0  0
   25.1070   28.0320   45.4270 H   0  0  0  0  0  0  0  0  0  0  0  0
   26.3930   27.3950   43.8350 C   0  0  0  0  0  3  0  0  0  0  0  0
   27.6900   27.4820   43.3660 C   0  0  0  0  0  3  0  0  0  0  0  0
   31.2780   27.8410   44.2330 H   0  0  0  0  0  0  0  0  0  0  0  0
   30.3180   28.2430   43.3220 S   0  0  0  0  0  0  0  0  0  0  0  0
   30.6570   29.5100   42.6270 O   0  0  0  0  0  0  0  0  0  0  0  0
   30.3610   27.1620   42.2430 O   0  0  0  0  0  0  0  0  0  0  0  0
   34.4310   28.6450   48.1710 C   0  0  0  0  0  0  0  0  0  0  0  0
   35.2080   28.9060   47.4520 H   0  0  0  0  0  0  0  0  0  0  0  0
   33.7990   29.5460   48.3320 H   0  0  0  0  0  0  0  0  0  0  0  0
   34.9910   28.3460   49.4430 O   0  0  0  0  0  0  0  0  0  0  0  0
   37.3180   30.1680   51.5110 C   0  0  0  0  0  0  0  0  0  0  0  0
   38.0490   30.8590   50.5190 C   0  0  0  0  0  0  0  0  0  0  0  0
   37.6880   30.6490   49.1950 C   0  0  0  0  0  0  0  0  0  0  0  0
   36.6480   29.7840   48.9720 N   0  0  0  0  0  0  0  0  0  0  0  0
   35.9720   29.1420   49.9270 C   0  0  0  0  0  0  0  0  0  0  0  0
   36.3200   29.3440   51.2050 N   0  0  0  0  0  0  0  0  0  0  0  0
   37.6170   30.3470   52.5340 H   0  0  0  0  0  0  0  0  0  0  0  0
   38.8670   31.5390   50.7110 H   0  0  0  0  0  0  0  0  0  0  0  0
   38.9460   33.2590   49.0230 F   0  0  0  0  0  0  0  0  0  0  0  0
   38.9100   32.4770   47.9490 C   0  0  0  0  0  0  0  0  0  0  0  0
   38.3230   31.2700   48.0510 C   0  0  0  0  0  0  0  0  0  0  0  0
   38.3380   30.5230   46.8630 C   0  0  0  0  0  0  0  0  0  0  0  0
   38.9090   30.9990   45.7080 C   0  0  0  0  0  0  0  0  0  0  0  0
   39.4960   32.2320   45.6470 C   0  0  0  0  0  0  0  0  0  0  0  0
   39.4790   32.9510   46.7950 C   0  0  0  0  0  0  0  0  0  0  0  0
   37.8850   29.5280   46.8410 H   0  0  0  0  0  0  0  0  0  0  0  0
   38.8820   30.3610   44.8220 H   0  0  0  0  0  0  0  0  0  0  0  0
   39.9280   32.5530   44.7130 H   0  0  0  0  0  0  0  0  0  0  0  0
   39.9440   33.9500   46.7830 H   0  0  0  0  0  0  0  0  0  0  0  0
  1  4  1  0  0  0  0
  1 27  1  0  0  0  0
  1  2  1  0  0  0  0
  3  1  1  0  0  0  0
  4  5  1  0  0  0  0
  5  6  2  0  0  0  0
  5 10  1  0  0  0  0
  6 11  1  0  0  0  0
  7  6  1  0  0  0  0
  8  7  2  0  0  0  0
  9  8  1  0  0  0  0
  9  4  2  0  0  0  0
 12 13  1  0  0  0  0
 12  8  1  0  0  0  0
 14 12  1  0  0  0  0
 15 16  1  0  0  0  0
 16 17  2  0  0  0  0
 16 12  1  0  0  0  0
 17 18  1  0  0  0  0
 19 20  1  0  0  0  0
 19 17  1  0  0  0  0
 21 19  2  0  0  0  0
 22 21  1  0  0  0  0
 22 15  2  0  0  0  0
 24 15  1  0  0  0  0
 24 23  1  0  0  0  0
 25 24  2  0  0  0  0
 26 24  2  0  0  0  0
 27 29  1  0  0  0  0
 27 30  1  0  0  0  0
 28 27  1  0  0  0  0
 30 35  1  0  0  0  0
 31 37  1  0  0  0  0
 32 38  1  0  0  0  0
 32 31  2  0  0  0  0
 33 32  1  0  0  0  0
 34 33  2  0  0  0  0
 34 35  1  0  0  0  0
 35 36  2  0  0  0  0
 36 31  1  0  0  0  0
 40 41  1  0  0  0  0
 40 39  1  0  0  0  0
 41 33  1  0  0  0  0
 42 41  2  0  0  0  0
 43 42  1  0  0  0  0
 44 43  2  0  0  0  0
 44 45  1  0  0  0  0
 45 40  2  0  0  0  0
 46 42  1  0  0  0  0
 47 43  1  0  0  0  0
 48 44  1  0  0  0  0
 49 45  1  0  0  0  0
M  END
>  <minimizedAffinity>
-6.42193365

>  <minimizedRMSD>
0.690002024

$$$$
