
 OpenBabel03272510123D

 38 41  0  0  0  0  0  0  0  0999 V2000
   36.6760   29.1740   49.3190 O   0  0  0  0  0  0  0  0  0  0  0  0
   32.5970   28.1500   49.0320 C   0  0  0  0  0  0  0  0  0  0  0  0
   33.0540   28.9540   50.0250 C   0  0  0  0  0  0  0  0  0  0  0  0
   34.3700   29.3330   50.1830 C   0  0  0  0  0  0  0  0  0  0  0  0
   35.3140   28.8890   49.3010 C   0  0  0  0  0  0  0  0  0  0  0  0
   34.8500   28.0560   48.2730 C   0  0  0  0  0  0  0  0  0  0  0  0
   33.5540   27.7140   48.1580 N   0  0  0  0  0  0  0  0  0  0  0  0
   32.3720   29.3490   50.7650 H   0  0  0  0  0  0  0  0  0  0  0  0
   34.7210   29.9720   50.9740 H   0  0  0  0  0  0  0  0  0  0  0  0
   35.5000   27.6430   47.5150 H   0  0  0  0  0  0  0  0  0  0  0  0
   30.2410   27.9520   49.8330 C   0  0  0  0  0  0  0  0  0  0  0  0
   31.2350   27.7510   48.8640 C   0  0  0  0  0  0  0  0  0  0  0  0
   30.8300   27.1330   47.7110 C   0  0  0  0  0  0  0  0  0  0  0  0
   29.5190   26.7470   47.5560 N   0  0  0  0  0  0  0  0  0  0  0  0
   28.6110   26.9730   48.5390 C   0  0  0  0  0  0  0  0  0  0  0  0
   28.9570   27.5730   49.6800 N   0  0  0  0  0  0  0  0  0  0  0  0
   30.5050   28.4370   50.7650 H   0  0  0  0  0  0  0  0  0  0  0  0
   31.5730   26.9590   46.9340 H   0  0  0  0  0  0  0  0  0  0  0  0
   27.6560   26.5910   48.2020 H   0  0  0  0  0  0  0  0  0  0  0  0
   37.2190   30.1970   48.5440 C   0  0  0  0  0  0  0  0  0  0  0  0
   37.2710   31.4190   49.2150 C   0  0  0  0  0  0  0  0  0  0  0  0
   37.8280   32.3400   48.3350 C   0  0  0  0  0  0  0  0  0  0  0  0
   38.0900   31.6700   47.1900 N   0  0  0  0  0  0  0  0  0  0  0  0
   37.7310   30.4190   47.3230 N   0  0  0  0  0  0  0  0  0  0  0  0
   37.0030   31.8120   50.1910 H   0  0  0  0  0  0  0  0  0  0  0  0
   38.0540   33.3940   48.4280 H   0  0  0  0  0  0  0  0  0  0  0  0
   38.1180   31.9450   44.7410 C   0  0  0  0  0  0  0  0  0  0  0  0
   38.6650   32.1990   46.0020 C   0  0  0  0  0  0  0  0  0  0  0  0
   39.7950   32.9790   46.1430 C   0  0  0  0  0  0  0  0  0  0  0  0
   40.2230   33.1790   47.1130 H   0  0  0  0  0  0  0  0  0  0  0  0
   40.4050   33.5270   45.0140 C   0  0  0  0  0  0  0  0  0  0  0  0
   41.2920   34.1480   45.0510 H   0  0  0  0  0  0  0  0  0  0  0  0
   39.8560   33.2690   43.7750 C   0  0  0  0  0  3  0  0  0  0  0  0
   38.7350   32.4960   43.6160 C   0  0  0  0  0  3  0  0  0  0  0  0
   36.0180   30.8900   45.8460 H   0  0  0  0  0  0  0  0  0  0  0  0
   36.6820   30.9450   44.6350 S   0  0  0  0  0  0  0  0  0  0  0  0
   37.0090   29.5600   44.1270 O   0  0  0  0  0  0  0  0  0  0  0  0
   35.7360   31.6010   43.6640 O   0  0  0  0  0  0  0  0  0  0  0  0
  2  3  1  0  0  0  0
  3  4  2  0  0  0  0
  3  8  1  0  0  0  0
  4  9  1  0  0  0  0
  5  1  1  0  0  0  0
  5  4  1  0  0  0  0
  6  5  2  0  0  0  0
  7  6  1  0  0  0  0
  7  2  2  0  0  0  0
 10  6  1  0  0  0  0
 11 17  1  0  0  0  0
 12  2  1  0  0  0  0
 12 11  2  0  0  0  0
 13 12  1  0  0  0  0
 14 13  2  0  0  0  0
 14 15  1  0  0  0  0
 15 16  2  0  0  0  0
 16 11  1  0  0  0  0
 18 13  1  0  0  0  0
 19 15  1  0  0  0  0
 20 21  1  0  0  0  0
 20  1  1  0  0  0  0
 21 25  1  0  0  0  0
 22 26  1  0  0  0  0
 22 21  2  0  0  0  0
 23 24  1  0  0  0  0
 23 22  1  0  0  0  0
 24 20  2  0  0  0  0
 27 28  1  0  0  0  0
 28 29  2  0  0  0  0
 28 23  1  0  0  0  0
 29 30  1  0  0  0  0
 31 32  1  0  0  0  0
 31 29  1  0  0  0  0
 33 31  2  0  0  0  0
 34 33  1  0  0  0  0
 34 27  2  0  0  0  0
 36 27  1  0  0  0  0
 36 35  1  0  0  0  0
 37 36  2  0  0  0  0
 38 36  2  0  0  0  0
M  END
>  <minimizedAffinity>
-5.64814997

>  <minimizedRMSD>
2.2615602

$$$$
