
 OpenBabel03272503123D

 49 53  0  0  0  0  0  0  0  0999 V2000
   38.5190   31.3800   42.5530 C   0  0  0  0  0  0  0  0  0  0  0  0
   39.4400   31.1250   43.5420 C   0  0  0  0  0  0  0  0  0  0  0  0
   40.6040   30.4570   43.3250 C   0  0  0  0  0  0  0  0  0  0  0  0
   40.8980   30.0000   42.0490 C   0  0  0  0  0  0  0  0  0  0  0  0
   41.9360   29.3290   41.5400 N   0  0  0  0  0  0  0  0  0  0  0  0
   41.7020   29.1460   40.2450 C   0  0  0  0  0  0  0  0  0  0  0  0
   40.5080   29.7040   39.9210 N   0  0  0  0  0  0  0  0  0  0  0  0
   39.9890   30.2450   41.0480 C   0  0  0  0  0  0  0  0  0  0  0  0
   38.7850   30.9320   41.2530 C   0  0  0  0  0  0  0  0  0  0  0  0
   37.6030   31.9150   42.7630 H   0  0  0  0  0  0  0  0  0  0  0  0
   41.3030   30.2750   44.1260 H   0  0  0  0  0  0  0  0  0  0  0  0
   42.7970   28.9900   42.0370 H   0  0  0  0  0  0  0  0  0  0  0  0
   42.3070   28.6490   39.4950 H   0  0  0  0  0  0  0  0  0  0  0  0
   39.1080   31.6150   44.8710 C   0  0  0  0  0  0  0  0  0  0  0  0
   37.9630   32.1650   45.0520 O   0  0  0  0  0  0  0  0  0  0  0  0
   39.9400   31.5460   46.0140 N   0  0  0  0  0  0  0  0  0  0  0  0
   40.8730   31.1070   45.8980 H   0  0  0  0  0  0  0  0  0  0  0  0
   38.2100   30.1060   47.5270 F   0  0  0  0  0  0  0  0  0  0  0  0
   38.4710   31.3660   47.9480 C   0  0  0  0  0  0  0  0  0  0  0  0
   37.8780   31.8510   49.0760 C   0  0  0  0  0  0  0  0  0  0  0  0
   38.1920   33.1420   49.4460 C   0  0  0  0  0  0  0  0  0  0  0  0
   39.0600   33.9280   48.7240 C   0  0  0  0  0  0  0  0  0  0  0  0
   39.6520   33.4100   47.5780 C   0  0  0  0  0  0  0  0  0  0  0  0
   39.3460   32.1120   47.1930 C   0  0  0  0  0  0  0  0  0  0  0  0
   37.7270   33.5390   50.3400 H   0  0  0  0  0  0  0  0  0  0  0  0
   39.2910   34.9350   49.0320 H   0  0  0  0  0  0  0  0  0  0  0  0
   40.3440   33.9810   46.9680 H   0  0  0  0  0  0  0  0  0  0  0  0
   36.4450   29.4680   51.6390 C   0  0  0  0  0  0  0  0  0  0  0  0
   37.3400   30.3070   50.9490 C   0  0  0  0  0  0  0  0  0  0  0  0
   36.9630   30.9760   49.8060 C   0  0  0  0  0  0  0  0  0  0  0  0
   35.6750   30.7880   49.3670 N   0  0  0  0  0  0  0  0  0  0  0  0
   34.8220   29.9910   50.0210 C   0  0  0  0  0  0  0  0  0  0  0  0
   35.1920   29.3460   51.1280 N   0  0  0  0  0  0  0  0  0  0  0  0
   36.8550   29.0010   52.5190 H   0  0  0  0  0  0  0  0  0  0  0  0
   38.3680   30.4920   51.2490 H   0  0  0  0  0  0  0  0  0  0  0  0
   33.8030   29.8390   49.6790 H   0  0  0  0  0  0  0  0  0  0  0  0
   37.8780   31.1750   40.2480 O   0  0  0  0  0  0  0  0  0  0  0  0
   36.5420   33.2540   39.8400 C   0  0  0  0  0  0  0  0  0  0  0  0
   37.6040   32.3920   39.6720 C   0  0  0  0  0  0  0  0  0  0  0  0
   38.6120   32.7580   38.7760 C   0  0  0  0  0  0  0  0  0  0  0  0
   39.5110   32.1800   38.5400 H   0  0  0  0  0  0  0  0  0  0  0  0
   38.5610   33.9520   38.0670 C   0  0  0  0  0  0  0  0  0  0  0  0
   39.3190   34.2660   37.3680 H   0  0  0  0  0  0  0  0  0  0  0  0
   37.4850   34.7950   38.2540 C   0  0  0  0  0  0  0  0  0  0  0  0
   36.4860   34.4390   39.1370 C   0  0  0  0  0  0  0  0  0  0  0  0
   35.4190   31.3230   41.1800 H   0  0  0  0  0  0  0  0  0  0  0  0
   35.3540   32.6770   40.9860 S   0  0  0  0  0  0  0  0  0  0  0  0
   35.6550   33.3620   42.3120 O   0  0  0  0  0  0  0  0  0  0  0  0
   33.9750   33.1290   40.5960 O   0  0  0  0  0  0  0  0  0  0  0  0
  1 10  1  0  0  0  0
  1  2  1  0  0  0  0
  2 14  1  0  0  0  0
  3  2  2  0  0  0  0
  3 11  1  0  0  0  0
  4  3  1  0  0  0  0
  5 12  1  0  0  0  0
  5  4  1  0  0  0  0
  6  5  1  0  0  0  0
  7  6  2  0  0  0  0
  7  8  1  0  0  0  0
  8  9  1  0  0  0  0
  8  4  2  0  0  0  0
  9  1  2  0  0  0  0
 13  6  1  0  0  0  0
 14 15  2  0  0  0  0
 14 16  1  0  0  0  0
 16 24  1  0  0  0  0
 17 16  1  0  0  0  0
 18 19  1  0  0  0  0
 19 20  1  0  0  0  0
 20 21  2  0  0  0  0
 20 30  1  0  0  0  0
 21 25  1  0  0  0  0
 22 26  1  0  0  0  0
 22 21  1  0  0  0  0
 23 22  2  0  0  0  0
 24 23  1  0  0  0  0
 24 19  2  0  0  0  0
 27 23  1  0  0  0  0
 28 34  1  0  0  0  0
 29 35  1  0  0  0  0
 29 28  2  0  0  0  0
 30 29  1  0  0  0  0
 31 30  2  0  0  0  0
 31 32  1  0  0  0  0
 32 33  2  0  0  0  0
 33 28  1  0  0  0  0
 36 32  1  0  0  0  0
 37  9  1  0  0  0  0
 38 47  1  0  0  0  0
 39 38  1  0  0  0  0
 39 37  1  0  0  0  0
 40 39  2  0  0  0  0
 41 40  1  0  0  0  0
 42 44  2  0  0  0  0
 42 40  1  0  0  0  0
 43 42  1  0  0  0  0
 44 45  1  0  0  0  0
 45 38  2  0  0  0  0
 47 46  1  0  0  0  0
 47 48  2  0  0  0  0
 49 47  2  0  0  0  0
M  END
>  <minimizedAffinity>
-6.9728117

>  <minimizedRMSD>
1.97688782

$$$$
