
 OpenBabel03272500213D

 40 42  0  0  0  0  0  0  0  0999 V2000
   34.9100   29.7630   50.4630 C   0  0  0  0  0  0  0  0  0  0  0  0
   36.1230   30.1020   49.8170 C   0  0  0  0  0  0  0  0  0  0  0  0
   36.2810   29.8150   48.4620 C   0  0  0  0  0  0  0  0  0  0  0  0
   35.2300   29.2090   47.8170 N   0  0  0  0  0  0  0  0  0  0  0  0
   34.1040   28.8980   48.4300 C   0  0  0  0  0  0  0  0  0  0  0  0
   33.9210   29.1650   49.7500 N   0  0  0  0  0  0  0  0  0  0  0  0
   34.8150   29.9960   51.5150 H   0  0  0  0  0  0  0  0  0  0  0  0
   32.7800   30.6140   46.3220 Cl  0  0  0  0  0  0  0  0  0  0  0  0
   32.3340   28.9460   46.6720 C   0  0  0  0  0  0  0  0  0  0  0  0
   33.0210   28.2510   47.6750 C   0  0  0  0  0  0  0  0  0  0  0  0
   32.7110   26.9330   47.9930 C   0  0  0  0  0  0  0  0  0  0  0  0
   31.6780   26.3430   47.2600 C   0  0  0  0  0  0  0  0  0  0  0  0
   30.9970   27.0140   46.2740 C   0  0  0  0  0  0  0  0  0  0  0  0
   29.7250   26.1580   45.4320 Cl  0  0  0  0  0  0  0  0  0  0  0  0
   31.3370   28.3250   45.9900 C   0  0  0  0  0  0  0  0  0  0  0  0
   33.2470   26.4090   48.7660 H   0  0  0  0  0  0  0  0  0  0  0  0
   31.4850   25.3140   47.5570 H   0  0  0  0  0  0  0  0  0  0  0  0
   30.6050   29.0580   44.9260 C   0  0  0  0  0  0  0  0  0  0  0  0
   29.5300   28.2900   44.4540 F   0  0  0  0  0  0  0  0  0  0  0  0
   31.4180   29.4390   43.9010 F   0  0  0  0  0  0  0  0  0  0  0  0
   30.0530   30.2040   45.4460 F   0  0  0  0  0  0  0  0  0  0  0  0
   37.1850   30.7620   50.6450 C   0  0  0  0  0  0  0  0  0  0  0  0
   38.4460   30.4930   50.1380 F   0  0  0  0  0  0  0  0  0  0  0  0
   36.9980   32.1310   50.5490 F   0  0  0  0  0  0  0  0  0  0  0  0
   37.1280   30.4290   51.9700 F   0  0  0  0  0  0  0  0  0  0  0  0
   37.5300   30.1640   47.7980 C   0  0  0  0  0  0  0  0  0  0  0  0
   38.2250   29.3070   47.6120 H   0  0  0  0  0  0  0  0  0  0  0  0
   38.1070   30.8210   48.4850 H   0  0  0  0  0  0  0  0  0  0  0  0
   38.1370   31.8640   46.0920 C   0  0  0  0  0  0  0  0  0  0  0  0
   37.3450   30.8010   46.4740 C   0  0  0  0  0  0  0  0  0  0  0  0
   36.3500   30.2860   45.6460 C   0  0  0  0  0  0  0  0  0  0  0  0
   35.7520   29.4460   45.9950 H   0  0  0  0  0  0  0  0  0  0  0  0
   36.1180   30.8240   44.4040 C   0  0  0  0  0  0  0  0  0  0  0  0
   35.3330   30.3840   43.8030 H   0  0  0  0  0  0  0  0  0  0  0  0
   36.8890   31.8910   43.9820 C   0  0  0  0  0  3  0  0  0  0  0  0
   37.8640   32.3730   44.8320 C   0  0  0  0  0  3  0  0  0  0  0  0
   40.3330   31.5770   47.4340 H   0  0  0  0  0  0  0  0  0  0  0  0
   39.3690   32.5190   47.0930 S   0  0  0  0  0  0  0  0  0  0  0  0
   40.1580   33.5260   46.2620 O   0  0  0  0  0  0  0  0  0  0  0  0
   38.9110   33.2760   48.2800 O   0  0  0  0  0  0  0  0  0  0  0  0
  1  7  1  0  0  0  0
  2  1  1  0  0  0  0
  2 22  1  0  0  0  0
  3  2  2  0  0  0  0
  4  5  2  0  0  0  0
  4  3  1  0  0  0  0
  5  6  1  0  0  0  0
  6  1  2  0  0  0  0
  8  9  1  0  0  0  0
  9 10  1  0  0  0  0
 10 11  2  0  0  0  0
 10  5  1  0  0  0  0
 11 16  1  0  0  0  0
 12 17  1  0  0  0  0
 12 11  1  0  0  0  0
 13 12  2  0  0  0  0
 14 13  1  0  0  0  0
 15 13  1  0  0  0  0
 15  9  2  0  0  0  0
 18 21  1  0  0  0  0
 18 15  1  0  0  0  0
 19 18  1  0  0  0  0
 20 18  1  0  0  0  0
 22 25  1  0  0  0  0
 23 22  1  0  0  0  0
 24 22  1  0  0  0  0
 26  3  1  0  0  0  0
 26 28  1  0  0  0  0
 27 26  1  0  0  0  0
 29 30  1  0  0  0  0
 29 38  1  0  0  0  0
 30 26  1  0  0  0  0
 31 32  1  0  0  0  0
 31 30  2  0  0  0  0
 33 31  1  0  0  0  0
 34 33  1  0  0  0  0
 35 33  2  0  0  0  0
 35 36  1  0  0  0  0
 36 29  2  0  0  0  0
 38 37  1  0  0  0  0
 38 40  2  0  0  0  0
 39 38  2  0  0  0  0
M  END
>  <minimizedAffinity>
-6.6055851

>  <minimizedRMSD>
0.743060231

$$$$
