
 OpenBabel03262520343D

 32 33  0  0  0  0  0  0  0  0999 V2000
   30.3670   26.2000   47.4410 O   0  0  0  0  0  0  0  0  0  0  0  0
   30.6130   27.6900   47.6590 P   0  0  2  0  0  0  0  0  0  0  0  0
   31.0810   28.4580   46.2180 O   0  0  0  0  0  0  0  0  0  0  0  0
   30.3460   29.0210   45.8790 H   0  0  0  0  0  0  0  0  0  0  0  0
   31.9240   27.7490   48.7400 O   0  0  0  0  0  0  0  0  0  0  0  0
   33.0790   27.3330   48.0570 C   0  0  0  0  0  0  0  0  0  0  0  0
   33.2490   26.2640   48.3480 H   0  0  0  0  0  0  0  0  0  0  0  0
   32.9950   27.3680   46.9730 H   0  0  0  0  0  0  0  0  0  0  0  0
   34.5510   28.4280   49.7280 C   0  0  0  0  0  3  0  0  0  0  0  0
   34.2710   28.1060   48.5040 C   0  0  0  0  0  3  0  0  0  0  0  0
   37.3210   30.1880   51.3580 C   0  0  0  0  0  0  0  0  0  0  0  0
   38.0770   30.6300   50.2640 C   0  0  0  0  0  0  0  0  0  0  0  0
   37.6200   30.3170   48.9730 C   0  0  0  0  0  0  0  0  0  0  0  0
   36.4580   29.5920   48.8910 N   0  0  0  0  0  0  0  0  0  0  0  0
   35.7720   29.1910   49.9560 C   0  0  0  0  0  0  0  0  0  0  0  0
   36.2120   29.4940   51.1850 N   0  0  0  0  0  0  0  0  0  0  0  0
   37.7450   30.4730   52.3060 H   0  0  0  0  0  0  0  0  0  0  0  0
   38.9880   31.1970   50.2630 H   0  0  0  0  0  0  0  0  0  0  0  0
   38.0970   30.5900   48.0410 H   0  0  0  0  0  0  0  0  0  0  0  0
   29.2420   28.4320   48.3060 O   0  0  0  0  0  0  0  0  0  0  0  0
   27.2010   28.4060   49.3760 C   0  0  0  0  0  0  0  0  0  0  0  0
   28.5540   28.0530   49.4370 C   0  0  0  0  0  0  0  0  0  0  0  0
   29.0670   27.4020   50.5360 C   0  0  0  0  0  0  0  0  0  0  0  0
   30.1140   27.1630   50.5090 H   0  0  0  0  0  0  0  0  0  0  0  0
   28.2350   27.0960   51.5850 C   0  0  0  0  0  0  0  0  0  0  0  0
   28.6330   26.5840   52.4520 H   0  0  0  0  0  0  0  0  0  0  0  0
   26.9200   27.4410   51.5230 C   0  0  0  0  0  3  0  0  0  0  0  0
   26.3530   28.0940   50.4460 C   0  0  0  0  0  3  0  0  0  0  0  0
   25.1380   29.5150   48.2480 H   0  0  0  0  0  0  0  0  0  0  0  0
   26.4620   29.2360   48.0190 S   0  0  0  0  0  0  0  0  0  0  0  0
   27.1720   30.5170   47.7270 O   0  0  0  0  0  0  0  0  0  0  0  0
   26.5140   28.3150   46.8080 O   0  0  0  0  0  0  0  0  0  0  0  0
  2  1  2  6  0  0  0
  2 20  1  0  0  0  0
  2  5  1  0  0  0  0
  3  2  1  0  0  0  0
  4  3  1  0  0  0  0
  6  7  1  0  0  0  0
  6 10  1  0  0  0  0
  6  5  1  0  0  0  0
  8  6  1  0  0  0  0
  9 15  1  0  0  0  0
 10  9  2  0  0  0  0
 11 17  1  0  0  0  0
 12 11  2  0  0  0  0
 13 12  1  0  0  0  0
 14 13  2  0  0  0  0
 14 15  1  0  0  0  0
 15 16  2  0  0  0  0
 16 11  1  0  0  0  0
 18 12  1  0  0  0  0
 19 13  1  0  0  0  0
 20 22  1  0  0  0  0
 21 22  2  0  0  0  0
 21 28  1  0  0  0  0
 22 23  1  0  0  0  0
 23 25  2  0  0  0  0
 24 23  1  0  0  0  0
 25 26  1  0  0  0  0
 27 25  1  0  0  0  0
 28 27  2  0  0  0  0
 30 29  1  0  0  0  0
 30 21  1  0  0  0  0
 31 30  2  0  0  0  0
 32 30  2  0  0  0  0
M  END
>  <minimizedAffinity>
-6.2666316

>  <minimizedRMSD>
1.44253922

$$$$
