
 OpenBabel03272507243D

 33 35  0  0  1  0  0  0  0  0999 V2000
   36.7510   31.1510   48.8500 C   0  0  0  0  0  0  0  0  0  0  0  0
   36.5870   30.7510   47.5050 C   0  0  0  0  0  0  0  0  0  0  0  0
   35.4080   30.1000   47.1670 C   0  0  0  0  0  0  0  0  0  0  0  0
   34.5200   29.9060   48.1530 N   0  0  0  0  0  0  0  0  0  0  0  0
   34.6700   30.2850   49.4370 C   0  0  0  0  0  0  0  0  0  0  0  0
   35.8100   30.9160   49.7730 N   0  0  0  0  0  0  0  0  0  0  0  0
   35.1370   29.6580   45.8610 N   0  0  0  0  0  0  0  0  0  0  0  0
   35.6720   30.3010   44.6570 C   0  0  0  0  0  0  0  0  0  0  0  0
   35.0680   29.5560   43.5000 C   0  0  0  0  0  0  0  0  0  0  0  0
   33.8060   29.0340   44.1120 C   0  0  0  0  0  0  0  0  0  0  0  0
   34.3490   28.5670   45.4470 C   0  0  2  0  0  0  0  0  0  0  0  0
   37.6800   31.6550   49.0830 H   0  0  0  0  0  0  0  0  0  0  0  0
   37.3460   30.9390   46.7560 H   0  0  0  0  0  0  0  0  0  0  0  0
   33.8690   30.0630   50.1320 H   0  0  0  0  0  0  0  0  0  0  0  0
   36.7640   30.3370   44.6500 H   0  0  0  0  0  0  0  0  0  0  0  0
   35.2970   31.3500   44.6330 H   0  0  0  0  0  0  0  0  0  0  0  0
   34.7810   30.2380   42.6670 H   0  0  0  0  0  0  0  0  0  0  0  0
   35.7000   28.7620   43.0860 H   0  0  0  0  0  0  0  0  0  0  0  0
   33.0260   29.7900   44.2040 H   0  0  0  0  0  0  0  0  0  0  0  0
   33.4270   28.1280   43.5650 H   0  0  0  0  0  0  0  0  0  0  0  0
   35.0450   27.7160   45.2410 H   0  0  0  0  0  0  0  0  0  0  0  0
   32.0550   28.7970   46.4200 C   0  0  0  0  0  0  0  0  0  0  0  0
   33.2600   28.1240   46.3350 C   0  0  0  0  0  0  0  0  0  0  0  0
   33.3200   27.0450   47.1850 C   0  0  0  0  0  0  0  0  0  0  0  0
   34.2240   26.4410   47.2250 H   0  0  0  0  0  0  0  0  0  0  0  0
   32.3340   26.6320   48.0400 C   0  0  0  0  0  0  0  0  0  0  0  0
   32.4450   25.7660   48.6890 H   0  0  0  0  0  0  0  0  0  0  0  0
   31.1530   27.3520   48.0720 C   0  0  0  0  0  3  0  0  0  0  0  0
   31.0260   28.4420   47.2500 C   0  0  0  0  0  3  0  0  0  0  0  0
   32.5700   30.0930   44.2260 H   0  0  0  0  0  0  0  0  0  0  0  0
   31.8220   30.2140   45.3860 S   0  0  0  0  0  0  0  0  0  0  0  0
   30.3480   30.2430   45.0490 O   0  0  0  0  0  0  0  0  0  0  0  0
   32.2530   31.4530   46.0740 O   0  0  0  0  0  0  0  0  0  0  0  0
  1 12  1  0  0  0  0
  1  6  1  0  0  0  0
  2  1  2  0  0  0  0
  3  2  1  0  0  0  0
  3  4  2  0  0  0  0
  4  5  1  0  0  0  0
  5  6  2  0  0  0  0
  5 14  1  0  0  0  0
  7  3  1  0  0  0  0
  8  7  1  0  0  0  0
  9 10  1  0  0  0  0
  9  8  1  0  0  0  0
 10 19  1  0  0  0  0
 10 11  1  0  0  0  0
 11 21  1  6  0  0  0
 11  7  1  0  0  0  0
 11 23  1  0  0  0  0
 13  2  1  0  0  0  0
 15  8  1  0  0  0  0
 16  8  1  0  0  0  0
 17  9  1  0  0  0  0
 18  9  1  0  0  0  0
 20 10  1  0  0  0  0
 22 29  1  0  0  0  0
 23 22  2  0  0  0  0
 23 24  1  0  0  0  0
 24 25  1  0  0  0  0
 24 26  2  0  0  0  0
 26 28  1  0  0  0  0
 26 27  1  0  0  0  0
 29 28  2  0  0  0  0
 30 31  1  0  0  0  0
 31 33  2  0  0  0  0
 31 22  1  0  0  0  0
 32 31  2  0  0  0  0
M  END
>  <minimizedAffinity>
-4.16741467

>  <minimizedRMSD>
4.29779816

$$$$
