
 OpenBabel03272510023D

 24 25  0  0  0  0  0  0  0  0999 V2000
   38.1320   31.3100   49.9030 C   0  0  0  0  0  0  0  0  0  0  0  0
   38.1590   31.3850   48.4920 C   0  0  0  0  0  0  0  0  0  0  0  0
   37.1490   30.7620   47.7790 C   0  0  0  0  0  0  0  0  0  0  0  0
   36.2060   30.1210   48.5090 N   0  0  0  0  0  0  0  0  0  0  0  0
   36.1900   30.0560   49.8410 C   0  0  0  0  0  0  0  0  0  0  0  0
   37.1550   30.6520   50.5310 N   0  0  0  0  0  0  0  0  0  0  0  0
   38.8740   31.7640   50.5140 H   0  0  0  0  0  0  0  0  0  0  0  0
   38.9560   31.9210   48.0070 H   0  0  0  0  0  0  0  0  0  0  0  0
   38.1530   31.2410   45.5890 C   0  0  0  0  0  0  0  0  0  0  0  0
   37.0920   30.7850   46.3250 C   0  0  0  0  0  0  0  0  0  0  0  0
   35.9950   30.3610   45.6230 C   0  0  0  0  0  0  0  0  0  0  0  0
   35.1080   29.9840   46.1120 H   0  0  0  0  0  0  0  0  0  0  0  0
   35.8900   30.3630   44.2480 C   0  0  0  0  0  0  0  0  0  0  0  0
   35.0200   30.0260   43.7100 H   0  0  0  0  0  0  0  0  0  0  0  0
   36.9560   30.8200   43.5000 C   0  0  0  0  0  3  0  0  0  0  0  0
   38.0650   31.2490   44.1960 C   0  0  0  0  0  3  0  0  0  0  0  0
   39.6500   31.6320   47.6760 H   0  0  0  0  0  0  0  0  0  0  0  0
   39.6270   31.8170   46.3310 S   0  0  0  0  0  0  0  0  0  0  0  0
   39.8950   33.2630   45.9360 O   0  0  0  0  0  0  0  0  0  0  0  0
   40.8090   31.0500   45.7840 O   0  0  0  0  0  0  0  0  0  0  0  0
   35.0810   29.3130   50.4820 C   0  0  0  0  0  0  0  0  0  0  0  0
   35.2940   29.1160   51.8440 F   0  0  0  0  0  0  0  0  0  0  0  0
   33.8730   30.0250   50.3960 F   0  0  0  0  0  0  0  0  0  0  0  0
   34.8280   28.0870   49.9470 F   0  0  0  0  0  0  0  0  0  0  0  0
  1  7  1  0  0  0  0
  1  6  1  0  0  0  0
  2  1  2  0  0  0  0
  3  2  1  0  0  0  0
  3  4  2  0  0  0  0
  4  5  1  0  0  0  0
  5 21  1  0  0  0  0
  5  6  2  0  0  0  0
  8  2  1  0  0  0  0
  9 10  1  0  0  0  0
  9 18  1  0  0  0  0
 10  3  1  0  0  0  0
 11 12  1  0  0  0  0
 11 10  2  0  0  0  0
 13 11  1  0  0  0  0
 14 13  1  0  0  0  0
 15 16  1  0  0  0  0
 15 13  2  0  0  0  0
 16  9  2  0  0  0  0
 18 17  1  0  0  0  0
 19 18  2  0  0  0  0
 20 18  2  0  0  0  0
 21 22  1  0  0  0  0
 23 21  1  0  0  0  0
 24 21  1  0  0  0  0
M  END
>  <minimizedAffinity>
-5.74592924

>  <minimizedRMSD>
1.03369844

$$$$
