
 OpenBabel03262520193D

 24 25  0  0  0  0  0  0  0  0999 V2000
   37.7640   29.7230   50.3020 C   0  0  0  0  0  0  0  0  0  0  0  0
   38.3790   31.0080   50.2530 C   0  0  0  0  0  0  0  0  0  0  0  0
   38.0000   31.8660   49.2230 C   0  0  0  0  0  0  0  0  0  0  0  0
   37.0710   31.4310   48.3330 N   0  0  0  0  0  0  0  0  0  0  0  0
   36.5040   30.2230   48.3950 C   0  0  0  0  0  0  0  0  0  0  0  0
   36.8560   29.3890   49.3730 N   0  0  0  0  0  0  0  0  0  0  0  0
   38.0870   29.0910   51.1170 H   0  0  0  0  0  0  0  0  0  0  0  0
   39.1050   31.2780   50.9930 H   0  0  0  0  0  0  0  0  0  0  0  0
   34.3380   29.2270   47.6280 C   0  0  0  0  0  0  0  0  0  0  0  0
   35.5210   29.8890   47.3710 C   0  0  0  0  0  0  0  0  0  0  0  0
   35.7790   30.2500   46.0660 C   0  0  0  0  0  0  0  0  0  0  0  0
   36.7000   30.7790   45.7840 H   0  0  0  0  0  0  0  0  0  0  0  0
   34.8860   29.9630   45.0390 C   0  0  0  0  0  0  0  0  0  0  0  0
   35.0480   30.2270   44.0100 H   0  0  0  0  0  0  0  0  0  0  0  0
   33.7010   29.3030   45.2870 C   0  0  0  0  0  0  0  0  0  0  0  0
   33.4490   28.9400   46.6120 C   0  0  0  0  0  0  0  0  0  0  0  0
   34.9220   27.9220   49.8070 H   0  0  0  0  0  0  0  0  0  0  0  0
   33.9770   28.7520   49.2730 S   0  0  0  0  0  0  0  0  0  0  0  0
   33.8080   29.9960   50.1360 O   0  0  0  0  0  0  0  0  0  0  0  0
   32.6490   28.0550   49.3060 O   0  0  0  0  0  0  0  0  0  0  0  0
   38.6290   33.2200   49.1460 C   0  0  0  0  0  0  0  0  0  0  0  0
   39.4340   33.3140   50.2460 F   0  0  0  0  0  0  0  0  0  0  0  0
   39.4220   33.3750   48.0270 F   0  0  0  0  0  0  0  0  0  0  0  0
   37.6960   34.2390   49.1840 F   0  0  0  0  0  0  0  0  0  0  0  0
  1  7  1  0  0  0  0
  2  1  1  0  0  0  0
  2  8  1  0  0  0  0
  3  2  2  0  0  0  0
  4  5  2  0  0  0  0
  4  3  1  0  0  0  0
  5  6  1  0  0  0  0
  6  1  2  0  0  0  0
  9 18  1  0  0  0  0
 10  9  1  0  0  0  0
 10  5  1  0  0  0  0
 11 10  2  0  0  0  0
 12 11  1  0  0  0  0
 13 15  2  0  0  0  0
 13 11  1  0  0  0  0
 14 13  1  0  0  0  0
 15 16  1  0  0  0  0
 16  9  2  0  0  0  0
 18 20  2  0  0  0  0
 18 17  1  0  0  0  0
 18 19  2  0  0  0  0
 21 24  1  0  0  0  0
 21  3  1  0  0  0  0
 21 22  1  0  0  0  0
 23 21  1  0  0  0  0
M  END
>  <minimizedAffinity>
-5.50560236

>  <minimizedRMSD>
2.3907752

$$$$
