
 OpenBabel03272509573D

 49 52  0  0  0  0  0  0  0  0999 V2000
   33.6240   27.4230   47.8140 C   0  0  0  0  0  0  0  0  0  0  0  0
   33.7570   26.5270   48.4360 H   0  0  0  0  0  0  0  0  0  0  0  0
   33.9300   27.1200   46.7860 H   0  0  0  0  0  0  0  0  0  0  0  0
   32.1860   27.8300   47.7900 C   0  0  0  0  0  0  0  0  0  0  0  0
   31.3960   27.4280   48.8490 C   0  0  0  0  0  0  0  0  0  0  0  0
   30.0670   27.7600   48.9020 C   0  0  0  0  0  0  0  0  0  0  0  0
   29.5280   28.4730   47.9270 N   0  0  0  0  0  0  0  0  0  0  0  0
   30.3100   28.8720   46.8790 C   0  0  0  0  0  0  0  0  0  0  0  0
   31.6090   28.5510   46.8220 N   0  0  0  0  0  0  0  0  0  0  0  0
   31.8180   26.8510   49.6440 H   0  0  0  0  0  0  0  0  0  0  0  0
   29.4290   27.4500   49.7320 H   0  0  0  0  0  0  0  0  0  0  0  0
   29.6670   29.6760   45.8100 C   0  0  0  0  0  0  0  0  0  0  0  0
   29.4370   30.6810   46.2710 H   0  0  0  0  0  0  0  0  0  0  0  0
   30.4420   29.9340   45.0340 H   0  0  0  0  0  0  0  0  0  0  0  0
   27.2410   29.7350   45.1440 C   0  0  0  0  0  0  0  0  0  0  0  0
   28.4470   29.0810   45.2480 C   0  0  0  0  0  0  0  0  0  0  0  0
   28.5130   27.7620   44.7820 C   0  0  0  0  0  0  0  0  0  0  0  0
   29.4530   27.2340   44.8570 H   0  0  0  0  0  0  0  0  0  0  0  0
   27.4400   27.0940   44.2300 C   0  0  0  0  0  0  0  0  0  0  0  0
   27.5500   26.0660   43.8840 H   0  0  0  0  0  0  0  0  0  0  0  0
   26.2260   27.7350   44.1180 C   0  0  0  0  0  3  0  0  0  0  0  0
   26.1660   29.0370   44.5790 C   0  0  0  0  0  3  0  0  0  0  0  0
   28.2330   32.0950   45.5570 H   0  0  0  0  0  0  0  0  0  0  0  0
   27.0640   31.3690   45.6960 S   0  0  0  0  0  0  0  0  0  0  0  0
   26.4410   31.5040   47.0360 O   0  0  0  0  0  0  0  0  0  0  0  0
   26.0960   32.0440   44.7260 O   0  0  0  0  0  0  0  0  0  0  0  0
   34.5300   28.5550   48.2330 C   0  0  0  0  0  0  0  0  0  0  0  0
   35.3510   28.7290   47.5360 H   0  0  0  0  0  0  0  0  0  0  0  0
   33.9230   29.4860   48.2820 H   0  0  0  0  0  0  0  0  0  0  0  0
   35.0150   28.3520   49.5530 O   0  0  0  0  0  0  0  0  0  0  0  0
   37.3710   30.1910   51.5720 C   0  0  0  0  0  0  0  0  0  0  0  0
   38.0830   30.8780   50.5640 C   0  0  0  0  0  0  0  0  0  0  0  0
   37.7010   30.6600   49.2470 C   0  0  0  0  0  0  0  0  0  0  0  0
   36.6600   29.7910   49.0460 N   0  0  0  0  0  0  0  0  0  0  0  0
   36.0010   29.1530   50.0160 C   0  0  0  0  0  0  0  0  0  0  0  0
   36.3700   29.3630   51.2880 N   0  0  0  0  0  0  0  0  0  0  0  0
   37.6860   30.3770   52.5890 H   0  0  0  0  0  0  0  0  0  0  0  0
   38.9030   31.5610   50.7390 H   0  0  0  0  0  0  0  0  0  0  0  0
   38.9620   33.2660   49.0430 F   0  0  0  0  0  0  0  0  0  0  0  0
   38.9040   32.4810   47.9730 C   0  0  0  0  0  0  0  0  0  0  0  0
   38.3160   31.2760   48.0890 C   0  0  0  0  0  0  0  0  0  0  0  0
   38.3060   30.5250   46.9040 C   0  0  0  0  0  0  0  0  0  0  0  0
   38.8560   30.9970   45.7370 C   0  0  0  0  0  0  0  0  0  0  0  0
   39.4450   32.2270   45.6610 C   0  0  0  0  0  0  0  0  0  0  0  0
   39.4520   32.9510   46.8070 C   0  0  0  0  0  0  0  0  0  0  0  0
   37.8500   29.5310   46.8940 H   0  0  0  0  0  0  0  0  0  0  0  0
   38.8110   30.3560   44.8540 H   0  0  0  0  0  0  0  0  0  0  0  0
   39.8600   32.5450   44.7170 H   0  0  0  0  0  0  0  0  0  0  0  0
   39.9190   33.9480   46.7830 H   0  0  0  0  0  0  0  0  0  0  0  0
  1 27  1  0  0  0  0
  1  2  1  0  0  0  0
  3  1  1  0  0  0  0
  4  1  1  0  0  0  0
  4  5  1  0  0  0  0
  5  6  2  0  0  0  0
  5 10  1  0  0  0  0
  6 11  1  0  0  0  0
  7  6  1  0  0  0  0
  8  7  2  0  0  0  0
  9  8  1  0  0  0  0
  9  4  2  0  0  0  0
 12 13  1  0  0  0  0
 12  8  1  0  0  0  0
 14 12  1  0  0  0  0
 15 16  1  0  0  0  0
 15 24  1  0  0  0  0
 16 12  1  0  0  0  0
 17 18  1  0  0  0  0
 17 16  2  0  0  0  0
 19 17  1  0  0  0  0
 20 19  1  0  0  0  0
 21 19  2  0  0  0  0
 21 22  1  0  0  0  0
 22 15  2  0  0  0  0
 23 24  1  0  0  0  0
 24 25  2  0  0  0  0
 26 24  2  0  0  0  0
 27 29  1  0  0  0  0
 27 30  1  0  0  0  0
 28 27  1  0  0  0  0
 30 35  1  0  0  0  0
 31 37  1  0  0  0  0
 32 38  1  0  0  0  0
 32 31  2  0  0  0  0
 33 32  1  0  0  0  0
 34 33  2  0  0  0  0
 34 35  1  0  0  0  0
 35 36  2  0  0  0  0
 36 31  1  0  0  0  0
 40 41  1  0  0  0  0
 40 39  1  0  0  0  0
 41 33  1  0  0  0  0
 42 41  2  0  0  0  0
 43 42  1  0  0  0  0
 44 43  2  0  0  0  0
 44 45  1  0  0  0  0
 45 40  2  0  0  0  0
 46 42  1  0  0  0  0
 47 43  1  0  0  0  0
 48 44  1  0  0  0  0
 49 45  1  0  0  0  0
M  END
>  <minimizedAffinity>
-6.92741203

>  <minimizedRMSD>
0.864673316

$$$$
