
 OpenBabel03272505033D

 32 34  0  0  0  0  0  0  0  0999 V2000
   37.0800   30.8600   46.4230 Cl  0  0  0  0  0  0  0  0  0  0  0  0
   38.0570   31.9800   47.3720 C   0  0  0  0  0  0  0  0  0  0  0  0
   37.9830   31.9030   48.7300 C   0  0  0  0  0  0  0  0  0  0  0  0
   38.7630   32.8280   49.4070 C   0  0  0  0  0  0  0  0  0  0  0  0
   39.5450   33.7430   48.7250 C   0  0  0  0  0  0  0  0  0  0  0  0
   39.5750   33.7660   47.3540 C   0  0  0  0  0  0  0  0  0  0  0  0
   38.8050   32.8530   46.6480 C   0  0  0  0  0  0  0  0  0  0  0  0
   38.7610   32.8360   50.4910 H   0  0  0  0  0  0  0  0  0  0  0  0
   40.1320   34.4380   49.3170 H   0  0  0  0  0  0  0  0  0  0  0  0
   40.1960   34.4940   46.8470 H   0  0  0  0  0  0  0  0  0  0  0  0
   37.7700   29.9060   50.2040 C   0  0  0  0  0  0  0  0  0  0  0  0
   37.1610   30.9400   49.4730 C   0  0  0  0  0  0  0  0  0  0  0  0
   35.7690   31.0560   49.4520 C   0  0  0  0  0  0  0  0  0  0  0  0
   35.0810   30.1190   50.1690 N   0  0  0  0  0  0  0  0  0  0  0  0
   35.6540   29.1420   50.8600 C   0  0  0  0  0  0  0  0  0  0  0  0
   36.9920   29.0310   50.8800 N   0  0  0  0  0  0  0  0  0  0  0  0
   38.8520   29.8930   50.1640 H   0  0  0  0  0  0  0  0  0  0  0  0
   35.3070   31.8490   48.8910 H   0  0  0  0  0  0  0  0  0  0  0  0
   35.0750   28.4160   51.4180 H   0  0  0  0  0  0  0  0  0  0  0  0
   38.8570   32.9040   45.2770 O   0  0  0  0  0  0  0  0  0  0  0  0
   38.6110   31.6960   43.3770 C   0  0  0  0  0  0  0  0  0  0  0  0
   39.4350   31.9440   44.4820 C   0  0  0  0  0  0  0  0  0  0  0  0
   40.6010   31.2230   44.5660 C   0  0  0  0  0  0  0  0  0  0  0  0
   41.1770   31.4830   45.4390 H   0  0  0  0  0  0  0  0  0  0  0  0
   40.9390   30.2980   43.6010 C   0  0  0  0  0  0  0  0  0  0  0  0
   41.8690   29.7820   43.7520 H   0  0  0  0  0  0  0  0  0  0  0  0
   40.1340   30.0520   42.5180 C   0  0  0  0  0  3  0  0  0  0  0  0
   38.9600   30.7600   42.4080 C   0  0  0  0  0  3  0  0  0  0  0  0
   36.7630   33.3450   44.0350 H   0  0  0  0  0  0  0  0  0  0  0  0
   37.0720   32.4790   43.0330 S   0  0  0  0  0  0  0  0  0  0  0  0
   35.9550   31.4800   42.9330 O   0  0  0  0  0  0  0  0  0  0  0  0
   37.1870   33.2020   41.7290 O   0  0  0  0  0  0  0  0  0  0  0  0
  1  2  1  0  0  0  0
  2  3  1  0  0  0  0
  3  4  2  0  0  0  0
  3 12  1  0  0  0  0
  4  8  1  0  0  0  0
  5  9  1  0  0  0  0
  5  4  1  0  0  0  0
  6  5  2  0  0  0  0
  7  6  1  0  0  0  0
  7  2  2  0  0  0  0
 10  6  1  0  0  0  0
 11 16  1  0  0  0  0
 12 11  2  0  0  0  0
 13 12  1  0  0  0  0
 13 14  2  0  0  0  0
 14 15  1  0  0  0  0
 15 16  2  0  0  0  0
 15 19  1  0  0  0  0
 17 11  1  0  0  0  0
 18 13  1  0  0  0  0
 20  7  1  0  0  0  0
 21 22  1  0  0  0  0
 22 23  2  0  0  0  0
 22 20  1  0  0  0  0
 23 24  1  0  0  0  0
 25 26  1  0  0  0  0
 25 23  1  0  0  0  0
 27 25  2  0  0  0  0
 28 27  1  0  0  0  0
 28 21  2  0  0  0  0
 30 21  1  0  0  0  0
 30 29  1  0  0  0  0
 31 30  2  0  0  0  0
 32 30  2  0  0  0  0
M  END
>  <minimizedAffinity>
-5.28913927

>  <minimizedRMSD>
1.83976376

$$$$
