
 OpenBabel03262520463D

 37 39  0  0  1  0  0  0  0  0999 V2000
   38.6390   32.2240   46.7840 C   0  0  1  0  0  0  0  0  0  0  0  0
   39.8400   32.9990   46.2240 C   0  0  0  0  0  0  0  0  0  0  0  0
   39.8770   31.5400   46.3700 C   0  0  2  0  0  0  0  0  0  0  0  0
   37.7670   32.2070   46.1220 H   0  0  0  0  0  0  0  0  0  0  0  0
   39.7150   33.4790   45.2390 H   0  0  0  0  0  0  0  0  0  0  0  0
   40.4280   33.6300   46.9280 H   0  0  0  0  0  0  0  0  0  0  0  0
   40.5050   31.1620   47.2280 H   0  0  0  0  0  0  0  0  0  0  0  0
   38.3650   32.5030   48.2450 C   0  0  0  0  0  0  0  0  0  0  0  0
   39.3270   32.7500   48.7410 H   0  0  0  0  0  0  0  0  0  0  0  0
   37.7050   33.4030   48.2780 H   0  0  0  0  0  0  0  0  0  0  0  0
   37.4890   29.9970   50.8850 C   0  0  0  0  0  0  0  0  0  0  0  0
   38.0910   31.1010   50.2120 C   0  0  0  0  0  0  0  0  0  0  0  0
   37.7170   31.3480   48.9100 C   0  0  0  0  0  0  0  0  0  0  0  0
   36.8040   30.5480   48.3200 N   0  0  0  0  0  0  0  0  0  0  0  0
   36.2450   29.5080   48.9700 C   0  0  0  0  0  0  0  0  0  0  0  0
   36.5890   29.2410   50.2440 N   0  0  0  0  0  0  0  0  0  0  0  0
   37.8080   29.8410   51.8930 H   0  0  0  0  0  0  0  0  0  0  0  0
   38.8230   31.7250   50.7130 H   0  0  0  0  0  0  0  0  0  0  0  0
   35.5140   28.8770   48.4800 H   0  0  0  0  0  0  0  0  0  0  0  0
   39.7380   30.5930   45.2070 C   0  0  0  0  0  0  0  0  0  0  0  0
   40.1800   29.6020   45.5030 H   0  0  0  0  0  0  0  0  0  0  0  0
   38.6840   30.3760   45.0020 H   0  0  0  0  0  0  0  0  0  0  0  0
   40.5050   31.0170   43.9870 C   0  0  0  0  0  0  0  0  0  0  0  0
   41.5490   30.6070   44.1470 H   0  0  0  0  0  0  0  0  0  0  0  0
   40.6730   32.1090   43.9280 H   0  0  0  0  0  0  0  0  0  0  0  0
   39.0750   30.9710   41.9220 C   0  0  0  0  0  0  0  0  0  0  0  0
   40.0150   30.3830   42.7610 C   0  0  0  0  0  0  0  0  0  0  0  0
   40.4430   29.1360   42.3240 C   0  0  0  0  0  0  0  0  0  0  0  0
   41.1880   28.6580   42.9800 H   0  0  0  0  0  0  0  0  0  0  0  0
   40.0630   28.4390   41.1990 C   0  0  0  0  0  0  0  0  0  0  0  0
   40.4960   27.4780   41.0080 H   0  0  0  0  0  0  0  0  0  0  0  0
   39.1250   29.0800   40.4060 C   0  0  0  0  0  3  0  0  0  0  0  0
   38.6300   30.3350   40.7570 C   0  0  0  0  0  3  0  0  0  0  0  0
   37.6250   32.8730   41.1870 H   0  0  0  0  0  0  0  0  0  0  0  0
   38.4120   32.5170   42.2830 S   0  0  0  0  0  0  0  0  0  0  0  0
   37.4090   32.4840   43.4290 O   0  0  0  0  0  0  0  0  0  0  0  0
   39.3770   33.6250   42.4280 O   0  0  0  0  0  0  0  0  0  0  0  0
  1  4  1  6  0  0  0
  1  8  1  0  0  0  0
  2  3  1  0  0  0  0
  2  1  1  0  0  0  0
  2  6  1  0  0  0  0
  3  1  1  0  0  0  0
  3  7  1  1  0  0  0
  5  2  1  0  0  0  0
  8 10  1  0  0  0  0
  8  9  1  0  0  0  0
  8 13  1  0  0  0  0
 11 17  1  0  0  0  0
 12 18  1  0  0  0  0
 12 11  2  0  0  0  0
 13 12  1  0  0  0  0
 14 13  2  0  0  0  0
 14 15  1  0  0  0  0
 15 16  2  0  0  0  0
 16 11  1  0  0  0  0
 19 15  1  0  0  0  0
 20 21  1  0  0  0  0
 20  3  1  0  0  0  0
 22 20  1  0  0  0  0
 23 24  1  0  0  0  0
 23 20  1  0  0  0  0
 25 23  1  0  0  0  0
 26 35  1  0  0  0  0
 26 27  1  0  0  0  0
 27 23  1  0  0  0  0
 28 27  2  0  0  0  0
 28 29  1  0  0  0  0
 30 28  1  0  0  0  0
 31 30  1  0  0  0  0
 32 33  1  0  0  0  0
 32 30  2  0  0  0  0
 33 26  2  0  0  0  0
 34 35  1  0  0  0  0
 35 37  2  0  0  0  0
 35 36  2  0  0  0  0
M  END
>  <minimizedAffinity>
-5.12503242

>  <minimizedRMSD>
1.51941466

$$$$
