
 OpenBabel03272504083D

 36 38  0  0  0  0  0  0  0  0999 V2000
   37.8520   30.3150   50.0680 C   0  0  0  0  0  0  0  0  0  0  0  0
   37.2880   30.6060   48.8400 C   0  0  0  0  0  0  0  0  0  0  0  0
   35.9110   30.3380   48.6120 C   0  0  0  0  0  0  0  0  0  0  0  0
   35.2200   29.8030   49.6350 N   0  0  0  0  0  0  0  0  0  0  0  0
   35.8020   29.5260   50.8420 C   0  0  0  0  0  0  0  0  0  0  0  0
   37.1040   29.7840   51.0410 N   0  0  0  0  0  0  0  0  0  0  0  0
   34.9790   28.9630   51.8650 N   0  0  0  0  0  0  0  0  0  0  0  0
   38.9230   30.5350   50.2170 H   0  0  0  0  0  0  0  0  0  0  0  0
   34.6180   28.0030   51.9230 H   0  0  0  0  0  0  0  0  0  0  0  0
   34.8300   29.7650   52.5420 H   0  0  0  0  0  0  0  0  0  0  0  0
   38.2960   33.4690   49.0810 Cl  0  0  0  0  0  0  0  0  0  0  0  0
   38.6980   32.4540   47.7270 C   0  0  0  0  0  0  0  0  0  0  0  0
   38.1590   31.1980   47.8020 C   0  0  0  0  0  0  0  0  0  0  0  0
   38.4400   30.3080   46.7570 C   0  0  0  0  0  0  0  0  0  0  0  0
   39.2090   30.6420   45.6980 C   0  0  0  0  0  0  0  0  0  0  0  0
   39.7450   31.9240   45.6430 C   0  0  0  0  0  0  0  0  0  0  0  0
   40.7450   32.4140   44.3020 Cl  0  0  0  0  0  0  0  0  0  0  0  0
   39.4850   32.7970   46.6420 C   0  0  0  0  0  0  0  0  0  0  0  0
   38.0870   29.2860   46.7090 H   0  0  0  0  0  0  0  0  0  0  0  0
   39.4590   29.9910   44.8610 H   0  0  0  0  0  0  0  0  0  0  0  0
   39.8780   33.8270   46.6580 H   0  0  0  0  0  0  0  0  0  0  0  0
   35.3380   30.6730   47.3120 C   0  0  0  0  0  0  0  0  0  0  0  0
   34.5290   31.4140   47.4630 H   0  0  0  0  0  0  0  0  0  0  0  0
   36.1140   31.2180   46.7100 H   0  0  0  0  0  0  0  0  0  0  0  0
   34.8950   29.3230   45.1840 C   0  0  0  0  0  0  0  0  0  0  0  0
   34.8110   29.5140   46.5490 C   0  0  0  0  0  0  0  0  0  0  0  0
   34.1890   28.4910   47.2580 C   0  0  0  0  0  0  0  0  0  0  0  0
   34.1030   28.6040   48.3500 H   0  0  0  0  0  0  0  0  0  0  0  0
   33.6680   27.3370   46.7230 C   0  0  0  0  0  0  0  0  0  0  0  0
   33.2000   26.6010   47.3970 H   0  0  0  0  0  0  0  0  0  0  0  0
   33.7640   27.1650   45.3500 C   0  0  0  0  0  0  0  0  0  0  0  0
   34.3800   28.1750   44.6310 C   0  0  0  0  0  0  0  0  0  0  0  0
   36.3620   31.3890   45.0170 H   0  0  0  0  0  0  0  0  0  0  0  0
   35.6310   30.5640   44.2220 S   0  0  0  0  0  0  0  0  0  0  0  0
   36.6110   29.9190   43.2430 O   0  0  0  0  0  0  0  0  0  0  0  0
   34.6450   31.2900   43.3510 O   0  0  0  0  0  0  0  0  0  0  0  0
  1  8  1  0  0  0  0
  1  6  1  0  0  0  0
  2  1  2  0  0  0  0
  3  2  1  0  0  0  0
  3  4  2  0  0  0  0
  4  5  1  0  0  0  0
  5  6  2  0  0  0  0
  5  7  1  0  0  0  0
  7  9  1  0  0  0  0
  7 10  1  0  0  0  0
 12 13  1  0  0  0  0
 12 11  1  0  0  0  0
 13  2  1  0  0  0  0
 14 13  2  0  0  0  0
 15 14  1  0  0  0  0
 16 15  2  0  0  0  0
 16 18  1  0  0  0  0
 17 16  1  0  0  0  0
 18 21  1  0  0  0  0
 18 12  2  0  0  0  0
 19 14  1  0  0  0  0
 20 15  1  0  0  0  0
 22 23  1  0  0  0  0
 22  3  1  0  0  0  0
 24 22  1  0  0  0  0
 25 26  1  0  0  0  0
 26 27  2  0  0  0  0
 26 22  1  0  0  0  0
 27 28  1  0  0  0  0
 29 27  1  0  0  0  0
 29 30  1  0  0  0  0
 31 29  2  0  0  0  0
 32 25  2  0  0  0  0
 32 31  1  0  0  0  0
 34 33  1  0  0  0  0
 34 25  1  0  0  0  0
 35 34  2  0  0  0  0
 36 34  2  0  0  0  0
M  END
>  <minimizedAffinity>
-5.69805574

>  <minimizedRMSD>
1.81112528

$$$$
