
 OpenBabel03272507173D

 29 31  0  0  1  0  0  0  0  0999 V2000
   38.0230   22.0340   34.6620 C   0  0  1  0  0  0  0  0  0  0  0  0
   38.1390   22.9940   33.5500 C   0  0  2  0  0  0  0  0  0  0  0  0
   39.1940   21.9060   33.6850 C   0  0  0  0  0  0  0  0  0  0  0  0
   37.3110   21.1810   34.6690 H   0  0  0  0  0  0  0  0  0  0  0  0
   37.3540   22.8470   32.7630 H   0  0  0  0  0  0  0  0  0  0  0  0
   39.0960   21.0970   32.9490 H   0  0  0  0  0  0  0  0  0  0  0  0
   40.1910   22.2060   34.0220 H   0  0  0  0  0  0  0  0  0  0  0  0
   38.4570   22.4290   36.0440 C   0  0  0  0  0  0  0  0  0  0  0  0
   37.4590   22.9760   36.8500 C   0  0  0  0  0  0  0  0  0  0  0  0
   37.8660   23.3750   38.1350 C   0  0  0  0  0  0  0  0  0  0  0  0
   39.1840   23.2080   38.5100 N   0  0  0  0  0  0  0  0  0  0  0  0
   40.1100   22.6710   37.6860 C   0  0  0  0  0  0  0  0  0  0  0  0
   39.7400   22.2740   36.4330 N   0  0  0  0  0  0  0  0  0  0  0  0
   36.4400   23.0840   36.5070 H   0  0  0  0  0  0  0  0  0  0  0  0
   37.1460   23.8080   38.8150 H   0  0  0  0  0  0  0  0  0  0  0  0
   41.1210   22.5770   38.0590 H   0  0  0  0  0  0  0  0  0  0  0  0
   38.5550   24.2580   33.7890 O   0  0  0  0  0  0  0  0  0  0  0  0
   37.2590   26.3890   33.5420 C   0  0  0  0  0  0  0  0  0  0  0  0
   38.1140   25.4680   34.0770 C   0  0  0  0  0  0  0  0  0  0  0  0
   38.7310   25.8660   35.2770 C   0  0  0  0  0  0  0  0  0  0  0  0
   39.4530   25.3300   35.9130 H   0  0  0  0  0  0  0  0  0  0  0  0
   38.4990   27.0950   35.8790 C   0  0  0  0  0  0  0  0  0  0  0  0
   38.9080   27.4990   36.7830 H   0  0  0  0  0  0  0  0  0  0  0  0
   37.6120   27.9580   35.2530 C   0  0  0  0  0  3  0  0  0  0  0  0
   36.9810   27.6160   34.0780 C   0  0  0  0  0  3  0  0  0  0  0  0
   35.7020   24.8120   32.2270 H   0  0  0  0  0  0  0  0  0  0  0  0
   36.5060   25.8850   32.0690 S   0  0  0  0  0  0  0  0  0  0  0  0
   37.4960   25.7030   30.9440 O   0  0  0  0  0  0  0  0  0  0  0  0
   35.5910   27.0070   31.5870 O   0  0  0  0  0  0  0  0  0  0  0  0
  1  4  1  6  0  0  0
  1  8  1  0  0  0  0
  2  5  1  6  0  0  0
  2  3  1  0  0  0  0
  2 17  1  0  0  0  0
  2  1  1  0  0  0  0
  3  7  1  0  0  0  0
  3  1  1  0  0  0  0
  6  3  1  0  0  0  0
  8 13  2  0  0  0  0
  8  9  1  0  0  0  0
  9 10  2  0  0  0  0
 10 11  1  0  0  0  0
 10 15  1  0  0  0  0
 12 16  1  0  0  0  0
 12 11  2  0  0  0  0
 13 12  1  0  0  0  0
 14  9  1  0  0  0  0
 17 19  1  0  0  0  0
 18 19  2  0  0  0  0
 18 25  1  0  0  0  0
 19 20  1  0  0  0  0
 20 22  2  0  0  0  0
 20 21  1  0  0  0  0
 22 23  1  0  0  0  0
 24 22  1  0  0  0  0
 25 24  2  0  0  0  0
 27 26  1  0  0  0  0
 27 18  1  0  0  0  0
 28 27  2  0  0  0  0
 29 27  2  0  0  0  0
M  END
>  <minimizedAffinity>
-5.01787567

$$$$

 OpenBabel03272507173D

 29 31  0  0  1  0  0  0  0  0999 V2000
   39.0290   26.6050   35.4820 C   0  0  1  0  0  0  0  0  0  0  0  0
   38.6920   27.1350   34.1490 C   0  0  2  0  0  0  0  0  0  0  0  0
   37.6820   27.3000   35.2740 C   0  0  0  0  0  0  0  0  0  0  0  0
   39.7220   27.1090   36.1890 H   0  0  0  0  0  0  0  0  0  0  0  0
   39.2980   28.0360   33.8720 H   0  0  0  0  0  0  0  0  0  0  0  0
   37.6210   28.3210   35.6720 H   0  0  0  0  0  0  0  0  0  0  0  0
   36.7760   26.6850   35.2370 H   0  0  0  0  0  0  0  0  0  0  0  0
   38.8900   25.1370   35.7650 C   0  0  0  0  0  0  0  0  0  0  0  0
   39.9160   24.3340   35.2680 C   0  0  0  0  0  0  0  0  0  0  0  0
   39.7770   22.9550   35.5030 C   0  0  0  0  0  0  0  0  0  0  0  0
   38.6720   22.4930   36.1890 N   0  0  0  0  0  0  0  0  0  0  0  0
   37.7060   23.3190   36.6490 C   0  0  0  0  0  0  0  0  0  0  0  0
   37.8180   24.6630   36.4340 N   0  0  0  0  0  0  0  0  0  0  0  0
   40.7620   24.7470   34.7360 H   0  0  0  0  0  0  0  0  0  0  0  0
   40.5340   22.2700   35.1460 H   0  0  0  0  0  0  0  0  0  0  0  0
   36.8730   22.8750   37.1760 H   0  0  0  0  0  0  0  0  0  0  0  0
   38.3410   26.2880   33.1550 O   0  0  0  0  0  0  0  0  0  0  0  0
   36.2910   26.4340   31.7220 C   0  0  0  0  0  0  0  0  0  0  0  0
   37.3060   25.8780   32.4460 C   0  0  0  0  0  0  0  0  0  0  0  0
   37.3000   24.4720   32.4850 C   0  0  0  0  0  0  0  0  0  0  0  0
   37.9900   23.7750   32.9860 H   0  0  0  0  0  0  0  0  0  0  0  0
   36.3430   23.6990   31.8420 C   0  0  0  0  0  0  0  0  0  0  0  0
   36.2420   22.6330   31.8030 H   0  0  0  0  0  0  0  0  0  0  0  0
   35.3530   24.3630   31.1330 C   0  0  0  0  0  3  0  0  0  0  0  0
   35.3150   25.7380   31.0630 C   0  0  0  0  0  3  0  0  0  0  0  0
   37.3860   28.6930   32.3030 H   0  0  0  0  0  0  0  0  0  0  0  0
   36.3120   28.1620   31.6800 S   0  0  0  0  0  0  0  0  0  0  0  0
   35.0140   28.7700   32.1550 O   0  0  0  0  0  0  0  0  0  0  0  0
   36.4270   28.6090   30.2260 O   0  0  0  0  0  0  0  0  0  0  0  0
  1  8  1  0  0  0  0
  1  4  1  1  0  0  0
  2  5  1  6  0  0  0
  2  3  1  0  0  0  0
  2  1  1  0  0  0  0
  3  1  1  0  0  0  0
  3  6  1  0  0  0  0
  7  3  1  0  0  0  0
  8 13  1  0  0  0  0
  9 10  1  0  0  0  0
  9  8  2  0  0  0  0
 10 11  2  0  0  0  0
 11 12  1  0  0  0  0
 12 16  1  0  0  0  0
 13 12  2  0  0  0  0
 14  9  1  0  0  0  0
 15 10  1  0  0  0  0
 17  2  1  0  0  0  0
 18 19  1  0  0  0  0
 19 20  2  0  0  0  0
 19 17  1  0  0  0  0
 20 21  1  0  0  0  0
 22 20  1  0  0  0  0
 23 22  1  0  0  0  0
 24 22  2  0  0  0  0
 25 24  1  0  0  0  0
 25 18  2  0  0  0  0
 27 18  1  0  0  0  0
 27 28  2  0  0  0  0
 27 26  1  0  0  0  0
 29 27  2  0  0  0  0
M  END
>  <minimizedAffinity>
-4.78693295

$$$$

 OpenBabel03272507173D

 29 31  0  0  1  0  0  0  0  0999 V2000
   38.6540   23.2600   36.3720 C   0  0  1  0  0  0  0  0  0  0  0  0
   38.2620   22.2290   35.3940 C   0  0  2  0  0  0  0  0  0  0  0  0
   39.6600   22.1710   35.9900 C   0  0  0  0  0  0  0  0  0  0  0  0
   38.3290   23.2580   37.4340 H   0  0  0  0  0  0  0  0  0  0  0  0
   37.5050   21.5090   35.7990 H   0  0  0  0  0  0  0  0  0  0  0  0
   39.7930   21.3800   36.7390 H   0  0  0  0  0  0  0  0  0  0  0  0
   40.5000   22.4390   35.3410 H   0  0  0  0  0  0  0  0  0  0  0  0
   39.0660   24.6240   35.9010 C   0  0  0  0  0  0  0  0  0  0  0  0
   38.1770   25.6550   36.2070 C   0  0  0  0  0  0  0  0  0  0  0  0
   38.5420   26.9310   35.7430 C   0  0  0  0  0  0  0  0  0  0  0  0
   39.7180   27.0830   35.0360 N   0  0  0  0  0  0  0  0  0  0  0  0
   40.5430   26.0470   34.7680 C   0  0  0  0  0  0  0  0  0  0  0  0
   40.2120   24.7970   35.2090 N   0  0  0  0  0  0  0  0  0  0  0  0
   37.2680   25.4810   36.7650 H   0  0  0  0  0  0  0  0  0  0  0  0
   37.9010   27.7780   35.9430 H   0  0  0  0  0  0  0  0  0  0  0  0
   41.4440   26.2540   34.2070 H   0  0  0  0  0  0  0  0  0  0  0  0
   38.1890   22.5380   34.0800 O   0  0  0  0  0  0  0  0  0  0  0  0
   36.3750   22.1560   32.3930 C   0  0  0  0  0  0  0  0  0  0  0  0
   37.3300   22.8120   33.1150 C   0  0  0  0  0  0  0  0  0  0  0  0
   37.4920   24.1690   32.7810 C   0  0  0  0  0  0  0  0  0  0  0  0
   38.1790   24.9220   33.1970 H   0  0  0  0  0  0  0  0  0  0  0  0
   36.7470   24.8030   31.7970 C   0  0  0  0  0  0  0  0  0  0  0  0
   36.7840   25.8200   31.4630 H   0  0  0  0  0  0  0  0  0  0  0  0
   35.8020   24.0450   31.1210 C   0  0  0  0  0  3  0  0  0  0  0  0
   35.6040   22.7130   31.4110 C   0  0  0  0  0  3  0  0  0  0  0  0
   37.3610   19.8520   32.9920 H   0  0  0  0  0  0  0  0  0  0  0  0
   36.1850   20.4900   32.8160 S   0  0  0  0  0  0  0  0  0  0  0  0
   35.2660   19.7530   31.8710 O   0  0  0  0  0  0  0  0  0  0  0  0
   35.4780   20.4130   34.1650 O   0  0  0  0  0  0  0  0  0  0  0  0
  1  4  1  1  0  0  0
  2  5  1  1  0  0  0
  2  3  1  0  0  0  0
  2  1  1  0  0  0  0
  3  1  1  0  0  0  0
  3  6  1  0  0  0  0
  7  3  1  0  0  0  0
  8  9  1  0  0  0  0
  8  1  1  0  0  0  0
  9 14  1  0  0  0  0
 10 15  1  0  0  0  0
 10  9  2  0  0  0  0
 11 10  1  0  0  0  0
 12 11  2  0  0  0  0
 12 13  1  0  0  0  0
 13  8  2  0  0  0  0
 16 12  1  0  0  0  0
 17  2  1  0  0  0  0
 18 27  1  0  0  0  0
 18 19  1  0  0  0  0
 19 17  1  0  0  0  0
 20 19  2  0  0  0  0
 20 21  1  0  0  0  0
 22 20  1  0  0  0  0
 23 22  1  0  0  0  0
 24 25  1  0  0  0  0
 24 22  2  0  0  0  0
 25 18  2  0  0  0  0
 27 26  1  0  0  0  0
 27 29  2  0  0  0  0
 28 27  2  0  0  0  0
M  END
>  <minimizedAffinity>
-4.77551937

$$$$

 OpenBabel03272507173D

 29 31  0  0  1  0  0  0  0  0999 V2000
   38.6640   23.3630   36.6440 C   0  0  1  0  0  0  0  0  0  0  0  0
   38.1800   22.2340   35.8300 C   0  0  2  0  0  0  0  0  0  0  0  0
   39.6310   22.2310   36.2880 C   0  0  0  0  0  0  0  0  0  0  0  0
   38.4450   23.4820   37.7260 H   0  0  0  0  0  0  0  0  0  0  0  0
   37.4690   21.5690   36.3850 H   0  0  0  0  0  0  0  0  0  0  0  0
   39.8390   21.5270   37.1030 H   0  0  0  0  0  0  0  0  0  0  0  0
   40.4010   22.4190   35.5330 H   0  0  0  0  0  0  0  0  0  0  0  0
   39.0230   24.6640   35.9860 C   0  0  0  0  0  0  0  0  0  0  0  0
   38.1940   25.7410   36.3000 C   0  0  0  0  0  0  0  0  0  0  0  0
   38.5070   26.9550   35.6650 C   0  0  0  0  0  0  0  0  0  0  0  0
   39.5780   27.0080   34.7960 N   0  0  0  0  0  0  0  0  0  0  0  0
   40.3490   25.9310   34.5280 C   0  0  0  0  0  0  0  0  0  0  0  0
   40.0670   24.7400   35.1340 N   0  0  0  0  0  0  0  0  0  0  0  0
   37.3660   25.6450   36.9890 H   0  0  0  0  0  0  0  0  0  0  0  0
   37.9070   27.8330   35.8600 H   0  0  0  0  0  0  0  0  0  0  0  0
   41.1690   26.0590   33.8350 H   0  0  0  0  0  0  0  0  0  0  0  0
   37.9760   22.3960   34.5030 O   0  0  0  0  0  0  0  0  0  0  0  0
   36.7230   22.7140   32.3560 C   0  0  0  0  0  0  0  0  0  0  0  0
   37.1060   22.1530   33.5400 C   0  0  0  0  0  0  0  0  0  0  0  0
   36.4100   20.9810   33.8890 C   0  0  0  0  0  0  0  0  0  0  0  0
   36.5140   20.3340   34.7740 H   0  0  0  0  0  0  0  0  0  0  0  0
   35.4120   20.4280   33.0990 C   0  0  0  0  0  0  0  0  0  0  0  0
   34.8230   19.5490   33.2620 H   0  0  0  0  0  0  0  0  0  0  0  0
   35.0990   21.0770   31.9140 C   0  0  0  0  0  3  0  0  0  0  0  0
   35.7500   22.2270   31.5270 C   0  0  0  0  0  3  0  0  0  0  0  0
   38.9230   23.9650   31.8710 H   0  0  0  0  0  0  0  0  0  0  0  0
   37.5880   24.1520   31.9390 S   0  0  0  0  0  0  0  0  0  0  0  0
   37.2160   25.3270   32.8130 O   0  0  0  0  0  0  0  0  0  0  0  0
   37.1680   24.5790   30.5360 O   0  0  0  0  0  0  0  0  0  0  0  0
  1  4  1  1  0  0  0
  2  3  1  0  0  0  0
  2  5  1  1  0  0  0
  2  1  1  0  0  0  0
  3  1  1  0  0  0  0
  3  6  1  0  0  0  0
  7  3  1  0  0  0  0
  8  9  1  0  0  0  0
  8  1  1  0  0  0  0
  9 14  1  0  0  0  0
 10 15  1  0  0  0  0
 10  9  2  0  0  0  0
 11 10  1  0  0  0  0
 12 11  2  0  0  0  0
 12 13  1  0  0  0  0
 13  8  2  0  0  0  0
 16 12  1  0  0  0  0
 17  2  1  0  0  0  0
 18 19  1  0  0  0  0
 19 20  2  0  0  0  0
 19 17  1  0  0  0  0
 20 21  1  0  0  0  0
 22 23  1  0  0  0  0
 22 20  1  0  0  0  0
 24 22  2  0  0  0  0
 25 24  1  0  0  0  0
 25 18  2  0  0  0  0
 26 27  1  0  0  0  0
 27 18  1  0  0  0  0
 27 28  2  0  0  0  0
 29 27  2  0  0  0  0
M  END
>  <minimizedAffinity>
-4.76386166

$$$$

 OpenBabel03272507173D

 29 31  0  0  1  0  0  0  0  0999 V2000
   37.9290   21.9660   34.7110 C   0  0  1  0  0  0  0  0  0  0  0  0
   37.8090   22.9360   33.6080 C   0  0  2  0  0  0  0  0  0  0  0  0
   39.0400   22.0440   33.6610 C   0  0  0  0  0  0  0  0  0  0  0  0
   37.3750   21.0030   34.7480 H   0  0  0  0  0  0  0  0  0  0  0  0
   37.0120   22.6620   32.8700 H   0  0  0  0  0  0  0  0  0  0  0  0
   39.0350   21.2350   32.9200 H   0  0  0  0  0  0  0  0  0  0  0  0
   39.9920   22.5090   33.9400 H   0  0  0  0  0  0  0  0  0  0  0  0
   38.3780   22.4220   36.0680 C   0  0  0  0  0  0  0  0  0  0  0  0
   37.3780   22.9630   36.8770 C   0  0  0  0  0  0  0  0  0  0  0  0
   37.7960   23.4190   38.1390 C   0  0  0  0  0  0  0  0  0  0  0  0
   39.1260   23.3100   38.4910 N   0  0  0  0  0  0  0  0  0  0  0  0
   40.0540   22.7760   37.6660 C   0  0  0  0  0  0  0  0  0  0  0  0
   39.6730   22.3240   36.4350 N   0  0  0  0  0  0  0  0  0  0  0  0
   36.3490   23.0250   36.5520 H   0  0  0  0  0  0  0  0  0  0  0  0
   37.0760   23.8510   38.8190 H   0  0  0  0  0  0  0  0  0  0  0  0
   41.0750   22.7290   38.0210 H   0  0  0  0  0  0  0  0  0  0  0  0
   38.0180   24.2520   33.8420 O   0  0  0  0  0  0  0  0  0  0  0  0
   37.8520   26.7530   33.8320 C   0  0  0  0  0  0  0  0  0  0  0  0
   37.6320   25.4560   33.4640 C   0  0  0  0  0  0  0  0  0  0  0  0
   36.7490   25.2940   32.3800 C   0  0  0  0  0  0  0  0  0  0  0  0
   36.4000   24.3750   31.8840 H   0  0  0  0  0  0  0  0  0  0  0  0
   36.1440   26.3590   31.7280 C   0  0  0  0  0  0  0  0  0  0  0  0
   35.4640   26.3530   30.9000 H   0  0  0  0  0  0  0  0  0  0  0  0
   36.4350   27.6370   32.1810 C   0  0  0  0  0  3  0  0  0  0  0  0
   37.2920   27.8500   33.2380 C   0  0  0  0  0  3  0  0  0  0  0  0
   39.2150   28.2290   35.4460 H   0  0  0  0  0  0  0  0  0  0  0  0
   38.9390   26.9370   35.1630 S   0  0  0  0  0  0  0  0  0  0  0  0
   40.1890   26.1030   35.0110 O   0  0  0  0  0  0  0  0  0  0  0  0
   38.2670   26.3840   36.4160 O   0  0  0  0  0  0  0  0  0  0  0  0
  1  4  1  6  0  0  0
  1  8  1  0  0  0  0
  2  5  1  6  0  0  0
  2  3  1  0  0  0  0
  2 17  1  0  0  0  0
  2  1  1  0  0  0  0
  3  7  1  0  0  0  0
  3  1  1  0  0  0  0
  6  3  1  0  0  0  0
  8 13  2  0  0  0  0
  8  9  1  0  0  0  0
  9 10  2  0  0  0  0
 10 11  1  0  0  0  0
 10 15  1  0  0  0  0
 12 16  1  0  0  0  0
 12 11  2  0  0  0  0
 13 12  1  0  0  0  0
 14  9  1  0  0  0  0
 18 27  1  0  0  0  0
 19 18  1  0  0  0  0
 19 17  1  0  0  0  0
 20 19  2  0  0  0  0
 21 20  1  0  0  0  0
 22 24  2  0  0  0  0
 22 20  1  0  0  0  0
 23 22  1  0  0  0  0
 24 25  1  0  0  0  0
 25 18  2  0  0  0  0
 27 26  1  0  0  0  0
 27 29  2  0  0  0  0
 28 27  2  0  0  0  0
M  END
>  <minimizedAffinity>
-4.65516281

$$$$

 OpenBabel03272507173D

 29 31  0  0  1  0  0  0  0  0999 V2000
   38.4190   27.0900   34.3420 C   0  0  1  0  0  0  0  0  0  0  0  0
   37.8900   25.9430   35.1010 C   0  0  2  0  0  0  0  0  0  0  0  0
   38.5450   27.0820   35.8680 C   0  0  0  0  0  0  0  0  0  0  0  0
   37.7820   27.8970   33.9200 H   0  0  0  0  0  0  0  0  0  0  0  0
   36.7700   25.9030   35.1080 H   0  0  0  0  0  0  0  0  0  0  0  0
   37.8350   27.7310   36.3950 H   0  0  0  0  0  0  0  0  0  0  0  0
   39.5290   26.8950   36.3100 H   0  0  0  0  0  0  0  0  0  0  0  0
   39.7450   26.9840   33.6470 C   0  0  0  0  0  0  0  0  0  0  0  0
   39.6850   26.6480   32.2950 C   0  0  0  0  0  0  0  0  0  0  0  0
   40.9250   26.5180   31.6450 C   0  0  0  0  0  0  0  0  0  0  0  0
   42.0880   26.7230   32.3590 N   0  0  0  0  0  0  0  0  0  0  0  0
   42.0870   27.0470   33.6710 C   0  0  0  0  0  0  0  0  0  0  0  0
   40.8950   27.1810   34.3250 N   0  0  0  0  0  0  0  0  0  0  0  0
   38.7450   26.4990   31.7820 H   0  0  0  0  0  0  0  0  0  0  0  0
   40.9560   26.2590   30.5960 H   0  0  0  0  0  0  0  0  0  0  0  0
   43.0430   27.1890   34.1550 H   0  0  0  0  0  0  0  0  0  0  0  0
   38.5570   24.7670   35.1000 O   0  0  0  0  0  0  0  0  0  0  0  0
   39.2370   23.4230   37.1030 C   0  0  0  0  0  0  0  0  0  0  0  0
   39.3000   23.9840   35.8600 C   0  0  0  0  0  0  0  0  0  0  0  0
   40.4660   23.6790   35.1340 C   0  0  0  0  0  0  0  0  0  0  0  0
   40.7720   23.9920   34.1240 H   0  0  0  0  0  0  0  0  0  0  0  0
   41.4800   22.8720   35.6310 C   0  0  0  0  0  0  0  0  0  0  0  0
   42.4010   22.5740   35.1720 H   0  0  0  0  0  0  0  0  0  0  0  0
   41.3170   22.3510   36.9060 C   0  0  0  0  0  3  0  0  0  0  0  0
   40.1950   22.6200   37.6570 C   0  0  0  0  0  3  0  0  0  0  0  0
   36.7200   23.9680   37.1860 H   0  0  0  0  0  0  0  0  0  0  0  0
   37.7980   23.8050   37.9820 S   0  0  0  0  0  0  0  0  0  0  0  0
   37.9900   24.9600   38.9350 O   0  0  0  0  0  0  0  0  0  0  0  0
   37.4570   22.6240   38.8860 O   0  0  0  0  0  0  0  0  0  0  0  0
  1  4  1  6  0  0  0
  1  2  1  0  0  0  0
  1  3  1  0  0  0  0
  2  5  1  1  0  0  0
  2  3  1  0  0  0  0
  3  7  1  0  0  0  0
  3  6  1  0  0  0  0
  8 13  1  0  0  0  0
  8  1  1  0  0  0  0
  9  8  2  0  0  0  0
 10  9  1  0  0  0  0
 10 11  2  0  0  0  0
 11 12  1  0  0  0  0
 12 16  1  0  0  0  0
 12 13  2  0  0  0  0
 14  9  1  0  0  0  0
 15 10  1  0  0  0  0
 17  2  1  0  0  0  0
 17 19  1  0  0  0  0
 18 25  1  0  0  0  0
 18 27  1  0  0  0  0
 19 18  2  0  0  0  0
 20 22  2  0  0  0  0
 20 19  1  0  0  0  0
 21 20  1  0  0  0  0
 22 24  1  0  0  0  0
 23 22  1  0  0  0  0
 24 25  2  0  0  0  0
 26 27  1  0  0  0  0
 27 29  2  0  0  0  0
 27 28  2  0  0  0  0
M  END
>  <minimizedAffinity>
-4.6102767

$$$$

 OpenBabel03272507173D

 29 31  0  0  1  0  0  0  0  0999 V2000
   37.2640   26.7540   33.4360 C   0  0  1  0  0  0  0  0  0  0  0  0
   37.4700   26.3610   34.8410 C   0  0  2  0  0  0  0  0  0  0  0  0
   38.5700   27.1400   34.1350 C   0  0  0  0  0  0  0  0  0  0  0  0
   36.6220   27.6040   33.1200 H   0  0  0  0  0  0  0  0  0  0  0  0
   36.8190   26.9310   35.5530 H   0  0  0  0  0  0  0  0  0  0  0  0
   38.6380   28.1910   34.4410 H   0  0  0  0  0  0  0  0  0  0  0  0
   39.4840   26.5980   33.8710 H   0  0  0  0  0  0  0  0  0  0  0  0
   37.4660   25.7500   32.3380 C   0  0  0  0  0  0  0  0  0  0  0  0
   36.3460   24.9820   32.0190 C   0  0  0  0  0  0  0  0  0  0  0  0
   36.5360   24.0190   31.0110 C   0  0  0  0  0  0  0  0  0  0  0  0
   37.7760   23.8960   30.4190 N   0  0  0  0  0  0  0  0  0  0  0  0
   38.8280   24.6690   30.7690 C   0  0  0  0  0  0  0  0  0  0  0  0
   38.6690   25.6120   31.7440 N   0  0  0  0  0  0  0  0  0  0  0  0
   35.3950   25.1200   32.5140 H   0  0  0  0  0  0  0  0  0  0  0  0
   35.7120   23.3870   30.7120 H   0  0  0  0  0  0  0  0  0  0  0  0
   39.7650   24.5060   30.2540 H   0  0  0  0  0  0  0  0  0  0  0  0
   37.7550   25.0760   35.1480 O   0  0  0  0  0  0  0  0  0  0  0  0
   39.2570   23.3260   36.1290 C   0  0  0  0  0  0  0  0  0  0  0  0
   38.3250   24.3210   36.0700 C   0  0  0  0  0  0  0  0  0  0  0  0
   37.7780   24.6910   37.3120 C   0  0  0  0  0  0  0  0  0  0  0  0
   37.0190   25.4520   37.5520 H   0  0  0  0  0  0  0  0  0  0  0  0
   38.1480   24.0980   38.5110 C   0  0  0  0  0  0  0  0  0  0  0  0
   37.8040   24.2980   39.5050 H   0  0  0  0  0  0  0  0  0  0  0  0
   39.1060   23.0960   38.4610 C   0  0  0  0  0  3  0  0  0  0  0  0
   39.6720   22.6970   37.2710 C   0  0  0  0  0  3  0  0  0  0  0  0
   40.6770   21.7650   34.6490 H   0  0  0  0  0  0  0  0  0  0  0  0
   39.9230   22.8840   34.5960 S   0  0  0  0  0  0  0  0  0  0  0  0
   40.6400   24.0300   33.9230 O   0  0  0  0  0  0  0  0  0  0  0  0
   38.7740   22.5520   33.6490 O   0  0  0  0  0  0  0  0  0  0  0  0
  1  4  1  6  0  0  0
  1  3  1  0  0  0  0
  1  2  1  0  0  0  0
  2 17  1  0  0  0  0
  2  5  1  1  0  0  0
  3  6  1  0  0  0  0
  3  2  1  0  0  0  0
  7  3  1  0  0  0  0
  8  1  1  0  0  0  0
  9  8  1  0  0  0  0
  9 14  1  0  0  0  0
 10  9  2  0  0  0  0
 11 12  2  0  0  0  0
 11 10  1  0  0  0  0
 12 13  1  0  0  0  0
 13  8  2  0  0  0  0
 15 10  1  0  0  0  0
 16 12  1  0  0  0  0
 17 19  1  0  0  0  0
 18 25  1  0  0  0  0
 19 18  2  0  0  0  0
 19 20  1  0  0  0  0
 20 21  1  0  0  0  0
 20 22  2  0  0  0  0
 22 23  1  0  0  0  0
 24 22  1  0  0  0  0
 25 24  2  0  0  0  0
 27 26  1  0  0  0  0
 27 18  1  0  0  0  0
 28 27  2  0  0  0  0
 29 27  2  0  0  0  0
M  END
>  <minimizedAffinity>
-4.51516914

$$$$

 OpenBabel03272507173D

 29 31  0  0  1  0  0  0  0  0999 V2000
   37.3250   26.3330   35.1770 C   0  0  1  0  0  0  0  0  0  0  0  0
   38.3920   25.6580   35.9370 C   0  0  2  0  0  0  0  0  0  0  0  0
   38.4450   27.1720   35.7980 C   0  0  0  0  0  0  0  0  0  0  0  0
   36.3070   26.5240   35.5800 H   0  0  0  0  0  0  0  0  0  0  0  0
   38.0370   25.2490   36.9180 H   0  0  0  0  0  0  0  0  0  0  0  0
   38.1670   27.7130   36.7110 H   0  0  0  0  0  0  0  0  0  0  0  0
   39.2100   27.5930   35.1380 H   0  0  0  0  0  0  0  0  0  0  0  0
   37.3580   26.3370   33.6770 C   0  0  0  0  0  0  0  0  0  0  0  0
   37.4600   27.5950   33.0850 C   0  0  0  0  0  0  0  0  0  0  0  0
   37.4620   27.6080   31.6790 C   0  0  0  0  0  0  0  0  0  0  0  0
   37.3650   26.4150   30.9910 N   0  0  0  0  0  0  0  0  0  0  0  0
   37.2680   25.2220   31.6180 C   0  0  0  0  0  0  0  0  0  0  0  0
   37.2660   25.1830   32.9830 N   0  0  0  0  0  0  0  0  0  0  0  0
   37.5330   28.5010   33.6710 H   0  0  0  0  0  0  0  0  0  0  0  0
   37.5370   28.5490   31.1510 H   0  0  0  0  0  0  0  0  0  0  0  0
   37.1960   24.3350   31.0030 H   0  0  0  0  0  0  0  0  0  0  0  0
   39.3530   24.9670   35.2830 O   0  0  0  0  0  0  0  0  0  0  0  0
   41.2130   23.4340   35.9720 C   0  0  0  0  0  0  0  0  0  0  0  0
   40.5850   24.5100   35.4120 C   0  0  0  0  0  0  0  0  0  0  0  0
   41.4420   25.4280   34.7780 C   0  0  0  0  0  0  0  0  0  0  0  0
   41.2080   26.3680   34.2540 H   0  0  0  0  0  0  0  0  0  0  0  0
   42.8180   25.2660   34.7200 C   0  0  0  0  0  0  0  0  0  0  0  0
   43.5600   25.8930   34.2680 H   0  0  0  0  0  0  0  0  0  0  0  0
   43.3570   24.1370   35.3200 C   0  0  0  0  0  3  0  0  0  0  0  0
   42.5610   23.2080   35.9530 C   0  0  0  0  0  3  0  0  0  0  0  0
   40.7800   21.2100   37.1980 H   0  0  0  0  0  0  0  0  0  0  0  0
   40.1470   22.3130   36.7440 S   0  0  0  0  0  0  0  0  0  0  0  0
   38.9440   21.9780   35.8960 O   0  0  0  0  0  0  0  0  0  0  0  0
   39.5600   22.9810   37.9830 O   0  0  0  0  0  0  0  0  0  0  0  0
  1  4  1  1  0  0  0
  1  3  1  0  0  0  0
  1  2  1  0  0  0  0
  2  5  1  1  0  0  0
  3  2  1  0  0  0  0
  3  6  1  0  0  0  0
  7  3  1  0  0  0  0
  8  1  1  0  0  0  0
  9 14  1  0  0  0  0
  9  8  1  0  0  0  0
 10  9  2  0  0  0  0
 11 12  2  0  0  0  0
 11 10  1  0  0  0  0
 12 13  1  0  0  0  0
 13  8  2  0  0  0  0
 15 10  1  0  0  0  0
 16 12  1  0  0  0  0
 17 19  1  0  0  0  0
 17  2  1  0  0  0  0
 18 27  1  0  0  0  0
 19 18  2  0  0  0  0
 20 19  1  0  0  0  0
 21 20  1  0  0  0  0
 22 20  2  0  0  0  0
 22 24  1  0  0  0  0
 23 22  1  0  0  0  0
 24 25  2  0  0  0  0
 25 18  1  0  0  0  0
 27 26  1  0  0  0  0
 27 29  2  0  0  0  0
 28 27  2  0  0  0  0
M  END
>  <minimizedAffinity>
-4.51408386

$$$$

 OpenBabel03272507173D

 29 31  0  0  1  0  0  0  0  0999 V2000
   38.5510   27.0540   33.2970 C   0  0  1  0  0  0  0  0  0  0  0  0
   39.2620   26.6670   34.5280 C   0  0  2  0  0  0  0  0  0  0  0  0
   40.0820   27.0800   33.3150 C   0  0  0  0  0  0  0  0  0  0  0  0
   38.0590   28.0400   33.1520 H   0  0  0  0  0  0  0  0  0  0  0  0
   39.1530   27.4210   35.3500 H   0  0  0  0  0  0  0  0  0  0  0  0
   40.5270   28.0800   33.3980 H   0  0  0  0  0  0  0  0  0  0  0  0
   40.6250   26.2950   32.7790 H   0  0  0  0  0  0  0  0  0  0  0  0
   37.9980   25.9980   32.3850 C   0  0  0  0  0  0  0  0  0  0  0  0
   38.7990   25.6750   31.2900 C   0  0  0  0  0  0  0  0  0  0  0  0
   38.2740   24.7070   30.4160 C   0  0  0  0  0  0  0  0  0  0  0  0
   37.0380   24.1540   30.6830 N   0  0  0  0  0  0  0  0  0  0  0  0
   36.3040   24.5050   31.7620 C   0  0  0  0  0  0  0  0  0  0  0  0
   36.7930   25.4420   32.6270 N   0  0  0  0  0  0  0  0  0  0  0  0
   39.7620   26.1390   31.1270 H   0  0  0  0  0  0  0  0  0  0  0  0
   38.8400   24.4070   29.5450 H   0  0  0  0  0  0  0  0  0  0  0  0
   35.3450   24.0230   31.8960 H   0  0  0  0  0  0  0  0  0  0  0  0
   39.3390   25.3650   34.8820 O   0  0  0  0  0  0  0  0  0  0  0  0
   40.0040   23.4910   36.4090 C   0  0  0  0  0  0  0  0  0  0  0  0
   39.3040   24.5600   35.9280 C   0  0  0  0  0  0  0  0  0  0  0  0
   38.2230   24.9650   36.7330 C   0  0  0  0  0  0  0  0  0  0  0  0
   37.5020   25.7840   36.5880 H   0  0  0  0  0  0  0  0  0  0  0  0
   37.8850   24.3370   37.9230 C   0  0  0  0  0  0  0  0  0  0  0  0
   37.0940   24.5570   38.6100 H   0  0  0  0  0  0  0  0  0  0  0  0
   38.6630   23.2590   38.3220 C   0  0  0  0  0  3  0  0  0  0  0  0
   39.7310   22.8240   37.5700 C   0  0  0  0  0  3  0  0  0  0  0  0
   41.1920   23.3890   34.1240 H   0  0  0  0  0  0  0  0  0  0  0  0
   41.3310   23.0060   35.4110 S   0  0  0  0  0  0  0  0  0  0  0  0
   41.6490   21.5360   35.5430 O   0  0  0  0  0  0  0  0  0  0  0  0
   42.5900   23.7090   35.9080 O   0  0  0  0  0  0  0  0  0  0  0  0
  1  4  1  1  0  0  0
  1  3  1  0  0  0  0
  1  2  1  0  0  0  0
  2 17  1  0  0  0  0
  2  5  1  1  0  0  0
  3  6  1  0  0  0  0
  3  2  1  0  0  0  0
  7  3  1  0  0  0  0
  8 13  1  0  0  0  0
  8  1  1  0  0  0  0
  9  8  2  0  0  0  0
 10 11  2  0  0  0  0
 10  9  1  0  0  0  0
 11 12  1  0  0  0  0
 12 16  1  0  0  0  0
 12 13  2  0  0  0  0
 14  9  1  0  0  0  0
 15 10  1  0  0  0  0
 17 19  1  0  0  0  0
 18 25  1  0  0  0  0
 19 18  2  0  0  0  0
 19 20  1  0  0  0  0
 20 22  2  0  0  0  0
 21 20  1  0  0  0  0
 22 24  1  0  0  0  0
 22 23  1  0  0  0  0
 25 24  2  0  0  0  0
 26 27  1  0  0  0  0
 27 28  2  0  0  0  0
 27 29  2  0  0  0  0
 27 18  1  0  0  0  0
M  END
>  <minimizedAffinity>
-4.49803162

$$$$
