
 OpenBabel03272502123D

 29 31  0  0  0  0  0  0  0  0999 V2000
   38.3040   25.6540   33.2880 C   0  0  0  0  0  0  0  0  0  0  0  0
   38.9880   26.8360   33.3710 C   0  0  0  0  0  0  0  0  0  0  0  0
   40.1080   27.0580   34.1750 C   0  0  0  0  0  0  0  0  0  0  0  0
   40.5320   26.0130   34.9200 N   0  0  0  0  0  0  0  0  0  0  0  0
   39.8730   24.8230   34.8590 C   0  0  0  0  0  0  0  0  0  0  0  0
   38.8120   24.6930   34.0660 N   0  0  0  0  0  0  0  0  0  0  0  0
   38.6800   27.7070   32.7860 H   0  0  0  0  0  0  0  0  0  0  0  0
   40.6280   27.9900   34.2250 H   0  0  0  0  0  0  0  0  0  0  0  0
   36.6880   24.1960   32.0480 C   0  0  0  0  0  0  0  0  0  0  0  0
   37.1650   25.4610   32.4580 C   0  0  0  0  0  0  0  0  0  0  0  0
   36.4580   26.5620   32.0080 C   0  0  0  0  0  0  0  0  0  0  0  0
   35.3690   26.3870   31.2130 N   0  0  0  0  0  0  0  0  0  0  0  0
   34.9480   25.1570   30.8450 C   0  0  0  0  0  0  0  0  0  0  0  0
   35.6110   24.0670   31.2640 N   0  0  0  0  0  0  0  0  0  0  0  0
   37.2410   23.3280   32.4000 H   0  0  0  0  0  0  0  0  0  0  0  0
   36.6900   27.5920   32.2320 H   0  0  0  0  0  0  0  0  0  0  0  0
   34.0700   25.1270   30.2100 H   0  0  0  0  0  0  0  0  0  0  0  0
   39.7350   23.2520   36.8020 C   0  0  0  0  0  0  0  0  0  0  0  0
   40.3950   23.7520   35.7000 C   0  0  0  0  0  0  0  0  0  0  0  0
   41.6130   23.1600   35.4400 C   0  0  0  0  0  0  0  0  0  0  0  0
   42.1820   23.5210   34.5720 H   0  0  0  0  0  0  0  0  0  0  0  0
   42.1950   22.1480   36.1700 C   0  0  0  0  0  0  0  0  0  0  0  0
   43.1470   21.7190   35.9250 H   0  0  0  0  0  0  0  0  0  0  0  0
   41.5160   21.6670   37.2630 C   0  0  0  0  0  3  0  0  0  0  0  0
   40.3070   22.2240   37.5590 C   0  0  0  0  0  3  0  0  0  0  0  0
   37.8730   25.0540   36.5770 H   0  0  0  0  0  0  0  0  0  0  0  0
   38.1770   23.9190   37.2420 S   0  0  0  0  0  0  0  0  0  0  0  0
   38.2240   24.2440   38.7240 O   0  0  0  0  0  0  0  0  0  0  0  0
   37.1230   22.8420   37.1050 O   0  0  0  0  0  0  0  0  0  0  0  0
  1  2  2  0  0  0  0
  1  6  1  0  0  0  0
  2  3  1  0  0  0  0
  3  8  1  0  0  0  0
  3  4  2  0  0  0  0
  5  4  1  0  0  0  0
  5 19  1  0  0  0  0
  6  5  2  0  0  0  0
  7  2  1  0  0  0  0
  9 15  1  0  0  0  0
  9 10  1  0  0  0  0
 10  1  1  0  0  0  0
 11 16  1  0  0  0  0
 11 10  2  0  0  0  0
 12 11  1  0  0  0  0
 13 12  2  0  0  0  0
 13 14  1  0  0  0  0
 14  9  2  0  0  0  0
 17 13  1  0  0  0  0
 18 27  1  0  0  0  0
 18 25  1  0  0  0  0
 19 18  2  0  0  0  0
 20 19  1  0  0  0  0
 20 22  2  0  0  0  0
 21 20  1  0  0  0  0
 22 24  1  0  0  0  0
 23 22  1  0  0  0  0
 24 25  2  0  0  0  0
 26 27  1  0  0  0  0
 27 28  2  0  0  0  0
 29 27  2  0  0  0  0
M  END
>  <minimizedAffinity>
-5.59999275

$$$$

 OpenBabel03272502123D

 29 31  0  0  0  0  0  0  0  0999 V2000
   36.6530   27.8490   33.6340 C   0  0  0  0  0  0  0  0  0  0  0  0
   36.7010   28.3660   32.3680 C   0  0  0  0  0  0  0  0  0  0  0  0
   36.1840   29.6060   31.9890 C   0  0  0  0  0  0  0  0  0  0  0  0
   35.5930   30.3340   32.9630 N   0  0  0  0  0  0  0  0  0  0  0  0
   35.5290   29.8480   34.2330 C   0  0  0  0  0  0  0  0  0  0  0  0
   36.0480   28.6540   34.5120 N   0  0  0  0  0  0  0  0  0  0  0  0
   37.1700   27.8100   31.5510 H   0  0  0  0  0  0  0  0  0  0  0  0
   36.2320   29.9910   30.9950 H   0  0  0  0  0  0  0  0  0  0  0  0
   37.3990   25.5250   33.0680 C   0  0  0  0  0  0  0  0  0  0  0  0
   37.1900   26.5790   33.9860 C   0  0  0  0  0  0  0  0  0  0  0  0
   37.5380   26.3290   35.3020 C   0  0  0  0  0  0  0  0  0  0  0  0
   38.0490   25.1170   35.6470 N   0  0  0  0  0  0  0  0  0  0  0  0
   38.2330   24.1380   34.7350 C   0  0  0  0  0  0  0  0  0  0  0  0
   37.9060   24.3470   33.4490 N   0  0  0  0  0  0  0  0  0  0  0  0
   37.1270   25.7180   32.0330 H   0  0  0  0  0  0  0  0  0  0  0  0
   37.4420   27.0260   36.1200 H   0  0  0  0  0  0  0  0  0  0  0  0
   38.6470   23.2100   35.1130 H   0  0  0  0  0  0  0  0  0  0  0  0
   33.5230   30.6320   35.5070 C   0  0  0  0  0  0  0  0  0  0  0  0
   34.8690   30.6980   35.2170 C   0  0  0  0  0  0  0  0  0  0  0  0
   35.5670   31.6450   35.9350 C   0  0  0  0  0  0  0  0  0  0  0  0
   36.6460   31.7400   35.7430 H   0  0  0  0  0  0  0  0  0  0  0  0
   35.0420   32.4960   36.8820 C   0  0  0  0  0  0  0  0  0  0  0  0
   35.6300   33.2170   37.4150 H   0  0  0  0  0  0  0  0  0  0  0  0
   33.6980   32.4100   37.1520 C   0  0  0  0  0  3  0  0  0  0  0  0
   32.9670   31.4870   36.4650 C   0  0  0  0  0  3  0  0  0  0  0  0
   33.1610   28.8450   33.6530 H   0  0  0  0  0  0  0  0  0  0  0  0
   32.5210   29.4710   34.6630 S   0  0  0  0  0  0  0  0  0  0  0  0
   31.3450   30.2270   34.0750 O   0  0  0  0  0  0  0  0  0  0  0  0
   31.9160   28.5180   35.6710 O   0  0  0  0  0  0  0  0  0  0  0  0
  1 10  1  0  0  0  0
  1  6  1  0  0  0  0
  2  1  2  0  0  0  0
  3  2  1  0  0  0  0
  3  4  2  0  0  0  0
  4  5  1  0  0  0  0
  5  6  2  0  0  0  0
  5 19  1  0  0  0  0
  7  2  1  0  0  0  0
  8  3  1  0  0  0  0
  9 14  2  0  0  0  0
  9 10  1  0  0  0  0
 10 11  2  0  0  0  0
 11 12  1  0  0  0  0
 11 16  1  0  0  0  0
 13 17  1  0  0  0  0
 13 12  2  0  0  0  0
 14 13  1  0  0  0  0
 15  9  1  0  0  0  0
 18 25  1  0  0  0  0
 19 18  2  0  0  0  0
 19 20  1  0  0  0  0
 20 22  2  0  0  0  0
 21 20  1  0  0  0  0
 22 24  1  0  0  0  0
 22 23  1  0  0  0  0
 25 24  2  0  0  0  0
 26 27  1  0  0  0  0
 27 18  1  0  0  0  0
 27 29  2  0  0  0  0
 28 27  2  0  0  0  0
M  END
>  <minimizedAffinity>
-5.38526678

$$$$

 OpenBabel03272502123D

 29 31  0  0  0  0  0  0  0  0999 V2000
   36.6530   27.8700   33.6220 C   0  0  0  0  0  0  0  0  0  0  0  0
   36.7030   28.3920   32.3580 C   0  0  0  0  0  0  0  0  0  0  0  0
   36.1870   29.6340   31.9830 C   0  0  0  0  0  0  0  0  0  0  0  0
   35.5970   30.3590   32.9590 N   0  0  0  0  0  0  0  0  0  0  0  0
   35.5310   29.8680   34.2270 C   0  0  0  0  0  0  0  0  0  0  0  0
   36.0480   28.6730   34.5020 N   0  0  0  0  0  0  0  0  0  0  0  0
   37.1710   27.8380   31.5380 H   0  0  0  0  0  0  0  0  0  0  0  0
   36.2370   30.0230   30.9900 H   0  0  0  0  0  0  0  0  0  0  0  0
   37.5530   26.2240   35.2830 C   0  0  0  0  0  0  0  0  0  0  0  0
   37.1880   26.5980   33.9690 C   0  0  0  0  0  0  0  0  0  0  0  0
   37.3770   25.6470   32.9820 C   0  0  0  0  0  0  0  0  0  0  0  0
   37.8910   24.4310   33.3060 N   0  0  0  0  0  0  0  0  0  0  0  0
   38.2250   24.1150   34.5760 C   0  0  0  0  0  0  0  0  0  0  0  0
   38.0550   25.0150   35.5590 N   0  0  0  0  0  0  0  0  0  0  0  0
   37.4060   26.9690   36.0610 H   0  0  0  0  0  0  0  0  0  0  0  0
   37.1480   25.7750   31.9360 H   0  0  0  0  0  0  0  0  0  0  0  0
   38.6260   23.1200   34.7270 H   0  0  0  0  0  0  0  0  0  0  0  0
   33.5260   30.6480   35.5060 C   0  0  0  0  0  0  0  0  0  0  0  0
   34.8710   30.7150   35.2150 C   0  0  0  0  0  0  0  0  0  0  0  0
   35.5700   31.6610   35.9340 C   0  0  0  0  0  0  0  0  0  0  0  0
   36.6480   31.7570   35.7410 H   0  0  0  0  0  0  0  0  0  0  0  0
   35.0450   32.5090   36.8840 C   0  0  0  0  0  0  0  0  0  0  0  0
   35.6330   33.2300   37.4180 H   0  0  0  0  0  0  0  0  0  0  0  0
   33.7020   32.4210   37.1550 C   0  0  0  0  0  3  0  0  0  0  0  0
   32.9700   31.4990   36.4660 C   0  0  0  0  0  3  0  0  0  0  0  0
   33.1570   28.8790   33.6350 H   0  0  0  0  0  0  0  0  0  0  0  0
   32.5240   29.4870   34.6600 S   0  0  0  0  0  0  0  0  0  0  0  0
   31.3340   30.2400   34.0950 O   0  0  0  0  0  0  0  0  0  0  0  0
   31.9400   28.5170   35.6640 O   0  0  0  0  0  0  0  0  0  0  0  0
  1 10  1  0  0  0  0
  1  6  1  0  0  0  0
  2  1  2  0  0  0  0
  3  2  1  0  0  0  0
  3  4  2  0  0  0  0
  4  5  1  0  0  0  0
  5  6  2  0  0  0  0
  5 19  1  0  0  0  0
  7  2  1  0  0  0  0
  8  3  1  0  0  0  0
  9 14  1  0  0  0  0
  9 15  1  0  0  0  0
 10  9  2  0  0  0  0
 11 12  2  0  0  0  0
 11 10  1  0  0  0  0
 12 13  1  0  0  0  0
 13 17  1  0  0  0  0
 13 14  2  0  0  0  0
 16 11  1  0  0  0  0
 18 25  1  0  0  0  0
 19 18  2  0  0  0  0
 19 20  1  0  0  0  0
 20 22  2  0  0  0  0
 21 20  1  0  0  0  0
 22 24  1  0  0  0  0
 22 23  1  0  0  0  0
 25 24  2  0  0  0  0
 26 27  1  0  0  0  0
 27 18  1  0  0  0  0
 27 29  2  0  0  0  0
 28 27  2  0  0  0  0
M  END
>  <minimizedAffinity>
-5.37406635

$$$$

 OpenBabel03272502123D

 29 31  0  0  0  0  0  0  0  0999 V2000
   36.1170   27.7810   31.9810 C   0  0  0  0  0  0  0  0  0  0  0  0
   36.4480   28.6180   30.9490 C   0  0  0  0  0  0  0  0  0  0  0  0
   36.3360   30.0090   30.9800 C   0  0  0  0  0  0  0  0  0  0  0  0
   35.8620   30.5500   32.1240 N   0  0  0  0  0  0  0  0  0  0  0  0
   35.5240   29.7440   33.1690 C   0  0  0  0  0  0  0  0  0  0  0  0
   35.6620   28.4250   33.0590 N   0  0  0  0  0  0  0  0  0  0  0  0
   36.8350   28.2220   30.0060 H   0  0  0  0  0  0  0  0  0  0  0  0
   36.6000   30.6440   30.1630 H   0  0  0  0  0  0  0  0  0  0  0  0
   35.4620   25.5380   31.0770 C   0  0  0  0  0  0  0  0  0  0  0  0
   36.2430   26.3650   31.9160 C   0  0  0  0  0  0  0  0  0  0  0  0
   37.1790   25.7280   32.7110 C   0  0  0  0  0  0  0  0  0  0  0  0
   37.3040   24.3760   32.6560 N   0  0  0  0  0  0  0  0  0  0  0  0
   36.5350   23.6230   31.8390 C   0  0  0  0  0  0  0  0  0  0  0  0
   35.6170   24.2090   31.0530 N   0  0  0  0  0  0  0  0  0  0  0  0
   34.7250   26.0350   30.4500 H   0  0  0  0  0  0  0  0  0  0  0  0
   37.8510   26.2150   33.4010 H   0  0  0  0  0  0  0  0  0  0  0  0
   36.7140   22.5550   31.8710 H   0  0  0  0  0  0  0  0  0  0  0  0
   33.6820   30.4550   34.7060 C   0  0  0  0  0  0  0  0  0  0  0  0
   35.0160   30.4120   34.3620 C   0  0  0  0  0  0  0  0  0  0  0  0
   35.8590   31.0610   35.2390 C   0  0  0  0  0  0  0  0  0  0  0  0
   36.9350   31.0570   35.0120 H   0  0  0  0  0  0  0  0  0  0  0  0
   35.4830   31.7210   36.3870 C   0  0  0  0  0  0  0  0  0  0  0  0
   36.1800   32.2100   37.0390 H   0  0  0  0  0  0  0  0  0  0  0  0
   34.1480   31.7480   36.7080 C   0  0  0  0  0  3  0  0  0  0  0  0
   33.2760   31.1200   35.8680 C   0  0  0  0  0  3  0  0  0  0  0  0
   32.9650   28.5360   33.1040 H   0  0  0  0  0  0  0  0  0  0  0  0
   32.5060   29.6700   33.6740 S   0  0  0  0  0  0  0  0  0  0  0  0
   32.1540   30.6430   32.5650 O   0  0  0  0  0  0  0  0  0  0  0  0
   31.2220   29.4740   34.4520 O   0  0  0  0  0  0  0  0  0  0  0  0
  1  6  1  0  0  0  0
  2  3  1  0  0  0  0
  2  1  2  0  0  0  0
  3  4  2  0  0  0  0
  4  5  1  0  0  0  0
  5 19  1  0  0  0  0
  6  5  2  0  0  0  0
  7  2  1  0  0  0  0
  8  3  1  0  0  0  0
  9 10  1  0  0  0  0
 10  1  1  0  0  0  0
 10 11  2  0  0  0  0
 11 16  1  0  0  0  0
 12 11  1  0  0  0  0
 13 17  1  0  0  0  0
 13 12  2  0  0  0  0
 14  9  2  0  0  0  0
 14 13  1  0  0  0  0
 15  9  1  0  0  0  0
 18 25  1  0  0  0  0
 19 18  2  0  0  0  0
 19 20  1  0  0  0  0
 20 22  2  0  0  0  0
 21 20  1  0  0  0  0
 22 24  1  0  0  0  0
 22 23  1  0  0  0  0
 25 24  2  0  0  0  0
 26 27  1  0  0  0  0
 27 29  2  0  0  0  0
 27 18  1  0  0  0  0
 28 27  2  0  0  0  0
M  END
>  <minimizedAffinity>
-5.19158268

$$$$

 OpenBabel03272502123D

 29 31  0  0  0  0  0  0  0  0999 V2000
   36.2920   23.6030   31.6180 C   0  0  0  0  0  0  0  0  0  0  0  0
   35.3410   24.4860   31.1870 C   0  0  0  0  0  0  0  0  0  0  0  0
   35.4730   25.8760   31.2020 C   0  0  0  0  0  0  0  0  0  0  0  0
   36.6390   26.3650   31.6820 N   0  0  0  0  0  0  0  0  0  0  0  0
   37.6060   25.5120   32.1180 C   0  0  0  0  0  0  0  0  0  0  0  0
   37.4000   24.1970   32.0710 N   0  0  0  0  0  0  0  0  0  0  0  0
   34.3830   24.1340   30.7910 H   0  0  0  0  0  0  0  0  0  0  0  0
   34.7180   26.5490   30.8610 H   0  0  0  0  0  0  0  0  0  0  0  0
   36.9840   21.3030   30.9050 C   0  0  0  0  0  0  0  0  0  0  0  0
   36.1240   22.1900   31.5910 C   0  0  0  0  0  0  0  0  0  0  0  0
   35.0600   21.6190   32.2660 C   0  0  0  0  0  0  0  0  0  0  0  0
   34.8910   20.2700   32.2430 N   0  0  0  0  0  0  0  0  0  0  0  0
   35.7390   19.4590   31.5740 C   0  0  0  0  0  0  0  0  0  0  0  0
   36.7820   19.9800   30.9080 N   0  0  0  0  0  0  0  0  0  0  0  0
   37.8210   21.7480   30.3730 H   0  0  0  0  0  0  0  0  0  0  0  0
   34.3180   22.1560   32.8370 H   0  0  0  0  0  0  0  0  0  0  0  0
   35.5150   18.3990   31.6190 H   0  0  0  0  0  0  0  0  0  0  0  0
   39.0740   26.3500   33.9630 C   0  0  0  0  0  0  0  0  0  0  0  0
   38.8280   26.1250   32.6250 C   0  0  0  0  0  0  0  0  0  0  0  0
   39.8360   26.5320   31.7770 C   0  0  0  0  0  0  0  0  0  0  0  0
   39.6910   26.3760   30.6990 H   0  0  0  0  0  0  0  0  0  0  0  0
   41.0230   27.1210   32.1520 C   0  0  0  0  0  0  0  0  0  0  0  0
   41.7780   27.4190   31.4510 H   0  0  0  0  0  0  0  0  0  0  0  0
   41.2440   27.3330   33.4900 C   0  0  0  0  0  3  0  0  0  0  0  0
   40.2730   26.9470   34.3670 C   0  0  0  0  0  3  0  0  0  0  0  0
   36.6120   26.2020   34.7860 H   0  0  0  0  0  0  0  0  0  0  0  0
   37.8720   25.8800   35.1460 S   0  0  0  0  0  0  0  0  0  0  0  0
   38.1930   26.6120   36.4350 O   0  0  0  0  0  0  0  0  0  0  0  0
   38.0470   24.4110   35.4690 O   0  0  0  0  0  0  0  0  0  0  0  0
  1  6  1  0  0  0  0
  2  3  1  0  0  0  0
  2  1  2  0  0  0  0
  3  4  2  0  0  0  0
  4  5  1  0  0  0  0
  5 19  1  0  0  0  0
  6  5  2  0  0  0  0
  7  2  1  0  0  0  0
  8  3  1  0  0  0  0
  9 14  2  0  0  0  0
  9 10  1  0  0  0  0
 10  1  1  0  0  0  0
 10 11  2  0  0  0  0
 11 16  1  0  0  0  0
 12 11  1  0  0  0  0
 13 17  1  0  0  0  0
 13 12  2  0  0  0  0
 14 13  1  0  0  0  0
 15  9  1  0  0  0  0
 18 25  1  0  0  0  0
 18 27  1  0  0  0  0
 19 18  2  0  0  0  0
 20 22  2  0  0  0  0
 20 19  1  0  0  0  0
 21 20  1  0  0  0  0
 22 24  1  0  0  0  0
 23 22  1  0  0  0  0
 24 25  2  0  0  0  0
 26 27  1  0  0  0  0
 27 29  2  0  0  0  0
 27 28  2  0  0  0  0
M  END
>  <minimizedAffinity>
-5.14596558

$$$$

 OpenBabel03272502123D

 29 31  0  0  0  0  0  0  0  0999 V2000
   36.0440   22.9300   31.8860 C   0  0  0  0  0  0  0  0  0  0  0  0
   35.3210   23.7070   31.0230 C   0  0  0  0  0  0  0  0  0  0  0  0
   35.3990   25.0990   30.9410 C   0  0  0  0  0  0  0  0  0  0  0  0
   36.2610   25.7040   31.7900 N   0  0  0  0  0  0  0  0  0  0  0  0
   36.9950   24.9590   32.6610 C   0  0  0  0  0  0  0  0  0  0  0  0
   36.8610   23.6340   32.6750 N   0  0  0  0  0  0  0  0  0  0  0  0
   34.6130   23.2590   30.3190 H   0  0  0  0  0  0  0  0  0  0  0  0
   34.8260   25.6880   30.2600 H   0  0  0  0  0  0  0  0  0  0  0  0
   36.1420   20.6570   30.8370 C   0  0  0  0  0  0  0  0  0  0  0  0
   35.9390   21.5120   31.9440 C   0  0  0  0  0  0  0  0  0  0  0  0
   35.6190   20.9020   33.1430 C   0  0  0  0  0  0  0  0  0  0  0  0
   35.5140   19.5480   33.2060 N   0  0  0  0  0  0  0  0  0  0  0  0
   35.7170   18.7690   32.1220 C   0  0  0  0  0  0  0  0  0  0  0  0
   36.0290   19.3280   30.9410 N   0  0  0  0  0  0  0  0  0  0  0  0
   36.3940   21.1330   29.8920 H   0  0  0  0  0  0  0  0  0  0  0  0
   35.4360   21.4110   34.0770 H   0  0  0  0  0  0  0  0  0  0  0  0
   35.6090   17.7020   32.2780 H   0  0  0  0  0  0  0  0  0  0  0  0
   39.2130   25.9590   33.2440 C   0  0  0  0  0  0  0  0  0  0  0  0
   37.8930   25.6950   33.5430 C   0  0  0  0  0  0  0  0  0  0  0  0
   37.4690   26.1810   34.7610 C   0  0  0  0  0  0  0  0  0  0  0  0
   36.4240   25.9990   35.0490 H   0  0  0  0  0  0  0  0  0  0  0  0
   38.2340   26.8840   35.6650 C   0  0  0  0  0  0  0  0  0  0  0  0
   37.8550   27.2430   36.6020 H   0  0  0  0  0  0  0  0  0  0  0  0
   39.5460   27.1340   35.3440 C   0  0  0  0  0  3  0  0  0  0  0  0
   40.0100   26.6700   34.1480 C   0  0  0  0  0  3  0  0  0  0  0  0
   39.5040   24.1350   31.4130 H   0  0  0  0  0  0  0  0  0  0  0  0
   39.8780   25.3940   31.7270 S   0  0  0  0  0  0  0  0  0  0  0  0
   41.3890   25.4150   31.8560 O   0  0  0  0  0  0  0  0  0  0  0  0
   39.5580   26.4010   30.6430 O   0  0  0  0  0  0  0  0  0  0  0  0
  1 10  1  0  0  0  0
  1  6  1  0  0  0  0
  2  1  2  0  0  0  0
  3  2  1  0  0  0  0
  3  4  2  0  0  0  0
  4  5  1  0  0  0  0
  5  6  2  0  0  0  0
  5 19  1  0  0  0  0
  7  2  1  0  0  0  0
  8  3  1  0  0  0  0
  9 14  2  0  0  0  0
  9 10  1  0  0  0  0
 10 11  2  0  0  0  0
 11 12  1  0  0  0  0
 11 16  1  0  0  0  0
 13 17  1  0  0  0  0
 13 12  2  0  0  0  0
 14 13  1  0  0  0  0
 15  9  1  0  0  0  0
 18 19  2  0  0  0  0
 18 25  1  0  0  0  0
 19 20  1  0  0  0  0
 20 21  1  0  0  0  0
 20 22  2  0  0  0  0
 22 23  1  0  0  0  0
 24 22  1  0  0  0  0
 25 24  2  0  0  0  0
 26 27  1  0  0  0  0
 27 28  2  0  0  0  0
 27 18  1  0  0  0  0
 29 27  2  0  0  0  0
M  END
>  <minimizedAffinity>
-5.07282162

$$$$

 OpenBabel03272502123D

 29 31  0  0  0  0  0  0  0  0999 V2000
   37.0760   23.3270   31.2460 C   0  0  0  0  0  0  0  0  0  0  0  0
   38.1450   23.5670   30.4260 C   0  0  0  0  0  0  0  0  0  0  0  0
   38.7600   24.8090   30.2560 C   0  0  0  0  0  0  0  0  0  0  0  0
   38.2440   25.8380   30.9650 N   0  0  0  0  0  0  0  0  0  0  0  0
   37.1810   25.6310   31.7900 C   0  0  0  0  0  0  0  0  0  0  0  0
   36.6520   24.4140   31.8950 N   0  0  0  0  0  0  0  0  0  0  0  0
   38.5930   22.7630   29.8340 H   0  0  0  0  0  0  0  0  0  0  0  0
   39.5940   24.9760   29.6100 H   0  0  0  0  0  0  0  0  0  0  0  0
   36.9510   20.8680   30.7800 C   0  0  0  0  0  0  0  0  0  0  0  0
   36.4720   22.0470   31.3940 C   0  0  0  0  0  0  0  0  0  0  0  0
   35.3420   21.9160   32.1820 C   0  0  0  0  0  0  0  0  0  0  0  0
   34.7570   20.6970   32.3270 N   0  0  0  0  0  0  0  0  0  0  0  0
   35.2500   19.5950   31.7210 C   0  0  0  0  0  0  0  0  0  0  0  0
   36.3460   19.6870   30.9490 N   0  0  0  0  0  0  0  0  0  0  0  0
   37.8390   20.9670   30.1590 H   0  0  0  0  0  0  0  0  0  0  0  0
   34.8550   22.7150   32.7190 H   0  0  0  0  0  0  0  0  0  0  0  0
   34.7100   18.6730   31.9020 H   0  0  0  0  0  0  0  0  0  0  0  0
   37.1150   27.1600   33.7700 C   0  0  0  0  0  0  0  0  0  0  0  0
   36.6860   26.7980   32.5110 C   0  0  0  0  0  0  0  0  0  0  0  0
   35.7330   27.6320   31.9650 C   0  0  0  0  0  0  0  0  0  0  0  0
   35.3560   27.3900   30.9610 H   0  0  0  0  0  0  0  0  0  0  0  0
   35.2000   28.7540   32.5600 C   0  0  0  0  0  0  0  0  0  0  0  0
   34.4590   29.3720   32.0910 H   0  0  0  0  0  0  0  0  0  0  0  0
   35.6440   29.0920   33.8150 C   0  0  0  0  0  3  0  0  0  0  0  0
   36.5860   28.2950   34.3950 C   0  0  0  0  0  3  0  0  0  0  0  0
   38.9930   25.3610   33.7410 H   0  0  0  0  0  0  0  0  0  0  0  0
   38.3230   26.1830   34.5760 S   0  0  0  0  0  0  0  0  0  0  0  0
   37.6050   25.3250   35.6010 O   0  0  0  0  0  0  0  0  0  0  0  0
   39.2300   27.0870   35.3820 O   0  0  0  0  0  0  0  0  0  0  0  0
  1 10  1  0  0  0  0
  1  6  1  0  0  0  0
  2  1  2  0  0  0  0
  3  2  1  0  0  0  0
  3  4  2  0  0  0  0
  4  5  1  0  0  0  0
  5  6  2  0  0  0  0
  5 19  1  0  0  0  0
  7  2  1  0  0  0  0
  8  3  1  0  0  0  0
  9 14  2  0  0  0  0
  9 10  1  0  0  0  0
 10 11  2  0  0  0  0
 11 12  1  0  0  0  0
 11 16  1  0  0  0  0
 13 17  1  0  0  0  0
 13 12  2  0  0  0  0
 14 13  1  0  0  0  0
 15  9  1  0  0  0  0
 18 25  1  0  0  0  0
 18 27  1  0  0  0  0
 19 18  2  0  0  0  0
 20 19  1  0  0  0  0
 20 22  2  0  0  0  0
 21 20  1  0  0  0  0
 22 24  1  0  0  0  0
 23 22  1  0  0  0  0
 24 25  2  0  0  0  0
 26 27  1  0  0  0  0
 27 29  2  0  0  0  0
 27 28  2  0  0  0  0
M  END
>  <minimizedAffinity>
-4.99994707

$$$$

 OpenBabel03272502123D

 29 31  0  0  0  0  0  0  0  0999 V2000
   36.7130   29.4160   31.4450 C   0  0  0  0  0  0  0  0  0  0  0  0
   37.0560   28.1400   31.8020 C   0  0  0  0  0  0  0  0  0  0  0  0
   36.7860   27.5560   33.0420 C   0  0  0  0  0  0  0  0  0  0  0  0
   36.1360   28.3270   33.9420 N   0  0  0  0  0  0  0  0  0  0  0  0
   35.7810   29.6010   33.6160 C   0  0  0  0  0  0  0  0  0  0  0  0
   36.0760   30.0830   32.4110 N   0  0  0  0  0  0  0  0  0  0  0  0
   37.5820   27.4810   31.1050 H   0  0  0  0  0  0  0  0  0  0  0  0
   37.0620   26.5580   33.3010 H   0  0  0  0  0  0  0  0  0  0  0  0
   36.7380   31.3230   29.8210 C   0  0  0  0  0  0  0  0  0  0  0  0
   37.0050   29.9800   30.1720 C   0  0  0  0  0  0  0  0  0  0  0  0
   37.5860   29.1920   29.1950 C   0  0  0  0  0  0  0  0  0  0  0  0
   37.8660   29.7240   27.9760 N   0  0  0  0  0  0  0  0  0  0  0  0
   37.5940   31.0140   27.6830 C   0  0  0  0  0  0  0  0  0  0  0  0
   37.0290   31.8080   28.6080 N   0  0  0  0  0  0  0  0  0  0  0  0
   36.2800   31.9460   30.5860 H   0  0  0  0  0  0  0  0  0  0  0  0
   37.8540   28.1520   29.3050 H   0  0  0  0  0  0  0  0  0  0  0  0
   37.8560   31.3380   26.6830 H   0  0  0  0  0  0  0  0  0  0  0  0
   33.7190   30.3940   34.7910 C   0  0  0  0  0  0  0  0  0  0  0  0
   35.0900   30.3630   34.6500 C   0  0  0  0  0  0  0  0  0  0  0  0
   35.7810   31.1200   35.5710 C   0  0  0  0  0  0  0  0  0  0  0  0
   36.8790   31.1300   35.5050 H   0  0  0  0  0  0  0  0  0  0  0  0
   35.2270   31.8740   36.5810 C   0  0  0  0  0  0  0  0  0  0  0  0
   35.8110   32.4470   37.2760 H   0  0  0  0  0  0  0  0  0  0  0  0
   33.8590   31.8880   36.7000 C   0  0  0  0  0  3  0  0  0  0  0  0
   33.1330   31.1540   35.8090 C   0  0  0  0  0  3  0  0  0  0  0  0
   33.3030   28.3300   33.2640 H   0  0  0  0  0  0  0  0  0  0  0  0
   32.7230   29.4760   33.6820 S   0  0  0  0  0  0  0  0  0  0  0  0
   32.4750   30.3470   32.4650 O   0  0  0  0  0  0  0  0  0  0  0  0
   31.3590   29.2650   34.3040 O   0  0  0  0  0  0  0  0  0  0  0  0
  1  2  2  0  0  0  0
  1  6  1  0  0  0  0
  2  3  1  0  0  0  0
  3  8  1  0  0  0  0
  3  4  2  0  0  0  0
  5  4  1  0  0  0  0
  5 19  1  0  0  0  0
  6  5  2  0  0  0  0
  7  2  1  0  0  0  0
  9 10  1  0  0  0  0
  9 15  1  0  0  0  0
 10  1  1  0  0  0  0
 11 16  1  0  0  0  0
 11 10  2  0  0  0  0
 12 11  1  0  0  0  0
 13 12  2  0  0  0  0
 13 14  1  0  0  0  0
 14  9  2  0  0  0  0
 17 13  1  0  0  0  0
 18 25  1  0  0  0  0
 19 18  2  0  0  0  0
 19 20  1  0  0  0  0
 20 22  2  0  0  0  0
 21 20  1  0  0  0  0
 22 24  1  0  0  0  0
 22 23  1  0  0  0  0
 25 24  2  0  0  0  0
 26 27  1  0  0  0  0
 27 29  2  0  0  0  0
 27 18  1  0  0  0  0
 28 27  2  0  0  0  0
M  END
>  <minimizedAffinity>
-4.99886179

$$$$

 OpenBabel03272502123D

 29 31  0  0  0  0  0  0  0  0999 V2000
   36.4070   29.5280   31.0890 C   0  0  0  0  0  0  0  0  0  0  0  0
   35.1930   29.9690   31.5410 C   0  0  0  0  0  0  0  0  0  0  0  0
   34.6030   29.5920   32.7480 C   0  0  0  0  0  0  0  0  0  0  0  0
   35.3010   28.7230   33.5140 N   0  0  0  0  0  0  0  0  0  0  0  0
   36.5120   28.2650   33.0920 C   0  0  0  0  0  0  0  0  0  0  0  0
   37.0050   28.6750   31.9260 N   0  0  0  0  0  0  0  0  0  0  0  0
   34.5950   30.6730   30.9540 H   0  0  0  0  0  0  0  0  0  0  0  0
   33.6540   29.9480   33.0830 H   0  0  0  0  0  0  0  0  0  0  0  0
   36.9280   31.2520   29.3480 C   0  0  0  0  0  0  0  0  0  0  0  0
   36.9790   29.9320   29.8510 C   0  0  0  0  0  0  0  0  0  0  0  0
   37.6330   28.9990   29.0660 C   0  0  0  0  0  0  0  0  0  0  0  0
   38.1810   29.3770   27.8810 N   0  0  0  0  0  0  0  0  0  0  0  0
   38.1080   30.6520   27.4390 C   0  0  0  0  0  0  0  0  0  0  0  0
   37.4810   31.5840   28.1750 N   0  0  0  0  0  0  0  0  0  0  0  0
   36.4140   31.9890   29.9620 H   0  0  0  0  0  0  0  0  0  0  0  0
   37.7610   27.9550   29.3080 H   0  0  0  0  0  0  0  0  0  0  0  0
   38.5770   30.8490   26.4810 H   0  0  0  0  0  0  0  0  0  0  0  0
   37.3770   25.9930   33.6830 C   0  0  0  0  0  0  0  0  0  0  0  0
   37.1910   27.3270   33.9780 C   0  0  0  0  0  0  0  0  0  0  0  0
   37.7000   27.7240   35.1960 C   0  0  0  0  0  0  0  0  0  0  0  0
   37.5800   28.7800   35.4810 H   0  0  0  0  0  0  0  0  0  0  0  0
   38.3550   26.9210   36.1030 C   0  0  0  0  0  0  0  0  0  0  0  0
   38.7340   27.2810   37.0400 H   0  0  0  0  0  0  0  0  0  0  0  0
   38.5270   25.5960   35.7850 C   0  0  0  0  0  3  0  0  0  0  0  0
   38.0390   25.1580   34.5900 C   0  0  0  0  0  3  0  0  0  0  0  0
   35.5650   25.8480   31.8240 H   0  0  0  0  0  0  0  0  0  0  0  0
   36.7760   25.3590   32.1660 S   0  0  0  0  0  0  0  0  0  0  0  0
   36.6480   23.8550   32.3200 O   0  0  0  0  0  0  0  0  0  0  0  0
   37.8280   25.5600   31.0970 O   0  0  0  0  0  0  0  0  0  0  0  0
  1  2  2  0  0  0  0
  1  6  1  0  0  0  0
  2  3  1  0  0  0  0
  3  8  1  0  0  0  0
  3  4  2  0  0  0  0
  5  4  1  0  0  0  0
  5 19  1  0  0  0  0
  6  5  2  0  0  0  0
  7  2  1  0  0  0  0
  9 10  1  0  0  0  0
  9 15  1  0  0  0  0
 10  1  1  0  0  0  0
 11 16  1  0  0  0  0
 11 10  2  0  0  0  0
 12 11  1  0  0  0  0
 13 12  2  0  0  0  0
 13 14  1  0  0  0  0
 14  9  2  0  0  0  0
 17 13  1  0  0  0  0
 18 19  2  0  0  0  0
 18 25  1  0  0  0  0
 19 20  1  0  0  0  0
 20 21  1  0  0  0  0
 20 22  2  0  0  0  0
 22 23  1  0  0  0  0
 24 22  1  0  0  0  0
 25 24  2  0  0  0  0
 26 27  1  0  0  0  0
 27 28  2  0  0  0  0
 27 18  1  0  0  0  0
 29 27  2  0  0  0  0
M  END
>  <minimizedAffinity>
-4.99242496

$$$$
