
 OpenBabel03272502383D

 33 35  0  0  1  0  0  0  0  0999 V2000
   36.4500   27.8750   32.7130 N   0  0  0  0  0  0  0  0  0  0  0  0
   36.6360   29.0010   31.8110 C   0  0  0  0  0  0  0  0  0  0  0  0
   35.7830   30.0760   32.4470 C   0  0  0  0  0  0  0  0  0  0  0  0
   35.1430   29.4410   33.6750 C   0  0  1  0  0  0  0  0  0  0  0  0
   36.1860   28.4300   34.0430 C   0  0  0  0  0  0  0  0  0  0  0  0
   36.2270   28.8090   30.8200 H   0  0  0  0  0  0  0  0  0  0  0  0
   37.7140   29.3160   31.8130 H   0  0  0  0  0  0  0  0  0  0  0  0
   36.4050   30.9200   32.8580 H   0  0  0  0  0  0  0  0  0  0  0  0
   35.0130   30.4640   31.7810 H   0  0  0  0  0  0  0  0  0  0  0  0
   34.2380   28.8550   33.3920 H   0  0  0  0  0  0  0  0  0  0  0  0
   35.7130   27.6230   34.6410 H   0  0  0  0  0  0  0  0  0  0  0  0
   37.1030   28.8140   34.4790 H   0  0  0  0  0  0  0  0  0  0  0  0
   36.5170   26.4950   32.3710 C   0  0  0  0  0  0  0  0  0  0  0  0
   35.6840   26.0420   31.3510 C   0  0  0  0  0  0  0  0  0  0  0  0
   35.7380   24.6940   31.0080 C   0  0  0  0  0  0  0  0  0  0  0  0
   36.6160   23.8970   31.7040 N   0  0  0  0  0  0  0  0  0  0  0  0
   37.4050   24.3720   32.6840 C   0  0  0  0  0  0  0  0  0  0  0  0
   37.3610   25.6770   33.0250 N   0  0  0  0  0  0  0  0  0  0  0  0
   34.9900   26.6580   30.7970 H   0  0  0  0  0  0  0  0  0  0  0  0
   35.1050   24.3170   30.2220 H   0  0  0  0  0  0  0  0  0  0  0  0
   38.0750   23.6720   33.1880 H   0  0  0  0  0  0  0  0  0  0  0  0
   33.6110   30.4150   35.2840 C   0  0  0  0  0  0  0  0  0  0  0  0
   34.9170   30.3670   34.7770 C   0  0  0  0  0  0  0  0  0  0  0  0
   35.8300   31.2040   35.3790 C   0  0  0  0  0  0  0  0  0  0  0  0
   36.8470   31.2020   35.0190 H   0  0  0  0  0  0  0  0  0  0  0  0
   35.5710   32.0700   36.4190 C   0  0  0  0  0  0  0  0  0  0  0  0
   36.3320   32.6980   36.8430 H   0  0  0  0  0  0  0  0  0  0  0  0
   34.2900   32.1250   36.9260 C   0  0  0  0  0  3  0  0  0  0  0  0
   33.3530   31.2970   36.3420 C   0  0  0  0  0  3  0  0  0  0  0  0
   32.7030   28.7740   33.4710 H   0  0  0  0  0  0  0  0  0  0  0  0
   32.3340   29.4070   34.6280 S   0  0  0  0  0  0  0  0  0  0  0  0
   31.7450   28.4810   35.6490 O   0  0  0  0  0  0  0  0  0  0  0  0
   31.2030   30.3350   34.2270 O   0  0  0  0  0  0  0  0  0  0  0  0
  1  5  1  0  0  0  0
  2  7  1  0  0  0  0
  2  3  1  0  0  0  0
  2  1  1  0  0  0  0
  3  8  1  0  0  0  0
  3  4  1  0  0  0  0
  4 10  1  6  0  0  0
  4  5  1  0  0  0  0
  4 23  1  0  0  0  0
  5 12  1  0  0  0  0
  5 11  1  0  0  0  0
  6  2  1  0  0  0  0
  9  3  1  0  0  0  0
 13  1  1  0  0  0  0
 13 18  1  0  0  0  0
 14 13  2  0  0  0  0
 15 14  1  0  0  0  0
 15 16  2  0  0  0  0
 16 17  1  0  0  0  0
 17 18  2  0  0  0  0
 17 21  1  0  0  0  0
 19 14  1  0  0  0  0
 20 15  1  0  0  0  0
 22 29  1  0  0  0  0
 23 22  2  0  0  0  0
 23 24  1  0  0  0  0
 24 26  2  0  0  0  0
 25 24  1  0  0  0  0
 26 27  1  0  0  0  0
 26 28  1  0  0  0  0
 29 28  2  0  0  0  0
 30 31  1  0  0  0  0
 31 22  1  0  0  0  0
 31 32  2  0  0  0  0
 33 31  2  0  0  0  0
M  END
>  <minimizedAffinity>
-5.23317575

$$$$

 OpenBabel03272502383D

 33 35  0  0  1  0  0  0  0  0999 V2000
   36.1810   28.0100   32.5560 N   0  0  0  0  0  0  0  0  0  0  0  0
   36.1700   29.1200   31.6170 C   0  0  0  0  0  0  0  0  0  0  0  0
   35.3640   30.1670   32.3540 C   0  0  0  0  0  0  0  0  0  0  0  0
   34.9480   29.5320   33.6750 C   0  0  1  0  0  0  0  0  0  0  0  0
   36.0870   28.5850   33.9000 C   0  0  0  0  0  0  0  0  0  0  0  0
   35.6300   28.8830   30.7010 H   0  0  0  0  0  0  0  0  0  0  0  0
   37.2180   29.4890   31.4520 H   0  0  0  0  0  0  0  0  0  0  0  0
   35.9940   31.0520   32.6530 H   0  0  0  0  0  0  0  0  0  0  0  0
   34.4840   30.4980   31.8030 H   0  0  0  0  0  0  0  0  0  0  0  0
   34.0450   28.8940   33.5400 H   0  0  0  0  0  0  0  0  0  0  0  0
   35.7520   27.7700   34.5770 H   0  0  0  0  0  0  0  0  0  0  0  0
   37.0370   29.0250   34.1880 H   0  0  0  0  0  0  0  0  0  0  0  0
   36.2710   26.6270   32.2320 C   0  0  0  0  0  0  0  0  0  0  0  0
   37.2320   25.8690   32.8960 C   0  0  0  0  0  0  0  0  0  0  0  0
   37.3310   24.5160   32.5880 C   0  0  0  0  0  0  0  0  0  0  0  0
   36.4680   24.0160   31.6420 N   0  0  0  0  0  0  0  0  0  0  0  0
   35.5520   24.7800   31.0210 C   0  0  0  0  0  0  0  0  0  0  0  0
   35.4470   26.0940   31.3120 N   0  0  0  0  0  0  0  0  0  0  0  0
   37.9150   26.2510   33.6420 H   0  0  0  0  0  0  0  0  0  0  0  0
   38.0650   23.9060   33.0890 H   0  0  0  0  0  0  0  0  0  0  0  0
   34.9040   24.3050   30.2810 H   0  0  0  0  0  0  0  0  0  0  0  0
   33.6170   30.4740   35.4700 C   0  0  0  0  0  0  0  0  0  0  0  0
   34.8380   30.4720   34.7810 C   0  0  0  0  0  0  0  0  0  0  0  0
   35.7870   31.3640   35.2310 C   0  0  0  0  0  0  0  0  0  0  0  0
   36.7410   31.3980   34.7290 H   0  0  0  0  0  0  0  0  0  0  0  0
   35.6380   32.2410   36.2830 C   0  0  0  0  0  0  0  0  0  0  0  0
   36.4220   32.9130   36.5820 H   0  0  0  0  0  0  0  0  0  0  0  0
   34.4410   32.2520   36.9680 C   0  0  0  0  0  3  0  0  0  0  0  0
   33.4720   31.3690   36.5390 C   0  0  0  0  0  3  0  0  0  0  0  0
   32.4830   28.8420   33.7810 H   0  0  0  0  0  0  0  0  0  0  0  0
   32.3090   29.3960   35.0220 S   0  0  0  0  0  0  0  0  0  0  0  0
   32.0030   28.3840   36.0850 O   0  0  0  0  0  0  0  0  0  0  0  0
   31.0580   30.2450   34.9040 O   0  0  0  0  0  0  0  0  0  0  0  0
  1  5  1  0  0  0  0
  2  3  1  0  0  0  0
  2  1  1  0  0  0  0
  3  8  1  0  0  0  0
  3  4  1  0  0  0  0
  4 10  1  6  0  0  0
  4  5  1  0  0  0  0
  4 23  1  0  0  0  0
  5 12  1  0  0  0  0
  5 11  1  0  0  0  0
  6  2  1  0  0  0  0
  7  2  1  0  0  0  0
  9  3  1  0  0  0  0
 13  1  1  0  0  0  0
 13 14  1  0  0  0  0
 14 19  1  0  0  0  0
 15 14  2  0  0  0  0
 15 20  1  0  0  0  0
 16 15  1  0  0  0  0
 17 18  1  0  0  0  0
 17 16  2  0  0  0  0
 18 13  2  0  0  0  0
 21 17  1  0  0  0  0
 22 29  1  0  0  0  0
 23 24  1  0  0  0  0
 23 22  2  0  0  0  0
 24 26  2  0  0  0  0
 25 24  1  0  0  0  0
 26 27  1  0  0  0  0
 26 28  1  0  0  0  0
 29 28  2  0  0  0  0
 30 31  1  0  0  0  0
 31 22  1  0  0  0  0
 31 32  2  0  0  0  0
 33 31  2  0  0  0  0
M  END
>  <minimizedAffinity>
-5.20436144

$$$$

 OpenBabel03272502383D

 33 35  0  0  1  0  0  0  0  0999 V2000
   38.4780   25.4810   33.0610 N   0  0  0  0  0  0  0  0  0  0  0  0
   39.3460   26.5920   33.4180 C   0  0  0  0  0  0  0  0  0  0  0  0
   39.9560   26.1270   34.7220 C   0  0  0  0  0  0  0  0  0  0  0  0
   39.3400   24.7650   35.0180 C   0  0  1  0  0  0  0  0  0  0  0  0
   39.0760   24.2700   33.6290 C   0  0  0  0  0  0  0  0  0  0  0  0
   38.7880   27.5020   33.6300 H   0  0  0  0  0  0  0  0  0  0  0  0
   40.1490   26.7120   32.6410 H   0  0  0  0  0  0  0  0  0  0  0  0
   41.0590   25.9220   34.6230 H   0  0  0  0  0  0  0  0  0  0  0  0
   39.7710   26.8110   35.5500 H   0  0  0  0  0  0  0  0  0  0  0  0
   38.3400   24.8780   35.4960 H   0  0  0  0  0  0  0  0  0  0  0  0
   38.2750   23.5010   33.6650 H   0  0  0  0  0  0  0  0  0  0  0  0
   39.9410   23.9690   33.0460 H   0  0  0  0  0  0  0  0  0  0  0  0
   37.2780   25.5540   32.3000 C   0  0  0  0  0  0  0  0  0  0  0  0
   36.6540   24.3560   31.9620 C   0  0  0  0  0  0  0  0  0  0  0  0
   35.4800   24.4130   31.2160 C   0  0  0  0  0  0  0  0  0  0  0  0
   35.0130   25.6570   30.8620 N   0  0  0  0  0  0  0  0  0  0  0  0
   35.6450   26.7920   31.2070 C   0  0  0  0  0  0  0  0  0  0  0  0
   36.7840   26.7490   31.9290 N   0  0  0  0  0  0  0  0  0  0  0  0
   37.0100   23.3720   32.2350 H   0  0  0  0  0  0  0  0  0  0  0  0
   34.9760   23.5010   30.9420 H   0  0  0  0  0  0  0  0  0  0  0  0
   35.2080   27.7410   30.8850 H   0  0  0  0  0  0  0  0  0  0  0  0
   39.6630   23.1650   36.8120 C   0  0  0  0  0  0  0  0  0  0  0  0
   40.2260   23.8510   35.7270 C   0  0  0  0  0  0  0  0  0  0  0  0
   41.5500   23.5820   35.4630 C   0  0  0  0  0  0  0  0  0  0  0  0
   42.0250   24.0890   34.6380 H   0  0  0  0  0  0  0  0  0  0  0  0
   42.3540   22.7100   36.1650 C   0  0  0  0  0  0  0  0  0  0  0  0
   43.3840   22.5470   35.9050 H   0  0  0  0  0  0  0  0  0  0  0  0
   41.8110   22.0290   37.2340 C   0  0  0  0  0  3  0  0  0  0  0  0
   40.4860   22.2800   37.5220 C   0  0  0  0  0  3  0  0  0  0  0  0
   37.5750   24.6940   37.1340 H   0  0  0  0  0  0  0  0  0  0  0  0
   37.9870   23.3950   37.2740 S   0  0  0  0  0  0  0  0  0  0  0  0
   37.0670   22.4070   36.6240 O   0  0  0  0  0  0  0  0  0  0  0  0
   37.8970   23.1100   38.7610 O   0  0  0  0  0  0  0  0  0  0  0  0
  1  2  1  0  0  0  0
  1  5  1  0  0  0  0
  2  6  1  0  0  0  0
  2  3  1  0  0  0  0
  3  4  1  0  0  0  0
  3  9  1  0  0  0  0
  4 10  1  1  0  0  0
  4 23  1  0  0  0  0
  5 11  1  0  0  0  0
  5  4  1  0  0  0  0
  7  2  1  0  0  0  0
  8  3  1  0  0  0  0
 12  5  1  0  0  0  0
 13  1  1  0  0  0  0
 14 19  1  0  0  0  0
 14 13  1  0  0  0  0
 15 14  2  0  0  0  0
 16 17  2  0  0  0  0
 16 15  1  0  0  0  0
 17 18  1  0  0  0  0
 18 13  2  0  0  0  0
 20 15  1  0  0  0  0
 21 17  1  0  0  0  0
 22 31  1  0  0  0  0
 22 29  1  0  0  0  0
 23 22  2  0  0  0  0
 24 23  1  0  0  0  0
 24 26  2  0  0  0  0
 25 24  1  0  0  0  0
 26 28  1  0  0  0  0
 27 26  1  0  0  0  0
 28 29  2  0  0  0  0
 30 31  1  0  0  0  0
 31 33  2  0  0  0  0
 32 31  2  0  0  0  0
M  END
>  <minimizedAffinity>
-5.18068123

$$$$

 OpenBabel03272502383D

 33 35  0  0  1  0  0  0  0  0999 V2000
   36.7040   23.1850   31.5360 N   0  0  0  0  0  0  0  0  0  0  0  0
   35.9060   24.3610   31.2330 C   0  0  0  0  0  0  0  0  0  0  0  0
   36.5480   25.4260   32.0960 C   0  0  0  0  0  0  0  0  0  0  0  0
   37.6690   24.7340   32.8610 C   0  0  1  0  0  0  0  0  0  0  0  0
   38.0450   23.6560   31.8910 C   0  0  0  0  0  0  0  0  0  0  0  0
   34.8740   24.2580   31.5630 H   0  0  0  0  0  0  0  0  0  0  0  0
   36.0200   24.6280   30.1480 H   0  0  0  0  0  0  0  0  0  0  0  0
   37.0700   26.2110   31.4800 H   0  0  0  0  0  0  0  0  0  0  0  0
   35.8510   25.8920   32.7910 H   0  0  0  0  0  0  0  0  0  0  0  0
   37.2710   24.2090   33.7590 H   0  0  0  0  0  0  0  0  0  0  0  0
   38.5420   22.8300   32.4430 H   0  0  0  0  0  0  0  0  0  0  0  0
   38.5820   23.9670   31.0010 H   0  0  0  0  0  0  0  0  0  0  0  0
   36.2690   21.8300   31.4920 C   0  0  0  0  0  0  0  0  0  0  0  0
   35.1560   21.4850   32.2540 C   0  0  0  0  0  0  0  0  0  0  0  0
   34.7200   20.1640   32.2220 C   0  0  0  0  0  0  0  0  0  0  0  0
   35.4230   19.2830   31.4340 N   0  0  0  0  0  0  0  0  0  0  0  0
   36.4940   19.6550   30.7110 C   0  0  0  0  0  0  0  0  0  0  0  0
   36.9260   20.9330   30.7350 N   0  0  0  0  0  0  0  0  0  0  0  0
   34.5950   22.1680   32.8770 H   0  0  0  0  0  0  0  0  0  0  0  0
   33.8600   19.8700   32.8020 H   0  0  0  0  0  0  0  0  0  0  0  0
   36.9970   18.8930   30.1110 H   0  0  0  0  0  0  0  0  0  0  0  0
   39.3070   25.5440   34.4560 C   0  0  0  0  0  0  0  0  0  0  0  0
   38.8140   25.5890   33.1450 C   0  0  0  0  0  0  0  0  0  0  0  0
   39.4680   26.4400   32.2820 C   0  0  0  0  0  0  0  0  0  0  0  0
   39.1220   26.5080   31.2630 H   0  0  0  0  0  0  0  0  0  0  0  0
   40.5480   27.2360   32.5950 C   0  0  0  0  0  0  0  0  0  0  0  0
   41.0130   27.8800   31.8720 H   0  0  0  0  0  0  0  0  0  0  0  0
   41.0420   27.2000   33.8830 C   0  0  0  0  0  3  0  0  0  0  0  0
   40.4050   26.3560   34.7690 C   0  0  0  0  0  3  0  0  0  0  0  0
   37.4500   23.8830   35.2280 H   0  0  0  0  0  0  0  0  0  0  0  0
   38.5850   24.5080   35.6730 S   0  0  0  0  0  0  0  0  0  0  0  0
   39.5750   23.5680   36.2940 O   0  0  0  0  0  0  0  0  0  0  0  0
   38.1230   25.4090   36.8020 O   0  0  0  0  0  0  0  0  0  0  0  0
  1  5  1  0  0  0  0
  2  1  1  0  0  0  0
  2  6  1  0  0  0  0
  2  3  1  0  0  0  0
  3  9  1  0  0  0  0
  3  4  1  0  0  0  0
  4 23  1  0  0  0  0
  4 10  1  1  0  0  0
  5 11  1  0  0  0  0
  5  4  1  0  0  0  0
  7  2  1  0  0  0  0
  8  3  1  0  0  0  0
 12  5  1  0  0  0  0
 13  1  1  0  0  0  0
 13 14  1  0  0  0  0
 14 19  1  0  0  0  0
 15 14  2  0  0  0  0
 15 20  1  0  0  0  0
 16 15  1  0  0  0  0
 17 18  1  0  0  0  0
 17 16  2  0  0  0  0
 18 13  2  0  0  0  0
 21 17  1  0  0  0  0
 22 29  1  0  0  0  0
 22 31  1  0  0  0  0
 23 22  2  0  0  0  0
 24 26  2  0  0  0  0
 24 23  1  0  0  0  0
 25 24  1  0  0  0  0
 26 28  1  0  0  0  0
 27 26  1  0  0  0  0
 28 29  2  0  0  0  0
 30 31  1  0  0  0  0
 31 32  2  0  0  0  0
 31 33  2  0  0  0  0
M  END
>  <minimizedAffinity>
-4.85551119

$$$$

 OpenBabel03272502383D

 33 35  0  0  1  0  0  0  0  0999 V2000
   37.2740   26.0220   32.9730 N   0  0  0  0  0  0  0  0  0  0  0  0
   37.0390   24.6730   32.4850 C   0  0  0  0  0  0  0  0  0  0  0  0
   37.8110   23.8270   33.4740 C   0  0  0  0  0  0  0  0  0  0  0  0
   38.4620   24.7990   34.4490 C   0  0  1  0  0  0  0  0  0  0  0  0
   37.4750   25.9260   34.4210 C   0  0  0  0  0  0  0  0  0  0  0  0
   37.4800   24.5040   31.5040 H   0  0  0  0  0  0  0  0  0  0  0  0
   35.9440   24.4320   32.5470 H   0  0  0  0  0  0  0  0  0  0  0  0
   37.1290   23.1990   34.1150 H   0  0  0  0  0  0  0  0  0  0  0  0
   38.5690   23.2020   33.0040 H   0  0  0  0  0  0  0  0  0  0  0  0
   39.4060   25.2110   34.0260 H   0  0  0  0  0  0  0  0  0  0  0  0
   37.9840   26.8610   34.7390 H   0  0  0  0  0  0  0  0  0  0  0  0
   36.5270   25.7560   34.9210 H   0  0  0  0  0  0  0  0  0  0  0  0
   37.2990   27.2130   32.1930 C   0  0  0  0  0  0  0  0  0  0  0  0
   36.4770   28.2640   32.5920 C   0  0  0  0  0  0  0  0  0  0  0  0
   36.4910   29.4330   31.8370 C   0  0  0  0  0  0  0  0  0  0  0  0
   37.3210   29.4710   30.7420 N   0  0  0  0  0  0  0  0  0  0  0  0
   38.1010   28.4350   30.3880 C   0  0  0  0  0  0  0  0  0  0  0  0
   38.0950   27.2960   31.1120 N   0  0  0  0  0  0  0  0  0  0  0  0
   35.8210   28.2460   33.4510 H   0  0  0  0  0  0  0  0  0  0  0  0
   35.8650   30.2620   32.1250 H   0  0  0  0  0  0  0  0  0  0  0  0
   38.7320   28.5460   29.5030 H   0  0  0  0  0  0  0  0  0  0  0  0
   39.7920   23.5820   36.0710 C   0  0  0  0  0  0  0  0  0  0  0  0
   38.6070   24.2800   35.8020 C   0  0  0  0  0  0  0  0  0  0  0  0
   37.7190   24.3880   36.8490 C   0  0  0  0  0  0  0  0  0  0  0  0
   36.7930   24.9160   36.6870 H   0  0  0  0  0  0  0  0  0  0  0  0
   37.8960   23.8760   38.1160 C   0  0  0  0  0  0  0  0  0  0  0  0
   37.1600   23.9970   38.8900 H   0  0  0  0  0  0  0  0  0  0  0  0
   39.0580   23.1880   38.3920 C   0  0  0  0  0  3  0  0  0  0  0  0
   39.9670   23.0630   37.3610 C   0  0  0  0  0  3  0  0  0  0  0  0
   40.4980   23.1140   33.6040 H   0  0  0  0  0  0  0  0  0  0  0  0
   41.0260   23.3610   34.8440 S   0  0  0  0  0  0  0  0  0  0  0  0
   42.0480   24.4570   34.8460 O   0  0  0  0  0  0  0  0  0  0  0  0
   41.7880   22.1000   35.2060 O   0  0  0  0  0  0  0  0  0  0  0  0
  1  5  1  0  0  0  0
  2  7  1  0  0  0  0
  2  1  1  0  0  0  0
  2  3  1  0  0  0  0
  3  8  1  0  0  0  0
  3  4  1  0  0  0  0
  4 10  1  6  0  0  0
  4 23  1  0  0  0  0
  5  4  1  0  0  0  0
  5 11  1  0  0  0  0
  5 12  1  0  0  0  0
  6  2  1  0  0  0  0
  9  3  1  0  0  0  0
 13 14  1  0  0  0  0
 13  1  1  0  0  0  0
 14 19  1  0  0  0  0
 15 20  1  0  0  0  0
 15 14  2  0  0  0  0
 16 15  1  0  0  0  0
 17 16  2  0  0  0  0
 17 18  1  0  0  0  0
 18 13  2  0  0  0  0
 21 17  1  0  0  0  0
 22 29  1  0  0  0  0
 23 22  2  0  0  0  0
 23 24  1  0  0  0  0
 24 26  2  0  0  0  0
 25 24  1  0  0  0  0
 26 28  1  0  0  0  0
 26 27  1  0  0  0  0
 29 28  2  0  0  0  0
 30 31  1  0  0  0  0
 31 32  2  0  0  0  0
 31 33  2  0  0  0  0
 31 22  1  0  0  0  0
M  END
>  <minimizedAffinity>
-4.76457071

$$$$

 OpenBabel03272502383D

 33 35  0  0  1  0  0  0  0  0999 V2000
   38.4280   24.1870   34.4480 N   0  0  0  0  0  0  0  0  0  0  0  0
   37.8730   23.3210   33.4210 C   0  0  0  0  0  0  0  0  0  0  0  0
   37.1980   24.3040   32.4900 C   0  0  0  0  0  0  0  0  0  0  0  0
   37.4070   25.6830   33.1030 C   0  0  1  0  0  0  0  0  0  0  0  0
   38.7100   25.4780   33.8140 C   0  0  0  0  0  0  0  0  0  0  0  0
   37.0990   22.6610   33.8090 H   0  0  0  0  0  0  0  0  0  0  0  0
   38.7040   22.7910   32.8820 H   0  0  0  0  0  0  0  0  0  0  0  0
   37.7130   24.3590   31.4900 H   0  0  0  0  0  0  0  0  0  0  0  0
   36.1340   24.1090   32.3580 H   0  0  0  0  0  0  0  0  0  0  0  0
   36.6540   25.8810   33.9000 H   0  0  0  0  0  0  0  0  0  0  0  0
   38.7980   26.2260   34.6310 H   0  0  0  0  0  0  0  0  0  0  0  0
   39.5980   25.4050   33.1940 H   0  0  0  0  0  0  0  0  0  0  0  0
   38.6580   23.8470   35.8110 C   0  0  0  0  0  0  0  0  0  0  0  0
   37.7470   24.3130   36.7560 C   0  0  0  0  0  0  0  0  0  0  0  0
   37.9610   23.9890   38.0920 C   0  0  0  0  0  0  0  0  0  0  0  0
   39.0650   23.2250   38.3910 N   0  0  0  0  0  0  0  0  0  0  0  0
   39.9220   22.7930   37.4500 C   0  0  0  0  0  0  0  0  0  0  0  0
   39.7250   23.1020   36.1510 N   0  0  0  0  0  0  0  0  0  0  0  0
   36.8760   24.9140   36.5340 H   0  0  0  0  0  0  0  0  0  0  0  0
   37.2710   24.3370   38.8430 H   0  0  0  0  0  0  0  0  0  0  0  0
   40.7760   22.1910   37.7700 H   0  0  0  0  0  0  0  0  0  0  0  0
   36.9580   27.9880   32.4970 C   0  0  0  0  0  0  0  0  0  0  0  0
   37.5210   26.7590   32.1280 C   0  0  0  0  0  0  0  0  0  0  0  0
   38.1110   26.7140   30.8840 C   0  0  0  0  0  0  0  0  0  0  0  0
   38.5560   25.7880   30.5580 H   0  0  0  0  0  0  0  0  0  0  0  0
   38.1930   27.7590   29.9890 C   0  0  0  0  0  0  0  0  0  0  0  0
   38.6690   27.6550   29.0320 H   0  0  0  0  0  0  0  0  0  0  0  0
   37.6420   28.9730   30.3430 C   0  0  0  0  0  3  0  0  0  0  0  0
   37.0430   29.0470   31.5830 C   0  0  0  0  0  3  0  0  0  0  0  0
   35.2240   27.2520   34.3020 H   0  0  0  0  0  0  0  0  0  0  0  0
   36.1720   28.2080   34.0500 S   0  0  0  0  0  0  0  0  0  0  0  0
   37.1500   28.3840   35.1730 O   0  0  0  0  0  0  0  0  0  0  0  0
   35.4060   29.5150   33.9750 O   0  0  0  0  0  0  0  0  0  0  0  0
  1 13  1  0  0  0  0
  2  6  1  0  0  0  0
  2  1  1  0  0  0  0
  3  4  1  0  0  0  0
  3  2  1  0  0  0  0
  4  5  1  0  0  0  0
  4 10  1  1  0  0  0
  5  1  1  0  0  0  0
  5 11  1  0  0  0  0
  7  2  1  0  0  0  0
  8  3  1  0  0  0  0
  9  3  1  0  0  0  0
 12  5  1  0  0  0  0
 13 18  2  0  0  0  0
 13 14  1  0  0  0  0
 14 15  2  0  0  0  0
 15 16  1  0  0  0  0
 15 20  1  0  0  0  0
 17 21  1  0  0  0  0
 17 16  2  0  0  0  0
 18 17  1  0  0  0  0
 19 14  1  0  0  0  0
 22 31  1  0  0  0  0
 23 22  1  0  0  0  0
 23  4  1  0  0  0  0
 24 23  2  0  0  0  0
 25 24  1  0  0  0  0
 26 28  2  0  0  0  0
 26 24  1  0  0  0  0
 27 26  1  0  0  0  0
 28 29  1  0  0  0  0
 29 22  2  0  0  0  0
 31 30  1  0  0  0  0
 31 32  2  0  0  0  0
 33 31  2  0  0  0  0
M  END
>  <minimizedAffinity>
-4.72492743

$$$$

 OpenBabel03272502383D

 33 35  0  0  1  0  0  0  0  0999 V2000
   36.8330   25.6140   31.0610 N   0  0  0  0  0  0  0  0  0  0  0  0
   37.9700   24.9960   30.3990 C   0  0  0  0  0  0  0  0  0  0  0  0
   38.0310   23.6330   31.0530 C   0  0  0  0  0  0  0  0  0  0  0  0
   36.9080   23.6050   32.0840 C   0  0  1  0  0  0  0  0  0  0  0  0
   35.9210   24.5340   31.4460 C   0  0  0  0  0  0  0  0  0  0  0  0
   38.9070   25.5030   30.6240 H   0  0  0  0  0  0  0  0  0  0  0  0
   37.7570   24.8850   29.3020 H   0  0  0  0  0  0  0  0  0  0  0  0
   37.7730   22.8070   30.3330 H   0  0  0  0  0  0  0  0  0  0  0  0
   38.9870   23.4300   31.5350 H   0  0  0  0  0  0  0  0  0  0  0  0
   37.2260   24.1020   33.0290 H   0  0  0  0  0  0  0  0  0  0  0  0
   35.2490   24.9420   32.2300 H   0  0  0  0  0  0  0  0  0  0  0  0
   35.3930   24.1600   30.5740 H   0  0  0  0  0  0  0  0  0  0  0  0
   36.6380   27.0060   31.2890 C   0  0  0  0  0  0  0  0  0  0  0  0
   36.4390   27.4230   32.6020 C   0  0  0  0  0  0  0  0  0  0  0  0
   36.2460   28.7810   32.8390 C   0  0  0  0  0  0  0  0  0  0  0  0
   36.2650   29.6230   31.7520 N   0  0  0  0  0  0  0  0  0  0  0  0
   36.4600   29.1820   30.4980 C   0  0  0  0  0  0  0  0  0  0  0  0
   36.6480   27.8670   30.2560 N   0  0  0  0  0  0  0  0  0  0  0  0
   36.4230   26.7710   33.4650 H   0  0  0  0  0  0  0  0  0  0  0  0
   36.0910   29.1310   33.8470 H   0  0  0  0  0  0  0  0  0  0  0  0
   36.4610   29.9170   29.6890 H   0  0  0  0  0  0  0  0  0  0  0  0
   36.7010   21.6140   33.4520 C   0  0  0  0  0  0  0  0  0  0  0  0
   36.3170   22.2900   32.2860 C   0  0  0  0  0  0  0  0  0  0  0  0
   35.4280   21.6270   31.4690 C   0  0  0  0  0  0  0  0  0  0  0  0
   35.1060   22.1090   30.5590 H   0  0  0  0  0  0  0  0  0  0  0  0
   34.8960   20.3770   31.6970 C   0  0  0  0  0  0  0  0  0  0  0  0
   34.2050   19.9160   31.0160 H   0  0  0  0  0  0  0  0  0  0  0  0
   35.2670   19.7030   32.8420 C   0  0  0  0  0  3  0  0  0  0  0  0
   36.1560   20.3430   33.6800 C   0  0  0  0  0  3  0  0  0  0  0  0
   37.9070   23.6860   34.4780 H   0  0  0  0  0  0  0  0  0  0  0  0
   37.8220   22.3250   34.5980 S   0  0  0  0  0  0  0  0  0  0  0  0
   37.5800   21.8670   36.0050 O   0  0  0  0  0  0  0  0  0  0  0  0
   39.2040   21.8100   34.2400 O   0  0  0  0  0  0  0  0  0  0  0  0
  1 13  1  0  0  0  0
  1  5  1  0  0  0  0
  2  6  1  0  0  0  0
  2  3  1  0  0  0  0
  2  1  1  0  0  0  0
  3  9  1  0  0  0  0
  3  4  1  0  0  0  0
  4 23  1  0  0  0  0
  4 10  1  1  0  0  0
  5  4  1  0  0  0  0
  5 11  1  0  0  0  0
  7  2  1  0  0  0  0
  8  3  1  0  0  0  0
 12  5  1  0  0  0  0
 13 14  1  0  0  0  0
 14 15  2  0  0  0  0
 14 19  1  0  0  0  0
 15 20  1  0  0  0  0
 16 15  1  0  0  0  0
 17 16  2  0  0  0  0
 18 17  1  0  0  0  0
 18 13  2  0  0  0  0
 21 17  1  0  0  0  0
 22 29  1  0  0  0  0
 22 31  1  0  0  0  0
 23 22  2  0  0  0  0
 24 26  2  0  0  0  0
 24 23  1  0  0  0  0
 25 24  1  0  0  0  0
 26 28  1  0  0  0  0
 27 26  1  0  0  0  0
 28 29  2  0  0  0  0
 30 31  1  0  0  0  0
 31 32  2  0  0  0  0
 33 31  2  0  0  0  0
M  END
>  <minimizedAffinity>
-4.71126461

$$$$

 OpenBabel03272502383D

 33 35  0  0  1  0  0  0  0  0999 V2000
   37.4260   25.8390   33.1290 N   0  0  0  0  0  0  0  0  0  0  0  0
   36.6650   25.3450   31.9930 C   0  0  0  0  0  0  0  0  0  0  0  0
   35.9220   26.5800   31.5320 C   0  0  0  0  0  0  0  0  0  0  0  0
   36.3110   27.6950   32.4950 C   0  0  1  0  0  0  0  0  0  0  0  0
   37.6910   27.2590   32.8830 C   0  0  0  0  0  0  0  0  0  0  0  0
   35.9180   24.6080   32.2820 H   0  0  0  0  0  0  0  0  0  0  0  0
   37.3680   24.9990   31.1870 H   0  0  0  0  0  0  0  0  0  0  0  0
   36.2800   26.9380   30.5260 H   0  0  0  0  0  0  0  0  0  0  0  0
   34.8400   26.4510   31.5250 H   0  0  0  0  0  0  0  0  0  0  0  0
   35.7030   27.6440   33.4270 H   0  0  0  0  0  0  0  0  0  0  0  0
   37.9520   27.7120   33.8630 H   0  0  0  0  0  0  0  0  0  0  0  0
   38.4670   27.3710   32.1330 H   0  0  0  0  0  0  0  0  0  0  0  0
   37.8390   25.0860   34.2640 C   0  0  0  0  0  0  0  0  0  0  0  0
   37.7650   25.7030   35.5100 C   0  0  0  0  0  0  0  0  0  0  0  0
   38.1670   24.9790   36.6290 C   0  0  0  0  0  0  0  0  0  0  0  0
   38.6130   23.6940   36.4250 N   0  0  0  0  0  0  0  0  0  0  0  0
   38.6700   23.1320   35.2050 C   0  0  0  0  0  0  0  0  0  0  0  0
   38.2830   23.8250   34.1140 N   0  0  0  0  0  0  0  0  0  0  0  0
   37.4150   26.7120   35.6830 H   0  0  0  0  0  0  0  0  0  0  0  0
   38.1180   25.4330   37.6050 H   0  0  0  0  0  0  0  0  0  0  0  0
   39.0370   22.1060   35.1300 H   0  0  0  0  0  0  0  0  0  0  0  0
   35.8990   30.0760   32.6980 C   0  0  0  0  0  0  0  0  0  0  0  0
   36.3450   29.0200   31.8910 C   0  0  0  0  0  0  0  0  0  0  0  0
   36.7570   29.3610   30.6230 C   0  0  0  0  0  0  0  0  0  0  0  0
   37.1070   28.5800   29.9660 H   0  0  0  0  0  0  0  0  0  0  0  0
   36.7680   30.6320   30.0900 C   0  0  0  0  0  0  0  0  0  0  0  0
   37.1040   30.8290   29.0880 H   0  0  0  0  0  0  0  0  0  0  0  0
   36.3320   31.6790   30.8740 C   0  0  0  0  0  3  0  0  0  0  0  0
   35.9120   31.3660   32.1510 C   0  0  0  0  0  3  0  0  0  0  0  0
   35.6310   28.5460   34.7930 H   0  0  0  0  0  0  0  0  0  0  0  0
   35.3450   29.8060   34.3400 S   0  0  0  0  0  0  0  0  0  0  0  0
   35.7790   30.8880   35.2820 O   0  0  0  0  0  0  0  0  0  0  0  0
   33.8300   29.8820   34.3120 O   0  0  0  0  0  0  0  0  0  0  0  0
  1 13  1  0  0  0  0
  2  6  1  0  0  0  0
  2  1  1  0  0  0  0
  3  2  1  0  0  0  0
  3  4  1  0  0  0  0
  4  5  1  0  0  0  0
  4 10  1  1  0  0  0
  5  1  1  0  0  0  0
  5 11  1  0  0  0  0
  7  2  1  0  0  0  0
  8  3  1  0  0  0  0
  9  3  1  0  0  0  0
 12  5  1  0  0  0  0
 13 14  1  0  0  0  0
 14 19  1  0  0  0  0
 14 15  2  0  0  0  0
 15 20  1  0  0  0  0
 16 15  1  0  0  0  0
 17 16  2  0  0  0  0
 18 13  2  0  0  0  0
 18 17  1  0  0  0  0
 21 17  1  0  0  0  0
 22 31  1  0  0  0  0
 23  4  1  0  0  0  0
 23 22  2  0  0  0  0
 24 23  1  0  0  0  0
 25 24  1  0  0  0  0
 26 24  2  0  0  0  0
 26 28  1  0  0  0  0
 27 26  1  0  0  0  0
 28 29  2  0  0  0  0
 29 22  1  0  0  0  0
 31 30  1  0  0  0  0
 31 32  2  0  0  0  0
 33 31  2  0  0  0  0
M  END
>  <minimizedAffinity>
-4.65456915

$$$$

 OpenBabel03272502383D

 33 35  0  0  1  0  0  0  0  0999 V2000
   35.9270   29.0330   32.1350 N   0  0  0  0  0  0  0  0  0  0  0  0
   36.5490   28.1800   33.1340 C   0  0  0  0  0  0  0  0  0  0  0  0
   35.9540   28.6960   34.4260 C   0  0  0  0  0  0  0  0  0  0  0  0
   35.0410   29.8530   34.0410 C   0  0  1  0  0  0  0  0  0  0  0  0
   34.6210   29.4320   32.6660 C   0  0  0  0  0  0  0  0  0  0  0  0
   37.6260   28.3290   33.1940 H   0  0  0  0  0  0  0  0  0  0  0  0
   36.2390   27.1130   32.9690 H   0  0  0  0  0  0  0  0  0  0  0  0
   35.2670   27.9430   34.9050 H   0  0  0  0  0  0  0  0  0  0  0  0
   36.7050   29.0320   35.1400 H   0  0  0  0  0  0  0  0  0  0  0  0
   35.6260   30.7910   33.9050 H   0  0  0  0  0  0  0  0  0  0  0  0
   34.3000   30.3290   32.0940 H   0  0  0  0  0  0  0  0  0  0  0  0
   33.9210   28.6040   32.6020 H   0  0  0  0  0  0  0  0  0  0  0  0
   36.4790   29.4080   30.8780 C   0  0  0  0  0  0  0  0  0  0  0  0
   36.4760   30.7610   30.5490 C   0  0  0  0  0  0  0  0  0  0  0  0
   37.0110   31.1410   29.3220 C   0  0  0  0  0  0  0  0  0  0  0  0
   37.5100   30.1480   28.5120 N   0  0  0  0  0  0  0  0  0  0  0  0
   37.4950   28.8510   28.8650 C   0  0  0  0  0  0  0  0  0  0  0  0
   36.9780   28.4700   30.0530 N   0  0  0  0  0  0  0  0  0  0  0  0
   36.0870   31.5510   31.1770 H   0  0  0  0  0  0  0  0  0  0  0  0
   37.0210   32.1820   29.0430 H   0  0  0  0  0  0  0  0  0  0  0  0
   37.9110   28.1230   28.1640 H   0  0  0  0  0  0  0  0  0  0  0  0
   33.9050   31.1050   35.7790 C   0  0  0  0  0  0  0  0  0  0  0  0
   33.8790   30.0100   34.9050 C   0  0  0  0  0  0  0  0  0  0  0  0
   32.7600   29.2110   34.9710 C   0  0  0  0  0  0  0  0  0  0  0  0
   32.6980   28.3550   34.3170 H   0  0  0  0  0  0  0  0  0  0  0  0
   31.6820   29.3950   35.8100 C   0  0  0  0  0  0  0  0  0  0  0  0
   30.8380   28.7300   35.8100 H   0  0  0  0  0  0  0  0  0  0  0  0
   31.6970   30.4690   36.6740 C   0  0  0  0  0  3  0  0  0  0  0  0
   32.8060   31.2880   36.6310 C   0  0  0  0  0  3  0  0  0  0  0  0
   36.4640   31.5830   35.9440 H   0  0  0  0  0  0  0  0  0  0  0  0
   35.2580   32.2200   35.8150 S   0  0  0  0  0  0  0  0  0  0  0  0
   35.2260   33.2050   34.6850 O   0  0  0  0  0  0  0  0  0  0  0  0
   35.1130   33.0510   37.0760 O   0  0  0  0  0  0  0  0  0  0  0  0
  1  5  1  0  0  0  0
  1  2  1  0  0  0  0
  2  6  1  0  0  0  0
  2  3  1  0  0  0  0
  3  8  1  0  0  0  0
  3  9  1  0  0  0  0
  4 10  1  6  0  0  0
  4  3  1  0  0  0  0
  4 23  1  0  0  0  0
  5  4  1  0  0  0  0
  7  2  1  0  0  0  0
 11  5  1  0  0  0  0
 12  5  1  0  0  0  0
 13  1  1  0  0  0  0
 14 13  1  0  0  0  0
 14 19  1  0  0  0  0
 15 14  2  0  0  0  0
 16 17  2  0  0  0  0
 16 15  1  0  0  0  0
 17 18  1  0  0  0  0
 18 13  2  0  0  0  0
 20 15  1  0  0  0  0
 21 17  1  0  0  0  0
 22 31  1  0  0  0  0
 22 29  1  0  0  0  0
 23 24  1  0  0  0  0
 23 22  2  0  0  0  0
 24 26  2  0  0  0  0
 25 24  1  0  0  0  0
 26 27  1  0  0  0  0
 26 28  1  0  0  0  0
 29 28  2  0  0  0  0
 31 30  1  0  0  0  0
 31 33  2  0  0  0  0
 32 31  2  0  0  0  0
M  END
>  <minimizedAffinity>
-4.65284681

$$$$
