
 OpenBabel03262520473D

 37 39  0  0  1  0  0  0  0  0999 V2000
   38.8210   32.4050   46.7940 C   0  0  1  0  0  0  0  0  0  0  0  0
   40.0310   33.2050   46.2910 C   0  0  0  0  0  0  0  0  0  0  0  0
   40.0500   31.7400   46.3240 C   0  0  2  0  0  0  0  0  0  0  0  0
   37.9470   32.4500   46.1360 H   0  0  0  0  0  0  0  0  0  0  0  0
   39.9090   33.7610   45.3460 H   0  0  0  0  0  0  0  0  0  0  0  0
   40.6280   33.7730   47.0390 H   0  0  0  0  0  0  0  0  0  0  0  0
   40.6740   31.2890   47.1480 H   0  0  0  0  0  0  0  0  0  0  0  0
   38.5550   32.5740   48.2730 C   0  0  0  0  0  0  0  0  0  0  0  0
   39.5250   32.7400   48.7870 H   0  0  0  0  0  0  0  0  0  0  0  0
   37.9330   33.4950   48.3800 H   0  0  0  0  0  0  0  0  0  0  0  0
   37.5420   29.9190   50.7120 C   0  0  0  0  0  0  0  0  0  0  0  0
   38.1930   31.0490   50.1300 C   0  0  0  0  0  0  0  0  0  0  0  0
   37.8580   31.3960   48.8410 C   0  0  0  0  0  0  0  0  0  0  0  0
   36.9360   30.6680   48.1770 N   0  0  0  0  0  0  0  0  0  0  0  0
   36.3310   29.6030   48.7400 C   0  0  0  0  0  0  0  0  0  0  0  0
   36.6370   29.2370   49.9990 N   0  0  0  0  0  0  0  0  0  0  0  0
   37.8320   29.6840   51.7130 H   0  0  0  0  0  0  0  0  0  0  0  0
   38.9300   31.6130   50.6900 H   0  0  0  0  0  0  0  0  0  0  0  0
   35.5940   29.0310   48.1920 H   0  0  0  0  0  0  0  0  0  0  0  0
   39.8940   30.8870   45.0930 C   0  0  0  0  0  0  0  0  0  0  0  0
   40.4400   29.9180   45.2610 H   0  0  0  0  0  0  0  0  0  0  0  0
   38.8490   30.5930   44.9470 H   0  0  0  0  0  0  0  0  0  0  0  0
   40.5220   31.4800   43.8630 C   0  0  0  0  0  0  0  0  0  0  0  0
   41.6320   31.4960   44.0850 H   0  0  0  0  0  0  0  0  0  0  0  0
   40.2820   32.5510   43.7190 H   0  0  0  0  0  0  0  0  0  0  0  0
   39.4180   30.8660   41.6910 C   0  0  0  0  0  0  0  0  0  0  0  0
   40.3660   30.6300   42.6810 C   0  0  0  0  0  0  0  0  0  0  0  0
   41.1510   29.5100   42.4380 C   0  0  0  0  0  0  0  0  0  0  0  0
   41.9050   29.3100   43.2160 H   0  0  0  0  0  0  0  0  0  0  0  0
   41.1040   28.6370   41.3750 C   0  0  0  0  0  0  0  0  0  0  0  0
   41.7900   27.8140   41.3430 H   0  0  0  0  0  0  0  0  0  0  0  0
   40.1380   28.9280   40.4250 C   0  0  0  0  0  3  0  0  0  0  0  0
   39.2990   30.0300   40.5730 C   0  0  0  0  0  3  0  0  0  0  0  0
   37.5310   32.1470   40.6640 H   0  0  0  0  0  0  0  0  0  0  0  0
   38.3400   32.2030   41.7980 S   0  0  0  0  0  0  0  0  0  0  0  0
   37.3420   32.0750   42.9400 O   0  0  0  0  0  0  0  0  0  0  0  0
   38.9560   33.5450   41.7550 O   0  0  0  0  0  0  0  0  0  0  0  0
  1  4  1  6  0  0  0
  1  8  1  0  0  0  0
  2  3  1  0  0  0  0
  2  1  1  0  0  0  0
  2  6  1  0  0  0  0
  3  1  1  0  0  0  0
  3  7  1  1  0  0  0
  5  2  1  0  0  0  0
  8 10  1  0  0  0  0
  8  9  1  0  0  0  0
  8 13  1  0  0  0  0
 11 17  1  0  0  0  0
 12 18  1  0  0  0  0
 12 11  1  0  0  0  0
 13 12  2  0  0  0  0
 14 15  2  0  0  0  0
 14 13  1  0  0  0  0
 15 16  1  0  0  0  0
 16 11  2  0  0  0  0
 19 15  1  0  0  0  0
 20 21  1  0  0  0  0
 20  3  1  0  0  0  0
 22 20  1  0  0  0  0
 23 24  1  0  0  0  0
 23 20  1  0  0  0  0
 25 23  1  0  0  0  0
 26 35  1  0  0  0  0
 26 27  1  0  0  0  0
 27 23  1  0  0  0  0
 28 27  2  0  0  0  0
 28 29  1  0  0  0  0
 30 28  1  0  0  0  0
 31 30  1  0  0  0  0
 32 33  1  0  0  0  0
 32 30  2  0  0  0  0
 33 26  2  0  0  0  0
 34 35  1  0  0  0  0
 35 36  2  0  0  0  0
 37 35  2  0  0  0  0
M  END
>  <minimizedAffinity>
-5.15312767

>  <minimizedRMSD>
1.10041189

$$$$
