
 OpenBabel03272504093D

 36 38  0  0  0  0  0  0  0  0999 V2000
   37.5410   30.3040   50.1760 C   0  0  0  0  0  0  0  0  0  0  0  0
   37.0450   30.5820   48.9160 C   0  0  0  0  0  0  0  0  0  0  0  0
   35.6820   30.3160   48.6170 C   0  0  0  0  0  0  0  0  0  0  0  0
   34.9350   29.7950   49.6060 N   0  0  0  0  0  0  0  0  0  0  0  0
   35.4500   29.5300   50.8460 C   0  0  0  0  0  0  0  0  0  0  0  0
   36.7400   29.7860   51.1130 N   0  0  0  0  0  0  0  0  0  0  0  0
   34.5700   28.9810   51.8300 N   0  0  0  0  0  0  0  0  0  0  0  0
   38.6030   30.5220   50.3810 H   0  0  0  0  0  0  0  0  0  0  0  0
   34.2030   28.0230   51.8780 H   0  0  0  0  0  0  0  0  0  0  0  0
   34.3880   29.7900   52.4890 H   0  0  0  0  0  0  0  0  0  0  0  0
   38.0700   33.4370   49.1940 Cl  0  0  0  0  0  0  0  0  0  0  0  0
   38.5290   32.4100   47.8660 C   0  0  0  0  0  0  0  0  0  0  0  0
   37.9740   31.1610   47.9200 C   0  0  0  0  0  0  0  0  0  0  0  0
   38.2980   30.2620   46.8950 C   0  0  0  0  0  0  0  0  0  0  0  0
   39.1220   30.5830   45.8740 C   0  0  0  0  0  0  0  0  0  0  0  0
   39.6730   31.8590   45.8400 C   0  0  0  0  0  0  0  0  0  0  0  0
   40.7450   32.3320   44.5490 Cl  0  0  0  0  0  0  0  0  0  0  0  0
   39.3730   32.7390   46.8210 C   0  0  0  0  0  0  0  0  0  0  0  0
   37.9370   29.2440   46.8340 H   0  0  0  0  0  0  0  0  0  0  0  0
   39.4070   29.9250   45.0540 H   0  0  0  0  0  0  0  0  0  0  0  0
   39.7760   33.7660   46.8520 H   0  0  0  0  0  0  0  0  0  0  0  0
   35.1810   30.6380   47.2840 C   0  0  0  0  0  0  0  0  0  0  0  0
   34.3460   31.3570   47.3850 H   0  0  0  0  0  0  0  0  0  0  0  0
   35.9780   31.2050   46.7310 H   0  0  0  0  0  0  0  0  0  0  0  0
   34.8870   29.2900   45.1290 C   0  0  0  0  0  0  0  0  0  0  0  0
   34.7330   29.4670   46.4900 C   0  0  0  0  0  0  0  0  0  0  0  0
   34.1180   28.4170   47.1640 C   0  0  0  0  0  0  0  0  0  0  0  0
   33.9790   28.5170   48.2510 H   0  0  0  0  0  0  0  0  0  0  0  0
   33.6650   27.2480   46.5970 C   0  0  0  0  0  0  0  0  0  0  0  0
   33.1940   26.4900   47.2450 H   0  0  0  0  0  0  0  0  0  0  0  0
   33.8290   27.0890   45.2300 C   0  0  0  0  0  3  0  0  0  0  0  0
   34.4400   28.1290   44.5470 C   0  0  0  0  0  3  0  0  0  0  0  0
   36.3180   31.3850   45.0370 H   0  0  0  0  0  0  0  0  0  0  0  0
   35.6190   30.5660   44.2100 S   0  0  0  0  0  0  0  0  0  0  0  0
   36.6290   29.9590   43.2380 O   0  0  0  0  0  0  0  0  0  0  0  0
   34.6380   31.2930   43.3340 O   0  0  0  0  0  0  0  0  0  0  0  0
  1  8  1  0  0  0  0
  1  6  1  0  0  0  0
  2  1  2  0  0  0  0
  3  2  1  0  0  0  0
  3  4  2  0  0  0  0
  4  5  1  0  0  0  0
  5  6  2  0  0  0  0
  5  7  1  0  0  0  0
  7  9  1  0  0  0  0
  7 10  1  0  0  0  0
 12 13  1  0  0  0  0
 12 11  1  0  0  0  0
 13  2  1  0  0  0  0
 14 13  2  0  0  0  0
 15 14  1  0  0  0  0
 16 15  2  0  0  0  0
 16 18  1  0  0  0  0
 17 16  1  0  0  0  0
 18 21  1  0  0  0  0
 18 12  2  0  0  0  0
 19 14  1  0  0  0  0
 20 15  1  0  0  0  0
 22 23  1  0  0  0  0
 22  3  1  0  0  0  0
 24 22  1  0  0  0  0
 25 26  1  0  0  0  0
 26 27  2  0  0  0  0
 26 22  1  0  0  0  0
 27 28  1  0  0  0  0
 29 27  1  0  0  0  0
 29 30  1  0  0  0  0
 31 29  2  0  0  0  0
 32 25  2  0  0  0  0
 32 31  1  0  0  0  0
 34 33  1  0  0  0  0
 34 25  1  0  0  0  0
 35 34  2  0  0  0  0
 36 34  2  0  0  0  0
M  END
>  <minimizedAffinity>
-5.65383911

>  <minimizedRMSD>
2.18022251

$$$$
