
 OpenBabel03272507583D

 35 37  0  0  0  0  0  0  0  0999 V2000
   36.8180   31.1690   48.4440 C   0  0  0  0  0  0  0  0  0  0  0  0
   37.1290   32.0280   49.4820 C   0  0  0  0  0  0  0  0  0  0  0  0
   38.0440   33.0470   49.2740 C   0  0  0  0  0  0  0  0  0  0  0  0
   38.6370   33.1910   48.0270 C   0  0  0  0  0  0  0  0  0  0  0  0
   38.3130   32.3250   47.0120 C   0  0  0  0  0  0  0  0  0  0  0  0
   37.4260   31.3640   47.2720 N   0  0  0  0  0  0  0  0  0  0  0  0
   36.7180   32.0020   50.4930 H   0  0  0  0  0  0  0  0  0  0  0  0
   38.3140   33.7470   50.0750 H   0  0  0  0  0  0  0  0  0  0  0  0
   39.3330   33.9840   47.9140 H   0  0  0  0  0  0  0  0  0  0  0  0
   35.1510   28.3220   50.2300 C   0  0  0  0  0  0  0  0  0  0  0  0
   36.1260   29.3030   49.8850 C   0  0  0  0  0  0  0  0  0  0  0  0
   35.8460   30.1560   48.8240 C   0  0  0  0  0  0  0  0  0  0  0  0
   34.6570   30.0130   48.1680 N   0  0  0  0  0  0  0  0  0  0  0  0
   33.7560   29.0580   48.5370 C   0  0  0  0  0  0  0  0  0  0  0  0
   33.9930   28.2260   49.5480 N   0  0  0  0  0  0  0  0  0  0  0  0
   32.6040   29.1080   47.7120 N   0  0  0  0  0  0  0  0  0  0  0  0
   35.3600   27.6500   51.0570 H   0  0  0  0  0  0  0  0  0  0  0  0
   32.2920   28.3540   47.0850 H   0  0  0  0  0  0  0  0  0  0  0  0
   32.0040   29.9680   47.7220 H   0  0  0  0  0  0  0  0  0  0  0  0
   37.3870   29.3600   50.6770 C   0  0  0  0  0  0  0  0  0  0  0  0
   38.4520   29.7660   49.9010 F   0  0  0  0  0  0  0  0  0  0  0  0
   37.2130   30.2870   51.6820 F   0  0  0  0  0  0  0  0  0  0  0  0
   37.7210   28.1640   51.2600 F   0  0  0  0  0  0  0  0  0  0  0  0
   38.3350   31.7780   44.6110 C   0  0  0  0  0  0  0  0  0  0  0  0
   38.9050   32.4300   45.6850 C   0  0  0  0  0  0  0  0  0  0  0  0
   40.0430   33.1740   45.4490 C   0  0  0  0  0  0  0  0  0  0  0  0
   40.5470   33.7100   46.2240 H   0  0  0  0  0  0  0  0  0  0  0  0
   40.6260   33.2930   44.2110 C   0  0  0  0  0  0  0  0  0  0  0  0
   41.5220   33.8790   44.0250 H   0  0  0  0  0  0  0  0  0  0  0  0
   40.0820   32.6570   43.1260 C   0  0  0  0  0  3  0  0  0  0  0  0
   38.9450   31.9120   43.3580 C   0  0  0  0  0  3  0  0  0  0  0  0
   36.5790   30.5760   46.0690 H   0  0  0  0  0  0  0  0  0  0  0  0
   36.8990   30.8020   44.7560 S   0  0  0  0  0  0  0  0  0  0  0  0
   37.1810   29.4220   44.1770 O   0  0  0  0  0  0  0  0  0  0  0  0
   35.7370   31.3440   43.9720 O   0  0  0  0  0  0  0  0  0  0  0  0
  1 12  1  0  0  0  0
  1  2  1  0  0  0  0
  2  7  1  0  0  0  0
  3  2  2  0  0  0  0
  3  8  1  0  0  0  0
  4  3  1  0  0  0  0
  5  6  1  0  0  0  0
  5  4  2  0  0  0  0
  6  1  2  0  0  0  0
  9  4  1  0  0  0  0
 10 17  1  0  0  0  0
 11 10  1  0  0  0  0
 11 20  1  0  0  0  0
 12 11  2  0  0  0  0
 13 14  2  0  0  0  0
 13 12  1  0  0  0  0
 14 15  1  0  0  0  0
 15 10  2  0  0  0  0
 16 19  1  0  0  0  0
 16 14  1  0  0  0  0
 18 16  1  0  0  0  0
 20 23  1  0  0  0  0
 20 22  1  0  0  0  0
 21 20  1  0  0  0  0
 24 33  1  0  0  0  0
 24 25  1  0  0  0  0
 25  5  1  0  0  0  0
 26 25  2  0  0  0  0
 26 27  1  0  0  0  0
 28 26  1  0  0  0  0
 29 28  1  0  0  0  0
 30 31  1  0  0  0  0
 30 28  2  0  0  0  0
 31 24  2  0  0  0  0
 33 32  1  0  0  0  0
 34 33  2  0  0  0  0
 35 33  2  0  0  0  0
M  END
>  <minimizedAffinity>
-6.51385736

>  <minimizedRMSD>
1.55525362

$$$$
