
 OpenBabel03262523113D

 23 24  0  0  0  0  0  0  0  0999 V2000
   37.7630   25.2550   33.9350 C   0  0  0  0  0  0  0  0  0  0  0  0
   38.3020   25.5340   35.1730 C   0  0  0  0  0  0  0  0  0  0  0  0
   38.1750   26.8060   35.6920 C   0  0  0  0  0  0  0  0  0  0  0  0
   38.5770   27.0990   36.6700 H   0  0  0  0  0  0  0  0  0  0  0  0
   37.5190   27.8300   35.0150 C   0  0  0  0  0  0  0  0  0  0  0  0
   37.4300   28.8230   35.4390 H   0  0  0  0  0  0  0  0  0  0  0  0
   36.9700   27.5830   33.7740 C   0  0  0  0  0  3  0  0  0  0  0  0
   37.1210   26.2920   33.2890 C   0  0  0  0  0  3  0  0  0  0  0  0
   39.1980   23.0930   37.8030 C   0  0  0  0  0  0  0  0  0  0  0  0
   40.4710   22.6500   37.3840 C   0  0  0  0  0  0  0  0  0  0  0  0
   40.9750   23.2170   36.2000 C   0  0  0  0  0  0  0  0  0  0  0  0
   40.2170   24.1400   35.5460 N   0  0  0  0  0  0  0  0  0  0  0  0
   39.0100   24.5380   35.9720 C   0  0  0  0  0  0  0  0  0  0  0  0
   38.5260   24.0060   37.0920 N   0  0  0  0  0  0  0  0  0  0  0  0
   40.9830   21.9200   37.9760 H   0  0  0  0  0  0  0  0  0  0  0  0
   41.9390   22.8970   35.8640 H   0  0  0  0  0  0  0  0  0  0  0  0
   38.5810   22.5910   38.9890 N   0  0  0  0  0  0  0  0  0  0  0  0
   39.1010   22.7720   39.8750 H   0  0  0  0  0  0  0  0  0  0  0  0
   37.7190   22.0780   39.1900 H   0  0  0  0  0  0  0  0  0  0  0  0
   37.8170   22.6990   34.2440 H   0  0  0  0  0  0  0  0  0  0  0  0
   37.9100   23.6670   33.2590 S   0  0  0  0  0  0  0  0  0  0  0  0
   39.1330   23.4700   32.4190 O   0  0  0  0  0  0  0  0  0  0  0  0
   36.7370   23.4650   32.3140 O   0  0  0  0  0  0  0  0  0  0  0  0
  1  2  1  0  0  0  0
  2  3  2  0  0  0  0
  2 13  1  0  0  0  0
  3  4  1  0  0  0  0
  5  6  1  0  0  0  0
  5  3  1  0  0  0  0
  7  5  2  0  0  0  0
  8  7  1  0  0  0  0
  8  1  2  0  0  0  0
  9 17  1  0  0  0  0
 10  9  1  0  0  0  0
 10 15  1  0  0  0  0
 11 10  2  0  0  0  0
 12 13  2  0  0  0  0
 12 11  1  0  0  0  0
 13 14  1  0  0  0  0
 14  9  2  0  0  0  0
 16 11  1  0  0  0  0
 17 19  1  0  0  0  0
 17 18  1  0  0  0  0
 21  1  1  0  0  0  0
 21 20  1  0  0  0  0
 22 21  2  0  0  0  0
 23 21  2  0  0  0  0
M  END
>  <minimizedAffinity>
-4.87808418

$$$$

 OpenBabel03262523113D

 23 24  0  0  0  0  0  0  0  0999 V2000
   38.9870   25.4180   33.8530 C   0  0  0  0  0  0  0  0  0  0  0  0
   38.4610   24.2620   34.3890 C   0  0  0  0  0  0  0  0  0  0  0  0
   37.7470   23.4060   33.5760 C   0  0  0  0  0  0  0  0  0  0  0  0
   37.3010   22.4700   33.9340 H   0  0  0  0  0  0  0  0  0  0  0  0
   37.5320   23.6610   32.2250 C   0  0  0  0  0  0  0  0  0  0  0  0
   36.9680   22.9770   31.6020 H   0  0  0  0  0  0  0  0  0  0  0  0
   38.0440   24.8100   31.6580 C   0  0  0  0  0  3  0  0  0  0  0  0
   38.7550   25.6420   32.5110 C   0  0  0  0  0  3  0  0  0  0  0  0
   39.6620   22.7090   37.5230 C   0  0  0  0  0  0  0  0  0  0  0  0
   38.8190   23.2930   38.4930 C   0  0  0  0  0  0  0  0  0  0  0  0
   37.8610   24.2080   38.0230 C   0  0  0  0  0  0  0  0  0  0  0  0
   37.8070   24.4670   36.6870 N   0  0  0  0  0  0  0  0  0  0  0  0
   38.6250   23.8940   35.7920 C   0  0  0  0  0  0  0  0  0  0  0  0
   39.5350   23.0270   36.2300 N   0  0  0  0  0  0  0  0  0  0  0  0
   38.9460   23.0170   39.5190 H   0  0  0  0  0  0  0  0  0  0  0  0
   37.2100   24.6630   38.7400 H   0  0  0  0  0  0  0  0  0  0  0  0
   40.6740   21.7660   37.8780 N   0  0  0  0  0  0  0  0  0  0  0  0
   40.3310   20.8880   38.3250 H   0  0  0  0  0  0  0  0  0  0  0  0
   41.6930   21.7390   37.7970 H   0  0  0  0  0  0  0  0  0  0  0  0
   40.7480   25.8220   35.6880 H   0  0  0  0  0  0  0  0  0  0  0  0
   39.8870   26.5100   34.8510 S   0  0  0  0  0  0  0  0  0  0  0  0
   39.0400   27.4760   35.6200 O   0  0  0  0  0  0  0  0  0  0  0  0
   40.7400   27.3690   33.9320 O   0  0  0  0  0  0  0  0  0  0  0  0
  1  2  1  0  0  0  0
  1 21  1  0  0  0  0
  2 13  1  0  0  0  0
  3  4  1  0  0  0  0
  3  2  2  0  0  0  0
  5  3  1  0  0  0  0
  6  5  1  0  0  0  0
  7  5  2  0  0  0  0
  7  8  1  0  0  0  0
  8  1  2  0  0  0  0
  9 17  1  0  0  0  0
  9 10  1  0  0  0  0
 10 15  1  0  0  0  0
 11 10  2  0  0  0  0
 11 16  1  0  0  0  0
 12 11  1  0  0  0  0
 13 14  1  0  0  0  0
 13 12  2  0  0  0  0
 14  9  2  0  0  0  0
 17 18  1  0  0  0  0
 19 17  1  0  0  0  0
 21 22  2  0  0  0  0
 21 20  1  0  0  0  0
 23 21  2  0  0  0  0
M  END
>  <minimizedAffinity>
-4.80126762

$$$$

 OpenBabel03262523113D

 23 24  0  0  0  0  0  0  0  0999 V2000
   38.9230   24.9030   33.5380 C   0  0  0  0  0  0  0  0  0  0  0  0
   39.4570   25.2840   34.7510 C   0  0  0  0  0  0  0  0  0  0  0  0
   40.2390   26.4190   34.8160 C   0  0  0  0  0  0  0  0  0  0  0  0
   40.6960   26.7810   35.7450 H   0  0  0  0  0  0  0  0  0  0  0  0
   40.5150   27.2040   33.7010 C   0  0  0  0  0  0  0  0  0  0  0  0
   41.1320   28.0920   33.7720 H   0  0  0  0  0  0  0  0  0  0  0  0
   39.9960   26.8490   32.4730 C   0  0  0  0  0  3  0  0  0  0  0  0
   39.2160   25.7020   32.4510 C   0  0  0  0  0  3  0  0  0  0  0  0
   39.7470   22.8360   37.5070 C   0  0  0  0  0  0  0  0  0  0  0  0
   38.6880   23.2130   38.3610 C   0  0  0  0  0  0  0  0  0  0  0  0
   37.9090   24.3080   37.9480 C   0  0  0  0  0  0  0  0  0  0  0  0
   38.2190   24.9220   36.7720 N   0  0  0  0  0  0  0  0  0  0  0  0
   39.2330   24.5370   35.9850 C   0  0  0  0  0  0  0  0  0  0  0  0
   39.9760   23.5010   36.3690 N   0  0  0  0  0  0  0  0  0  0  0  0
   38.5310   22.6600   39.2630 H   0  0  0  0  0  0  0  0  0  0  0  0
   37.1000   24.6120   38.5790 H   0  0  0  0  0  0  0  0  0  0  0  0
   40.6080   21.7390   37.8190 N   0  0  0  0  0  0  0  0  0  0  0  0
   40.1400   20.8100   37.8970 H   0  0  0  0  0  0  0  0  0  0  0  0
   41.6110   21.6390   37.9910 H   0  0  0  0  0  0  0  0  0  0  0  0
   37.2080   23.2940   34.5890 H   0  0  0  0  0  0  0  0  0  0  0  0
   37.9380   23.4820   33.4280 S   0  0  0  0  0  0  0  0  0  0  0  0
   38.6920   22.2440   33.0550 O   0  0  0  0  0  0  0  0  0  0  0  0
   36.9450   23.7030   32.3000 O   0  0  0  0  0  0  0  0  0  0  0  0
  1  2  1  0  0  0  0
  2  3  2  0  0  0  0
  2 13  1  0  0  0  0
  3  4  1  0  0  0  0
  5  6  1  0  0  0  0
  5  3  1  0  0  0  0
  7  5  2  0  0  0  0
  8  7  1  0  0  0  0
  8  1  2  0  0  0  0
  9 17  1  0  0  0  0
  9 10  1  0  0  0  0
 10 15  1  0  0  0  0
 11 10  2  0  0  0  0
 11 16  1  0  0  0  0
 12 11  1  0  0  0  0
 13 14  1  0  0  0  0
 13 12  2  0  0  0  0
 14  9  2  0  0  0  0
 17 18  1  0  0  0  0
 17 19  1  0  0  0  0
 21  1  1  0  0  0  0
 21 20  1  0  0  0  0
 22 21  2  0  0  0  0
 23 21  2  0  0  0  0
M  END
>  <minimizedAffinity>
-4.78302336

$$$$

 OpenBabel03262523113D

 23 24  0  0  0  0  0  0  0  0999 V2000
   38.0330   25.5710   34.3030 C   0  0  0  0  0  0  0  0  0  0  0  0
   38.3400   24.2290   34.3820 C   0  0  0  0  0  0  0  0  0  0  0  0
   37.8800   23.3730   33.4030 C   0  0  0  0  0  0  0  0  0  0  0  0
   38.0860   22.2960   33.4020 H   0  0  0  0  0  0  0  0  0  0  0  0
   37.1120   23.8080   32.3280 C   0  0  0  0  0  0  0  0  0  0  0  0
   36.7590   23.1210   31.5690 H   0  0  0  0  0  0  0  0  0  0  0  0
   36.7860   25.1440   32.2200 C   0  0  0  0  0  3  0  0  0  0  0  0
   37.2680   25.9710   33.2260 C   0  0  0  0  0  3  0  0  0  0  0  0
   39.4300   22.9170   37.6640 C   0  0  0  0  0  0  0  0  0  0  0  0
   40.7780   22.5770   37.4220 C   0  0  0  0  0  0  0  0  0  0  0  0
   41.2630   22.8160   36.1240 C   0  0  0  0  0  0  0  0  0  0  0  0
   40.4170   23.3510   35.2010 N   0  0  0  0  0  0  0  0  0  0  0  0
   39.1390   23.6630   35.4650 C   0  0  0  0  0  0  0  0  0  0  0  0
   38.6730   23.4380   36.6910 N   0  0  0  0  0  0  0  0  0  0  0  0
   41.3570   22.1630   38.2210 H   0  0  0  0  0  0  0  0  0  0  0  0
   42.2820   22.5670   35.9170 H   0  0  0  0  0  0  0  0  0  0  0  0
   38.8240   22.7200   38.9420 N   0  0  0  0  0  0  0  0  0  0  0  0
   39.2550   23.2520   39.7290 H   0  0  0  0  0  0  0  0  0  0  0  0
   38.0390   22.1630   39.2880 H   0  0  0  0  0  0  0  0  0  0  0  0
   38.6410   26.0530   36.7590 H   0  0  0  0  0  0  0  0  0  0  0  0
   38.5970   26.6670   35.5190 S   0  0  0  0  0  0  0  0  0  0  0  0
   37.8400   27.9570   35.5790 O   0  0  0  0  0  0  0  0  0  0  0  0
   40.0210   27.0550   35.1570 O   0  0  0  0  0  0  0  0  0  0  0  0
  1  2  1  0  0  0  0
  1 21  1  0  0  0  0
  2 13  1  0  0  0  0
  3  2  2  0  0  0  0
  4  3  1  0  0  0  0
  5  3  1  0  0  0  0
  6  5  1  0  0  0  0
  7  5  2  0  0  0  0
  7  8  1  0  0  0  0
  8  1  2  0  0  0  0
  9 17  1  0  0  0  0
 10  9  1  0  0  0  0
 10 15  1  0  0  0  0
 11 10  2  0  0  0  0
 12 13  2  0  0  0  0
 12 11  1  0  0  0  0
 13 14  1  0  0  0  0
 14  9  2  0  0  0  0
 16 11  1  0  0  0  0
 17 19  1  0  0  0  0
 17 18  1  0  0  0  0
 21 22  2  0  0  0  0
 21 20  1  0  0  0  0
 23 21  2  0  0  0  0
M  END
>  <minimizedAffinity>
-4.713902

$$$$

 OpenBabel03262523113D

 23 24  0  0  0  0  0  0  0  0999 V2000
   39.3450   23.3270   37.1530 C   0  0  0  0  0  0  0  0  0  0  0  0
   39.6870   23.8910   35.9430 C   0  0  0  0  0  0  0  0  0  0  0  0
   40.8660   23.5140   35.3320 C   0  0  0  0  0  0  0  0  0  0  0  0
   41.2000   23.9210   34.3700 H   0  0  0  0  0  0  0  0  0  0  0  0
   41.7330   22.5810   35.8900 C   0  0  0  0  0  0  0  0  0  0  0  0
   42.6550   22.2980   35.3960 H   0  0  0  0  0  0  0  0  0  0  0  0
   41.4200   21.9990   37.1010 C   0  0  0  0  0  3  0  0  0  0  0  0
   40.2270   22.4050   37.6810 C   0  0  0  0  0  3  0  0  0  0  0  0
   37.8620   26.9920   35.0880 C   0  0  0  0  0  0  0  0  0  0  0  0
   37.2420   26.6520   33.8660 C   0  0  0  0  0  0  0  0  0  0  0  0
   37.4800   25.3540   33.3810 C   0  0  0  0  0  0  0  0  0  0  0  0
   38.2780   24.5230   34.1070 N   0  0  0  0  0  0  0  0  0  0  0  0
   38.8520   24.8790   35.2660 C   0  0  0  0  0  0  0  0  0  0  0  0
   38.6320   26.1070   35.7310 N   0  0  0  0  0  0  0  0  0  0  0  0
   36.6320   27.3820   33.3770 H   0  0  0  0  0  0  0  0  0  0  0  0
   37.0200   25.0740   32.4570 H   0  0  0  0  0  0  0  0  0  0  0  0
   37.6960   28.2810   35.6810 N   0  0  0  0  0  0  0  0  0  0  0  0
   36.7160   28.5330   35.9360 H   0  0  0  0  0  0  0  0  0  0  0  0
   38.3270   29.0460   35.9280 H   0  0  0  0  0  0  0  0  0  0  0  0
   36.8790   24.0590   37.0170 H   0  0  0  0  0  0  0  0  0  0  0  0
   37.8710   23.7820   37.9410 S   0  0  0  0  0  0  0  0  0  0  0  0
   38.0240   24.9010   38.9240 O   0  0  0  0  0  0  0  0  0  0  0  0
   37.4060   22.5900   38.7600 O   0  0  0  0  0  0  0  0  0  0  0  0
  1  8  1  0  0  0  0
  1 21  1  0  0  0  0
  2  1  2  0  0  0  0
  3  5  2  0  0  0  0
  3  2  1  0  0  0  0
  4  3  1  0  0  0  0
  5  7  1  0  0  0  0
  6  5  1  0  0  0  0
  7  8  2  0  0  0  0
  9 17  1  0  0  0  0
  9 14  1  0  0  0  0
 10  9  2  0  0  0  0
 11 10  1  0  0  0  0
 11 12  2  0  0  0  0
 12 13  1  0  0  0  0
 13 14  2  0  0  0  0
 13  2  1  0  0  0  0
 15 10  1  0  0  0  0
 16 11  1  0  0  0  0
 17 19  1  0  0  0  0
 17 18  1  0  0  0  0
 20 21  1  0  0  0  0
 21 23  2  0  0  0  0
 21 22  2  0  0  0  0
M  END
>  <minimizedAffinity>
-4.55829668

$$$$

 OpenBabel03262523113D

 23 24  0  0  0  0  0  0  0  0999 V2000
   33.5110   30.4330   35.2220 C   0  0  0  0  0  0  0  0  0  0  0  0
   34.8580   30.5130   34.9390 C   0  0  0  0  0  0  0  0  0  0  0  0
   35.6590   31.3420   35.6980 C   0  0  0  0  0  0  0  0  0  0  0  0
   36.7360   31.4540   35.5290 H   0  0  0  0  0  0  0  0  0  0  0  0
   35.1620   32.1070   36.7480 C   0  0  0  0  0  0  0  0  0  0  0  0
   35.8060   32.7530   37.3320 H   0  0  0  0  0  0  0  0  0  0  0  0
   33.8190   32.0510   37.0560 C   0  0  0  0  0  3  0  0  0  0  0  0
   33.0490   31.2060   36.2680 C   0  0  0  0  0  3  0  0  0  0  0  0
   36.0380   29.3990   31.6150 C   0  0  0  0  0  0  0  0  0  0  0  0
   36.7320   28.2090   31.9230 C   0  0  0  0  0  0  0  0  0  0  0  0
   36.7660   27.8340   33.2780 C   0  0  0  0  0  0  0  0  0  0  0  0
   36.1380   28.6280   34.1890 N   0  0  0  0  0  0  0  0  0  0  0  0
   35.4870   29.7540   33.8620 C   0  0  0  0  0  0  0  0  0  0  0  0
   35.4510   30.1150   32.5810 N   0  0  0  0  0  0  0  0  0  0  0  0
   37.1890   27.6590   31.1280 H   0  0  0  0  0  0  0  0  0  0  0  0
   37.2850   26.9360   33.5350 H   0  0  0  0  0  0  0  0  0  0  0  0
   35.9340   29.8830   30.2750 N   0  0  0  0  0  0  0  0  0  0  0  0
   35.4460   29.2480   29.6070 H   0  0  0  0  0  0  0  0  0  0  0  0
   36.2330   30.7340   29.7930 H   0  0  0  0  0  0  0  0  0  0  0  0
   33.1020   28.1910   34.0210 H   0  0  0  0  0  0  0  0  0  0  0  0
   32.4840   29.4010   34.2850 S   0  0  0  0  0  0  0  0  0  0  0  0
   31.9660   30.0310   33.0290 O   0  0  0  0  0  0  0  0  0  0  0  0
   31.2500   29.1040   35.1220 O   0  0  0  0  0  0  0  0  0  0  0  0
  1  8  1  0  0  0  0
  2  1  2  0  0  0  0
  2  3  1  0  0  0  0
  3  5  2  0  0  0  0
  4  3  1  0  0  0  0
  5  7  1  0  0  0  0
  5  6  1  0  0  0  0
  8  7  2  0  0  0  0
  9 10  2  0  0  0  0
  9 14  1  0  0  0  0
 10 11  1  0  0  0  0
 11 16  1  0  0  0  0
 11 12  2  0  0  0  0
 13 12  1  0  0  0  0
 13  2  1  0  0  0  0
 14 13  2  0  0  0  0
 15 10  1  0  0  0  0
 17  9  1  0  0  0  0
 18 17  1  0  0  0  0
 19 17  1  0  0  0  0
 20 21  1  0  0  0  0
 21 23  2  0  0  0  0
 21  1  1  0  0  0  0
 22 21  2  0  0  0  0
M  END
>  <minimizedAffinity>
-4.5211997

$$$$

 OpenBabel03262523113D

 23 24  0  0  0  0  0  0  0  0999 V2000
   39.3410   23.3610   36.6880 C   0  0  0  0  0  0  0  0  0  0  0  0
   39.7450   24.2680   35.7320 C   0  0  0  0  0  0  0  0  0  0  0  0
   41.0500   24.2390   35.2840 C   0  0  0  0  0  0  0  0  0  0  0  0
   41.4400   24.9290   34.5260 H   0  0  0  0  0  0  0  0  0  0  0  0
   41.9850   23.3260   35.7590 C   0  0  0  0  0  0  0  0  0  0  0  0
   43.0060   23.3190   35.3950 H   0  0  0  0  0  0  0  0  0  0  0  0
   41.6130   22.4060   36.7170 C   0  0  0  0  0  3  0  0  0  0  0  0
   40.2930   22.4690   37.1400 C   0  0  0  0  0  3  0  0  0  0  0  0
   37.3140   26.0170   33.5620 C   0  0  0  0  0  0  0  0  0  0  0  0
   37.1870   27.2700   34.1980 C   0  0  0  0  0  0  0  0  0  0  0  0
   37.9520   27.4650   35.3620 C   0  0  0  0  0  0  0  0  0  0  0  0
   38.7520   26.4500   35.7920 N   0  0  0  0  0  0  0  0  0  0  0  0
   38.8490   25.2700   35.1620 C   0  0  0  0  0  0  0  0  0  0  0  0
   38.1280   25.0790   34.0600 N   0  0  0  0  0  0  0  0  0  0  0  0
   36.5280   27.9990   33.7740 H   0  0  0  0  0  0  0  0  0  0  0  0
   37.8720   28.4070   35.8610 H   0  0  0  0  0  0  0  0  0  0  0  0
   36.5880   25.7010   32.3730 N   0  0  0  0  0  0  0  0  0  0  0  0
   36.7920   26.3080   31.5490 H   0  0  0  0  0  0  0  0  0  0  0  0
   35.8900   24.9970   32.1220 H   0  0  0  0  0  0  0  0  0  0  0  0
   37.0870   24.5740   36.9660 H   0  0  0  0  0  0  0  0  0  0  0  0
   37.7100   23.3760   37.2690 S   0  0  0  0  0  0  0  0  0  0  0  0
   37.5750   23.0460   38.7220 O   0  0  0  0  0  0  0  0  0  0  0  0
   36.9560   22.2780   36.5360 O   0  0  0  0  0  0  0  0  0  0  0  0
  1  8  1  0  0  0  0
  1 21  1  0  0  0  0
  2  1  2  0  0  0  0
  3  2  1  0  0  0  0
  3  5  2  0  0  0  0
  4  3  1  0  0  0  0
  5  7  1  0  0  0  0
  6  5  1  0  0  0  0
  7  8  2  0  0  0  0
  9 14  2  0  0  0  0
  9 10  1  0  0  0  0
 10 11  2  0  0  0  0
 11 12  1  0  0  0  0
 11 16  1  0  0  0  0
 13  2  1  0  0  0  0
 13 12  2  0  0  0  0
 14 13  1  0  0  0  0
 15 10  1  0  0  0  0
 17  9  1  0  0  0  0
 18 17  1  0  0  0  0
 19 17  1  0  0  0  0
 20 21  1  0  0  0  0
 21 22  2  0  0  0  0
 23 21  2  0  0  0  0
M  END
>  <minimizedAffinity>
-4.51537323

$$$$

 OpenBabel03262523113D

 23 24  0  0  0  0  0  0  0  0999 V2000
   37.6310   22.6910   33.4290 C   0  0  0  0  0  0  0  0  0  0  0  0
   37.3470   22.1100   34.6470 C   0  0  0  0  0  0  0  0  0  0  0  0
   36.3750   21.1320   34.7170 C   0  0  0  0  0  0  0  0  0  0  0  0
   36.0990   20.6270   35.6500 H   0  0  0  0  0  0  0  0  0  0  0  0
   35.6620   20.7030   33.6030 C   0  0  0  0  0  0  0  0  0  0  0  0
   34.9020   19.9350   33.6780 H   0  0  0  0  0  0  0  0  0  0  0  0
   35.9210   21.2660   32.3700 C   0  0  0  0  0  3  0  0  0  0  0  0
   36.9050   22.2440   32.3430 C   0  0  0  0  0  3  0  0  0  0  0  0
   39.7700   22.2800   37.4350 C   0  0  0  0  0  0  0  0  0  0  0  0
   39.2240   23.2950   38.2500 C   0  0  0  0  0  0  0  0  0  0  0  0
   38.0300   23.8860   37.8010 C   0  0  0  0  0  0  0  0  0  0  0  0
   37.4870   23.4490   36.6310 N   0  0  0  0  0  0  0  0  0  0  0  0
   38.0330   22.4820   35.8800 C   0  0  0  0  0  0  0  0  0  0  0  0
   39.1640   21.9180   36.2990 N   0  0  0  0  0  0  0  0  0  0  0  0
   39.7330   23.5610   39.1530 H   0  0  0  0  0  0  0  0  0  0  0  0
   37.5970   24.6570   38.4020 H   0  0  0  0  0  0  0  0  0  0  0  0
   40.9800   21.6050   37.7860 N   0  0  0  0  0  0  0  0  0  0  0  0
   40.9530   21.0770   38.6850 H   0  0  0  0  0  0  0  0  0  0  0  0
   41.9010   21.5090   37.3530 H   0  0  0  0  0  0  0  0  0  0  0  0
   39.9750   23.5710   34.0310 H   0  0  0  0  0  0  0  0  0  0  0  0
   38.8450   23.9210   33.3120 S   0  0  0  0  0  0  0  0  0  0  0  0
   38.3670   25.2890   33.6840 O   0  0  0  0  0  0  0  0  0  0  0  0
   39.2510   24.0210   31.8510 O   0  0  0  0  0  0  0  0  0  0  0  0
  1  2  1  0  0  0  0
  2  3  2  0  0  0  0
  2 13  1  0  0  0  0
  3  4  1  0  0  0  0
  5  6  1  0  0  0  0
  5  3  1  0  0  0  0
  7  5  2  0  0  0  0
  8  7  1  0  0  0  0
  8  1  2  0  0  0  0
  9 17  1  0  0  0  0
  9 10  1  0  0  0  0
 10 15  1  0  0  0  0
 11 10  2  0  0  0  0
 11 16  1  0  0  0  0
 12 11  1  0  0  0  0
 13 14  1  0  0  0  0
 13 12  2  0  0  0  0
 14  9  2  0  0  0  0
 17 18  1  0  0  0  0
 19 17  1  0  0  0  0
 21  1  1  0  0  0  0
 21 22  2  0  0  0  0
 21 20  1  0  0  0  0
 23 21  2  0  0  0  0
M  END
>  <minimizedAffinity>
-4.43773794

$$$$

 OpenBabel03262523113D

 23 24  0  0  0  0  0  0  0  0999 V2000
   37.8510   25.2770   34.0350 C   0  0  0  0  0  0  0  0  0  0  0  0
   38.4510   25.4830   35.2590 C   0  0  0  0  0  0  0  0  0  0  0  0
   38.3190   26.7100   35.8770 C   0  0  0  0  0  0  0  0  0  0  0  0
   38.7670   26.9440   36.8490 H   0  0  0  0  0  0  0  0  0  0  0  0
   37.5990   27.7580   35.3130 C   0  0  0  0  0  0  0  0  0  0  0  0
   37.5060   28.7150   35.8130 H   0  0  0  0  0  0  0  0  0  0  0  0
   36.9880   27.5850   34.0880 C   0  0  0  0  0  3  0  0  0  0  0  0
   37.1460   26.3370   33.5020 C   0  0  0  0  0  3  0  0  0  0  0  0
   41.1320   23.1180   36.2070 C   0  0  0  0  0  0  0  0  0  0  0  0
   40.5890   22.4860   37.3460 C   0  0  0  0  0  0  0  0  0  0  0  0
   39.3080   22.9040   37.7460 C   0  0  0  0  0  0  0  0  0  0  0  0
   38.6830   23.8740   37.0220 N   0  0  0  0  0  0  0  0  0  0  0  0
   39.2290   24.4540   35.9430 C   0  0  0  0  0  0  0  0  0  0  0  0
   40.4420   24.0640   35.5590 N   0  0  0  0  0  0  0  0  0  0  0  0
   41.1660   21.7320   37.8410 H   0  0  0  0  0  0  0  0  0  0  0  0
   38.8760   22.4380   38.6070 H   0  0  0  0  0  0  0  0  0  0  0  0
   42.4250   22.7790   35.7040 N   0  0  0  0  0  0  0  0  0  0  0  0
   42.5390   21.7890   35.3940 H   0  0  0  0  0  0  0  0  0  0  0  0
   43.3000   23.2890   35.5680 H   0  0  0  0  0  0  0  0  0  0  0  0
   37.9780   22.7070   34.1510 H   0  0  0  0  0  0  0  0  0  0  0  0
   38.0030   23.7460   33.2380 S   0  0  0  0  0  0  0  0  0  0  0  0
   39.1890   23.6440   32.3320 O   0  0  0  0  0  0  0  0  0  0  0  0
   36.7920   23.5830   32.3340 O   0  0  0  0  0  0  0  0  0  0  0  0
  1  2  1  0  0  0  0
  2  3  2  0  0  0  0
  2 13  1  0  0  0  0
  3  4  1  0  0  0  0
  5  6  1  0  0  0  0
  5  3  1  0  0  0  0
  7  5  2  0  0  0  0
  8  1  2  0  0  0  0
  8  7  1  0  0  0  0
  9 10  1  0  0  0  0
 10 11  2  0  0  0  0
 10 15  1  0  0  0  0
 11 16  1  0  0  0  0
 12 11  1  0  0  0  0
 13 12  2  0  0  0  0
 14 13  1  0  0  0  0
 14  9  2  0  0  0  0
 17  9  1  0  0  0  0
 18 17  1  0  0  0  0
 19 17  1  0  0  0  0
 21  1  1  0  0  0  0
 21 20  1  0  0  0  0
 22 21  2  0  0  0  0
 23 21  2  0  0  0  0
M  END
>  <minimizedAffinity>
-4.31878042

$$$$
