
 OpenBabel03272506563D

 23 24  0  0  0  0  0  0  0  0999 V2000
   33.4130   28.7140   46.7630 C   0  0  0  0  0  0  0  0  0  0  0  0
   33.7210   28.7100   48.0960 C   0  0  0  0  0  0  0  0  0  0  0  0
   32.8360   28.1950   49.0320 C   0  0  0  0  0  0  0  0  0  0  0  0
   33.0500   28.1780   50.0890 H   0  0  0  0  0  0  0  0  0  0  0  0
   31.6090   27.6650   48.6580 C   0  0  0  0  0  0  0  0  0  0  0  0
   30.8740   27.2490   49.3300 H   0  0  0  0  0  0  0  0  0  0  0  0
   31.3270   27.6830   47.3070 C   0  0  0  0  0  0  0  0  0  0  0  0
   32.1820   28.1840   46.3640 C   0  0  0  0  0  0  0  0  0  0  0  0
   36.8930   29.0780   49.9330 C   0  0  0  0  0  0  0  0  0  0  0  0
   37.3530   30.3300   49.5250 C   0  0  0  0  0  0  0  0  0  0  0  0
   36.5490   31.0300   48.6130 C   0  0  0  0  0  0  0  0  0  0  0  0
   35.3950   30.4480   48.1960 N   0  0  0  0  0  0  0  0  0  0  0  0
   34.9880   29.2430   48.6130 C   0  0  0  0  0  0  0  0  0  0  0  0
   35.7390   28.5440   49.4900 N   0  0  0  0  0  0  0  0  0  0  0  0
   37.4500   28.4710   50.6330 H   0  0  0  0  0  0  0  0  0  0  0  0
   36.8920   32.0000   48.2880 H   0  0  0  0  0  0  0  0  0  0  0  0
   38.5840   30.8500   50.0250 N   0  0  0  0  0  0  0  0  0  0  0  0
   39.2550   30.1780   50.4200 H   0  0  0  0  0  0  0  0  0  0  0  0
   38.7450   31.8810   49.9670 H   0  0  0  0  0  0  0  0  0  0  0  0
   35.7610   29.6480   46.1460 H   0  0  0  0  0  0  0  0  0  0  0  0
   34.5290   29.3610   45.5970 S   0  0  0  0  0  0  0  0  0  0  0  0
   34.8030   28.2880   44.5560 O   0  0  0  0  0  0  0  0  0  0  0  0
   33.9730   30.5410   44.8580 O   0  0  0  0  0  0  0  0  0  0  0  0
  1  2  1  0  0  0  0
  2 13  1  0  0  0  0
  2  3  2  0  0  0  0
  3  4  1  0  0  0  0
  5  3  1  0  0  0  0
  5  6  1  0  0  0  0
  7  5  2  0  0  0  0
  8  1  2  0  0  0  0
  8  7  1  0  0  0  0
  9 15  1  0  0  0  0
 10  9  1  0  0  0  0
 10 17  1  0  0  0  0
 11 10  2  0  0  0  0
 12 11  1  0  0  0  0
 12 13  2  0  0  0  0
 13 14  1  0  0  0  0
 14  9  2  0  0  0  0
 16 11  1  0  0  0  0
 17 18  1  0  0  0  0
 19 17  1  0  0  0  0
 21 20  1  0  0  0  0
 21  1  1  0  0  0  0
 22 21  2  0  0  0  0
 23 21  2  0  0  0  0
M  END
>  <minimizedAffinity>
-4.26714993

>  <minimizedRMSD>
1.85826612

$$$$
