
 OpenBabel03272510113D

 38 41  0  0  0  0  0  0  0  0999 V2000
   36.6760   29.1730   49.3180 O   0  0  0  0  0  0  0  0  0  0  0  0
   32.5970   28.1500   49.0320 C   0  0  0  0  0  0  0  0  0  0  0  0
   33.0540   28.9530   50.0240 C   0  0  0  0  0  0  0  0  0  0  0  0
   34.3700   29.3320   50.1830 C   0  0  0  0  0  0  0  0  0  0  0  0
   35.3140   28.8890   49.3010 C   0  0  0  0  0  0  0  0  0  0  0  0
   34.8500   28.0560   48.2720 C   0  0  0  0  0  0  0  0  0  0  0  0
   33.5540   27.7140   48.1570 N   0  0  0  0  0  0  0  0  0  0  0  0
   32.3720   29.3480   50.7640 H   0  0  0  0  0  0  0  0  0  0  0  0
   34.7220   29.9700   50.9740 H   0  0  0  0  0  0  0  0  0  0  0  0
   35.5000   27.6440   47.5130 H   0  0  0  0  0  0  0  0  0  0  0  0
   30.2420   27.9500   49.8330 C   0  0  0  0  0  0  0  0  0  0  0  0
   31.2350   27.7500   48.8630 C   0  0  0  0  0  0  0  0  0  0  0  0
   30.8290   27.1330   47.7100 C   0  0  0  0  0  0  0  0  0  0  0  0
   29.5190   26.7480   47.5550 N   0  0  0  0  0  0  0  0  0  0  0  0
   28.6110   26.9730   48.5380 C   0  0  0  0  0  0  0  0  0  0  0  0
   28.9580   27.5710   49.6790 N   0  0  0  0  0  0  0  0  0  0  0  0
   30.5060   28.4340   50.7650 H   0  0  0  0  0  0  0  0  0  0  0  0
   31.5730   26.9600   46.9320 H   0  0  0  0  0  0  0  0  0  0  0  0
   27.6560   26.5910   48.2010 H   0  0  0  0  0  0  0  0  0  0  0  0
   37.2190   30.1970   48.5430 C   0  0  0  0  0  0  0  0  0  0  0  0
   37.2710   31.4180   49.2140 C   0  0  0  0  0  0  0  0  0  0  0  0
   37.8280   32.3400   48.3340 C   0  0  0  0  0  0  0  0  0  0  0  0
   38.0900   31.6690   47.1900 N   0  0  0  0  0  0  0  0  0  0  0  0
   37.7310   30.4180   47.3220 N   0  0  0  0  0  0  0  0  0  0  0  0
   37.0030   31.8120   50.1900 H   0  0  0  0  0  0  0  0  0  0  0  0
   38.0530   33.3940   48.4270 H   0  0  0  0  0  0  0  0  0  0  0  0
   38.1170   31.9450   44.7400 C   0  0  0  0  0  0  0  0  0  0  0  0
   38.6660   32.1990   46.0010 C   0  0  0  0  0  0  0  0  0  0  0  0
   39.7960   32.9780   46.1420 C   0  0  0  0  0  0  0  0  0  0  0  0
   40.2230   33.1780   47.1120 H   0  0  0  0  0  0  0  0  0  0  0  0
   40.4060   33.5260   45.0130 C   0  0  0  0  0  0  0  0  0  0  0  0
   41.2930   34.1470   45.0500 H   0  0  0  0  0  0  0  0  0  0  0  0
   39.8560   33.2690   43.7740 C   0  0  0  0  0  0  0  0  0  0  0  0
   38.7350   32.4960   43.6150 C   0  0  0  0  0  0  0  0  0  0  0  0
   36.0190   30.8900   45.8470 H   0  0  0  0  0  0  0  0  0  0  0  0
   36.6830   30.9460   44.6360 S   0  0  0  0  0  0  0  0  0  0  0  0
   37.0080   29.5600   44.1270 O   0  0  0  0  0  0  0  0  0  0  0  0
   35.7350   31.6010   43.6660 O   0  0  0  0  0  0  0  0  0  0  0  0
  2  3  1  0  0  0  0
  3  4  2  0  0  0  0
  3  8  1  0  0  0  0
  4  9  1  0  0  0  0
  5  1  1  0  0  0  0
  5  4  1  0  0  0  0
  6  5  2  0  0  0  0
  7  6  1  0  0  0  0
  7  2  2  0  0  0  0
 10  6  1  0  0  0  0
 11 17  1  0  0  0  0
 12  2  1  0  0  0  0
 12 11  2  0  0  0  0
 13 12  1  0  0  0  0
 14 13  2  0  0  0  0
 14 15  1  0  0  0  0
 15 16  2  0  0  0  0
 16 11  1  0  0  0  0
 18 13  1  0  0  0  0
 19 15  1  0  0  0  0
 20 21  1  0  0  0  0
 20  1  1  0  0  0  0
 21 25  1  0  0  0  0
 22 26  1  0  0  0  0
 22 21  2  0  0  0  0
 23 24  1  0  0  0  0
 23 22  1  0  0  0  0
 24 20  2  0  0  0  0
 27 28  1  0  0  0  0
 28 29  2  0  0  0  0
 28 23  1  0  0  0  0
 29 30  1  0  0  0  0
 31 32  1  0  0  0  0
 31 29  1  0  0  0  0
 33 31  2  0  0  0  0
 34 33  1  0  0  0  0
 34 27  2  0  0  0  0
 36 27  1  0  0  0  0
 36 35  1  0  0  0  0
 37 36  2  0  0  0  0
 38 36  2  0  0  0  0
M  END
>  <minimizedAffinity>
-5.65010166

>  <minimizedRMSD>
2.47353721

$$$$
