
 OpenBabel03272508353D

 34 36  0  0  0  0  0  0  0  0999 V2000
   36.4350   28.1170   33.1400 C   0  0  0  0  0  0  0  0  0  0  0  0
   37.2230   28.7420   32.6580 H   0  0  0  0  0  0  0  0  0  0  0  0
   35.6840   27.9310   32.3680 H   0  0  0  0  0  0  0  0  0  0  0  0
   37.8880   25.3600   34.9700 C   0  0  0  0  0  0  0  0  0  0  0  0
   37.9570   24.9080   33.6760 C   0  0  0  0  0  0  0  0  0  0  0  0
   37.4300   25.8710   32.8340 C   0  0  0  0  0  0  0  0  0  0  0  0
   37.0520   26.8920   33.6470 N   0  0  0  0  0  0  0  0  0  0  0  0
   37.3290   26.5770   34.9050 N   0  0  0  0  0  0  0  0  0  0  0  0
   38.3430   23.9610   33.2790 H   0  0  0  0  0  0  0  0  0  0  0  0
   37.3430   25.8090   31.7570 H   0  0  0  0  0  0  0  0  0  0  0  0
   38.2800   23.8410   38.3810 C   0  0  0  0  0  0  0  0  0  0  0  0
   37.7660   24.6360   37.3540 C   0  0  0  0  0  0  0  0  0  0  0  0
   38.3600   24.5740   36.0850 C   0  0  0  0  0  0  0  0  0  0  0  0
   39.4120   23.7330   35.9410 N   0  0  0  0  0  0  0  0  0  0  0  0
   39.8900   22.9750   36.9530 C   0  0  0  0  0  0  0  0  0  0  0  0
   39.3250   23.0320   38.1610 N   0  0  0  0  0  0  0  0  0  0  0  0
   37.8180   23.8890   39.3740 H   0  0  0  0  0  0  0  0  0  0  0  0
   36.9250   25.2970   37.5000 H   0  0  0  0  0  0  0  0  0  0  0  0
   40.7330   22.3080   36.8200 H   0  0  0  0  0  0  0  0  0  0  0  0
   35.8930   28.9400   34.2760 C   0  0  0  0  0  0  0  0  0  0  0  0
   35.8390   28.3340   35.1930 H   0  0  0  0  0  0  0  0  0  0  0  0
   36.6920   29.7040   34.4990 H   0  0  0  0  0  0  0  0  0  0  0  0
   34.5050   30.8820   34.6720 C   0  0  0  0  0  0  0  0  0  0  0  0
   34.6680   29.6800   33.9760 C   0  0  0  0  0  0  0  0  0  0  0  0
   33.6590   29.3420   33.0860 C   0  0  0  0  0  0  0  0  0  0  0  0
   33.8010   28.4190   32.5570 H   0  0  0  0  0  0  0  0  0  0  0  0
   32.5590   30.1270   32.8890 C   0  0  0  0  0  0  0  0  0  0  0  0
   31.7880   29.8280   32.1820 H   0  0  0  0  0  0  0  0  0  0  0  0
   32.3700   31.3130   33.5570 C   0  0  0  0  0  3  0  0  0  0  0  0
   33.3640   31.6570   34.4390 C   0  0  0  0  0  3  0  0  0  0  0  0
   36.5090   30.3980   36.1640 H   0  0  0  0  0  0  0  0  0  0  0  0
   35.7030   31.4310   35.8310 S   0  0  0  0  0  0  0  0  0  0  0  0
   35.0340   31.9160   37.0740 O   0  0  0  0  0  0  0  0  0  0  0  0
   36.5440   32.5270   35.2440 O   0  0  0  0  0  0  0  0  0  0  0  0
  1  7  1  0  0  0  0
  1 20  1  0  0  0  0
  2  1  1  0  0  0  0
  3  1  1  0  0  0  0
  4 13  1  0  0  0  0
  5  4  1  0  0  0  0
  6  7  1  0  0  0  0
  6  5  2  0  0  0  0
  7  8  1  0  0  0  0
  8  4  2  0  0  0  0
  9  5  1  0  0  0  0
 10  6  1  0  0  0  0
 11 17  1  0  0  0  0
 12 18  1  0  0  0  0
 12 11  2  0  0  0  0
 13 12  1  0  0  0  0
 14 13  2  0  0  0  0
 14 15  1  0  0  0  0
 15 16  2  0  0  0  0
 16 11  1  0  0  0  0
 19 15  1  0  0  0  0
 20 22  1  0  0  0  0
 20 21  1  0  0  0  0
 23 32  1  0  0  0  0
 24 20  1  0  0  0  0
 24 23  2  0  0  0  0
 25 24  1  0  0  0  0
 26 25  1  0  0  0  0
 27 25  2  0  0  0  0
 27 29  1  0  0  0  0
 28 27  1  0  0  0  0
 29 30  2  0  0  0  0
 30 23  1  0  0  0  0
 32 31  1  0  0  0  0
 32 33  2  0  0  0  0
 34 32  2  0  0  0  0
M  END
>  <minimizedAffinity>
-5.15739584

$$$$

 OpenBabel03272508353D

 34 36  0  0  0  0  0  0  0  0999 V2000
   35.8880   29.4520   32.9880 C   0  0  0  0  0  0  0  0  0  0  0  0
   36.5050   30.3070   33.3530 H   0  0  0  0  0  0  0  0  0  0  0  0
   35.6570   29.6720   31.9420 H   0  0  0  0  0  0  0  0  0  0  0  0
   37.5100   26.3840   33.9970 C   0  0  0  0  0  0  0  0  0  0  0  0
   37.9720   26.5400   32.7130 C   0  0  0  0  0  0  0  0  0  0  0  0
   37.4320   27.6950   32.1780 C   0  0  0  0  0  0  0  0  0  0  0  0
   36.6500   28.2160   33.1590 N   0  0  0  0  0  0  0  0  0  0  0  0
   36.7050   27.4320   34.2270 N   0  0  0  0  0  0  0  0  0  0  0  0
   38.6510   25.9090   32.1280 H   0  0  0  0  0  0  0  0  0  0  0  0
   37.6060   28.0880   31.1840 H   0  0  0  0  0  0  0  0  0  0  0  0
   38.3500   24.2190   36.9460 C   0  0  0  0  0  0  0  0  0  0  0  0
   37.9720   25.3500   36.2200 C   0  0  0  0  0  0  0  0  0  0  0  0
   37.8930   25.2640   34.8210 C   0  0  0  0  0  0  0  0  0  0  0  0
   38.1960   24.0670   34.2630 N   0  0  0  0  0  0  0  0  0  0  0  0
   38.5600   22.9880   34.9920 C   0  0  0  0  0  0  0  0  0  0  0  0
   38.6340   23.0680   36.3220 N   0  0  0  0  0  0  0  0  0  0  0  0
   38.4130   24.2850   38.0390 H   0  0  0  0  0  0  0  0  0  0  0  0
   37.7360   26.2910   36.6930 H   0  0  0  0  0  0  0  0  0  0  0  0
   38.7990   22.0380   34.5290 H   0  0  0  0  0  0  0  0  0  0  0  0
   34.6570   29.4330   33.8510 C   0  0  0  0  0  0  0  0  0  0  0  0
   33.7530   29.4300   33.2230 H   0  0  0  0  0  0  0  0  0  0  0  0
   34.6530   28.4190   34.3430 H   0  0  0  0  0  0  0  0  0  0  0  0
   33.4430   30.5060   35.6490 C   0  0  0  0  0  0  0  0  0  0  0  0
   34.6360   30.4280   34.9230 C   0  0  0  0  0  0  0  0  0  0  0  0
   35.6500   31.2920   35.3100 C   0  0  0  0  0  0  0  0  0  0  0  0
   36.5600   31.2170   34.7460 H   0  0  0  0  0  0  0  0  0  0  0  0
   35.5080   32.1760   36.3400 C   0  0  0  0  0  0  0  0  0  0  0  0
   36.3260   32.8390   36.6160 H   0  0  0  0  0  0  0  0  0  0  0  0
   34.3490   32.2770   37.0730 C   0  0  0  0  0  3  0  0  0  0  0  0
   33.3400   31.4240   36.6980 C   0  0  0  0  0  3  0  0  0  0  0  0
   32.2030   29.0170   33.9990 H   0  0  0  0  0  0  0  0  0  0  0  0
   32.0770   29.4730   35.2650 S   0  0  0  0  0  0  0  0  0  0  0  0
   30.8040   30.2480   35.3540 O   0  0  0  0  0  0  0  0  0  0  0  0
   32.0240   28.2970   36.1960 O   0  0  0  0  0  0  0  0  0  0  0  0
  1  7  1  0  0  0  0
  1  2  1  0  0  0  0
  1 20  1  0  0  0  0
  3  1  1  0  0  0  0
  4  8  2  0  0  0  0
  4 13  1  0  0  0  0
  5  4  1  0  0  0  0
  6  5  2  0  0  0  0
  6  7  1  0  0  0  0
  7  8  1  0  0  0  0
  9  5  1  0  0  0  0
 10  6  1  0  0  0  0
 11 17  1  0  0  0  0
 12 18  1  0  0  0  0
 12 11  2  0  0  0  0
 13 12  1  0  0  0  0
 14 13  2  0  0  0  0
 14 15  1  0  0  0  0
 15 16  2  0  0  0  0
 16 11  1  0  0  0  0
 19 15  1  0  0  0  0
 20 22  1  0  0  0  0
 20 24  1  0  0  0  0
 21 20  1  0  0  0  0
 23 30  1  0  0  0  0
 24 25  1  0  0  0  0
 24 23  2  0  0  0  0
 25 27  2  0  0  0  0
 26 25  1  0  0  0  0
 27 28  1  0  0  0  0
 27 29  1  0  0  0  0
 30 29  2  0  0  0  0
 31 32  1  0  0  0  0
 32 33  2  0  0  0  0
 32 23  1  0  0  0  0
 32 34  2  0  0  0  0
M  END
>  <minimizedAffinity>
-5.14421272

$$$$

 OpenBabel03272508353D

 34 36  0  0  0  0  0  0  0  0999 V2000
   37.3570   26.8710   32.8340 C   0  0  0  0  0  0  0  0  0  0  0  0
   38.2640   27.1120   32.2310 H   0  0  0  0  0  0  0  0  0  0  0  0
   36.7390   27.7730   32.8220 H   0  0  0  0  0  0  0  0  0  0  0  0
   36.1220   23.6620   31.7220 C   0  0  0  0  0  0  0  0  0  0  0  0
   35.3110   24.5310   31.0350 C   0  0  0  0  0  0  0  0  0  0  0  0
   35.6650   25.8280   31.3580 C   0  0  0  0  0  0  0  0  0  0  0  0
   36.6930   25.7120   32.2400 N   0  0  0  0  0  0  0  0  0  0  0  0
   36.9520   24.4280   32.4450 N   0  0  0  0  0  0  0  0  0  0  0  0
   34.4940   24.3260   30.3320 H   0  0  0  0  0  0  0  0  0  0  0  0
   35.2100   26.7340   30.9790 H   0  0  0  0  0  0  0  0  0  0  0  0
   34.9220   20.1210   32.0690 C   0  0  0  0  0  0  0  0  0  0  0  0
   34.9790   21.5060   32.2410 C   0  0  0  0  0  0  0  0  0  0  0  0
   35.9940   22.2300   31.5980 C   0  0  0  0  0  0  0  0  0  0  0  0
   36.8660   21.5210   30.8400 N   0  0  0  0  0  0  0  0  0  0  0  0
   36.7870   20.1800   30.6910 C   0  0  0  0  0  0  0  0  0  0  0  0
   35.8210   19.4900   31.3020 N   0  0  0  0  0  0  0  0  0  0  0  0
   34.1300   19.5540   32.5720 H   0  0  0  0  0  0  0  0  0  0  0  0
   34.2690   22.0430   32.8520 H   0  0  0  0  0  0  0  0  0  0  0  0
   37.4930   19.6290   30.0810 H   0  0  0  0  0  0  0  0  0  0  0  0
   37.8530   26.5400   34.2140 C   0  0  0  0  0  0  0  0  0  0  0  0
   37.4390   27.2490   34.9470 H   0  0  0  0  0  0  0  0  0  0  0  0
   37.3690   25.5570   34.4780 H   0  0  0  0  0  0  0  0  0  0  0  0
   39.7020   25.1910   35.0020 C   0  0  0  0  0  0  0  0  0  0  0  0
   39.2990   26.3450   34.3230 C   0  0  0  0  0  0  0  0  0  0  0  0
   40.3120   27.1550   33.8320 C   0  0  0  0  0  0  0  0  0  0  0  0
   39.9870   28.0350   33.3090 H   0  0  0  0  0  0  0  0  0  0  0  0
   41.6350   26.8580   33.9930 C   0  0  0  0  0  0  0  0  0  0  0  0
   42.4020   27.5180   33.5940 H   0  0  0  0  0  0  0  0  0  0  0  0
   42.0630   25.7320   34.6560 C   0  0  0  0  0  3  0  0  0  0  0  0
   41.0660   24.9230   35.1450 C   0  0  0  0  0  3  0  0  0  0  0  0
   37.3910   24.1250   34.9440 H   0  0  0  0  0  0  0  0  0  0  0  0
   38.5250   24.0780   35.6780 S   0  0  0  0  0  0  0  0  0  0  0  0
   38.1870   24.4720   37.0780 O   0  0  0  0  0  0  0  0  0  0  0  0
   39.0530   22.6730   35.6580 O   0  0  0  0  0  0  0  0  0  0  0  0
  1 20  1  0  0  0  0
  2  1  1  0  0  0  0
  3  1  1  0  0  0  0
  4  8  2  0  0  0  0
  5  6  2  0  0  0  0
  5  4  1  0  0  0  0
  6  7  1  0  0  0  0
  7  8  1  0  0  0  0
  7  1  1  0  0  0  0
  9  5  1  0  0  0  0
 10  6  1  0  0  0  0
 11 12  1  0  0  0  0
 11 17  1  0  0  0  0
 12 18  1  0  0  0  0
 13  4  1  0  0  0  0
 13 12  2  0  0  0  0
 14 13  1  0  0  0  0
 15 14  2  0  0  0  0
 15 16  1  0  0  0  0
 16 11  2  0  0  0  0
 19 15  1  0  0  0  0
 20 24  1  0  0  0  0
 20 22  1  0  0  0  0
 20 21  1  0  0  0  0
 23 30  1  0  0  0  0
 23 32  1  0  0  0  0
 24 23  2  0  0  0  0
 25 27  2  0  0  0  0
 25 24  1  0  0  0  0
 26 25  1  0  0  0  0
 27 29  1  0  0  0  0
 28 27  1  0  0  0  0
 29 30  2  0  0  0  0
 31 32  1  0  0  0  0
 32 33  2  0  0  0  0
 34 32  2  0  0  0  0
M  END
>  <minimizedAffinity>
-5.12455368

$$$$

 OpenBabel03272508353D

 34 36  0  0  0  0  0  0  0  0999 V2000
   36.6590   27.1080   32.3660 C   0  0  0  0  0  0  0  0  0  0  0  0
   37.4830   27.5180   31.7350 H   0  0  0  0  0  0  0  0  0  0  0  0
   36.2580   26.2520   31.8170 H   0  0  0  0  0  0  0  0  0  0  0  0
   38.0580   25.6300   35.3510 C   0  0  0  0  0  0  0  0  0  0  0  0
   37.8920   26.9380   35.7340 C   0  0  0  0  0  0  0  0  0  0  0  0
   37.3520   27.6510   34.6790 C   0  0  0  0  0  0  0  0  0  0  0  0
   37.2020   26.7480   33.6740 N   0  0  0  0  0  0  0  0  0  0  0  0
   37.6220   25.5600   34.0850 N   0  0  0  0  0  0  0  0  0  0  0  0
   38.1220   27.4280   36.6880 H   0  0  0  0  0  0  0  0  0  0  0  0
   37.1080   28.7050   34.6710 H   0  0  0  0  0  0  0  0  0  0  0  0
   38.6770   23.4150   38.3190 C   0  0  0  0  0  0  0  0  0  0  0  0
   38.0890   24.3990   37.5210 C   0  0  0  0  0  0  0  0  0  0  0  0
   38.6070   24.6330   36.2390 C   0  0  0  0  0  0  0  0  0  0  0  0
   39.6630   23.8740   35.8570 N   0  0  0  0  0  0  0  0  0  0  0  0
   40.2120   22.9280   36.6510 C   0  0  0  0  0  0  0  0  0  0  0  0
   39.7190   22.7040   37.8700 N   0  0  0  0  0  0  0  0  0  0  0  0
   38.2730   23.2320   39.3220 H   0  0  0  0  0  0  0  0  0  0  0  0
   37.2480   24.9890   37.8540 H   0  0  0  0  0  0  0  0  0  0  0  0
   41.0560   22.3300   36.3290 H   0  0  0  0  0  0  0  0  0  0  0  0
   35.6540   28.2180   32.5020 C   0  0  0  0  0  0  0  0  0  0  0  0
   34.6560   27.8670   32.1980 H   0  0  0  0  0  0  0  0  0  0  0  0
   35.5550   28.3970   33.6110 H   0  0  0  0  0  0  0  0  0  0  0  0
   35.8000   30.6280   32.6750 C   0  0  0  0  0  0  0  0  0  0  0  0
   36.0490   29.4900   31.8990 C   0  0  0  0  0  0  0  0  0  0  0  0
   36.6420   29.7060   30.6640 C   0  0  0  0  0  0  0  0  0  0  0  0
   36.8310   28.8230   30.0830 H   0  0  0  0  0  0  0  0  0  0  0  0
   36.9730   30.9520   30.2140 C   0  0  0  0  0  0  0  0  0  0  0  0
   37.4380   31.0810   29.2390 H   0  0  0  0  0  0  0  0  0  0  0  0
   36.7410   32.0890   30.9520 C   0  0  0  0  0  3  0  0  0  0  0  0
   36.1540   31.8850   32.1770 C   0  0  0  0  0  3  0  0  0  0  0  0
   34.8720   29.1980   34.5650 H   0  0  0  0  0  0  0  0  0  0  0  0
   35.0500   30.5020   34.2570 S   0  0  0  0  0  0  0  0  0  0  0  0
   33.7120   31.1620   34.2460 O   0  0  0  0  0  0  0  0  0  0  0  0
   35.9200   31.1300   35.3060 O   0  0  0  0  0  0  0  0  0  0  0  0
  1 20  1  0  0  0  0
  1  7  1  0  0  0  0
  2  1  1  0  0  0  0
  3  1  1  0  0  0  0
  4  5  1  0  0  0  0
  4 13  1  0  0  0  0
  5  9  1  0  0  0  0
  6  5  2  0  0  0  0
  7  8  1  0  0  0  0
  7  6  1  0  0  0  0
  8  4  2  0  0  0  0
 10  6  1  0  0  0  0
 11 17  1  0  0  0  0
 12 18  1  0  0  0  0
 12 11  2  0  0  0  0
 13 12  1  0  0  0  0
 14 13  2  0  0  0  0
 14 15  1  0  0  0  0
 15 16  2  0  0  0  0
 16 11  1  0  0  0  0
 19 15  1  0  0  0  0
 20 22  1  0  0  0  0
 21 20  1  0  0  0  0
 23 32  1  0  0  0  0
 24 20  1  0  0  0  0
 24 23  2  0  0  0  0
 25 24  1  0  0  0  0
 26 25  1  0  0  0  0
 27 25  2  0  0  0  0
 27 29  1  0  0  0  0
 28 27  1  0  0  0  0
 29 30  2  0  0  0  0
 30 23  1  0  0  0  0
 32 31  1  0  0  0  0
 32 34  2  0  0  0  0
 33 32  2  0  0  0  0
M  END
>  <minimizedAffinity>
-5.10362911

$$$$

 OpenBabel03272508353D

 34 36  0  0  0  0  0  0  0  0999 V2000
   36.5240   26.5710   31.1620 C   0  0  0  0  0  0  0  0  0  0  0  0
   36.3040   26.8960   30.1180 H   0  0  0  0  0  0  0  0  0  0  0  0
   35.6540   26.8600   31.7570 H   0  0  0  0  0  0  0  0  0  0  0  0
   36.5820   22.9740   31.5100 C   0  0  0  0  0  0  0  0  0  0  0  0
   37.7090   23.2050   30.7600 C   0  0  0  0  0  0  0  0  0  0  0  0
   37.8320   24.5640   30.5380 C   0  0  0  0  0  0  0  0  0  0  0  0
   36.7670   25.1290   31.1640 N   0  0  0  0  0  0  0  0  0  0  0  0
   36.0380   24.1790   31.7340 N   0  0  0  0  0  0  0  0  0  0  0  0
   38.4450   22.4970   30.3580 H   0  0  0  0  0  0  0  0  0  0  0  0
   38.6170   25.0580   29.9800 H   0  0  0  0  0  0  0  0  0  0  0  0
   35.6690   19.3330   31.4480 C   0  0  0  0  0  0  0  0  0  0  0  0
   36.0630   20.5910   30.9860 C   0  0  0  0  0  0  0  0  0  0  0  0
   36.1800   21.6460   31.9040 C   0  0  0  0  0  0  0  0  0  0  0  0
   35.8960   21.3650   33.1990 N   0  0  0  0  0  0  0  0  0  0  0  0
   35.5160   20.1370   33.6180 C   0  0  0  0  0  0  0  0  0  0  0  0
   35.4060   19.1330   32.7460 N   0  0  0  0  0  0  0  0  0  0  0  0
   35.5760   18.5080   30.7310 H   0  0  0  0  0  0  0  0  0  0  0  0
   36.2820   20.7840   29.9470 H   0  0  0  0  0  0  0  0  0  0  0  0
   35.2930   19.9310   34.6580 H   0  0  0  0  0  0  0  0  0  0  0  0
   37.7660   27.3120   31.5730 C   0  0  0  0  0  0  0  0  0  0  0  0
   38.6130   27.0210   30.9320 H   0  0  0  0  0  0  0  0  0  0  0  0
   37.5750   28.3890   31.3000 H   0  0  0  0  0  0  0  0  0  0  0  0
   39.3980   27.0310   33.3380 C   0  0  0  0  0  0  0  0  0  0  0  0
   38.0620   27.2810   33.0040 C   0  0  0  0  0  0  0  0  0  0  0  0
   37.1890   27.4750   34.0650 C   0  0  0  0  0  0  0  0  0  0  0  0
   36.1690   27.6690   33.7920 H   0  0  0  0  0  0  0  0  0  0  0  0
   37.5930   27.4280   35.3680 C   0  0  0  0  0  0  0  0  0  0  0  0
   36.8790   27.5850   36.1740 H   0  0  0  0  0  0  0  0  0  0  0  0
   38.8980   27.1840   35.7290 C   0  0  0  0  0  3  0  0  0  0  0  0
   39.7690   26.9920   34.6850 C   0  0  0  0  0  3  0  0  0  0  0  0
   40.1100   27.1340   30.8970 H   0  0  0  0  0  0  0  0  0  0  0  0
   40.6090   26.7640   32.0970 S   0  0  0  0  0  0  0  0  0  0  0  0
   40.9620   25.3150   32.0250 O   0  0  0  0  0  0  0  0  0  0  0  0
   41.8410   27.5750   32.3760 O   0  0  0  0  0  0  0  0  0  0  0  0
  1  7  1  0  0  0  0
  1 20  1  0  0  0  0
  1  3  1  0  0  0  0
  2  1  1  0  0  0  0
  4  8  2  0  0  0  0
  4 13  1  0  0  0  0
  5  4  1  0  0  0  0
  6  5  2  0  0  0  0
  6  7  1  0  0  0  0
  7  8  1  0  0  0  0
  9  5  1  0  0  0  0
 10  6  1  0  0  0  0
 11 16  1  0  0  0  0
 12 11  2  0  0  0  0
 12 13  1  0  0  0  0
 13 14  2  0  0  0  0
 14 15  1  0  0  0  0
 15 19  1  0  0  0  0
 16 15  2  0  0  0  0
 17 11  1  0  0  0  0
 18 12  1  0  0  0  0
 20 24  1  0  0  0  0
 21 20  1  0  0  0  0
 22 20  1  0  0  0  0
 23 30  1  0  0  0  0
 24 23  2  0  0  0  0
 24 25  1  0  0  0  0
 25 27  2  0  0  0  0
 26 25  1  0  0  0  0
 27 29  1  0  0  0  0
 27 28  1  0  0  0  0
 30 29  2  0  0  0  0
 31 32  1  0  0  0  0
 32 34  2  0  0  0  0
 32 23  1  0  0  0  0
 33 32  2  0  0  0  0
M  END
>  <minimizedAffinity>
-5.08108568

$$$$

 OpenBabel03272508353D

 34 36  0  0  0  0  0  0  0  0999 V2000
   38.0730   24.1070   33.5840 C   0  0  0  0  0  0  0  0  0  0  0  0
   37.3640   23.5010   34.1970 H   0  0  0  0  0  0  0  0  0  0  0  0
   38.4230   23.4440   32.7880 H   0  0  0  0  0  0  0  0  0  0  0  0
   36.5640   27.3110   32.8690 C   0  0  0  0  0  0  0  0  0  0  0  0
   36.1690   26.5640   31.7870 C   0  0  0  0  0  0  0  0  0  0  0  0
   36.6760   25.2840   31.9140 C   0  0  0  0  0  0  0  0  0  0  0  0
   37.3700   25.2860   33.0820 N   0  0  0  0  0  0  0  0  0  0  0  0
   37.2950   26.4890   33.6350 N   0  0  0  0  0  0  0  0  0  0  0  0
   35.5600   26.8470   30.9190 H   0  0  0  0  0  0  0  0  0  0  0  0
   36.5390   24.4640   31.2210 H   0  0  0  0  0  0  0  0  0  0  0  0
   35.8760   30.9390   32.1910 C   0  0  0  0  0  0  0  0  0  0  0  0
   36.2530   29.6140   31.9620 C   0  0  0  0  0  0  0  0  0  0  0  0
   36.1940   28.6970   33.0220 C   0  0  0  0  0  0  0  0  0  0  0  0
   35.7670   29.1710   34.2180 N   0  0  0  0  0  0  0  0  0  0  0  0
   35.4080   30.4600   34.4120 C   0  0  0  0  0  0  0  0  0  0  0  0
   35.4630   31.3330   33.4030 N   0  0  0  0  0  0  0  0  0  0  0  0
   35.9230   31.6570   31.3630 H   0  0  0  0  0  0  0  0  0  0  0  0
   36.5890   29.2660   30.9970 H   0  0  0  0  0  0  0  0  0  0  0  0
   35.0690   30.8220   35.3750 H   0  0  0  0  0  0  0  0  0  0  0  0
   39.1810   24.5130   34.5160 C   0  0  0  0  0  0  0  0  0  0  0  0
   40.1540   24.1930   34.1120 H   0  0  0  0  0  0  0  0  0  0  0  0
   39.2190   25.6390   34.4620 H   0  0  0  0  0  0  0  0  0  0  0  0
   39.9300   23.3060   36.4750 C   0  0  0  0  0  0  0  0  0  0  0  0
   38.9720   24.1600   35.9190 C   0  0  0  0  0  0  0  0  0  0  0  0
   37.9510   24.5710   36.7630 C   0  0  0  0  0  0  0  0  0  0  0  0
   37.2260   25.2290   36.3240 H   0  0  0  0  0  0  0  0  0  0  0  0
   37.8710   24.1750   38.0670 C   0  0  0  0  0  0  0  0  0  0  0  0
   37.0550   24.5190   38.7000 H   0  0  0  0  0  0  0  0  0  0  0  0
   38.7960   23.3360   38.6430 C   0  0  0  0  0  3  0  0  0  0  0  0
   39.8110   22.9250   37.8150 C   0  0  0  0  0  3  0  0  0  0  0  0
   40.8840   22.5690   34.2330 H   0  0  0  0  0  0  0  0  0  0  0  0
   41.2750   22.7050   35.5190 S   0  0  0  0  0  0  0  0  0  0  0  0
   41.7030   21.3650   36.0180 O   0  0  0  0  0  0  0  0  0  0  0  0
   42.4300   23.6620   35.5720 O   0  0  0  0  0  0  0  0  0  0  0  0
  1  2  1  0  0  0  0
  1 20  1  0  0  0  0
  3  1  1  0  0  0  0
  4 13  1  0  0  0  0
  4  8  2  0  0  0  0
  5  6  2  0  0  0  0
  5  4  1  0  0  0  0
  6  7  1  0  0  0  0
  7  1  1  0  0  0  0
  7  8  1  0  0  0  0
  9  5  1  0  0  0  0
 10  6  1  0  0  0  0
 11 16  1  0  0  0  0
 12 11  2  0  0  0  0
 12 13  1  0  0  0  0
 13 14  2  0  0  0  0
 14 15  1  0  0  0  0
 15 19  1  0  0  0  0
 16 15  2  0  0  0  0
 17 11  1  0  0  0  0
 18 12  1  0  0  0  0
 20 24  1  0  0  0  0
 21 20  1  0  0  0  0
 22 20  1  0  0  0  0
 23 30  1  0  0  0  0
 24 23  2  0  0  0  0
 24 25  1  0  0  0  0
 25 27  2  0  0  0  0
 26 25  1  0  0  0  0
 27 29  1  0  0  0  0
 27 28  1  0  0  0  0
 30 29  2  0  0  0  0
 31 32  1  0  0  0  0
 32 34  2  0  0  0  0
 32 33  2  0  0  0  0
 32 23  1  0  0  0  0
M  END
>  <minimizedAffinity>
-5.00109768

$$$$

 OpenBabel03272508353D

 34 36  0  0  0  0  0  0  0  0999 V2000
   36.5920   27.1900   31.7910 C   0  0  0  0  0  0  0  0  0  0  0  0
   35.6840   26.6130   31.4970 H   0  0  0  0  0  0  0  0  0  0  0  0
   37.1680   27.3340   30.8730 H   0  0  0  0  0  0  0  0  0  0  0  0
   35.4310   29.9380   33.8310 C   0  0  0  0  0  0  0  0  0  0  0  0
   35.7480   30.5720   32.6550 C   0  0  0  0  0  0  0  0  0  0  0  0
   36.2160   29.6360   31.7510 C   0  0  0  0  0  0  0  0  0  0  0  0
   36.1700   28.4470   32.4070 N   0  0  0  0  0  0  0  0  0  0  0  0
   35.7050   28.6400   33.6330 N   0  0  0  0  0  0  0  0  0  0  0  0
   35.6790   31.6330   32.3860 H   0  0  0  0  0  0  0  0  0  0  0  0
   36.5460   29.8270   30.7380 H   0  0  0  0  0  0  0  0  0  0  0  0
   35.1420   32.1610   36.8420 C   0  0  0  0  0  0  0  0  0  0  0  0
   35.7160   31.5050   35.7510 C   0  0  0  0  0  0  0  0  0  0  0  0
   34.9170   30.6510   34.9750 C   0  0  0  0  0  0  0  0  0  0  0  0
   33.6200   30.5210   35.3460 N   0  0  0  0  0  0  0  0  0  0  0  0
   33.0920   31.1690   36.4080 C   0  0  0  0  0  0  0  0  0  0  0  0
   33.8500   31.9810   37.1470 N   0  0  0  0  0  0  0  0  0  0  0  0
   35.7660   32.8270   37.4510 H   0  0  0  0  0  0  0  0  0  0  0  0
   36.7540   31.6290   35.4800 H   0  0  0  0  0  0  0  0  0  0  0  0
   32.0520   31.0530   36.6900 H   0  0  0  0  0  0  0  0  0  0  0  0
   37.3190   26.3340   32.7910 C   0  0  0  0  0  0  0  0  0  0  0  0
   36.7380   26.2620   33.7240 H   0  0  0  0  0  0  0  0  0  0  0  0
   37.2890   25.2900   32.3680 H   0  0  0  0  0  0  0  0  0  0  0  0
   39.2050   26.5220   34.2960 C   0  0  0  0  0  0  0  0  0  0  0  0
   38.7270   26.6730   32.9900 C   0  0  0  0  0  0  0  0  0  0  0  0
   39.6430   27.1170   32.0480 C   0  0  0  0  0  0  0  0  0  0  0  0
   39.2630   27.2240   31.0500 H   0  0  0  0  0  0  0  0  0  0  0  0
   40.9430   27.3950   32.3600 C   0  0  0  0  0  0  0  0  0  0  0  0
   41.6330   27.7400   31.5930 H   0  0  0  0  0  0  0  0  0  0  0  0
   41.4430   27.2560   33.6340 C   0  0  0  0  0  3  0  0  0  0  0  0
   40.5430   26.8170   34.5730 C   0  0  0  0  0  3  0  0  0  0  0  0
   36.8700   26.0010   35.1660 H   0  0  0  0  0  0  0  0  0  0  0  0
   38.1540   25.9720   35.5900 S   0  0  0  0  0  0  0  0  0  0  0  0
   38.2720   26.8770   36.7700 O   0  0  0  0  0  0  0  0  0  0  0  0
   38.4970   24.5660   35.9890 O   0  0  0  0  0  0  0  0  0  0  0  0
  1  7  1  0  0  0  0
  1 20  1  0  0  0  0
  2  1  1  0  0  0  0
  3  1  1  0  0  0  0
  4 13  1  0  0  0  0
  5  4  1  0  0  0  0
  6  7  1  0  0  0  0
  6  5  2  0  0  0  0
  7  8  1  0  0  0  0
  8  4  2  0  0  0  0
  9  5  1  0  0  0  0
 10  6  1  0  0  0  0
 11 16  1  0  0  0  0
 11 17  1  0  0  0  0
 12 11  2  0  0  0  0
 13 14  2  0  0  0  0
 13 12  1  0  0  0  0
 14 15  1  0  0  0  0
 15 19  1  0  0  0  0
 15 16  2  0  0  0  0
 18 12  1  0  0  0  0
 20 24  1  0  0  0  0
 20 21  1  0  0  0  0
 22 20  1  0  0  0  0
 23 30  1  0  0  0  0
 23 32  1  0  0  0  0
 24 23  2  0  0  0  0
 25 27  2  0  0  0  0
 25 24  1  0  0  0  0
 26 25  1  0  0  0  0
 27 29  1  0  0  0  0
 28 27  1  0  0  0  0
 29 30  2  0  0  0  0
 31 32  1  0  0  0  0
 32 34  2  0  0  0  0
 32 33  2  0  0  0  0
M  END
>  <minimizedAffinity>
-4.97908783

$$$$

 OpenBabel03272508353D

 34 36  0  0  0  0  0  0  0  0999 V2000
   35.9000   26.1920   31.2390 C   0  0  0  0  0  0  0  0  0  0  0  0
   35.4980   26.4970   30.2450 H   0  0  0  0  0  0  0  0  0  0  0  0
   35.0830   26.3340   31.9510 H   0  0  0  0  0  0  0  0  0  0  0  0
   36.4550   22.6210   31.2990 C   0  0  0  0  0  0  0  0  0  0  0  0
   37.6150   23.0790   30.7240 C   0  0  0  0  0  0  0  0  0  0  0  0
   37.5580   24.4580   30.6310 C   0  0  0  0  0  0  0  0  0  0  0  0
   36.3540   24.8050   31.1560 N   0  0  0  0  0  0  0  0  0  0  0  0
   35.7140   23.7110   31.5470 N   0  0  0  0  0  0  0  0  0  0  0  0
   38.4910   22.5230   30.3660 H   0  0  0  0  0  0  0  0  0  0  0  0
   38.3200   25.1080   30.2220 H   0  0  0  0  0  0  0  0  0  0  0  0
   34.8130   19.3540   32.1490 C   0  0  0  0  0  0  0  0  0  0  0  0
   34.9670   20.7280   31.9500 C   0  0  0  0  0  0  0  0  0  0  0  0
   36.2120   21.2180   31.5280 C   0  0  0  0  0  0  0  0  0  0  0  0
   37.1970   20.3060   31.3400 N   0  0  0  0  0  0  0  0  0  0  0  0
   37.0190   18.9810   31.5410 C   0  0  0  0  0  0  0  0  0  0  0  0
   35.8350   18.5140   31.9410 N   0  0  0  0  0  0  0  0  0  0  0  0
   33.8400   18.9700   32.4800 H   0  0  0  0  0  0  0  0  0  0  0  0
   34.1620   21.4300   32.1090 H   0  0  0  0  0  0  0  0  0  0  0  0
   37.8190   18.2660   31.3850 H   0  0  0  0  0  0  0  0  0  0  0  0
   37.0600   27.1080   31.5140 C   0  0  0  0  0  0  0  0  0  0  0  0
   37.8730   26.9190   30.7960 H   0  0  0  0  0  0  0  0  0  0  0  0
   36.6950   28.1410   31.2490 H   0  0  0  0  0  0  0  0  0  0  0  0
   36.7780   28.0270   33.7350 C   0  0  0  0  0  0  0  0  0  0  0  0
   37.4960   27.1550   32.9090 C   0  0  0  0  0  0  0  0  0  0  0  0
   38.5210   26.4410   33.5120 C   0  0  0  0  0  0  0  0  0  0  0  0
   39.0590   25.7740   32.8660 H   0  0  0  0  0  0  0  0  0  0  0  0
   38.8270   26.5690   34.8360 C   0  0  0  0  0  0  0  0  0  0  0  0
   39.6390   25.9920   35.2730 H   0  0  0  0  0  0  0  0  0  0  0  0
   38.1410   27.4170   35.6740 C   0  0  0  0  0  3  0  0  0  0  0  0
   37.1240   28.1270   35.0860 C   0  0  0  0  0  3  0  0  0  0  0  0
   34.8330   28.3120   32.1180 H   0  0  0  0  0  0  0  0  0  0  0  0
   35.4570   28.9940   33.1040 S   0  0  0  0  0  0  0  0  0  0  0  0
   35.9810   30.2670   32.5270 O   0  0  0  0  0  0  0  0  0  0  0  0
   34.4600   29.2970   34.1850 O   0  0  0  0  0  0  0  0  0  0  0  0
  1 20  1  0  0  0  0
  1  3  1  0  0  0  0
  2  1  1  0  0  0  0
  4 13  1  0  0  0  0
  4  8  2  0  0  0  0
  5  4  1  0  0  0  0
  6  5  2  0  0  0  0
  6  7  1  0  0  0  0
  7  1  1  0  0  0  0
  7  8  1  0  0  0  0
  9  5  1  0  0  0  0
 10  6  1  0  0  0  0
 11 17  1  0  0  0  0
 12 18  1  0  0  0  0
 12 11  1  0  0  0  0
 13 12  2  0  0  0  0
 14 13  1  0  0  0  0
 14 15  2  0  0  0  0
 15 16  1  0  0  0  0
 16 11  2  0  0  0  0
 19 15  1  0  0  0  0
 20 24  1  0  0  0  0
 21 20  1  0  0  0  0
 22 20  1  0  0  0  0
 23 30  1  0  0  0  0
 24 25  1  0  0  0  0
 24 23  2  0  0  0  0
 25 27  2  0  0  0  0
 26 25  1  0  0  0  0
 27 28  1  0  0  0  0
 27 29  1  0  0  0  0
 30 29  2  0  0  0  0
 31 32  1  0  0  0  0
 32 23  1  0  0  0  0
 32 34  2  0  0  0  0
 33 32  2  0  0  0  0
M  END
>  <minimizedAffinity>
-4.96522951

$$$$

 OpenBabel03272508353D

 34 36  0  0  0  0  0  0  0  0999 V2000
   38.5000   24.0580   35.0560 C   0  0  0  0  0  0  0  0  0  0  0  0
   39.5520   24.0110   35.4240 H   0  0  0  0  0  0  0  0  0  0  0  0
   37.9120   23.4460   35.7460 H   0  0  0  0  0  0  0  0  0  0  0  0
   37.1060   27.3390   34.4660 C   0  0  0  0  0  0  0  0  0  0  0  0
   37.8800   27.5560   35.5800 C   0  0  0  0  0  0  0  0  0  0  0  0
   38.4950   26.3700   35.9380 C   0  0  0  0  0  0  0  0  0  0  0  0
   38.0760   25.4560   35.0250 N   0  0  0  0  0  0  0  0  0  0  0  0
   37.2570   26.0420   34.1620 N   0  0  0  0  0  0  0  0  0  0  0  0
   38.0430   28.4750   36.1570 H   0  0  0  0  0  0  0  0  0  0  0  0
   39.1670   26.2190   36.7740 H   0  0  0  0  0  0  0  0  0  0  0  0
   35.2680   29.4500   31.9650 C   0  0  0  0  0  0  0  0  0  0  0  0
   36.0240   28.3960   32.4830 C   0  0  0  0  0  0  0  0  0  0  0  0
   36.3330   28.3910   33.8510 C   0  0  0  0  0  0  0  0  0  0  0  0
   35.8680   29.4290   34.5880 N   0  0  0  0  0  0  0  0  0  0  0  0
   35.1390   30.4370   34.0600 C   0  0  0  0  0  0  0  0  0  0  0  0
   34.8440   30.4420   32.7580 N   0  0  0  0  0  0  0  0  0  0  0  0
   35.0270   29.4570   30.8950 H   0  0  0  0  0  0  0  0  0  0  0  0
   36.3800   27.5830   31.8690 H   0  0  0  0  0  0  0  0  0  0  0  0
   34.7760   31.2590   34.6640 H   0  0  0  0  0  0  0  0  0  0  0  0
   38.5220   23.4850   33.6660 C   0  0  0  0  0  0  0  0  0  0  0  0
   38.6870   24.2850   32.9280 H   0  0  0  0  0  0  0  0  0  0  0  0
   39.4630   22.8660   33.6130 H   0  0  0  0  0  0  0  0  0  0  0  0
   36.7210   22.8920   32.1620 C   0  0  0  0  0  0  0  0  0  0  0  0
   37.4080   22.5950   33.3450 C   0  0  0  0  0  0  0  0  0  0  0  0
   36.9560   21.4950   34.0580 C   0  0  0  0  0  0  0  0  0  0  0  0
   37.4960   21.2770   34.9600 H   0  0  0  0  0  0  0  0  0  0  0  0
   35.9010   20.7330   33.6460 C   0  0  0  0  0  0  0  0  0  0  0  0
   35.5750   19.8770   34.2320 H   0  0  0  0  0  0  0  0  0  0  0  0
   35.2050   21.0000   32.4890 C   0  0  0  0  0  3  0  0  0  0  0  0
   35.6470   22.0860   31.7750 C   0  0  0  0  0  3  0  0  0  0  0  0
   37.9340   25.1140   31.8920 H   0  0  0  0  0  0  0  0  0  0  0  0
   37.1840   24.2580   31.1620 S   0  0  0  0  0  0  0  0  0  0  0  0
   35.9700   24.9900   30.6950 O   0  0  0  0  0  0  0  0  0  0  0  0
   37.9890   23.8010   29.9810 O   0  0  0  0  0  0  0  0  0  0  0  0
  1  2  1  0  0  0  0
  1  3  1  0  0  0  0
  4  5  1  0  0  0  0
  5  6  2  0  0  0  0
  5  9  1  0  0  0  0
  6 10  1  0  0  0  0
  7  1  1  0  0  0  0
  7  6  1  0  0  0  0
  8  4  2  0  0  0  0
  8  7  1  0  0  0  0
 11 12  2  0  0  0  0
 11 16  1  0  0  0  0
 12 13  1  0  0  0  0
 13  4  1  0  0  0  0
 13 14  2  0  0  0  0
 15 14  1  0  0  0  0
 15 19  1  0  0  0  0
 16 15  2  0  0  0  0
 17 11  1  0  0  0  0
 18 12  1  0  0  0  0
 20  1  1  0  0  0  0
 21 20  1  0  0  0  0
 22 20  1  0  0  0  0
 23 24  1  0  0  0  0
 24 20  1  0  0  0  0
 24 25  2  0  0  0  0
 25 26  1  0  0  0  0
 27 25  1  0  0  0  0
 27 28  1  0  0  0  0
 29 27  2  0  0  0  0
 30 23  2  0  0  0  0
 30 29  1  0  0  0  0
 32 31  1  0  0  0  0
 32 23  1  0  0  0  0
 33 32  2  0  0  0  0
 34 32  2  0  0  0  0
M  END
>  <minimizedAffinity>
-4.96353912

$$$$
