
 OpenBabel03272507583D

 35 37  0  0  0  0  0  0  0  0999 V2000
   37.0140   30.9150   47.8190 C   0  0  0  0  0  0  0  0  0  0  0  0
   37.4310   31.9580   48.6250 C   0  0  0  0  0  0  0  0  0  0  0  0
   38.4330   32.8060   48.1800 C   0  0  0  0  0  0  0  0  0  0  0  0
   39.0040   32.5950   46.9320 C   0  0  0  0  0  0  0  0  0  0  0  0
   38.5720   31.5520   46.1500 C   0  0  0  0  0  0  0  0  0  0  0  0
   37.6060   30.7700   46.6320 N   0  0  0  0  0  0  0  0  0  0  0  0
   37.0470   32.2090   49.6150 H   0  0  0  0  0  0  0  0  0  0  0  0
   38.7880   33.6440   48.7930 H   0  0  0  0  0  0  0  0  0  0  0  0
   39.7670   33.2680   46.6330 H   0  0  0  0  0  0  0  0  0  0  0  0
   35.1330   28.7430   50.2320 C   0  0  0  0  0  0  0  0  0  0  0  0
   36.1870   29.5160   49.6630 C   0  0  0  0  0  0  0  0  0  0  0  0
   35.9620   30.1190   48.4300 C   0  0  0  0  0  0  0  0  0  0  0  0
   34.7480   29.9410   47.8290 N   0  0  0  0  0  0  0  0  0  0  0  0
   33.7710   29.1910   48.4160 C   0  0  0  0  0  0  0  0  0  0  0  0
   33.9550   28.6010   49.5950 N   0  0  0  0  0  0  0  0  0  0  0  0
   32.6090   29.1560   47.6050 N   0  0  0  0  0  0  0  0  0  0  0  0
   35.2990   28.2680   51.1940 H   0  0  0  0  0  0  0  0  0  0  0  0
   32.2130   28.3090   47.1750 H   0  0  0  0  0  0  0  0  0  0  0  0
   32.0930   30.0480   47.4120 H   0  0  0  0  0  0  0  0  0  0  0  0
   37.4660   29.6360   50.4160 C   0  0  0  0  0  0  0  0  0  0  0  0
   38.5440   29.7540   49.5640 F   0  0  0  0  0  0  0  0  0  0  0  0
   37.4010   30.7800   51.1820 F   0  0  0  0  0  0  0  0  0  0  0  0
   37.7070   28.5800   51.2570 F   0  0  0  0  0  0  0  0  0  0  0  0
   38.4190   31.5790   43.6940 C   0  0  0  0  0  0  0  0  0  0  0  0
   39.1360   31.2860   44.8340 C   0  0  0  0  0  0  0  0  0  0  0  0
   40.3930   30.7380   44.6740 C   0  0  0  0  0  0  0  0  0  0  0  0
   41.0160   30.4820   45.5030 H   0  0  0  0  0  0  0  0  0  0  0  0
   40.9540   30.4750   43.4470 C   0  0  0  0  0  0  0  0  0  0  0  0
   41.9430   30.0450   43.3210 H   0  0  0  0  0  0  0  0  0  0  0  0
   40.2640   30.7560   42.2970 C   0  0  0  0  0  3  0  0  0  0  0  0
   39.0080   31.3040   42.4530 C   0  0  0  0  0  3  0  0  0  0  0  0
   36.6060   32.9540   44.9070 H   0  0  0  0  0  0  0  0  0  0  0  0
   36.8210   32.2730   43.7380 S   0  0  0  0  0  0  0  0  0  0  0  0
   35.7960   31.1480   43.7450 O   0  0  0  0  0  0  0  0  0  0  0  0
   36.5070   33.1050   42.5270 O   0  0  0  0  0  0  0  0  0  0  0  0
  1 12  1  0  0  0  0
  1  2  1  0  0  0  0
  2  7  1  0  0  0  0
  3  2  2  0  0  0  0
  3  8  1  0  0  0  0
  4  3  1  0  0  0  0
  5  6  1  0  0  0  0
  5  4  2  0  0  0  0
  6  1  2  0  0  0  0
  9  4  1  0  0  0  0
 10 17  1  0  0  0  0
 11 10  1  0  0  0  0
 11 20  1  0  0  0  0
 12 11  2  0  0  0  0
 13 14  2  0  0  0  0
 13 12  1  0  0  0  0
 14 15  1  0  0  0  0
 15 10  2  0  0  0  0
 16 14  1  0  0  0  0
 18 16  1  0  0  0  0
 19 16  1  0  0  0  0
 20 22  1  0  0  0  0
 20 23  1  0  0  0  0
 21 20  1  0  0  0  0
 24 33  1  0  0  0  0
 24 25  1  0  0  0  0
 25  5  1  0  0  0  0
 26 25  2  0  0  0  0
 26 27  1  0  0  0  0
 28 26  1  0  0  0  0
 29 28  1  0  0  0  0
 30 31  1  0  0  0  0
 30 28  2  0  0  0  0
 31 24  2  0  0  0  0
 33 34  2  0  0  0  0
 33 32  1  0  0  0  0
 35 33  2  0  0  0  0
M  END
>  <minimizedAffinity>
-6.48788691

>  <minimizedRMSD>
1.80341327

$$$$
