
 OpenBabel03272504173D

 29 30  0  0  0  0  0  0  0  0999 V2000
   35.3810   29.8520   46.1450 O   0  0  0  0  0  0  0  0  0  0  0  0
   34.4510   29.5880   47.2880 P   0  0  1  0  0  0  0  0  0  0  0  0
   34.6450   28.0320   47.9360 O   0  0  0  0  0  0  0  0  0  0  0  0
   33.9940   27.9330   48.6620 H   0  0  0  0  0  0  0  0  0  0  0  0
   34.7230   30.6780   48.6010 O   0  0  0  0  0  0  0  0  0  0  0  0
   35.9050   30.6820   49.3260 C   0  0  0  0  0  0  0  0  0  0  0  0
   36.1580   29.9530   50.4780 C   0  0  0  0  0  0  0  0  0  0  0  0
   37.3920   30.0650   51.0870 C   0  0  0  0  0  0  0  0  0  0  0  0
   38.3330   30.8900   50.5370 N   0  0  0  0  0  0  0  0  0  0  0  0
   38.0540   31.5970   49.3970 C   0  0  0  0  0  0  0  0  0  0  0  0
   36.8380   31.4870   48.7970 N   0  0  0  0  0  0  0  0  0  0  0  0
   37.5360   29.4840   51.9700 H   0  0  0  0  0  0  0  0  0  0  0  0
   38.8170   32.2470   48.9780 H   0  0  0  0  0  0  0  0  0  0  0  0
   35.0910   29.1480   50.9230 N   0  0  0  0  0  0  0  0  0  0  0  0
   35.2950   28.2340   51.3630 H   0  0  0  0  0  0  0  0  0  0  0  0
   34.0940   29.4520   50.8200 H   0  0  0  0  0  0  0  0  0  0  0  0
   32.8930   29.8270   46.6880 O   0  0  0  0  0  0  0  0  0  0  0  0
   31.4860   28.0560   46.1570 C   0  0  0  0  0  0  0  0  0  0  0  0
   32.4180   28.9890   45.6870 C   0  0  0  0  0  0  0  0  0  0  0  0
   32.7750   29.0090   44.3550 C   0  0  0  0  0  0  0  0  0  0  0  0
   33.5000   29.7590   44.0710 H   0  0  0  0  0  0  0  0  0  0  0  0
   32.2260   28.1170   43.4540 C   0  0  0  0  0  0  0  0  0  0  0  0
   32.5340   28.1690   42.4170 H   0  0  0  0  0  0  0  0  0  0  0  0
   31.2910   27.1750   43.9010 C   0  0  0  0  0  0  0  0  0  0  0  0
   30.9480   27.1710   45.2370 C   0  0  0  0  0  0  0  0  0  0  0  0
   30.7230   29.1540   48.3740 H   0  0  0  0  0  0  0  0  0  0  0  0
   30.9610   27.9340   47.8070 S   0  0  0  0  0  0  0  0  0  0  0  0
   31.9600   27.2070   48.6640 O   0  0  0  0  0  0  0  0  0  0  0  0
   29.6670   27.1380   47.9090 O   0  0  0  0  0  0  0  0  0  0  0  0
  2  1  2  6  0  0  0
  2  3  1  0  0  0  0
  2  5  1  0  0  0  0
  3  4  1  0  0  0  0
  5  6  1  0  0  0  0
  6  7  1  0  0  0  0
  7 14  1  0  0  0  0
  7  8  2  0  0  0  0
  8 12  1  0  0  0  0
  9  8  1  0  0  0  0
 10  9  2  0  0  0  0
 11  6  2  0  0  0  0
 11 10  1  0  0  0  0
 13 10  1  0  0  0  0
 14 15  1  0  0  0  0
 16 14  1  0  0  0  0
 17  2  1  0  0  0  0
 18 27  1  0  0  0  0
 19 18  1  0  0  0  0
 19 17  1  0  0  0  0
 20 19  2  0  0  0  0
 21 20  1  0  0  0  0
 22 24  2  0  0  0  0
 22 20  1  0  0  0  0
 23 22  1  0  0  0  0
 24 25  1  0  0  0  0
 25 18  2  0  0  0  0
 27 29  2  0  0  0  0
 27 26  1  0  0  0  0
 27 28  2  0  0  0  0
M  END
>  <minimizedAffinity>
-3.94204187

>  <minimizedRMSD>
2.13534117

$$$$
