
 OpenBabel03272503273D

 33 35  0  0  1  0  0  0  0  0999 V2000
   38.9440   24.9970   34.7580 N   0  0  0  0  0  0  0  0  0  0  0  0
   37.7680   25.3530   33.9880 C   0  0  0  0  0  0  0  0  0  0  0  0
   38.2540   26.5590   33.2020 C   0  0  2  0  0  0  0  0  0  0  0  0
   39.6350   26.8800   33.7130 C   0  0  0  0  0  0  0  0  0  0  0  0
   40.1020   25.4450   33.9920 C   0  0  0  0  0  0  0  0  0  0  0  0
   37.5010   24.4930   33.3740 H   0  0  0  0  0  0  0  0  0  0  0  0
   36.9600   25.6720   34.6690 H   0  0  0  0  0  0  0  0  0  0  0  0
   38.4210   26.1570   32.1620 H   0  0  0  0  0  0  0  0  0  0  0  0
   39.6660   27.3650   34.6960 H   0  0  0  0  0  0  0  0  0  0  0  0
   40.2750   27.3510   32.9510 H   0  0  0  0  0  0  0  0  0  0  0  0
   40.9870   25.4800   34.6630 H   0  0  0  0  0  0  0  0  0  0  0  0
   40.2530   24.8690   33.0810 H   0  0  0  0  0  0  0  0  0  0  0  0
   38.9830   24.3360   36.0230 C   0  0  0  0  0  0  0  0  0  0  0  0
   38.0040   24.7010   36.9430 C   0  0  0  0  0  0  0  0  0  0  0  0
   38.0100   24.0740   38.1960 C   0  0  0  0  0  0  0  0  0  0  0  0
   38.9880   23.1390   38.4250 N   0  0  0  0  0  0  0  0  0  0  0  0
   39.9250   22.8150   37.4960 C   0  0  0  0  0  0  0  0  0  0  0  0
   39.9130   23.4260   36.2860 N   0  0  0  0  0  0  0  0  0  0  0  0
   37.2300   25.4160   36.8120 H   0  0  0  0  0  0  0  0  0  0  0  0
   37.2890   24.2910   38.9760 H   0  0  0  0  0  0  0  0  0  0  0  0
   40.6760   22.0640   37.7400 H   0  0  0  0  0  0  0  0  0  0  0  0
   37.0260   28.3850   31.9800 C   0  0  0  0  0  0  0  0  0  0  0  0
   37.3300   27.6680   33.1200 C   0  0  0  0  0  0  0  0  0  0  0  0
   36.6890   28.0480   34.2870 C   0  0  0  0  0  0  0  0  0  0  0  0
   36.8140   27.5970   35.2490 H   0  0  0  0  0  0  0  0  0  0  0  0
   35.7850   29.0980   34.3180 C   0  0  0  0  0  0  0  0  0  0  0  0
   35.2610   29.4270   35.2140 H   0  0  0  0  0  0  0  0  0  0  0  0
   35.4830   29.8140   33.1710 C   0  0  0  0  0  3  0  0  0  0  0  0
   36.1120   29.4440   32.0160 C   0  0  0  0  0  3  0  0  0  0  0  0
   37.7610   26.5410   30.3970 H   0  0  0  0  0  0  0  0  0  0  0  0
   37.8230   27.9230   30.4910 S   0  0  0  0  0  0  0  0  0  0  0  0
   39.2630   28.2730   30.4550 O   0  0  0  0  0  0  0  0  0  0  0  0
   37.0520   28.4150   29.2880 O   0  0  0  0  0  0  0  0  0  0  0  0
  1 13  1  0  0  0  0
  2  7  1  0  0  0  0
  2  1  1  0  0  0  0
  3  8  1  6  0  0  0
  3  4  1  0  0  0  0
  3  2  1  0  0  0  0
  4  5  1  0  0  0  0
  4  9  1  0  0  0  0
  5 11  1  0  0  0  0
  5  1  1  0  0  0  0
  6  2  1  0  0  0  0
 10  4  1  0  0  0  0
 12  5  1  0  0  0  0
 13 18  2  0  0  0  0
 13 14  1  0  0  0  0
 14 15  2  0  0  0  0
 15 16  1  0  0  0  0
 15 20  1  0  0  0  0
 17 21  1  0  0  0  0
 17 16  2  0  0  0  0
 18 17  1  0  0  0  0
 19 14  1  0  0  0  0
 22 29  2  0  0  0  0
 22 23  1  0  0  0  0
 23  3  1  0  0  0  0
 23 24  2  0  0  0  0
 24 26  1  0  0  0  0
 24 25  1  0  0  0  0
 26 27  1  0  0  0  0
 28 26  2  0  0  0  0
 29 28  1  0  0  0  0
 30 31  1  0  0  0  0
 31 22  1  0  0  0  0
 32 31  2  0  0  0  0
 33 31  2  0  0  0  0
M  END
>  <minimizedAffinity>
-5.27997398

$$$$

 OpenBabel03272503273D

 33 35  0  0  1  0  0  0  0  0999 V2000
   37.1590   27.2950   33.5130 N   0  0  0  0  0  0  0  0  0  0  0  0
   37.4500   25.8980   33.7750 C   0  0  0  0  0  0  0  0  0  0  0  0
   38.0510   25.9520   35.1680 C   0  0  2  0  0  0  0  0  0  0  0  0
   38.1920   27.4110   35.5220 C   0  0  0  0  0  0  0  0  0  0  0  0
   36.9360   27.9290   34.8080 C   0  0  0  0  0  0  0  0  0  0  0  0
   36.5120   25.3470   33.7090 H   0  0  0  0  0  0  0  0  0  0  0  0
   38.2180   25.5400   33.0670 H   0  0  0  0  0  0  0  0  0  0  0  0
   37.2250   25.5750   35.8360 H   0  0  0  0  0  0  0  0  0  0  0  0
   39.0160   27.9330   35.0230 H   0  0  0  0  0  0  0  0  0  0  0  0
   38.1220   27.5980   36.6050 H   0  0  0  0  0  0  0  0  0  0  0  0
   37.0200   29.0300   34.6900 H   0  0  0  0  0  0  0  0  0  0  0  0
   36.0150   27.5990   35.2860 H   0  0  0  0  0  0  0  0  0  0  0  0
   37.0990   27.9440   32.2430 C   0  0  0  0  0  0  0  0  0  0  0  0
   36.1320   28.9360   32.0990 C   0  0  0  0  0  0  0  0  0  0  0  0
   36.0420   29.5960   30.8660 C   0  0  0  0  0  0  0  0  0  0  0  0
   36.9200   29.2110   29.8830 N   0  0  0  0  0  0  0  0  0  0  0  0
   37.8480   28.2350   30.0700 C   0  0  0  0  0  0  0  0  0  0  0  0
   37.9280   27.6020   31.2660 N   0  0  0  0  0  0  0  0  0  0  0  0
   35.4340   29.2660   32.8280 H   0  0  0  0  0  0  0  0  0  0  0  0
   35.3240   30.3800   30.6590 H   0  0  0  0  0  0  0  0  0  0  0  0
   38.5170   27.9760   29.2490 H   0  0  0  0  0  0  0  0  0  0  0  0
   39.2610   23.9490   36.0960 C   0  0  0  0  0  0  0  0  0  0  0  0
   39.2200   25.1290   35.3790 C   0  0  0  0  0  0  0  0  0  0  0  0
   40.4100   25.5580   34.8140 C   0  0  0  0  0  0  0  0  0  0  0  0
   40.5450   26.4450   34.2330 H   0  0  0  0  0  0  0  0  0  0  0  0
   41.5880   24.8430   34.9550 C   0  0  0  0  0  0  0  0  0  0  0  0
   42.5420   25.1460   34.5270 H   0  0  0  0  0  0  0  0  0  0  0  0
   41.6230   23.6590   35.6750 C   0  0  0  0  0  3  0  0  0  0  0  0
   40.4540   23.2300   36.2350 C   0  0  0  0  0  3  0  0  0  0  0  0
   36.7980   24.3420   36.5700 H   0  0  0  0  0  0  0  0  0  0  0  0
   37.7700   23.3850   36.8210 S   0  0  0  0  0  0  0  0  0  0  0  0
   37.8410   23.2490   38.2950 O   0  0  0  0  0  0  0  0  0  0  0  0
   37.2620   22.1450   36.1230 O   0  0  0  0  0  0  0  0  0  0  0  0
  1  2  1  0  0  0  0
  1  5  1  0  0  0  0
  2  3  1  0  0  0  0
  3 23  1  0  0  0  0
  3  4  1  0  0  0  0
  3  8  1  1  0  0  0
  4 10  1  0  0  0  0
  5 12  1  0  0  0  0
  5  4  1  0  0  0  0
  6  2  1  0  0  0  0
  7  2  1  0  0  0  0
  9  4  1  0  0  0  0
 11  5  1  0  0  0  0
 13  1  1  0  0  0  0
 14 13  1  0  0  0  0
 14 19  1  0  0  0  0
 15 14  2  0  0  0  0
 16 17  2  0  0  0  0
 16 15  1  0  0  0  0
 17 18  1  0  0  0  0
 18 13  2  0  0  0  0
 20 15  1  0  0  0  0
 21 17  1  0  0  0  0
 22 29  1  0  0  0  0
 22 31  1  0  0  0  0
 23 22  2  0  0  0  0
 24 26  2  0  0  0  0
 24 23  1  0  0  0  0
 25 24  1  0  0  0  0
 26 28  1  0  0  0  0
 27 26  1  0  0  0  0
 28 29  2  0  0  0  0
 30 31  1  0  0  0  0
 31 32  2  0  0  0  0
 33 31  2  0  0  0  0
M  END
>  <minimizedAffinity>
-5.18997622

$$$$

 OpenBabel03272503273D

 33 35  0  0  1  0  0  0  0  0999 V2000
   37.2150   27.2640   33.5710 N   0  0  0  0  0  0  0  0  0  0  0  0
   37.4660   25.8620   33.8450 C   0  0  0  0  0  0  0  0  0  0  0  0
   38.0730   25.9130   35.2370 C   0  0  2  0  0  0  0  0  0  0  0  0
   38.2570   27.3700   35.5750 C   0  0  0  0  0  0  0  0  0  0  0  0
   37.0150   27.9170   34.8600 C   0  0  0  0  0  0  0  0  0  0  0  0
   36.5130   25.3370   33.7880 H   0  0  0  0  0  0  0  0  0  0  0  0
   38.2210   25.4750   33.1390 H   0  0  0  0  0  0  0  0  0  0  0  0
   37.2380   25.5660   35.9110 H   0  0  0  0  0  0  0  0  0  0  0  0
   39.0940   27.8630   35.0680 H   0  0  0  0  0  0  0  0  0  0  0  0
   38.1960   27.5700   36.6560 H   0  0  0  0  0  0  0  0  0  0  0  0
   37.1300   29.0140   34.7300 H   0  0  0  0  0  0  0  0  0  0  0  0
   36.0860   27.6190   35.3440 H   0  0  0  0  0  0  0  0  0  0  0  0
   37.1690   27.9020   32.2940 C   0  0  0  0  0  0  0  0  0  0  0  0
   38.1800   27.5660   31.3970 C   0  0  0  0  0  0  0  0  0  0  0  0
   38.1690   28.1710   30.1340 C   0  0  0  0  0  0  0  0  0  0  0  0
   37.1540   29.0580   29.8720 N   0  0  0  0  0  0  0  0  0  0  0  0
   36.1880   29.3550   30.7800 C   0  0  0  0  0  0  0  0  0  0  0  0
   36.2060   28.7650   32.0000 N   0  0  0  0  0  0  0  0  0  0  0  0
   38.9820   26.8890   31.5540 H   0  0  0  0  0  0  0  0  0  0  0  0
   38.9120   27.9730   29.3700 H   0  0  0  0  0  0  0  0  0  0  0  0
   35.4090   30.0690   30.5100 H   0  0  0  0  0  0  0  0  0  0  0  0
   39.2430   23.9180   36.2310 C   0  0  0  0  0  0  0  0  0  0  0  0
   39.2180   25.0580   35.4530 C   0  0  0  0  0  0  0  0  0  0  0  0
   40.4010   25.4100   34.8230 C   0  0  0  0  0  0  0  0  0  0  0  0
   40.5470   26.2590   34.1900 H   0  0  0  0  0  0  0  0  0  0  0  0
   41.5570   24.6590   34.9640 C   0  0  0  0  0  0  0  0  0  0  0  0
   42.5050   24.9020   34.4860 H   0  0  0  0  0  0  0  0  0  0  0  0
   41.5760   23.5160   35.7460 C   0  0  0  0  0  3  0  0  0  0  0  0
   40.4130   23.1630   36.3700 C   0  0  0  0  0  3  0  0  0  0  0  0
   36.8550   24.4920   36.8790 H   0  0  0  0  0  0  0  0  0  0  0  0
   37.7590   23.4520   37.0380 S   0  0  0  0  0  0  0  0  0  0  0  0
   37.9130   23.2610   38.5000 O   0  0  0  0  0  0  0  0  0  0  0  0
   37.1080   22.2800   36.3410 O   0  0  0  0  0  0  0  0  0  0  0  0
  1  2  1  0  0  0  0
  1  5  1  0  0  0  0
  2  3  1  0  0  0  0
  3 23  1  0  0  0  0
  3  4  1  0  0  0  0
  3  8  1  1  0  0  0
  4 10  1  0  0  0  0
  5 12  1  0  0  0  0
  5  4  1  0  0  0  0
  6  2  1  0  0  0  0
  7  2  1  0  0  0  0
  9  4  1  0  0  0  0
 11  5  1  0  0  0  0
 13  1  1  0  0  0  0
 14 19  1  0  0  0  0
 14 13  2  0  0  0  0
 15 14  1  0  0  0  0
 16 15  2  0  0  0  0
 16 17  1  0  0  0  0
 17 18  2  0  0  0  0
 18 13  1  0  0  0  0
 20 15  1  0  0  0  0
 21 17  1  0  0  0  0
 22 29  1  0  0  0  0
 22 31  1  0  0  0  0
 23 22  2  0  0  0  0
 24 26  2  0  0  0  0
 24 23  1  0  0  0  0
 25 24  1  0  0  0  0
 26 28  1  0  0  0  0
 27 26  1  0  0  0  0
 28 29  2  0  0  0  0
 30 31  1  0  0  0  0
 31 32  2  0  0  0  0
 33 31  2  0  0  0  0
M  END
>  <minimizedAffinity>
-5.16773605

$$$$

 OpenBabel03272503273D

 33 35  0  0  1  0  0  0  0  0999 V2000
   38.0430   26.5710   33.4520 N   0  0  0  0  0  0  0  0  0  0  0  0
   38.9790   26.3630   34.5420 C   0  0  0  0  0  0  0  0  0  0  0  0
   39.0500   24.8480   34.6160 C   0  0  2  0  0  0  0  0  0  0  0  0
   38.0190   24.3180   33.6520 C   0  0  0  0  0  0  0  0  0  0  0  0
   38.1470   25.4080   32.5790 C   0  0  0  0  0  0  0  0  0  0  0  0
   39.9170   26.8450   34.2690 H   0  0  0  0  0  0  0  0  0  0  0  0
   38.5460   26.7480   35.4810 H   0  0  0  0  0  0  0  0  0  0  0  0
   40.0410   24.5980   34.1400 H   0  0  0  0  0  0  0  0  0  0  0  0
   36.9800   24.4000   33.9900 H   0  0  0  0  0  0  0  0  0  0  0  0
   38.2880   23.3360   33.2340 H   0  0  0  0  0  0  0  0  0  0  0  0
   37.2530   25.3700   31.9210 H   0  0  0  0  0  0  0  0  0  0  0  0
   39.0970   25.3640   32.0470 H   0  0  0  0  0  0  0  0  0  0  0  0
   37.1790   27.6910   33.2560 C   0  0  0  0  0  0  0  0  0  0  0  0
   36.5030   28.1560   34.3820 C   0  0  0  0  0  0  0  0  0  0  0  0
   35.6450   29.2530   34.2290 C   0  0  0  0  0  0  0  0  0  0  0  0
   35.5330   29.7920   32.9700 N   0  0  0  0  0  0  0  0  0  0  0  0
   36.2130   29.3020   31.9000 C   0  0  0  0  0  0  0  0  0  0  0  0
   37.0410   28.2410   32.0570 N   0  0  0  0  0  0  0  0  0  0  0  0
   36.5570   27.7740   35.3700 H   0  0  0  0  0  0  0  0  0  0  0  0
   35.0780   29.6860   35.0440 H   0  0  0  0  0  0  0  0  0  0  0  0
   36.0810   29.7750   30.9270 H   0  0  0  0  0  0  0  0  0  0  0  0
   39.9300   23.3710   36.4550 C   0  0  0  0  0  0  0  0  0  0  0  0
   39.0270   24.2830   35.9470 C   0  0  0  0  0  0  0  0  0  0  0  0
   38.0100   24.6930   36.7930 C   0  0  0  0  0  0  0  0  0  0  0  0
   37.2350   25.3900   36.5530 H   0  0  0  0  0  0  0  0  0  0  0  0
   37.8960   24.2130   38.0880 C   0  0  0  0  0  0  0  0  0  0  0  0
   37.1120   24.5100   38.7830 H   0  0  0  0  0  0  0  0  0  0  0  0
   38.8050   23.2980   38.5930 C   0  0  0  0  0  3  0  0  0  0  0  0
   39.8120   22.8900   37.7640 C   0  0  0  0  0  3  0  0  0  0  0  0
   40.7320   22.8220   34.1090 H   0  0  0  0  0  0  0  0  0  0  0  0
   41.2260   22.8380   35.4040 S   0  0  0  0  0  0  0  0  0  0  0  0
   41.6880   21.4570   35.6840 O   0  0  0  0  0  0  0  0  0  0  0  0
   42.3450   23.8520   35.3660 O   0  0  0  0  0  0  0  0  0  0  0  0
  1  2  1  0  0  0  0
  2  3  1  0  0  0  0
  2  7  1  0  0  0  0
  3  8  1  6  0  0  0
  3 23  1  0  0  0  0
  4  9  1  0  0  0  0
  4  3  1  0  0  0  0
  5  1  1  0  0  0  0
  5  4  1  0  0  0  0
  6  2  1  0  0  0  0
 10  4  1  0  0  0  0
 11  5  1  0  0  0  0
 12  5  1  0  0  0  0
 13  1  1  0  0  0  0
 13 14  1  0  0  0  0
 14 19  1  0  0  0  0
 15 14  2  0  0  0  0
 15 20  1  0  0  0  0
 16 15  1  0  0  0  0
 17 18  1  0  0  0  0
 17 16  2  0  0  0  0
 18 13  2  0  0  0  0
 21 17  1  0  0  0  0
 22 29  1  0  0  0  0
 23 22  2  0  0  0  0
 23 24  1  0  0  0  0
 24 26  2  0  0  0  0
 25 24  1  0  0  0  0
 26 28  1  0  0  0  0
 26 27  1  0  0  0  0
 29 28  2  0  0  0  0
 30 31  1  0  0  0  0
 31 32  2  0  0  0  0
 31 22  1  0  0  0  0
 33 31  2  0  0  0  0
M  END
>  <minimizedAffinity>
-5.06876326

$$$$

 OpenBabel03272503273D

 33 35  0  0  1  0  0  0  0  0999 V2000
   37.6140   23.6030   32.7780 N   0  0  0  0  0  0  0  0  0  0  0  0
   38.7190   23.8170   33.6950 C   0  0  0  0  0  0  0  0  0  0  0  0
   38.6480   22.5810   34.5740 C   0  0  2  0  0  0  0  0  0  0  0  0
   37.4010   21.8360   34.1730 C   0  0  0  0  0  0  0  0  0  0  0  0
   37.4270   22.1610   32.6740 C   0  0  0  0  0  0  0  0  0  0  0  0
   39.6300   23.8980   33.1030 H   0  0  0  0  0  0  0  0  0  0  0  0
   38.5200   24.7090   34.3140 H   0  0  0  0  0  0  0  0  0  0  0  0
   39.4970   21.9360   34.2060 H   0  0  0  0  0  0  0  0  0  0  0  0
   36.4620   22.2780   34.5240 H   0  0  0  0  0  0  0  0  0  0  0  0
   37.4810   20.7490   34.3320 H   0  0  0  0  0  0  0  0  0  0  0  0
   36.4220   21.9580   32.2450 H   0  0  0  0  0  0  0  0  0  0  0  0
   38.2440   21.6660   32.1510 H   0  0  0  0  0  0  0  0  0  0  0  0
   36.8460   24.5980   32.1010 C   0  0  0  0  0  0  0  0  0  0  0  0
   35.6770   24.1630   31.4810 C   0  0  0  0  0  0  0  0  0  0  0  0
   34.8970   25.1110   30.8060 C   0  0  0  0  0  0  0  0  0  0  0  0
   35.3470   26.4080   30.8050 N   0  0  0  0  0  0  0  0  0  0  0  0
   36.4960   26.7860   31.4240 C   0  0  0  0  0  0  0  0  0  0  0  0
   37.2450   25.8630   32.0750 N   0  0  0  0  0  0  0  0  0  0  0  0
   35.2910   23.1750   31.4550 H   0  0  0  0  0  0  0  0  0  0  0  0
   33.9720   24.8690   30.2950 H   0  0  0  0  0  0  0  0  0  0  0  0
   36.7990   27.8330   31.3860 H   0  0  0  0  0  0  0  0  0  0  0  0
   39.9780   22.5500   36.7110 C   0  0  0  0  0  0  0  0  0  0  0  0
   38.8290   22.8070   35.9900 C   0  0  0  0  0  0  0  0  0  0  0  0
   37.7550   23.3300   36.6920 C   0  0  0  0  0  0  0  0  0  0  0  0
   36.8000   23.5820   36.2830 H   0  0  0  0  0  0  0  0  0  0  0  0
   37.8220   23.5850   38.0520 C   0  0  0  0  0  0  0  0  0  0  0  0
   37.0010   23.9940   38.6390 H   0  0  0  0  0  0  0  0  0  0  0  0
   38.9780   23.3250   38.7710 C   0  0  0  0  0  3  0  0  0  0  0  0
   40.0410   22.8100   38.0850 C   0  0  0  0  0  3  0  0  0  0  0  0
   40.8540   21.1140   34.8090 H   0  0  0  0  0  0  0  0  0  0  0  0
   41.3500   21.8890   35.8470 S   0  0  0  0  0  0  0  0  0  0  0  0
   42.1900   20.9850   36.6680 O   0  0  0  0  0  0  0  0  0  0  0  0
   42.1340   22.9810   35.1570 O   0  0  0  0  0  0  0  0  0  0  0  0
  1  2  1  0  0  0  0
  2  7  1  0  0  0  0
  2  3  1  0  0  0  0
  3  8  1  6  0  0  0
  3 23  1  0  0  0  0
  4 10  1  0  0  0  0
  4  9  1  0  0  0  0
  4  3  1  0  0  0  0
  5  1  1  0  0  0  0
  5  4  1  0  0  0  0
  6  2  1  0  0  0  0
 11  5  1  0  0  0  0
 12  5  1  0  0  0  0
 13  1  1  0  0  0  0
 14 13  2  0  0  0  0
 15 14  1  0  0  0  0
 16 15  2  0  0  0  0
 16 17  1  0  0  0  0
 17 18  2  0  0  0  0
 18 13  1  0  0  0  0
 19 14  1  0  0  0  0
 20 15  1  0  0  0  0
 21 17  1  0  0  0  0
 22 29  1  0  0  0  0
 23 24  1  0  0  0  0
 23 22  2  0  0  0  0
 24 26  2  0  0  0  0
 25 24  1  0  0  0  0
 26 27  1  0  0  0  0
 26 28  1  0  0  0  0
 29 28  2  0  0  0  0
 30 31  1  0  0  0  0
 31 32  2  0  0  0  0
 31 22  1  0  0  0  0
 33 31  2  0  0  0  0
M  END
>  <minimizedAffinity>
-5.05755043

$$$$

 OpenBabel03272503273D

 33 35  0  0  1  0  0  0  0  0999 V2000
   36.8130   23.2800   31.2670 N   0  0  0  0  0  0  0  0  0  0  0  0
   36.2840   24.4060   32.0130 C   0  0  0  0  0  0  0  0  0  0  0  0
   37.4930   25.3200   32.1110 C   0  0  2  0  0  0  0  0  0  0  0  0
   38.6600   24.5570   31.5370 C   0  0  0  0  0  0  0  0  0  0  0  0
   37.9010   23.7940   30.4430 C   0  0  0  0  0  0  0  0  0  0  0  0
   35.4520   24.8190   31.4450 H   0  0  0  0  0  0  0  0  0  0  0  0
   36.0000   24.0780   33.0280 H   0  0  0  0  0  0  0  0  0  0  0  0
   37.2830   26.1310   31.3570 H   0  0  0  0  0  0  0  0  0  0  0  0
   39.0620   23.7680   32.1810 H   0  0  0  0  0  0  0  0  0  0  0  0
   39.4220   25.2140   31.0890 H   0  0  0  0  0  0  0  0  0  0  0  0
   38.5270   22.9420   30.1010 H   0  0  0  0  0  0  0  0  0  0  0  0
   37.5530   24.4440   29.6420 H   0  0  0  0  0  0  0  0  0  0  0  0
   36.3690   21.9230   31.3150 C   0  0  0  0  0  0  0  0  0  0  0  0
   35.2550   21.6640   32.1110 C   0  0  0  0  0  0  0  0  0  0  0  0
   34.7890   20.3450   32.1830 C   0  0  0  0  0  0  0  0  0  0  0  0
   35.4710   19.3980   31.4600 N   0  0  0  0  0  0  0  0  0  0  0  0
   36.5550   19.6980   30.6970 C   0  0  0  0  0  0  0  0  0  0  0  0
   37.0000   20.9770   30.6320 N   0  0  0  0  0  0  0  0  0  0  0  0
   34.6970   22.3610   32.6850 H   0  0  0  0  0  0  0  0  0  0  0  0
   33.9310   20.0460   32.7740 H   0  0  0  0  0  0  0  0  0  0  0  0
   37.0530   18.9000   30.1460 H   0  0  0  0  0  0  0  0  0  0  0  0
   37.2600   27.1880   33.7830 C   0  0  0  0  0  0  0  0  0  0  0  0
   37.7080   25.9390   33.4000 C   0  0  0  0  0  0  0  0  0  0  0  0
   38.4280   25.2190   34.3390 C   0  0  0  0  0  0  0  0  0  0  0  0
   38.8420   24.2430   34.1990 H   0  0  0  0  0  0  0  0  0  0  0  0
   38.6900   25.7200   35.6030 C   0  0  0  0  0  0  0  0  0  0  0  0
   39.2510   25.1860   36.3690 H   0  0  0  0  0  0  0  0  0  0  0  0
   38.2380   26.9740   35.9830 C   0  0  0  0  0  3  0  0  0  0  0  0
   37.5270   27.6900   35.0610 C   0  0  0  0  0  3  0  0  0  0  0  0
   35.5960   27.2250   31.8650 H   0  0  0  0  0  0  0  0  0  0  0  0
   36.3470   28.1190   32.6130 S   0  0  0  0  0  0  0  0  0  0  0  0
   37.1970   28.8520   31.6450 O   0  0  0  0  0  0  0  0  0  0  0  0
   35.3200   28.9910   33.2970 O   0  0  0  0  0  0  0  0  0  0  0  0
  1 13  1  0  0  0  0
  1  2  1  0  0  0  0
  2  3  1  0  0  0  0
  2  7  1  0  0  0  0
  3  8  1  6  0  0  0
  3 23  1  0  0  0  0
  4  3  1  0  0  0  0
  4  9  1  0  0  0  0
  5  1  1  0  0  0  0
  5  4  1  0  0  0  0
  6  2  1  0  0  0  0
 10  4  1  0  0  0  0
 11  5  1  0  0  0  0
 12  5  1  0  0  0  0
 13 14  1  0  0  0  0
 14 15  2  0  0  0  0
 14 19  1  0  0  0  0
 15 20  1  0  0  0  0
 16 15  1  0  0  0  0
 17 16  2  0  0  0  0
 18 17  1  0  0  0  0
 18 13  2  0  0  0  0
 21 17  1  0  0  0  0
 22 29  1  0  0  0  0
 23 22  2  0  0  0  0
 23 24  1  0  0  0  0
 24 26  2  0  0  0  0
 25 24  1  0  0  0  0
 26 28  1  0  0  0  0
 26 27  1  0  0  0  0
 29 28  2  0  0  0  0
 30 31  1  0  0  0  0
 31 33  2  0  0  0  0
 31 22  1  0  0  0  0
 32 31  2  0  0  0  0
M  END
>  <minimizedAffinity>
-4.96389103

$$$$

 OpenBabel03272503273D

 33 35  0  0  1  0  0  0  0  0999 V2000
   37.5370   26.9360   33.7850 N   0  0  0  0  0  0  0  0  0  0  0  0
   37.3990   25.5920   34.3140 C   0  0  0  0  0  0  0  0  0  0  0  0
   37.8860   25.7600   35.7430 C   0  0  2  0  0  0  0  0  0  0  0  0
   38.4090   27.1690   35.8580 C   0  0  0  0  0  0  0  0  0  0  0  0
   37.4080   27.8490   34.9140 C   0  0  0  0  0  0  0  0  0  0  0  0
   36.3510   25.3070   34.2270 H   0  0  0  0  0  0  0  0  0  0  0  0
   38.0830   24.9100   33.7800 H   0  0  0  0  0  0  0  0  0  0  0  0
   36.9400   25.7560   36.3560 H   0  0  0  0  0  0  0  0  0  0  0  0
   39.3810   27.3450   35.3850 H   0  0  0  0  0  0  0  0  0  0  0  0
   38.3160   27.5790   36.8760 H   0  0  0  0  0  0  0  0  0  0  0  0
   37.8100   28.8430   34.6220 H   0  0  0  0  0  0  0  0  0  0  0  0
   36.3990   27.8770   35.3220 H   0  0  0  0  0  0  0  0  0  0  0  0
   37.7570   27.3120   32.4250 C   0  0  0  0  0  0  0  0  0  0  0  0
   37.0230   28.4000   31.9570 C   0  0  0  0  0  0  0  0  0  0  0  0
   37.2120   28.7990   30.6280 C   0  0  0  0  0  0  0  0  0  0  0  0
   38.1120   28.0820   29.8790 N   0  0  0  0  0  0  0  0  0  0  0  0
   38.8060   27.0250   30.3790 C   0  0  0  0  0  0  0  0  0  0  0  0
   38.6170   26.6460   31.6670 N   0  0  0  0  0  0  0  0  0  0  0  0
   36.3190   28.9820   32.4960 H   0  0  0  0  0  0  0  0  0  0  0  0
   36.6890   29.6320   30.1740 H   0  0  0  0  0  0  0  0  0  0  0  0
   39.5060   26.4970   29.7330 H   0  0  0  0  0  0  0  0  0  0  0  0
   39.9630   24.3380   35.6830 C   0  0  0  0  0  0  0  0  0  0  0  0
   38.7550   24.7160   36.2360 C   0  0  0  0  0  0  0  0  0  0  0  0
   38.3440   24.0280   37.3660 C   0  0  0  0  0  0  0  0  0  0  0  0
   37.4390   24.1980   37.9110 H   0  0  0  0  0  0  0  0  0  0  0  0
   39.1020   23.0090   37.9200 C   0  0  0  0  0  0  0  0  0  0  0  0
   38.8130   22.4450   38.8060 H   0  0  0  0  0  0  0  0  0  0  0  0
   40.3120   22.6350   37.3610 C   0  0  0  0  0  3  0  0  0  0  0  0
   40.7240   23.3090   36.2470 C   0  0  0  0  0  3  0  0  0  0  0  0
   39.4880   26.0560   33.8740 H   0  0  0  0  0  0  0  0  0  0  0  0
   40.5050   25.1920   34.2530 S   0  0  0  0  0  0  0  0  0  0  0  0
   40.7470   24.3080   33.0890 O   0  0  0  0  0  0  0  0  0  0  0  0
   41.6690   26.1010   34.5740 O   0  0  0  0  0  0  0  0  0  0  0  0
  1  2  1  0  0  0  0
  1  5  1  0  0  0  0
  2  3  1  0  0  0  0
  3  4  1  0  0  0  0
  3 23  1  0  0  0  0
  3  8  1  1  0  0  0
  4 10  1  0  0  0  0
  5 12  1  0  0  0  0
  5  4  1  0  0  0  0
  6  2  1  0  0  0  0
  7  2  1  0  0  0  0
  9  4  1  0  0  0  0
 11  5  1  0  0  0  0
 13  1  1  0  0  0  0
 14 13  1  0  0  0  0
 14 19  1  0  0  0  0
 15 14  2  0  0  0  0
 16 17  2  0  0  0  0
 16 15  1  0  0  0  0
 17 18  1  0  0  0  0
 18 13  2  0  0  0  0
 20 15  1  0  0  0  0
 21 17  1  0  0  0  0
 22 23  2  0  0  0  0
 22 29  1  0  0  0  0
 23 24  1  0  0  0  0
 24 25  1  0  0  0  0
 24 26  2  0  0  0  0
 26 27  1  0  0  0  0
 28 26  1  0  0  0  0
 29 28  2  0  0  0  0
 30 31  1  0  0  0  0
 31 33  2  0  0  0  0
 31 22  1  0  0  0  0
 32 31  2  0  0  0  0
M  END
>  <minimizedAffinity>
-4.86294413

$$$$

 OpenBabel03272503273D

 33 35  0  0  1  0  0  0  0  0999 V2000
   36.8040   23.1470   31.2480 N   0  0  0  0  0  0  0  0  0  0  0  0
   36.2760   24.2490   32.0290 C   0  0  0  0  0  0  0  0  0  0  0  0
   37.4800   25.1690   32.1370 C   0  0  2  0  0  0  0  0  0  0  0  0
   38.6450   24.4300   31.5300 C   0  0  0  0  0  0  0  0  0  0  0  0
   37.8790   23.6890   30.4250 C   0  0  0  0  0  0  0  0  0  0  0  0
   35.4350   24.6710   31.4810 H   0  0  0  0  0  0  0  0  0  0  0  0
   36.0060   23.8930   33.0380 H   0  0  0  0  0  0  0  0  0  0  0  0
   37.2560   25.9980   31.4070 H   0  0  0  0  0  0  0  0  0  0  0  0
   39.0600   23.6260   32.1490 H   0  0  0  0  0  0  0  0  0  0  0  0
   39.3980   25.1030   31.0910 H   0  0  0  0  0  0  0  0  0  0  0  0
   38.5070   22.8520   30.0540 H   0  0  0  0  0  0  0  0  0  0  0  0
   37.5180   24.3580   29.6450 H   0  0  0  0  0  0  0  0  0  0  0  0
   36.3690   21.7860   31.2660 C   0  0  0  0  0  0  0  0  0  0  0  0
   35.2870   21.4930   32.0920 C   0  0  0  0  0  0  0  0  0  0  0  0
   34.8320   20.1690   32.1360 C   0  0  0  0  0  0  0  0  0  0  0  0
   35.4920   19.2520   31.3560 N   0  0  0  0  0  0  0  0  0  0  0  0
   36.5450   19.5850   30.5650 C   0  0  0  0  0  0  0  0  0  0  0  0
   36.9800   20.8690   30.5270 N   0  0  0  0  0  0  0  0  0  0  0  0
   34.7480   22.1660   32.7110 H   0  0  0  0  0  0  0  0  0  0  0  0
   33.9980   19.8440   32.7480 H   0  0  0  0  0  0  0  0  0  0  0  0
   37.0270   18.8100   29.9690 H   0  0  0  0  0  0  0  0  0  0  0  0
   38.2850   25.1250   34.5220 C   0  0  0  0  0  0  0  0  0  0  0  0
   37.7060   25.7560   33.4390 C   0  0  0  0  0  0  0  0  0  0  0  0
   37.3080   27.0700   33.6210 C   0  0  0  0  0  0  0  0  0  0  0  0
   36.8460   27.6940   32.8860 H   0  0  0  0  0  0  0  0  0  0  0  0
   37.4780   27.7270   34.8290 C   0  0  0  0  0  0  0  0  0  0  0  0
   37.1790   28.7580   35.0120 H   0  0  0  0  0  0  0  0  0  0  0  0
   38.0600   27.0890   35.9130 C   0  0  0  0  0  3  0  0  0  0  0  0
   38.4550   25.7930   35.7400 C   0  0  0  0  0  3  0  0  0  0  0  0
   39.1140   23.2870   32.9790 H   0  0  0  0  0  0  0  0  0  0  0  0
   38.7970   23.4630   34.3180 S   0  0  0  0  0  0  0  0  0  0  0  0
   37.7370   22.4730   34.6220 O   0  0  0  0  0  0  0  0  0  0  0  0
   40.0940   23.2010   35.0470 O   0  0  0  0  0  0  0  0  0  0  0  0
  1 13  1  0  0  0  0
  1  2  1  0  0  0  0
  2  3  1  0  0  0  0
  2  7  1  0  0  0  0
  3  8  1  6  0  0  0
  3 23  1  0  0  0  0
  4  3  1  0  0  0  0
  4  9  1  0  0  0  0
  5  1  1  0  0  0  0
  5  4  1  0  0  0  0
  6  2  1  0  0  0  0
 10  4  1  0  0  0  0
 11  5  1  0  0  0  0
 12  5  1  0  0  0  0
 13 14  1  0  0  0  0
 14 15  2  0  0  0  0
 14 19  1  0  0  0  0
 15 20  1  0  0  0  0
 16 15  1  0  0  0  0
 17 16  2  0  0  0  0
 18 17  1  0  0  0  0
 18 13  2  0  0  0  0
 21 17  1  0  0  0  0
 22 29  1  0  0  0  0
 23 24  1  0  0  0  0
 23 22  2  0  0  0  0
 24 26  2  0  0  0  0
 25 24  1  0  0  0  0
 26 27  1  0  0  0  0
 26 28  1  0  0  0  0
 29 28  2  0  0  0  0
 30 31  1  0  0  0  0
 31 22  1  0  0  0  0
 31 32  2  0  0  0  0
 31 33  2  0  0  0  0
M  END
>  <minimizedAffinity>
-4.79954958

$$$$

 OpenBabel03272503273D

 33 35  0  0  1  0  0  0  0  0999 V2000
   37.1120   27.8650   33.2570 N   0  0  0  0  0  0  0  0  0  0  0  0
   36.1480   28.0450   34.3270 C   0  0  0  0  0  0  0  0  0  0  0  0
   35.3060   29.1980   33.8070 C   0  0  2  0  0  0  0  0  0  0  0  0
   35.9660   29.6790   32.5400 C   0  0  0  0  0  0  0  0  0  0  0  0
   36.4700   28.3220   32.0300 C   0  0  0  0  0  0  0  0  0  0  0  0
   35.6050   27.1080   34.4450 H   0  0  0  0  0  0  0  0  0  0  0  0
   36.6690   28.3680   35.2450 H   0  0  0  0  0  0  0  0  0  0  0  0
   34.3520   28.7050   33.4630 H   0  0  0  0  0  0  0  0  0  0  0  0
   36.8810   30.2630   32.6860 H   0  0  0  0  0  0  0  0  0  0  0  0
   35.2530   30.1170   31.8250 H   0  0  0  0  0  0  0  0  0  0  0  0
   37.2490   28.4960   31.2580 H   0  0  0  0  0  0  0  0  0  0  0  0
   35.6600   27.6680   31.7090 H   0  0  0  0  0  0  0  0  0  0  0  0
   38.4370   27.3440   33.3640 C   0  0  0  0  0  0  0  0  0  0  0  0
   38.9270   27.1570   34.6540 C   0  0  0  0  0  0  0  0  0  0  0  0
   40.2230   26.6470   34.8000 C   0  0  0  0  0  0  0  0  0  0  0  0
   40.9200   26.3680   33.6500 N   0  0  0  0  0  0  0  0  0  0  0  0
   40.4000   26.5660   32.4110 C   0  0  0  0  0  0  0  0  0  0  0  0
   39.1450   27.0600   32.2790 N   0  0  0  0  0  0  0  0  0  0  0  0
   38.4270   27.3590   35.5690 H   0  0  0  0  0  0  0  0  0  0  0  0
   40.6910   26.4680   35.7610 H   0  0  0  0  0  0  0  0  0  0  0  0
   41.0050   26.3240   31.5370 H   0  0  0  0  0  0  0  0  0  0  0  0
   33.7090   30.4660   35.2830 C   0  0  0  0  0  0  0  0  0  0  0  0
   34.9700   30.2150   34.7770 C   0  0  0  0  0  0  0  0  0  0  0  0
   36.0010   31.0130   35.2450 C   0  0  0  0  0  0  0  0  0  0  0  0
   37.0280   30.9470   34.9540 H   0  0  0  0  0  0  0  0  0  0  0  0
   35.7860   32.0170   36.1750 C   0  0  0  0  0  0  0  0  0  0  0  0
   36.5690   32.6650   36.5670 H   0  0  0  0  0  0  0  0  0  0  0  0
   34.5200   32.2650   36.6790 C   0  0  0  0  0  3  0  0  0  0  0  0
   33.4980   31.4810   36.2230 C   0  0  0  0  0  3  0  0  0  0  0  0
   32.8700   28.7090   33.6530 H   0  0  0  0  0  0  0  0  0  0  0  0
   32.3880   29.4710   34.7070 S   0  0  0  0  0  0  0  0  0  0  0  0
   31.2500   30.2500   34.1640 O   0  0  0  0  0  0  0  0  0  0  0  0
   31.9820   28.4540   35.7490 O   0  0  0  0  0  0  0  0  0  0  0  0
  1 13  1  0  0  0  0
  1  2  1  0  0  0  0
  2  6  1  0  0  0  0
  2  7  1  0  0  0  0
  3  8  1  6  0  0  0
  3  2  1  0  0  0  0
  3 23  1  0  0  0  0
  4  9  1  0  0  0  0
  4  3  1  0  0  0  0
  5  4  1  0  0  0  0
  5  1  1  0  0  0  0
 10  4  1  0  0  0  0
 11  5  1  0  0  0  0
 12  5  1  0  0  0  0
 13 14  1  0  0  0  0
 14 15  2  0  0  0  0
 14 19  1  0  0  0  0
 15 20  1  0  0  0  0
 16 15  1  0  0  0  0
 17 16  2  0  0  0  0
 18 17  1  0  0  0  0
 18 13  2  0  0  0  0
 21 17  1  0  0  0  0
 22 29  1  0  0  0  0
 23 24  1  0  0  0  0
 23 22  2  0  0  0  0
 24 26  2  0  0  0  0
 25 24  1  0  0  0  0
 26 27  1  0  0  0  0
 26 28  1  0  0  0  0
 29 28  2  0  0  0  0
 30 31  1  0  0  0  0
 31 22  1  0  0  0  0
 31 33  2  0  0  0  0
 32 31  2  0  0  0  0
M  END
>  <minimizedAffinity>
-4.79284859

$$$$
