
 OpenBabel03262520463D

 37 39  0  0  1  0  0  0  0  0999 V2000
   39.1660   32.3130   46.5330 C   0  0  1  0  0  0  0  0  0  0  0  0
   39.8870   33.4400   45.7800 C   0  0  0  0  0  0  0  0  0  0  0  0
   40.5340   32.1450   46.0090 C   0  0  2  0  0  0  0  0  0  0  0  0
   38.3230   31.8760   45.9880 H   0  0  0  0  0  0  0  0  0  0  0  0
   39.4880   33.7200   44.7900 H   0  0  0  0  0  0  0  0  0  0  0  0
   40.2230   34.3260   46.3630 H   0  0  0  0  0  0  0  0  0  0  0  0
   41.3360   32.1460   46.8030 H   0  0  0  0  0  0  0  0  0  0  0  0
   38.9340   32.6140   47.9970 C   0  0  0  0  0  0  0  0  0  0  0  0
   39.9210   32.7500   48.4880 H   0  0  0  0  0  0  0  0  0  0  0  0
   38.3800   33.5830   48.0380 H   0  0  0  0  0  0  0  0  0  0  0  0
   37.6310   30.3680   50.6930 C   0  0  0  0  0  0  0  0  0  0  0  0
   38.3540   31.3960   50.0180 C   0  0  0  0  0  0  0  0  0  0  0  0
   38.1660   31.5360   48.6620 C   0  0  0  0  0  0  0  0  0  0  0  0
   37.3130   30.7090   48.0220 N   0  0  0  0  0  0  0  0  0  0  0  0
   36.6370   29.7420   48.6750 C   0  0  0  0  0  0  0  0  0  0  0  0
   36.7990   29.5780   50.0010 N   0  0  0  0  0  0  0  0  0  0  0  0
   37.8070   30.2920   51.7450 H   0  0  0  0  0  0  0  0  0  0  0  0
   39.0330   32.0440   50.5600 H   0  0  0  0  0  0  0  0  0  0  0  0
   35.9580   29.0870   48.1450 H   0  0  0  0  0  0  0  0  0  0  0  0
   40.6930   31.1020   44.9350 C   0  0  0  0  0  0  0  0  0  0  0  0
   41.7840   31.0230   44.6750 H   0  0  0  0  0  0  0  0  0  0  0  0
   40.4260   30.1070   45.3090 H   0  0  0  0  0  0  0  0  0  0  0  0
   40.0080   31.4540   43.6450 C   0  0  0  0  0  0  0  0  0  0  0  0
   40.8220   31.3920   42.8600 H   0  0  0  0  0  0  0  0  0  0  0  0
   39.6880   32.5120   43.5900 H   0  0  0  0  0  0  0  0  0  0  0  0
   39.2010   29.5370   42.2350 C   0  0  0  0  0  0  0  0  0  0  0  0
   39.0010   30.4660   43.2500 C   0  0  0  0  0  0  0  0  0  0  0  0
   37.7540   30.3650   43.8540 C   0  0  0  0  0  0  0  0  0  0  0  0
   37.5810   31.0970   44.6600 H   0  0  0  0  0  0  0  0  0  0  0  0
   36.7300   29.4880   43.5770 C   0  0  0  0  0  0  0  0  0  0  0  0
   35.8230   29.5470   44.1450 H   0  0  0  0  0  0  0  0  0  0  0  0
   36.9930   28.5890   42.5570 C   0  0  0  0  0  3  0  0  0  0  0  0
   38.2140   28.6060   41.8860 C   0  0  0  0  0  3  0  0  0  0  0  0
   40.5110   28.5380   40.3520 H   0  0  0  0  0  0  0  0  0  0  0  0
   40.6790   29.4920   41.3560 S   0  0  0  0  0  0  0  0  0  0  0  0
   40.9470   30.7700   40.5720 O   0  0  0  0  0  0  0  0  0  0  0  0
   41.8720   29.0460   42.1030 O   0  0  0  0  0  0  0  0  0  0  0  0
  1  4  1  6  0  0  0
  1  8  1  0  0  0  0
  2  3  1  0  0  0  0
  2  6  1  0  0  0  0
  2  1  1  0  0  0  0
  3  1  1  0  0  0  0
  3  7  1  1  0  0  0
  5  2  1  0  0  0  0
  8 10  1  0  0  0  0
  8  9  1  0  0  0  0
  8 13  1  0  0  0  0
 11 17  1  0  0  0  0
 12 18  1  0  0  0  0
 12 11  1  0  0  0  0
 13 12  2  0  0  0  0
 14 13  1  0  0  0  0
 14 15  2  0  0  0  0
 15 16  1  0  0  0  0
 16 11  2  0  0  0  0
 19 15  1  0  0  0  0
 20 22  1  0  0  0  0
 20  3  1  0  0  0  0
 21 20  1  0  0  0  0
 23 20  1  0  0  0  0
 24 23  1  0  0  0  0
 25 23  1  0  0  0  0
 26 27  1  0  0  0  0
 27 23  1  0  0  0  0
 27 28  2  0  0  0  0
 28 29  1  0  0  0  0
 30 28  1  0  0  0  0
 30 31  1  0  0  0  0
 32 30  2  0  0  0  0
 33 26  2  0  0  0  0
 33 32  1  0  0  0  0
 34 35  1  0  0  0  0
 35 37  2  0  0  0  0
 35 26  1  0  0  0  0
 36 35  2  0  0  0  0
M  END
>  <minimizedAffinity>
-5.02832794

>  <minimizedRMSD>
1.53920341

$$$$
