
 OpenBabel03272509353D

 50 54  0  0  1  0  0  0  0  0999 V2000
   33.5760   26.8870   45.1210 C   0  0  0  0  0  0  0  0  0  0  0  0
   34.2330   27.6320   44.1000 C   0  0  0  0  0  0  0  0  0  0  0  0
   34.7990   28.8300   44.4120 C   0  0  0  0  0  0  0  0  0  0  0  0
   34.6860   29.2350   45.7300 N   0  0  0  0  0  0  0  0  0  0  0  0
   34.0660   28.5250   46.6780 C   0  0  0  0  0  0  0  0  0  0  0  0
   33.5010   27.3420   46.3920 N   0  0  0  0  0  0  0  0  0  0  0  0
   33.1230   25.9330   44.8820 H   0  0  0  0  0  0  0  0  0  0  0  0
   34.2450   27.1980   43.1200 H   0  0  0  0  0  0  0  0  0  0  0  0
   35.4770   29.6340   43.3640 C   0  0  1  0  0  0  0  0  0  0  0  0
   35.4150   31.1120   43.5020 C   0  0  0  0  0  0  0  0  0  0  0  0
   36.6510   30.5230   43.9730 C   0  0  2  0  0  0  0  0  0  0  0  0
   35.7670   29.1010   42.4700 H   0  0  0  0  0  0  0  0  0  0  0  0
   34.7040   31.4620   44.3320 H   0  0  0  0  0  0  0  0  0  0  0  0
   35.1410   31.5580   42.5540 H   0  0  0  0  0  0  0  0  0  0  0  0
   36.9240   30.0950   44.9290 H   0  0  0  0  0  0  0  0  0  0  0  0
   37.7920   30.8390   43.0500 C   0  0  0  0  0  0  0  0  0  0  0  0
   37.7590   32.1910   42.6840 C   0  0  0  0  0  0  0  0  0  0  0  0
   38.7710   32.7180   41.9230 C   0  0  0  0  0  0  0  0  0  0  0  0
   39.8500   31.9330   41.4980 C   0  0  0  0  0  0  0  0  0  0  0  0
   39.8480   30.6000   41.8810 C   0  0  0  0  0  0  0  0  0  0  0  0
   40.8420   29.7250   41.5270 C   0  0  0  0  0  0  0  0  0  0  0  0
   40.8570   28.4020   41.8910 C   0  0  0  0  0  0  0  0  0  0  0  0
   39.8090   27.9170   42.6610 C   0  0  0  0  0  0  0  0  0  0  0  0
   38.8080   28.7950   43.0190 C   0  0  0  0  0  0  0  0  0  0  0  0
   38.8350   30.1150   42.6300 C   0  0  0  0  0  0  0  0  0  0  0  0
   37.1130   33.0270   42.8520 H   0  0  0  0  0  0  0  0  0  0  0  0
   38.9130   33.7230   41.5500 H   0  0  0  0  0  0  0  0  0  0  0  0
   40.7060   32.2200   40.8990 H   0  0  0  0  0  0  0  0  0  0  0  0
   41.6690   30.0910   40.9240 H   0  0  0  0  0  0  0  0  0  0  0  0
   41.6710   27.7540   41.5820 H   0  0  0  0  0  0  0  0  0  0  0  0
   39.7570   26.8950   42.9790 H   0  0  0  0  0  0  0  0  0  0  0  0
   37.9830   28.3900   43.6310 H   0  0  0  0  0  0  0  0  0  0  0  0
   34.0280   29.1100   48.0690 C   0  0  0  0  0  0  0  0  0  0  0  0
   33.0320   29.4240   48.3740 H   0  0  0  0  0  0  0  0  0  0  0  0
   34.4090   28.3480   48.7900 H   0  0  0  0  0  0  0  0  0  0  0  0
   35.0570   30.2560   48.1010 C   0  0  0  0  0  0  0  0  0  0  0  0
   34.5190   31.2200   48.1080 H   0  0  0  0  0  0  0  0  0  0  0  0
   35.6350   30.2280   47.1750 H   0  0  0  0  0  0  0  0  0  0  0  0
   37.1170   30.7760   49.2390 C   0  0  0  0  0  0  0  0  0  0  0  0
   35.8870   30.1580   49.3310 C   0  0  0  0  0  0  0  0  0  0  0  0
   35.5080   29.5210   50.4950 C   0  0  0  0  0  0  0  0  0  0  0  0
   34.5310   29.0520   50.5140 H   0  0  0  0  0  0  0  0  0  0  0  0
   36.3500   29.4860   51.5940 C   0  0  0  0  0  0  0  0  0  0  0  0
   36.0330   28.9730   52.5140 H   0  0  0  0  0  0  0  0  0  0  0  0
   37.5830   30.1020   51.5080 C   0  0  0  0  0  0  0  0  0  0  0  0
   37.9680   30.7460   50.3350 C   0  0  0  0  0  0  0  0  0  0  0  0
   36.8690   32.2220   47.0920 H   0  0  0  0  0  0  0  0  0  0  0  0
   37.8070   31.6330   47.8860 S   0  0  0  0  0  0  0  0  0  0  0  0
   38.5250   30.6380   46.9930 O   0  0  0  0  0  0  0  0  0  0  0  0
   38.8700   32.6270   48.3210 O   0  0  0  0  0  0  0  0  0  0  0  0
  1  6  1  0  0  0  0
  2  3  1  0  0  0  0
  2  1  2  0  0  0  0
  3  4  2  0  0  0  0
  4  5  1  0  0  0  0
  5 33  1  0  0  0  0
  6  5  2  0  0  0  0
  7  1  1  0  0  0  0
  8  2  1  0  0  0  0
  9 12  1  6  0  0  0
  9 10  1  0  0  0  0
  9 11  1  0  0  0  0
  9  3  1  0  0  0  0
 10 11  1  0  0  0  0
 10 13  1  0  0  0  0
 11 15  1  1  0  0  0
 14 10  1  0  0  0  0
 16 11  1  0  0  0  0
 17 26  1  0  0  0  0
 17 16  1  0  0  0  0
 18 17  2  0  0  0  0
 19 20  2  0  0  0  0
 19 18  1  0  0  0  0
 20 25  1  0  0  0  0
 21 20  1  0  0  0  0
 21 22  2  0  0  0  0
 22 23  1  0  0  0  0
 23 31  1  0  0  0  0
 23 24  2  0  0  0  0
 24 32  1  0  0  0  0
 25 24  1  0  0  0  0
 25 16  2  0  0  0  0
 27 18  1  0  0  0  0
 28 19  1  0  0  0  0
 29 21  1  0  0  0  0
 30 22  1  0  0  0  0
 33 36  1  0  0  0  0
 33 34  1  0  0  0  0
 33 35  1  0  0  0  0
 36 37  1  0  0  0  0
 36 40  1  0  0  0  0
 38 36  1  0  0  0  0
 39 40  2  0  0  0  0
 39 46  1  0  0  0  0
 40 41  1  0  0  0  0
 41 42  1  0  0  0  0
 41 43  2  0  0  0  0
 43 44  1  0  0  0  0
 45 43  1  0  0  0  0
 46 45  2  0  0  0  0
 47 48  1  0  0  0  0
 48 50  2  0  0  0  0
 48 39  1  0  0  0  0
 49 48  2  0  0  0  0
M  END
>  <minimizedAffinity>
-6.34515715

>  <minimizedRMSD>
4.2913518

$$$$
