
 OpenBabel03262520363D

 45 47  0  0  0  0  0  0  0  0999 V2000
   37.8700   23.2600   32.3020 C   0  0  0  0  0  0  0  0  0  0  0  0
   36.6370   23.8910   32.0640 C   0  0  0  0  0  0  0  0  0  0  0  0
   35.5380   23.1870   31.6210 C   0  0  0  0  0  0  0  0  0  0  0  0
   35.6540   21.8350   31.4060 C   0  0  0  0  0  0  0  0  0  0  0  0
   36.8510   21.2180   31.6350 C   0  0  0  0  0  0  0  0  0  0  0  0
   37.9670   21.8820   32.0770 C   0  0  0  0  0  0  0  0  0  0  0  0
   34.6270   23.7490   31.4620 H   0  0  0  0  0  0  0  0  0  0  0  0
   34.7410   21.3710   31.0590 H   0  0  0  0  0  0  0  0  0  0  0  0
   36.8490   20.1390   31.4360 H   0  0  0  0  0  0  0  0  0  0  0  0
   38.8240   21.2750   32.2010 H   0  0  0  0  0  0  0  0  0  0  0  0
   39.3000   24.0820   32.8640 S   0  0  0  0  0  0  0  0  0  0  0  0
   40.3630   23.1220   33.2350 O   0  0  0  0  0  0  0  0  0  0  0  0
   39.7920   25.0030   31.7340 O   0  0  0  0  0  0  0  0  0  0  0  0
   38.4940   24.4560   35.3260 C   0  0  0  0  0  0  0  0  0  0  0  0
   38.9610   25.1210   34.2040 C   0  0  0  0  0  0  0  0  0  0  0  0
   39.1360   26.4870   34.2160 C   0  0  0  0  0  0  0  0  0  0  0  0
   39.5000   26.9270   33.3090 H   0  0  0  0  0  0  0  0  0  0  0  0
   38.8560   27.2510   35.3420 C   0  0  0  0  0  0  0  0  0  0  0  0
   38.9990   28.3240   35.3390 H   0  0  0  0  0  0  0  0  0  0  0  0
   38.3900   26.6050   36.4700 C   0  0  0  0  0  3  0  0  0  0  0  0
   38.2090   25.2200   36.4650 C   0  0  0  0  0  3  0  0  0  0  0  0
   37.6830   22.1370   34.4770 H   0  0  0  0  0  0  0  0  0  0  0  0
   38.1590   22.7760   35.5870 S   0  0  0  0  0  0  0  0  0  0  0  0
   39.3440   22.0460   36.1570 O   0  0  0  0  0  0  0  0  0  0  0  0
   37.0730   22.6600   36.6480 O   0  0  0  0  0  0  0  0  0  0  0  0
   36.6860   25.2370   32.3230 O   0  0  0  0  0  0  0  0  0  0  0  0
   37.4910   27.1470   30.7000 O   0  0  0  0  0  0  0  0  0  0  0  0
   36.2460   26.4960   31.2940 P   0  0  1  0  0  0  0  0  0  0  0  0
   35.2010   25.9400   30.0770 O   0  0  0  0  0  0  0  0  0  0  0  0
   34.9730   24.9840   30.2340 H   0  0  0  0  0  0  0  0  0  0  0  0
   35.4600   27.7520   32.1420 O   0  0  0  0  0  0  0  0  0  0  0  0
   36.3720   28.2900   33.0620 C   0  0  0  0  0  0  0  0  0  0  0  0
   37.1000   28.9110   32.5250 H   0  0  0  0  0  0  0  0  0  0  0  0
   36.9340   27.4600   33.5360 H   0  0  0  0  0  0  0  0  0  0  0  0
   35.5050   30.3340   34.1350 C   0  0  0  0  0  3  0  0  0  0  0  0
   35.6950   29.0410   34.1470 C   0  0  0  0  0  3  0  0  0  0  0  0
   34.7170   32.3700   37.0730 C   0  0  0  0  0  0  0  0  0  0  0  0
   33.3910   31.9980   37.3370 C   0  0  0  0  0  0  0  0  0  0  0  0
   32.7870   31.0550   36.5040 C   0  0  0  0  0  0  0  0  0  0  0  0
   33.5780   30.5780   35.4870 N   0  0  0  0  0  0  0  0  0  0  0  0
   34.8230   30.9470   35.2640 C   0  0  0  0  0  0  0  0  0  0  0  0
   35.3890   31.8450   36.0620 N   0  0  0  0  0  0  0  0  0  0  0  0
   35.2480   33.0980   37.6810 H   0  0  0  0  0  0  0  0  0  0  0  0
   32.8640   32.4540   38.1840 H   0  0  0  0  0  0  0  0  0  0  0  0
   31.7800   30.7530   36.6790 H   0  0  0  0  0  0  0  0  0  0  0  0
  1 11  1  0  0  0  0
  2  1  2  0  0  0  0
  2 26  1  0  0  0  0
  3  2  1  0  0  0  0
  4  3  2  0  0  0  0
  4  5  1  0  0  0  0
  5  6  2  0  0  0  0
  6 10  1  0  0  0  0
  6  1  1  0  0  0  0
  7  3  1  0  0  0  0
  8  4  1  0  0  0  0
  9  5  1  0  0  0  0
 11 12  2  0  0  0  0
 11 15  1  0  0  0  0
 13 11  2  0  0  0  0
 14 23  1  0  0  0  0
 14 21  1  0  0  0  0
 15 16  1  0  0  0  0
 15 14  2  0  0  0  0
 16 18  2  0  0  0  0
 17 16  1  0  0  0  0
 18 20  1  0  0  0  0
 19 18  1  0  0  0  0
 21 20  2  0  0  0  0
 22 23  1  0  0  0  0
 23 24  2  0  0  0  0
 23 25  2  0  0  0  0
 28 27  2  6  0  0  0
 28 31  1  0  0  0  0
 28 26  1  0  0  0  0
 29 30  1  0  0  0  0
 29 28  1  0  0  0  0
 31 32  1  0  0  0  0
 32 34  1  0  0  0  0
 32 36  1  0  0  0  0
 33 32  1  0  0  0  0
 35 36  2  0  0  0  0
 35 41  1  0  0  0  0
 37 38  1  0  0  0  0
 37 43  1  0  0  0  0
 38 44  1  0  0  0  0
 39 45  1  0  0  0  0
 39 38  2  0  0  0  0
 40 39  1  0  0  0  0
 41 40  2  0  0  0  0
 41 42  1  0  0  0  0
 42 37  2  0  0  0  0
M  END
>  <minimizedAffinity>
-6.40060759

$$$$

 OpenBabel03262520363D

 45 47  0  0  0  0  0  0  0  0999 V2000
   37.3270   24.8240   33.1200 C   0  0  0  0  0  0  0  0  0  0  0  0
   36.6420   25.4250   32.0500 C   0  0  0  0  0  0  0  0  0  0  0  0
   36.0780   24.6750   31.0410 C   0  0  0  0  0  0  0  0  0  0  0  0
   36.1900   23.3060   31.0840 C   0  0  0  0  0  0  0  0  0  0  0  0
   36.8550   22.7180   32.1220 C   0  0  0  0  0  0  0  0  0  0  0  0
   37.4300   23.4290   33.1450 C   0  0  0  0  0  0  0  0  0  0  0  0
   35.5690   25.2160   30.2540 H   0  0  0  0  0  0  0  0  0  0  0  0
   35.7180   22.8060   30.2500 H   0  0  0  0  0  0  0  0  0  0  0  0
   36.8940   21.6230   32.0720 H   0  0  0  0  0  0  0  0  0  0  0  0
   37.9190   22.8390   33.8740 H   0  0  0  0  0  0  0  0  0  0  0  0
   38.0630   25.7050   34.4310 S   0  0  0  0  0  0  0  0  0  0  0  0
   39.2090   26.5140   33.9620 O   0  0  0  0  0  0  0  0  0  0  0  0
   36.9900   26.6180   35.0490 O   0  0  0  0  0  0  0  0  0  0  0  0
   39.8180   24.0780   35.4910 C   0  0  0  0  0  0  0  0  0  0  0  0
   38.5760   24.6540   35.7060 C   0  0  0  0  0  0  0  0  0  0  0  0
   37.8660   24.3920   36.8560 C   0  0  0  0  0  0  0  0  0  0  0  0
   36.9140   24.8760   36.9470 H   0  0  0  0  0  0  0  0  0  0  0  0
   38.3580   23.5470   37.8430 C   0  0  0  0  0  0  0  0  0  0  0  0
   37.7900   23.3490   38.7430 H   0  0  0  0  0  0  0  0  0  0  0  0
   39.5940   22.9630   37.6460 C   0  0  0  0  0  3  0  0  0  0  0  0
   40.3200   23.2240   36.4820 C   0  0  0  0  0  3  0  0  0  0  0  0
   40.3350   24.7470   33.0330 H   0  0  0  0  0  0  0  0  0  0  0  0
   40.9070   24.2050   34.1500 S   0  0  0  0  0  0  0  0  0  0  0  0
   42.1680   24.9400   34.5150 O   0  0  0  0  0  0  0  0  0  0  0  0
   41.3630   22.8040   33.7640 O   0  0  0  0  0  0  0  0  0  0  0  0
   36.6200   26.7930   32.1530 O   0  0  0  0  0  0  0  0  0  0  0  0
   38.7310   27.8050   30.9480 O   0  0  0  0  0  0  0  0  0  0  0  0
   37.2120   27.9140   31.0420 P   0  0  1  0  0  0  0  0  0  0  0  0
   36.4830   27.6990   29.5250 O   0  0  0  0  0  0  0  0  0  0  0  0
   35.7780   26.9980   29.5820 H   0  0  0  0  0  0  0  0  0  0  0  0
   36.9210   29.5160   31.5550 O   0  0  0  0  0  0  0  0  0  0  0  0
   35.5360   29.7380   31.5160 C   0  0  0  0  0  0  0  0  0  0  0  0
   35.0270   28.7910   31.2940 H   0  0  0  0  0  0  0  0  0  0  0  0
   35.3090   30.4370   30.6860 H   0  0  0  0  0  0  0  0  0  0  0  0
   35.3270   29.9320   33.9650 C   0  0  0  0  0  3  0  0  0  0  0  0
   35.0340   30.3580   32.7660 C   0  0  0  0  0  3  0  0  0  0  0  0
   34.9020   32.0800   36.8980 C   0  0  0  0  0  0  0  0  0  0  0  0
   33.5520   31.8710   37.2180 C   0  0  0  0  0  0  0  0  0  0  0  0
   32.8080   30.9970   36.4240 C   0  0  0  0  0  0  0  0  0  0  0  0
   33.4970   30.4190   35.3850 N   0  0  0  0  0  0  0  0  0  0  0  0
   34.7680   30.6340   35.1090 C   0  0  0  0  0  0  0  0  0  0  0  0
   35.4670   31.4680   35.8710 N   0  0  0  0  0  0  0  0  0  0  0  0
   35.5380   32.7470   37.4740 H   0  0  0  0  0  0  0  0  0  0  0  0
   33.1170   32.3960   38.0770 H   0  0  0  0  0  0  0  0  0  0  0  0
   31.7810   30.8190   36.6410 H   0  0  0  0  0  0  0  0  0  0  0  0
  1  6  1  0  0  0  0
  1 11  1  0  0  0  0
  2 26  1  0  0  0  0
  2  1  2  0  0  0  0
  3  4  2  0  0  0  0
  3  2  1  0  0  0  0
  4  5  1  0  0  0  0
  5  6  2  0  0  0  0
  6 10  1  0  0  0  0
  7  3  1  0  0  0  0
  8  4  1  0  0  0  0
  9  5  1  0  0  0  0
 11 13  2  0  0  0  0
 11 15  1  0  0  0  0
 12 11  2  0  0  0  0
 14 15  2  0  0  0  0
 14 21  1  0  0  0  0
 15 16  1  0  0  0  0
 16 17  1  0  0  0  0
 16 18  2  0  0  0  0
 18 19  1  0  0  0  0
 20 18  1  0  0  0  0
 21 20  2  0  0  0  0
 22 23  1  0  0  0  0
 23 24  2  0  0  0  0
 23 14  1  0  0  0  0
 25 23  2  0  0  0  0
 28 27  2  6  0  0  0
 28 31  1  0  0  0  0
 28 26  1  0  0  0  0
 29 30  1  0  0  0  0
 29 28  1  0  0  0  0
 32 31  1  0  0  0  0
 32 36  1  0  0  0  0
 33 32  1  0  0  0  0
 34 32  1  0  0  0  0
 35 41  1  0  0  0  0
 36 35  2  0  0  0  0
 37 38  1  0  0  0  0
 37 43  1  0  0  0  0
 38 44  1  0  0  0  0
 39 45  1  0  0  0  0
 39 38  2  0  0  0  0
 40 39  1  0  0  0  0
 41 40  2  0  0  0  0
 41 42  1  0  0  0  0
 42 37  2  0  0  0  0
M  END
>  <minimizedAffinity>
-6.19142818

$$$$

 OpenBabel03262520363D

 45 47  0  0  0  0  0  0  0  0999 V2000
   38.0830   23.7340   33.3230 C   0  0  0  0  0  0  0  0  0  0  0  0
   37.0690   24.2290   32.4860 C   0  0  0  0  0  0  0  0  0  0  0  0
   36.2610   23.3860   31.7540 C   0  0  0  0  0  0  0  0  0  0  0  0
   36.4560   22.0290   31.8440 C   0  0  0  0  0  0  0  0  0  0  0  0
   37.4410   21.5440   32.6560 C   0  0  0  0  0  0  0  0  0  0  0  0
   38.2650   22.3490   33.4010 C   0  0  0  0  0  0  0  0  0  0  0  0
   35.5040   23.8500   31.1340 H   0  0  0  0  0  0  0  0  0  0  0  0
   35.7760   21.4520   31.2330 H   0  0  0  0  0  0  0  0  0  0  0  0
   37.5220   20.4500   32.6640 H   0  0  0  0  0  0  0  0  0  0  0  0
   38.9880   21.8330   33.9750 H   0  0  0  0  0  0  0  0  0  0  0  0
   39.1400   24.7350   34.2800 S   0  0  0  0  0  0  0  0  0  0  0  0
   40.0450   25.5360   33.4260 O   0  0  0  0  0  0  0  0  0  0  0  0
   38.2640   25.6650   35.1370 O   0  0  0  0  0  0  0  0  0  0  0  0
   39.3690   23.4150   36.5290 C   0  0  0  0  0  0  0  0  0  0  0  0
   40.0730   23.8030   35.4000 C   0  0  0  0  0  0  0  0  0  0  0  0
   41.3890   23.4370   35.2290 C   0  0  0  0  0  0  0  0  0  0  0  0
   41.8630   23.7760   34.3300 H   0  0  0  0  0  0  0  0  0  0  0  0
   42.0630   22.6700   36.1710 C   0  0  0  0  0  0  0  0  0  0  0  0
   43.0980   22.3880   36.0240 H   0  0  0  0  0  0  0  0  0  0  0  0
   41.3780   22.2740   37.3030 C   0  0  0  0  0  3  0  0  0  0  0  0
   40.0420   22.6420   37.4830 C   0  0  0  0  0  3  0  0  0  0  0  0
   37.1790   24.8060   36.3580 H   0  0  0  0  0  0  0  0  0  0  0  0
   37.7390   23.7450   37.0140 S   0  0  0  0  0  0  0  0  0  0  0  0
   36.8610   22.5270   36.9070 O   0  0  0  0  0  0  0  0  0  0  0  0
   37.7380   24.1050   38.4930 O   0  0  0  0  0  0  0  0  0  0  0  0
   37.0050   25.5990   32.5050 O   0  0  0  0  0  0  0  0  0  0  0  0
   38.5210   26.2570   30.4560 O   0  0  0  0  0  0  0  0  0  0  0  0
   37.2600   26.6550   31.2170 P   0  0  1  0  0  0  0  0  0  0  0  0
   35.9070   26.6920   30.1930 O   0  0  0  0  0  0  0  0  0  0  0  0
   35.1730   26.1410   30.5790 H   0  0  0  0  0  0  0  0  0  0  0  0
   37.5630   28.2450   31.7620 O   0  0  0  0  0  0  0  0  0  0  0  0
   36.4830   29.0500   31.3720 C   0  0  0  0  0  0  0  0  0  0  0  0
   35.7300   28.4240   30.8750 H   0  0  0  0  0  0  0  0  0  0  0  0
   36.8390   29.7900   30.6270 H   0  0  0  0  0  0  0  0  0  0  0  0
   35.5580   29.2700   33.6470 C   0  0  0  0  0  3  0  0  0  0  0  0
   35.9110   29.8080   32.5100 C   0  0  0  0  0  3  0  0  0  0  0  0
   33.2850   30.9600   35.9650 C   0  0  0  0  0  0  0  0  0  0  0  0
   34.1590   31.8060   36.6630 C   0  0  0  0  0  0  0  0  0  0  0  0
   35.5130   31.7850   36.3290 C   0  0  0  0  0  0  0  0  0  0  0  0
   35.8560   30.9130   35.3240 N   0  0  0  0  0  0  0  0  0  0  0  0
   35.0110   30.1300   34.6840 C   0  0  0  0  0  0  0  0  0  0  0  0
   33.7230   30.1580   35.0100 N   0  0  0  0  0  0  0  0  0  0  0  0
   32.2190   30.9260   36.1740 H   0  0  0  0  0  0  0  0  0  0  0  0
   33.7590   32.4590   37.4500 H   0  0  0  0  0  0  0  0  0  0  0  0
   36.2010   32.4150   36.8430 H   0  0  0  0  0  0  0  0  0  0  0  0
  1  6  1  0  0  0  0
  1 11  1  0  0  0  0
  2 26  1  0  0  0  0
  2  1  2  0  0  0  0
  3  4  2  0  0  0  0
  3  2  1  0  0  0  0
  4  5  1  0  0  0  0
  5  9  1  0  0  0  0
  5  6  2  0  0  0  0
  6 10  1  0  0  0  0
  7  3  1  0  0  0  0
  8  4  1  0  0  0  0
 11 13  2  0  0  0  0
 11 15  1  0  0  0  0
 12 11  2  0  0  0  0
 14 23  1  0  0  0  0
 14 21  1  0  0  0  0
 15 14  2  0  0  0  0
 16 15  1  0  0  0  0
 16 18  2  0  0  0  0
 17 16  1  0  0  0  0
 18 20  1  0  0  0  0
 19 18  1  0  0  0  0
 20 21  2  0  0  0  0
 22 23  1  0  0  0  0
 23 25  2  0  0  0  0
 24 23  2  0  0  0  0
 28 27  2  6  0  0  0
 28 31  1  0  0  0  0
 28 26  1  0  0  0  0
 29 30  1  0  0  0  0
 29 28  1  0  0  0  0
 32 31  1  0  0  0  0
 32 36  1  0  0  0  0
 33 32  1  0  0  0  0
 34 32  1  0  0  0  0
 35 41  1  0  0  0  0
 36 35  2  0  0  0  0
 37 43  1  0  0  0  0
 37 38  1  0  0  0  0
 38 44  1  0  0  0  0
 39 38  2  0  0  0  0
 39 45  1  0  0  0  0
 40 39  1  0  0  0  0
 41 42  1  0  0  0  0
 41 40  2  0  0  0  0
 42 37  2  0  0  0  0
M  END
>  <minimizedAffinity>
-6.16846943

$$$$

 OpenBabel03262520363D

 45 47  0  0  0  0  0  0  0  0999 V2000
   38.6930   25.6640   33.6840 C   0  0  0  0  0  0  0  0  0  0  0  0
   37.4600   26.3380   33.7080 C   0  0  0  0  0  0  0  0  0  0  0  0
   37.1680   27.2740   34.6770 C   0  0  0  0  0  0  0  0  0  0  0  0
   38.1060   27.5510   35.6410 C   0  0  0  0  0  0  0  0  0  0  0  0
   39.3050   26.8980   35.6210 C   0  0  0  0  0  0  0  0  0  0  0  0
   39.6340   25.9610   34.6750 C   0  0  0  0  0  0  0  0  0  0  0  0
   36.1960   27.7470   34.6240 H   0  0  0  0  0  0  0  0  0  0  0  0
   37.7850   28.2970   36.3560 H   0  0  0  0  0  0  0  0  0  0  0  0
   39.9900   27.1840   36.4290 H   0  0  0  0  0  0  0  0  0  0  0  0
   40.5940   25.5320   34.7910 H   0  0  0  0  0  0  0  0  0  0  0  0
   39.1340   24.4720   32.4920 S   0  0  0  0  0  0  0  0  0  0  0  0
   39.3360   25.0880   31.1620 O   0  0  0  0  0  0  0  0  0  0  0  0
   40.4320   23.7920   32.9600 O   0  0  0  0  0  0  0  0  0  0  0  0
   37.6980   22.5720   33.5780 C   0  0  0  0  0  0  0  0  0  0  0  0
   37.9580   23.2090   32.3750 C   0  0  0  0  0  0  0  0  0  0  0  0
   37.2960   22.8420   31.2250 C   0  0  0  0  0  0  0  0  0  0  0  0
   37.5530   23.3820   30.3360 H   0  0  0  0  0  0  0  0  0  0  0  0
   36.3490   21.8250   31.2180 C   0  0  0  0  0  0  0  0  0  0  0  0
   35.8360   21.5460   30.3070 H   0  0  0  0  0  0  0  0  0  0  0  0
   36.0780   21.1780   32.4080 C   0  0  0  0  0  3  0  0  0  0  0  0
   36.7450   21.5460   33.5790 C   0  0  0  0  0  3  0  0  0  0  0  0
   38.8740   24.0640   35.3530 H   0  0  0  0  0  0  0  0  0  0  0  0
   38.3850   22.8030   35.1510 S   0  0  0  0  0  0  0  0  0  0  0  0
   37.4270   22.4210   36.2470 O   0  0  0  0  0  0  0  0  0  0  0  0
   39.5650   21.8540   35.3080 O   0  0  0  0  0  0  0  0  0  0  0  0
   36.6360   25.9480   32.6830 O   0  0  0  0  0  0  0  0  0  0  0  0
   37.2350   27.6560   30.7720 O   0  0  0  0  0  0  0  0  0  0  0  0
   36.0770   26.8890   31.4030 P   0  0  1  0  0  0  0  0  0  0  0  0
   35.2770   25.9280   30.2550 O   0  0  0  0  0  0  0  0  0  0  0  0
   35.2120   24.9900   30.5820 H   0  0  0  0  0  0  0  0  0  0  0  0
   34.9960   28.0970   31.9390 O   0  0  0  0  0  0  0  0  0  0  0  0
   35.6910   29.3140   31.9780 C   0  0  0  0  0  0  0  0  0  0  0  0
   35.5060   29.8630   31.0460 H   0  0  0  0  0  0  0  0  0  0  0  0
   36.7790   29.1040   32.0260 H   0  0  0  0  0  0  0  0  0  0  0  0
   34.5490   29.7100   34.1270 C   0  0  0  0  0  3  0  0  0  0  0  0
   35.3420   30.1190   33.1740 C   0  0  0  0  0  3  0  0  0  0  0  0
   34.9210   32.1780   36.8050 C   0  0  0  0  0  0  0  0  0  0  0  0
   33.6290   32.2120   37.3490 C   0  0  0  0  0  0  0  0  0  0  0  0
   32.6500   31.3900   36.7910 C   0  0  0  0  0  0  0  0  0  0  0  0
   33.0680   30.6120   35.7380 N   0  0  0  0  0  0  0  0  0  0  0  0
   34.2920   30.6000   35.2480 C   0  0  0  0  0  0  0  0  0  0  0  0
   35.2160   31.3870   35.7870 N   0  0  0  0  0  0  0  0  0  0  0  0
   35.7310   32.7910   37.1910 H   0  0  0  0  0  0  0  0  0  0  0  0
   33.4200   32.8810   38.1940 H   0  0  0  0  0  0  0  0  0  0  0  0
   31.6590   31.3950   37.1820 H   0  0  0  0  0  0  0  0  0  0  0  0
  1  2  2  0  0  0  0
  1  6  1  0  0  0  0
  2  3  1  0  0  0  0
  3  4  2  0  0  0  0
  4  8  1  0  0  0  0
  5  4  1  0  0  0  0
  5  9  1  0  0  0  0
  6 10  1  0  0  0  0
  6  5  2  0  0  0  0
  7  3  1  0  0  0  0
 11 13  2  0  0  0  0
 11  1  1  0  0  0  0
 12 11  2  0  0  0  0
 14 21  1  0  0  0  0
 14 23  1  0  0  0  0
 15 11  1  0  0  0  0
 15 14  2  0  0  0  0
 16 15  1  0  0  0  0
 17 16  1  0  0  0  0
 18 16  2  0  0  0  0
 18 20  1  0  0  0  0
 19 18  1  0  0  0  0
 20 21  2  0  0  0  0
 23 25  2  0  0  0  0
 23 22  1  0  0  0  0
 23 24  2  0  0  0  0
 26  2  1  0  0  0  0
 28 27  2  6  0  0  0
 28 31  1  0  0  0  0
 28 26  1  0  0  0  0
 29 30  1  0  0  0  0
 29 28  1  0  0  0  0
 31 32  1  0  0  0  0
 32 34  1  0  0  0  0
 32 36  1  0  0  0  0
 33 32  1  0  0  0  0
 35 41  1  0  0  0  0
 36 35  2  0  0  0  0
 37 43  1  0  0  0  0
 37 38  1  0  0  0  0
 38 44  1  0  0  0  0
 39 45  1  0  0  0  0
 39 38  2  0  0  0  0
 40 39  1  0  0  0  0
 41 40  2  0  0  0  0
 41 42  1  0  0  0  0
 42 37  2  0  0  0  0
M  END
>  <minimizedAffinity>
-6.0669589

$$$$

 OpenBabel03262520363D

 45 47  0  0  0  0  0  0  0  0999 V2000
   37.8350   22.5400   33.0730 C   0  0  0  0  0  0  0  0  0  0  0  0
   37.1350   23.6260   32.5210 C   0  0  0  0  0  0  0  0  0  0  0  0
   35.9870   23.4450   31.7800 C   0  0  0  0  0  0  0  0  0  0  0  0
   35.5200   22.1690   31.5760 C   0  0  0  0  0  0  0  0  0  0  0  0
   36.1980   21.1110   32.1090 C   0  0  0  0  0  0  0  0  0  0  0  0
   37.3420   21.2490   32.8520 C   0  0  0  0  0  0  0  0  0  0  0  0
   35.5090   24.3350   31.3920 H   0  0  0  0  0  0  0  0  0  0  0  0
   34.6160   22.1290   30.9830 H   0  0  0  0  0  0  0  0  0  0  0  0
   35.7510   20.1320   31.8930 H   0  0  0  0  0  0  0  0  0  0  0  0
   37.7620   20.3400   33.1920 H   0  0  0  0  0  0  0  0  0  0  0  0
   39.2890   22.6900   34.0210 S   0  0  0  0  0  0  0  0  0  0  0  0
   40.1430   21.4890   33.8950 O   0  0  0  0  0  0  0  0  0  0  0  0
   40.0510   23.9320   33.5270 O   0  0  0  0  0  0  0  0  0  0  0  0
   40.0120   22.7400   36.5370 C   0  0  0  0  0  0  0  0  0  0  0  0
   38.9430   22.9840   35.6900 C   0  0  0  0  0  0  0  0  0  0  0  0
   37.7400   23.4350   36.1860 C   0  0  0  0  0  0  0  0  0  0  0  0
   36.9620   23.6000   35.4670 H   0  0  0  0  0  0  0  0  0  0  0  0
   37.5470   23.6640   37.5430 C   0  0  0  0  0  0  0  0  0  0  0  0
   36.5970   24.0190   37.9200 H   0  0  0  0  0  0  0  0  0  0  0  0
   38.6020   23.4260   38.4010 C   0  0  0  0  0  3  0  0  0  0  0  0
   39.8250   22.9670   37.9060 C   0  0  0  0  0  3  0  0  0  0  0  0
   41.7050   21.4820   35.0160 H   0  0  0  0  0  0  0  0  0  0  0  0
   41.6080   22.1540   36.2020 S   0  0  0  0  0  0  0  0  0  0  0  0
   42.6390   23.2480   36.2810 O   0  0  0  0  0  0  0  0  0  0  0  0
   41.9970   21.1640   37.2910 O   0  0  0  0  0  0  0  0  0  0  0  0
   37.7300   24.8270   32.8140 O   0  0  0  0  0  0  0  0  0  0  0  0
   38.7960   27.1980   32.3990 O   0  0  0  0  0  0  0  0  0  0  0  0
   37.7620   26.2150   31.8580 P   0  0  1  0  0  0  0  0  0  0  0  0
   38.0740   25.8210   30.2370 O   0  0  0  0  0  0  0  0  0  0  0  0
   38.1050   24.8320   30.1270 H   0  0  0  0  0  0  0  0  0  0  0  0
   36.2800   27.0580   31.9300 O   0  0  0  0  0  0  0  0  0  0  0  0
   36.5350   28.4080   31.6450 C   0  0  0  0  0  0  0  0  0  0  0  0
   36.1730   28.6360   30.6340 H   0  0  0  0  0  0  0  0  0  0  0  0
   37.6320   28.5730   31.6470 H   0  0  0  0  0  0  0  0  0  0  0  0
   35.9230   29.0610   33.9430 C   0  0  0  0  0  3  0  0  0  0  0  0
   35.9500   29.3140   32.6620 C   0  0  0  0  0  3  0  0  0  0  0  0
   35.4140   31.7880   36.3310 C   0  0  0  0  0  0  0  0  0  0  0  0
   34.0180   31.8060   36.4560 C   0  0  0  0  0  0  0  0  0  0  0  0
   33.2720   30.8850   35.7210 C   0  0  0  0  0  0  0  0  0  0  0  0
   34.0050   30.0330   34.9310 N   0  0  0  0  0  0  0  0  0  0  0  0
   35.3200   30.0380   34.8340 C   0  0  0  0  0  0  0  0  0  0  0  0
   36.0210   30.9200   35.5380 N   0  0  0  0  0  0  0  0  0  0  0  0
   36.0560   32.4770   36.8740 H   0  0  0  0  0  0  0  0  0  0  0  0
   33.5490   32.5400   37.1240 H   0  0  0  0  0  0  0  0  0  0  0  0
   32.2090   30.8750   35.7950 H   0  0  0  0  0  0  0  0  0  0  0  0
  1 11  1  0  0  0  0
  2 26  1  0  0  0  0
  2  1  2  0  0  0  0
  3  2  1  0  0  0  0
  4  3  2  0  0  0  0
  4  5  1  0  0  0  0
  5  6  2  0  0  0  0
  6  1  1  0  0  0  0
  6 10  1  0  0  0  0
  7  3  1  0  0  0  0
  8  4  1  0  0  0  0
  9  5  1  0  0  0  0
 11 15  1  0  0  0  0
 12 11  2  0  0  0  0
 13 11  2  0  0  0  0
 14 21  1  0  0  0  0
 15 16  1  0  0  0  0
 15 14  2  0  0  0  0
 16 18  2  0  0  0  0
 17 16  1  0  0  0  0
 18 19  1  0  0  0  0
 18 20  1  0  0  0  0
 21 20  2  0  0  0  0
 22 23  1  0  0  0  0
 23 24  2  0  0  0  0
 23 14  1  0  0  0  0
 23 25  2  0  0  0  0
 28 31  1  0  0  0  0
 28 27  2  1  0  0  0
 28 26  1  0  0  0  0
 29 28  1  0  0  0  0
 30 29  1  0  0  0  0
 32 34  1  0  0  0  0
 32 31  1  0  0  0  0
 32 36  1  0  0  0  0
 33 32  1  0  0  0  0
 35 41  1  0  0  0  0
 36 35  2  0  0  0  0
 37 38  1  0  0  0  0
 37 43  1  0  0  0  0
 38 44  1  0  0  0  0
 39 45  1  0  0  0  0
 39 38  2  0  0  0  0
 40 39  1  0  0  0  0
 41 40  2  0  0  0  0
 41 42  1  0  0  0  0
 42 37  2  0  0  0  0
M  END
>  <minimizedAffinity>
-5.99998093

$$$$

 OpenBabel03262520363D

 45 47  0  0  0  0  0  0  0  0999 V2000
   37.5760   22.6160   33.1180 C   0  0  0  0  0  0  0  0  0  0  0  0
   36.7860   23.1450   32.0830 C   0  0  0  0  0  0  0  0  0  0  0  0
   35.5640   22.5990   31.7560 C   0  0  0  0  0  0  0  0  0  0  0  0
   35.1090   21.5100   32.4600 C   0  0  0  0  0  0  0  0  0  0  0  0
   35.8740   20.9920   33.4650 C   0  0  0  0  0  0  0  0  0  0  0  0
   37.0950   21.5060   33.8220 C   0  0  0  0  0  0  0  0  0  0  0  0
   35.0190   23.0680   30.9460 H   0  0  0  0  0  0  0  0  0  0  0  0
   34.1430   21.1540   32.1300 H   0  0  0  0  0  0  0  0  0  0  0  0
   35.4310   20.1240   33.9690 H   0  0  0  0  0  0  0  0  0  0  0  0
   37.5770   20.9960   34.6130 H   0  0  0  0  0  0  0  0  0  0  0  0
   39.1280   23.2520   33.5900 S   0  0  0  0  0  0  0  0  0  0  0  0
   39.8940   22.2690   34.3880 O   0  0  0  0  0  0  0  0  0  0  0  0
   39.9030   23.6100   32.3100 O   0  0  0  0  0  0  0  0  0  0  0  0
   40.0750   25.5670   34.3630 C   0  0  0  0  0  0  0  0  0  0  0  0
   38.9770   24.7290   34.4770 C   0  0  0  0  0  0  0  0  0  0  0  0
   37.8830   25.0980   35.2280 C   0  0  0  0  0  0  0  0  0  0  0  0
   37.0750   24.3950   35.2670 H   0  0  0  0  0  0  0  0  0  0  0  0
   37.8330   26.3140   35.8980 C   0  0  0  0  0  0  0  0  0  0  0  0
   36.9670   26.5930   36.4850 H   0  0  0  0  0  0  0  0  0  0  0  0
   38.9180   27.1620   35.7960 C   0  0  0  0  0  3  0  0  0  0  0  0
   40.0310   26.7940   35.0360 C   0  0  0  0  0  3  0  0  0  0  0  0
   41.4630   24.5930   32.3920 H   0  0  0  0  0  0  0  0  0  0  0  0
   41.5740   25.3570   33.5200 S   0  0  0  0  0  0  0  0  0  0  0  0
   42.2360   26.6730   33.2110 O   0  0  0  0  0  0  0  0  0  0  0  0
   42.5470   24.6300   34.4390 O   0  0  0  0  0  0  0  0  0  0  0  0
   37.3790   24.2250   31.4800 O   0  0  0  0  0  0  0  0  0  0  0  0
   37.7770   26.6970   30.6660 O   0  0  0  0  0  0  0  0  0  0  0  0
   36.7270   25.7630   31.2610 P   0  0  1  0  0  0  0  0  0  0  0  0
   35.3400   25.6940   30.2860 O   0  0  0  0  0  0  0  0  0  0  0  0
   35.1140   24.7470   30.0820 H   0  0  0  0  0  0  0  0  0  0  0  0
   36.3010   26.4800   32.7510 O   0  0  0  0  0  0  0  0  0  0  0  0
   36.6650   27.8340   32.7000 C   0  0  0  0  0  0  0  0  0  0  0  0
   36.4270   28.2320   31.7050 H   0  0  0  0  0  0  0  0  0  0  0  0
   37.7630   27.9140   32.8330 H   0  0  0  0  0  0  0  0  0  0  0  0
   35.7440   29.8960   33.6880 C   0  0  0  0  0  3  0  0  0  0  0  0
   36.0300   28.6250   33.7810 C   0  0  0  0  0  3  0  0  0  0  0  0
   35.1260   31.9830   36.6310 C   0  0  0  0  0  0  0  0  0  0  0  0
   33.7820   31.6970   36.9120 C   0  0  0  0  0  0  0  0  0  0  0  0
   33.1080   30.7940   36.0900 C   0  0  0  0  0  0  0  0  0  0  0  0
   33.8540   30.2660   35.0640 N   0  0  0  0  0  0  0  0  0  0  0  0
   35.1180   30.5530   34.8240 C   0  0  0  0  0  0  0  0  0  0  0  0
   35.7500   31.4150   35.6130 N   0  0  0  0  0  0  0  0  0  0  0  0
   35.7100   32.6760   37.2310 H   0  0  0  0  0  0  0  0  0  0  0  0
   33.2970   32.1870   37.7660 H   0  0  0  0  0  0  0  0  0  0  0  0
   32.0870   30.5580   36.2770 H   0  0  0  0  0  0  0  0  0  0  0  0
  1 11  1  0  0  0  0
  1  6  1  0  0  0  0
  2  1  2  0  0  0  0
  3  2  1  0  0  0  0
  3  4  2  0  0  0  0
  4  5  1  0  0  0  0
  5  6  2  0  0  0  0
  5  9  1  0  0  0  0
  6 10  1  0  0  0  0
  7  3  1  0  0  0  0
  8  4  1  0  0  0  0
 11 12  2  0  0  0  0
 11 15  1  0  0  0  0
 13 11  2  0  0  0  0
 14 15  2  0  0  0  0
 14 21  1  0  0  0  0
 15 16  1  0  0  0  0
 16 17  1  0  0  0  0
 16 18  2  0  0  0  0
 18 19  1  0  0  0  0
 20 18  1  0  0  0  0
 21 20  2  0  0  0  0
 22 23  1  0  0  0  0
 23 14  1  0  0  0  0
 23 25  2  0  0  0  0
 24 23  2  0  0  0  0
 26  2  1  0  0  0  0
 28 27  2  6  0  0  0
 28 26  1  0  0  0  0
 28 31  1  0  0  0  0
 29 28  1  0  0  0  0
 30 29  1  0  0  0  0
 32 31  1  0  0  0  0
 32 34  1  0  0  0  0
 32 36  1  0  0  0  0
 33 32  1  0  0  0  0
 35 36  2  0  0  0  0
 35 41  1  0  0  0  0
 37 38  1  0  0  0  0
 37 43  1  0  0  0  0
 38 44  1  0  0  0  0
 39 45  1  0  0  0  0
 39 38  2  0  0  0  0
 40 39  1  0  0  0  0
 41 40  2  0  0  0  0
 41 42  1  0  0  0  0
 42 37  2  0  0  0  0
M  END
>  <minimizedAffinity>
-5.98488045

$$$$

 OpenBabel03262520363D

 45 47  0  0  0  0  0  0  0  0999 V2000
   38.4720   25.5070   34.3890 C   0  0  0  0  0  0  0  0  0  0  0  0
   37.3510   26.0910   33.7760 C   0  0  0  0  0  0  0  0  0  0  0  0
   36.8730   27.3230   34.1680 C   0  0  0  0  0  0  0  0  0  0  0  0
   37.5090   27.9930   35.1850 C   0  0  0  0  0  0  0  0  0  0  0  0
   38.5980   27.4280   35.7840 C   0  0  0  0  0  0  0  0  0  0  0  0
   39.1050   26.2060   35.4230 C   0  0  0  0  0  0  0  0  0  0  0  0
   36.0040   27.7010   33.6440 H   0  0  0  0  0  0  0  0  0  0  0  0
   37.0600   28.9480   35.4220 H   0  0  0  0  0  0  0  0  0  0  0  0
   39.0390   28.0350   36.5850 H   0  0  0  0  0  0  0  0  0  0  0  0
   39.9470   25.8930   35.9820 H   0  0  0  0  0  0  0  0  0  0  0  0
   39.1360   23.9570   33.9470 S   0  0  0  0  0  0  0  0  0  0  0  0
   38.0700   22.9970   33.5880 O   0  0  0  0  0  0  0  0  0  0  0  0
   40.0780   24.1700   32.7500 O   0  0  0  0  0  0  0  0  0  0  0  0
   39.4090   22.9390   36.3430 C   0  0  0  0  0  0  0  0  0  0  0  0
   40.1180   23.2930   35.2060 C   0  0  0  0  0  0  0  0  0  0  0  0
   41.4790   23.0960   35.1340 C   0  0  0  0  0  0  0  0  0  0  0  0
   41.9540   23.3960   34.2220 H   0  0  0  0  0  0  0  0  0  0  0  0
   42.1940   22.5380   36.1860 C   0  0  0  0  0  0  0  0  0  0  0  0
   43.2640   22.3880   36.1170 H   0  0  0  0  0  0  0  0  0  0  0  0
   41.5040   22.1790   37.3270 C   0  0  0  0  0  3  0  0  0  0  0  0
   40.1230   22.3770   37.4080 C   0  0  0  0  0  3  0  0  0  0  0  0
   37.1500   24.2170   36.1980 H   0  0  0  0  0  0  0  0  0  0  0  0
   37.7240   23.0910   36.7180 S   0  0  0  0  0  0  0  0  0  0  0  0
   36.9450   21.8650   36.3240 O   0  0  0  0  0  0  0  0  0  0  0  0
   37.5730   23.1890   38.2300 O   0  0  0  0  0  0  0  0  0  0  0  0
   36.8320   25.2980   32.7840 O   0  0  0  0  0  0  0  0  0  0  0  0
   37.5970   24.3310   30.4590 O   0  0  0  0  0  0  0  0  0  0  0  0
   36.9360   25.5370   31.1200 P   0  0  1  0  0  0  0  0  0  0  0  0
   35.4030   25.8400   30.4590 O   0  0  0  0  0  0  0  0  0  0  0  0
   34.7240   25.8990   31.1840 H   0  0  0  0  0  0  0  0  0  0  0  0
   37.9540   26.8540   30.7400 O   0  0  0  0  0  0  0  0  0  0  0  0
   37.1670   27.8520   30.1450 C   0  0  0  0  0  0  0  0  0  0  0  0
   36.1700   27.4450   29.9350 H   0  0  0  0  0  0  0  0  0  0  0  0
   37.6200   28.1320   29.1720 H   0  0  0  0  0  0  0  0  0  0  0  0
   35.9900   29.6330   31.3790 C   0  0  0  0  0  3  0  0  0  0  0  0
   37.1020   29.0800   30.9730 C   0  0  0  0  0  3  0  0  0  0  0  0
   36.6350   33.0430   32.5430 C   0  0  0  0  0  0  0  0  0  0  0  0
   36.1250   33.0050   33.8490 C   0  0  0  0  0  0  0  0  0  0  0  0
   35.5680   31.8120   34.3110 C   0  0  0  0  0  0  0  0  0  0  0  0
   35.5790   30.7730   33.4120 N   0  0  0  0  0  0  0  0  0  0  0  0
   36.0680   30.8380   32.1900 C   0  0  0  0  0  0  0  0  0  0  0  0
   36.5960   31.9780   31.7600 N   0  0  0  0  0  0  0  0  0  0  0  0
   37.0830   33.9380   32.1200 H   0  0  0  0  0  0  0  0  0  0  0  0
   36.1750   33.9070   34.4710 H   0  0  0  0  0  0  0  0  0  0  0  0
   35.1710   31.7520   35.2970 H   0  0  0  0  0  0  0  0  0  0  0  0
  1  6  1  0  0  0  0
  2  3  1  0  0  0  0
  2  1  2  0  0  0  0
  3  4  2  0  0  0  0
  4  8  1  0  0  0  0
  4  5  1  0  0  0  0
  5  9  1  0  0  0  0
  6  5  2  0  0  0  0
  6 10  1  0  0  0  0
  7  3  1  0  0  0  0
 11  1  1  0  0  0  0
 11 15  1  0  0  0  0
 12 11  2  0  0  0  0
 13 11  2  0  0  0  0
 14 23  1  0  0  0  0
 14 21  1  0  0  0  0
 15 14  2  0  0  0  0
 16 15  1  0  0  0  0
 16 18  2  0  0  0  0
 17 16  1  0  0  0  0
 18 20  1  0  0  0  0
 19 18  1  0  0  0  0
 20 21  2  0  0  0  0
 22 23  1  0  0  0  0
 23 25  2  0  0  0  0
 24 23  2  0  0  0  0
 26  2  1  0  0  0  0
 28 27  2  6  0  0  0
 28 26  1  0  0  0  0
 29 28  1  0  0  0  0
 29 30  1  0  0  0  0
 31 28  1  0  0  0  0
 32 31  1  0  0  0  0
 32 36  1  0  0  0  0
 33 32  1  0  0  0  0
 34 32  1  0  0  0  0
 35 41  1  0  0  0  0
 36 35  2  0  0  0  0
 37 38  1  0  0  0  0
 38 39  2  0  0  0  0
 38 44  1  0  0  0  0
 39 45  1  0  0  0  0
 40 39  1  0  0  0  0
 41 40  2  0  0  0  0
 42 41  1  0  0  0  0
 42 37  2  0  0  0  0
 43 37  1  0  0  0  0
M  END
>  <minimizedAffinity>
-5.95287418

$$$$

 OpenBabel03262520363D

 45 47  0  0  0  0  0  0  0  0999 V2000
   39.0630   25.7330   34.2790 C   0  0  0  0  0  0  0  0  0  0  0  0
   37.8660   26.0480   33.6130 C   0  0  0  0  0  0  0  0  0  0  0  0
   37.0520   27.0760   34.0370 C   0  0  0  0  0  0  0  0  0  0  0  0
   37.4200   27.8070   35.1400 C   0  0  0  0  0  0  0  0  0  0  0  0
   38.5820   27.5040   35.7900 C   0  0  0  0  0  0  0  0  0  0  0  0
   39.4200   26.4900   35.3990 C   0  0  0  0  0  0  0  0  0  0  0  0
   36.1480   27.2520   33.4680 H   0  0  0  0  0  0  0  0  0  0  0  0
   36.7190   28.5890   35.3950 H   0  0  0  0  0  0  0  0  0  0  0  0
   38.7940   28.1410   36.6580 H   0  0  0  0  0  0  0  0  0  0  0  0
   40.2780   26.3670   36.0050 H   0  0  0  0  0  0  0  0  0  0  0  0
   40.1430   24.4520   33.8010 S   0  0  0  0  0  0  0  0  0  0  0  0
   39.4830   23.5070   32.8740 O   0  0  0  0  0  0  0  0  0  0  0  0
   41.3640   25.0930   33.1190 O   0  0  0  0  0  0  0  0  0  0  0  0
   39.7920   22.9460   35.9130 C   0  0  0  0  0  0  0  0  0  0  0  0
   40.7650   23.5900   35.1650 C   0  0  0  0  0  0  0  0  0  0  0  0
   42.0940   23.5030   35.5130 C   0  0  0  0  0  0  0  0  0  0  0  0
   42.7850   24.0290   34.8850 H   0  0  0  0  0  0  0  0  0  0  0  0
   42.5150   22.7730   36.6180 C   0  0  0  0  0  0  0  0  0  0  0  0
   43.5630   22.7120   36.8810 H   0  0  0  0  0  0  0  0  0  0  0  0
   41.5590   22.1250   37.3750 C   0  0  0  0  0  3  0  0  0  0  0  0
   40.2080   22.2090   37.0290 C   0  0  0  0  0  3  0  0  0  0  0  0
   37.5580   24.0090   35.1110 H   0  0  0  0  0  0  0  0  0  0  0  0
   38.0700   22.9010   35.7290 S   0  0  0  0  0  0  0  0  0  0  0  0
   37.6080   21.6450   35.0400 O   0  0  0  0  0  0  0  0  0  0  0  0
   37.4370   22.8500   37.1130 O   0  0  0  0  0  0  0  0  0  0  0  0
   37.6400   25.2260   32.5380 O   0  0  0  0  0  0  0  0  0  0  0  0
   37.5480   27.1870   30.7840 O   0  0  0  0  0  0  0  0  0  0  0  0
   37.3540   25.6820   30.9410 P   0  0  1  0  0  0  0  0  0  0  0  0
   38.3570   24.8170   29.8800 O   0  0  0  0  0  0  0  0  0  0  0  0
   38.8810   24.1370   30.3840 H   0  0  0  0  0  0  0  0  0  0  0  0
   35.7310   25.4030   30.4920 O   0  0  0  0  0  0  0  0  0  0  0  0
   35.1600   24.5420   31.4420 C   0  0  0  0  0  0  0  0  0  0  0  0
   34.0790   24.7250   31.4890 H   0  0  0  0  0  0  0  0  0  0  0  0
   35.5790   24.7830   32.4400 H   0  0  0  0  0  0  0  0  0  0  0  0
   35.6340   22.2100   32.0870 C   0  0  0  0  0  3  0  0  0  0  0  0
   35.4700   23.1190   31.1640 C   0  0  0  0  0  3  0  0  0  0  0  0
   36.9260   19.2850   30.3040 C   0  0  0  0  0  0  0  0  0  0  0  0
   36.3920   18.2290   31.0550 C   0  0  0  0  0  0  0  0  0  0  0  0
   35.5970   18.5340   32.1610 C   0  0  0  0  0  0  0  0  0  0  0  0
   35.4180   19.8740   32.4030 N   0  0  0  0  0  0  0  0  0  0  0  0
   35.9320   20.8470   31.6770 C   0  0  0  0  0  0  0  0  0  0  0  0
   36.6870   20.5460   30.6260 N   0  0  0  0  0  0  0  0  0  0  0  0
   37.5520   19.1200   29.4310 H   0  0  0  0  0  0  0  0  0  0  0  0
   36.6100   17.1950   30.7580 H   0  0  0  0  0  0  0  0  0  0  0  0
   35.1780   17.7520   32.7520 H   0  0  0  0  0  0  0  0  0  0  0  0
  1  6  1  0  0  0  0
  2  3  1  0  0  0  0
  2  1  2  0  0  0  0
  3  4  2  0  0  0  0
  4  8  1  0  0  0  0
  4  5  1  0  0  0  0
  5  9  1  0  0  0  0
  6  5  2  0  0  0  0
  6 10  1  0  0  0  0
  7  3  1  0  0  0  0
 11  1  1  0  0  0  0
 11 15  1  0  0  0  0
 12 11  2  0  0  0  0
 13 11  2  0  0  0  0
 14 21  1  0  0  0  0
 15 16  1  0  0  0  0
 15 14  2  0  0  0  0
 16 18  2  0  0  0  0
 17 16  1  0  0  0  0
 18 19  1  0  0  0  0
 18 20  1  0  0  0  0
 21 20  2  0  0  0  0
 22 23  1  0  0  0  0
 23 14  1  0  0  0  0
 23 25  2  0  0  0  0
 24 23  2  0  0  0  0
 26  2  1  0  0  0  0
 28 27  2  6  0  0  0
 28 26  1  0  0  0  0
 29 30  1  0  0  0  0
 29 28  1  0  0  0  0
 31 28  1  0  0  0  0
 31 32  1  0  0  0  0
 32 33  1  0  0  0  0
 32 34  1  0  0  0  0
 36 32  1  0  0  0  0
 36 35  2  0  0  0  0
 37 42  2  0  0  0  0
 37 38  1  0  0  0  0
 38 39  2  0  0  0  0
 39 40  1  0  0  0  0
 39 45  1  0  0  0  0
 41 35  1  0  0  0  0
 41 40  2  0  0  0  0
 42 41  1  0  0  0  0
 43 37  1  0  0  0  0
 44 38  1  0  0  0  0
M  END
>  <minimizedAffinity>
-5.87101841

$$$$

 OpenBabel03262520363D

 45 47  0  0  0  0  0  0  0  0999 V2000
   37.7620   23.0240   33.4770 C   0  0  0  0  0  0  0  0  0  0  0  0
   37.2820   23.3070   32.1870 C   0  0  0  0  0  0  0  0  0  0  0  0
   36.3940   22.4700   31.5470 C   0  0  0  0  0  0  0  0  0  0  0  0
   35.9700   21.3320   32.1870 C   0  0  0  0  0  0  0  0  0  0  0  0
   36.4330   21.0530   33.4410 C   0  0  0  0  0  0  0  0  0  0  0  0
   37.3170   21.8590   34.1120 C   0  0  0  0  0  0  0  0  0  0  0  0
   36.0740   22.7620   30.5540 H   0  0  0  0  0  0  0  0  0  0  0  0
   35.2760   20.7400   31.6060 H   0  0  0  0  0  0  0  0  0  0  0  0
   36.0400   20.1230   33.8720 H   0  0  0  0  0  0  0  0  0  0  0  0
   37.5940   21.5110   35.0710 H   0  0  0  0  0  0  0  0  0  0  0  0
   38.8820   24.0340   34.3500 S   0  0  0  0  0  0  0  0  0  0  0  0
   39.7920   24.7500   33.4310 O   0  0  0  0  0  0  0  0  0  0  0  0
   38.0650   25.0430   35.1760 O   0  0  0  0  0  0  0  0  0  0  0  0
   40.7620   22.3040   34.9220 C   0  0  0  0  0  0  0  0  0  0  0  0
   39.8080   23.1280   35.4970 C   0  0  0  0  0  0  0  0  0  0  0  0
   39.6640   23.1940   36.8650 C   0  0  0  0  0  0  0  0  0  0  0  0
   38.9040   23.8540   37.2320 H   0  0  0  0  0  0  0  0  0  0  0  0
   40.4620   22.4450   37.7210 C   0  0  0  0  0  0  0  0  0  0  0  0
   40.3390   22.5050   38.7950 H   0  0  0  0  0  0  0  0  0  0  0  0
   41.4180   21.6180   37.1660 C   0  0  0  0  0  3  0  0  0  0  0  0
   41.5690   21.5460   35.7790 C   0  0  0  0  0  3  0  0  0  0  0  0
   40.6970   22.9830   32.4130 H   0  0  0  0  0  0  0  0  0  0  0  0
   41.1440   22.0060   33.2590 S   0  0  0  0  0  0  0  0  0  0  0  0
   42.6140   21.7550   33.0540 O   0  0  0  0  0  0  0  0  0  0  0  0
   40.4570   20.7170   32.8290 O   0  0  0  0  0  0  0  0  0  0  0  0
   37.8010   24.4750   31.6870 O   0  0  0  0  0  0  0  0  0  0  0  0
   37.9140   26.9190   30.7150 O   0  0  0  0  0  0  0  0  0  0  0  0
   36.9800   25.9140   31.3840 P   0  0  1  0  0  0  0  0  0  0  0  0
   35.5990   25.6320   30.4380 O   0  0  0  0  0  0  0  0  0  0  0  0
   35.4780   24.6540   30.2960 H   0  0  0  0  0  0  0  0  0  0  0  0
   36.4910   26.6730   32.8330 O   0  0  0  0  0  0  0  0  0  0  0  0
   36.5720   28.0600   32.6450 C   0  0  0  0  0  0  0  0  0  0  0  0
   36.1050   28.3200   31.6860 H   0  0  0  0  0  0  0  0  0  0  0  0
   37.6400   28.3510   32.5820 H   0  0  0  0  0  0  0  0  0  0  0  0
   35.5270   30.0370   33.6840 C   0  0  0  0  0  3  0  0  0  0  0  0
   35.9740   28.8130   33.7740 C   0  0  0  0  0  3  0  0  0  0  0  0
   35.0970   31.9420   36.7800 C   0  0  0  0  0  0  0  0  0  0  0  0
   33.7320   31.7600   37.0450 C   0  0  0  0  0  0  0  0  0  0  0  0
   32.9790   30.9880   36.1590 C   0  0  0  0  0  0  0  0  0  0  0  0
   33.6760   30.4740   35.0920 N   0  0  0  0  0  0  0  0  0  0  0  0
   34.9610   30.6610   34.8690 C   0  0  0  0  0  0  0  0  0  0  0  0
   35.6680   31.3970   35.7190 N   0  0  0  0  0  0  0  0  0  0  0  0
   35.7420   32.5300   37.4280 H   0  0  0  0  0  0  0  0  0  0  0  0
   33.2920   32.2260   37.9350 H   0  0  0  0  0  0  0  0  0  0  0  0
   31.9400   30.8330   36.3340 H   0  0  0  0  0  0  0  0  0  0  0  0
  1  6  1  0  0  0  0
  1 11  1  0  0  0  0
  2  1  2  0  0  0  0
  3  2  1  0  0  0  0
  3  4  2  0  0  0  0
  4  5  1  0  0  0  0
  5  9  1  0  0  0  0
  5  6  2  0  0  0  0
  6 10  1  0  0  0  0
  7  3  1  0  0  0  0
  8  4  1  0  0  0  0
 11 13  2  0  0  0  0
 11 15  1  0  0  0  0
 12 11  2  0  0  0  0
 14 15  2  0  0  0  0
 14 21  1  0  0  0  0
 15 16  1  0  0  0  0
 16 17  1  0  0  0  0
 16 18  2  0  0  0  0
 18 19  1  0  0  0  0
 20 18  1  0  0  0  0
 21 20  2  0  0  0  0
 22 23  1  0  0  0  0
 23 14  1  0  0  0  0
 24 23  2  0  0  0  0
 25 23  2  0  0  0  0
 26  2  1  0  0  0  0
 28 27  2  6  0  0  0
 28 26  1  0  0  0  0
 28 31  1  0  0  0  0
 29 28  1  0  0  0  0
 30 29  1  0  0  0  0
 32 31  1  0  0  0  0
 32 36  1  0  0  0  0
 33 32  1  0  0  0  0
 34 32  1  0  0  0  0
 35 36  2  0  0  0  0
 35 41  1  0  0  0  0
 37 38  1  0  0  0  0
 37 43  1  0  0  0  0
 38 44  1  0  0  0  0
 39 45  1  0  0  0  0
 39 38  2  0  0  0  0
 40 39  1  0  0  0  0
 41 40  2  0  0  0  0
 41 42  1  0  0  0  0
 42 37  2  0  0  0  0
M  END
>  <minimizedAffinity>
-5.70300007

$$$$
