
 OpenBabel03272510173D

 31 33  0  0  0  0  0  0  0  0999 V2000
   37.4000   29.4430   51.1800 Br  0  0  0  0  0  0  0  0  0  0  0  0
   36.0300   29.3590   49.8450 C   0  0  0  0  0  0  0  0  0  0  0  0
   36.0290   30.2290   48.7790 C   0  0  0  0  0  0  0  0  0  0  0  0
   35.0120   30.1060   47.8620 C   0  0  0  0  0  0  0  0  0  0  0  0
   33.9990   29.1550   47.9640 C   0  0  0  0  0  0  0  0  0  0  0  0
   34.0460   28.3140   49.0450 C   0  0  0  0  0  0  0  0  0  0  0  0
   35.0550   28.4150   49.9760 C   0  0  0  0  0  0  0  0  0  0  0  0
   35.0600   30.8260   47.0310 H   0  0  0  0  0  0  0  0  0  0  0  0
   33.2430   27.5910   49.0830 H   0  0  0  0  0  0  0  0  0  0  0  0
   35.0360   27.7160   50.8120 H   0  0  0  0  0  0  0  0  0  0  0  0
   38.0100   33.2310   49.4070 C   0  0  0  0  0  0  0  0  0  0  0  0
   39.0220   33.1790   48.4140 C   0  0  0  0  0  0  0  0  0  0  0  0
   39.0000   32.0970   47.5380 C   0  0  0  0  0  0  0  0  0  0  0  0
   38.0230   31.1570   47.6760 N   0  0  0  0  0  0  0  0  0  0  0  0
   37.0750   31.2410   48.6360 C   0  0  0  0  0  0  0  0  0  0  0  0
   37.0810   32.2820   49.4920 N   0  0  0  0  0  0  0  0  0  0  0  0
   37.9530   34.0450   50.1330 H   0  0  0  0  0  0  0  0  0  0  0  0
   39.7560   33.9670   48.3770 H   0  0  0  0  0  0  0  0  0  0  0  0
   39.7620   32.0290   46.7670 H   0  0  0  0  0  0  0  0  0  0  0  0
   31.8950   28.4520   46.7720 C   0  0  0  0  0  0  0  0  0  0  0  0
   33.0220   29.2000   46.8820 C   0  0  0  0  0  0  0  0  0  0  0  0
   33.2720   30.1050   45.8450 C   0  0  0  0  0  0  0  0  0  0  0  0
   34.1630   30.7540   45.8500 H   0  0  0  0  0  0  0  0  0  0  0  0
   32.4670   30.2760   44.7590 C   0  0  0  0  0  0  0  0  0  0  0  0
   32.6840   30.9830   43.9730 H   0  0  0  0  0  0  0  0  0  0  0  0
   31.3290   29.5180   44.6530 C   0  0  0  0  0  3  0  0  0  0  0  0
   31.0660   28.6210   45.6610 C   0  0  0  0  0  3  0  0  0  0  0  0
   32.6900   26.8620   48.5960 H   0  0  0  0  0  0  0  0  0  0  0  0
   31.5470   27.3210   48.0320 S   0  0  0  0  0  0  0  0  0  0  0  0
   30.5540   27.8280   49.0430 O   0  0  0  0  0  0  0  0  0  0  0  0
   30.8970   26.1170   47.3630 O   0  0  0  0  0  0  0  0  0  0  0  0
  2  7  1  0  0  0  0
  2  1  1  0  0  0  0
  3  2  2  0  0  0  0
  4  5  2  0  0  0  0
  4  3  1  0  0  0  0
  5  6  1  0  0  0  0
  6  9  1  0  0  0  0
  6  7  2  0  0  0  0
  7 10  1  0  0  0  0
  8  4  1  0  0  0  0
 11 16  1  0  0  0  0
 11 17  1  0  0  0  0
 12 11  2  0  0  0  0
 13 14  2  0  0  0  0
 13 12  1  0  0  0  0
 14 15  1  0  0  0  0
 15  3  1  0  0  0  0
 15 16  2  0  0  0  0
 18 12  1  0  0  0  0
 19 13  1  0  0  0  0
 20 21  1  0  0  0  0
 20 29  1  0  0  0  0
 21  5  1  0  0  0  0
 22 23  1  0  0  0  0
 22 21  2  0  0  0  0
 24 22  1  0  0  0  0
 25 24  1  0  0  0  0
 26 24  2  0  0  0  0
 26 27  1  0  0  0  0
 27 20  2  0  0  0  0
 29 28  1  0  0  0  0
 29 30  2  0  0  0  0
 31 29  2  0  0  0  0
M  END
>  <minimizedAffinity>
-6.1428895

>  <minimizedRMSD>
0.829182267

$$$$
