
 OpenBabel03272503373D

 22 23  0  0  0  0  0  0  0  0999 V2000
   38.9400   32.1990   47.4820 C   0  0  0  0  0  0  0  0  0  0  0  0
   38.5450   32.4400   48.7850 C   0  0  0  0  0  0  0  0  0  0  0  0
   38.9460   33.5840   49.4170 C   0  0  0  0  0  0  0  0  0  0  0  0
   38.6830   33.8480   50.4280 H   0  0  0  0  0  0  0  0  0  0  0  0
   39.7400   34.5400   48.8190 C   0  0  0  0  0  0  0  0  0  0  0  0
   40.0700   35.4540   49.3010 H   0  0  0  0  0  0  0  0  0  0  0  0
   40.1650   34.3430   47.5050 C   0  0  0  0  0  0  0  0  0  0  0  0
   39.7360   33.1720   46.9070 C   0  0  0  0  0  0  0  0  0  0  0  0
   37.2870   29.7000   51.0250 C   0  0  0  0  0  0  0  0  0  0  0  0
   38.1800   30.6020   50.4360 C   0  0  0  0  0  0  0  0  0  0  0  0
   37.7040   31.4620   49.4640 C   0  0  0  0  0  0  0  0  0  0  0  0
   36.3850   31.3690   49.1450 N   0  0  0  0  0  0  0  0  0  0  0  0
   35.5200   30.4990   49.7140 C   0  0  0  0  0  0  0  0  0  0  0  0
   35.9990   29.6670   50.6590 N   0  0  0  0  0  0  0  0  0  0  0  0
   39.2010   30.6290   50.7260 H   0  0  0  0  0  0  0  0  0  0  0  0
   34.4910   30.4630   49.4300 H   0  0  0  0  0  0  0  0  0  0  0  0
   37.8770   28.8800   51.9950 O   0  0  0  0  0  0  0  0  0  0  0  0
   38.6950   28.3240   51.7110 H   0  0  0  0  0  0  0  0  0  0  0  0
   38.4290   29.6500   47.3470 H   0  0  0  0  0  0  0  0  0  0  0  0
   38.4890   30.7780   46.5860 S   0  0  0  0  0  0  0  0  0  0  0  0
   37.2390   30.9950   45.7580 O   0  0  0  0  0  0  0  0  0  0  0  0
   39.5810   30.5260   45.5540 O   0  0  0  0  0  0  0  0  0  0  0  0
  1  2  1  0  0  0  0
  2  3  2  0  0  0  0
  2 11  1  0  0  0  0
  3  4  1  0  0  0  0
  5  6  1  0  0  0  0
  5  3  1  0  0  0  0
  7  5  2  0  0  0  0
  8  1  2  0  0  0  0
  8  7  1  0  0  0  0
  9 17  1  0  0  0  0
 10 15  1  0  0  0  0
 10  9  2  0  0  0  0
 11 10  1  0  0  0  0
 12 11  2  0  0  0  0
 12 13  1  0  0  0  0
 13 14  2  0  0  0  0
 14  9  1  0  0  0  0
 16 13  1  0  0  0  0
 18 17  1  0  0  0  0
 20 19  1  0  0  0  0
 20  1  1  0  0  0  0
 21 20  2  0  0  0  0
 22 20  2  0  0  0  0
M  END
>  <minimizedAffinity>
-5.69495344

>  <minimizedRMSD>
0.936281741

$$$$
