
 OpenBabel03272508543D

 41 44  0  0  1  0  0  0  0  0999 V2000
   39.2200   31.3410   43.4390 C   0  0  0  0  0  0  0  0  0  0  0  0
   40.1600   30.3620   43.5980 C   0  0  0  0  0  0  0  0  0  0  0  0
   40.8670   29.9940   42.4730 C   0  0  0  0  0  0  0  0  0  0  0  0
   40.6010   30.6080   41.2880 C   0  0  0  0  0  0  0  0  0  0  0  0
   39.6600   31.5950   41.1150 C   0  0  0  0  0  0  0  0  0  0  0  0
   39.0140   31.9000   42.2410 N   0  0  0  0  0  0  0  0  0  0  0  0
   40.3760   29.8710   44.5390 H   0  0  0  0  0  0  0  0  0  0  0  0
   41.6110   29.2280   42.5660 H   0  0  0  0  0  0  0  0  0  0  0  0
   41.1490   30.2500   40.4470 H   0  0  0  0  0  0  0  0  0  0  0  0
   39.6120   32.0950   38.6290 C   0  0  0  0  0  0  0  0  0  0  0  0
   39.2430   32.2870   39.9370 C   0  0  0  0  0  0  0  0  0  0  0  0
   38.3480   33.3510   40.1050 C   0  0  0  0  0  0  0  0  0  0  0  0
   37.9890   33.5940   41.1180 H   0  0  0  0  0  0  0  0  0  0  0  0
   37.8480   34.1580   39.1120 C   0  0  0  0  0  0  0  0  0  0  0  0
   37.1640   34.9520   39.3250 H   0  0  0  0  0  0  0  0  0  0  0  0
   38.2460   33.9200   37.8190 C   0  0  0  0  0  3  0  0  0  0  0  0
   39.1260   32.8860   37.6060 C   0  0  0  0  0  3  0  0  0  0  0  0
   40.9790   30.9500   36.8120 H   0  0  0  0  0  0  0  0  0  0  0  0
   40.7810   30.9030   38.2170 S   0  0  0  0  0  0  0  0  0  0  0  0
   42.1520   31.1340   38.7530 O   0  0  0  0  0  0  0  0  0  0  0  0
   40.3560   29.4870   38.4520 O   0  0  0  0  0  0  0  0  0  0  0  0
   38.4270   31.7670   44.6190 C   0  0  0  0  0  0  0  0  0  0  0  0
   37.3920   32.4800   44.4860 O   0  0  0  0  0  0  0  0  0  0  0  0
   38.8740   31.3430   45.9100 N   0  0  0  0  0  0  0  0  0  0  0  0
   39.8010   30.9030   46.1030 H   0  0  0  0  0  0  0  0  0  0  0  0
   38.0970   30.7190   48.1970 C   0  0  2  0  0  0  0  0  0  0  0  0
   38.6650   32.0720   48.3000 C   0  0  0  0  0  0  0  0  0  0  0  0
   37.9580   31.5480   47.0260 C   0  0  1  0  0  0  0  0  0  0  0  0
   38.8830   29.9190   48.2350 H   0  0  0  0  0  0  0  0  0  0  0  0
   39.7460   32.2410   48.2470 H   0  0  0  0  0  0  0  0  0  0  0  0
   38.1140   32.8840   48.8120 H   0  0  0  0  0  0  0  0  0  0  0  0
   36.9820   32.0470   46.7930 H   0  0  0  0  0  0  0  0  0  0  0  0
   34.5680   30.0500   49.0450 C   0  0  0  0  0  0  0  0  0  0  0  0
   34.6680   29.5020   50.3650 C   0  0  0  0  0  0  0  0  0  0  0  0
   35.9830   29.3870   50.9310 C   0  0  0  0  0  0  0  0  0  0  0  0
   37.0520   29.7940   50.2060 N   0  0  0  0  0  0  0  0  0  0  0  0
   36.8870   30.3060   48.9560 C   0  0  0  0  0  0  0  0  0  0  0  0
   35.6570   30.4480   48.3460 N   0  0  0  0  0  0  0  0  0  0  0  0
   33.5710   30.1300   48.6320 H   0  0  0  0  0  0  0  0  0  0  0  0
   33.7740   29.1970   50.8870 H   0  0  0  0  0  0  0  0  0  0  0  0
   36.0490   28.9770   51.9160 H   0  0  0  0  0  0  0  0  0  0  0  0
  1  2  1  0  0  0  0
  1 22  1  0  0  0  0
  2  7  1  0  0  0  0
  3  8  1  0  0  0  0
  3  2  2  0  0  0  0
  4  3  1  0  0  0  0
  5  4  2  0  0  0  0
  5  6  1  0  0  0  0
  6  1  2  0  0  0  0
  9  4  1  0  0  0  0
 10 11  1  0  0  0  0
 11 12  2  0  0  0  0
 11  5  1  0  0  0  0
 12 13  1  0  0  0  0
 14 15  1  0  0  0  0
 14 12  1  0  0  0  0
 16 14  2  0  0  0  0
 17 16  1  0  0  0  0
 17 10  2  0  0  0  0
 18 19  1  0  0  0  0
 19 21  2  0  0  0  0
 19 10  1  0  0  0  0
 19 20  2  0  0  0  0
 22 24  1  0  0  0  0
 23 22  2  0  0  0  0
 24 25  1  0  0  0  0
 24 28  1  0  0  0  0
 26 29  1  6  0  0  0
 26 27  1  0  0  0  0
 26 37  1  0  0  0  0
 27 31  1  0  0  0  0
 28 32  1  6  0  0  0
 28 26  1  0  0  0  0
 28 27  1  0  0  0  0
 30 27  1  0  0  0  0
 33 34  1  0  0  0  0
 34 40  1  0  0  0  0
 34 35  2  0  0  0  0
 35 41  1  0  0  0  0
 36 35  1  0  0  0  0
 37 36  2  0  0  0  0
 38 37  1  0  0  0  0
 38 33  2  0  0  0  0
 39 33  1  0  0  0  0
M  END
>  <minimizedAffinity>
-5.27105808

>  <minimizedRMSD>
0.824035466

$$$$
