
 OpenBabel03272501083D

 43 46  0  0  1  0  0  0  0  0999 V2000
   40.4740   32.2070   44.5280 Cl  0  0  0  0  0  0  0  0  0  0  0  0
   39.0000   31.2900   44.4570 C   0  0  0  0  0  0  0  0  0  0  0  0
   38.1200   31.5500   45.5010 C   0  0  0  0  0  0  0  0  0  0  0  0
   36.9320   30.8330   45.4580 C   0  0  0  0  0  0  0  0  0  0  0  0
   36.6500   29.9290   44.4500 C   0  0  0  0  0  0  0  0  0  0  0  0
   37.5570   29.7150   43.4480 C   0  0  0  0  0  0  0  0  0  0  0  0
   38.7370   30.4010   43.4570 C   0  0  0  0  0  0  0  0  0  0  0  0
   36.1290   30.9010   46.1790 H   0  0  0  0  0  0  0  0  0  0  0  0
   35.7350   29.3550   44.3860 H   0  0  0  0  0  0  0  0  0  0  0  0
   37.4240   29.0300   42.6220 H   0  0  0  0  0  0  0  0  0  0  0  0
   39.7890   31.0210   41.2930 C   0  0  0  0  0  0  0  0  0  0  0  0
   39.7570   30.2300   42.4250 C   0  0  0  0  0  0  0  0  0  0  0  0
   40.7390   29.2560   42.5470 C   0  0  0  0  0  0  0  0  0  0  0  0
   40.6930   28.6510   43.4400 H   0  0  0  0  0  0  0  0  0  0  0  0
   41.7100   29.0600   41.6090 C   0  0  0  0  0  0  0  0  0  0  0  0
   42.4540   28.2870   41.7540 H   0  0  0  0  0  0  0  0  0  0  0  0
   41.7370   29.8540   40.4790 C   0  0  0  0  0  3  0  0  0  0  0  0
   40.7680   30.8350   40.3310 C   0  0  0  0  0  3  0  0  0  0  0  0
   37.3950   31.8520   41.5590 H   0  0  0  0  0  0  0  0  0  0  0  0
   38.5840   32.2730   41.0620 S   0  0  0  0  0  0  0  0  0  0  0  0
   38.4500   32.4960   39.5930 O   0  0  0  0  0  0  0  0  0  0  0  0
   39.0950   33.5260   41.7110 O   0  0  0  0  0  0  0  0  0  0  0  0
   38.1680   32.3700   46.5760 O   0  0  0  0  0  0  0  0  0  0  0  0
   38.9140   32.4780   47.7030 C   0  0  2  0  0  0  0  0  0  0  0  0
   38.0290   32.7620   48.9630 C   0  0  2  0  0  0  0  0  0  0  0  0
   38.9850   33.4570   49.8100 C   0  0  0  0  0  0  0  0  0  0  0  0
   39.8060   34.2350   48.9990 O   0  0  0  0  0  0  0  0  0  0  0  0
   39.6140   33.8650   47.7050 C   0  0  0  0  0  0  0  0  0  0  0  0
   39.6700   31.7190   47.9110 H   0  0  0  0  0  0  0  0  0  0  0  0
   37.2350   33.4490   48.5940 H   0  0  0  0  0  0  0  0  0  0  0  0
   39.6700   32.8130   50.3960 H   0  0  0  0  0  0  0  0  0  0  0  0
   38.4890   34.1030   50.5920 H   0  0  0  0  0  0  0  0  0  0  0  0
   40.4910   33.8800   47.0600 H   0  0  0  0  0  0  0  0  0  0  0  0
   38.8550   34.5700   47.2680 H   0  0  0  0  0  0  0  0  0  0  0  0
   37.3650   29.6070   50.9130 C   0  0  0  0  0  0  0  0  0  0  0  0
   38.0330   30.7800   50.4670 C   0  0  0  0  0  0  0  0  0  0  0  0
   37.3980   31.5680   49.4630 C   0  0  0  0  0  0  0  0  0  0  0  0
   36.1760   31.1630   48.9730 N   0  0  0  0  0  0  0  0  0  0  0  0
   35.5890   30.0480   49.4280 C   0  0  0  0  0  0  0  0  0  0  0  0
   36.1600   29.2690   50.3850 N   0  0  0  0  0  0  0  0  0  0  0  0
   37.8200   28.9920   51.6700 H   0  0  0  0  0  0  0  0  0  0  0  0
   38.9750   31.0310   50.8890 H   0  0  0  0  0  0  0  0  0  0  0  0
   34.6260   29.7880   48.9990 H   0  0  0  0  0  0  0  0  0  0  0  0
  2  1  1  0  0  0  0
  2  3  1  0  0  0  0
  3 23  1  0  0  0  0
  4  3  2  0  0  0  0
  4  8  1  0  0  0  0
  5  4  1  0  0  0  0
  6  7  1  0  0  0  0
  6  5  2  0  0  0  0
  7  2  2  0  0  0  0
  9  5  1  0  0  0  0
 10  6  1  0  0  0  0
 11 12  1  0  0  0  0
 12 13  2  0  0  0  0
 12  7  1  0  0  0  0
 13 14  1  0  0  0  0
 15 16  1  0  0  0  0
 15 13  1  0  0  0  0
 17 15  2  0  0  0  0
 18 17  1  0  0  0  0
 18 11  2  0  0  0  0
 20 11  1  0  0  0  0
 20 19  1  0  0  0  0
 20 22  2  0  0  0  0
 21 20  2  0  0  0  0
 23 24  1  0  0  0  0
 24 28  1  0  0  0  0
 24 29  1  1  0  0  0
 24 25  1  0  0  0  0
 25 30  1  6  0  0  0
 25 37  1  0  0  0  0
 25 26  1  0  0  0  0
 26 31  1  0  0  0  0
 26 32  1  0  0  0  0
 27 26  1  0  0  0  0
 28 27  1  0  0  0  0
 33 28  1  0  0  0  0
 34 28  1  0  0  0  0
 35 41  1  0  0  0  0
 36 42  1  0  0  0  0
 36 35  1  0  0  0  0
 37 36  2  0  0  0  0
 38 39  2  0  0  0  0
 38 37  1  0  0  0  0
 39 40  1  0  0  0  0
 40 35  2  0  0  0  0
 43 39  1  0  0  0  0
M  END
>  <minimizedAffinity>
-6.32909584

>  <minimizedRMSD>
1.75690091

$$$$
