
 OpenBabel03272510343D

 31 33  0  0  0  0  0  0  0  0999 V2000
   38.6500   31.5950   47.0830 C   0  0  0  0  0  0  0  0  0  0  0  0
   39.7200   31.7580   46.2240 C   0  0  0  0  0  0  0  0  0  0  0  0
   39.9320   30.8870   45.1710 C   0  0  0  0  0  0  0  0  0  0  0  0
   39.0400   29.8460   44.9990 C   0  0  0  0  0  0  0  0  0  0  0  0
   37.9470   29.6530   45.8510 C   0  0  0  0  0  0  0  0  0  0  0  0
   37.7720   30.5440   46.8900 C   0  0  0  0  0  0  0  0  0  0  0  0
   40.4230   32.5770   46.3570 H   0  0  0  0  0  0  0  0  0  0  0  0
   40.7840   31.0580   44.5270 H   0  0  0  0  0  0  0  0  0  0  0  0
   39.2840   29.2060   44.1390 H   0  0  0  0  0  0  0  0  0  0  0  0
   37.3120   28.8150   45.6340 H   0  0  0  0  0  0  0  0  0  0  0  0
   37.0470   33.5940   49.6590 C   0  0  0  0  0  0  0  0  0  0  0  0
   38.1020   34.3650   50.1970 C   0  0  0  0  0  0  0  0  0  0  0  0
   39.4020   34.1750   49.6410 C   0  0  0  0  0  0  0  0  0  0  0  0
   39.5260   33.2740   48.6440 N   0  0  0  0  0  0  0  0  0  0  0  0
   38.4990   32.5610   48.1620 C   0  0  0  0  0  0  0  0  0  0  0  0
   37.2580   32.7200   48.6690 N   0  0  0  0  0  0  0  0  0  0  0  0
   36.0590   33.7550   50.1000 H   0  0  0  0  0  0  0  0  0  0  0  0
   37.9410   35.0770   50.9980 H   0  0  0  0  0  0  0  0  0  0  0  0
   40.2130   34.7570   50.0440 H   0  0  0  0  0  0  0  0  0  0  0  0
   36.6180   29.9860   49.1240 C   0  0  0  0  0  0  0  0  0  0  0  0
   36.6430   30.3460   47.7920 C   0  0  0  0  0  0  0  0  0  0  0  0
   35.4250   30.5770   47.1520 C   0  0  0  0  0  0  0  0  0  0  0  0
   35.2660   30.8680   46.1110 H   0  0  0  0  0  0  0  0  0  0  0  0
   34.2200   30.4480   47.8420 C   0  0  0  0  0  0  0  0  0  0  0  0
   33.2490   30.6150   47.4010 H   0  0  0  0  0  0  0  0  0  0  0  0
   34.2290   30.0810   49.1910 C   0  0  0  0  0  3  0  0  0  0  0  0
   35.4450   29.8590   49.7980 C   0  0  0  0  0  3  0  0  0  0  0  0
   39.1040   29.6550   48.7860 H   0  0  0  0  0  0  0  0  0  0  0  0
   38.2000   29.7210   49.8150 S   0  0  0  0  0  0  0  0  0  0  0  0
   38.1950   28.4080   50.5210 O   0  0  0  0  0  0  0  0  0  0  0  0
   38.5940   30.7830   50.7860 O   0  0  0  0  0  0  0  0  0  0  0  0
  1 15  1  0  0  0  0
  2  7  1  0  0  0  0
  2  1  2  0  0  0  0
  3  2  1  0  0  0  0
  4  3  2  0  0  0  0
  4  5  1  0  0  0  0
  5  6  2  0  0  0  0
  6  1  1  0  0  0  0
  6 21  1  0  0  0  0
  8  3  1  0  0  0  0
  9  4  1  0  0  0  0
 10  5  1  0  0  0  0
 11 17  1  0  0  0  0
 11 12  1  0  0  0  0
 12 18  1  0  0  0  0
 13 19  1  0  0  0  0
 13 12  2  0  0  0  0
 14 13  1  0  0  0  0
 15 14  2  0  0  0  0
 15 16  1  0  0  0  0
 16 11  2  0  0  0  0
 20 27  1  0  0  0  0
 20 29  1  0  0  0  0
 21 20  2  0  0  0  0
 22 21  1  0  0  0  0
 22 24  2  0  0  0  0
 23 22  1  0  0  0  0
 24 26  1  0  0  0  0
 25 24  1  0  0  0  0
 26 27  2  0  0  0  0
 28 29  1  0  0  0  0
 29 30  2  0  0  0  0
 29 31  2  0  0  0  0
M  END
>  <minimizedAffinity>
-1.63798296

>  <minimizedRMSD>
3.96899748

$$$$
