
 OpenBabel03272508133D

 37 39  0  0  0  0  0  0  0  0999 V2000
   37.8320   22.7060   34.1550 Cl  0  0  0  0  0  0  0  0  0  0  0  0
   38.3000   24.4120   34.1660 C   0  0  0  0  0  0  0  0  0  0  0  0
   37.6090   25.4140   33.4950 C   0  0  0  0  0  0  0  0  0  0  0  0
   38.0850   26.7160   33.5870 C   0  0  0  0  0  0  0  0  0  0  0  0
   39.2130   26.9950   34.3270 C   0  0  0  0  0  0  0  0  0  0  0  0
   39.9020   26.0260   34.9910 C   0  0  0  0  0  0  0  0  0  0  0  0
   39.4380   24.7430   34.9030 C   0  0  0  0  0  0  0  0  0  0  0  0
   37.5020   27.4230   33.0460 H   0  0  0  0  0  0  0  0  0  0  0  0
   39.5580   28.0200   34.3780 H   0  0  0  0  0  0  0  0  0  0  0  0
   40.7850   26.3040   35.5590 H   0  0  0  0  0  0  0  0  0  0  0  0
   39.6250   23.3780   36.8470 C   0  0  0  0  0  0  0  0  0  0  0  0
   40.2050   23.7180   35.6320 C   0  0  0  0  0  0  0  0  0  0  0  0
   41.3710   23.1460   35.1750 C   0  0  0  0  0  0  0  0  0  0  0  0
   41.7260   23.4890   34.2170 H   0  0  0  0  0  0  0  0  0  0  0  0
   42.0220   22.1940   35.9220 C   0  0  0  0  0  0  0  0  0  0  0  0
   42.9320   21.7820   35.5120 H   0  0  0  0  0  0  0  0  0  0  0  0
   41.4740   21.8340   37.1350 C   0  0  0  0  0  3  0  0  0  0  0  0
   40.3100   22.4070   37.5870 C   0  0  0  0  0  3  0  0  0  0  0  0
   37.6800   25.0660   36.6260 H   0  0  0  0  0  0  0  0  0  0  0  0
   38.1570   24.0690   37.4690 S   0  0  0  0  0  0  0  0  0  0  0  0
   38.2500   24.5380   38.8740 O   0  0  0  0  0  0  0  0  0  0  0  0
   37.0940   23.0000   37.4350 O   0  0  0  0  0  0  0  0  0  0  0  0
   36.5220   24.9320   32.8200 O   0  0  0  0  0  0  0  0  0  0  0  0
   35.4790   25.9730   30.7020 O   0  0  0  0  0  0  0  0  0  0  0  0
   36.2580   24.7980   31.1680 P   0  0  1  0  0  0  0  0  0  0  0  0
   37.8210   24.8170   30.4790 O   0  0  0  0  0  0  0  0  0  0  0  0
   38.4800   24.3570   31.0470 H   0  0  0  0  0  0  0  0  0  0  0  0
   35.5160   23.3080   30.8460 O   0  0  0  0  0  0  0  0  0  0  0  0
   35.6830   19.9410   32.3470 C   0  0  0  0  0  0  0  0  0  0  0  0
   35.1150   21.1770   32.0230 C   0  0  0  0  0  0  0  0  0  0  0  0
   35.8600   22.0710   31.2720 C   0  0  0  0  0  0  0  0  0  0  0  0
   37.1140   21.7050   30.8810 N   0  0  0  0  0  0  0  0  0  0  0  0
   37.6360   20.4980   31.2130 C   0  0  0  0  0  0  0  0  0  0  0  0
   36.9110   19.6220   31.9480 N   0  0  0  0  0  0  0  0  0  0  0  0
   35.0980   19.2670   32.9250 H   0  0  0  0  0  0  0  0  0  0  0  0
   34.1470   21.5140   32.2980 H   0  0  0  0  0  0  0  0  0  0  0  0
   38.6420   20.2100   30.8990 H   0  0  0  0  0  0  0  0  0  0  0  0
  1  2  1  0  0  0  0
  2  7  1  0  0  0  0
  3  4  1  0  0  0  0
  3  2  2  0  0  0  0
  4  5  2  0  0  0  0
  5  9  1  0  0  0  0
  5  6  1  0  0  0  0
  6 10  1  0  0  0  0
  7  6  2  0  0  0  0
  7 12  1  0  0  0  0
  8  4  1  0  0  0  0
 11 20  1  0  0  0  0
 11 18  1  0  0  0  0
 12 11  2  0  0  0  0
 13 12  1  0  0  0  0
 13 15  2  0  0  0  0
 14 13  1  0  0  0  0
 15 17  1  0  0  0  0
 16 15  1  0  0  0  0
 17 18  2  0  0  0  0
 19 20  1  0  0  0  0
 20 21  2  0  0  0  0
 22 20  2  0  0  0  0
 23  3  1  0  0  0  0
 25 24  2  6  0  0  0
 25 23  1  0  0  0  0
 26 27  1  0  0  0  0
 26 25  1  0  0  0  0
 28 25  1  0  0  0  0
 28 31  1  0  0  0  0
 29 35  1  0  0  0  0
 30 36  1  0  0  0  0
 30 29  1  0  0  0  0
 31 30  2  0  0  0  0
 32 33  2  0  0  0  0
 32 31  1  0  0  0  0
 33 34  1  0  0  0  0
 34 29  2  0  0  0  0
 37 33  1  0  0  0  0
M  END
>  <minimizedAffinity>
-5.9378109

$$$$

 OpenBabel03272508133D

 37 39  0  0  0  0  0  0  0  0999 V2000
   36.6200   27.9950   34.8940 Cl  0  0  0  0  0  0  0  0  0  0  0  0
   36.4070   28.7100   33.2880 C   0  0  0  0  0  0  0  0  0  0  0  0
   36.8970   28.1480   32.1150 C   0  0  0  0  0  0  0  0  0  0  0  0
   36.6580   28.8150   30.9190 C   0  0  0  0  0  0  0  0  0  0  0  0
   35.9540   29.9990   30.9090 C   0  0  0  0  0  0  0  0  0  0  0  0
   35.4670   30.5620   32.0490 C   0  0  0  0  0  0  0  0  0  0  0  0
   35.7000   29.9110   33.2280 C   0  0  0  0  0  0  0  0  0  0  0  0
   37.0650   28.3220   30.0680 H   0  0  0  0  0  0  0  0  0  0  0  0
   35.7860   30.4920   29.9590 H   0  0  0  0  0  0  0  0  0  0  0  0
   34.9200   31.4970   31.9810 H   0  0  0  0  0  0  0  0  0  0  0  0
   33.7990   30.3270   34.6040 C   0  0  0  0  0  0  0  0  0  0  0  0
   35.1600   30.5460   34.4440 C   0  0  0  0  0  0  0  0  0  0  0  0
   35.9090   31.2790   35.3370 C   0  0  0  0  0  0  0  0  0  0  0  0
   36.9580   31.3810   35.1090 H   0  0  0  0  0  0  0  0  0  0  0  0
   35.3230   31.8370   36.4480 C   0  0  0  0  0  0  0  0  0  0  0  0
   35.9610   32.4010   37.1120 H   0  0  0  0  0  0  0  0  0  0  0  0
   33.9720   31.6400   36.6360 C   0  0  0  0  0  3  0  0  0  0  0  0
   33.2280   30.9070   35.7430 C   0  0  0  0  0  3  0  0  0  0  0  0
   33.5380   28.3830   32.9200 H   0  0  0  0  0  0  0  0  0  0  0  0
   32.8100   29.4110   33.5070 S   0  0  0  0  0  0  0  0  0  0  0  0
   32.1030   30.2300   32.4920 O   0  0  0  0  0  0  0  0  0  0  0  0
   31.7490   28.7110   34.3200 O   0  0  0  0  0  0  0  0  0  0  0  0
   37.5660   26.9780   32.3390 O   0  0  0  0  0  0  0  0  0  0  0  0
   35.8010   25.1810   31.7780 O   0  0  0  0  0  0  0  0  0  0  0  0
   37.2630   25.4390   31.7420 P   0  0  1  0  0  0  0  0  0  0  0  0
   37.8130   25.4870   30.1250 O   0  0  0  0  0  0  0  0  0  0  0  0
   38.6120   26.0520   30.0250 H   0  0  0  0  0  0  0  0  0  0  0  0
   38.1820   24.3150   32.6180 O   0  0  0  0  0  0  0  0  0  0  0  0
   38.1000   24.1850   36.3040 C   0  0  0  0  0  0  0  0  0  0  0  0
   38.2340   24.7710   35.0420 C   0  0  0  0  0  0  0  0  0  0  0  0
   38.0950   23.9680   33.9220 C   0  0  0  0  0  0  0  0  0  0  0  0
   37.8340   22.6410   34.1010 N   0  0  0  0  0  0  0  0  0  0  0  0
   37.7110   22.1040   35.3400 C   0  0  0  0  0  0  0  0  0  0  0  0
   37.8470   22.8860   36.4380 N   0  0  0  0  0  0  0  0  0  0  0  0
   38.2100   24.8150   37.1540 H   0  0  0  0  0  0  0  0  0  0  0  0
   38.4350   25.7930   34.8420 H   0  0  0  0  0  0  0  0  0  0  0  0
   37.5030   21.0400   35.4790 H   0  0  0  0  0  0  0  0  0  0  0  0
  2  1  1  0  0  0  0
  3 23  1  0  0  0  0
  3  2  2  0  0  0  0
  4  3  1  0  0  0  0
  5  4  2  0  0  0  0
  5  6  1  0  0  0  0
  6  7  2  0  0  0  0
  7  2  1  0  0  0  0
  7 12  1  0  0  0  0
  8  4  1  0  0  0  0
  9  5  1  0  0  0  0
 10  6  1  0  0  0  0
 11 18  1  0  0  0  0
 12 11  2  0  0  0  0
 12 13  1  0  0  0  0
 13 15  2  0  0  0  0
 14 13  1  0  0  0  0
 15 17  1  0  0  0  0
 15 16  1  0  0  0  0
 18 17  2  0  0  0  0
 19 20  1  0  0  0  0
 20 22  2  0  0  0  0
 20 11  1  0  0  0  0
 21 20  2  0  0  0  0
 25 24  2  1  0  0  0
 25 23  1  0  0  0  0
 25 28  1  0  0  0  0
 26 25  1  0  0  0  0
 27 26  1  0  0  0  0
 28 31  1  0  0  0  0
 29 34  1  0  0  0  0
 29 35  1  0  0  0  0
 30 29  2  0  0  0  0
 31 32  2  0  0  0  0
 31 30  1  0  0  0  0
 32 33  1  0  0  0  0
 33 37  1  0  0  0  0
 33 34  2  0  0  0  0
 36 30  1  0  0  0  0
M  END
>  <minimizedAffinity>
-5.89883661

$$$$

 OpenBabel03272508133D

 37 39  0  0  0  0  0  0  0  0999 V2000
   36.2750   28.0760   34.6930 Cl  0  0  0  0  0  0  0  0  0  0  0  0
   36.2060   28.9940   33.1810 C   0  0  0  0  0  0  0  0  0  0  0  0
   36.6860   28.5250   31.9640 C   0  0  0  0  0  0  0  0  0  0  0  0
   36.5680   29.3500   30.8510 C   0  0  0  0  0  0  0  0  0  0  0  0
   35.9910   30.5960   30.9630 C   0  0  0  0  0  0  0  0  0  0  0  0
   35.5160   31.0690   32.1490 C   0  0  0  0  0  0  0  0  0  0  0  0
   35.6290   30.2630   33.2460 C   0  0  0  0  0  0  0  0  0  0  0  0
   36.9590   28.9200   29.9590 H   0  0  0  0  0  0  0  0  0  0  0  0
   35.9160   31.2120   30.0770 H   0  0  0  0  0  0  0  0  0  0  0  0
   35.0710   32.0590   32.1780 H   0  0  0  0  0  0  0  0  0  0  0  0
   33.7680   30.4950   34.7150 C   0  0  0  0  0  0  0  0  0  0  0  0
   35.1050   30.8040   34.5130 C   0  0  0  0  0  0  0  0  0  0  0  0
   35.8470   31.5370   35.4120 C   0  0  0  0  0  0  0  0  0  0  0  0
   36.8770   31.7130   35.1480 H   0  0  0  0  0  0  0  0  0  0  0  0
   35.2780   32.0040   36.5720 C   0  0  0  0  0  0  0  0  0  0  0  0
   35.9090   32.5730   37.2380 H   0  0  0  0  0  0  0  0  0  0  0  0
   33.9500   31.7160   36.8040 C   0  0  0  0  0  3  0  0  0  0  0  0
   33.2130   30.9840   35.9040 C   0  0  0  0  0  3  0  0  0  0  0  0
   33.5230   28.5480   33.0330 H   0  0  0  0  0  0  0  0  0  0  0  0
   32.7870   29.5750   33.6130 S   0  0  0  0  0  0  0  0  0  0  0  0
   32.0860   30.3910   32.5920 O   0  0  0  0  0  0  0  0  0  0  0  0
   31.7230   28.8740   34.4200 O   0  0  0  0  0  0  0  0  0  0  0  0
   37.2200   27.2720   32.0640 O   0  0  0  0  0  0  0  0  0  0  0  0
   35.4000   26.0120   30.7380 O   0  0  0  0  0  0  0  0  0  0  0  0
   36.7630   25.8470   31.3030 P   0  0  1  0  0  0  0  0  0  0  0  0
   37.9020   25.6470   30.0450 O   0  0  0  0  0  0  0  0  0  0  0  0
   38.7980   25.9580   30.3050 H   0  0  0  0  0  0  0  0  0  0  0  0
   36.9040   24.5640   32.4020 O   0  0  0  0  0  0  0  0  0  0  0  0
   35.7180   21.2580   31.2700 C   0  0  0  0  0  0  0  0  0  0  0  0
   35.8390   22.6500   31.2640 C   0  0  0  0  0  0  0  0  0  0  0  0
   36.6420   23.2490   32.2200 C   0  0  0  0  0  0  0  0  0  0  0  0
   37.2790   22.4530   33.1260 N   0  0  0  0  0  0  0  0  0  0  0  0
   37.1400   21.1040   33.1050 C   0  0  0  0  0  0  0  0  0  0  0  0
   36.3550   20.5150   32.1720 N   0  0  0  0  0  0  0  0  0  0  0  0
   35.0970   20.8140   30.5300 H   0  0  0  0  0  0  0  0  0  0  0  0
   35.3700   23.3180   30.5870 H   0  0  0  0  0  0  0  0  0  0  0  0
   37.6510   20.4690   33.8330 H   0  0  0  0  0  0  0  0  0  0  0  0
  2  7  1  0  0  0  0
  2  1  1  0  0  0  0
  3 23  1  0  0  0  0
  3  2  2  0  0  0  0
  4  5  2  0  0  0  0
  4  3  1  0  0  0  0
  5  6  1  0  0  0  0
  6 10  1  0  0  0  0
  6  7  2  0  0  0  0
  7 12  1  0  0  0  0
  8  4  1  0  0  0  0
  9  5  1  0  0  0  0
 11 18  1  0  0  0  0
 12 11  2  0  0  0  0
 12 13  1  0  0  0  0
 13 15  2  0  0  0  0
 14 13  1  0  0  0  0
 15 17  1  0  0  0  0
 15 16  1  0  0  0  0
 18 17  2  0  0  0  0
 19 20  1  0  0  0  0
 20 22  2  0  0  0  0
 20 11  1  0  0  0  0
 21 20  2  0  0  0  0
 25 24  2  6  0  0  0
 25 23  1  0  0  0  0
 25 28  1  0  0  0  0
 26 27  1  0  0  0  0
 26 25  1  0  0  0  0
 29 34  1  0  0  0  0
 30 29  2  0  0  0  0
 30 31  1  0  0  0  0
 31 28  1  0  0  0  0
 31 32  2  0  0  0  0
 33 32  1  0  0  0  0
 33 37  1  0  0  0  0
 34 33  2  0  0  0  0
 35 29  1  0  0  0  0
 36 30  1  0  0  0  0
M  END
>  <minimizedAffinity>
-5.86875725

$$$$

 OpenBabel03272508133D

 37 39  0  0  0  0  0  0  0  0999 V2000
   38.1990   23.1420   33.6490 Cl  0  0  0  0  0  0  0  0  0  0  0  0
   38.2690   24.8390   34.1470 C   0  0  0  0  0  0  0  0  0  0  0  0
   37.4830   25.8450   33.5970 C   0  0  0  0  0  0  0  0  0  0  0  0
   37.6380   27.1390   34.0820 C   0  0  0  0  0  0  0  0  0  0  0  0
   38.5490   27.4050   35.0800 C   0  0  0  0  0  0  0  0  0  0  0  0
   39.3270   26.4310   35.6300 C   0  0  0  0  0  0  0  0  0  0  0  0
   39.1790   25.1570   35.1570 C   0  0  0  0  0  0  0  0  0  0  0  0
   37.0020   27.8490   33.6110 H   0  0  0  0  0  0  0  0  0  0  0  0
   38.6450   28.4230   35.4340 H   0  0  0  0  0  0  0  0  0  0  0  0
   40.0280   26.6990   36.4140 H   0  0  0  0  0  0  0  0  0  0  0  0
   39.4130   23.4760   36.8290 C   0  0  0  0  0  0  0  0  0  0  0  0
   40.0340   24.1260   35.7710 C   0  0  0  0  0  0  0  0  0  0  0  0
   41.3110   23.8260   35.3560 C   0  0  0  0  0  0  0  0  0  0  0  0
   41.6880   24.3970   34.5230 H   0  0  0  0  0  0  0  0  0  0  0  0
   42.0400   22.8470   35.9870 C   0  0  0  0  0  0  0  0  0  0  0  0
   43.0360   22.6550   35.6170 H   0  0  0  0  0  0  0  0  0  0  0  0
   41.4540   22.1820   37.0430 C   0  0  0  0  0  3  0  0  0  0  0  0
   40.1780   22.4840   37.4550 C   0  0  0  0  0  3  0  0  0  0  0  0
   37.1990   24.7920   36.6080 H   0  0  0  0  0  0  0  0  0  0  0  0
   37.8050   23.8180   37.3930 S   0  0  0  0  0  0  0  0  0  0  0  0
   37.7210   24.1470   38.8370 O   0  0  0  0  0  0  0  0  0  0  0  0
   36.9690   22.5810   37.1780 O   0  0  0  0  0  0  0  0  0  0  0  0
   36.6460   25.3770   32.6240 O   0  0  0  0  0  0  0  0  0  0  0  0
   37.3090   24.0940   30.4850 O   0  0  0  0  0  0  0  0  0  0  0  0
   36.8170   25.4140   30.9540 P   0  0  1  0  0  0  0  0  0  0  0  0
   35.2380   25.6970   30.3660 O   0  0  0  0  0  0  0  0  0  0  0  0
   34.7260   26.2950   30.9570 H   0  0  0  0  0  0  0  0  0  0  0  0
   37.8190   26.7130   30.5290 O   0  0  0  0  0  0  0  0  0  0  0  0
   37.5930   30.1990   29.3380 C   0  0  0  0  0  0  0  0  0  0  0  0
   38.1180   28.9070   29.4380 C   0  0  0  0  0  0  0  0  0  0  0  0
   37.4910   28.0010   30.2790 C   0  0  0  0  0  0  0  0  0  0  0  0
   36.3890   28.4110   30.9710 N   0  0  0  0  0  0  0  0  0  0  0  0
   35.9070   29.6730   30.8510 C   0  0  0  0  0  0  0  0  0  0  0  0
   36.5170   30.5610   30.0310 N   0  0  0  0  0  0  0  0  0  0  0  0
   38.0860   30.8810   28.6880 H   0  0  0  0  0  0  0  0  0  0  0  0
   38.9680   28.5320   28.9260 H   0  0  0  0  0  0  0  0  0  0  0  0
   35.0240   29.9980   31.4090 H   0  0  0  0  0  0  0  0  0  0  0  0
  1  2  1  0  0  0  0
  2  7  1  0  0  0  0
  3  4  1  0  0  0  0
  3  2  2  0  0  0  0
  4  5  2  0  0  0  0
  5  9  1  0  0  0  0
  5  6  1  0  0  0  0
  6 10  1  0  0  0  0
  7  6  2  0  0  0  0
  7 12  1  0  0  0  0
  8  4  1  0  0  0  0
 11 20  1  0  0  0  0
 11 18  1  0  0  0  0
 12 11  2  0  0  0  0
 13 12  1  0  0  0  0
 13 15  2  0  0  0  0
 14 13  1  0  0  0  0
 15 17  1  0  0  0  0
 16 15  1  0  0  0  0
 17 18  2  0  0  0  0
 19 20  1  0  0  0  0
 20 21  2  0  0  0  0
 22 20  2  0  0  0  0
 23  3  1  0  0  0  0
 25 24  2  6  0  0  0
 25 23  1  0  0  0  0
 26 25  1  0  0  0  0
 26 27  1  0  0  0  0
 28 25  1  0  0  0  0
 29 30  2  0  0  0  0
 29 34  1  0  0  0  0
 30 31  1  0  0  0  0
 31 28  1  0  0  0  0
 31 32  2  0  0  0  0
 33 32  1  0  0  0  0
 33 37  1  0  0  0  0
 34 33  2  0  0  0  0
 35 29  1  0  0  0  0
 36 30  1  0  0  0  0
M  END
>  <minimizedAffinity>
-5.85323

$$$$

 OpenBabel03272508133D

 37 39  0  0  0  0  0  0  0  0999 V2000
   38.3570   23.2690   33.4850 Cl  0  0  0  0  0  0  0  0  0  0  0  0
   38.2240   24.8990   34.1620 C   0  0  0  0  0  0  0  0  0  0  0  0
   37.3420   25.8670   33.6950 C   0  0  0  0  0  0  0  0  0  0  0  0
   37.3410   27.1090   34.3190 C   0  0  0  0  0  0  0  0  0  0  0  0
   38.1950   27.3640   35.3700 C   0  0  0  0  0  0  0  0  0  0  0  0
   39.0640   26.4270   35.8390 C   0  0  0  0  0  0  0  0  0  0  0  0
   39.0710   25.2030   35.2290 C   0  0  0  0  0  0  0  0  0  0  0  0
   36.6390   27.7930   33.9040 H   0  0  0  0  0  0  0  0  0  0  0  0
   38.1680   28.3420   35.8320 H   0  0  0  0  0  0  0  0  0  0  0  0
   39.7140   26.6830   36.6700 H   0  0  0  0  0  0  0  0  0  0  0  0
   39.4520   23.3780   36.7120 C   0  0  0  0  0  0  0  0  0  0  0  0
   40.0220   24.2120   35.7600 C   0  0  0  0  0  0  0  0  0  0  0  0
   41.3380   24.1070   35.3670 C   0  0  0  0  0  0  0  0  0  0  0  0
   41.6690   24.8100   34.6200 H   0  0  0  0  0  0  0  0  0  0  0  0
   42.1570   23.1500   35.9160 C   0  0  0  0  0  0  0  0  0  0  0  0
   43.1790   23.1170   35.5680 H   0  0  0  0  0  0  0  0  0  0  0  0
   41.6230   22.3060   36.8650 C   0  0  0  0  0  3  0  0  0  0  0  0
   40.3100   22.4130   37.2550 C   0  0  0  0  0  3  0  0  0  0  0  0
   37.2000   24.6430   36.8050 H   0  0  0  0  0  0  0  0  0  0  0  0
   37.8000   23.4680   37.2430 S   0  0  0  0  0  0  0  0  0  0  0  0
   37.6150   23.2700   38.7020 O   0  0  0  0  0  0  0  0  0  0  0  0
   37.0330   22.3680   36.5530 O   0  0  0  0  0  0  0  0  0  0  0  0
   36.5850   25.4190   32.6500 O   0  0  0  0  0  0  0  0  0  0  0  0
   37.0090   24.0630   30.4950 O   0  0  0  0  0  0  0  0  0  0  0  0
   36.9030   25.4550   31.0020 P   0  0  1  0  0  0  0  0  0  0  0  0
   35.5410   26.2280   30.3180 O   0  0  0  0  0  0  0  0  0  0  0  0
   35.1860   26.9350   30.9030 H   0  0  0  0  0  0  0  0  0  0  0  0
   38.2850   26.3970   30.7260 O   0  0  0  0  0  0  0  0  0  0  0  0
   41.5340   26.8270   32.4200 C   0  0  0  0  0  0  0  0  0  0  0  0
   40.2560   27.1860   31.9840 C   0  0  0  0  0  0  0  0  0  0  0  0
   39.5270   26.2680   31.2450 C   0  0  0  0  0  0  0  0  0  0  0  0
   40.0900   25.0550   30.9760 N   0  0  0  0  0  0  0  0  0  0  0  0
   41.3340   24.7390   31.4150 C   0  0  0  0  0  0  0  0  0  0  0  0
   42.0490   25.6330   32.1370 N   0  0  0  0  0  0  0  0  0  0  0  0
   42.0810   27.5430   32.9860 H   0  0  0  0  0  0  0  0  0  0  0  0
   39.7680   28.1100   32.1620 H   0  0  0  0  0  0  0  0  0  0  0  0
   41.7820   23.7660   31.1970 H   0  0  0  0  0  0  0  0  0  0  0  0
  1  2  1  0  0  0  0
  2  7  1  0  0  0  0
  3  2  2  0  0  0  0
  3  4  1  0  0  0  0
  4  5  2  0  0  0  0
  5  9  1  0  0  0  0
  5  6  1  0  0  0  0
  6 10  1  0  0  0  0
  7 12  1  0  0  0  0
  7  6  2  0  0  0  0
  8  4  1  0  0  0  0
 11 20  1  0  0  0  0
 11 18  1  0  0  0  0
 12 11  2  0  0  0  0
 13 12  1  0  0  0  0
 13 15  2  0  0  0  0
 14 13  1  0  0  0  0
 15 17  1  0  0  0  0
 16 15  1  0  0  0  0
 17 18  2  0  0  0  0
 19 20  1  0  0  0  0
 20 21  2  0  0  0  0
 22 20  2  0  0  0  0
 23  3  1  0  0  0  0
 25 24  2  6  0  0  0
 25 23  1  0  0  0  0
 26 27  1  0  0  0  0
 26 25  1  0  0  0  0
 28 25  1  0  0  0  0
 28 31  1  0  0  0  0
 29 35  1  0  0  0  0
 30 36  1  0  0  0  0
 30 29  2  0  0  0  0
 31 30  1  0  0  0  0
 32 31  2  0  0  0  0
 32 33  1  0  0  0  0
 33 34  2  0  0  0  0
 34 29  1  0  0  0  0
 37 33  1  0  0  0  0
M  END
>  <minimizedAffinity>
-5.57993889

$$$$

 OpenBabel03272508133D

 37 39  0  0  0  0  0  0  0  0999 V2000
   39.2720   27.0240   31.7800 Cl  0  0  0  0  0  0  0  0  0  0  0  0
   37.7880   26.0820   31.5740 C   0  0  0  0  0  0  0  0  0  0  0  0
   37.6910   24.7180   31.8200 C   0  0  0  0  0  0  0  0  0  0  0  0
   36.4630   24.0990   31.6180 C   0  0  0  0  0  0  0  0  0  0  0  0
   35.3770   24.8290   31.1850 C   0  0  0  0  0  0  0  0  0  0  0  0
   35.4550   26.1670   30.9400 C   0  0  0  0  0  0  0  0  0  0  0  0
   36.6610   26.7800   31.1370 C   0  0  0  0  0  0  0  0  0  0  0  0
   36.4710   23.0560   31.8270 H   0  0  0  0  0  0  0  0  0  0  0  0
   34.4360   24.3160   31.0370 H   0  0  0  0  0  0  0  0  0  0  0  0
   34.5670   26.6910   30.6000 H   0  0  0  0  0  0  0  0  0  0  0  0
   36.3220   28.9920   31.9530 C   0  0  0  0  0  0  0  0  0  0  0  0
   36.7120   28.2260   30.8630 C   0  0  0  0  0  0  0  0  0  0  0  0
   37.1040   28.7780   29.6640 C   0  0  0  0  0  0  0  0  0  0  0  0
   37.3870   28.0840   28.8900 H   0  0  0  0  0  0  0  0  0  0  0  0
   37.1230   30.1420   29.4950 C   0  0  0  0  0  0  0  0  0  0  0  0
   37.4380   30.5160   28.5330 H   0  0  0  0  0  0  0  0  0  0  0  0
   36.7390   30.9320   30.5570 C   0  0  0  0  0  3  0  0  0  0  0  0
   36.3490   30.3780   31.7530 C   0  0  0  0  0  3  0  0  0  0  0  0
   35.3000   27.0650   33.3400 H   0  0  0  0  0  0  0  0  0  0  0  0
   35.8190   28.3460   33.4860 S   0  0  0  0  0  0  0  0  0  0  0  0
   34.8990   29.2260   34.2480 O   0  0  0  0  0  0  0  0  0  0  0  0
   37.0520   28.1630   34.3350 O   0  0  0  0  0  0  0  0  0  0  0  0
   38.8750   24.1800   32.2400 O   0  0  0  0  0  0  0  0  0  0  0  0
   39.1620   21.7650   33.1040 O   0  0  0  0  0  0  0  0  0  0  0  0
   39.1960   23.1810   33.5500 P   0  0  1  0  0  0  0  0  0  0  0  0
   40.7770   23.6060   34.0390 O   0  0  0  0  0  0  0  0  0  0  0  0
   40.9510   24.5680   33.9280 H   0  0  0  0  0  0  0  0  0  0  0  0
   38.1040   23.5370   34.7970 O   0  0  0  0  0  0  0  0  0  0  0  0
   37.9810   24.1250   38.4380 C   0  0  0  0  0  0  0  0  0  0  0  0
   37.5690   24.2250   37.1060 C   0  0  0  0  0  0  0  0  0  0  0  0
   38.3130   23.5780   36.1330 C   0  0  0  0  0  0  0  0  0  0  0  0
   39.4150   22.8730   36.5180 N   0  0  0  0  0  0  0  0  0  0  0  0
   39.7880   22.7970   37.8200 C   0  0  0  0  0  0  0  0  0  0  0  0
   39.0640   23.4280   38.7740 N   0  0  0  0  0  0  0  0  0  0  0  0
   37.3990   24.6280   39.1720 H   0  0  0  0  0  0  0  0  0  0  0  0
   36.7240   24.7560   36.7480 H   0  0  0  0  0  0  0  0  0  0  0  0
   40.6730   22.2320   38.1240 H   0  0  0  0  0  0  0  0  0  0  0  0
  2  1  1  0  0  0  0
  2  3  1  0  0  0  0
  3 23  1  0  0  0  0
  4  3  2  0  0  0  0
  4  8  1  0  0  0  0
  5  4  1  0  0  0  0
  6  7  1  0  0  0  0
  6  5  2  0  0  0  0
  7  2  2  0  0  0  0
  9  5  1  0  0  0  0
 10  6  1  0  0  0  0
 11 20  1  0  0  0  0
 12  7  1  0  0  0  0
 12 11  2  0  0  0  0
 13 12  1  0  0  0  0
 14 13  1  0  0  0  0
 15 13  2  0  0  0  0
 15 17  1  0  0  0  0
 16 15  1  0  0  0  0
 17 18  2  0  0  0  0
 18 11  1  0  0  0  0
 19 20  1  0  0  0  0
 20 21  2  0  0  0  0
 20 22  2  0  0  0  0
 23 25  1  0  0  0  0
 25 24  2  6  0  0  0
 25 26  1  0  0  0  0
 25 28  1  0  0  0  0
 27 26  1  0  0  0  0
 28 31  1  0  0  0  0
 29 34  1  0  0  0  0
 29 35  1  0  0  0  0
 30 29  2  0  0  0  0
 31 32  2  0  0  0  0
 31 30  1  0  0  0  0
 32 33  1  0  0  0  0
 33 37  1  0  0  0  0
 33 34  2  0  0  0  0
 36 30  1  0  0  0  0
M  END
>  <minimizedAffinity>
-5.55856752

$$$$

 OpenBabel03272508133D

 37 39  0  0  0  0  0  0  0  0999 V2000
   36.9790   24.7840   32.5010 Cl  0  0  0  0  0  0  0  0  0  0  0  0
   37.5940   25.6370   33.9250 C   0  0  0  0  0  0  0  0  0  0  0  0
   37.9730   25.0090   35.1050 C   0  0  0  0  0  0  0  0  0  0  0  0
   38.4400   25.8010   36.1490 C   0  0  0  0  0  0  0  0  0  0  0  0
   38.5210   27.1680   36.0050 C   0  0  0  0  0  0  0  0  0  0  0  0
   38.1530   27.7990   34.8550 C   0  0  0  0  0  0  0  0  0  0  0  0
   37.6930   27.0260   33.8260 C   0  0  0  0  0  0  0  0  0  0  0  0
   38.7090   25.2460   37.0160 H   0  0  0  0  0  0  0  0  0  0  0  0
   38.8890   27.7540   36.8380 H   0  0  0  0  0  0  0  0  0  0  0  0
   38.2380   28.8800   34.7990 H   0  0  0  0  0  0  0  0  0  0  0  0
   38.3130   27.7510   31.6430 C   0  0  0  0  0  0  0  0  0  0  0  0
   37.3040   27.7370   32.5960 C   0  0  0  0  0  0  0  0  0  0  0  0
   36.0780   28.3300   32.3940 C   0  0  0  0  0  0  0  0  0  0  0  0
   35.3720   28.2540   33.2060 H   0  0  0  0  0  0  0  0  0  0  0  0
   35.7980   28.9740   31.2130 C   0  0  0  0  0  0  0  0  0  0  0  0
   34.8200   29.4200   31.1120 H   0  0  0  0  0  0  0  0  0  0  0  0
   36.7790   29.0070   30.2450 C   0  0  0  0  0  3  0  0  0  0  0  0
   38.0020   28.4140   30.4500 C   0  0  0  0  0  3  0  0  0  0  0  0
   40.0810   26.6460   33.1710 H   0  0  0  0  0  0  0  0  0  0  0  0
   39.8770   27.0190   31.8480 S   0  0  0  0  0  0  0  0  0  0  0  0
   41.0040   27.8310   31.3270 O   0  0  0  0  0  0  0  0  0  0  0  0
   39.8810   25.7210   31.0800 O   0  0  0  0  0  0  0  0  0  0  0  0
   37.8170   23.6530   35.0460 O   0  0  0  0  0  0  0  0  0  0  0  0
   40.3140   23.0590   34.7830 O   0  0  0  0  0  0  0  0  0  0  0  0
   38.9770   22.4420   34.9700 P   0  0  1  0  0  0  0  0  0  0  0  0
   38.8930   21.6700   36.4920 O   0  0  0  0  0  0  0  0  0  0  0  0
   37.9720   21.6340   36.8380 H   0  0  0  0  0  0  0  0  0  0  0  0
   38.5490   21.3420   33.7540 O   0  0  0  0  0  0  0  0  0  0  0  0
   35.0420   20.8550   32.7150 C   0  0  0  0  0  0  0  0  0  0  0  0
   36.1170   20.9460   33.6030 C   0  0  0  0  0  0  0  0  0  0  0  0
   37.3770   21.2110   33.0910 C   0  0  0  0  0  0  0  0  0  0  0  0
   37.5110   21.3720   31.7430 N   0  0  0  0  0  0  0  0  0  0  0  0
   36.4460   21.2760   30.9090 C   0  0  0  0  0  0  0  0  0  0  0  0
   35.2130   21.0170   31.4060 N   0  0  0  0  0  0  0  0  0  0  0  0
   34.0820   20.6510   33.1250 H   0  0  0  0  0  0  0  0  0  0  0  0
   36.0740   20.8310   34.6570 H   0  0  0  0  0  0  0  0  0  0  0  0
   36.5570   21.4050   29.8290 H   0  0  0  0  0  0  0  0  0  0  0  0
  1  2  1  0  0  0  0
  2  3  1  0  0  0  0
  3  4  2  0  0  0  0
  4  8  1  0  0  0  0
  5  4  1  0  0  0  0
  5  9  1  0  0  0  0
  6  5  2  0  0  0  0
  7  2  2  0  0  0  0
  7  6  1  0  0  0  0
 10  6  1  0  0  0  0
 11 20  1  0  0  0  0
 11 12  1  0  0  0  0
 12  7  1  0  0  0  0
 13 12  2  0  0  0  0
 13 14  1  0  0  0  0
 15 13  1  0  0  0  0
 16 15  1  0  0  0  0
 17 18  1  0  0  0  0
 17 15  2  0  0  0  0
 18 11  2  0  0  0  0
 20 19  1  0  0  0  0
 21 20  2  0  0  0  0
 22 20  2  0  0  0  0
 23  3  1  0  0  0  0
 25 24  2  6  0  0  0
 25 23  1  0  0  0  0
 25 26  1  0  0  0  0
 26 27  1  0  0  0  0
 28 25  1  0  0  0  0
 29 35  1  0  0  0  0
 29 30  1  0  0  0  0
 30 36  1  0  0  0  0
 31 30  2  0  0  0  0
 31 28  1  0  0  0  0
 32 31  1  0  0  0  0
 33 34  1  0  0  0  0
 33 32  2  0  0  0  0
 34 29  2  0  0  0  0
 37 33  1  0  0  0  0
M  END
>  <minimizedAffinity>
-5.49187469

$$$$

 OpenBabel03272508133D

 37 39  0  0  0  0  0  0  0  0999 V2000
   35.9350   28.9800   34.5090 Cl  0  0  0  0  0  0  0  0  0  0  0  0
   35.4400   30.0810   33.2140 C   0  0  0  0  0  0  0  0  0  0  0  0
   35.9420   30.0350   31.9190 C   0  0  0  0  0  0  0  0  0  0  0  0
   35.4660   30.9610   30.9970 C   0  0  0  0  0  0  0  0  0  0  0  0
   34.5220   31.8930   31.3690 C   0  0  0  0  0  0  0  0  0  0  0  0
   34.0200   31.9510   32.6340 C   0  0  0  0  0  0  0  0  0  0  0  0
   34.4850   31.0430   33.5440 C   0  0  0  0  0  0  0  0  0  0  0  0
   35.8990   30.8600   30.0310 H   0  0  0  0  0  0  0  0  0  0  0  0
   34.1740   32.5990   30.6260 H   0  0  0  0  0  0  0  0  0  0  0  0
   33.2780   32.7070   32.8690 H   0  0  0  0  0  0  0  0  0  0  0  0
   32.7630   30.3830   35.0530 C   0  0  0  0  0  0  0  0  0  0  0  0
   33.9220   31.1320   34.9030 C   0  0  0  0  0  0  0  0  0  0  0  0
   34.4710   31.8710   35.9260 C   0  0  0  0  0  0  0  0  0  0  0  0
   35.3740   32.4120   35.6920 H   0  0  0  0  0  0  0  0  0  0  0  0
   33.8790   31.8970   37.1660 C   0  0  0  0  0  0  0  0  0  0  0  0
   34.3560   32.4950   37.9290 H   0  0  0  0  0  0  0  0  0  0  0  0
   32.7250   31.1650   37.3490 C   0  0  0  0  0  3  0  0  0  0  0  0
   32.1800   30.4280   36.3250 C   0  0  0  0  0  3  0  0  0  0  0  0
   32.9950   28.8020   33.0210 H   0  0  0  0  0  0  0  0  0  0  0  0
   32.0290   29.4350   33.7940 S   0  0  0  0  0  0  0  0  0  0  0  0
   31.0570   30.1790   32.9560 O   0  0  0  0  0  0  0  0  0  0  0  0
   31.2690   28.3100   34.4500 O   0  0  0  0  0  0  0  0  0  0  0  0
   36.8660   29.0420   31.7550 O   0  0  0  0  0  0  0  0  0  0  0  0
   35.3740   26.9480   31.5380 O   0  0  0  0  0  0  0  0  0  0  0  0
   36.6840   27.5030   31.1120 P   0  0  1  0  0  0  0  0  0  0  0  0
   36.7000   27.7390   29.4200 O   0  0  0  0  0  0  0  0  0  0  0  0
   37.3140   28.4600   29.1530 H   0  0  0  0  0  0  0  0  0  0  0  0
   38.0140   26.5530   31.5620 O   0  0  0  0  0  0  0  0  0  0  0  0
   39.8690   26.6240   34.7510 C   0  0  0  0  0  0  0  0  0  0  0  0
   39.4910   27.0520   33.4750 C   0  0  0  0  0  0  0  0  0  0  0  0
   38.5270   26.3270   32.7930 C   0  0  0  0  0  0  0  0  0  0  0  0
   37.9890   25.2290   33.3970 N   0  0  0  0  0  0  0  0  0  0  0  0
   38.3780   24.8420   34.6370 C   0  0  0  0  0  0  0  0  0  0  0  0
   39.3210   25.5470   35.3070 N   0  0  0  0  0  0  0  0  0  0  0  0
   40.6100   27.1910   35.2610 H   0  0  0  0  0  0  0  0  0  0  0  0
   39.8730   27.8940   32.9560 H   0  0  0  0  0  0  0  0  0  0  0  0
   37.9450   23.9610   35.1180 H   0  0  0  0  0  0  0  0  0  0  0  0
  2  7  1  0  0  0  0
  2  1  1  0  0  0  0
  3  2  2  0  0  0  0
  4  5  2  0  0  0  0
  4  3  1  0  0  0  0
  5  6  1  0  0  0  0
  6 10  1  0  0  0  0
  6  7  2  0  0  0  0
  7 12  1  0  0  0  0
  8  4  1  0  0  0  0
  9  5  1  0  0  0  0
 11 18  1  0  0  0  0
 12 11  2  0  0  0  0
 12 13  1  0  0  0  0
 13 15  2  0  0  0  0
 14 13  1  0  0  0  0
 15 17  1  0  0  0  0
 15 16  1  0  0  0  0
 18 17  2  0  0  0  0
 19 20  1  0  0  0  0
 20 22  2  0  0  0  0
 20 11  1  0  0  0  0
 21 20  2  0  0  0  0
 23  3  1  0  0  0  0
 25 24  2  1  0  0  0
 25 28  1  0  0  0  0
 25 23  1  0  0  0  0
 26 25  1  0  0  0  0
 27 26  1  0  0  0  0
 28 31  1  0  0  0  0
 29 35  1  0  0  0  0
 29 34  1  0  0  0  0
 30 29  2  0  0  0  0
 31 32  2  0  0  0  0
 31 30  1  0  0  0  0
 32 33  1  0  0  0  0
 33 37  1  0  0  0  0
 33 34  2  0  0  0  0
 36 30  1  0  0  0  0
M  END
>  <minimizedAffinity>
-5.47301579

$$$$

 OpenBabel03272508133D

 37 39  0  0  0  0  0  0  0  0999 V2000
   35.8980   25.4600   31.5050 Cl  0  0  0  0  0  0  0  0  0  0  0  0
   37.3610   25.6100   32.4890 C   0  0  0  0  0  0  0  0  0  0  0  0
   38.0640   24.5290   33.0080 C   0  0  0  0  0  0  0  0  0  0  0  0
   39.2000   24.7880   33.7670 C   0  0  0  0  0  0  0  0  0  0  0  0
   39.6080   26.0850   33.9910 C   0  0  0  0  0  0  0  0  0  0  0  0
   38.9310   27.1540   33.4890 C   0  0  0  0  0  0  0  0  0  0  0  0
   37.8130   26.9060   32.7430 C   0  0  0  0  0  0  0  0  0  0  0  0
   39.6800   23.9110   34.1280 H   0  0  0  0  0  0  0  0  0  0  0  0
   40.4970   26.2510   34.5860 H   0  0  0  0  0  0  0  0  0  0  0  0
   39.2990   28.1540   33.6980 H   0  0  0  0  0  0  0  0  0  0  0  0
   37.5550   28.4620   30.9580 C   0  0  0  0  0  0  0  0  0  0  0  0
   37.1030   28.0830   32.2140 C   0  0  0  0  0  0  0  0  0  0  0  0
   36.0980   28.7490   32.8790 C   0  0  0  0  0  0  0  0  0  0  0  0
   35.8310   28.3630   33.8490 H   0  0  0  0  0  0  0  0  0  0  0  0
   35.4880   29.8420   32.3100 C   0  0  0  0  0  0  0  0  0  0  0  0
   34.7060   30.3230   32.8780 H   0  0  0  0  0  0  0  0  0  0  0  0
   35.9130   30.2450   31.0620 C   0  0  0  0  0  3  0  0  0  0  0  0
   36.9170   29.5780   30.4020 C   0  0  0  0  0  3  0  0  0  0  0  0
   38.6900   26.2760   30.1730 H   0  0  0  0  0  0  0  0  0  0  0  0
   38.8190   27.6570   30.0770 S   0  0  0  0  0  0  0  0  0  0  0  0
   40.1890   28.1050   30.4290 O   0  0  0  0  0  0  0  0  0  0  0  0
   38.6240   27.9580   28.6120 O   0  0  0  0  0  0  0  0  0  0  0  0
   37.4970   23.3320   32.6740 O   0  0  0  0  0  0  0  0  0  0  0  0
   36.9060   20.8200   32.6100 O   0  0  0  0  0  0  0  0  0  0  0  0
   37.6830   21.8220   33.3830 P   0  0  1  0  0  0  0  0  0  0  0  0
   39.3550   21.4920   33.2600 O   0  0  0  0  0  0  0  0  0  0  0  0
   39.9000   22.3040   33.3660 H   0  0  0  0  0  0  0  0  0  0  0  0
   37.2450   21.9200   35.0180 O   0  0  0  0  0  0  0  0  0  0  0  0
   38.4860   23.4630   38.1320 C   0  0  0  0  0  0  0  0  0  0  0  0
   37.5500   23.1250   37.1500 C   0  0  0  0  0  0  0  0  0  0  0  0
   37.9680   22.3610   36.0730 C   0  0  0  0  0  0  0  0  0  0  0  0
   39.2750   21.9720   36.0190 N   0  0  0  0  0  0  0  0  0  0  0  0
   40.1570   22.3180   36.9890 C   0  0  0  0  0  0  0  0  0  0  0  0
   39.7530   23.0650   38.0430 N   0  0  0  0  0  0  0  0  0  0  0  0
   38.1490   24.0500   38.9520 H   0  0  0  0  0  0  0  0  0  0  0  0
   36.5250   23.3970   37.1390 H   0  0  0  0  0  0  0  0  0  0  0  0
   41.2040   22.0060   36.9410 H   0  0  0  0  0  0  0  0  0  0  0  0
  1  2  1  0  0  0  0
  2  7  2  0  0  0  0
  2  3  1  0  0  0  0
  3  4  2  0  0  0  0
  4  5  1  0  0  0  0
  4  8  1  0  0  0  0
  5  9  1  0  0  0  0
  6 10  1  0  0  0  0
  6  5  2  0  0  0  0
  7  6  1  0  0  0  0
 11 12  1  0  0  0  0
 12  7  1  0  0  0  0
 12 13  2  0  0  0  0
 13 14  1  0  0  0  0
 15 16  1  0  0  0  0
 15 13  1  0  0  0  0
 17 15  2  0  0  0  0
 18 11  2  0  0  0  0
 18 17  1  0  0  0  0
 20 19  1  0  0  0  0
 20 21  2  0  0  0  0
 20 11  1  0  0  0  0
 22 20  2  0  0  0  0
 23  3  1  0  0  0  0
 23 25  1  0  0  0  0
 25 24  2  6  0  0  0
 25 28  1  0  0  0  0
 26 27  1  0  0  0  0
 26 25  1  0  0  0  0
 28 31  1  0  0  0  0
 29 35  1  0  0  0  0
 30 29  2  0  0  0  0
 31 30  1  0  0  0  0
 32 31  2  0  0  0  0
 32 33  1  0  0  0  0
 33 34  2  0  0  0  0
 34 29  1  0  0  0  0
 36 30  1  0  0  0  0
 37 33  1  0  0  0  0
M  END
>  <minimizedAffinity>
-5.45152426

$$$$
