
 OpenBabel03272510173D

 31 33  0  0  0  0  0  0  0  0999 V2000
   37.2060   29.1710   50.5920 Br  0  0  0  0  0  0  0  0  0  0  0  0
   35.9600   29.3090   49.1440 C   0  0  0  0  0  0  0  0  0  0  0  0
   36.0510   30.3340   48.2300 C   0  0  0  0  0  0  0  0  0  0  0  0
   35.1210   30.3650   47.2190 C   0  0  0  0  0  0  0  0  0  0  0  0
   34.1050   29.4210   47.0820 C   0  0  0  0  0  0  0  0  0  0  0  0
   34.0590   28.4220   48.0180 C   0  0  0  0  0  0  0  0  0  0  0  0
   34.9800   28.3670   49.0400 C   0  0  0  0  0  0  0  0  0  0  0  0
   35.2400   31.2050   46.5180 H   0  0  0  0  0  0  0  0  0  0  0  0
   33.2590   27.7110   47.8730 H   0  0  0  0  0  0  0  0  0  0  0  0
   34.8890   27.5470   49.7520 H   0  0  0  0  0  0  0  0  0  0  0  0
   37.9930   33.1400   49.5280 C   0  0  0  0  0  0  0  0  0  0  0  0
   39.0560   33.2720   48.5970 C   0  0  0  0  0  0  0  0  0  0  0  0
   39.0820   32.3790   47.5290 C   0  0  0  0  0  0  0  0  0  0  0  0
   38.1000   31.4380   47.4320 N   0  0  0  0  0  0  0  0  0  0  0  0
   37.1020   31.3450   48.3400 C   0  0  0  0  0  0  0  0  0  0  0  0
   37.0620   32.2010   49.3790 N   0  0  0  0  0  0  0  0  0  0  0  0
   37.8970   33.8000   50.3930 H   0  0  0  0  0  0  0  0  0  0  0  0
   39.7900   34.0450   48.7510 H   0  0  0  0  0  0  0  0  0  0  0  0
   39.8840   32.4530   46.8000 H   0  0  0  0  0  0  0  0  0  0  0  0
   33.3810   29.1400   44.6860 C   0  0  0  0  0  0  0  0  0  0  0  0
   33.2290   29.6430   45.9380 C   0  0  0  0  0  0  0  0  0  0  0  0
   32.1140   30.4620   46.1480 C   0  0  0  0  0  0  0  0  0  0  0  0
   31.9100   30.9140   47.1320 H   0  0  0  0  0  0  0  0  0  0  0  0
   31.1960   30.7750   45.1910 C   0  0  0  0  0  0  0  0  0  0  0  0
   30.3440   31.4110   45.3820 H   0  0  0  0  0  0  0  0  0  0  0  0
   31.3530   30.2650   43.9280 C   0  0  0  0  0  3  0  0  0  0  0  0
   32.4430   29.4590   43.7020 C   0  0  0  0  0  3  0  0  0  0  0  0
   35.1910   27.5620   45.5320 H   0  0  0  0  0  0  0  0  0  0  0  0
   34.7450   28.1220   44.3830 S   0  0  0  0  0  0  0  0  0  0  0  0
   34.5160   27.1160   43.2880 O   0  0  0  0  0  0  0  0  0  0  0  0
   35.8640   29.0330   43.8980 O   0  0  0  0  0  0  0  0  0  0  0  0
  2  1  1  0  0  0  0
  3 15  1  0  0  0  0
  3  2  2  0  0  0  0
  4  3  1  0  0  0  0
  5  4  2  0  0  0  0
  5  6  1  0  0  0  0
  6  7  2  0  0  0  0
  7  2  1  0  0  0  0
  7 10  1  0  0  0  0
  8  4  1  0  0  0  0
  9  6  1  0  0  0  0
 11 17  1  0  0  0  0
 12 18  1  0  0  0  0
 12 11  2  0  0  0  0
 13 12  1  0  0  0  0
 14 13  2  0  0  0  0
 14 15  1  0  0  0  0
 15 16  2  0  0  0  0
 16 11  1  0  0  0  0
 19 13  1  0  0  0  0
 20 21  1  0  0  0  0
 21 22  2  0  0  0  0
 21  5  1  0  0  0  0
 22 23  1  0  0  0  0
 24 25  1  0  0  0  0
 24 22  1  0  0  0  0
 26 24  2  0  0  0  0
 27 26  1  0  0  0  0
 27 20  2  0  0  0  0
 29 20  1  0  0  0  0
 29 28  1  0  0  0  0
 30 29  2  0  0  0  0
 31 29  2  0  0  0  0
M  END
>  <minimizedAffinity>
-5.34892845

>  <minimizedRMSD>
1.20385015

$$$$
