
 OpenBabel03272500303D

 31 33  0  0  0  0  0  0  0  0999 V2000
   37.0430   30.1530   46.2450 Cl  0  0  0  0  0  0  0  0  0  0  0  0
   37.5880   31.3360   47.4260 C   0  0  0  0  0  0  0  0  0  0  0  0
   38.5860   32.1790   47.0070 C   0  0  0  0  0  0  0  0  0  0  0  0
   39.0370   33.1330   47.9370 C   0  0  0  0  0  0  0  0  0  0  0  0
   38.4800   33.1820   49.1870 C   0  0  0  0  0  0  0  0  0  0  0  0
   37.4870   32.3040   49.5300 C   0  0  0  0  0  0  0  0  0  0  0  0
   37.0020   31.3520   48.6750 C   0  0  0  0  0  0  0  0  0  0  0  0
   39.8280   33.7980   47.5970 H   0  0  0  0  0  0  0  0  0  0  0  0
   38.8560   33.9310   49.8710 H   0  0  0  0  0  0  0  0  0  0  0  0
   37.0560   32.3570   50.5280 H   0  0  0  0  0  0  0  0  0  0  0  0
   39.1340   32.8550   43.4750 C   0  0  0  0  0  0  0  0  0  0  0  0
   40.1800   32.0060   43.1180 C   0  0  0  0  0  0  0  0  0  0  0  0
   40.7030   31.1860   44.1230 C   0  0  0  0  0  0  0  0  0  0  0  0
   40.1720   31.2560   45.3770 N   0  0  0  0  0  0  0  0  0  0  0  0
   39.1580   32.0990   45.6650 C   0  0  0  0  0  0  0  0  0  0  0  0
   38.6430   32.8940   44.7140 N   0  0  0  0  0  0  0  0  0  0  0  0
   38.7860   33.4540   42.6470 H   0  0  0  0  0  0  0  0  0  0  0  0
   40.6460   31.8950   42.1600 H   0  0  0  0  0  0  0  0  0  0  0  0
   41.4940   30.4740   44.0610 H   0  0  0  0  0  0  0  0  0  0  0  0
   36.0650   29.4720   50.0060 C   0  0  0  0  0  0  0  0  0  0  0  0
   35.9480   30.3940   48.9890 C   0  0  0  0  0  0  0  0  0  0  0  0
   34.8080   30.4410   48.2220 C   0  0  0  0  0  0  0  0  0  0  0  0
   34.6130   31.1200   47.4030 H   0  0  0  0  0  0  0  0  0  0  0  0
   33.7760   29.5490   48.4830 C   0  0  0  0  0  0  0  0  0  0  0  0
   32.8390   29.5230   47.9170 H   0  0  0  0  0  0  0  0  0  0  0  0
   33.8550   28.6110   49.4910 C   0  0  0  0  0  0  0  0  0  0  0  0
   35.0270   28.5920   50.2510 C   0  0  0  0  0  0  0  0  0  0  0  0
   38.5160   30.0990   50.1980 H   0  0  0  0  0  0  0  0  0  0  0  0
   37.5320   29.4610   50.9450 S   0  0  0  0  0  0  0  0  0  0  0  0
   37.3740   30.0650   52.2850 O   0  0  0  0  0  0  0  0  0  0  0  0
   38.0040   28.0390   51.1230 O   0  0  0  0  0  0  0  0  0  0  0  0
  1  2  1  0  0  0  0
  2  7  1  0  0  0  0
  3  2  2  0  0  0  0
  3  4  1  0  0  0  0
  4  5  2  0  0  0  0
  5  6  1  0  0  0  0
  5  9  1  0  0  0  0
  6 10  1  0  0  0  0
  7 21  1  0  0  0  0
  7  6  2  0  0  0  0
  8  4  1  0  0  0  0
 11 16  1  0  0  0  0
 12 11  2  0  0  0  0
 12 13  1  0  0  0  0
 13 14  2  0  0  0  0
 14 15  1  0  0  0  0
 15  3  1  0  0  0  0
 16 15  2  0  0  0  0
 17 11  1  0  0  0  0
 18 12  1  0  0  0  0
 19 13  1  0  0  0  0
 20 27  1  0  0  0  0
 20 29  1  0  0  0  0
 21 20  2  0  0  0  0
 22 24  2  0  0  0  0
 22 21  1  0  0  0  0
 23 22  1  0  0  0  0
 24 26  1  0  0  0  0
 25 24  1  0  0  0  0
 26 27  2  0  0  0  0
 28 29  1  0  0  0  0
 29 31  2  0  0  0  0
 29 30  2  0  0  0  0
M  END
>  <minimizedAffinity>
-6.40291166

>  <minimizedRMSD>
2.37679124

$$$$
