
 OpenBabel03272505313D

 43 46  0  0  0  0  0  0  0  0999 V2000
   37.3950   31.1780   47.1000 N   0  0  0  0  0  0  0  0  0  0  0  0
   36.7490   30.9210   45.9320 C   0  0  0  0  0  0  0  0  0  0  0  0
   37.1820   31.4320   44.7210 C   0  0  0  0  0  0  0  0  0  0  0  0
   38.3340   32.2400   44.7280 C   0  0  0  0  0  0  0  0  0  0  0  0
   38.7660   32.7260   43.6570 O   0  0  0  0  0  0  0  0  0  0  0  0
   38.9790   32.4920   45.9190 N   0  0  0  0  0  0  0  0  0  0  0  0
   38.4670   31.9480   47.0050 C   0  0  0  0  0  0  0  0  0  0  0  0
   39.0870   32.2040   48.0630 O   0  0  0  0  0  0  0  0  0  0  0  0
   35.8550   30.2960   45.9210 H   0  0  0  0  0  0  0  0  0  0  0  0
   37.3560   29.5400   50.4330 C   0  0  0  0  0  0  0  0  0  0  0  0
   37.8240   30.0630   49.2100 C   0  0  0  0  0  0  0  0  0  0  0  0
   36.9440   30.6560   48.3120 C   0  0  0  0  0  0  0  0  0  0  0  0
   35.6480   30.7040   48.6600 N   0  0  0  0  0  0  0  0  0  0  0  0
   35.1730   30.2060   49.8330 C   0  0  0  0  0  0  0  0  0  0  0  0
   36.0510   29.6250   50.7090 N   0  0  0  0  0  0  0  0  0  0  0  0
   38.0720   29.0900   51.0970 H   0  0  0  0  0  0  0  0  0  0  0  0
   38.8680   30.0070   48.9670 H   0  0  0  0  0  0  0  0  0  0  0  0
   34.1310   30.2550   50.0910 H   0  0  0  0  0  0  0  0  0  0  0  0
   36.5290   31.1890   43.4530 C   0  0  0  0  0  0  0  0  0  0  0  0
   36.7940   30.1270   42.6390 C   0  0  0  0  0  0  0  0  0  0  0  0
   36.1860   29.8770   41.4360 C   0  0  0  0  0  0  0  0  0  0  0  0
   35.2130   30.7800   40.9950 C   0  0  0  0  0  0  0  0  0  0  0  0
   34.9580   31.8500   41.8320 C   0  0  0  0  0  0  0  0  0  0  0  0
   35.6000   32.0000   42.9760 N   0  0  0  0  0  0  0  0  0  0  0  0
   37.5470   29.3900   42.9360 H   0  0  0  0  0  0  0  0  0  0  0  0
   36.4220   29.0160   40.8070 H   0  0  0  0  0  0  0  0  0  0  0  0
   34.7480   30.5850   40.0670 H   0  0  0  0  0  0  0  0  0  0  0  0
   32.6870   32.8150   42.0340 C   0  0  0  0  0  0  0  0  0  0  0  0
   33.9570   32.8360   41.4440 C   0  0  0  0  0  0  0  0  0  0  0  0
   34.1910   33.8160   40.5030 C   0  0  0  0  0  0  0  0  0  0  0  0
   35.1360   33.8960   40.0080 H   0  0  0  0  0  0  0  0  0  0  0  0
   33.2750   34.7680   40.1040 C   0  0  0  0  0  0  0  0  0  0  0  0
   33.4940   35.5230   39.3630 H   0  0  0  0  0  0  0  0  0  0  0  0
   32.0240   34.7560   40.6790 C   0  0  0  0  0  3  0  0  0  0  0  0
   31.7650   33.7860   41.6220 C   0  0  0  0  0  3  0  0  0  0  0  0
   33.1780   31.5190   44.2450 H   0  0  0  0  0  0  0  0  0  0  0  0
   32.2560   31.6300   43.2390 S   0  0  0  0  0  0  0  0  0  0  0  0
   31.8560   30.3090   42.6560 O   0  0  0  0  0  0  0  0  0  0  0  0
   31.0000   32.1460   43.9300 O   0  0  0  0  0  0  0  0  0  0  0  0
   40.1600   33.3210   45.9200 C   0  0  0  0  0  0  0  0  0  0  0  0
   40.0780   34.2850   44.9800 F   0  0  0  0  0  0  0  0  0  0  0  0
   41.3260   32.6120   45.6420 F   0  0  0  0  0  0  0  0  0  0  0  0
   40.2660   33.9460   47.1670 F   0  0  0  0  0  0  0  0  0  0  0  0
  1 12  1  0  0  0  0
  2  1  1  0  0  0  0
  3  4  1  0  0  0  0
  3  2  2  0  0  0  0
  4  6  1  0  0  0  0
  5  4  2  0  0  0  0
  6 40  1  0  0  0  0
  6  7  1  0  0  0  0
  7  1  1  0  0  0  0
  7  8  2  0  0  0  0
  9  2  1  0  0  0  0
 10 15  1  0  0  0  0
 10 16  1  0  0  0  0
 11 10  2  0  0  0  0
 12 13  2  0  0  0  0
 12 11  1  0  0  0  0
 13 14  1  0  0  0  0
 14 18  1  0  0  0  0
 14 15  2  0  0  0  0
 17 11  1  0  0  0  0
 19  3  1  0  0  0  0
 20 25  1  0  0  0  0
 20 19  2  0  0  0  0
 21 20  1  0  0  0  0
 22 21  2  0  0  0  0
 22 23  1  0  0  0  0
 23 24  2  0  0  0  0
 24 19  1  0  0  0  0
 26 21  1  0  0  0  0
 27 22  1  0  0  0  0
 28 37  1  0  0  0  0
 29 23  1  0  0  0  0
 29 28  2  0  0  0  0
 30 29  1  0  0  0  0
 31 30  1  0  0  0  0
 32 30  2  0  0  0  0
 32 34  1  0  0  0  0
 33 32  1  0  0  0  0
 34 35  2  0  0  0  0
 35 28  1  0  0  0  0
 37 39  2  0  0  0  0
 37 36  1  0  0  0  0
 38 37  2  0  0  0  0
 40 43  1  0  0  0  0
 41 40  1  0  0  0  0
 42 40  1  0  0  0  0
M  END
>  <minimizedAffinity>
-6.42710686

>  <minimizedRMSD>
0.442886323

$$$$
