
 OpenBabel03272509113D

 31 33  0  0  0  0  0  0  0  0999 V2000
   36.3280   29.3460   49.1480 C   0  0  0  0  0  0  0  0  0  0  0  0
   35.8150   29.8390   47.9070 C   0  0  0  0  0  0  0  0  0  0  0  0
   34.5170   29.4510   47.5660 C   0  0  0  0  0  0  0  0  0  0  0  0
   33.8120   28.6380   48.4080 N   0  0  0  0  0  0  0  0  0  0  0  0
   34.3370   28.1920   49.5740 C   0  0  0  0  0  0  0  0  0  0  0  0
   35.5870   28.5460   49.9380 N   0  0  0  0  0  0  0  0  0  0  0  0
   37.3080   29.5880   49.4940 H   0  0  0  0  0  0  0  0  0  0  0  0
   33.7740   27.5500   50.2330 H   0  0  0  0  0  0  0  0  0  0  0  0
   33.8930   29.8830   46.3370 C   0  0  0  0  0  0  0  0  0  0  0  0
   34.1580   29.1880   45.1900 C   0  0  0  0  0  0  0  0  0  0  0  0
   33.5940   29.5340   43.9650 C   0  0  0  0  0  0  0  0  0  0  0  0
   32.7370   30.6340   43.9520 C   0  0  0  0  0  0  0  0  0  0  0  0
   32.4270   31.3870   45.0890 C   0  0  0  0  0  0  0  0  0  0  0  0
   33.0370   30.9620   46.2600 C   0  0  0  0  0  0  0  0  0  0  0  0
   34.8040   28.3400   45.0460 H   0  0  0  0  0  0  0  0  0  0  0  0
   33.7580   29.0310   43.0250 H   0  0  0  0  0  0  0  0  0  0  0  0
   32.2480   30.9780   43.0380 H   0  0  0  0  0  0  0  0  0  0  0  0
   31.7570   32.2320   45.0290 H   0  0  0  0  0  0  0  0  0  0  0  0
   32.8200   31.5210   47.1570 H   0  0  0  0  0  0  0  0  0  0  0  0
   37.5340   31.6640   47.6940 C   0  0  0  0  0  0  0  0  0  0  0  0
   36.7170   30.6700   47.1370 C   0  0  0  0  0  0  0  0  0  0  0  0
   36.7290   30.4030   45.7600 C   0  0  0  0  0  0  0  0  0  0  0  0
   36.1140   29.6520   45.3210 H   0  0  0  0  0  0  0  0  0  0  0  0
   37.5650   31.1400   44.9620 C   0  0  0  0  0  0  0  0  0  0  0  0
   37.5860   30.9440   43.8880 H   0  0  0  0  0  0  0  0  0  0  0  0
   38.3570   32.1100   45.5410 C   0  0  0  0  0  0  0  0  0  0  0  0
   38.3740   32.4040   46.8880 C   0  0  0  0  0  0  0  0  0  0  0  0
   36.3400   31.3670   49.9260 H   0  0  0  0  0  0  0  0  0  0  0  0
   37.4600   31.9330   49.4130 S   0  0  0  0  0  0  0  0  0  0  0  0
   37.3450   33.4190   49.7150 O   0  0  0  0  0  0  0  0  0  0  0  0
   38.6790   31.3830   50.1310 O   0  0  0  0  0  0  0  0  0  0  0  0
  1  7  1  0  0  0  0
  1  6  1  0  0  0  0
  2  1  2  0  0  0  0
  3  2  1  0  0  0  0
  3  4  2  0  0  0  0
  4  5  1  0  0  0  0
  5  6  2  0  0  0  0
  5  8  1  0  0  0  0
  9  3  1  0  0  0  0
 10  9  2  0  0  0  0
 11 10  1  0  0  0  0
 12 11  2  0  0  0  0
 12 13  1  0  0  0  0
 13 14  2  0  0  0  0
 14  9  1  0  0  0  0
 14 19  1  0  0  0  0
 15 10  1  0  0  0  0
 16 11  1  0  0  0  0
 17 12  1  0  0  0  0
 18 13  1  0  0  0  0
 20 29  1  0  0  0  0
 21 20  1  0  0  0  0
 21  2  1  0  0  0  0
 22 21  2  0  0  0  0
 23 22  1  0  0  0  0
 24 26  2  0  0  0  0
 24 22  1  0  0  0  0
 25 24  1  0  0  0  0
 26 27  1  0  0  0  0
 27 20  2  0  0  0  0
 29 30  2  0  0  0  0
 29 28  1  0  0  0  0
 29 31  2  0  0  0  0
M  END
>  <minimizedAffinity>
-4.98874378

>  <minimizedRMSD>
5.16361427

$$$$
