
 OpenBabel03272508303D

 35 37  0  0  1  0  0  0  0  0999 V2000
   36.2580   30.2920   47.5630 N   0  0  0  0  0  0  0  0  0  0  0  0
   34.9420   30.1440   46.9430 C   0  0  0  0  0  0  0  0  0  0  0  0
   34.9810   30.1910   45.4640 C   0  0  0  0  0  0  0  0  0  0  0  0
   36.3100   29.9730   44.9650 N   0  0  0  0  0  0  0  0  0  0  0  0
   37.1040   31.1060   45.4300 C   0  0  0  0  0  0  0  0  0  0  0  0
   37.4210   30.7610   46.8580 C   0  0  1  0  0  0  0  0  0  0  0  0
   34.2230   30.8930   47.3650 H   0  0  0  0  0  0  0  0  0  0  0  0
   34.5730   29.1400   47.2510 H   0  0  0  0  0  0  0  0  0  0  0  0
   34.3190   29.4370   44.9790 H   0  0  0  0  0  0  0  0  0  0  0  0
   34.5990   31.1850   45.1290 H   0  0  0  0  0  0  0  0  0  0  0  0
   36.3710   29.8500   43.9460 H   0  0  0  0  0  0  0  0  0  0  0  0
   37.9920   31.2750   44.8310 H   0  0  0  0  0  0  0  0  0  0  0  0
   36.4610   32.0230   45.4440 H   0  0  0  0  0  0  0  0  0  0  0  0
   38.1250   29.8950   46.8790 H   0  0  0  0  0  0  0  0  0  0  0  0
   37.6230   29.5330   49.4520 C   0  0  0  0  0  0  0  0  0  0  0  0
   36.3750   29.9500   48.9340 C   0  0  0  0  0  0  0  0  0  0  0  0
   35.3050   30.0060   49.8090 C   0  0  0  0  0  0  0  0  0  0  0  0
   35.5220   29.6520   51.1260 N   0  0  0  0  0  0  0  0  0  0  0  0
   36.7320   29.2610   51.5720 C   0  0  0  0  0  0  0  0  0  0  0  0
   37.8080   29.1920   50.7530 N   0  0  0  0  0  0  0  0  0  0  0  0
   38.4900   29.4730   48.8150 H   0  0  0  0  0  0  0  0  0  0  0  0
   34.3430   30.3110   49.4750 H   0  0  0  0  0  0  0  0  0  0  0  0
   36.7720   29.0100   52.6250 H   0  0  0  0  0  0  0  0  0  0  0  0
   39.2190   32.4730   46.9770 C   0  0  0  0  0  0  0  0  0  0  0  0
   38.0850   31.9040   47.5230 C   0  0  0  0  0  0  0  0  0  0  0  0
   37.6130   32.4570   48.7120 C   0  0  0  0  0  0  0  0  0  0  0  0
   36.7300   32.0410   49.1690 H   0  0  0  0  0  0  0  0  0  0  0  0
   38.2580   33.5300   49.3130 C   0  0  0  0  0  0  0  0  0  0  0  0
   37.9030   33.9730   50.2380 H   0  0  0  0  0  0  0  0  0  0  0  0
   39.3980   34.0910   48.7500 C   0  0  0  0  0  0  0  0  0  0  0  0
   39.8540   33.5430   47.5850 C   0  0  0  0  0  0  0  0  0  0  0  0
   39.0730   31.3060   44.6460 H   0  0  0  0  0  0  0  0  0  0  0  0
   39.9260   31.8980   45.5050 S   0  0  0  0  0  0  0  0  0  0  0  0
   41.1650   31.0640   45.7940 O   0  0  0  0  0  0  0  0  0  0  0  0
   40.4540   33.1270   44.7750 O   0  0  0  0  0  0  0  0  0  0  0  0
  1 16  1  0  0  0  0
  2  8  1  0  0  0  0
  2  7  1  0  0  0  0
  2  1  1  0  0  0  0
  3  2  1  0  0  0  0
  4  5  1  0  0  0  0
  4  3  1  0  0  0  0
  5 13  1  0  0  0  0
  5  6  1  0  0  0  0
  6 14  1  6  0  0  0
  6 25  1  0  0  0  0
  6  1  1  0  0  0  0
  9  3  1  0  0  0  0
 10  3  1  0  0  0  0
 11  4  1  0  0  0  0
 12  5  1  0  0  0  0
 15 20  1  0  0  0  0
 16 15  2  0  0  0  0
 16 17  1  0  0  0  0
 17 18  2  0  0  0  0
 18 19  1  0  0  0  0
 19 23  1  0  0  0  0
 20 19  2  0  0  0  0
 21 15  1  0  0  0  0
 22 17  1  0  0  0  0
 24 25  2  0  0  0  0
 24 31  1  0  0  0  0
 25 26  1  0  0  0  0
 26 27  1  0  0  0  0
 26 28  2  0  0  0  0
 28 29  1  0  0  0  0
 30 28  1  0  0  0  0
 31 30  2  0  0  0  0
 32 33  1  0  0  0  0
 33 34  2  0  0  0  0
 33 24  1  0  0  0  0
 35 33  2  0  0  0  0
M  END
>  <minimizedAffinity>
-5.43173933

>  <minimizedRMSD>
3.64393425

$$$$
