
 OpenBabel03272507203D

 33 35  0  0  1  0  0  0  0  0999 V2000
   37.2820   31.0890   49.2890 C   0  0  0  0  0  0  0  0  0  0  0  0
   37.9760   32.2820   49.3160 C   0  0  0  0  0  0  0  0  0  0  0  0
   38.4960   32.7040   48.0950 C   0  0  0  0  0  0  0  0  0  0  0  0
   38.3000   31.9410   46.9640 N   0  0  0  0  0  0  0  0  0  0  0  0
   37.6120   30.7850   47.0080 C   0  0  0  0  0  0  0  0  0  0  0  0
   37.0900   30.3340   48.1730 N   0  0  0  0  0  0  0  0  0  0  0  0
   38.0940   32.8310   50.2370 H   0  0  0  0  0  0  0  0  0  0  0  0
   39.0420   33.6280   48.0820 H   0  0  0  0  0  0  0  0  0  0  0  0
   36.7470   30.1360   44.6740 C   0  0  0  0  0  0  0  0  0  0  0  0
   37.6860   30.4010   45.6260 C   0  0  0  0  0  0  0  0  0  0  0  0
   39.0380   30.3000   45.2780 C   0  0  0  0  0  0  0  0  0  0  0  0
   39.9980   30.4410   45.7870 H   0  0  0  0  0  0  0  0  0  0  0  0
   39.3490   29.9330   43.9630 C   0  0  0  0  0  0  0  0  0  0  0  0
   40.3320   29.8110   43.5300 H   0  0  0  0  0  0  0  0  0  0  0  0
   38.3270   29.6870   43.0730 C   0  0  0  0  0  3  0  0  0  0  0  0
   36.9900   29.7740   43.3730 C   0  0  0  0  0  3  0  0  0  0  0  0
   35.1610   31.0230   46.4490 H   0  0  0  0  0  0  0  0  0  0  0  0
   35.1190   30.2820   45.2970 S   0  0  0  0  0  0  0  0  0  0  0  0
   34.7260   28.8540   45.6640 O   0  0  0  0  0  0  0  0  0  0  0  0
   34.1800   30.8480   44.3050 O   0  0  0  0  0  0  0  0  0  0  0  0
   36.6770   30.6510   50.5890 C   0  0  1  0  0  0  0  0  0  0  0  0
   35.9010   29.4180   50.7010 C   0  0  2  0  0  0  0  0  0  0  0  0
   37.3340   29.3660   51.1350 C   0  0  0  0  0  0  0  0  0  0  0  0
   36.5680   31.4610   51.3410 H   0  0  0  0  0  0  0  0  0  0  0  0
   35.0530   29.5000   51.4490 H   0  0  0  0  0  0  0  0  0  0  0  0
   38.0410   28.8180   50.4790 H   0  0  0  0  0  0  0  0  0  0  0  0
   37.5890   29.3880   52.2040 H   0  0  0  0  0  0  0  0  0  0  0  0
   35.5270   28.7930   49.5200 O   0  0  0  0  0  0  0  0  0  0  0  0
   34.3200   28.2910   49.1540 C   0  0  0  0  0  0  0  0  0  0  0  0
   34.2180   27.2520   48.4820 O   0  0  0  0  0  0  0  0  0  0  0  0
   33.3180   29.1240   49.6520 N   0  0  0  0  0  0  0  0  0  0  0  0
   33.2150   30.1580   49.5370 H   0  0  0  0  0  0  0  0  0  0  0  0
   32.4350   29.3270   50.1840 H   0  0  0  0  0  0  0  0  0  0  0  0
  1  2  1  0  0  0  0
  1 21  1  0  0  0  0
  2  7  1  0  0  0  0
  3  2  2  0  0  0  0
  4  5  2  0  0  0  0
  4  3  1  0  0  0  0
  5  6  1  0  0  0  0
  6  1  2  0  0  0  0
  8  3  1  0  0  0  0
  9 18  1  0  0  0  0
  9 10  1  0  0  0  0
 10  5  1  0  0  0  0
 11 10  2  0  0  0  0
 11 12  1  0  0  0  0
 13 11  1  0  0  0  0
 14 13  1  0  0  0  0
 15 16  1  0  0  0  0
 15 13  2  0  0  0  0
 16  9  2  0  0  0  0
 18 19  2  0  0  0  0
 18 17  1  0  0  0  0
 20 18  2  0  0  0  0
 21 22  1  0  0  0  0
 21 23  1  0  0  0  0
 21 24  1  1  0  0  0
 22 23  1  0  0  0  0
 22 25  1  1  0  0  0
 23 27  1  0  0  0  0
 26 23  1  0  0  0  0
 28 22  1  0  0  0  0
 29 28  1  0  0  0  0
 29 31  1  0  0  0  0
 30 29  2  0  0  0  0
 31 33  1  0  0  0  0
 32 31  1  0  0  0  0
M  END
>  <minimizedAffinity>
-5.44995832

>  <minimizedRMSD>
0.799359262

$$$$
