
 OpenBabel03272510163D

 31 33  0  0  0  0  0  0  0  0999 V2000
   36.4510   29.5440   50.8750 Br  0  0  0  0  0  0  0  0  0  0  0  0
   35.6880   29.3690   49.1280 C   0  0  0  0  0  0  0  0  0  0  0  0
   36.0640   30.2100   48.1060 C   0  0  0  0  0  0  0  0  0  0  0  0
   35.4720   30.0210   46.8800 C   0  0  0  0  0  0  0  0  0  0  0  0
   34.5220   29.0320   46.6320 C   0  0  0  0  0  0  0  0  0  0  0  0
   34.1820   28.2230   47.6830 C   0  0  0  0  0  0  0  0  0  0  0  0
   34.7620   28.3900   48.9210 C   0  0  0  0  0  0  0  0  0  0  0  0
   35.8090   30.7200   46.1000 H   0  0  0  0  0  0  0  0  0  0  0  0
   33.4440   27.4690   47.4460 H   0  0  0  0  0  0  0  0  0  0  0  0
   34.4490   27.7130   49.7160 H   0  0  0  0  0  0  0  0  0  0  0  0
   37.7620   33.0670   49.6170 C   0  0  0  0  0  0  0  0  0  0  0  0
   38.8990   33.2580   48.7900 C   0  0  0  0  0  0  0  0  0  0  0  0
   39.0590   32.3860   47.7160 C   0  0  0  0  0  0  0  0  0  0  0  0
   38.1290   31.4090   47.5160 N   0  0  0  0  0  0  0  0  0  0  0  0
   37.0580   31.2590   48.3260 C   0  0  0  0  0  0  0  0  0  0  0  0
   36.8880   32.0940   49.3700 N   0  0  0  0  0  0  0  0  0  0  0  0
   37.5610   33.7060   50.4800 H   0  0  0  0  0  0  0  0  0  0  0  0
   39.5830   34.0570   49.0220 H   0  0  0  0  0  0  0  0  0  0  0  0
   39.9200   32.5060   47.0650 H   0  0  0  0  0  0  0  0  0  0  0  0
   32.9610   29.6950   44.7690 C   0  0  0  0  0  0  0  0  0  0  0  0
   34.0240   29.0090   45.2610 C   0  0  0  0  0  0  0  0  0  0  0  0
   34.7110   28.1920   44.3560 C   0  0  0  0  0  0  0  0  0  0  0  0
   35.5860   27.5980   44.6670 H   0  0  0  0  0  0  0  0  0  0  0  0
   34.3820   28.0490   43.0410 C   0  0  0  0  0  0  0  0  0  0  0  0
   34.9300   27.4120   42.3650 H   0  0  0  0  0  0  0  0  0  0  0  0
   33.3070   28.7450   42.5490 C   0  0  0  0  0  3  0  0  0  0  0  0
   32.6200   29.5520   43.4230 C   0  0  0  0  0  3  0  0  0  0  0  0
   32.6950   30.7710   47.0620 H   0  0  0  0  0  0  0  0  0  0  0  0
   32.0860   30.7170   45.8530 S   0  0  0  0  0  0  0  0  0  0  0  0
   31.7790   32.0770   45.2870 O   0  0  0  0  0  0  0  0  0  0  0  0
   30.7420   30.0420   46.0910 O   0  0  0  0  0  0  0  0  0  0  0  0
  2  1  1  0  0  0  0
  3 15  1  0  0  0  0
  3  2  2  0  0  0  0
  4  3  1  0  0  0  0
  5  4  2  0  0  0  0
  5  6  1  0  0  0  0
  6  7  2  0  0  0  0
  7  2  1  0  0  0  0
  7 10  1  0  0  0  0
  8  4  1  0  0  0  0
  9  6  1  0  0  0  0
 11 17  1  0  0  0  0
 12 18  1  0  0  0  0
 12 11  2  0  0  0  0
 13 12  1  0  0  0  0
 14 13  2  0  0  0  0
 14 15  1  0  0  0  0
 15 16  2  0  0  0  0
 16 11  1  0  0  0  0
 19 13  1  0  0  0  0
 20 21  1  0  0  0  0
 20 29  1  0  0  0  0
 21  5  1  0  0  0  0
 22 23  1  0  0  0  0
 22 21  2  0  0  0  0
 24 22  1  0  0  0  0
 25 24  1  0  0  0  0
 26 24  2  0  0  0  0
 26 27  1  0  0  0  0
 27 20  2  0  0  0  0
 29 31  2  0  0  0  0
 29 28  1  0  0  0  0
 30 29  2  0  0  0  0
M  END
>  <minimizedAffinity>
-5.50802517

>  <minimizedRMSD>
1.62989902

$$$$
