
 OpenBabel03272510163D

 31 33  0  0  0  0  0  0  0  0999 V2000
   37.2070   29.2480   50.9130 Br  0  0  0  0  0  0  0  0  0  0  0  0
   35.9480   29.2900   49.4710 C   0  0  0  0  0  0  0  0  0  0  0  0
   36.0050   30.2760   48.5130 C   0  0  0  0  0  0  0  0  0  0  0  0
   35.0670   30.2390   47.5090 C   0  0  0  0  0  0  0  0  0  0  0  0
   34.0760   29.2620   47.4210 C   0  0  0  0  0  0  0  0  0  0  0  0
   34.0640   28.3040   48.4000 C   0  0  0  0  0  0  0  0  0  0  0  0
   34.9930   28.3180   49.4160 C   0  0  0  0  0  0  0  0  0  0  0  0
   35.1580   31.0500   46.7710 H   0  0  0  0  0  0  0  0  0  0  0  0
   33.2820   27.5660   48.2930 H   0  0  0  0  0  0  0  0  0  0  0  0
   34.9300   27.5280   50.1640 H   0  0  0  0  0  0  0  0  0  0  0  0
   37.8600   33.2070   49.6520 C   0  0  0  0  0  0  0  0  0  0  0  0
   38.9300   33.3070   48.7270 C   0  0  0  0  0  0  0  0  0  0  0  0
   38.9920   32.3500   47.7180 C   0  0  0  0  0  0  0  0  0  0  0  0
   38.0350   31.3810   47.6700 N   0  0  0  0  0  0  0  0  0  0  0  0
   37.0280   31.3190   48.5700 C   0  0  0  0  0  0  0  0  0  0  0  0
   36.9540   32.2370   49.5530 N   0  0  0  0  0  0  0  0  0  0  0  0
   37.7370   33.9170   50.4740 H   0  0  0  0  0  0  0  0  0  0  0  0
   39.6430   34.1080   48.8400 H   0  0  0  0  0  0  0  0  0  0  0  0
   39.8000   32.3990   46.9940 H   0  0  0  0  0  0  0  0  0  0  0  0
   33.5490   29.5180   44.9720 C   0  0  0  0  0  0  0  0  0  0  0  0
   33.1860   29.4110   46.2760 C   0  0  0  0  0  0  0  0  0  0  0  0
   31.8140   29.4490   46.5450 C   0  0  0  0  0  0  0  0  0  0  0  0
   31.4280   29.3690   47.5740 H   0  0  0  0  0  0  0  0  0  0  0  0
   30.8450   29.5850   45.5970 C   0  0  0  0  0  0  0  0  0  0  0  0
   29.7920   29.6110   45.8340 H   0  0  0  0  0  0  0  0  0  0  0  0
   31.2160   29.6930   44.2810 C   0  0  0  0  0  3  0  0  0  0  0  0
   32.5600   29.6570   43.9960 C   0  0  0  0  0  3  0  0  0  0  0  0
   35.9790   29.3770   45.7220 H   0  0  0  0  0  0  0  0  0  0  0  0
   35.2350   29.4730   44.5940 S   0  0  0  0  0  0  0  0  0  0  0  0
   35.5960   28.4400   43.5620 O   0  0  0  0  0  0  0  0  0  0  0  0
   35.5750   30.8240   43.9810 O   0  0  0  0  0  0  0  0  0  0  0  0
  2  1  1  0  0  0  0
  3 15  1  0  0  0  0
  3  2  2  0  0  0  0
  4  3  1  0  0  0  0
  5  4  2  0  0  0  0
  5  6  1  0  0  0  0
  6  7  2  0  0  0  0
  7  2  1  0  0  0  0
  7 10  1  0  0  0  0
  8  4  1  0  0  0  0
  9  6  1  0  0  0  0
 11 17  1  0  0  0  0
 12 18  1  0  0  0  0
 12 11  2  0  0  0  0
 13 12  1  0  0  0  0
 14 13  2  0  0  0  0
 14 15  1  0  0  0  0
 15 16  2  0  0  0  0
 16 11  1  0  0  0  0
 19 13  1  0  0  0  0
 20 21  1  0  0  0  0
 21 22  2  0  0  0  0
 21  5  1  0  0  0  0
 22 23  1  0  0  0  0
 24 25  1  0  0  0  0
 24 22  1  0  0  0  0
 26 24  2  0  0  0  0
 27 26  1  0  0  0  0
 27 20  2  0  0  0  0
 29 20  1  0  0  0  0
 29 28  1  0  0  0  0
 30 29  2  0  0  0  0
 31 29  2  0  0  0  0
M  END
>  <minimizedAffinity>
-5.68969536

>  <minimizedRMSD>
0.852852345

$$$$
