
 OpenBabel03272508543D

 41 44  0  0  1  0  0  0  0  0999 V2000
   39.1740   31.4460   43.4170 C   0  0  0  0  0  0  0  0  0  0  0  0
   40.1470   30.4990   43.5730 C   0  0  0  0  0  0  0  0  0  0  0  0
   40.8530   30.1440   42.4430 C   0  0  0  0  0  0  0  0  0  0  0  0
   40.5540   30.7390   41.2560 C   0  0  0  0  0  0  0  0  0  0  0  0
   39.5800   31.6950   41.0870 C   0  0  0  0  0  0  0  0  0  0  0  0
   38.9380   31.9880   42.2180 N   0  0  0  0  0  0  0  0  0  0  0  0
   40.3880   30.0220   44.5150 H   0  0  0  0  0  0  0  0  0  0  0  0
   41.6220   29.4030   42.5340 H   0  0  0  0  0  0  0  0  0  0  0  0
   41.1040   30.3920   40.4120 H   0  0  0  0  0  0  0  0  0  0  0  0
   39.4470   32.1350   38.5930 C   0  0  0  0  0  0  0  0  0  0  0  0
   39.1280   32.3630   39.9070 C   0  0  0  0  0  0  0  0  0  0  0  0
   38.2510   33.4410   40.0820 C   0  0  0  0  0  0  0  0  0  0  0  0
   37.9320   33.7120   41.1000 H   0  0  0  0  0  0  0  0  0  0  0  0
   37.7240   34.2300   39.0890 C   0  0  0  0  0  0  0  0  0  0  0  0
   37.0580   35.0370   39.3050 H   0  0  0  0  0  0  0  0  0  0  0  0
   38.0740   33.9570   37.7880 C   0  0  0  0  0  3  0  0  0  0  0  0
   38.9340   32.9080   37.5680 C   0  0  0  0  0  3  0  0  0  0  0  0
   40.7240   30.9210   36.7550 H   0  0  0  0  0  0  0  0  0  0  0  0
   40.5880   30.9210   38.1680 S   0  0  0  0  0  0  0  0  0  0  0  0
   41.9830   31.1550   38.6350 O   0  0  0  0  0  0  0  0  0  0  0  0
   40.1630   29.5160   38.4670 O   0  0  0  0  0  0  0  0  0  0  0  0
   38.3810   31.8560   44.6030 C   0  0  0  0  0  0  0  0  0  0  0  0
   37.2770   32.4580   44.4720 O   0  0  0  0  0  0  0  0  0  0  0  0
   38.9090   31.5490   45.8960 N   0  0  0  0  0  0  0  0  0  0  0  0
   39.8810   31.2110   46.0760 H   0  0  0  0  0  0  0  0  0  0  0  0
   38.2720   30.9780   48.2400 C   0  0  2  0  0  0  0  0  0  0  0  0
   38.7050   32.3840   48.2510 C   0  0  0  0  0  0  0  0  0  0  0  0
   38.0140   31.7230   47.0340 C   0  0  1  0  0  0  0  0  0  0  0  0
   39.1360   30.2620   48.2900 H   0  0  0  0  0  0  0  0  0  0  0  0
   39.7620   32.6560   48.1490 H   0  0  0  0  0  0  0  0  0  0  0  0
   38.0930   33.1650   48.7410 H   0  0  0  0  0  0  0  0  0  0  0  0
   36.9860   32.1100   46.8120 H   0  0  0  0  0  0  0  0  0  0  0  0
   34.8410   30.1260   49.2970 C   0  0  0  0  0  0  0  0  0  0  0  0
   35.0530   29.5500   50.5910 C   0  0  0  0  0  0  0  0  0  0  0  0
   36.4060   29.4810   51.0670 C   0  0  0  0  0  0  0  0  0  0  0  0
   37.4050   29.9560   50.2860 N   0  0  0  0  0  0  0  0  0  0  0  0
   37.1360   30.4910   49.0640 C   0  0  0  0  0  0  0  0  0  0  0  0
   35.8620   30.5910   48.5400 N   0  0  0  0  0  0  0  0  0  0  0  0
   33.8170   30.1710   48.9530 H   0  0  0  0  0  0  0  0  0  0  0  0
   34.2090   29.1920   51.1620 H   0  0  0  0  0  0  0  0  0  0  0  0
   36.5560   29.0500   52.0340 H   0  0  0  0  0  0  0  0  0  0  0  0
  1  2  1  0  0  0  0
  1 22  1  0  0  0  0
  2  7  1  0  0  0  0
  3  8  1  0  0  0  0
  3  2  2  0  0  0  0
  4  3  1  0  0  0  0
  5  4  2  0  0  0  0
  5  6  1  0  0  0  0
  6  1  2  0  0  0  0
  9  4  1  0  0  0  0
 10 11  1  0  0  0  0
 11 12  2  0  0  0  0
 11  5  1  0  0  0  0
 12 13  1  0  0  0  0
 14 15  1  0  0  0  0
 14 12  1  0  0  0  0
 16 14  2  0  0  0  0
 17 16  1  0  0  0  0
 17 10  2  0  0  0  0
 18 19  1  0  0  0  0
 19 21  2  0  0  0  0
 19 10  1  0  0  0  0
 19 20  2  0  0  0  0
 22 24  1  0  0  0  0
 23 22  2  0  0  0  0
 24 25  1  0  0  0  0
 24 28  1  0  0  0  0
 26 27  1  0  0  0  0
 26 29  1  6  0  0  0
 26 37  1  0  0  0  0
 27 31  1  0  0  0  0
 28 32  1  6  0  0  0
 28 26  1  0  0  0  0
 28 27  1  0  0  0  0
 30 27  1  0  0  0  0
 33 34  1  0  0  0  0
 34 35  2  0  0  0  0
 34 40  1  0  0  0  0
 35 41  1  0  0  0  0
 36 35  1  0  0  0  0
 37 36  2  0  0  0  0
 38 37  1  0  0  0  0
 38 33  2  0  0  0  0
 39 33  1  0  0  0  0
M  END
>  <minimizedAffinity>
-5.27116585

>  <minimizedRMSD>
0.516850054

$$$$
