
 OpenBabel03272501163D

 38 41  0  0  1  0  0  0  0  0999 V2000
   34.8100   28.7670   50.2200 C   0  0  0  0  0  0  0  0  0  0  0  0
   34.8980   27.7550   50.6820 H   0  0  0  0  0  0  0  0  0  0  0  0
   34.4850   29.4330   51.0340 H   0  0  0  0  0  0  0  0  0  0  0  0
   36.7040   30.4250   49.9620 C   0  0  1  0  0  0  0  0  0  0  0  0
   36.1600   29.1340   49.6870 C   0  0  1  0  0  0  0  0  0  0  0  0
   37.3810   29.1850   50.5670 C   0  0  0  0  0  0  0  0  0  0  0  0
   36.2430   31.1220   50.6890 H   0  0  0  0  0  0  0  0  0  0  0  0
   36.3420   28.7240   48.6500 H   0  0  0  0  0  0  0  0  0  0  0  0
   37.2240   28.9750   51.6310 H   0  0  0  0  0  0  0  0  0  0  0  0
   38.3340   28.8370   50.1380 H   0  0  0  0  0  0  0  0  0  0  0  0
   37.6110   31.1430   48.9820 C   0  0  0  0  0  0  0  0  0  0  0  0
   38.0560   32.3900   49.3800 C   0  0  0  0  0  0  0  0  0  0  0  0
   38.8760   33.0540   48.4480 C   0  0  0  0  0  0  0  0  0  0  0  0
   39.1780   32.4680   47.2610 N   0  0  0  0  0  0  0  0  0  0  0  0
   38.7100   31.2240   46.9110 C   0  0  0  0  0  0  0  0  0  0  0  0
   37.9080   30.5510   47.7990 N   0  0  0  0  0  0  0  0  0  0  0  0
   37.8100   32.8320   50.3130 H   0  0  0  0  0  0  0  0  0  0  0  0
   39.2660   34.0350   48.6830 H   0  0  0  0  0  0  0  0  0  0  0  0
   38.9680   30.7850   45.9580 H   0  0  0  0  0  0  0  0  0  0  0  0
   33.7840   28.6430   49.1450 C   0  0  0  0  0  0  0  0  0  0  0  0
   33.7990   29.4350   48.0080 C   0  0  0  0  0  0  0  0  0  0  0  0
   32.7900   29.1510   47.1880 N   0  0  0  0  0  0  0  0  0  0  0  0
   32.1140   28.1510   47.8190 C   0  0  0  0  0  0  0  0  0  0  0  0
   32.7110   27.8530   48.9840 N   0  0  0  0  0  0  0  0  0  0  0  0
   34.5110   30.2240   47.7300 H   0  0  0  0  0  0  0  0  0  0  0  0
   32.5260   29.5620   46.2650 H   0  0  0  0  0  0  0  0  0  0  0  0
   29.7560   27.3370   48.1140 C   0  0  0  0  0  0  0  0  0  0  0  0
   30.9110   27.4560   47.3600 C   0  0  0  0  0  0  0  0  0  0  0  0
   30.9420   26.8890   46.0950 C   0  0  0  0  0  0  0  0  0  0  0  0
   31.8370   26.9640   45.4750 H   0  0  0  0  0  0  0  0  0  0  0  0
   29.8710   26.2020   45.5380 C   0  0  0  0  0  0  0  0  0  0  0  0
   29.9420   25.7760   44.5470 H   0  0  0  0  0  0  0  0  0  0  0  0
   28.7420   26.1060   46.3200 C   0  0  0  0  0  0  0  0  0  0  0  0
   28.6600   26.6510   47.5810 C   0  0  0  0  0  0  0  0  0  0  0  0
   30.9270   28.4760   50.1410 H   0  0  0  0  0  0  0  0  0  0  0  0
   29.7220   28.0530   49.7040 S   0  0  0  0  0  0  0  0  0  0  0  0
   29.2490   26.9730   50.6680 O   0  0  0  0  0  0  0  0  0  0  0  0
   28.6450   29.1230   49.7970 O   0  0  0  0  0  0  0  0  0  0  0  0
  1  2  1  0  0  0  0
  1  3  1  0  0  0  0
  4  6  1  0  0  0  0
  4  7  1  1  0  0  0
  5  8  1  6  0  0  0
  5  4  1  0  0  0  0
  5  1  1  0  0  0  0
  5  6  1  0  0  0  0
  6  9  1  0  0  0  0
 10  6  1  0  0  0  0
 11 12  1  0  0  0  0
 11  4  1  0  0  0  0
 12 17  1  0  0  0  0
 13 18  1  0  0  0  0
 13 12  2  0  0  0  0
 14 13  1  0  0  0  0
 15 14  2  0  0  0  0
 15 16  1  0  0  0  0
 16 11  2  0  0  0  0
 19 15  1  0  0  0  0
 20  1  1  0  0  0  0
 21 20  2  0  0  0  0
 22 23  1  0  0  0  0
 22 21  1  0  0  0  0
 23 24  2  0  0  0  0
 24 20  1  0  0  0  0
 25 21  1  0  0  0  0
 26 22  1  0  0  0  0
 27 36  1  0  0  0  0
 28 23  1  0  0  0  0
 28 27  2  0  0  0  0
 29 28  1  0  0  0  0
 30 29  1  0  0  0  0
 31 29  2  0  0  0  0
 31 33  1  0  0  0  0
 32 31  1  0  0  0  0
 33 34  2  0  0  0  0
 34 27  1  0  0  0  0
 36 38  2  0  0  0  0
 36 35  1  0  0  0  0
 36 37  2  0  0  0  0
M  END
>  <minimizedAffinity>
-6.36170053

>  <minimizedRMSD>
1.2055819

$$$$
