
 OpenBabel03272510183D

 31 33  0  0  0  0  0  0  0  0999 V2000
   37.8720   26.9810   31.0130 Br  0  0  0  0  0  0  0  0  0  0  0  0
   36.9140   28.0870   32.2480 C   0  0  0  0  0  0  0  0  0  0  0  0
   37.0460   27.9080   33.6060 C   0  0  0  0  0  0  0  0  0  0  0  0
   36.3260   28.7420   34.4280 C   0  0  0  0  0  0  0  0  0  0  0  0
   35.4820   29.7440   33.9540 C   0  0  0  0  0  0  0  0  0  0  0  0
   35.3860   29.8800   32.5940 C   0  0  0  0  0  0  0  0  0  0  0  0
   36.0970   29.0590   31.7490 C   0  0  0  0  0  0  0  0  0  0  0  0
   36.4690   28.5540   35.5030 H   0  0  0  0  0  0  0  0  0  0  0  0
   34.7220   30.6700   32.2710 H   0  0  0  0  0  0  0  0  0  0  0  0
   35.9770   29.2190   30.6780 H   0  0  0  0  0  0  0  0  0  0  0  0
   40.0330   26.2880   34.9420 C   0  0  0  0  0  0  0  0  0  0  0  0
   39.6190   24.9480   35.1580 C   0  0  0  0  0  0  0  0  0  0  0  0
   38.3030   24.6270   34.8360 C   0  0  0  0  0  0  0  0  0  0  0  0
   37.4910   25.6010   34.3360 N   0  0  0  0  0  0  0  0  0  0  0  0
   37.9220   26.8680   34.1430 C   0  0  0  0  0  0  0  0  0  0  0  0
   39.1930   27.1950   34.4500 N   0  0  0  0  0  0  0  0  0  0  0  0
   41.0470   26.6240   35.1680 H   0  0  0  0  0  0  0  0  0  0  0  0
   40.3290   24.2420   35.5580 H   0  0  0  0  0  0  0  0  0  0  0  0
   37.9560   23.6100   34.9910 H   0  0  0  0  0  0  0  0  0  0  0  0
   33.4970   30.4740   35.3220 C   0  0  0  0  0  0  0  0  0  0  0  0
   34.8160   30.5120   35.0000 C   0  0  0  0  0  0  0  0  0  0  0  0
   35.6160   31.3800   35.7500 C   0  0  0  0  0  0  0  0  0  0  0  0
   36.6960   31.4760   35.5590 H   0  0  0  0  0  0  0  0  0  0  0  0
   35.1570   32.1720   36.7610 C   0  0  0  0  0  0  0  0  0  0  0  0
   35.7980   32.8330   37.3230 H   0  0  0  0  0  0  0  0  0  0  0  0
   33.8250   32.1300   37.0820 C   0  0  0  0  0  3  0  0  0  0  0  0
   33.0230   31.2830   36.3570 C   0  0  0  0  0  3  0  0  0  0  0  0
   33.2050   28.5010   33.7390 H   0  0  0  0  0  0  0  0  0  0  0  0
   32.4730   29.4140   34.4210 S   0  0  0  0  0  0  0  0  0  0  0  0
   31.3740   28.7930   35.2400 O   0  0  0  0  0  0  0  0  0  0  0  0
   31.7850   30.2710   33.3660 O   0  0  0  0  0  0  0  0  0  0  0  0
  1  2  1  0  0  0  0
  2  3  1  0  0  0  0
  3 15  1  0  0  0  0
  3  4  2  0  0  0  0
  4  8  1  0  0  0  0
  5  4  1  0  0  0  0
  5 21  1  0  0  0  0
  6  5  2  0  0  0  0
  7  2  2  0  0  0  0
  7  6  1  0  0  0  0
  9  6  1  0  0  0  0
 10  7  1  0  0  0  0
 11 12  1  0  0  0  0
 11 17  1  0  0  0  0
 12 18  1  0  0  0  0
 13 19  1  0  0  0  0
 13 12  2  0  0  0  0
 14 13  1  0  0  0  0
 15 14  2  0  0  0  0
 15 16  1  0  0  0  0
 16 11  2  0  0  0  0
 20 27  1  0  0  0  0
 21 20  2  0  0  0  0
 21 22  1  0  0  0  0
 22 24  2  0  0  0  0
 23 22  1  0  0  0  0
 24 26  1  0  0  0  0
 24 25  1  0  0  0  0
 27 26  2  0  0  0  0
 28 29  1  0  0  0  0
 29 30  2  0  0  0  0
 29 20  1  0  0  0  0
 31 29  2  0  0  0  0
M  END
>  <minimizedAffinity>
-5.64831781

$$$$

 OpenBabel03272510183D

 31 33  0  0  0  0  0  0  0  0999 V2000
   35.0850   31.9040   32.2140 Br  0  0  0  0  0  0  0  0  0  0  0  0
   35.8160   30.1960   32.6790 C   0  0  0  0  0  0  0  0  0  0  0  0
   35.6710   29.6890   33.9490 C   0  0  0  0  0  0  0  0  0  0  0  0
   36.2230   28.4560   34.2060 C   0  0  0  0  0  0  0  0  0  0  0  0
   36.9120   27.7110   33.2510 C   0  0  0  0  0  0  0  0  0  0  0  0
   37.0270   28.2610   32.0020 C   0  0  0  0  0  0  0  0  0  0  0  0
   36.4820   29.4930   31.7190 C   0  0  0  0  0  0  0  0  0  0  0  0
   36.0780   28.0990   35.2370 H   0  0  0  0  0  0  0  0  0  0  0  0
   37.5660   27.6490   31.2920 H   0  0  0  0  0  0  0  0  0  0  0  0
   36.6080   29.8760   30.7060 H   0  0  0  0  0  0  0  0  0  0  0  0
   35.0600   31.9810   36.7250 C   0  0  0  0  0  0  0  0  0  0  0  0
   33.6610   31.8820   36.9400 C   0  0  0  0  0  0  0  0  0  0  0  0
   32.9490   31.0170   36.1130 C   0  0  0  0  0  0  0  0  0  0  0  0
   33.6210   30.3190   35.1540 N   0  0  0  0  0  0  0  0  0  0  0  0
   34.9560   30.4400   34.9800 C   0  0  0  0  0  0  0  0  0  0  0  0
   35.6610   31.2730   35.7710 N   0  0  0  0  0  0  0  0  0  0  0  0
   35.6930   32.6350   37.3290 H   0  0  0  0  0  0  0  0  0  0  0  0
   33.2110   32.4710   37.7220 H   0  0  0  0  0  0  0  0  0  0  0  0
   31.8760   30.9200   36.2520 H   0  0  0  0  0  0  0  0  0  0  0  0
   37.4050   25.2470   33.0690 C   0  0  0  0  0  0  0  0  0  0  0  0
   37.4140   26.4310   33.7360 C   0  0  0  0  0  0  0  0  0  0  0  0
   37.9610   26.4150   35.0240 C   0  0  0  0  0  0  0  0  0  0  0  0
   38.0100   27.3280   35.6390 H   0  0  0  0  0  0  0  0  0  0  0  0
   38.4720   25.3080   35.6320 C   0  0  0  0  0  0  0  0  0  0  0  0
   38.8880   25.3250   36.6270 H   0  0  0  0  0  0  0  0  0  0  0  0
   38.4610   24.1160   34.9550 C   0  0  0  0  0  3  0  0  0  0  0  0
   37.9280   24.1100   33.6880 C   0  0  0  0  0  3  0  0  0  0  0  0
   36.7110   26.4670   30.9440 H   0  0  0  0  0  0  0  0  0  0  0  0
   36.7390   25.2220   31.4750 S   0  0  0  0  0  0  0  0  0  0  0  0
   37.3840   24.2100   30.5670 O   0  0  0  0  0  0  0  0  0  0  0  0
   35.2840   24.7950   31.6220 O   0  0  0  0  0  0  0  0  0  0  0  0
  1  2  1  0  0  0  0
  2  3  1  0  0  0  0
  3  4  2  0  0  0  0
  3 15  1  0  0  0  0
  4  8  1  0  0  0  0
  5 21  1  0  0  0  0
  5  4  1  0  0  0  0
  6  5  2  0  0  0  0
  7  6  1  0  0  0  0
  7  2  2  0  0  0  0
  9  6  1  0  0  0  0
 10  7  1  0  0  0  0
 11 12  1  0  0  0  0
 11 17  1  0  0  0  0
 12 18  1  0  0  0  0
 13 19  1  0  0  0  0
 13 12  2  0  0  0  0
 14 13  1  0  0  0  0
 15 14  2  0  0  0  0
 15 16  1  0  0  0  0
 16 11  2  0  0  0  0
 20 27  2  0  0  0  0
 20 21  1  0  0  0  0
 21 22  2  0  0  0  0
 22 24  1  0  0  0  0
 22 23  1  0  0  0  0
 24 25  1  0  0  0  0
 26 24  2  0  0  0  0
 27 26  1  0  0  0  0
 28 29  1  0  0  0  0
 29 31  2  0  0  0  0
 29 20  1  0  0  0  0
 30 29  2  0  0  0  0
M  END
>  <minimizedAffinity>
-5.61831141

$$$$

 OpenBabel03272510183D

 31 33  0  0  0  0  0  0  0  0999 V2000
   37.4260   28.6910   29.5620 Br  0  0  0  0  0  0  0  0  0  0  0  0
   36.5910   29.4340   31.1160 C   0  0  0  0  0  0  0  0  0  0  0  0
   36.1040   28.6210   32.1130 C   0  0  0  0  0  0  0  0  0  0  0  0
   35.5190   29.2300   33.1980 C   0  0  0  0  0  0  0  0  0  0  0  0
   35.3980   30.6120   33.3280 C   0  0  0  0  0  0  0  0  0  0  0  0
   35.8990   31.3760   32.3070 C   0  0  0  0  0  0  0  0  0  0  0  0
   36.4910   30.7910   31.2110 C   0  0  0  0  0  0  0  0  0  0  0  0
   35.1470   28.5330   33.9640 H   0  0  0  0  0  0  0  0  0  0  0  0
   35.7860   32.4420   32.4510 H   0  0  0  0  0  0  0  0  0  0  0  0
   36.8700   31.4540   30.4330 H   0  0  0  0  0  0  0  0  0  0  0  0
   37.3290   25.2240   32.6540 C   0  0  0  0  0  0  0  0  0  0  0  0
   36.4620   24.4260   31.8640 C   0  0  0  0  0  0  0  0  0  0  0  0
   35.4600   25.0820   31.1540 C   0  0  0  0  0  0  0  0  0  0  0  0
   35.3650   26.4390   31.2510 N   0  0  0  0  0  0  0  0  0  0  0  0
   36.2120   27.1660   32.0140 C   0  0  0  0  0  0  0  0  0  0  0  0
   37.1860   26.5470   32.7080 N   0  0  0  0  0  0  0  0  0  0  0  0
   38.1410   24.7900   33.2420 H   0  0  0  0  0  0  0  0  0  0  0  0
   36.6100   23.3580   31.8460 H   0  0  0  0  0  0  0  0  0  0  0  0
   34.7800   24.4980   30.5420 H   0  0  0  0  0  0  0  0  0  0  0  0
   33.4100   31.0690   34.8050 C   0  0  0  0  0  0  0  0  0  0  0  0
   34.7450   31.0440   34.5590 C   0  0  0  0  0  0  0  0  0  0  0  0
   35.5780   31.4810   35.5950 C   0  0  0  0  0  0  0  0  0  0  0  0
   36.6740   31.4960   35.4840 H   0  0  0  0  0  0  0  0  0  0  0  0
   35.1360   31.9200   36.8070 C   0  0  0  0  0  0  0  0  0  0  0  0
   35.8010   32.2510   37.5880 H   0  0  0  0  0  0  0  0  0  0  0  0
   33.7870   31.9430   37.0510 C   0  0  0  0  0  3  0  0  0  0  0  0
   32.9520   31.5170   36.0460 C   0  0  0  0  0  3  0  0  0  0  0  0
   32.8250   30.8790   32.3340 H   0  0  0  0  0  0  0  0  0  0  0  0
   32.3450   30.5370   33.5530 S   0  0  0  0  0  0  0  0  0  0  0  0
   31.9760   29.0810   33.6520 O   0  0  0  0  0  0  0  0  0  0  0  0
   31.0490   31.3180   33.7280 O   0  0  0  0  0  0  0  0  0  0  0  0
  1  2  1  0  0  0  0
  2  7  2  0  0  0  0
  2  3  1  0  0  0  0
  3  4  2  0  0  0  0
  4  5  1  0  0  0  0
  4  8  1  0  0  0  0
  5 21  1  0  0  0  0
  6  9  1  0  0  0  0
  6  5  2  0  0  0  0
  7  6  1  0  0  0  0
 10  7  1  0  0  0  0
 11 16  1  0  0  0  0
 11 17  1  0  0  0  0
 12 11  2  0  0  0  0
 13 14  2  0  0  0  0
 13 12  1  0  0  0  0
 14 15  1  0  0  0  0
 15  3  1  0  0  0  0
 15 16  2  0  0  0  0
 18 12  1  0  0  0  0
 19 13  1  0  0  0  0
 20 27  1  0  0  0  0
 21 20  2  0  0  0  0
 21 22  1  0  0  0  0
 22 24  2  0  0  0  0
 23 22  1  0  0  0  0
 24 26  1  0  0  0  0
 24 25  1  0  0  0  0
 27 26  2  0  0  0  0
 28 29  1  0  0  0  0
 29 30  2  0  0  0  0
 29 31  2  0  0  0  0
 29 20  1  0  0  0  0
M  END
>  <minimizedAffinity>
-5.55340672

$$$$

 OpenBabel03272510183D

 31 33  0  0  0  0  0  0  0  0999 V2000
   35.5370   23.8460   31.0270 Br  0  0  0  0  0  0  0  0  0  0  0  0
   36.8050   23.4150   32.3970 C   0  0  0  0  0  0  0  0  0  0  0  0
   37.6580   24.3730   32.8950 C   0  0  0  0  0  0  0  0  0  0  0  0
   38.5380   23.9870   33.8770 C   0  0  0  0  0  0  0  0  0  0  0  0
   38.6050   22.6890   34.3810 C   0  0  0  0  0  0  0  0  0  0  0  0
   37.7340   21.7740   33.8500 C   0  0  0  0  0  0  0  0  0  0  0  0
   36.8410   22.1360   32.8670 C   0  0  0  0  0  0  0  0  0  0  0  0
   39.1970   24.7910   34.2390 H   0  0  0  0  0  0  0  0  0  0  0  0
   37.8180   20.7820   34.2700 H   0  0  0  0  0  0  0  0  0  0  0  0
   36.1740   21.3620   32.4860 H   0  0  0  0  0  0  0  0  0  0  0  0
   36.7970   27.9120   32.6400 C   0  0  0  0  0  0  0  0  0  0  0  0
   37.5100   28.3480   31.4930 C   0  0  0  0  0  0  0  0  0  0  0  0
   38.2830   27.4030   30.8250 C   0  0  0  0  0  0  0  0  0  0  0  0
   38.3150   26.1240   31.2970 N   0  0  0  0  0  0  0  0  0  0  0  0
   37.6200   25.7460   32.3930 C   0  0  0  0  0  0  0  0  0  0  0  0
   36.8670   26.6480   33.0520 N   0  0  0  0  0  0  0  0  0  0  0  0
   36.1670   28.5880   33.2210 H   0  0  0  0  0  0  0  0  0  0  0  0
   37.4270   29.3790   31.1900 H   0  0  0  0  0  0  0  0  0  0  0  0
   38.8420   27.7060   29.9440 H   0  0  0  0  0  0  0  0  0  0  0  0
   39.4720   22.7580   36.7440 C   0  0  0  0  0  0  0  0  0  0  0  0
   39.6110   22.4980   35.4190 C   0  0  0  0  0  0  0  0  0  0  0  0
   40.8520   21.9970   35.0090 C   0  0  0  0  0  0  0  0  0  0  0  0
   41.0550   21.7580   33.9530 H   0  0  0  0  0  0  0  0  0  0  0  0
   41.9020   21.7620   35.8450 C   0  0  0  0  0  0  0  0  0  0  0  0
   42.8480   21.3740   35.5020 H   0  0  0  0  0  0  0  0  0  0  0  0
   41.7560   22.0260   37.1820 C   0  0  0  0  0  3  0  0  0  0  0  0
   40.5450   22.5180   37.6040 C   0  0  0  0  0  3  0  0  0  0  0  0
   36.9620   23.0530   36.4310 H   0  0  0  0  0  0  0  0  0  0  0  0
   37.9550   23.3770   37.2930 S   0  0  0  0  0  0  0  0  0  0  0  0
   37.6360   23.0190   38.7190 O   0  0  0  0  0  0  0  0  0  0  0  0
   38.0670   24.8960   37.2500 O   0  0  0  0  0  0  0  0  0  0  0  0
  1  2  1  0  0  0  0
  2  7  2  0  0  0  0
  2  3  1  0  0  0  0
  3  4  2  0  0  0  0
  4  8  1  0  0  0  0
  4  5  1  0  0  0  0
  5 21  1  0  0  0  0
  6  9  1  0  0  0  0
  6  5  2  0  0  0  0
  7  6  1  0  0  0  0
 10  7  1  0  0  0  0
 11 16  1  0  0  0  0
 11 17  1  0  0  0  0
 12 11  2  0  0  0  0
 13 14  2  0  0  0  0
 13 12  1  0  0  0  0
 14 15  1  0  0  0  0
 15  3  1  0  0  0  0
 15 16  2  0  0  0  0
 18 12  1  0  0  0  0
 19 13  1  0  0  0  0
 20 29  1  0  0  0  0
 20 27  1  0  0  0  0
 21 20  2  0  0  0  0
 22 21  1  0  0  0  0
 22 24  2  0  0  0  0
 23 22  1  0  0  0  0
 24 26  1  0  0  0  0
 25 24  1  0  0  0  0
 26 27  2  0  0  0  0
 28 29  1  0  0  0  0
 29 30  2  0  0  0  0
 31 29  2  0  0  0  0
M  END
>  <minimizedAffinity>
-5.24226522

$$$$

 OpenBabel03272510183D

 31 33  0  0  0  0  0  0  0  0999 V2000
   33.1580   31.7030   32.1400 Br  0  0  0  0  0  0  0  0  0  0  0  0
   34.4150   30.3870   32.7370 C   0  0  0  0  0  0  0  0  0  0  0  0
   34.2970   29.8110   33.9800 C   0  0  0  0  0  0  0  0  0  0  0  0
   35.2370   28.8740   34.3360 C   0  0  0  0  0  0  0  0  0  0  0  0
   36.2890   28.4890   33.5070 C   0  0  0  0  0  0  0  0  0  0  0  0
   36.3610   29.0940   32.2790 C   0  0  0  0  0  0  0  0  0  0  0  0
   35.4300   30.0340   31.8980 C   0  0  0  0  0  0  0  0  0  0  0  0
   35.0950   28.4460   35.3400 H   0  0  0  0  0  0  0  0  0  0  0  0
   37.1890   28.7650   31.6680 H   0  0  0  0  0  0  0  0  0  0  0  0
   35.5430   30.4770   30.9090 H   0  0  0  0  0  0  0  0  0  0  0  0
   32.4840   31.5220   36.6490 C   0  0  0  0  0  0  0  0  0  0  0  0
   31.1920   30.9370   36.6050 C   0  0  0  0  0  0  0  0  0  0  0  0
   30.9690   29.9540   35.6450 C   0  0  0  0  0  0  0  0  0  0  0  0
   31.9880   29.6070   34.8080 N   0  0  0  0  0  0  0  0  0  0  0  0
   33.2080   30.1870   34.8810 C   0  0  0  0  0  0  0  0  0  0  0  0
   33.4400   31.1400   35.8040 N   0  0  0  0  0  0  0  0  0  0  0  0
   32.7430   32.2990   37.3710 H   0  0  0  0  0  0  0  0  0  0  0  0
   30.4460   31.2720   37.3060 H   0  0  0  0  0  0  0  0  0  0  0  0
   29.9900   29.4880   35.5850 H   0  0  0  0  0  0  0  0  0  0  0  0
   37.4290   26.2450   33.5810 C   0  0  0  0  0  0  0  0  0  0  0  0
   37.1700   27.4800   34.0820 C   0  0  0  0  0  0  0  0  0  0  0  0
   37.8150   27.8150   35.2780 C   0  0  0  0  0  0  0  0  0  0  0  0
   37.6630   28.7950   35.7580 H   0  0  0  0  0  0  0  0  0  0  0  0
   38.6680   26.9920   35.9510 C   0  0  0  0  0  0  0  0  0  0  0  0
   39.1520   27.2770   36.8720 H   0  0  0  0  0  0  0  0  0  0  0  0
   38.9270   25.7460   35.4400 C   0  0  0  0  0  3  0  0  0  0  0  0
   38.3030   25.3990   34.2660 C   0  0  0  0  0  3  0  0  0  0  0  0
   35.4140   26.3280   32.0270 H   0  0  0  0  0  0  0  0  0  0  0  0
   36.6540   25.7910   32.1050 S   0  0  0  0  0  0  0  0  0  0  0  0
   37.4870   26.0550   30.8790 O   0  0  0  0  0  0  0  0  0  0  0  0
   36.4560   24.2820   32.1680 O   0  0  0  0  0  0  0  0  0  0  0  0
  1  2  1  0  0  0  0
  2  3  1  0  0  0  0
  3  4  2  0  0  0  0
  3 15  1  0  0  0  0
  4  8  1  0  0  0  0
  5 21  1  0  0  0  0
  5  4  1  0  0  0  0
  6  5  2  0  0  0  0
  7  6  1  0  0  0  0
  7  2  2  0  0  0  0
  9  6  1  0  0  0  0
 10  7  1  0  0  0  0
 11 17  1  0  0  0  0
 12 11  1  0  0  0  0
 12 18  1  0  0  0  0
 13 12  2  0  0  0  0
 14 15  2  0  0  0  0
 14 13  1  0  0  0  0
 15 16  1  0  0  0  0
 16 11  2  0  0  0  0
 19 13  1  0  0  0  0
 20 21  2  0  0  0  0
 20 27  1  0  0  0  0
 21 22  1  0  0  0  0
 22 23  1  0  0  0  0
 22 24  2  0  0  0  0
 24 25  1  0  0  0  0
 26 24  1  0  0  0  0
 27 26  2  0  0  0  0
 28 29  1  0  0  0  0
 29 31  2  0  0  0  0
 29 20  1  0  0  0  0
 30 29  2  0  0  0  0
M  END
>  <minimizedAffinity>
-5.23115444

$$$$

 OpenBabel03272510183D

 31 33  0  0  0  0  0  0  0  0999 V2000
   38.7510   27.8260   30.5050 Br  0  0  0  0  0  0  0  0  0  0  0  0
   38.0720   26.1090   31.0110 C   0  0  0  0  0  0  0  0  0  0  0  0
   37.0380   25.9970   31.9110 C   0  0  0  0  0  0  0  0  0  0  0  0
   36.6050   24.7300   32.2240 C   0  0  0  0  0  0  0  0  0  0  0  0
   37.1600   23.5740   31.6780 C   0  0  0  0  0  0  0  0  0  0  0  0
   38.1870   23.7420   30.7870 C   0  0  0  0  0  0  0  0  0  0  0  0
   38.6380   24.9990   30.4560 C   0  0  0  0  0  0  0  0  0  0  0  0
   35.7770   24.6980   32.9480 H   0  0  0  0  0  0  0  0  0  0  0  0
   38.5860   22.8200   30.3870 H   0  0  0  0  0  0  0  0  0  0  0  0
   39.4580   25.0650   29.7410 H   0  0  0  0  0  0  0  0  0  0  0  0
   36.2870   28.6200   34.3370 C   0  0  0  0  0  0  0  0  0  0  0  0
   35.3150   29.4170   33.6790 C   0  0  0  0  0  0  0  0  0  0  0  0
   34.9340   29.0300   32.3970 C   0  0  0  0  0  0  0  0  0  0  0  0
   35.5050   27.9200   31.8470 N   0  0  0  0  0  0  0  0  0  0  0  0
   36.4290   27.1850   32.5070 C   0  0  0  0  0  0  0  0  0  0  0  0
   36.8090   27.5470   33.7480 N   0  0  0  0  0  0  0  0  0  0  0  0
   36.6410   28.8530   35.3440 H   0  0  0  0  0  0  0  0  0  0  0  0
   34.9160   30.2780   34.1890 H   0  0  0  0  0  0  0  0  0  0  0  0
   34.1930   29.6200   31.8670 H   0  0  0  0  0  0  0  0  0  0  0  0
   36.8560   21.6560   33.2820 C   0  0  0  0  0  0  0  0  0  0  0  0
   36.5490   22.3360   32.1470 C   0  0  0  0  0  0  0  0  0  0  0  0
   35.5420   21.7860   31.3460 C   0  0  0  0  0  0  0  0  0  0  0  0
   35.2280   22.2690   30.4060 H   0  0  0  0  0  0  0  0  0  0  0  0
   34.8690   20.6360   31.6320 C   0  0  0  0  0  0  0  0  0  0  0  0
   34.0970   20.2360   30.9950 H   0  0  0  0  0  0  0  0  0  0  0  0
   35.1830   19.9540   32.7790 C   0  0  0  0  0  3  0  0  0  0  0  0
   36.1690   20.4780   33.5800 C   0  0  0  0  0  3  0  0  0  0  0  0
   38.2060   23.6390   34.1360 H   0  0  0  0  0  0  0  0  0  0  0  0
   38.0930   22.3000   34.3020 S   0  0  0  0  0  0  0  0  0  0  0  0
   37.9580   21.8960   35.7460 O   0  0  0  0  0  0  0  0  0  0  0  0
   39.4080   21.7040   33.8150 O   0  0  0  0  0  0  0  0  0  0  0  0
  1  2  1  0  0  0  0
  2  3  1  0  0  0  0
  3  4  2  0  0  0  0
  3 15  1  0  0  0  0
  4  8  1  0  0  0  0
  5 21  1  0  0  0  0
  5  4  1  0  0  0  0
  6  5  2  0  0  0  0
  7  6  1  0  0  0  0
  7  2  2  0  0  0  0
  9  6  1  0  0  0  0
 10  7  1  0  0  0  0
 11 17  1  0  0  0  0
 12 18  1  0  0  0  0
 12 11  2  0  0  0  0
 13 12  1  0  0  0  0
 14 13  2  0  0  0  0
 14 15  1  0  0  0  0
 15 16  2  0  0  0  0
 16 11  1  0  0  0  0
 19 13  1  0  0  0  0
 20 27  1  0  0  0  0
 20 29  1  0  0  0  0
 21 20  2  0  0  0  0
 22 24  2  0  0  0  0
 22 21  1  0  0  0  0
 23 22  1  0  0  0  0
 24 26  1  0  0  0  0
 25 24  1  0  0  0  0
 26 27  2  0  0  0  0
 28 29  1  0  0  0  0
 29 30  2  0  0  0  0
 31 29  2  0  0  0  0
M  END
>  <minimizedAffinity>
-5.21186161

$$$$

 OpenBabel03272510183D

 31 33  0  0  0  0  0  0  0  0999 V2000
   38.8080   26.8050   35.3260 Br  0  0  0  0  0  0  0  0  0  0  0  0
   38.2410   25.3230   34.2550 C   0  0  0  0  0  0  0  0  0  0  0  0
   38.1300   24.0630   34.7950 C   0  0  0  0  0  0  0  0  0  0  0  0
   37.7160   23.0510   33.9620 C   0  0  0  0  0  0  0  0  0  0  0  0
   37.4100   23.2420   32.6160 C   0  0  0  0  0  0  0  0  0  0  0  0
   37.5370   24.5160   32.1280 C   0  0  0  0  0  0  0  0  0  0  0  0
   37.9480   25.5480   32.9420 C   0  0  0  0  0  0  0  0  0  0  0  0
   37.6460   22.0650   34.4460 H   0  0  0  0  0  0  0  0  0  0  0  0
   37.2880   24.6200   31.0820 H   0  0  0  0  0  0  0  0  0  0  0  0
   38.0290   26.5370   32.4930 H   0  0  0  0  0  0  0  0  0  0  0  0
   37.7740   23.9980   38.4280 C   0  0  0  0  0  0  0  0  0  0  0  0
   38.9760   23.3890   38.8720 C   0  0  0  0  0  0  0  0  0  0  0  0
   39.8960   23.0090   37.8990 C   0  0  0  0  0  0  0  0  0  0  0  0
   39.5990   23.2370   36.5880 N   0  0  0  0  0  0  0  0  0  0  0  0
   38.4420   23.8210   36.2030 C   0  0  0  0  0  0  0  0  0  0  0  0
   37.5410   24.1950   37.1330 N   0  0  0  0  0  0  0  0  0  0  0  0
   37.0000   24.3260   39.1260 H   0  0  0  0  0  0  0  0  0  0  0  0
   39.1280   23.2480   39.9300 H   0  0  0  0  0  0  0  0  0  0  0  0
   40.8250   22.5400   38.2070 H   0  0  0  0  0  0  0  0  0  0  0  0
   37.7000   21.3440   30.9870 C   0  0  0  0  0  0  0  0  0  0  0  0
   36.9910   22.0330   31.9180 C   0  0  0  0  0  0  0  0  0  0  0  0
   35.7260   21.5270   32.2370 C   0  0  0  0  0  0  0  0  0  0  0  0
   35.0800   22.0210   32.9810 H   0  0  0  0  0  0  0  0  0  0  0  0
   35.1780   20.4100   31.6800 C   0  0  0  0  0  0  0  0  0  0  0  0
   34.1990   20.0430   31.9450 H   0  0  0  0  0  0  0  0  0  0  0  0
   35.8980   19.7190   30.7400 C   0  0  0  0  0  3  0  0  0  0  0  0
   37.1430   20.1990   30.4140 C   0  0  0  0  0  3  0  0  0  0  0  0
   39.2240   23.2540   30.2710 H   0  0  0  0  0  0  0  0  0  0  0  0
   39.2680   21.9330   30.5640 S   0  0  0  0  0  0  0  0  0  0  0  0
   40.3340   21.5890   31.5690 O   0  0  0  0  0  0  0  0  0  0  0  0
   39.6590   21.2290   29.2710 O   0  0  0  0  0  0  0  0  0  0  0  0
  2  3  1  0  0  0  0
  2  1  1  0  0  0  0
  3 15  1  0  0  0  0
  4  8  1  0  0  0  0
  4  3  2  0  0  0  0
  5  4  1  0  0  0  0
  6  5  2  0  0  0  0
  6  7  1  0  0  0  0
  7  2  2  0  0  0  0
  9  6  1  0  0  0  0
 10  7  1  0  0  0  0
 11 12  1  0  0  0  0
 11 17  1  0  0  0  0
 12 18  1  0  0  0  0
 13 19  1  0  0  0  0
 13 12  2  0  0  0  0
 14 13  1  0  0  0  0
 15 14  2  0  0  0  0
 15 16  1  0  0  0  0
 16 11  2  0  0  0  0
 20 21  1  0  0  0  0
 21 22  2  0  0  0  0
 21  5  1  0  0  0  0
 22 23  1  0  0  0  0
 24 25  1  0  0  0  0
 24 22  1  0  0  0  0
 26 24  2  0  0  0  0
 27 26  1  0  0  0  0
 27 20  2  0  0  0  0
 28 29  1  0  0  0  0
 29 20  1  0  0  0  0
 29 30  2  0  0  0  0
 31 29  2  0  0  0  0
M  END
>  <minimizedAffinity>
-5.1949358

$$$$

 OpenBabel03272510183D

 31 33  0  0  0  0  0  0  0  0999 V2000
   38.0370   27.2130   30.9220 Br  0  0  0  0  0  0  0  0  0  0  0  0
   36.8450   28.1140   32.1200 C   0  0  0  0  0  0  0  0  0  0  0  0
   36.9030   27.8880   33.4760 C   0  0  0  0  0  0  0  0  0  0  0  0
   36.0150   28.5720   34.2710 C   0  0  0  0  0  0  0  0  0  0  0  0
   35.0730   29.4700   33.7710 C   0  0  0  0  0  0  0  0  0  0  0  0
   35.0570   29.6590   32.4150 C   0  0  0  0  0  0  0  0  0  0  0  0
   35.9370   28.9870   31.5970 C   0  0  0  0  0  0  0  0  0  0  0  0
   36.1040   28.3540   35.3460 H   0  0  0  0  0  0  0  0  0  0  0  0
   34.3140   30.3640   32.0710 H   0  0  0  0  0  0  0  0  0  0  0  0
   35.8740   29.1810   30.5260 H   0  0  0  0  0  0  0  0  0  0  0  0
   38.3720   24.7650   34.6680 C   0  0  0  0  0  0  0  0  0  0  0  0
   39.6700   25.1470   35.0950 C   0  0  0  0  0  0  0  0  0  0  0  0
   40.0170   26.4880   34.9610 C   0  0  0  0  0  0  0  0  0  0  0  0
   39.1050   27.3550   34.4350 N   0  0  0  0  0  0  0  0  0  0  0  0
   37.8760   26.9530   34.0400 C   0  0  0  0  0  0  0  0  0  0  0  0
   37.5240   25.6580   34.1630 N   0  0  0  0  0  0  0  0  0  0  0  0
   38.0190   23.7340   34.7390 H   0  0  0  0  0  0  0  0  0  0  0  0
   40.3270   24.3940   35.5000 H   0  0  0  0  0  0  0  0  0  0  0  0
   41.0040   26.8110   35.2770 H   0  0  0  0  0  0  0  0  0  0  0  0
   34.4570   31.2620   35.4310 C   0  0  0  0  0  0  0  0  0  0  0  0
   34.2310   30.0860   34.7900 C   0  0  0  0  0  0  0  0  0  0  0  0
   33.0690   29.3950   35.1510 C   0  0  0  0  0  0  0  0  0  0  0  0
   32.8050   28.4320   34.6840 H   0  0  0  0  0  0  0  0  0  0  0  0
   32.1740   29.8240   36.0840 C   0  0  0  0  0  0  0  0  0  0  0  0
   31.2850   29.2700   36.3420 H   0  0  0  0  0  0  0  0  0  0  0  0
   32.4070   31.0120   36.7280 C   0  0  0  0  0  3  0  0  0  0  0  0
   33.5430   31.7070   36.3870 C   0  0  0  0  0  3  0  0  0  0  0  0
   36.9810   31.3660   35.1090 H   0  0  0  0  0  0  0  0  0  0  0  0
   35.8810   32.1490   35.0150 S   0  0  0  0  0  0  0  0  0  0  0  0
   35.7810   32.8700   33.6980 O   0  0  0  0  0  0  0  0  0  0  0  0
   36.0420   33.2280   36.0790 O   0  0  0  0  0  0  0  0  0  0  0  0
  1  2  1  0  0  0  0
  2  3  1  0  0  0  0
  3 15  1  0  0  0  0
  3  4  2  0  0  0  0
  4  8  1  0  0  0  0
  5  4  1  0  0  0  0
  5 21  1  0  0  0  0
  6  5  2  0  0  0  0
  7  2  2  0  0  0  0
  7  6  1  0  0  0  0
  9  6  1  0  0  0  0
 10  7  1  0  0  0  0
 11 17  1  0  0  0  0
 11 12  1  0  0  0  0
 12 18  1  0  0  0  0
 13 12  2  0  0  0  0
 13 19  1  0  0  0  0
 14 13  1  0  0  0  0
 15 16  1  0  0  0  0
 15 14  2  0  0  0  0
 16 11  2  0  0  0  0
 20 27  1  0  0  0  0
 21 22  1  0  0  0  0
 21 20  2  0  0  0  0
 22 24  2  0  0  0  0
 23 22  1  0  0  0  0
 24 25  1  0  0  0  0
 24 26  1  0  0  0  0
 27 26  2  0  0  0  0
 29 28  1  0  0  0  0
 29 20  1  0  0  0  0
 29 31  2  0  0  0  0
 30 29  2  0  0  0  0
M  END
>  <minimizedAffinity>
-5.19365311

$$$$

 OpenBabel03272510183D

 31 33  0  0  0  0  0  0  0  0999 V2000
   35.8060   32.8360   32.1390 Br  0  0  0  0  0  0  0  0  0  0  0  0
   35.9930   30.9360   31.9950 C   0  0  0  0  0  0  0  0  0  0  0  0
   35.6260   30.1100   33.0320 C   0  0  0  0  0  0  0  0  0  0  0  0
   35.7890   28.7570   32.8520 C   0  0  0  0  0  0  0  0  0  0  0  0
   36.3040   28.1950   31.6850 C   0  0  0  0  0  0  0  0  0  0  0  0
   36.6550   29.0620   30.6840 C   0  0  0  0  0  0  0  0  0  0  0  0
   36.4990   30.4210   30.8380 C   0  0  0  0  0  0  0  0  0  0  0  0
   35.4800   28.1440   33.7120 H   0  0  0  0  0  0  0  0  0  0  0  0
   37.0470   28.5840   29.7970 H   0  0  0  0  0  0  0  0  0  0  0  0
   36.7970   31.0570   30.0040 H   0  0  0  0  0  0  0  0  0  0  0  0
   33.1970   31.1350   35.5570 C   0  0  0  0  0  0  0  0  0  0  0  0
   33.9990   31.6840   36.5910 C   0  0  0  0  0  0  0  0  0  0  0  0
   35.3770   31.6880   36.3940 C   0  0  0  0  0  0  0  0  0  0  0  0
   35.8790   31.1730   35.2360 N   0  0  0  0  0  0  0  0  0  0  0  0
   35.0810   30.6600   34.2720 C   0  0  0  0  0  0  0  0  0  0  0  0
   33.7450   30.6480   34.4470 N   0  0  0  0  0  0  0  0  0  0  0  0
   32.1080   31.0940   35.6310 H   0  0  0  0  0  0  0  0  0  0  0  0
   33.5180   32.0690   37.4750 H   0  0  0  0  0  0  0  0  0  0  0  0
   36.0190   32.1000   37.1680 H   0  0  0  0  0  0  0  0  0  0  0  0
   37.4160   25.9940   32.1960 C   0  0  0  0  0  0  0  0  0  0  0  0
   36.3920   26.7400   31.7070 C   0  0  0  0  0  0  0  0  0  0  0  0
   35.3100   26.0350   31.1680 C   0  0  0  0  0  0  0  0  0  0  0  0
   34.4350   26.5570   30.7480 H   0  0  0  0  0  0  0  0  0  0  0  0
   35.2290   24.6760   31.1060 C   0  0  0  0  0  0  0  0  0  0  0  0
   34.3810   24.1590   30.6850 H   0  0  0  0  0  0  0  0  0  0  0  0
   36.2650   23.9270   31.6010 C   0  0  0  0  0  3  0  0  0  0  0  0
   37.3360   24.6010   32.1360 C   0  0  0  0  0  3  0  0  0  0  0  0
   39.1110   27.8920   32.1130 H   0  0  0  0  0  0  0  0  0  0  0  0
   38.7720   26.8240   32.8730 S   0  0  0  0  0  0  0  0  0  0  0  0
   38.6060   27.1670   34.3290 O   0  0  0  0  0  0  0  0  0  0  0  0
   39.9500   25.8620   32.7940 O   0  0  0  0  0  0  0  0  0  0  0  0
  2  1  1  0  0  0  0
  2  3  1  0  0  0  0
  3 15  1  0  0  0  0
  4  3  2  0  0  0  0
  4  8  1  0  0  0  0
  5 21  1  0  0  0  0
  5  4  1  0  0  0  0
  6  7  1  0  0  0  0
  6  5  2  0  0  0  0
  7  2  2  0  0  0  0
  9  6  1  0  0  0  0
 10  7  1  0  0  0  0
 11 17  1  0  0  0  0
 11 12  1  0  0  0  0
 12 18  1  0  0  0  0
 13 12  2  0  0  0  0
 13 19  1  0  0  0  0
 14 13  1  0  0  0  0
 15 16  1  0  0  0  0
 15 14  2  0  0  0  0
 16 11  2  0  0  0  0
 20 29  1  0  0  0  0
 21 20  2  0  0  0  0
 22 21  1  0  0  0  0
 23 22  1  0  0  0  0
 24 22  2  0  0  0  0
 24 26  1  0  0  0  0
 25 24  1  0  0  0  0
 26 27  2  0  0  0  0
 27 20  1  0  0  0  0
 28 29  1  0  0  0  0
 29 30  2  0  0  0  0
 31 29  2  0  0  0  0
M  END
>  <minimizedAffinity>
-5.16939497

$$$$
