
 OpenBabel03272505003D

 31 33  0  0  0  0  0  0  0  0999 V2000
   37.9800   29.6120   44.4050 Cl  0  0  0  0  0  0  0  0  0  0  0  0
   38.8410   30.9660   45.1000 C   0  0  0  0  0  0  0  0  0  0  0  0
   38.5180   31.3710   46.3600 C   0  0  0  0  0  0  0  0  0  0  0  0
   39.2420   32.4560   46.8600 C   0  0  0  0  0  0  0  0  0  0  0  0
   40.2260   33.0610   46.0830 C   0  0  0  0  0  0  0  0  0  0  0  0
   40.5170   32.6200   44.8220 C   0  0  0  0  0  0  0  0  0  0  0  0
   39.8020   31.5480   44.3270 C   0  0  0  0  0  0  0  0  0  0  0  0
   38.9950   32.7870   47.8610 H   0  0  0  0  0  0  0  0  0  0  0  0
   40.7330   33.8920   46.5520 H   0  0  0  0  0  0  0  0  0  0  0  0
   41.2870   33.1050   44.2320 H   0  0  0  0  0  0  0  0  0  0  0  0
   37.7750   30.2860   48.4840 C   0  0  0  0  0  0  0  0  0  0  0  0
   37.4920   30.7510   47.1870 C   0  0  0  0  0  0  0  0  0  0  0  0
   36.1880   30.5910   46.7300 C   0  0  0  0  0  0  0  0  0  0  0  0
   35.2680   30.0100   47.5320 N   0  0  0  0  0  0  0  0  0  0  0  0
   35.5720   29.5760   48.7720 C   0  0  0  0  0  0  0  0  0  0  0  0
   36.8330   29.7150   49.2500 N   0  0  0  0  0  0  0  0  0  0  0  0
   38.7960   30.3950   48.8780 H   0  0  0  0  0  0  0  0  0  0  0  0
   35.9210   30.9350   45.7320 H   0  0  0  0  0  0  0  0  0  0  0  0
   34.8200   29.1130   49.3980 H   0  0  0  0  0  0  0  0  0  0  0  0
   39.6650   31.7280   41.8280 C   0  0  0  0  0  0  0  0  0  0  0  0
   40.1530   31.1190   42.9760 C   0  0  0  0  0  0  0  0  0  0  0  0
   41.0300   30.0310   42.9130 C   0  0  0  0  0  0  0  0  0  0  0  0
   41.4190   29.5460   43.7990 H   0  0  0  0  0  0  0  0  0  0  0  0
   41.4210   29.5510   41.6770 C   0  0  0  0  0  0  0  0  0  0  0  0
   42.1000   28.7110   41.5560 H   0  0  0  0  0  0  0  0  0  0  0  0
   40.9490   30.1390   40.5020 C   0  0  0  0  0  0  0  0  0  0  0  0
   40.0770   31.2210   40.5920 C   0  0  0  0  0  0  0  0  0  0  0  0
   39.0180   33.8020   43.0760 H   0  0  0  0  0  0  0  0  0  0  0  0
   38.5820   33.0690   41.9810 S   0  0  0  0  0  0  0  0  0  0  0  0
   37.1660   32.5830   42.1930 O   0  0  0  0  0  0  0  0  0  0  0  0
   38.6560   33.9100   40.7390 O   0  0  0  0  0  0  0  0  0  0  0  0
  1  2  1  0  0  0  0
  2  3  1  0  0  0  0
  3  4  2  0  0  0  0
  3 12  1  0  0  0  0
  4  8  1  0  0  0  0
  5  9  1  0  0  0  0
  5  4  1  0  0  0  0
  6  5  2  0  0  0  0
  7  6  1  0  0  0  0
  7  2  2  0  0  0  0
 10  6  1  0  0  0  0
 11 17  1  0  0  0  0
 11 16  1  0  0  0  0
 12 11  2  0  0  0  0
 13 12  1  0  0  0  0
 13 14  2  0  0  0  0
 14 15  1  0  0  0  0
 15 16  2  0  0  0  0
 15 19  1  0  0  0  0
 18 13  1  0  0  0  0
 20 29  1  0  0  0  0
 20 21  1  0  0  0  0
 21  7  1  0  0  0  0
 22 21  2  0  0  0  0
 22 23  1  0  0  0  0
 24 22  1  0  0  0  0
 25 24  1  0  0  0  0
 26 27  1  0  0  0  0
 26 24  2  0  0  0  0
 27 20  2  0  0  0  0
 29 30  2  0  0  0  0
 29 28  1  0  0  0  0
 31 29  2  0  0  0  0
M  END
>  <minimizedAffinity>
-5.6361146

>  <minimizedRMSD>
3.02432632

$$$$
