
 OpenBabel03272508123D

 37 39  0  0  0  0  0  0  0  0999 V2000
   36.6600   29.5430   44.0750 Cl  0  0  0  0  0  0  0  0  0  0  0  0
   38.2890   29.9260   43.4980 C   0  0  0  0  0  0  0  0  0  0  0  0
   39.3140   30.3910   44.3130 C   0  0  0  0  0  0  0  0  0  0  0  0
   40.5480   30.6540   43.7300 C   0  0  0  0  0  0  0  0  0  0  0  0
   40.7390   30.4550   42.3810 C   0  0  0  0  0  0  0  0  0  0  0  0
   39.7450   30.0000   41.5680 C   0  0  0  0  0  0  0  0  0  0  0  0
   38.5290   29.7400   42.1360 C   0  0  0  0  0  0  0  0  0  0  0  0
   41.2780   31.0070   44.4190 H   0  0  0  0  0  0  0  0  0  0  0  0
   41.7130   30.6700   41.9590 H   0  0  0  0  0  0  0  0  0  0  0  0
   39.9530   29.8620   40.5110 H   0  0  0  0  0  0  0  0  0  0  0  0
   37.4530   27.8650   41.1360 C   0  0  0  0  0  0  0  0  0  0  0  0
   37.4760   29.2480   41.2310 C   0  0  0  0  0  0  0  0  0  0  0  0
   36.6000   30.0590   40.5440 C   0  0  0  0  0  0  0  0  0  0  0  0
   36.7130   31.1200   40.6970 H   0  0  0  0  0  0  0  0  0  0  0  0
   35.6440   29.5140   39.7180 C   0  0  0  0  0  0  0  0  0  0  0  0
   34.9860   30.1990   39.2070 H   0  0  0  0  0  0  0  0  0  0  0  0
   35.5950   28.1420   39.6020 C   0  0  0  0  0  3  0  0  0  0  0  0
   36.4710   27.3370   40.2890 C   0  0  0  0  0  3  0  0  0  0  0  0
   38.8500   27.3010   43.2380 H   0  0  0  0  0  0  0  0  0  0  0  0
   38.5350   26.7980   41.9810 S   0  0  0  0  0  0  0  0  0  0  0  0
   39.7530   26.4320   41.2170 O   0  0  0  0  0  0  0  0  0  0  0  0
   37.7920   25.5160   42.2590 O   0  0  0  0  0  0  0  0  0  0  0  0
   38.9230   30.5220   45.6160 O   0  0  0  0  0  0  0  0  0  0  0  0
   39.4520   32.5250   47.1550 O   0  0  0  0  0  0  0  0  0  0  0  0
   38.3350   31.8670   46.4300 P   0  0  1  0  0  0  0  0  0  0  0  0
   37.7470   32.8930   45.1980 O   0  0  0  0  0  0  0  0  0  0  0  0
   37.3470   32.3870   44.4550 H   0  0  0  0  0  0  0  0  0  0  0  0
   37.0510   31.3910   47.4290 O   0  0  0  0  0  0  0  0  0  0  0  0
   37.6060   30.5340   50.9750 C   0  0  0  0  0  0  0  0  0  0  0  0
   37.7070   31.2940   49.8060 C   0  0  0  0  0  0  0  0  0  0  0  0
   37.0850   30.8290   48.6590 C   0  0  0  0  0  0  0  0  0  0  0  0
   36.4010   29.6500   48.7220 N   0  0  0  0  0  0  0  0  0  0  0  0
   36.3220   28.9380   49.8730 C   0  0  0  0  0  0  0  0  0  0  0  0
   36.9300   29.3880   50.9960 N   0  0  0  0  0  0  0  0  0  0  0  0
   38.0890   30.9050   51.8470 H   0  0  0  0  0  0  0  0  0  0  0  0
   38.2230   32.2140   49.6980 H   0  0  0  0  0  0  0  0  0  0  0  0
   35.7740   27.9930   49.9190 H   0  0  0  0  0  0  0  0  0  0  0  0
  2  1  1  0  0  0  0
  2  3  1  0  0  0  0
  3 23  1  0  0  0  0
  4  3  2  0  0  0  0
  4  8  1  0  0  0  0
  5  4  1  0  0  0  0
  6  7  1  0  0  0  0
  6  5  2  0  0  0  0
  7  2  2  0  0  0  0
  9  5  1  0  0  0  0
 10  6  1  0  0  0  0
 11 12  1  0  0  0  0
 11 20  1  0  0  0  0
 12  7  1  0  0  0  0
 13 14  1  0  0  0  0
 13 12  2  0  0  0  0
 15 13  1  0  0  0  0
 16 15  1  0  0  0  0
 17 15  2  0  0  0  0
 17 18  1  0  0  0  0
 18 11  2  0  0  0  0
 20 22  2  0  0  0  0
 20 19  1  0  0  0  0
 21 20  2  0  0  0  0
 23 25  1  0  0  0  0
 25 24  2  1  0  0  0
 25 28  1  0  0  0  0
 26 25  1  0  0  0  0
 27 26  1  0  0  0  0
 28 31  1  0  0  0  0
 29 34  1  0  0  0  0
 29 35  1  0  0  0  0
 30 29  2  0  0  0  0
 31 32  2  0  0  0  0
 31 30  1  0  0  0  0
 32 33  1  0  0  0  0
 33 37  1  0  0  0  0
 33 34  2  0  0  0  0
 36 30  1  0  0  0  0
M  END
>  <minimizedAffinity>
-4.91222048

>  <minimizedRMSD>
0.788977444

$$$$
