
 OpenBabel03272508543D

 41 44  0  0  1  0  0  0  0  0999 V2000
   38.5380   31.3390   43.8870 C   0  0  0  0  0  0  0  0  0  0  0  0
   39.9030   31.2670   43.8830 C   0  0  0  0  0  0  0  0  0  0  0  0
   40.5120   31.1310   42.6530 C   0  0  0  0  0  0  0  0  0  0  0  0
   39.7440   31.0750   41.5310 C   0  0  0  0  0  0  0  0  0  0  0  0
   38.3710   31.1480   41.5220 C   0  0  0  0  0  0  0  0  0  0  0  0
   37.8490   31.2770   42.7420 N   0  0  0  0  0  0  0  0  0  0  0  0
   40.5190   31.3120   44.7730 H   0  0  0  0  0  0  0  0  0  0  0  0
   41.5820   31.0710   42.6180 H   0  0  0  0  0  0  0  0  0  0  0  0
   40.2700   30.9250   40.6170 H   0  0  0  0  0  0  0  0  0  0  0  0
   36.9940   32.0260   39.5820 C   0  0  0  0  0  0  0  0  0  0  0  0
   37.4420   31.0550   40.4400 C   0  0  0  0  0  0  0  0  0  0  0  0
   36.8520   29.8050   40.2140 C   0  0  0  0  0  0  0  0  0  0  0  0
   37.1400   28.9530   40.8500 H   0  0  0  0  0  0  0  0  0  0  0  0
   35.9190   29.5090   39.2490 C   0  0  0  0  0  0  0  0  0  0  0  0
   35.5160   28.5250   39.1410 H   0  0  0  0  0  0  0  0  0  0  0  0
   35.5060   30.5180   38.4140 C   0  0  0  0  0  3  0  0  0  0  0  0
   36.0580   31.7630   38.6000 C   0  0  0  0  0  3  0  0  0  0  0  0
   36.8230   34.4430   38.7990 H   0  0  0  0  0  0  0  0  0  0  0  0
   37.5170   33.6550   39.7550 S   0  0  0  0  0  0  0  0  0  0  0  0
   37.1650   34.3120   41.0450 O   0  0  0  0  0  0  0  0  0  0  0  0
   38.9550   33.9010   39.4160 O   0  0  0  0  0  0  0  0  0  0  0  0
   37.8350   31.4790   45.1870 C   0  0  0  0  0  0  0  0  0  0  0  0
   36.7860   30.8190   45.4350 O   0  0  0  0  0  0  0  0  0  0  0  0
   38.3850   32.3850   46.1470 N   0  0  0  0  0  0  0  0  0  0  0  0
   39.1400   33.0780   45.9460 H   0  0  0  0  0  0  0  0  0  0  0  0
   38.4570   31.4380   48.4540 C   0  0  2  0  0  0  0  0  0  0  0  0
   38.8250   32.8570   48.5700 C   0  0  0  0  0  0  0  0  0  0  0  0
   37.8420   32.3240   47.4990 C   0  0  1  0  0  0  0  0  0  0  0  0
   39.3250   30.7920   48.1510 H   0  0  0  0  0  0  0  0  0  0  0  0
   39.8000   33.2230   48.2270 H   0  0  0  0  0  0  0  0  0  0  0  0
   38.3490   33.5090   49.3270 H   0  0  0  0  0  0  0  0  0  0  0  0
   36.7800   32.6570   47.6320 H   0  0  0  0  0  0  0  0  0  0  0  0
   35.6830   29.5510   49.9910 C   0  0  0  0  0  0  0  0  0  0  0  0
   36.1000   29.4500   51.3570 C   0  0  0  0  0  0  0  0  0  0  0  0
   37.3530   30.0580   51.7090 C   0  0  0  0  0  0  0  0  0  0  0  0
   38.0720   30.6900   50.7500 N   0  0  0  0  0  0  0  0  0  0  0  0
   37.6190   30.7490   49.4700 C   0  0  0  0  0  0  0  0  0  0  0  0
   36.4260   30.1890   49.0560 N   0  0  0  0  0  0  0  0  0  0  0  0
   34.7380   29.0880   49.7410 H   0  0  0  0  0  0  0  0  0  0  0  0
   35.4770   28.9310   52.0700 H   0  0  0  0  0  0  0  0  0  0  0  0
   37.6570   29.9780   52.7310 H   0  0  0  0  0  0  0  0  0  0  0  0
  1 22  1  0  0  0  0
  2  1  1  0  0  0  0
  2  7  1  0  0  0  0
  3  2  2  0  0  0  0
  4  3  1  0  0  0  0
  5  4  2  0  0  0  0
  5  6  1  0  0  0  0
  6  1  2  0  0  0  0
  8  3  1  0  0  0  0
  9  4  1  0  0  0  0
 10 19  1  0  0  0  0
 10 11  1  0  0  0  0
 11  5  1  0  0  0  0
 12 11  2  0  0  0  0
 12 13  1  0  0  0  0
 14 12  1  0  0  0  0
 15 14  1  0  0  0  0
 16 17  1  0  0  0  0
 16 14  2  0  0  0  0
 17 10  2  0  0  0  0
 18 19  1  0  0  0  0
 19 20  2  0  0  0  0
 21 19  2  0  0  0  0
 22 23  2  0  0  0  0
 22 24  1  0  0  0  0
 24 28  1  0  0  0  0
 25 24  1  0  0  0  0
 26 29  1  6  0  0  0
 26 27  1  0  0  0  0
 26 37  1  0  0  0  0
 27 31  1  0  0  0  0
 28 32  1  1  0  0  0
 28 26  1  0  0  0  0
 28 27  1  0  0  0  0
 30 27  1  0  0  0  0
 33 34  1  0  0  0  0
 34 35  2  0  0  0  0
 34 40  1  0  0  0  0
 35 41  1  0  0  0  0
 36 35  1  0  0  0  0
 37 36  2  0  0  0  0
 38 37  1  0  0  0  0
 38 33  2  0  0  0  0
 39 33  1  0  0  0  0
M  END
>  <minimizedAffinity>
-5.20028162

>  <minimizedRMSD>
1.92606664

$$$$
