
 OpenBabel03272507193D

 33 35  0  0  1  0  0  0  0  0999 V2000
   37.9350   31.1110   49.7200 C   0  0  0  0  0  0  0  0  0  0  0  0
   38.2550   32.4470   49.8580 C   0  0  0  0  0  0  0  0  0  0  0  0
   38.4400   33.1480   48.6690 C   0  0  0  0  0  0  0  0  0  0  0  0
   38.2990   32.5010   47.4600 N   0  0  0  0  0  0  0  0  0  0  0  0
   37.9860   31.1930   47.3970 C   0  0  0  0  0  0  0  0  0  0  0  0
   37.7980   30.4710   48.5260 N   0  0  0  0  0  0  0  0  0  0  0  0
   38.3500   32.8930   50.8360 H   0  0  0  0  0  0  0  0  0  0  0  0
   38.6900   34.1900   48.7420 H   0  0  0  0  0  0  0  0  0  0  0  0
   38.8560   31.2460   44.9770 C   0  0  0  0  0  0  0  0  0  0  0  0
   37.9540   31.0150   45.9720 C   0  0  0  0  0  0  0  0  0  0  0  0
   36.6990   30.4950   45.6310 C   0  0  0  0  0  0  0  0  0  0  0  0
   35.7890   30.2080   46.1680 H   0  0  0  0  0  0  0  0  0  0  0  0
   36.4450   30.2410   44.2770 C   0  0  0  0  0  0  0  0  0  0  0  0
   35.5370   29.8430   43.8440 H   0  0  0  0  0  0  0  0  0  0  0  0
   37.4220   30.5060   43.3450 C   0  0  0  0  0  3  0  0  0  0  0  0
   38.6640   31.0160   43.6370 C   0  0  0  0  0  3  0  0  0  0  0  0
   40.1420   32.3340   46.8770 H   0  0  0  0  0  0  0  0  0  0  0  0
   40.3500   31.9220   45.5880 S   0  0  0  0  0  0  0  0  0  0  0  0
   40.5870   33.1570   44.7230 O   0  0  0  0  0  0  0  0  0  0  0  0
   41.4850   30.9780   45.4800 O   0  0  0  0  0  0  0  0  0  0  0  0
   37.6870   30.3600   50.9930 C   0  0  1  0  0  0  0  0  0  0  0  0
   36.4210   29.6760   51.2490 C   0  0  2  0  0  0  0  0  0  0  0  0
   37.5630   28.8400   50.7590 C   0  0  0  0  0  0  0  0  0  0  0  0
   38.3610   30.6390   51.8300 H   0  0  0  0  0  0  0  0  0  0  0  0
   36.1240   29.6990   52.3430 H   0  0  0  0  0  0  0  0  0  0  0  0
   37.5080   28.4720   49.7140 H   0  0  0  0  0  0  0  0  0  0  0  0
   38.1280   28.2110   51.4620 H   0  0  0  0  0  0  0  0  0  0  0  0
   35.3640   29.9510   50.3930 O   0  0  0  0  0  0  0  0  0  0  0  0
   34.2870   29.1880   50.0790 C   0  0  0  0  0  0  0  0  0  0  0  0
   34.3700   28.2210   49.3050 O   0  0  0  0  0  0  0  0  0  0  0  0
   33.1730   29.6870   50.7540 N   0  0  0  0  0  0  0  0  0  0  0  0
   32.8030   30.6640   50.7670 H   0  0  0  0  0  0  0  0  0  0  0  0
   32.3330   29.6060   51.3810 H   0  0  0  0  0  0  0  0  0  0  0  0
  1  2  1  0  0  0  0
  1 21  1  0  0  0  0
  2  7  1  0  0  0  0
  3  8  1  0  0  0  0
  3  2  2  0  0  0  0
  4  3  1  0  0  0  0
  5  4  2  0  0  0  0
  5  6  1  0  0  0  0
  6  1  2  0  0  0  0
  9 18  1  0  0  0  0
  9 10  1  0  0  0  0
 10  5  1  0  0  0  0
 11 10  2  0  0  0  0
 11 12  1  0  0  0  0
 13 11  1  0  0  0  0
 14 13  1  0  0  0  0
 15 16  1  0  0  0  0
 15 13  2  0  0  0  0
 16  9  2  0  0  0  0
 18 17  1  0  0  0  0
 19 18  2  0  0  0  0
 20 18  2  0  0  0  0
 21 22  1  0  0  0  0
 21 24  1  1  0  0  0
 22 25  1  1  0  0  0
 23 21  1  0  0  0  0
 23 22  1  0  0  0  0
 23 27  1  0  0  0  0
 26 23  1  0  0  0  0
 28 22  1  0  0  0  0
 29 28  1  0  0  0  0
 29 31  1  0  0  0  0
 30 29  2  0  0  0  0
 31 32  1  0  0  0  0
 31 33  1  0  0  0  0
M  END
>  <minimizedAffinity>
-5.93116951

>  <minimizedRMSD>
1.63872969

$$$$
