
 OpenBabel03272505013D

 31 33  0  0  0  0  0  0  0  0999 V2000
   37.9870   23.0290   33.9760 Cl  0  0  0  0  0  0  0  0  0  0  0  0
   38.7030   24.6190   34.0970 C   0  0  0  0  0  0  0  0  0  0  0  0
   38.1790   25.6320   33.3510 C   0  0  0  0  0  0  0  0  0  0  0  0
   38.7950   26.8780   33.4920 C   0  0  0  0  0  0  0  0  0  0  0  0
   39.8770   27.0330   34.3530 C   0  0  0  0  0  0  0  0  0  0  0  0
   40.3700   25.9870   35.0830 C   0  0  0  0  0  0  0  0  0  0  0  0
   39.7630   24.7560   34.9450 C   0  0  0  0  0  0  0  0  0  0  0  0
   38.3870   27.6920   32.9040 H   0  0  0  0  0  0  0  0  0  0  0  0
   40.2880   28.0320   34.3970 H   0  0  0  0  0  0  0  0  0  0  0  0
   41.2140   26.1280   35.7490 H   0  0  0  0  0  0  0  0  0  0  0  0
   36.6860   24.2350   31.9170 C   0  0  0  0  0  0  0  0  0  0  0  0
   37.0480   25.4880   32.4450 C   0  0  0  0  0  0  0  0  0  0  0  0
   36.2780   26.5800   32.0620 C   0  0  0  0  0  0  0  0  0  0  0  0
   35.2370   26.3990   31.2190 N   0  0  0  0  0  0  0  0  0  0  0  0
   34.9160   25.1840   30.7300 C   0  0  0  0  0  0  0  0  0  0  0  0
   35.6450   24.0950   31.0820 N   0  0  0  0  0  0  0  0  0  0  0  0
   37.2730   23.3480   32.1970 H   0  0  0  0  0  0  0  0  0  0  0  0
   36.5200   27.5700   32.4450 H   0  0  0  0  0  0  0  0  0  0  0  0
   34.0780   25.0600   30.0560 H   0  0  0  0  0  0  0  0  0  0  0  0
   39.7510   23.2070   36.9190 C   0  0  0  0  0  0  0  0  0  0  0  0
   40.3280   23.6740   35.7460 C   0  0  0  0  0  0  0  0  0  0  0  0
   41.5140   23.1280   35.2440 C   0  0  0  0  0  0  0  0  0  0  0  0
   41.9770   23.4810   34.3320 H   0  0  0  0  0  0  0  0  0  0  0  0
   42.1270   22.0980   35.9330 C   0  0  0  0  0  0  0  0  0  0  0  0
   43.0490   21.6280   35.6000 H   0  0  0  0  0  0  0  0  0  0  0  0
   41.5740   21.6040   37.1160 C   0  0  0  0  0  3  0  0  0  0  0  0
   40.3930   22.1650   37.5950 C   0  0  0  0  0  3  0  0  0  0  0  0
   38.0830   25.0650   36.7080 H   0  0  0  0  0  0  0  0  0  0  0  0
   38.2830   23.9300   37.4820 S   0  0  0  0  0  0  0  0  0  0  0  0
   38.4010   24.2950   38.9440 O   0  0  0  0  0  0  0  0  0  0  0  0
   37.1490   22.9670   37.2820 O   0  0  0  0  0  0  0  0  0  0  0  0
  1  2  1  0  0  0  0
  2  7  1  0  0  0  0
  3  4  1  0  0  0  0
  3  2  2  0  0  0  0
  4  5  2  0  0  0  0
  5  9  1  0  0  0  0
  5  6  1  0  0  0  0
  6 10  1  0  0  0  0
  7  6  2  0  0  0  0
  7 21  1  0  0  0  0
  8  4  1  0  0  0  0
 11 17  1  0  0  0  0
 11 12  1  0  0  0  0
 12  3  1  0  0  0  0
 13 18  1  0  0  0  0
 13 12  2  0  0  0  0
 14 13  1  0  0  0  0
 15 16  1  0  0  0  0
 15 14  2  0  0  0  0
 16 11  2  0  0  0  0
 19 15  1  0  0  0  0
 20 29  1  0  0  0  0
 20 27  1  0  0  0  0
 21 20  2  0  0  0  0
 22 21  1  0  0  0  0
 22 24  2  0  0  0  0
 23 22  1  0  0  0  0
 24 26  1  0  0  0  0
 25 24  1  0  0  0  0
 26 27  2  0  0  0  0
 28 29  1  0  0  0  0
 29 30  2  0  0  0  0
 31 29  2  0  0  0  0
M  END
>  <minimizedAffinity>
-5.78213549

$$$$

 OpenBabel03272505013D

 31 33  0  0  0  0  0  0  0  0999 V2000
   36.2800   28.1090   34.5340 Cl  0  0  0  0  0  0  0  0  0  0  0  0
   36.1140   29.1050   33.1070 C   0  0  0  0  0  0  0  0  0  0  0  0
   36.6220   28.6500   31.9280 C   0  0  0  0  0  0  0  0  0  0  0  0
   36.4570   29.4910   30.8250 C   0  0  0  0  0  0  0  0  0  0  0  0
   35.8060   30.7130   30.9650 C   0  0  0  0  0  0  0  0  0  0  0  0
   35.3110   31.1300   32.1690 C   0  0  0  0  0  0  0  0  0  0  0  0
   35.4740   30.3000   33.2600 C   0  0  0  0  0  0  0  0  0  0  0  0
   36.8570   29.1410   29.8810 H   0  0  0  0  0  0  0  0  0  0  0  0
   35.7260   31.2960   30.0570 H   0  0  0  0  0  0  0  0  0  0  0  0
   34.8070   32.0860   32.2580 H   0  0  0  0  0  0  0  0  0  0  0  0
   36.6060   26.2060   31.4150 C   0  0  0  0  0  0  0  0  0  0  0  0
   37.3060   27.3750   31.7630 C   0  0  0  0  0  0  0  0  0  0  0  0
   38.6800   27.2580   31.9430 C   0  0  0  0  0  0  0  0  0  0  0  0
   39.2730   26.0550   31.7780 N   0  0  0  0  0  0  0  0  0  0  0  0
   38.5730   24.9520   31.4440 C   0  0  0  0  0  0  0  0  0  0  0  0
   37.2310   25.0290   31.2620 N   0  0  0  0  0  0  0  0  0  0  0  0
   35.5180   26.2610   31.2660 H   0  0  0  0  0  0  0  0  0  0  0  0
   39.2650   28.1360   32.2120 H   0  0  0  0  0  0  0  0  0  0  0  0
   39.0670   23.9970   31.3180 H   0  0  0  0  0  0  0  0  0  0  0  0
   33.6420   30.5070   34.9630 C   0  0  0  0  0  0  0  0  0  0  0  0
   34.9270   30.7920   34.5210 C   0  0  0  0  0  0  0  0  0  0  0  0
   35.8010   31.5870   35.2710 C   0  0  0  0  0  0  0  0  0  0  0  0
   36.8050   31.8180   34.9410 H   0  0  0  0  0  0  0  0  0  0  0  0
   35.3740   32.1000   36.4820 C   0  0  0  0  0  0  0  0  0  0  0  0
   36.0010   32.7240   37.1140 H   0  0  0  0  0  0  0  0  0  0  0  0
   34.0880   31.8340   36.9550 C   0  0  0  0  0  3  0  0  0  0  0  0
   33.2380   31.0410   36.1900 C   0  0  0  0  0  3  0  0  0  0  0  0
   33.4380   28.5840   33.3700 H   0  0  0  0  0  0  0  0  0  0  0  0
   32.6150   29.5180   33.9830 S   0  0  0  0  0  0  0  0  0  0  0  0
   31.9010   30.3590   32.9500 O   0  0  0  0  0  0  0  0  0  0  0  0
   31.6140   28.8220   34.8590 O   0  0  0  0  0  0  0  0  0  0  0  0
  2  7  1  0  0  0  0
  2  1  1  0  0  0  0
  3  2  2  0  0  0  0
  4  5  2  0  0  0  0
  4  3  1  0  0  0  0
  5  6  1  0  0  0  0
  6 10  1  0  0  0  0
  6  7  2  0  0  0  0
  7 21  1  0  0  0  0
  8  4  1  0  0  0  0
  9  5  1  0  0  0  0
 11 12  1  0  0  0  0
 12  3  1  0  0  0  0
 12 13  2  0  0  0  0
 13 18  1  0  0  0  0
 14 13  1  0  0  0  0
 15 14  2  0  0  0  0
 16 11  2  0  0  0  0
 16 15  1  0  0  0  0
 17 11  1  0  0  0  0
 19 15  1  0  0  0  0
 20 27  1  0  0  0  0
 21 20  2  0  0  0  0
 21 22  1  0  0  0  0
 22 24  2  0  0  0  0
 23 22  1  0  0  0  0
 24 26  1  0  0  0  0
 24 25  1  0  0  0  0
 27 26  2  0  0  0  0
 28 29  1  0  0  0  0
 29 31  2  0  0  0  0
 29 20  1  0  0  0  0
 30 29  2  0  0  0  0
M  END
>  <minimizedAffinity>
-5.33699799

$$$$

 OpenBabel03272505013D

 31 33  0  0  0  0  0  0  0  0999 V2000
   37.9320   22.8850   33.6110 Cl  0  0  0  0  0  0  0  0  0  0  0  0
   36.9210   23.8350   32.5480 C   0  0  0  0  0  0  0  0  0  0  0  0
   36.0890   23.1890   31.6830 C   0  0  0  0  0  0  0  0  0  0  0  0
   35.3070   24.0030   30.8600 C   0  0  0  0  0  0  0  0  0  0  0  0
   35.4020   25.3880   30.9500 C   0  0  0  0  0  0  0  0  0  0  0  0
   36.2510   25.9950   31.8330 C   0  0  0  0  0  0  0  0  0  0  0  0
   37.0240   25.1910   32.6460 C   0  0  0  0  0  0  0  0  0  0  0  0
   34.6410   23.5000   30.1690 H   0  0  0  0  0  0  0  0  0  0  0  0
   34.7590   25.9360   30.2750 H   0  0  0  0  0  0  0  0  0  0  0  0
   36.3110   27.0760   31.8880 H   0  0  0  0  0  0  0  0  0  0  0  0
   36.8690   20.9920   30.7850 C   0  0  0  0  0  0  0  0  0  0  0  0
   35.9780   21.7400   31.5760 C   0  0  0  0  0  0  0  0  0  0  0  0
   34.9870   21.0350   32.2480 C   0  0  0  0  0  0  0  0  0  0  0  0
   34.9220   19.6910   32.1200 N   0  0  0  0  0  0  0  0  0  0  0  0
   35.7920   19.0030   31.3540 C   0  0  0  0  0  0  0  0  0  0  0  0
   36.7720   19.6580   30.6830 N   0  0  0  0  0  0  0  0  0  0  0  0
   37.6660   21.5170   30.2380 H   0  0  0  0  0  0  0  0  0  0  0  0
   34.2730   21.5710   32.8730 H   0  0  0  0  0  0  0  0  0  0  0  0
   35.7230   17.9260   31.2650 H   0  0  0  0  0  0  0  0  0  0  0  0
   39.2370   26.1940   33.2790 C   0  0  0  0  0  0  0  0  0  0  0  0
   37.9130   25.8900   33.5700 C   0  0  0  0  0  0  0  0  0  0  0  0
   37.3330   26.2400   34.7940 C   0  0  0  0  0  0  0  0  0  0  0  0
   36.3040   26.0100   35.0370 H   0  0  0  0  0  0  0  0  0  0  0  0
   38.0950   26.9050   35.7370 C   0  0  0  0  0  0  0  0  0  0  0  0
   37.7080   27.2060   36.7060 H   0  0  0  0  0  0  0  0  0  0  0  0
   39.4290   27.2250   35.4770 C   0  0  0  0  0  3  0  0  0  0  0  0
   39.9840   26.8660   34.2510 C   0  0  0  0  0  3  0  0  0  0  0  0
   39.2490   24.5520   31.3870 H   0  0  0  0  0  0  0  0  0  0  0  0
   39.8890   25.7300   31.7450 S   0  0  0  0  0  0  0  0  0  0  0  0
   41.3820   25.5160   31.8490 O   0  0  0  0  0  0  0  0  0  0  0  0
   39.5930   26.8010   30.7360 O   0  0  0  0  0  0  0  0  0  0  0  0
  2  7  1  0  0  0  0
  2  1  1  0  0  0  0
  3  2  2  0  0  0  0
  4  5  2  0  0  0  0
  4  3  1  0  0  0  0
  5  6  1  0  0  0  0
  6 10  1  0  0  0  0
  6  7  2  0  0  0  0
  7 21  1  0  0  0  0
  8  4  1  0  0  0  0
  9  5  1  0  0  0  0
 11 12  1  0  0  0  0
 12  3  1  0  0  0  0
 12 13  2  0  0  0  0
 13 18  1  0  0  0  0
 14 13  1  0  0  0  0
 15 14  2  0  0  0  0
 16 11  2  0  0  0  0
 16 15  1  0  0  0  0
 17 11  1  0  0  0  0
 19 15  1  0  0  0  0
 20 21  2  0  0  0  0
 20 27  1  0  0  0  0
 21 22  1  0  0  0  0
 22 23  1  0  0  0  0
 22 24  2  0  0  0  0
 24 25  1  0  0  0  0
 26 24  1  0  0  0  0
 27 26  2  0  0  0  0
 28 29  1  0  0  0  0
 29 30  2  0  0  0  0
 29 20  1  0  0  0  0
 31 29  2  0  0  0  0
M  END
>  <minimizedAffinity>
-5.30356026

$$$$

 OpenBabel03272505013D

 31 33  0  0  0  0  0  0  0  0999 V2000
   38.6930   22.9120   32.9950 Cl  0  0  0  0  0  0  0  0  0  0  0  0
   37.4120   23.8410   32.2530 C   0  0  0  0  0  0  0  0  0  0  0  0
   36.2990   23.1890   31.8140 C   0  0  0  0  0  0  0  0  0  0  0  0
   35.3120   23.9860   31.2310 C   0  0  0  0  0  0  0  0  0  0  0  0
   35.4930   25.3610   31.1240 C   0  0  0  0  0  0  0  0  0  0  0  0
   36.6270   25.9750   31.5790 C   0  0  0  0  0  0  0  0  0  0  0  0
   37.6030   25.1880   32.1550 C   0  0  0  0  0  0  0  0  0  0  0  0
   34.4220   23.4790   30.8780 H   0  0  0  0  0  0  0  0  0  0  0  0
   34.6750   25.8960   30.6600 H   0  0  0  0  0  0  0  0  0  0  0  0
   36.7490   27.0480   31.4870 H   0  0  0  0  0  0  0  0  0  0  0  0
   35.5920   21.1630   33.0920 C   0  0  0  0  0  0  0  0  0  0  0  0
   36.0940   21.7510   31.9170 C   0  0  0  0  0  0  0  0  0  0  0  0
   36.3850   20.8960   30.8590 C   0  0  0  0  0  0  0  0  0  0  0  0
   36.1770   19.5680   30.9990 N   0  0  0  0  0  0  0  0  0  0  0  0
   35.6940   19.0360   32.1400 C   0  0  0  0  0  0  0  0  0  0  0  0
   35.4000   19.8390   33.1930 N   0  0  0  0  0  0  0  0  0  0  0  0
   35.3510   21.8080   33.9500 H   0  0  0  0  0  0  0  0  0  0  0  0
   36.7760   21.3050   29.9290 H   0  0  0  0  0  0  0  0  0  0  0  0
   35.5350   17.9690   32.2320 H   0  0  0  0  0  0  0  0  0  0  0  0
   38.9460   26.3590   33.9230 C   0  0  0  0  0  0  0  0  0  0  0  0
   38.7930   25.8930   32.6240 C   0  0  0  0  0  0  0  0  0  0  0  0
   39.7900   26.0710   31.6590 C   0  0  0  0  0  0  0  0  0  0  0  0
   39.6860   25.7140   30.6430 H   0  0  0  0  0  0  0  0  0  0  0  0
   40.9560   26.7280   32.0070 C   0  0  0  0  0  0  0  0  0  0  0  0
   41.7700   26.9000   31.3080 H   0  0  0  0  0  0  0  0  0  0  0  0
   41.1420   27.2100   33.3040 C   0  0  0  0  0  3  0  0  0  0  0  0
   40.1350   27.0200   34.2460 C   0  0  0  0  0  3  0  0  0  0  0  0
   37.1030   24.8760   34.7510 H   0  0  0  0  0  0  0  0  0  0  0  0
   37.6710   26.1030   35.0650 S   0  0  0  0  0  0  0  0  0  0  0  0
   36.6440   27.2080   34.9650 O   0  0  0  0  0  0  0  0  0  0  0  0
   38.2480   26.0620   36.4500 O   0  0  0  0  0  0  0  0  0  0  0  0
  2  1  1  0  0  0  0
  3 12  1  0  0  0  0
  3  2  2  0  0  0  0
  4  3  1  0  0  0  0
  5  4  2  0  0  0  0
  5  6  1  0  0  0  0
  6  7  2  0  0  0  0
  7  2  1  0  0  0  0
  7 21  1  0  0  0  0
  8  4  1  0  0  0  0
  9  5  1  0  0  0  0
 10  6  1  0  0  0  0
 11 16  1  0  0  0  0
 11 17  1  0  0  0  0
 12 11  2  0  0  0  0
 13 14  2  0  0  0  0
 13 12  1  0  0  0  0
 14 15  1  0  0  0  0
 15 19  1  0  0  0  0
 15 16  2  0  0  0  0
 18 13  1  0  0  0  0
 20 27  1  0  0  0  0
 20 29  1  0  0  0  0
 21 20  2  0  0  0  0
 22 24  2  0  0  0  0
 22 21  1  0  0  0  0
 23 22  1  0  0  0  0
 24 26  1  0  0  0  0
 25 24  1  0  0  0  0
 26 27  2  0  0  0  0
 28 29  1  0  0  0  0
 29 31  2  0  0  0  0
 30 29  2  0  0  0  0
M  END
>  <minimizedAffinity>
-5.30096245

$$$$

 OpenBabel03272505013D

 31 33  0  0  0  0  0  0  0  0999 V2000
   38.9080   26.9870   35.1520 Cl  0  0  0  0  0  0  0  0  0  0  0  0
   38.1740   25.8900   34.0050 C   0  0  0  0  0  0  0  0  0  0  0  0
   37.1920   26.3590   33.1860 C   0  0  0  0  0  0  0  0  0  0  0  0
   36.6450   25.4350   32.2920 C   0  0  0  0  0  0  0  0  0  0  0  0
   37.1050   24.1220   32.2730 C   0  0  0  0  0  0  0  0  0  0  0  0
   38.0940   23.6940   33.1150 C   0  0  0  0  0  0  0  0  0  0  0  0
   38.6340   24.6060   33.9980 C   0  0  0  0  0  0  0  0  0  0  0  0
   35.8640   25.7970   31.6350 H   0  0  0  0  0  0  0  0  0  0  0  0
   36.6230   23.4790   31.5490 H   0  0  0  0  0  0  0  0  0  0  0  0
   38.4380   22.6660   33.0850 H   0  0  0  0  0  0  0  0  0  0  0  0
   36.7880   28.5480   32.0520 C   0  0  0  0  0  0  0  0  0  0  0  0
   36.6990   27.7300   33.1930 C   0  0  0  0  0  0  0  0  0  0  0  0
   36.1190   28.2890   34.3260 C   0  0  0  0  0  0  0  0  0  0  0  0
   35.6740   29.5640   34.2870 N   0  0  0  0  0  0  0  0  0  0  0  0
   35.7750   30.3230   33.1760 C   0  0  0  0  0  0  0  0  0  0  0  0
   36.3350   29.8110   32.0520 N   0  0  0  0  0  0  0  0  0  0  0  0
   37.2420   28.1390   31.1370 H   0  0  0  0  0  0  0  0  0  0  0  0
   36.0270   27.6940   35.2330 H   0  0  0  0  0  0  0  0  0  0  0  0
   35.4120   31.3430   33.1660 H   0  0  0  0  0  0  0  0  0  0  0  0
   39.4390   23.5150   36.1100 C   0  0  0  0  0  0  0  0  0  0  0  0
   39.6860   24.0970   34.8740 C   0  0  0  0  0  0  0  0  0  0  0  0
   40.9860   24.2370   34.3760 C   0  0  0  0  0  0  0  0  0  0  0  0
   41.1940   24.6890   33.4150 H   0  0  0  0  0  0  0  0  0  0  0  0
   42.0500   23.7850   35.1330 C   0  0  0  0  0  0  0  0  0  0  0  0
   43.0840   23.8620   34.8070 H   0  0  0  0  0  0  0  0  0  0  0  0
   41.8380   23.1960   36.3810 C   0  0  0  0  0  3  0  0  0  0  0  0
   40.5350   23.0670   36.8540 C   0  0  0  0  0  3  0  0  0  0  0  0
   37.1170   24.4570   36.1340 H   0  0  0  0  0  0  0  0  0  0  0  0
   37.8050   23.3740   36.6640 S   0  0  0  0  0  0  0  0  0  0  0  0
   37.7560   23.3980   38.1740 O   0  0  0  0  0  0  0  0  0  0  0  0
   37.2170   22.0920   36.1500 O   0  0  0  0  0  0  0  0  0  0  0  0
  2  1  1  0  0  0  0
  3 12  1  0  0  0  0
  3  2  2  0  0  0  0
  4  3  1  0  0  0  0
  5  4  2  0  0  0  0
  5  6  1  0  0  0  0
  6  7  2  0  0  0  0
  7  2  1  0  0  0  0
  7 21  1  0  0  0  0
  8  4  1  0  0  0  0
  9  5  1  0  0  0  0
 10  6  1  0  0  0  0
 11 16  2  0  0  0  0
 11 12  1  0  0  0  0
 12 13  2  0  0  0  0
 13 18  1  0  0  0  0
 14 13  1  0  0  0  0
 15 14  2  0  0  0  0
 16 15  1  0  0  0  0
 17 11  1  0  0  0  0
 19 15  1  0  0  0  0
 20 29  1  0  0  0  0
 20 27  1  0  0  0  0
 21 20  2  0  0  0  0
 22 21  1  0  0  0  0
 22 24  2  0  0  0  0
 23 22  1  0  0  0  0
 24 26  1  0  0  0  0
 25 24  1  0  0  0  0
 26 27  2  0  0  0  0
 28 29  1  0  0  0  0
 29 30  2  0  0  0  0
 31 29  2  0  0  0  0
M  END
>  <minimizedAffinity>
-5.13384438

$$$$

 OpenBabel03272505013D

 31 33  0  0  0  0  0  0  0  0999 V2000
   39.6520   25.6180   34.4640 Cl  0  0  0  0  0  0  0  0  0  0  0  0
   38.6230   24.3870   33.7710 C   0  0  0  0  0  0  0  0  0  0  0  0
   37.7700   24.7340   32.7670 C   0  0  0  0  0  0  0  0  0  0  0  0
   36.9750   23.7060   32.2550 C   0  0  0  0  0  0  0  0  0  0  0  0
   37.0780   22.4170   32.7690 C   0  0  0  0  0  0  0  0  0  0  0  0
   37.9490   22.1130   33.7790 C   0  0  0  0  0  0  0  0  0  0  0  0
   38.7340   23.1280   34.2850 C   0  0  0  0  0  0  0  0  0  0  0  0
   36.2930   23.9690   31.4550 H   0  0  0  0  0  0  0  0  0  0  0  0
   36.4240   21.6880   32.3110 H   0  0  0  0  0  0  0  0  0  0  0  0
   38.0140   21.1020   34.1660 H   0  0  0  0  0  0  0  0  0  0  0  0
   36.7890   27.0310   32.7940 C   0  0  0  0  0  0  0  0  0  0  0  0
   37.6480   26.0770   32.2180 C   0  0  0  0  0  0  0  0  0  0  0  0
   38.3750   26.4760   31.1020 C   0  0  0  0  0  0  0  0  0  0  0  0
   38.2310   27.7330   30.6270 N   0  0  0  0  0  0  0  0  0  0  0  0
   37.3990   28.6240   31.2020 C   0  0  0  0  0  0  0  0  0  0  0  0
   36.6740   28.2700   32.2930 N   0  0  0  0  0  0  0  0  0  0  0  0
   36.1980   26.7510   33.6780 H   0  0  0  0  0  0  0  0  0  0  0  0
   39.0530   25.7720   30.6210 H   0  0  0  0  0  0  0  0  0  0  0  0
   37.2980   29.6260   30.8060 H   0  0  0  0  0  0  0  0  0  0  0  0
   39.3570   22.9250   36.7080 C   0  0  0  0  0  0  0  0  0  0  0  0
   39.6460   22.7500   35.3610 C   0  0  0  0  0  0  0  0  0  0  0  0
   40.8560   22.1880   34.9380 C   0  0  0  0  0  0  0  0  0  0  0  0
   41.0960   22.0460   33.8930 H   0  0  0  0  0  0  0  0  0  0  0  0
   41.7850   21.7980   35.8840 C   0  0  0  0  0  0  0  0  0  0  0  0
   42.7430   21.3550   35.6250 H   0  0  0  0  0  0  0  0  0  0  0  0
   41.5270   21.9600   37.2460 C   0  0  0  0  0  3  0  0  0  0  0  0
   40.3160   22.5220   37.6420 C   0  0  0  0  0  3  0  0  0  0  0  0
   37.5470   24.5800   36.1940 H   0  0  0  0  0  0  0  0  0  0  0  0
   37.8410   23.6270   37.1590 S   0  0  0  0  0  0  0  0  0  0  0  0
   37.9410   24.2650   38.5260 O   0  0  0  0  0  0  0  0  0  0  0  0
   36.7840   22.5610   37.1660 O   0  0  0  0  0  0  0  0  0  0  0  0
  2  7  1  0  0  0  0
  2  1  1  0  0  0  0
  3  2  2  0  0  0  0
  4  3  1  0  0  0  0
  4  5  2  0  0  0  0
  5  6  1  0  0  0  0
  6 10  1  0  0  0  0
  6  7  2  0  0  0  0
  7 21  1  0  0  0  0
  8  4  1  0  0  0  0
  9  5  1  0  0  0  0
 11 17  1  0  0  0  0
 12  3  1  0  0  0  0
 12 11  2  0  0  0  0
 13 12  1  0  0  0  0
 14 13  2  0  0  0  0
 14 15  1  0  0  0  0
 15 16  2  0  0  0  0
 16 11  1  0  0  0  0
 18 13  1  0  0  0  0
 19 15  1  0  0  0  0
 20 29  1  0  0  0  0
 20 27  1  0  0  0  0
 21 20  2  0  0  0  0
 22 21  1  0  0  0  0
 22 24  2  0  0  0  0
 23 22  1  0  0  0  0
 24 26  1  0  0  0  0
 25 24  1  0  0  0  0
 26 27  2  0  0  0  0
 28 29  1  0  0  0  0
 29 31  2  0  0  0  0
 29 30  2  0  0  0  0
M  END
>  <minimizedAffinity>
-5.07115459

$$$$

 OpenBabel03272505013D

 31 33  0  0  0  0  0  0  0  0999 V2000
   38.5600   25.8680   34.5030 Cl  0  0  0  0  0  0  0  0  0  0  0  0
   37.9430   24.4070   33.7680 C   0  0  0  0  0  0  0  0  0  0  0  0
   37.4600   24.4670   32.4950 C   0  0  0  0  0  0  0  0  0  0  0  0
   36.9830   23.2670   31.9630 C   0  0  0  0  0  0  0  0  0  0  0  0
   37.0160   22.1010   32.7210 C   0  0  0  0  0  0  0  0  0  0  0  0
   37.5110   22.0870   33.9960 C   0  0  0  0  0  0  0  0  0  0  0  0
   37.9820   23.2720   34.5230 C   0  0  0  0  0  0  0  0  0  0  0  0
   36.5960   23.3020   30.9510 H   0  0  0  0  0  0  0  0  0  0  0  0
   36.6260   21.2220   32.2270 H   0  0  0  0  0  0  0  0  0  0  0  0
   37.5280   21.1670   34.5710 H   0  0  0  0  0  0  0  0  0  0  0  0
   36.2830   26.5120   31.6750 C   0  0  0  0  0  0  0  0  0  0  0  0
   37.4170   25.6790   31.6880 C   0  0  0  0  0  0  0  0  0  0  0  0
   38.4920   26.0640   30.8950 C   0  0  0  0  0  0  0  0  0  0  0  0
   38.4080   27.1970   30.1620 N   0  0  0  0  0  0  0  0  0  0  0  0
   37.3060   27.9750   30.1720 C   0  0  0  0  0  0  0  0  0  0  0  0
   36.2380   27.6300   30.9340 N   0  0  0  0  0  0  0  0  0  0  0  0
   35.4140   26.2380   32.2890 H   0  0  0  0  0  0  0  0  0  0  0  0
   39.3910   25.4500   30.8720 H   0  0  0  0  0  0  0  0  0  0  0  0
   37.2590   28.8780   29.5780 H   0  0  0  0  0  0  0  0  0  0  0  0
   39.8040   22.8390   36.1950 C   0  0  0  0  0  0  0  0  0  0  0  0
   38.4990   23.2010   35.8870 C   0  0  0  0  0  0  0  0  0  0  0  0
   37.5740   23.5280   36.8840 C   0  0  0  0  0  0  0  0  0  0  0  0
   36.5540   23.8110   36.6610 H   0  0  0  0  0  0  0  0  0  0  0  0
   37.9690   23.4900   38.2090 C   0  0  0  0  0  0  0  0  0  0  0  0
   37.3020   23.7320   39.0320 H   0  0  0  0  0  0  0  0  0  0  0  0
   39.2720   23.1300   38.5530 C   0  0  0  0  0  3  0  0  0  0  0  0
   40.1740   22.8090   37.5420 C   0  0  0  0  0  3  0  0  0  0  0  0
   40.1280   21.8690   33.9070 H   0  0  0  0  0  0  0  0  0  0  0  0
   40.8940   22.4470   34.9100 S   0  0  0  0  0  0  0  0  0  0  0  0
   41.9540   21.4840   35.3920 O   0  0  0  0  0  0  0  0  0  0  0  0
   41.5360   23.7060   34.4030 O   0  0  0  0  0  0  0  0  0  0  0  0
  2  1  1  0  0  0  0
  2  7  1  0  0  0  0
  3  2  2  0  0  0  0
  4  3  1  0  0  0  0
  4  5  2  0  0  0  0
  5  6  1  0  0  0  0
  6  7  2  0  0  0  0
  6 10  1  0  0  0  0
  7 21  1  0  0  0  0
  8  4  1  0  0  0  0
  9  5  1  0  0  0  0
 11 12  1  0  0  0  0
 11 17  1  0  0  0  0
 12  3  1  0  0  0  0
 13 12  2  0  0  0  0
 14 15  2  0  0  0  0
 14 13  1  0  0  0  0
 15 16  1  0  0  0  0
 16 11  2  0  0  0  0
 18 13  1  0  0  0  0
 19 15  1  0  0  0  0
 20 27  1  0  0  0  0
 21 20  2  0  0  0  0
 21 22  1  0  0  0  0
 22 24  2  0  0  0  0
 23 22  1  0  0  0  0
 24 26  1  0  0  0  0
 24 25  1  0  0  0  0
 27 26  2  0  0  0  0
 28 29  1  0  0  0  0
 29 30  2  0  0  0  0
 29 20  1  0  0  0  0
 31 29  2  0  0  0  0
M  END
>  <minimizedAffinity>
-4.95904446

$$$$

 OpenBabel03272505013D

 31 33  0  0  0  0  0  0  0  0999 V2000
   38.4070   22.2490   33.8050 Cl  0  0  0  0  0  0  0  0  0  0  0  0
   37.2960   23.1100   32.7650 C   0  0  0  0  0  0  0  0  0  0  0  0
   37.3310   24.4720   32.7520 C   0  0  0  0  0  0  0  0  0  0  0  0
   36.4200   25.1000   31.9010 C   0  0  0  0  0  0  0  0  0  0  0  0
   35.5450   24.3430   31.1280 C   0  0  0  0  0  0  0  0  0  0  0  0
   35.5450   22.9770   31.1720 C   0  0  0  0  0  0  0  0  0  0  0  0
   36.4440   22.3550   32.0130 C   0  0  0  0  0  0  0  0  0  0  0  0
   36.4390   26.1840   31.8810 H   0  0  0  0  0  0  0  0  0  0  0  0
   34.8770   24.9160   30.4990 H   0  0  0  0  0  0  0  0  0  0  0  0
   34.8550   22.4050   30.5620 H   0  0  0  0  0  0  0  0  0  0  0  0
   39.5050   25.6600   33.0720 C   0  0  0  0  0  0  0  0  0  0  0  0
   38.2400   25.2790   33.5550 C   0  0  0  0  0  0  0  0  0  0  0  0
   37.8970   25.7090   34.8320 C   0  0  0  0  0  0  0  0  0  0  0  0
   38.7710   26.4570   35.5400 N   0  0  0  0  0  0  0  0  0  0  0  0
   39.9770   26.8060   35.0480 C   0  0  0  0  0  0  0  0  0  0  0  0
   40.3460   26.4040   33.8060 N   0  0  0  0  0  0  0  0  0  0  0  0
   39.8110   25.3370   32.0660 H   0  0  0  0  0  0  0  0  0  0  0  0
   36.9280   25.4390   35.2490 H   0  0  0  0  0  0  0  0  0  0  0  0
   40.6630   27.4060   35.6320 H   0  0  0  0  0  0  0  0  0  0  0  0
   37.2320   20.0990   31.2450 C   0  0  0  0  0  0  0  0  0  0  0  0
   36.4020   20.8950   32.0230 C   0  0  0  0  0  0  0  0  0  0  0  0
   35.4510   20.3390   32.8850 C   0  0  0  0  0  0  0  0  0  0  0  0
   34.7970   20.9460   33.4980 H   0  0  0  0  0  0  0  0  0  0  0  0
   35.3340   18.9640   32.9650 C   0  0  0  0  0  0  0  0  0  0  0  0
   34.6180   18.4670   33.6120 H   0  0  0  0  0  0  0  0  0  0  0  0
   36.1520   18.1340   32.1960 C   0  0  0  0  0  3  0  0  0  0  0  0
   37.0920   18.7120   31.3450 C   0  0  0  0  0  3  0  0  0  0  0  0
   37.9210   22.1420   29.9680 H   0  0  0  0  0  0  0  0  0  0  0  0
   38.3860   20.8550   30.2000 S   0  0  0  0  0  0  0  0  0  0  0  0
   38.5040   20.0890   28.9020 O   0  0  0  0  0  0  0  0  0  0  0  0
   39.7190   20.9070   30.8890 O   0  0  0  0  0  0  0  0  0  0  0  0
  2  1  1  0  0  0  0
  3  2  1  0  0  0  0
  3 12  1  0  0  0  0
  4  3  2  0  0  0  0
  5  6  2  0  0  0  0
  5  4  1  0  0  0  0
  6  7  1  0  0  0  0
  7 21  1  0  0  0  0
  7  2  2  0  0  0  0
  8  4  1  0  0  0  0
  9  5  1  0  0  0  0
 10  6  1  0  0  0  0
 11 12  2  0  0  0  0
 11 16  1  0  0  0  0
 12 13  1  0  0  0  0
 13 18  1  0  0  0  0
 13 14  2  0  0  0  0
 15 14  1  0  0  0  0
 15 19  1  0  0  0  0
 16 15  2  0  0  0  0
 17 11  1  0  0  0  0
 20 27  2  0  0  0  0
 20 21  1  0  0  0  0
 21 22  2  0  0  0  0
 22 24  1  0  0  0  0
 22 23  1  0  0  0  0
 24 25  1  0  0  0  0
 26 24  2  0  0  0  0
 27 26  1  0  0  0  0
 28 29  1  0  0  0  0
 29 31  2  0  0  0  0
 29 20  1  0  0  0  0
 30 29  2  0  0  0  0
M  END
>  <minimizedAffinity>
-4.91802597

$$$$

 OpenBabel03272505013D

 31 33  0  0  0  0  0  0  0  0999 V2000
   39.2510   26.1710   34.5600 Cl  0  0  0  0  0  0  0  0  0  0  0  0
   38.6110   24.7580   33.7530 C   0  0  0  0  0  0  0  0  0  0  0  0
   38.3220   23.6530   34.4970 C   0  0  0  0  0  0  0  0  0  0  0  0
   37.8140   22.5580   33.7950 C   0  0  0  0  0  0  0  0  0  0  0  0
   37.6290   22.6310   32.4170 C   0  0  0  0  0  0  0  0  0  0  0  0
   37.9330   23.7620   31.7110 C   0  0  0  0  0  0  0  0  0  0  0  0
   38.4360   24.8440   32.4030 C   0  0  0  0  0  0  0  0  0  0  0  0
   37.5800   21.6730   34.3750 H   0  0  0  0  0  0  0  0  0  0  0  0
   37.2320   21.7350   31.9600 H   0  0  0  0  0  0  0  0  0  0  0  0
   37.7820   23.7990   30.6380 H   0  0  0  0  0  0  0  0  0  0  0  0
   37.5620   24.0810   36.8370 C   0  0  0  0  0  0  0  0  0  0  0  0
   38.5100   23.5590   35.9380 C   0  0  0  0  0  0  0  0  0  0  0  0
   39.6320   22.9500   36.4870 C   0  0  0  0  0  0  0  0  0  0  0  0
   39.7640   22.8840   37.8310 N   0  0  0  0  0  0  0  0  0  0  0  0
   38.8370   23.3950   38.6660 C   0  0  0  0  0  0  0  0  0  0  0  0
   37.7290   23.9960   38.1660 N   0  0  0  0  0  0  0  0  0  0  0  0
   36.6620   24.5710   36.4380 H   0  0  0  0  0  0  0  0  0  0  0  0
   40.3930   22.5310   35.8310 H   0  0  0  0  0  0  0  0  0  0  0  0
   38.9610   23.3320   39.7400 H   0  0  0  0  0  0  0  0  0  0  0  0
   37.8110   27.0060   31.2910 C   0  0  0  0  0  0  0  0  0  0  0  0
   38.7440   26.0250   31.6010 C   0  0  0  0  0  0  0  0  0  0  0  0
   40.0680   26.1060   31.1560 C   0  0  0  0  0  0  0  0  0  0  0  0
   40.8060   25.3500   31.3890 H   0  0  0  0  0  0  0  0  0  0  0  0
   40.4570   27.1880   30.3890 C   0  0  0  0  0  0  0  0  0  0  0  0
   41.4680   27.3130   30.0120 H   0  0  0  0  0  0  0  0  0  0  0  0
   39.5440   28.1910   30.0580 C   0  0  0  0  0  3  0  0  0  0  0  0
   38.2320   28.0880   30.5130 C   0  0  0  0  0  3  0  0  0  0  0  0
   36.2790   26.2100   33.1070 H   0  0  0  0  0  0  0  0  0  0  0  0
   36.1900   26.8410   31.8740 S   0  0  0  0  0  0  0  0  0  0  0  0
   35.3640   26.0180   30.9120 O   0  0  0  0  0  0  0  0  0  0  0  0
   35.5820   28.2030   32.0390 O   0  0  0  0  0  0  0  0  0  0  0  0
  2  3  1  0  0  0  0
  2  1  1  0  0  0  0
  3 12  1  0  0  0  0
  4  8  1  0  0  0  0
  4  3  2  0  0  0  0
  5  4  1  0  0  0  0
  6  7  1  0  0  0  0
  6  5  2  0  0  0  0
  7  2  2  0  0  0  0
  9  5  1  0  0  0  0
 10  6  1  0  0  0  0
 11 16  1  0  0  0  0
 12 13  1  0  0  0  0
 12 11  2  0  0  0  0
 13 14  2  0  0  0  0
 14 15  1  0  0  0  0
 15 19  1  0  0  0  0
 16 15  2  0  0  0  0
 17 11  1  0  0  0  0
 18 13  1  0  0  0  0
 20 21  1  0  0  0  0
 20 29  1  0  0  0  0
 21  7  1  0  0  0  0
 22 23  1  0  0  0  0
 22 21  2  0  0  0  0
 24 22  1  0  0  0  0
 25 24  1  0  0  0  0
 26 24  2  0  0  0  0
 26 27  1  0  0  0  0
 27 20  2  0  0  0  0
 29 31  2  0  0  0  0
 29 28  1  0  0  0  0
 30 29  2  0  0  0  0
M  END
>  <minimizedAffinity>
-4.88883066

$$$$
