
 OpenBabel03272509123D

 31 33  0  0  0  0  0  0  0  0999 V2000
   38.3120   23.3470   32.3310 C   0  0  0  0  0  0  0  0  0  0  0  0
   38.6660   23.6730   33.6790 C   0  0  0  0  0  0  0  0  0  0  0  0
   38.1390   22.8550   34.6810 C   0  0  0  0  0  0  0  0  0  0  0  0
   37.3300   21.8070   34.3420 N   0  0  0  0  0  0  0  0  0  0  0  0
   37.0200   21.5350   33.0510 C   0  0  0  0  0  0  0  0  0  0  0  0
   37.5100   22.3020   32.0560 N   0  0  0  0  0  0  0  0  0  0  0  0
   38.6660   23.9130   31.4990 H   0  0  0  0  0  0  0  0  0  0  0  0
   36.3790   20.7060   32.7930 H   0  0  0  0  0  0  0  0  0  0  0  0
   38.4230   23.0860   36.0780 C   0  0  0  0  0  0  0  0  0  0  0  0
   39.5710   22.5660   36.6060 C   0  0  0  0  0  0  0  0  0  0  0  0
   39.9240   22.7470   37.9410 C   0  0  0  0  0  0  0  0  0  0  0  0
   39.0460   23.4900   38.7310 C   0  0  0  0  0  0  0  0  0  0  0  0
   37.8560   24.0480   38.2520 C   0  0  0  0  0  0  0  0  0  0  0  0
   37.5950   23.8120   36.9090 C   0  0  0  0  0  0  0  0  0  0  0  0
   40.3240   21.9650   36.1290 H   0  0  0  0  0  0  0  0  0  0  0  0
   40.8110   22.3670   38.4220 H   0  0  0  0  0  0  0  0  0  0  0  0
   39.2400   23.6850   39.7880 H   0  0  0  0  0  0  0  0  0  0  0  0
   37.2080   24.6160   38.9020 H   0  0  0  0  0  0  0  0  0  0  0  0
   36.6850   24.2280   36.5070 H   0  0  0  0  0  0  0  0  0  0  0  0
   39.0340   26.1350   34.0450 C   0  0  0  0  0  0  0  0  0  0  0  0
   39.5150   24.8330   33.8450 C   0  0  0  0  0  0  0  0  0  0  0  0
   40.8920   24.5640   33.8040 C   0  0  0  0  0  0  0  0  0  0  0  0
   41.2740   23.5810   33.6520 H   0  0  0  0  0  0  0  0  0  0  0  0
   41.7640   25.6090   33.9650 C   0  0  0  0  0  0  0  0  0  0  0  0
   42.8390   25.4140   33.9340 H   0  0  0  0  0  0  0  0  0  0  0  0
   41.2570   26.8770   34.1600 C   0  0  0  0  0  3  0  0  0  0  0  0
   39.9150   27.1840   34.2060 C   0  0  0  0  0  3  0  0  0  0  0  0
   36.6930   25.2940   34.6000 H   0  0  0  0  0  0  0  0  0  0  0  0
   37.3110   26.3850   34.0840 S   0  0  0  0  0  0  0  0  0  0  0  0
   36.7630   26.5400   32.6740 O   0  0  0  0  0  0  0  0  0  0  0  0
   36.9300   27.6130   34.8920 O   0  0  0  0  0  0  0  0  0  0  0  0
  1  2  1  0  0  0  0
  2 21  1  0  0  0  0
  2  3  2  0  0  0  0
  3  9  1  0  0  0  0
  4  3  1  0  0  0  0
  5  4  2  0  0  0  0
  6  1  2  0  0  0  0
  6  5  1  0  0  0  0
  7  1  1  0  0  0  0
  8  5  1  0  0  0  0
  9 10  2  0  0  0  0
  9 14  1  0  0  0  0
 10 11  1  0  0  0  0
 11 16  1  0  0  0  0
 11 12  2  0  0  0  0
 12 17  1  0  0  0  0
 13 12  1  0  0  0  0
 13 18  1  0  0  0  0
 14 13  2  0  0  0  0
 15 10  1  0  0  0  0
 19 14  1  0  0  0  0
 20 29  1  0  0  0  0
 20 27  1  0  0  0  0
 21 20  2  0  0  0  0
 22 21  1  0  0  0  0
 22 24  2  0  0  0  0
 23 22  1  0  0  0  0
 24 26  1  0  0  0  0
 25 24  1  0  0  0  0
 26 27  2  0  0  0  0
 29 28  1  0  0  0  0
 29 31  2  0  0  0  0
 30 29  2  0  0  0  0
M  END
>  <minimizedAffinity>
-5.31954622

$$$$

 OpenBabel03272509123D

 31 33  0  0  0  0  0  0  0  0999 V2000
   35.1890   26.0290   30.8390 C   0  0  0  0  0  0  0  0  0  0  0  0
   36.1000   26.6260   31.7660 C   0  0  0  0  0  0  0  0  0  0  0  0
   36.8650   25.7520   32.5430 C   0  0  0  0  0  0  0  0  0  0  0  0
   36.7140   24.4030   32.3900 N   0  0  0  0  0  0  0  0  0  0  0  0
   35.8370   23.8810   31.4990 C   0  0  0  0  0  0  0  0  0  0  0  0
   35.0810   24.6920   30.7310 N   0  0  0  0  0  0  0  0  0  0  0  0
   34.5630   26.6140   30.2020 H   0  0  0  0  0  0  0  0  0  0  0  0
   35.7230   22.8140   31.3860 H   0  0  0  0  0  0  0  0  0  0  0  0
   37.8170   26.2370   33.5160 C   0  0  0  0  0  0  0  0  0  0  0  0
   39.1270   26.3540   33.1450 C   0  0  0  0  0  0  0  0  0  0  0  0
   40.1080   26.8180   34.0180 C   0  0  0  0  0  0  0  0  0  0  0  0
   39.6950   27.1630   35.3050 C   0  0  0  0  0  0  0  0  0  0  0  0
   38.3720   27.0650   35.7460 C   0  0  0  0  0  0  0  0  0  0  0  0
   37.4700   26.5940   34.8020 C   0  0  0  0  0  0  0  0  0  0  0  0
   39.5890   26.1120   32.2040 H   0  0  0  0  0  0  0  0  0  0  0  0
   41.1560   26.9350   33.7920 H   0  0  0  0  0  0  0  0  0  0  0  0
   40.3930   27.5370   36.0570 H   0  0  0  0  0  0  0  0  0  0  0  0
   38.1010   27.3440   36.7540 H   0  0  0  0  0  0  0  0  0  0  0  0
   36.4400   26.5060   35.1090 H   0  0  0  0  0  0  0  0  0  0  0  0
   36.9050   28.8760   30.9780 C   0  0  0  0  0  0  0  0  0  0  0  0
   36.1050   28.0730   31.8040 C   0  0  0  0  0  0  0  0  0  0  0  0
   35.2260   28.6380   32.7400 C   0  0  0  0  0  0  0  0  0  0  0  0
   34.6130   28.0430   33.3750 H   0  0  0  0  0  0  0  0  0  0  0  0
   35.1640   30.0050   32.8310 C   0  0  0  0  0  0  0  0  0  0  0  0
   34.4840   30.4590   33.5550 H   0  0  0  0  0  0  0  0  0  0  0  0
   35.9630   30.7660   32.0040 C   0  0  0  0  0  3  0  0  0  0  0  0
   36.8390   30.2500   31.0730 C   0  0  0  0  0  3  0  0  0  0  0  0
   37.7380   26.7600   29.8270 H   0  0  0  0  0  0  0  0  0  0  0  0
   37.9690   28.0960   29.8420 S   0  0  0  0  0  0  0  0  0  0  0  0
   39.4180   28.2580   30.2730 O   0  0  0  0  0  0  0  0  0  0  0  0
   37.8130   28.6520   28.4380 O   0  0  0  0  0  0  0  0  0  0  0  0
  1  2  1  0  0  0  0
  2 21  1  0  0  0  0
  2  3  2  0  0  0  0
  3  9  1  0  0  0  0
  4  3  1  0  0  0  0
  5  4  2  0  0  0  0
  6  1  2  0  0  0  0
  6  5  1  0  0  0  0
  7  1  1  0  0  0  0
  8  5  1  0  0  0  0
  9 14  1  0  0  0  0
 10  9  2  0  0  0  0
 10 11  1  0  0  0  0
 11 12  2  0  0  0  0
 12 13  1  0  0  0  0
 12 17  1  0  0  0  0
 13 18  1  0  0  0  0
 14 19  1  0  0  0  0
 14 13  2  0  0  0  0
 15 10  1  0  0  0  0
 16 11  1  0  0  0  0
 20 27  2  0  0  0  0
 20 21  1  0  0  0  0
 21 22  2  0  0  0  0
 22 24  1  0  0  0  0
 22 23  1  0  0  0  0
 24 25  1  0  0  0  0
 26 24  2  0  0  0  0
 27 26  1  0  0  0  0
 28 29  1  0  0  0  0
 29 30  2  0  0  0  0
 29 20  1  0  0  0  0
 31 29  2  0  0  0  0
M  END
>  <minimizedAffinity>
-5.13389111

$$$$

 OpenBabel03272509123D

 31 33  0  0  0  0  0  0  0  0999 V2000
   41.8230   23.2830   34.9270 C   0  0  0  0  0  0  0  0  0  0  0  0
   40.5870   23.9800   34.7520 C   0  0  0  0  0  0  0  0  0  0  0  0
   40.6550   25.3750   34.7040 C   0  0  0  0  0  0  0  0  0  0  0  0
   41.8660   25.9970   34.8230 N   0  0  0  0  0  0  0  0  0  0  0  0
   43.0140   25.2960   34.9890 C   0  0  0  0  0  0  0  0  0  0  0  0
   42.9870   23.9480   35.0400 N   0  0  0  0  0  0  0  0  0  0  0  0
   41.8720   22.2170   34.9750 H   0  0  0  0  0  0  0  0  0  0  0  0
   43.9660   25.7950   35.0840 H   0  0  0  0  0  0  0  0  0  0  0  0
   39.4730   26.1880   34.5330 C   0  0  0  0  0  0  0  0  0  0  0  0
   38.9290   26.7880   35.6340 C   0  0  0  0  0  0  0  0  0  0  0  0
   37.7950   27.5920   35.5580 C   0  0  0  0  0  0  0  0  0  0  0  0
   37.2270   27.7640   34.2950 C   0  0  0  0  0  0  0  0  0  0  0  0
   37.7340   27.1780   33.1320 C   0  0  0  0  0  0  0  0  0  0  0  0
   38.8670   26.3960   33.3120 C   0  0  0  0  0  0  0  0  0  0  0  0
   39.2440   26.7330   36.6610 H   0  0  0  0  0  0  0  0  0  0  0  0
   37.3140   28.0950   36.3830 H   0  0  0  0  0  0  0  0  0  0  0  0
   36.3370   28.3780   34.1380 H   0  0  0  0  0  0  0  0  0  0  0  0
   37.2590   27.3410   32.1760 H   0  0  0  0  0  0  0  0  0  0  0  0
   39.2850   25.9290   32.4350 H   0  0  0  0  0  0  0  0  0  0  0  0
   38.6340   22.7680   35.7750 C   0  0  0  0  0  0  0  0  0  0  0  0
   39.4020   23.1540   34.6670 C   0  0  0  0  0  0  0  0  0  0  0  0
   39.0530   22.7590   33.3660 C   0  0  0  0  0  0  0  0  0  0  0  0
   39.6260   23.0420   32.5140 H   0  0  0  0  0  0  0  0  0  0  0  0
   37.9360   21.9830   33.2000 C   0  0  0  0  0  0  0  0  0  0  0  0
   37.6530   21.6670   32.1930 H   0  0  0  0  0  0  0  0  0  0  0  0
   37.2030   21.6210   34.3110 C   0  0  0  0  0  3  0  0  0  0  0  0
   37.5110   21.9870   35.6030 C   0  0  0  0  0  3  0  0  0  0  0  0
   39.6470   24.5540   37.2850 H   0  0  0  0  0  0  0  0  0  0  0  0
   39.1330   23.3010   37.3560 S   0  0  0  0  0  0  0  0  0  0  0  0
   40.2580   22.4240   37.8820 O   0  0  0  0  0  0  0  0  0  0  0  0
   37.9900   23.2780   38.3550 O   0  0  0  0  0  0  0  0  0  0  0  0
  1  7  1  0  0  0  0
  1  6  1  0  0  0  0
  2  1  2  0  0  0  0
  3  2  1  0  0  0  0
  3  4  2  0  0  0  0
  4  5  1  0  0  0  0
  5  6  2  0  0  0  0
  5  8  1  0  0  0  0
  9  3  1  0  0  0  0
  9 10  1  0  0  0  0
 10 15  1  0  0  0  0
 11 10  2  0  0  0  0
 11 16  1  0  0  0  0
 12 11  1  0  0  0  0
 13 14  1  0  0  0  0
 13 12  2  0  0  0  0
 14  9  2  0  0  0  0
 17 12  1  0  0  0  0
 18 13  1  0  0  0  0
 19 14  1  0  0  0  0
 20 29  1  0  0  0  0
 21  2  1  0  0  0  0
 21 20  2  0  0  0  0
 22 21  1  0  0  0  0
 23 22  1  0  0  0  0
 24 22  2  0  0  0  0
 24 26  1  0  0  0  0
 25 24  1  0  0  0  0
 26 27  2  0  0  0  0
 27 20  1  0  0  0  0
 28 29  1  0  0  0  0
 29 30  2  0  0  0  0
 29 31  2  0  0  0  0
M  END
>  <minimizedAffinity>
-5.09553528

$$$$

 OpenBabel03272509123D

 31 33  0  0  0  0  0  0  0  0999 V2000
   36.7570   24.3540   32.4150 C   0  0  0  0  0  0  0  0  0  0  0  0
   36.8750   25.7730   32.5480 C   0  0  0  0  0  0  0  0  0  0  0  0
   36.0550   26.5500   31.7250 C   0  0  0  0  0  0  0  0  0  0  0  0
   35.2000   25.9380   30.8520 N   0  0  0  0  0  0  0  0  0  0  0  0
   35.1220   24.5890   30.7580 C   0  0  0  0  0  0  0  0  0  0  0  0
   35.8970   23.8060   31.5370 N   0  0  0  0  0  0  0  0  0  0  0  0
   37.3400   23.6790   33.0010 H   0  0  0  0  0  0  0  0  0  0  0  0
   34.4450   24.1150   30.0650 H   0  0  0  0  0  0  0  0  0  0  0  0
   36.0870   27.9940   31.7660 C   0  0  0  0  0  0  0  0  0  0  0  0
   36.7530   28.6610   30.7770 C   0  0  0  0  0  0  0  0  0  0  0  0
   36.8270   30.0510   30.7370 C   0  0  0  0  0  0  0  0  0  0  0  0
   36.1880   30.7470   31.7640 C   0  0  0  0  0  0  0  0  0  0  0  0
   35.4920   30.1240   32.8040 C   0  0  0  0  0  0  0  0  0  0  0  0
   35.4740   28.7370   32.7530 C   0  0  0  0  0  0  0  0  0  0  0  0
   37.3000   28.2630   29.9410 H   0  0  0  0  0  0  0  0  0  0  0  0
   37.3330   30.6400   29.9880 H   0  0  0  0  0  0  0  0  0  0  0  0
   36.1910   31.8380   31.8150 H   0  0  0  0  0  0  0  0  0  0  0  0
   35.0120   30.7050   33.5770 H   0  0  0  0  0  0  0  0  0  0  0  0
   34.9460   28.2240   33.5410 H   0  0  0  0  0  0  0  0  0  0  0  0
   39.1810   26.5470   33.1900 C   0  0  0  0  0  0  0  0  0  0  0  0
   37.8510   26.2390   33.5100 C   0  0  0  0  0  0  0  0  0  0  0  0
   37.3660   26.3760   34.8190 C   0  0  0  0  0  0  0  0  0  0  0  0
   36.3600   26.1450   35.0790 H   0  0  0  0  0  0  0  0  0  0  0  0
   38.2270   26.8230   35.7880 C   0  0  0  0  0  0  0  0  0  0  0  0
   37.8640   26.9340   36.8120 H   0  0  0  0  0  0  0  0  0  0  0  0
   39.5290   27.1180   35.4400 C   0  0  0  0  0  3  0  0  0  0  0  0
   40.0440   26.9960   34.1670 C   0  0  0  0  0  3  0  0  0  0  0  0
   38.6960   25.8460   30.7880 H   0  0  0  0  0  0  0  0  0  0  0  0
   39.7050   26.3500   31.5410 S   0  0  0  0  0  0  0  0  0  0  0  0
   40.8300   25.3310   31.4570 O   0  0  0  0  0  0  0  0  0  0  0  0
   40.1850   27.6560   30.9340 O   0  0  0  0  0  0  0  0  0  0  0  0
  1  2  1  0  0  0  0
  1  7  1  0  0  0  0
  2 21  1  0  0  0  0
  3  9  1  0  0  0  0
  3  2  2  0  0  0  0
  4  3  1  0  0  0  0
  5  4  2  0  0  0  0
  5  6  1  0  0  0  0
  6  1  2  0  0  0  0
  8  5  1  0  0  0  0
  9 14  1  0  0  0  0
 10  9  2  0  0  0  0
 11 10  1  0  0  0  0
 11 12  2  0  0  0  0
 12 17  1  0  0  0  0
 12 13  1  0  0  0  0
 13 18  1  0  0  0  0
 14 13  2  0  0  0  0
 14 19  1  0  0  0  0
 15 10  1  0  0  0  0
 16 11  1  0  0  0  0
 20 21  2  0  0  0  0
 20 27  1  0  0  0  0
 21 22  1  0  0  0  0
 22 23  1  0  0  0  0
 22 24  2  0  0  0  0
 24 25  1  0  0  0  0
 26 24  1  0  0  0  0
 27 26  2  0  0  0  0
 28 29  1  0  0  0  0
 29 20  1  0  0  0  0
 30 29  2  0  0  0  0
 31 29  2  0  0  0  0
M  END
>  <minimizedAffinity>
-5.05775118

$$$$

 OpenBabel03272509123D

 31 33  0  0  0  0  0  0  0  0999 V2000
   37.5390   24.3340   31.9600 C   0  0  0  0  0  0  0  0  0  0  0  0
   37.5500   25.7570   32.1080 C   0  0  0  0  0  0  0  0  0  0  0  0
   36.3770   26.4320   31.7640 C   0  0  0  0  0  0  0  0  0  0  0  0
   35.2980   25.7260   31.3130 N   0  0  0  0  0  0  0  0  0  0  0  0
   35.3320   24.3770   31.1860 C   0  0  0  0  0  0  0  0  0  0  0  0
   36.4470   23.6910   31.5080 N   0  0  0  0  0  0  0  0  0  0  0  0
   38.3880   23.7320   32.1970 H   0  0  0  0  0  0  0  0  0  0  0  0
   34.4750   23.8270   30.8280 H   0  0  0  0  0  0  0  0  0  0  0  0
   36.2690   27.8690   31.8700 C   0  0  0  0  0  0  0  0  0  0  0  0
   36.5600   28.6280   30.7710 C   0  0  0  0  0  0  0  0  0  0  0  0
   36.4760   30.0180   30.7840 C   0  0  0  0  0  0  0  0  0  0  0  0
   36.0780   30.6150   31.9800 C   0  0  0  0  0  0  0  0  0  0  0  0
   35.7680   29.8960   33.1390 C   0  0  0  0  0  0  0  0  0  0  0  0
   35.8810   28.5170   33.0230 C   0  0  0  0  0  0  0  0  0  0  0  0
   36.8920   28.3120   29.7980 H   0  0  0  0  0  0  0  0  0  0  0  0
   36.6900   30.6760   29.9560 H   0  0  0  0  0  0  0  0  0  0  0  0
   35.9830   31.6980   32.0850 H   0  0  0  0  0  0  0  0  0  0  0  0
   35.4640   30.4030   34.0420 H   0  0  0  0  0  0  0  0  0  0  0  0
   35.6490   27.9310   33.8990 H   0  0  0  0  0  0  0  0  0  0  0  0
   39.1130   26.5040   33.9330 C   0  0  0  0  0  0  0  0  0  0  0  0
   38.7920   26.3330   32.5790 C   0  0  0  0  0  0  0  0  0  0  0  0
   39.6860   26.7110   31.5650 C   0  0  0  0  0  0  0  0  0  0  0  0
   39.4570   26.5890   30.5330 H   0  0  0  0  0  0  0  0  0  0  0  0
   40.8900   27.2550   31.9290 C   0  0  0  0  0  0  0  0  0  0  0  0
   41.5950   27.5550   31.1510 H   0  0  0  0  0  0  0  0  0  0  0  0
   41.1740   27.4090   33.2710 C   0  0  0  0  0  3  0  0  0  0  0  0
   40.3250   27.0520   34.2960 C   0  0  0  0  0  3  0  0  0  0  0  0
   36.6940   26.2990   34.7090 H   0  0  0  0  0  0  0  0  0  0  0  0
   37.9500   26.0080   35.1310 S   0  0  0  0  0  0  0  0  0  0  0  0
   38.1440   26.7920   36.4190 O   0  0  0  0  0  0  0  0  0  0  0  0
   38.0470   24.5260   35.4430 O   0  0  0  0  0  0  0  0  0  0  0  0
  1  2  1  0  0  0  0
  1  7  1  0  0  0  0
  2 21  1  0  0  0  0
  3  9  1  0  0  0  0
  3  2  2  0  0  0  0
  4  3  1  0  0  0  0
  5  4  2  0  0  0  0
  5  6  1  0  0  0  0
  6  1  2  0  0  0  0
  8  5  1  0  0  0  0
  9 14  1  0  0  0  0
 10 11  1  0  0  0  0
 10  9  2  0  0  0  0
 11 12  2  0  0  0  0
 12 17  1  0  0  0  0
 12 13  1  0  0  0  0
 13 18  1  0  0  0  0
 14 13  2  0  0  0  0
 14 19  1  0  0  0  0
 15 10  1  0  0  0  0
 16 11  1  0  0  0  0
 20 27  1  0  0  0  0
 20 29  1  0  0  0  0
 21 20  2  0  0  0  0
 22 24  2  0  0  0  0
 22 21  1  0  0  0  0
 23 22  1  0  0  0  0
 24 26  1  0  0  0  0
 25 24  1  0  0  0  0
 26 27  2  0  0  0  0
 28 29  1  0  0  0  0
 29 31  2  0  0  0  0
 29 30  2  0  0  0  0
M  END
>  <minimizedAffinity>
-5.05531263

$$$$

 OpenBabel03272509123D

 31 33  0  0  0  0  0  0  0  0999 V2000
   35.9340   31.8020   35.5560 C   0  0  0  0  0  0  0  0  0  0  0  0
   35.0210   30.8190   35.0600 C   0  0  0  0  0  0  0  0  0  0  0  0
   33.7380   30.8170   35.6140 C   0  0  0  0  0  0  0  0  0  0  0  0
   33.4190   31.7290   36.5800 N   0  0  0  0  0  0  0  0  0  0  0  0
   34.3160   32.6440   37.0220 C   0  0  0  0  0  0  0  0  0  0  0  0
   35.5630   32.6760   36.5110 N   0  0  0  0  0  0  0  0  0  0  0  0
   36.9340   31.8820   35.1940 H   0  0  0  0  0  0  0  0  0  0  0  0
   34.0550   33.3600   37.7860 H   0  0  0  0  0  0  0  0  0  0  0  0
   32.7310   29.8690   35.1960 C   0  0  0  0  0  0  0  0  0  0  0  0
   32.2860   28.9480   36.1010 C   0  0  0  0  0  0  0  0  0  0  0  0
   31.3130   28.0040   35.7830 C   0  0  0  0  0  0  0  0  0  0  0  0
   30.8050   28.0330   34.4840 C   0  0  0  0  0  0  0  0  0  0  0  0
   31.2190   28.9490   33.5120 C   0  0  0  0  0  0  0  0  0  0  0  0
   32.1900   29.8500   33.9280 C   0  0  0  0  0  0  0  0  0  0  0  0
   32.5940   28.7950   37.1210 H   0  0  0  0  0  0  0  0  0  0  0  0
   30.9160   27.2510   36.4460 H   0  0  0  0  0  0  0  0  0  0  0  0
   30.0390   27.3330   34.1450 H   0  0  0  0  0  0  0  0  0  0  0  0
   30.7960   28.9340   32.5190 H   0  0  0  0  0  0  0  0  0  0  0  0
   32.5340   30.5700   33.2020 H   0  0  0  0  0  0  0  0  0  0  0  0
   35.5460   30.2010   32.6780 C   0  0  0  0  0  0  0  0  0  0  0  0
   35.5460   29.9220   34.0520 C   0  0  0  0  0  0  0  0  0  0  0  0
   36.0790   28.7240   34.5530 C   0  0  0  0  0  0  0  0  0  0  0  0
   36.0850   28.4960   35.5930 H   0  0  0  0  0  0  0  0  0  0  0  0
   36.6060   27.8250   33.6620 C   0  0  0  0  0  0  0  0  0  0  0  0
   37.0240   26.8880   34.0370 H   0  0  0  0  0  0  0  0  0  0  0  0
   36.5910   28.1310   32.3170 C   0  0  0  0  0  3  0  0  0  0  0  0
   36.0770   29.2940   31.7860 C   0  0  0  0  0  3  0  0  0  0  0  0
   34.1850   32.3040   33.1500 H   0  0  0  0  0  0  0  0  0  0  0  0
   34.8660   31.7110   32.1380 S   0  0  0  0  0  0  0  0  0  0  0  0
   33.8440   31.4710   31.0390 O   0  0  0  0  0  0  0  0  0  0  0  0
   35.9280   32.6620   31.6170 O   0  0  0  0  0  0  0  0  0  0  0  0
  1  6  1  0  0  0  0
  2  1  2  0  0  0  0
  2  3  1  0  0  0  0
  3  4  2  0  0  0  0
  4  5  1  0  0  0  0
  5  8  1  0  0  0  0
  6  5  2  0  0  0  0
  7  1  1  0  0  0  0
  9  3  1  0  0  0  0
  9 10  1  0  0  0  0
 10 15  1  0  0  0  0
 11 10  2  0  0  0  0
 11 16  1  0  0  0  0
 12 11  1  0  0  0  0
 13 14  1  0  0  0  0
 13 12  2  0  0  0  0
 14  9  2  0  0  0  0
 17 12  1  0  0  0  0
 18 13  1  0  0  0  0
 19 14  1  0  0  0  0
 20 21  1  0  0  0  0
 21 22  2  0  0  0  0
 21  2  1  0  0  0  0
 22 23  1  0  0  0  0
 24 25  1  0  0  0  0
 24 22  1  0  0  0  0
 26 24  2  0  0  0  0
 27 26  1  0  0  0  0
 27 20  2  0  0  0  0
 29 20  1  0  0  0  0
 29 28  1  0  0  0  0
 30 29  2  0  0  0  0
 31 29  2  0  0  0  0
M  END
>  <minimizedAffinity>
-4.9216218

$$$$

 OpenBabel03272509123D

 31 33  0  0  0  0  0  0  0  0999 V2000
   37.7570   21.7020   33.9740 C   0  0  0  0  0  0  0  0  0  0  0  0
   38.6800   22.7590   34.2490 C   0  0  0  0  0  0  0  0  0  0  0  0
   38.5920   23.8950   33.4400 C   0  0  0  0  0  0  0  0  0  0  0  0
   37.6540   23.9470   32.4480 N   0  0  0  0  0  0  0  0  0  0  0  0
   36.7990   22.9200   32.2220 C   0  0  0  0  0  0  0  0  0  0  0  0
   36.8540   21.8080   32.9820 N   0  0  0  0  0  0  0  0  0  0  0  0
   37.7470   20.7960   34.5380 H   0  0  0  0  0  0  0  0  0  0  0  0
   36.0620   22.9690   31.4360 H   0  0  0  0  0  0  0  0  0  0  0  0
   39.4730   25.0260   33.6200 C   0  0  0  0  0  0  0  0  0  0  0  0
   40.5600   25.1440   32.8000 C   0  0  0  0  0  0  0  0  0  0  0  0
   41.4550   26.2050   32.9010 C   0  0  0  0  0  0  0  0  0  0  0  0
   41.1980   27.1570   33.8880 C   0  0  0  0  0  0  0  0  0  0  0  0
   40.1050   27.0930   34.7590 C   0  0  0  0  0  0  0  0  0  0  0  0
   39.2710   25.9980   34.5760 C   0  0  0  0  0  0  0  0  0  0  0  0
   40.8910   24.4860   32.0160 H   0  0  0  0  0  0  0  0  0  0  0  0
   42.3300   26.3600   32.2890 H   0  0  0  0  0  0  0  0  0  0  0  0
   41.8440   28.0240   34.0410 H   0  0  0  0  0  0  0  0  0  0  0  0
   39.9470   27.8540   35.5080 H   0  0  0  0  0  0  0  0  0  0  0  0
   38.4180   25.9180   35.2320 H   0  0  0  0  0  0  0  0  0  0  0  0
   39.3640   22.8220   36.6700 C   0  0  0  0  0  0  0  0  0  0  0  0
   39.6170   22.5150   35.3250 C   0  0  0  0  0  0  0  0  0  0  0  0
   40.8270   21.9240   34.9280 C   0  0  0  0  0  0  0  0  0  0  0  0
   41.0350   21.6860   33.9120 H   0  0  0  0  0  0  0  0  0  0  0  0
   41.7640   21.6510   35.8900 C   0  0  0  0  0  0  0  0  0  0  0  0
   42.7100   21.1920   35.5960 H   0  0  0  0  0  0  0  0  0  0  0  0
   41.4830   21.9660   37.2040 C   0  0  0  0  0  3  0  0  0  0  0  0
   40.3100   22.5460   37.6350 C   0  0  0  0  0  3  0  0  0  0  0  0
   37.4980   24.4780   36.1490 H   0  0  0  0  0  0  0  0  0  0  0  0
   37.8380   23.5530   37.0800 S   0  0  0  0  0  0  0  0  0  0  0  0
   37.9470   24.3120   38.3930 O   0  0  0  0  0  0  0  0  0  0  0  0
   36.7270   22.5260   37.2030 O   0  0  0  0  0  0  0  0  0  0  0  0
  1  2  1  0  0  0  0
  1  7  1  0  0  0  0
  2 21  1  0  0  0  0
  3  9  1  0  0  0  0
  3  2  2  0  0  0  0
  4  3  1  0  0  0  0
  5  4  2  0  0  0  0
  5  6  1  0  0  0  0
  6  1  2  0  0  0  0
  8  5  1  0  0  0  0
  9 14  1  0  0  0  0
 10 11  1  0  0  0  0
 10  9  2  0  0  0  0
 11 12  2  0  0  0  0
 12 17  1  0  0  0  0
 12 13  1  0  0  0  0
 13 18  1  0  0  0  0
 14 13  2  0  0  0  0
 14 19  1  0  0  0  0
 15 10  1  0  0  0  0
 16 11  1  0  0  0  0
 20 29  1  0  0  0  0
 20 27  1  0  0  0  0
 21 20  2  0  0  0  0
 22 21  1  0  0  0  0
 22 24  2  0  0  0  0
 23 22  1  0  0  0  0
 24 26  1  0  0  0  0
 25 24  1  0  0  0  0
 26 27  2  0  0  0  0
 28 29  1  0  0  0  0
 29 31  2  0  0  0  0
 29 30  2  0  0  0  0
M  END
>  <minimizedAffinity>
-4.89744091

$$$$

 OpenBabel03272509123D

 31 33  0  0  0  0  0  0  0  0999 V2000
   41.5410   27.0850   34.0500 C   0  0  0  0  0  0  0  0  0  0  0  0
   40.4320   26.2260   34.3300 C   0  0  0  0  0  0  0  0  0  0  0  0
   40.7320   24.9050   34.6710 C   0  0  0  0  0  0  0  0  0  0  0  0
   42.0360   24.5000   34.7210 N   0  0  0  0  0  0  0  0  0  0  0  0
   43.0570   25.3480   34.4470 C   0  0  0  0  0  0  0  0  0  0  0  0
   42.8060   26.6310   34.1150 N   0  0  0  0  0  0  0  0  0  0  0  0
   41.4120   28.1100   33.7820 H   0  0  0  0  0  0  0  0  0  0  0  0
   44.0840   25.0190   34.4880 H   0  0  0  0  0  0  0  0  0  0  0  0
   39.6960   23.9440   34.9720 C   0  0  0  0  0  0  0  0  0  0  0  0
   39.3010   23.7960   36.2710 C   0  0  0  0  0  0  0  0  0  0  0  0
   38.3060   22.8970   36.6470 C   0  0  0  0  0  0  0  0  0  0  0  0
   37.7200   22.1420   35.6310 C   0  0  0  0  0  0  0  0  0  0  0  0
   38.0800   22.2460   34.2840 C   0  0  0  0  0  0  0  0  0  0  0  0
   39.0790   23.1700   34.0120 C   0  0  0  0  0  0  0  0  0  0  0  0
   39.6700   24.2900   37.1520 H   0  0  0  0  0  0  0  0  0  0  0  0
   37.9460   22.7290   37.6500 H   0  0  0  0  0  0  0  0  0  0  0  0
   36.9310   21.4130   35.8300 H   0  0  0  0  0  0  0  0  0  0  0  0
   37.5970   21.6400   33.5320 H   0  0  0  0  0  0  0  0  0  0  0  0
   39.3820   23.2760   32.9820 H   0  0  0  0  0  0  0  0  0  0  0  0
   38.3970   26.8840   33.0040 C   0  0  0  0  0  0  0  0  0  0  0  0
   39.1210   26.8270   34.2030 C   0  0  0  0  0  0  0  0  0  0  0  0
   38.6000   27.3550   35.3940 C   0  0  0  0  0  0  0  0  0  0  0  0
   39.1360   27.3210   36.3130 H   0  0  0  0  0  0  0  0  0  0  0  0
   37.3570   27.9320   35.3610 C   0  0  0  0  0  0  0  0  0  0  0  0
   36.9380   28.3480   36.2800 H   0  0  0  0  0  0  0  0  0  0  0  0
   36.6710   27.9710   34.1640 C   0  0  0  0  0  3  0  0  0  0  0  0
   37.1470   27.4650   32.9740 C   0  0  0  0  0  3  0  0  0  0  0  0
   40.1160   25.3550   31.9060 H   0  0  0  0  0  0  0  0  0  0  0  0
   39.1140   26.2050   31.5690 S   0  0  0  0  0  0  0  0  0  0  0  0
   39.7630   27.2950   30.7310 O   0  0  0  0  0  0  0  0  0  0  0  0
   38.0970   25.4730   30.7130 O   0  0  0  0  0  0  0  0  0  0  0  0
  1  6  2  0  0  0  0
  1  2  1  0  0  0  0
  2  3  2  0  0  0  0
  3  4  1  0  0  0  0
  3  9  1  0  0  0  0
  5  8  1  0  0  0  0
  5  4  2  0  0  0  0
  6  5  1  0  0  0  0
  7  1  1  0  0  0  0
  9 10  1  0  0  0  0
 10 11  2  0  0  0  0
 10 15  1  0  0  0  0
 11 16  1  0  0  0  0
 12 17  1  0  0  0  0
 12 11  1  0  0  0  0
 13 12  2  0  0  0  0
 14 13  1  0  0  0  0
 14  9  2  0  0  0  0
 18 13  1  0  0  0  0
 19 14  1  0  0  0  0
 20 21  1  0  0  0  0
 21  2  1  0  0  0  0
 21 22  2  0  0  0  0
 22 23  1  0  0  0  0
 24 22  1  0  0  0  0
 24 25  1  0  0  0  0
 26 24  2  0  0  0  0
 27 20  2  0  0  0  0
 27 26  1  0  0  0  0
 29 28  1  0  0  0  0
 29 20  1  0  0  0  0
 30 29  2  0  0  0  0
 31 29  2  0  0  0  0
M  END
>  <minimizedAffinity>
-4.86313009

$$$$

 OpenBabel03272509123D

 31 33  0  0  0  0  0  0  0  0999 V2000
   41.6630   23.7560   35.6380 C   0  0  0  0  0  0  0  0  0  0  0  0
   40.4120   24.3990   35.3770 C   0  0  0  0  0  0  0  0  0  0  0  0
   40.4690   25.6820   34.8250 C   0  0  0  0  0  0  0  0  0  0  0  0
   41.6830   26.2520   34.5660 N   0  0  0  0  0  0  0  0  0  0  0  0
   42.8450   25.6070   34.8310 C   0  0  0  0  0  0  0  0  0  0  0  0
   42.8300   24.3680   35.3630 N   0  0  0  0  0  0  0  0  0  0  0  0
   41.7210   22.7770   36.0570 H   0  0  0  0  0  0  0  0  0  0  0  0
   43.7990   26.0660   34.6240 H   0  0  0  0  0  0  0  0  0  0  0  0
   39.2720   26.4320   34.5210 C   0  0  0  0  0  0  0  0  0  0  0  0
   38.8060   26.4240   33.2360 C   0  0  0  0  0  0  0  0  0  0  0  0
   37.6570   27.1140   32.8580 C   0  0  0  0  0  0  0  0  0  0  0  0
   36.9910   27.8250   33.8560 C   0  0  0  0  0  0  0  0  0  0  0  0
   37.4160   27.8740   35.1880 C   0  0  0  0  0  0  0  0  0  0  0  0
   38.5690   27.1530   35.4630 C   0  0  0  0  0  0  0  0  0  0  0  0
   39.2190   25.9410   32.3690 H   0  0  0  0  0  0  0  0  0  0  0  0
   37.2340   27.1510   31.8670 H   0  0  0  0  0  0  0  0  0  0  0  0
   36.0810   28.3950   33.6540 H   0  0  0  0  0  0  0  0  0  0  0  0
   36.8660   28.4380   35.9260 H   0  0  0  0  0  0  0  0  0  0  0  0
   38.9260   27.1690   36.4810 H   0  0  0  0  0  0  0  0  0  0  0  0
   38.5720   22.7570   34.8770 C   0  0  0  0  0  0  0  0  0  0  0  0
   39.2280   23.6480   35.7380 C   0  0  0  0  0  0  0  0  0  0  0  0
   38.7720   23.8660   37.0470 C   0  0  0  0  0  0  0  0  0  0  0  0
   39.2580   24.5400   37.7130 H   0  0  0  0  0  0  0  0  0  0  0  0
   37.6610   23.1830   37.4710 C   0  0  0  0  0  0  0  0  0  0  0  0
   37.2930   23.3430   38.4870 H   0  0  0  0  0  0  0  0  0  0  0  0
   37.0390   22.3140   36.5980 C   0  0  0  0  0  3  0  0  0  0  0  0
   37.4550   22.0730   35.3070 C   0  0  0  0  0  3  0  0  0  0  0  0
   40.1720   23.4580   33.0210 H   0  0  0  0  0  0  0  0  0  0  0  0
   39.2020   22.5430   33.2680 S   0  0  0  0  0  0  0  0  0  0  0  0
   38.1190   22.8000   32.2330 O   0  0  0  0  0  0  0  0  0  0  0  0
   39.7590   21.1460   33.0540 O   0  0  0  0  0  0  0  0  0  0  0  0
  1  7  1  0  0  0  0
  2  1  1  0  0  0  0
  2 21  1  0  0  0  0
  3  2  2  0  0  0  0
  4  3  1  0  0  0  0
  4  5  2  0  0  0  0
  5  6  1  0  0  0  0
  6  1  2  0  0  0  0
  8  5  1  0  0  0  0
  9  3  1  0  0  0  0
  9 14  1  0  0  0  0
 10  9  2  0  0  0  0
 11 10  1  0  0  0  0
 11 12  2  0  0  0  0
 12 13  1  0  0  0  0
 13 14  2  0  0  0  0
 13 18  1  0  0  0  0
 14 19  1  0  0  0  0
 15 10  1  0  0  0  0
 16 11  1  0  0  0  0
 17 12  1  0  0  0  0
 20 27  2  0  0  0  0
 20 21  1  0  0  0  0
 21 22  2  0  0  0  0
 22 24  1  0  0  0  0
 22 23  1  0  0  0  0
 24 25  1  0  0  0  0
 26 24  2  0  0  0  0
 27 26  1  0  0  0  0
 28 29  1  0  0  0  0
 29 20  1  0  0  0  0
 30 29  2  0  0  0  0
 31 29  2  0  0  0  0
M  END
>  <minimizedAffinity>
-4.83367586

$$$$
