
 OpenBabel03262522323D

 30 32  0  0  0  0  0  0  0  0999 V2000
   38.5450   31.5320   47.8920 C   0  0  0  0  0  0  0  0  0  0  0  0
   39.0760   32.7820   48.0400 C   0  0  0  0  0  0  0  0  0  0  0  0
   39.7170   33.4830   47.0390 C   0  0  0  0  0  0  0  0  0  0  0  0
   39.8420   32.8980   45.7850 C   0  0  0  0  0  0  0  0  0  0  0  0
   39.3070   31.6440   45.6450 C   0  0  0  0  0  0  0  0  0  0  0  0
   38.7050   31.0370   46.6630 N   0  0  0  0  0  0  0  0  0  0  0  0
   38.9960   33.2720   49.0150 H   0  0  0  0  0  0  0  0  0  0  0  0
   40.1070   34.4800   47.2640 H   0  0  0  0  0  0  0  0  0  0  0  0
   40.3550   33.5240   45.0770 H   0  0  0  0  0  0  0  0  0  0  0  0
   38.1670   30.9890   50.3230 C   0  0  0  0  0  0  0  0  0  0  0  0
   37.8800   30.8090   48.9520 C   0  0  0  0  0  0  0  0  0  0  0  0
   36.8900   29.8810   48.5960 C   0  0  0  0  0  0  0  0  0  0  0  0
   36.2590   29.2030   49.6040 N   0  0  0  0  0  0  0  0  0  0  0  0
   36.5750   29.4130   50.9090 C   0  0  0  0  0  0  0  0  0  0  0  0
   37.5170   30.2950   51.2720 N   0  0  0  0  0  0  0  0  0  0  0  0
   38.9390   31.7200   50.4950 H   0  0  0  0  0  0  0  0  0  0  0  0
   36.6070   29.6810   47.5830 H   0  0  0  0  0  0  0  0  0  0  0  0
   36.0650   28.8670   51.6950 H   0  0  0  0  0  0  0  0  0  0  0  0
   38.2990   30.7730   43.5810 C   0  0  0  0  0  0  0  0  0  0  0  0
   39.4290   31.0160   44.3370 C   0  0  0  0  0  0  0  0  0  0  0  0
   40.6360   30.6390   43.7910 C   0  0  0  0  0  0  0  0  0  0  0  0
   41.5660   30.7930   44.3160 H   0  0  0  0  0  0  0  0  0  0  0  0
   40.8070   30.0420   42.5610 C   0  0  0  0  0  0  0  0  0  0  0  0
   41.7710   29.7590   42.1620 H   0  0  0  0  0  0  0  0  0  0  0  0
   39.6840   29.7960   41.8010 C   0  0  0  0  0  3  0  0  0  0  0  0
   38.4740   30.1670   42.3300 C   0  0  0  0  0  3  0  0  0  0  0  0
   36.7230   32.2450   44.9380 H   0  0  0  0  0  0  0  0  0  0  0  0
   36.6790   31.1740   44.0890 S   0  0  0  0  0  0  0  0  0  0  0  0
   35.8630   31.5090   42.8540 O   0  0  0  0  0  0  0  0  0  0  0  0
   36.0640   29.9700   44.7830 O   0  0  0  0  0  0  0  0  0  0  0  0
  1  2  1  0  0  0  0
  1 11  1  0  0  0  0
  2  7  1  0  0  0  0
  3  8  1  0  0  0  0
  3  2  2  0  0  0  0
  4  3  1  0  0  0  0
  5  4  2  0  0  0  0
  5  6  1  0  0  0  0
  6  1  2  0  0  0  0
  9  4  1  0  0  0  0
 10 16  1  0  0  0  0
 10 15  1  0  0  0  0
 11 10  2  0  0  0  0
 12 11  1  0  0  0  0
 12 13  2  0  0  0  0
 13 14  1  0  0  0  0
 14 15  2  0  0  0  0
 14 18  1  0  0  0  0
 17 12  1  0  0  0  0
 19 28  1  0  0  0  0
 19 20  1  0  0  0  0
 20  5  1  0  0  0  0
 21 22  1  0  0  0  0
 21 20  2  0  0  0  0
 23 21  1  0  0  0  0
 24 23  1  0  0  0  0
 25 26  1  0  0  0  0
 25 23  2  0  0  0  0
 26 19  2  0  0  0  0
 28 30  2  0  0  0  0
 28 27  1  0  0  0  0
 29 28  2  0  0  0  0
M  END
>  <minimizedAffinity>
-5.59268427

>  <minimizedRMSD>
1.79603446

$$$$
