
 OpenBabel03272509383D

 33 35  0  0  1  0  0  0  0  0999 V2000
   35.1870   30.0200   47.9220 C   0  0  0  0  0  0  0  0  0  0  0  0
   35.0560   30.3350   49.2800 C   0  0  0  0  0  0  0  0  0  0  0  0
   35.9860   31.1460   49.9440 C   0  0  0  0  0  0  0  0  0  0  0  0
   37.0830   31.6560   49.2140 C   0  0  0  0  0  0  0  0  0  0  0  0
   37.1960   31.3320   47.8650 C   0  0  0  0  0  0  0  0  0  0  0  0
   36.2660   30.5290   47.2280 C   0  0  0  0  0  0  0  0  0  0  0  0
   34.2190   29.9490   49.8450 H   0  0  0  0  0  0  0  0  0  0  0  0
   35.8770   31.3820   50.9880 H   0  0  0  0  0  0  0  0  0  0  0  0
   37.7860   32.2790   49.7530 H   0  0  0  0  0  0  0  0  0  0  0  0
   38.0690   31.7740   47.4030 H   0  0  0  0  0  0  0  0  0  0  0  0
   37.6370   30.7210   45.0390 C   0  0  0  0  0  0  0  0  0  0  0  0
   36.5690   30.3410   45.8260 C   0  0  0  0  0  0  0  0  0  0  0  0
   35.5150   29.6600   45.2010 C   0  0  0  0  0  0  0  0  0  0  0  0
   34.5920   29.2850   45.6630 H   0  0  0  0  0  0  0  0  0  0  0  0
   35.5550   29.3800   43.8300 C   0  0  0  0  0  0  0  0  0  0  0  0
   34.7650   28.8570   43.3100 H   0  0  0  0  0  0  0  0  0  0  0  0
   36.6350   29.7700   43.0660 C   0  0  0  0  0  0  0  0  0  0  0  0
   37.6630   30.4390   43.6920 C   0  0  0  0  0  0  0  0  0  0  0  0
   38.5380   31.7200   47.2550 H   0  0  0  0  0  0  0  0  0  0  0  0
   38.8940   31.5310   45.9470 S   0  0  0  0  0  0  0  0  0  0  0  0
   40.1990   30.7970   45.9180 O   0  0  0  0  0  0  0  0  0  0  0  0
   39.1420   32.9170   45.3870 O   0  0  0  0  0  0  0  0  0  0  0  0
   34.1980   29.1500   47.3150 C   0  0  2  0  0  0  0  0  0  0  0  0
   34.4800   27.8970   47.4130 O   0  0  0  0  0  0  0  0  0  0  0  0
   31.9220   31.4280   45.6610 C   0  0  0  0  0  0  0  0  0  0  0  0
   30.8110   30.6330   45.3410 C   0  0  0  0  0  0  0  0  0  0  0  0
   30.8410   29.2840   45.7060 C   0  0  0  0  0  0  0  0  0  0  0  0
   31.9460   28.7880   46.3560 N   0  0  0  0  0  0  0  0  0  0  0  0
   32.9800   29.5760   46.6420 C   0  0  0  0  0  0  0  0  0  0  0  0
   32.9480   30.8600   46.2950 N   0  0  0  0  0  0  0  0  0  0  0  0
   31.8110   32.4530   45.3430 H   0  0  0  0  0  0  0  0  0  0  0  0
   29.8950   30.9230   44.8320 H   0  0  0  0  0  0  0  0  0  0  0  0
   30.0710   28.5450   45.5330 H   0  0  0  0  0  0  0  0  0  0  0  0
  1  2  1  0  0  0  0
  2  7  1  0  0  0  0
  2  3  2  0  0  0  0
  3  8  1  0  0  0  0
  4  9  1  0  0  0  0
  4  3  1  0  0  0  0
  5  4  2  0  0  0  0
  6  5  1  0  0  0  0
  6  1  2  0  0  0  0
 10  5  1  0  0  0  0
 11 12  1  0  0  0  0
 11 20  1  0  0  0  0
 12  6  1  0  0  0  0
 13 14  1  0  0  0  0
 13 12  2  0  0  0  0
 15 13  1  0  0  0  0
 16 15  1  0  0  0  0
 17 18  1  0  0  0  0
 17 15  2  0  0  0  0
 18 11  2  0  0  0  0
 20 19  1  0  0  0  0
 21 20  2  0  0  0  0
 22 20  2  0  0  0  0
 23 24  1  6  0  0  0
 23  1  1  0  0  0  0
 25 30  1  0  0  0  0
 26 25  2  0  0  0  0
 26 27  1  0  0  0  0
 27 28  2  0  0  0  0
 28 29  1  0  0  0  0
 29 23  1  0  0  0  0
 30 29  2  0  0  0  0
 31 25  1  0  0  0  0
 32 26  1  0  0  0  0
 33 27  1  0  0  0  0
M  END
>  <minimizedAffinity>
-4.96958208

>  <minimizedRMSD>
1.84940219

$$$$
