
 OpenBabel03272506353D

 22 23  0  0  0  0  0  0  0  0999 V2000
   36.0760   29.8470   48.8750 C   0  0  0  0  0  0  0  0  0  0  0  0
   37.3100   30.4620   48.8100 C   0  0  0  0  0  0  0  0  0  0  0  0
   37.9990   30.6470   49.9970 C   0  0  0  0  0  0  0  0  0  0  0  0
   38.9710   31.1340   49.9220 H   0  0  0  0  0  0  0  0  0  0  0  0
   37.5190   30.2530   51.2240 C   0  0  0  0  0  0  0  0  0  0  0  0
   38.0860   30.4170   52.1170 H   0  0  0  0  0  0  0  0  0  0  0  0
   36.2960   29.6410   51.3200 C   0  0  0  0  0  0  0  0  0  0  0  0
   35.6130   29.4570   50.1350 C   0  0  0  0  0  0  0  0  0  0  0  0
   39.7580   31.0420   46.1440 C   0  0  0  0  0  0  0  0  0  0  0  0
   39.0230   31.7180   45.1710 C   0  0  0  0  0  0  0  0  0  0  0  0
   37.6870   31.9770   45.4250 C   0  0  0  0  0  0  0  0  0  0  0  0
   37.1660   31.5600   46.6030 N   0  0  0  0  0  0  0  0  0  0  0  0
   37.8820   30.9050   47.5430 C   0  0  0  0  0  0  0  0  0  0  0  0
   39.1670   30.6640   47.2840 N   0  0  0  0  0  0  0  0  0  0  0  0
   39.3990   32.0670   44.2170 H   0  0  0  0  0  0  0  0  0  0  0  0
   37.0720   32.4860   44.7260 H   0  0  0  0  0  0  0  0  0  0  0  0
   41.0830   30.8440   45.7710 O   0  0  0  0  0  0  0  0  0  0  0  0
   41.3160   30.0370   45.2280 H   0  0  0  0  0  0  0  0  0  0  0  0
   35.8600   29.6770   46.2820 H   0  0  0  0  0  0  0  0  0  0  0  0
   35.1360   29.5710   47.4300 S   0  0  0  0  0  0  0  0  0  0  0  0
   33.9920   30.5760   47.4280 O   0  0  0  0  0  0  0  0  0  0  0  0
   34.4320   28.2210   47.4730 O   0  0  0  0  0  0  0  0  0  0  0  0
  1  8  1  0  0  0  0
  2  1  2  0  0  0  0
  2  3  1  0  0  0  0
  3  5  2  0  0  0  0
  4  3  1  0  0  0  0
  5  7  1  0  0  0  0
  5  6  1  0  0  0  0
  8  7  2  0  0  0  0
  9 14  1  0  0  0  0
 10 11  1  0  0  0  0
 10  9  2  0  0  0  0
 11 12  2  0  0  0  0
 12 13  1  0  0  0  0
 13  2  1  0  0  0  0
 14 13  2  0  0  0  0
 15 10  1  0  0  0  0
 16 11  1  0  0  0  0
 17  9  1  0  0  0  0
 18 17  1  0  0  0  0
 19 20  1  0  0  0  0
 20 22  2  0  0  0  0
 20  1  1  0  0  0  0
 21 20  2  0  0  0  0
M  END
>  <minimizedAffinity>
-5.08057356

>  <minimizedRMSD>
4.4013567

$$$$
