
 OpenBabel03272508113D

 37 39  0  0  0  0  0  0  0  0999 V2000
   36.6610   29.5450   44.0750 Cl  0  0  0  0  0  0  0  0  0  0  0  0
   38.2900   29.9280   43.4980 C   0  0  0  0  0  0  0  0  0  0  0  0
   39.3150   30.3930   44.3140 C   0  0  0  0  0  0  0  0  0  0  0  0
   40.5500   30.6560   43.7310 C   0  0  0  0  0  0  0  0  0  0  0  0
   40.7410   30.4570   42.3810 C   0  0  0  0  0  0  0  0  0  0  0  0
   39.7470   30.0020   41.5690 C   0  0  0  0  0  0  0  0  0  0  0  0
   38.5310   29.7420   42.1360 C   0  0  0  0  0  0  0  0  0  0  0  0
   41.2800   31.0080   44.4200 H   0  0  0  0  0  0  0  0  0  0  0  0
   41.7140   30.6720   41.9600 H   0  0  0  0  0  0  0  0  0  0  0  0
   39.9550   29.8650   40.5120 H   0  0  0  0  0  0  0  0  0  0  0  0
   37.4530   27.8680   41.1360 C   0  0  0  0  0  0  0  0  0  0  0  0
   37.4770   29.2520   41.2310 C   0  0  0  0  0  0  0  0  0  0  0  0
   36.6010   30.0630   40.5440 C   0  0  0  0  0  0  0  0  0  0  0  0
   36.7140   31.1240   40.6970 H   0  0  0  0  0  0  0  0  0  0  0  0
   35.6470   29.5190   39.7180 C   0  0  0  0  0  0  0  0  0  0  0  0
   34.9880   30.2040   39.2060 H   0  0  0  0  0  0  0  0  0  0  0  0
   35.5960   28.1470   39.6020 C   0  0  0  0  0  3  0  0  0  0  0  0
   36.4720   27.3410   40.2880 C   0  0  0  0  0  3  0  0  0  0  0  0
   38.8490   27.3020   43.2390 H   0  0  0  0  0  0  0  0  0  0  0  0
   38.5350   26.8000   41.9810 S   0  0  0  0  0  0  0  0  0  0  0  0
   39.7540   26.4360   41.2170 O   0  0  0  0  0  0  0  0  0  0  0  0
   37.7920   25.5170   42.2570 O   0  0  0  0  0  0  0  0  0  0  0  0
   38.9240   30.5230   45.6170 O   0  0  0  0  0  0  0  0  0  0  0  0
   39.4510   32.5260   47.1560 O   0  0  0  0  0  0  0  0  0  0  0  0
   38.3350   31.8670   46.4310 P   0  0  1  0  0  0  0  0  0  0  0  0
   37.7470   32.8940   45.1980 O   0  0  0  0  0  0  0  0  0  0  0  0
   37.3470   32.3870   44.4550 H   0  0  0  0  0  0  0  0  0  0  0  0
   37.0510   31.3910   47.4290 O   0  0  0  0  0  0  0  0  0  0  0  0
   37.6050   30.5340   50.9750 C   0  0  0  0  0  0  0  0  0  0  0  0
   37.7070   31.2940   49.8060 C   0  0  0  0  0  0  0  0  0  0  0  0
   37.0850   30.8290   48.6590 C   0  0  0  0  0  0  0  0  0  0  0  0
   36.4010   29.6500   48.7220 N   0  0  0  0  0  0  0  0  0  0  0  0
   36.3220   28.9380   49.8730 C   0  0  0  0  0  0  0  0  0  0  0  0
   36.9290   29.3890   50.9960 N   0  0  0  0  0  0  0  0  0  0  0  0
   38.0890   30.9050   51.8470 H   0  0  0  0  0  0  0  0  0  0  0  0
   38.2230   32.2140   49.6980 H   0  0  0  0  0  0  0  0  0  0  0  0
   35.7740   27.9930   49.9190 H   0  0  0  0  0  0  0  0  0  0  0  0
  2  1  1  0  0  0  0
  2  3  1  0  0  0  0
  3 23  1  0  0  0  0
  4  3  2  0  0  0  0
  4  8  1  0  0  0  0
  5  4  1  0  0  0  0
  6  7  1  0  0  0  0
  6  5  2  0  0  0  0
  7  2  2  0  0  0  0
  9  5  1  0  0  0  0
 10  6  1  0  0  0  0
 11 12  1  0  0  0  0
 11 20  1  0  0  0  0
 12  7  1  0  0  0  0
 13 14  1  0  0  0  0
 13 12  2  0  0  0  0
 15 13  1  0  0  0  0
 16 15  1  0  0  0  0
 17 15  2  0  0  0  0
 17 18  1  0  0  0  0
 18 11  2  0  0  0  0
 20 22  2  0  0  0  0
 20 19  1  0  0  0  0
 21 20  2  0  0  0  0
 23 25  1  0  0  0  0
 25 24  2  1  0  0  0
 25 28  1  0  0  0  0
 26 25  1  0  0  0  0
 27 26  1  0  0  0  0
 28 31  1  0  0  0  0
 29 34  1  0  0  0  0
 29 35  1  0  0  0  0
 30 29  2  0  0  0  0
 31 32  2  0  0  0  0
 31 30  1  0  0  0  0
 32 33  1  0  0  0  0
 33 37  1  0  0  0  0
 33 34  2  0  0  0  0
 36 30  1  0  0  0  0
M  END
>  <minimizedAffinity>
-4.91467142

>  <minimizedRMSD>
0.534763455

$$$$
