
 OpenBabel03262522103D

 32 34  0  0  0  0  0  0  0  0999 V2000
   37.5990   26.2470   33.4660 C   0  0  0  0  0  0  0  0  0  0  0  0
   37.3300   27.3890   34.1900 C   0  0  0  0  0  0  0  0  0  0  0  0
   37.8920   27.5470   35.4540 C   0  0  0  0  0  0  0  0  0  0  0  0
   38.7020   26.5100   35.8950 C   0  0  0  0  0  0  0  0  0  0  0  0
   38.9620   25.3800   35.1670 C   0  0  0  0  0  0  0  0  0  0  0  0
   38.3960   25.2700   33.9490 N   0  0  0  0  0  0  0  0  0  0  0  0
   36.6890   28.1630   33.7890 H   0  0  0  0  0  0  0  0  0  0  0  0
   37.6840   28.4320   36.0150 H   0  0  0  0  0  0  0  0  0  0  0  0
   39.1030   26.6970   36.8790 H   0  0  0  0  0  0  0  0  0  0  0  0
   39.3070   23.3530   36.5310 C   0  0  0  0  0  0  0  0  0  0  0  0
   39.8220   24.3190   35.6810 C   0  0  0  0  0  0  0  0  0  0  0  0
   41.1560   24.2440   35.3410 C   0  0  0  0  0  0  0  0  0  0  0  0
   41.6400   24.9540   34.6860 H   0  0  0  0  0  0  0  0  0  0  0  0
   42.0110   23.2590   35.8000 C   0  0  0  0  0  0  0  0  0  0  0  0
   43.0580   23.2080   35.5290 H   0  0  0  0  0  0  0  0  0  0  0  0
   41.5320   22.2900   36.6420 C   0  0  0  0  0  3  0  0  0  0  0  0
   40.1960   22.3840   36.9690 C   0  0  0  0  0  3  0  0  0  0  0  0
   37.0190   24.4890   36.7400 H   0  0  0  0  0  0  0  0  0  0  0  0
   37.6580   23.3160   37.0440 S   0  0  0  0  0  0  0  0  0  0  0  0
   37.6440   23.1930   38.5640 O   0  0  0  0  0  0  0  0  0  0  0  0
   36.8770   22.1640   36.4860 O   0  0  0  0  0  0  0  0  0  0  0  0
   36.9800   26.1430   32.1560 C   0  0  0  0  0  0  0  0  0  0  0  0
   36.0450   25.3680   31.9550 O   0  0  0  0  0  0  0  0  0  0  0  0
   36.5910   27.9910   30.5390 C   0  0  0  0  0  0  0  0  0  0  0  0
   37.4330   26.9520   31.0100 C   0  0  0  0  0  0  0  0  0  0  0  0
   38.6380   26.7390   30.3840 C   0  0  0  0  0  0  0  0  0  0  0  0
   38.9870   27.5340   29.3260 N   0  0  0  0  0  0  0  0  0  0  0  0
   38.1530   28.5300   28.8920 C   0  0  0  0  0  0  0  0  0  0  0  0
   36.9940   28.7480   29.4830 N   0  0  0  0  0  0  0  0  0  0  0  0
   35.6410   28.1710   31.0220 H   0  0  0  0  0  0  0  0  0  0  0  0
   39.2920   25.9480   30.7330 H   0  0  0  0  0  0  0  0  0  0  0  0
   38.5060   29.1160   28.0460 H   0  0  0  0  0  0  0  0  0  0  0  0
  1  6  2  0  0  0  0
  1  2  1  0  0  0  0
  2  3  2  0  0  0  0
  3  4  1  0  0  0  0
  3  8  1  0  0  0  0
  4  9  1  0  0  0  0
  5 11  1  0  0  0  0
  5  4  2  0  0  0  0
  6  5  1  0  0  0  0
  7  2  1  0  0  0  0
 10 17  1  0  0  0  0
 10 19  1  0  0  0  0
 11 10  2  0  0  0  0
 12 11  1  0  0  0  0
 12 14  2  0  0  0  0
 13 12  1  0  0  0  0
 14 16  1  0  0  0  0
 15 14  1  0  0  0  0
 16 17  2  0  0  0  0
 18 19  1  0  0  0  0
 19 20  2  0  0  0  0
 21 19  2  0  0  0  0
 22  1  1  0  0  0  0
 23 22  2  0  0  0  0
 24 25  1  0  0  0  0
 24 30  1  0  0  0  0
 25 22  1  0  0  0  0
 26 31  1  0  0  0  0
 26 25  2  0  0  0  0
 27 26  1  0  0  0  0
 28 27  2  0  0  0  0
 28 29  1  0  0  0  0
 29 24  2  0  0  0  0
 32 28  1  0  0  0  0
M  END
>  <minimizedAffinity>
-5.60307837

$$$$

 OpenBabel03262522103D

 32 34  0  0  0  0  0  0  0  0999 V2000
   37.3720   25.3370   33.0980 C   0  0  0  0  0  0  0  0  0  0  0  0
   37.0940   26.6290   33.4890 C   0  0  0  0  0  0  0  0  0  0  0  0
   37.7080   27.1480   34.6260 C   0  0  0  0  0  0  0  0  0  0  0  0
   38.5770   26.2960   35.2930 C   0  0  0  0  0  0  0  0  0  0  0  0
   38.8450   25.0140   34.8950 C   0  0  0  0  0  0  0  0  0  0  0  0
   38.2280   24.5530   33.7890 N   0  0  0  0  0  0  0  0  0  0  0  0
   36.4060   27.2440   32.9250 H   0  0  0  0  0  0  0  0  0  0  0  0
   37.4920   28.1500   34.9290 H   0  0  0  0  0  0  0  0  0  0  0  0
   39.0150   26.7610   36.1620 H   0  0  0  0  0  0  0  0  0  0  0  0
   39.3080   23.3750   36.6810 C   0  0  0  0  0  0  0  0  0  0  0  0
   39.7680   24.1600   35.6350 C   0  0  0  0  0  0  0  0  0  0  0  0
   41.1100   24.1070   35.3220 C   0  0  0  0  0  0  0  0  0  0  0  0
   41.5550   24.6850   34.5240 H   0  0  0  0  0  0  0  0  0  0  0  0
   42.0240   23.3140   35.9920 C   0  0  0  0  0  0  0  0  0  0  0  0
   43.0770   23.2790   35.7400 H   0  0  0  0  0  0  0  0  0  0  0  0
   41.6000   22.5270   37.0300 C   0  0  0  0  0  3  0  0  0  0  0  0
   40.2550   22.5950   37.3270 C   0  0  0  0  0  3  0  0  0  0  0  0
   37.0460   24.5430   36.9770 H   0  0  0  0  0  0  0  0  0  0  0  0
   37.6570   23.3360   37.1880 S   0  0  0  0  0  0  0  0  0  0  0  0
   37.6360   23.0930   38.6920 O   0  0  0  0  0  0  0  0  0  0  0  0
   36.8520   22.2500   36.5390 O   0  0  0  0  0  0  0  0  0  0  0  0
   36.6970   24.8550   31.9050 C   0  0  0  0  0  0  0  0  0  0  0  0
   36.0820   25.6270   31.1680 O   0  0  0  0  0  0  0  0  0  0  0  0
   35.5920   22.6300   31.8470 C   0  0  0  0  0  0  0  0  0  0  0  0
   36.7130   23.4340   31.5190 C   0  0  0  0  0  0  0  0  0  0  0  0
   37.7680   22.8590   30.8530 C   0  0  0  0  0  0  0  0  0  0  0  0
   37.7060   21.5300   30.5290 N   0  0  0  0  0  0  0  0  0  0  0  0
   36.6110   20.7780   30.8600 C   0  0  0  0  0  0  0  0  0  0  0  0
   35.5880   21.3150   31.4970 N   0  0  0  0  0  0  0  0  0  0  0  0
   34.7530   23.0680   32.3700 H   0  0  0  0  0  0  0  0  0  0  0  0
   38.6330   23.4610   30.5950 H   0  0  0  0  0  0  0  0  0  0  0  0
   36.6410   19.7320   30.5650 H   0  0  0  0  0  0  0  0  0  0  0  0
  1  2  2  0  0  0  0
  1  6  1  0  0  0  0
  2  3  1  0  0  0  0
  3  8  1  0  0  0  0
  3  4  2  0  0  0  0
  4  9  1  0  0  0  0
  5  4  1  0  0  0  0
  5 11  1  0  0  0  0
  6  5  2  0  0  0  0
  7  2  1  0  0  0  0
 10 19  1  0  0  0  0
 10 17  1  0  0  0  0
 11 10  2  0  0  0  0
 12 11  1  0  0  0  0
 12 14  2  0  0  0  0
 13 12  1  0  0  0  0
 14 16  1  0  0  0  0
 15 14  1  0  0  0  0
 16 17  2  0  0  0  0
 18 19  1  0  0  0  0
 19 20  2  0  0  0  0
 21 19  2  0  0  0  0
 22  1  1  0  0  0  0
 23 22  2  0  0  0  0
 24 30  1  0  0  0  0
 25 24  1  0  0  0  0
 25 22  1  0  0  0  0
 26 25  2  0  0  0  0
 27 26  1  0  0  0  0
 27 28  2  0  0  0  0
 28 29  1  0  0  0  0
 29 24  2  0  0  0  0
 31 26  1  0  0  0  0
 32 28  1  0  0  0  0
M  END
>  <minimizedAffinity>
-5.55719519

$$$$

 OpenBabel03262522103D

 32 34  0  0  0  0  0  0  0  0999 V2000
   37.6960   25.3220   32.6840 C   0  0  0  0  0  0  0  0  0  0  0  0
   38.3870   26.4800   32.4010 C   0  0  0  0  0  0  0  0  0  0  0  0
   39.2240   27.0310   33.3680 C   0  0  0  0  0  0  0  0  0  0  0  0
   39.2960   26.3480   34.5730 C   0  0  0  0  0  0  0  0  0  0  0  0
   38.6040   25.1980   34.8430 C   0  0  0  0  0  0  0  0  0  0  0  0
   37.8060   24.7010   33.8780 N   0  0  0  0  0  0  0  0  0  0  0  0
   38.2880   26.9650   31.4400 H   0  0  0  0  0  0  0  0  0  0  0  0
   39.7600   27.9290   33.1480 H   0  0  0  0  0  0  0  0  0  0  0  0
   39.9600   26.8290   35.2750 H   0  0  0  0  0  0  0  0  0  0  0  0
   39.6150   23.4780   36.2950 C   0  0  0  0  0  0  0  0  0  0  0  0
   38.7170   24.5210   36.1300 C   0  0  0  0  0  0  0  0  0  0  0  0
   37.9440   24.8910   37.2110 C   0  0  0  0  0  0  0  0  0  0  0  0
   37.2190   25.6910   37.1730 H   0  0  0  0  0  0  0  0  0  0  0  0
   38.0140   24.2820   38.4500 C   0  0  0  0  0  0  0  0  0  0  0  0
   37.4030   24.5790   39.2930 H   0  0  0  0  0  0  0  0  0  0  0  0
   38.8920   23.2480   38.6440 C   0  0  0  0  0  3  0  0  0  0  0  0
   39.6550   22.8930   37.5510 C   0  0  0  0  0  3  0  0  0  0  0  0
   41.0140   23.9200   34.1930 H   0  0  0  0  0  0  0  0  0  0  0  0
   40.6490   22.9030   35.0360 S   0  0  0  0  0  0  0  0  0  0  0  0
   39.8560   21.9060   34.1980 O   0  0  0  0  0  0  0  0  0  0  0  0
   41.8780   22.2040   35.5350 O   0  0  0  0  0  0  0  0  0  0  0  0
   36.8370   24.8000   31.6340 C   0  0  0  0  0  0  0  0  0  0  0  0
   36.1520   25.5530   30.9410 O   0  0  0  0  0  0  0  0  0  0  0  0
   37.9030   22.6800   30.8950 C   0  0  0  0  0  0  0  0  0  0  0  0
   36.7430   23.3580   31.3460 C   0  0  0  0  0  0  0  0  0  0  0  0
   35.5770   22.6470   31.4990 C   0  0  0  0  0  0  0  0  0  0  0  0
   35.5710   21.3090   31.2100 N   0  0  0  0  0  0  0  0  0  0  0  0
   36.7070   20.6810   30.7750 C   0  0  0  0  0  0  0  0  0  0  0  0
   37.8350   21.3490   30.6250 N   0  0  0  0  0  0  0  0  0  0  0  0
   38.8290   23.2260   30.7700 H   0  0  0  0  0  0  0  0  0  0  0  0
   34.6810   23.1530   31.8430 H   0  0  0  0  0  0  0  0  0  0  0  0
   36.6170   19.6160   30.5690 H   0  0  0  0  0  0  0  0  0  0  0  0
  1  6  1  0  0  0  0
  2  1  2  0  0  0  0
  2  3  1  0  0  0  0
  3  4  2  0  0  0  0
  4  5  1  0  0  0  0
  4  9  1  0  0  0  0
  5 11  1  0  0  0  0
  6  5  2  0  0  0  0
  7  2  1  0  0  0  0
  8  3  1  0  0  0  0
 10 17  1  0  0  0  0
 11 10  2  0  0  0  0
 11 12  1  0  0  0  0
 12 14  2  0  0  0  0
 13 12  1  0  0  0  0
 14 16  1  0  0  0  0
 14 15  1  0  0  0  0
 17 16  2  0  0  0  0
 18 19  1  0  0  0  0
 19 21  2  0  0  0  0
 19 10  1  0  0  0  0
 20 19  2  0  0  0  0
 22  1  1  0  0  0  0
 23 22  2  0  0  0  0
 24 25  1  0  0  0  0
 25 26  2  0  0  0  0
 25 22  1  0  0  0  0
 26 31  1  0  0  0  0
 27 26  1  0  0  0  0
 28 27  2  0  0  0  0
 29 28  1  0  0  0  0
 29 24  2  0  0  0  0
 30 24  1  0  0  0  0
 32 28  1  0  0  0  0
M  END
>  <minimizedAffinity>
-5.50347996

$$$$

 OpenBabel03262522103D

 32 34  0  0  0  0  0  0  0  0999 V2000
   36.7890   28.6880   32.1200 C   0  0  0  0  0  0  0  0  0  0  0  0
   36.7720   29.4500   30.9720 C   0  0  0  0  0  0  0  0  0  0  0  0
   36.1270   30.6840   30.9780 C   0  0  0  0  0  0  0  0  0  0  0  0
   35.5360   31.0570   32.1770 C   0  0  0  0  0  0  0  0  0  0  0  0
   35.5580   30.2910   33.3110 C   0  0  0  0  0  0  0  0  0  0  0  0
   36.1940   29.1040   33.2590 N   0  0  0  0  0  0  0  0  0  0  0  0
   37.2530   29.1030   30.0680 H   0  0  0  0  0  0  0  0  0  0  0  0
   36.1150   31.2750   30.0880 H   0  0  0  0  0  0  0  0  0  0  0  0
   35.0550   32.0210   32.1110 H   0  0  0  0  0  0  0  0  0  0  0  0
   33.5940   30.4130   34.7990 C   0  0  0  0  0  0  0  0  0  0  0  0
   34.9190   30.7320   34.5460 C   0  0  0  0  0  0  0  0  0  0  0  0
   35.6020   31.4710   35.4880 C   0  0  0  0  0  0  0  0  0  0  0  0
   36.6350   31.7660   35.3740 H   0  0  0  0  0  0  0  0  0  0  0  0
   35.0410   31.9120   36.6730 C   0  0  0  0  0  0  0  0  0  0  0  0
   35.5850   32.4930   37.4080 H   0  0  0  0  0  0  0  0  0  0  0  0
   33.7340   31.6120   36.9520 C   0  0  0  0  0  3  0  0  0  0  0  0
   33.0680   30.8730   35.9970 C   0  0  0  0  0  3  0  0  0  0  0  0
   33.3610   28.5830   33.0190 H   0  0  0  0  0  0  0  0  0  0  0  0
   32.6110   29.4950   33.7150 S   0  0  0  0  0  0  0  0  0  0  0  0
   32.0260   30.4550   32.6860 O   0  0  0  0  0  0  0  0  0  0  0  0
   31.4680   28.7910   34.3840 O   0  0  0  0  0  0  0  0  0  0  0  0
   37.4760   27.4100   32.0460 C   0  0  0  0  0  0  0  0  0  0  0  0
   38.6980   27.3370   32.1850 O   0  0  0  0  0  0  0  0  0  0  0  0
   37.3000   24.9460   32.3250 C   0  0  0  0  0  0  0  0  0  0  0  0
   36.7560   26.1480   31.8040 C   0  0  0  0  0  0  0  0  0  0  0  0
   35.5800   26.0900   31.0960 C   0  0  0  0  0  0  0  0  0  0  0  0
   34.9710   24.8770   30.9150 N   0  0  0  0  0  0  0  0  0  0  0  0
   35.5210   23.7330   31.4290 C   0  0  0  0  0  0  0  0  0  0  0  0
   36.6490   23.7720   32.1120 N   0  0  0  0  0  0  0  0  0  0  0  0
   38.2250   24.9760   32.8850 H   0  0  0  0  0  0  0  0  0  0  0  0
   35.1510   27.0010   30.6920 H   0  0  0  0  0  0  0  0  0  0  0  0
   34.9730   22.8120   31.2400 H   0  0  0  0  0  0  0  0  0  0  0  0
  1  6  1  0  0  0  0
  2  3  1  0  0  0  0
  2  1  2  0  0  0  0
  3  4  2  0  0  0  0
  4  5  1  0  0  0  0
  5 11  1  0  0  0  0
  6  5  2  0  0  0  0
  7  2  1  0  0  0  0
  8  3  1  0  0  0  0
  9  4  1  0  0  0  0
 10 17  1  0  0  0  0
 11 10  2  0  0  0  0
 11 12  1  0  0  0  0
 12 14  2  0  0  0  0
 13 12  1  0  0  0  0
 14 16  1  0  0  0  0
 14 15  1  0  0  0  0
 17 16  2  0  0  0  0
 18 19  1  0  0  0  0
 19 21  2  0  0  0  0
 19 10  1  0  0  0  0
 20 19  2  0  0  0  0
 22  1  1  0  0  0  0
 22 23  2  0  0  0  0
 24 30  1  0  0  0  0
 25 22  1  0  0  0  0
 25 24  2  0  0  0  0
 26 25  1  0  0  0  0
 27 26  2  0  0  0  0
 27 28  1  0  0  0  0
 28 29  2  0  0  0  0
 29 24  1  0  0  0  0
 31 26  1  0  0  0  0
 32 28  1  0  0  0  0
M  END
>  <minimizedAffinity>
-5.49172831

$$$$

 OpenBabel03262522103D

 32 34  0  0  0  0  0  0  0  0999 V2000
   36.5300   28.2810   32.8620 C   0  0  0  0  0  0  0  0  0  0  0  0
   36.4190   28.8160   31.5980 C   0  0  0  0  0  0  0  0  0  0  0  0
   35.7310   30.0140   31.4190 C   0  0  0  0  0  0  0  0  0  0  0  0
   35.1970   30.5870   32.5640 C   0  0  0  0  0  0  0  0  0  0  0  0
   35.3140   30.0450   33.8160 C   0  0  0  0  0  0  0  0  0  0  0  0
   35.9880   28.8850   33.9410 N   0  0  0  0  0  0  0  0  0  0  0  0
   36.8580   28.3190   30.7430 H   0  0  0  0  0  0  0  0  0  0  0  0
   35.6450   30.4290   30.4380 H   0  0  0  0  0  0  0  0  0  0  0  0
   34.6790   31.5100   32.3540 H   0  0  0  0  0  0  0  0  0  0  0  0
   33.4090   30.4560   35.3300 C   0  0  0  0  0  0  0  0  0  0  0  0
   34.7320   30.6910   34.9870 C   0  0  0  0  0  0  0  0  0  0  0  0
   35.4690   31.5450   35.7810 C   0  0  0  0  0  0  0  0  0  0  0  0
   36.5040   31.7850   35.5890 H   0  0  0  0  0  0  0  0  0  0  0  0
   34.9640   32.1800   36.9010 C   0  0  0  0  0  0  0  0  0  0  0  0
   35.5490   32.8500   37.5190 H   0  0  0  0  0  0  0  0  0  0  0  0
   33.6600   31.9680   37.2650 C   0  0  0  0  0  3  0  0  0  0  0  0
   32.9410   31.1120   36.4580 C   0  0  0  0  0  3  0  0  0  0  0  0
   33.0800   28.5640   33.6330 H   0  0  0  0  0  0  0  0  0  0  0  0
   32.3640   29.4140   34.4340 S   0  0  0  0  0  0  0  0  0  0  0  0
   31.5220   30.2820   33.5050 O   0  0  0  0  0  0  0  0  0  0  0  0
   31.4250   28.6180   35.2900 O   0  0  0  0  0  0  0  0  0  0  0  0
   37.2580   27.0280   32.9800 C   0  0  0  0  0  0  0  0  0  0  0  0
   36.7120   25.9510   32.7380 O   0  0  0  0  0  0  0  0  0  0  0  0
   39.6720   27.0910   32.3910 C   0  0  0  0  0  0  0  0  0  0  0  0
   38.6720   26.9820   33.3900 C   0  0  0  0  0  0  0  0  0  0  0  0
   39.0580   26.8380   34.7010 C   0  0  0  0  0  0  0  0  0  0  0  0
   40.3940   26.8040   35.0010 N   0  0  0  0  0  0  0  0  0  0  0  0
   41.3370   26.9110   34.0140 C   0  0  0  0  0  0  0  0  0  0  0  0
   40.9820   27.0510   32.7510 N   0  0  0  0  0  0  0  0  0  0  0  0
   39.3830   27.2050   31.3540 H   0  0  0  0  0  0  0  0  0  0  0  0
   38.3050   26.7530   35.4770 H   0  0  0  0  0  0  0  0  0  0  0  0
   42.3750   26.8750   34.3380 H   0  0  0  0  0  0  0  0  0  0  0  0
  1 22  1  0  0  0  0
  1  6  1  0  0  0  0
  2  1  2  0  0  0  0
  3  2  1  0  0  0  0
  3  4  2  0  0  0  0
  4  5  1  0  0  0  0
  5  6  2  0  0  0  0
  5 11  1  0  0  0  0
  7  2  1  0  0  0  0
  8  3  1  0  0  0  0
  9  4  1  0  0  0  0
 10 17  1  0  0  0  0
 11 10  2  0  0  0  0
 11 12  1  0  0  0  0
 12 14  2  0  0  0  0
 13 12  1  0  0  0  0
 14 16  1  0  0  0  0
 14 15  1  0  0  0  0
 17 16  2  0  0  0  0
 18 19  1  0  0  0  0
 19 21  2  0  0  0  0
 19 10  1  0  0  0  0
 20 19  2  0  0  0  0
 22 25  1  0  0  0  0
 23 22  2  0  0  0  0
 24 29  2  0  0  0  0
 24 25  1  0  0  0  0
 25 26  2  0  0  0  0
 26 27  1  0  0  0  0
 26 31  1  0  0  0  0
 28 32  1  0  0  0  0
 28 27  2  0  0  0  0
 29 28  1  0  0  0  0
 30 24  1  0  0  0  0
M  END
>  <minimizedAffinity>
-5.4912591

$$$$

 OpenBabel03262522103D

 32 34  0  0  0  0  0  0  0  0999 V2000
   37.0530   25.8310   33.1070 C   0  0  0  0  0  0  0  0  0  0  0  0
   36.9070   27.1800   33.3480 C   0  0  0  0  0  0  0  0  0  0  0  0
   37.3390   27.7100   34.5610 C   0  0  0  0  0  0  0  0  0  0  0  0
   37.8980   26.8090   35.4550 C   0  0  0  0  0  0  0  0  0  0  0  0
   38.0370   25.4700   35.2050 C   0  0  0  0  0  0  0  0  0  0  0  0
   37.6050   25.0010   34.0170 N   0  0  0  0  0  0  0  0  0  0  0  0
   36.4620   27.8320   32.6080 H   0  0  0  0  0  0  0  0  0  0  0  0
   37.2260   28.7560   34.7480 H   0  0  0  0  0  0  0  0  0  0  0  0
   38.2090   27.2850   36.3720 H   0  0  0  0  0  0  0  0  0  0  0  0
   39.8500   23.9560   35.9200 C   0  0  0  0  0  0  0  0  0  0  0  0
   38.6330   24.5660   36.1830 C   0  0  0  0  0  0  0  0  0  0  0  0
   38.0130   24.2930   37.3840 C   0  0  0  0  0  0  0  0  0  0  0  0
   37.0640   24.7220   37.6710 H   0  0  0  0  0  0  0  0  0  0  0  0
   38.5370   23.4440   38.3430 C   0  0  0  0  0  0  0  0  0  0  0  0
   38.0430   23.2350   39.2830 H   0  0  0  0  0  0  0  0  0  0  0  0
   39.7380   22.8270   38.1120 C   0  0  0  0  0  3  0  0  0  0  0  0
   40.3410   23.1140   36.9050 C   0  0  0  0  0  3  0  0  0  0  0  0
   39.9210   24.1720   33.3670 H   0  0  0  0  0  0  0  0  0  0  0  0
   40.7430   24.2010   34.4620 S   0  0  0  0  0  0  0  0  0  0  0  0
   41.7150   23.0370   34.3080 O   0  0  0  0  0  0  0  0  0  0  0  0
   41.5440   25.4690   34.4500 O   0  0  0  0  0  0  0  0  0  0  0  0
   36.5800   25.3420   31.8230 C   0  0  0  0  0  0  0  0  0  0  0  0
   36.0480   26.1000   31.0100 O   0  0  0  0  0  0  0  0  0  0  0  0
   35.5970   23.0680   31.6130 C   0  0  0  0  0  0  0  0  0  0  0  0
   36.7100   23.9280   31.4290 C   0  0  0  0  0  0  0  0  0  0  0  0
   37.8640   23.4120   30.8920 C   0  0  0  0  0  0  0  0  0  0  0  0
   37.9050   22.0870   30.5510 N   0  0  0  0  0  0  0  0  0  0  0  0
   36.8150   21.2800   30.7410 C   0  0  0  0  0  0  0  0  0  0  0  0
   35.6980   21.7600   31.2550 N   0  0  0  0  0  0  0  0  0  0  0  0
   34.6810   23.4600   32.0350 H   0  0  0  0  0  0  0  0  0  0  0  0
   38.7240   24.0570   30.7450 H   0  0  0  0  0  0  0  0  0  0  0  0
   36.9310   20.2400   30.4430 H   0  0  0  0  0  0  0  0  0  0  0  0
  1  2  2  0  0  0  0
  1  6  1  0  0  0  0
  2  3  1  0  0  0  0
  3  8  1  0  0  0  0
  3  4  2  0  0  0  0
  4  9  1  0  0  0  0
  5  4  1  0  0  0  0
  5 11  1  0  0  0  0
  6  5  2  0  0  0  0
  7  2  1  0  0  0  0
 10 11  2  0  0  0  0
 10 17  1  0  0  0  0
 11 12  1  0  0  0  0
 12 13  1  0  0  0  0
 12 14  2  0  0  0  0
 14 15  1  0  0  0  0
 16 14  1  0  0  0  0
 17 16  2  0  0  0  0
 18 19  1  0  0  0  0
 19 10  1  0  0  0  0
 20 19  2  0  0  0  0
 21 19  2  0  0  0  0
 22  1  1  0  0  0  0
 23 22  2  0  0  0  0
 24 30  1  0  0  0  0
 25 24  1  0  0  0  0
 25 22  1  0  0  0  0
 26 25  2  0  0  0  0
 27 28  2  0  0  0  0
 27 26  1  0  0  0  0
 28 29  1  0  0  0  0
 29 24  2  0  0  0  0
 31 26  1  0  0  0  0
 32 28  1  0  0  0  0
M  END
>  <minimizedAffinity>
-5.48934698

$$$$

 OpenBabel03262522103D

 32 34  0  0  0  0  0  0  0  0999 V2000
   37.4800   26.2760   33.4910 C   0  0  0  0  0  0  0  0  0  0  0  0
   37.2930   27.5100   34.0730 C   0  0  0  0  0  0  0  0  0  0  0  0
   37.7750   27.7410   35.3590 C   0  0  0  0  0  0  0  0  0  0  0  0
   38.4250   26.6770   35.9670 C   0  0  0  0  0  0  0  0  0  0  0  0
   38.6050   25.4540   35.3780 C   0  0  0  0  0  0  0  0  0  0  0  0
   38.1210   25.2760   34.1330 N   0  0  0  0  0  0  0  0  0  0  0  0
   36.7770   28.3020   33.5450 H   0  0  0  0  0  0  0  0  0  0  0  0
   37.6310   28.6990   35.8100 H   0  0  0  0  0  0  0  0  0  0  0  0
   38.7720   26.9240   36.9580 H   0  0  0  0  0  0  0  0  0  0  0  0
   40.5690   23.9890   35.6680 C   0  0  0  0  0  0  0  0  0  0  0  0
   39.2960   24.3680   36.0640 C   0  0  0  0  0  0  0  0  0  0  0  0
   38.7130   23.6930   37.1160 C   0  0  0  0  0  0  0  0  0  0  0  0
   37.7260   23.9200   37.4910 H   0  0  0  0  0  0  0  0  0  0  0  0
   39.3270   22.6580   37.7990 C   0  0  0  0  0  0  0  0  0  0  0  0
   38.8620   22.1320   38.6230 H   0  0  0  0  0  0  0  0  0  0  0  0
   40.5850   22.2600   37.4300 C   0  0  0  0  0  3  0  0  0  0  0  0
   41.1490   22.9480   36.3760 C   0  0  0  0  0  3  0  0  0  0  0  0
   40.5950   24.9940   33.3100 H   0  0  0  0  0  0  0  0  0  0  0  0
   41.4260   24.7400   34.3700 S   0  0  0  0  0  0  0  0  0  0  0  0
   42.4780   23.7570   33.8720 O   0  0  0  0  0  0  0  0  0  0  0  0
   42.1310   26.0040   34.7630 O   0  0  0  0  0  0  0  0  0  0  0  0
   36.9510   26.0990   32.1490 C   0  0  0  0  0  0  0  0  0  0  0  0
   36.0880   25.2520   31.9130 O   0  0  0  0  0  0  0  0  0  0  0  0
   38.7090   26.6760   30.4890 C   0  0  0  0  0  0  0  0  0  0  0  0
   37.4130   26.9150   31.0130 C   0  0  0  0  0  0  0  0  0  0  0  0
   36.6380   27.8960   30.4420 C   0  0  0  0  0  0  0  0  0  0  0  0
   37.1400   28.6110   29.3880 N   0  0  0  0  0  0  0  0  0  0  0  0
   38.3960   28.3580   28.9040 C   0  0  0  0  0  0  0  0  0  0  0  0
   39.1520   27.4190   29.4400 N   0  0  0  0  0  0  0  0  0  0  0  0
   39.3300   25.9070   30.9280 H   0  0  0  0  0  0  0  0  0  0  0  0
   35.6450   28.0910   30.8320 H   0  0  0  0  0  0  0  0  0  0  0  0
   38.7180   28.9700   28.0640 H   0  0  0  0  0  0  0  0  0  0  0  0
  1  2  2  0  0  0  0
  1  6  1  0  0  0  0
  2  3  1  0  0  0  0
  3  8  1  0  0  0  0
  3  4  2  0  0  0  0
  4  9  1  0  0  0  0
  5  4  1  0  0  0  0
  5 11  1  0  0  0  0
  6  5  2  0  0  0  0
  7  2  1  0  0  0  0
 10 11  2  0  0  0  0
 10 17  1  0  0  0  0
 11 12  1  0  0  0  0
 12 13  1  0  0  0  0
 12 14  2  0  0  0  0
 14 15  1  0  0  0  0
 16 14  1  0  0  0  0
 17 16  2  0  0  0  0
 18 19  1  0  0  0  0
 19 21  2  0  0  0  0
 19 10  1  0  0  0  0
 20 19  2  0  0  0  0
 22  1  1  0  0  0  0
 23 22  2  0  0  0  0
 24 30  1  0  0  0  0
 24 25  1  0  0  0  0
 25 22  1  0  0  0  0
 26 31  1  0  0  0  0
 26 25  2  0  0  0  0
 27 26  1  0  0  0  0
 28 27  2  0  0  0  0
 28 29  1  0  0  0  0
 29 24  2  0  0  0  0
 32 28  1  0  0  0  0
M  END
>  <minimizedAffinity>
-5.31256914

$$$$

 OpenBabel03262522103D

 32 34  0  0  0  0  0  0  0  0999 V2000
   37.6620   25.0920   33.2830 C   0  0  0  0  0  0  0  0  0  0  0  0
   37.0840   26.1060   32.5510 C   0  0  0  0  0  0  0  0  0  0  0  0
   36.2060   25.7890   31.5170 C   0  0  0  0  0  0  0  0  0  0  0  0
   35.9780   24.4380   31.3030 C   0  0  0  0  0  0  0  0  0  0  0  0
   36.5580   23.4390   32.0380 C   0  0  0  0  0  0  0  0  0  0  0  0
   37.4010   23.7920   33.0280 N   0  0  0  0  0  0  0  0  0  0  0  0
   37.3030   27.1430   32.7680 H   0  0  0  0  0  0  0  0  0  0  0  0
   35.7570   26.5760   30.9500 H   0  0  0  0  0  0  0  0  0  0  0  0
   35.2900   24.2650   30.4900 H   0  0  0  0  0  0  0  0  0  0  0  0
   37.1620   21.2810   31.0030 C   0  0  0  0  0  0  0  0  0  0  0  0
   36.2830   22.0320   31.7690 C   0  0  0  0  0  0  0  0  0  0  0  0
   35.1550   21.4100   32.2620 C   0  0  0  0  0  0  0  0  0  0  0  0
   34.4160   21.9170   32.8660 H   0  0  0  0  0  0  0  0  0  0  0  0
   34.8490   20.0800   32.0360 C   0  0  0  0  0  0  0  0  0  0  0  0
   33.9610   19.6000   32.4260 H   0  0  0  0  0  0  0  0  0  0  0  0
   35.6990   19.3130   31.2830 C   0  0  0  0  0  3  0  0  0  0  0  0
   36.8210   19.9530   30.8000 C   0  0  0  0  0  3  0  0  0  0  0  0
   38.4090   23.1720   29.8030 H   0  0  0  0  0  0  0  0  0  0  0  0
   38.6140   21.9200   30.3200 S   0  0  0  0  0  0  0  0  0  0  0  0
   39.0130   21.0270   29.1510 O   0  0  0  0  0  0  0  0  0  0  0  0
   39.7670   21.9600   31.2780 O   0  0  0  0  0  0  0  0  0  0  0  0
   38.5700   25.4890   34.3460 C   0  0  0  0  0  0  0  0  0  0  0  0
   39.2290   26.5270   34.2640 O   0  0  0  0  0  0  0  0  0  0  0  0
   39.9010   23.8600   35.6700 C   0  0  0  0  0  0  0  0  0  0  0  0
   38.7490   24.6800   35.5650 C   0  0  0  0  0  0  0  0  0  0  0  0
   37.8450   24.6900   36.5990 C   0  0  0  0  0  0  0  0  0  0  0  0
   38.0840   23.9100   37.6990 N   0  0  0  0  0  0  0  0  0  0  0  0
   39.2050   23.1280   37.7730 C   0  0  0  0  0  0  0  0  0  0  0  0
   40.0830   23.1080   36.7880 N   0  0  0  0  0  0  0  0  0  0  0  0
   40.6220   23.8420   34.8640 H   0  0  0  0  0  0  0  0  0  0  0  0
   36.9590   25.3120   36.5330 H   0  0  0  0  0  0  0  0  0  0  0  0
   39.3200   22.5390   38.6810 H   0  0  0  0  0  0  0  0  0  0  0  0
  1 22  1  0  0  0  0
  2  7  1  0  0  0  0
  2  1  2  0  0  0  0
  3  2  1  0  0  0  0
  4  3  2  0  0  0  0
  4  5  1  0  0  0  0
  5  6  2  0  0  0  0
  6  1  1  0  0  0  0
  8  3  1  0  0  0  0
  9  4  1  0  0  0  0
 10 11  1  0  0  0  0
 11  5  1  0  0  0  0
 11 12  2  0  0  0  0
 12 13  1  0  0  0  0
 14 12  1  0  0  0  0
 14 15  1  0  0  0  0
 16 14  2  0  0  0  0
 17 10  2  0  0  0  0
 17 16  1  0  0  0  0
 18 19  1  0  0  0  0
 19 10  1  0  0  0  0
 19 21  2  0  0  0  0
 20 19  2  0  0  0  0
 22 25  1  0  0  0  0
 23 22  2  0  0  0  0
 24 29  1  0  0  0  0
 25 24  2  0  0  0  0
 25 26  1  0  0  0  0
 26 27  2  0  0  0  0
 27 28  1  0  0  0  0
 28 32  1  0  0  0  0
 29 28  2  0  0  0  0
 30 24  1  0  0  0  0
 31 26  1  0  0  0  0
M  END
>  <minimizedAffinity>
-5.27514458

$$$$

 OpenBabel03262522103D

 32 34  0  0  0  0  0  0  0  0999 V2000
   37.7930   23.2030   32.3920 C   0  0  0  0  0  0  0  0  0  0  0  0
   37.7150   24.4770   31.8730 C   0  0  0  0  0  0  0  0  0  0  0  0
   37.8990   25.5710   32.7150 C   0  0  0  0  0  0  0  0  0  0  0  0
   38.1540   25.2800   34.0470 C   0  0  0  0  0  0  0  0  0  0  0  0
   38.2290   24.0100   34.5510 C   0  0  0  0  0  0  0  0  0  0  0  0
   38.0440   22.9810   33.7000 N   0  0  0  0  0  0  0  0  0  0  0  0
   37.5130   24.6380   30.8230 H   0  0  0  0  0  0  0  0  0  0  0  0
   37.8390   26.5590   32.3130 H   0  0  0  0  0  0  0  0  0  0  0  0
   38.2860   26.1710   34.6410 H   0  0  0  0  0  0  0  0  0  0  0  0
   39.6660   23.1160   36.3470 C   0  0  0  0  0  0  0  0  0  0  0  0
   38.5000   23.7600   35.9630 C   0  0  0  0  0  0  0  0  0  0  0  0
   37.6180   24.1530   36.9470 C   0  0  0  0  0  0  0  0  0  0  0  0
   36.6860   24.6600   36.7380 H   0  0  0  0  0  0  0  0  0  0  0  0
   37.8280   23.9400   38.2970 C   0  0  0  0  0  0  0  0  0  0  0  0
   37.1300   24.2520   39.0640 H   0  0  0  0  0  0  0  0  0  0  0  0
   38.9710   23.3060   38.7080 C   0  0  0  0  0  3  0  0  0  0  0  0
   39.8400   22.9220   37.7090 C   0  0  0  0  0  3  0  0  0  0  0  0
   40.2870   22.0220   34.1140 H   0  0  0  0  0  0  0  0  0  0  0  0
   40.8640   22.5670   35.2310 S   0  0  0  0  0  0  0  0  0  0  0  0
   41.6520   21.4490   35.9030 O   0  0  0  0  0  0  0  0  0  0  0  0
   41.8390   23.6290   34.8200 O   0  0  0  0  0  0  0  0  0  0  0  0
   37.5890   22.1050   31.4620 C   0  0  0  0  0  0  0  0  0  0  0  0
   38.2030   22.0530   30.3960 O   0  0  0  0  0  0  0  0  0  0  0  0
   37.1660   19.7110   31.9800 C   0  0  0  0  0  0  0  0  0  0  0  0
   36.6450   21.0080   31.7420 C   0  0  0  0  0  0  0  0  0  0  0  0
   35.2840   21.1940   31.7810 C   0  0  0  0  0  0  0  0  0  0  0  0
   34.4750   20.1230   32.0490 N   0  0  0  0  0  0  0  0  0  0  0  0
   35.0060   18.8810   32.2750 C   0  0  0  0  0  0  0  0  0  0  0  0
   36.3110   18.6870   32.2420 N   0  0  0  0  0  0  0  0  0  0  0  0
   38.2350   19.5500   31.9530 H   0  0  0  0  0  0  0  0  0  0  0  0
   34.8710   22.1810   31.6010 H   0  0  0  0  0  0  0  0  0  0  0  0
   34.2940   18.0850   32.4810 H   0  0  0  0  0  0  0  0  0  0  0  0
  1  6  1  0  0  0  0
  2  1  2  0  0  0  0
  2  3  1  0  0  0  0
  3  4  2  0  0  0  0
  4  5  1  0  0  0  0
  4  9  1  0  0  0  0
  5 11  1  0  0  0  0
  6  5  2  0  0  0  0
  7  2  1  0  0  0  0
  8  3  1  0  0  0  0
 10 17  1  0  0  0  0
 11 10  2  0  0  0  0
 11 12  1  0  0  0  0
 12 14  2  0  0  0  0
 13 12  1  0  0  0  0
 14 16  1  0  0  0  0
 14 15  1  0  0  0  0
 17 16  2  0  0  0  0
 18 19  1  0  0  0  0
 19 20  2  0  0  0  0
 19 10  1  0  0  0  0
 21 19  2  0  0  0  0
 22 25  1  0  0  0  0
 22  1  1  0  0  0  0
 23 22  2  0  0  0  0
 24 29  1  0  0  0  0
 25 26  1  0  0  0  0
 25 24  2  0  0  0  0
 26 27  2  0  0  0  0
 27 28  1  0  0  0  0
 28 32  1  0  0  0  0
 29 28  2  0  0  0  0
 30 24  1  0  0  0  0
 31 26  1  0  0  0  0
M  END
>  <minimizedAffinity>
-5.26218128

$$$$
