
 OpenBabel03272500313D

 31 33  0  0  0  0  0  0  0  0999 V2000
   38.2910   22.9470   33.8780 Cl  0  0  0  0  0  0  0  0  0  0  0  0
   38.8420   24.5870   34.1920 C   0  0  0  0  0  0  0  0  0  0  0  0
   38.1900   25.5760   33.5010 C   0  0  0  0  0  0  0  0  0  0  0  0
   38.6160   26.8960   33.7370 C   0  0  0  0  0  0  0  0  0  0  0  0
   39.6340   27.1340   34.6220 C   0  0  0  0  0  0  0  0  0  0  0  0
   40.2350   26.0910   35.2730 C   0  0  0  0  0  0  0  0  0  0  0  0
   39.8710   24.7850   35.0900 C   0  0  0  0  0  0  0  0  0  0  0  0
   38.0950   27.6750   33.1860 H   0  0  0  0  0  0  0  0  0  0  0  0
   39.9300   28.1640   34.7740 H   0  0  0  0  0  0  0  0  0  0  0  0
   41.0430   26.2990   35.9720 H   0  0  0  0  0  0  0  0  0  0  0  0
   35.4480   26.1070   31.1700 C   0  0  0  0  0  0  0  0  0  0  0  0
   35.0580   24.8220   30.7950 C   0  0  0  0  0  0  0  0  0  0  0  0
   35.7610   23.7550   31.3630 C   0  0  0  0  0  0  0  0  0  0  0  0
   36.7720   24.0200   32.2390 N   0  0  0  0  0  0  0  0  0  0  0  0
   37.1070   25.2860   32.5640 C   0  0  0  0  0  0  0  0  0  0  0  0
   36.4450   26.3240   32.0290 N   0  0  0  0  0  0  0  0  0  0  0  0
   34.8600   26.8740   30.6900 H   0  0  0  0  0  0  0  0  0  0  0  0
   34.2790   24.5370   30.1190 H   0  0  0  0  0  0  0  0  0  0  0  0
   35.6240   22.7080   31.2140 H   0  0  0  0  0  0  0  0  0  0  0  0
   39.9350   23.0710   36.8900 C   0  0  0  0  0  0  0  0  0  0  0  0
   40.4770   23.6380   35.7570 C   0  0  0  0  0  0  0  0  0  0  0  0
   41.6300   23.1290   35.2090 C   0  0  0  0  0  0  0  0  0  0  0  0
   42.1370   23.4950   34.3260 H   0  0  0  0  0  0  0  0  0  0  0  0
   42.2430   22.0370   35.8090 C   0  0  0  0  0  0  0  0  0  0  0  0
   43.1620   21.5760   35.4330 H   0  0  0  0  0  0  0  0  0  0  0  0
   41.7330   21.4420   36.9440 C   0  0  0  0  0  3  0  0  0  0  0  0
   40.5600   21.9850   37.4740 C   0  0  0  0  0  3  0  0  0  0  0  0
   38.4010   25.0790   37.1100 H   0  0  0  0  0  0  0  0  0  0  0  0
   38.4720   23.7590   37.5390 S   0  0  0  0  0  0  0  0  0  0  0  0
   37.2580   22.9940   37.1840 O   0  0  0  0  0  0  0  0  0  0  0  0
   38.5680   23.8170   39.0430 O   0  0  0  0  0  0  0  0  0  0  0  0
  1  2  1  0  0  0  0
  2  7  1  0  0  0  0
  3  4  1  0  0  0  0
  3  2  2  0  0  0  0
  4  5  2  0  0  0  0
  5  9  1  0  0  0  0
  5  6  1  0  0  0  0
  6 10  1  0  0  0  0
  7  6  2  0  0  0  0
  7 21  1  0  0  0  0
  8  4  1  0  0  0  0
 11 16  1  0  0  0  0
 12 11  2  0  0  0  0
 12 13  1  0  0  0  0
 13 14  2  0  0  0  0
 14 15  1  0  0  0  0
 15  3  1  0  0  0  0
 16 15  2  0  0  0  0
 17 11  1  0  0  0  0
 18 12  1  0  0  0  0
 19 13  1  0  0  0  0
 20 27  1  0  0  0  0
 20 29  1  0  0  0  0
 21 20  2  0  0  0  0
 22 21  1  0  0  0  0
 22 24  2  0  0  0  0
 23 22  1  0  0  0  0
 24 26  1  0  0  0  0
 25 24  1  0  0  0  0
 26 27  2  0  0  0  0
 28 29  1  0  0  0  0
 29 31  2  0  0  0  0
 30 29  2  0  0  0  0
M  END
>  <minimizedAffinity>
-5.7878933

$$$$

 OpenBabel03272500313D

 31 33  0  0  0  0  0  0  0  0999 V2000
   38.6270   23.1560   32.8360 Cl  0  0  0  0  0  0  0  0  0  0  0  0
   37.3530   24.1500   32.1420 C   0  0  0  0  0  0  0  0  0  0  0  0
   36.2390   23.4740   31.7130 C   0  0  0  0  0  0  0  0  0  0  0  0
   35.2080   24.2500   31.1540 C   0  0  0  0  0  0  0  0  0  0  0  0
   35.3530   25.6090   31.0610 C   0  0  0  0  0  0  0  0  0  0  0  0
   36.4980   26.2090   31.5120 C   0  0  0  0  0  0  0  0  0  0  0  0
   37.5390   25.5150   32.0660 C   0  0  0  0  0  0  0  0  0  0  0  0
   34.3280   23.7090   30.8160 H   0  0  0  0  0  0  0  0  0  0  0  0
   34.5360   26.1690   30.6240 H   0  0  0  0  0  0  0  0  0  0  0  0
   36.5960   27.2900   31.4300 H   0  0  0  0  0  0  0  0  0  0  0  0
   35.4610   20.2040   33.1050 C   0  0  0  0  0  0  0  0  0  0  0  0
   35.8580   19.3040   32.1170 C   0  0  0  0  0  0  0  0  0  0  0  0
   36.4040   19.8450   30.9490 C   0  0  0  0  0  0  0  0  0  0  0  0
   36.5200   21.1990   30.8370 N   0  0  0  0  0  0  0  0  0  0  0  0
   36.1180   22.0220   31.8270 C   0  0  0  0  0  0  0  0  0  0  0  0
   35.5910   21.5240   32.9570 N   0  0  0  0  0  0  0  0  0  0  0  0
   35.0510   19.7110   33.9730 H   0  0  0  0  0  0  0  0  0  0  0  0
   35.7990   18.2350   32.1330 H   0  0  0  0  0  0  0  0  0  0  0  0
   36.7650   19.3380   30.0830 H   0  0  0  0  0  0  0  0  0  0  0  0
   38.9550   26.4500   33.8830 C   0  0  0  0  0  0  0  0  0  0  0  0
   38.7780   26.1030   32.5610 C   0  0  0  0  0  0  0  0  0  0  0  0
   39.7860   26.3060   31.6490 C   0  0  0  0  0  0  0  0  0  0  0  0
   39.7530   26.0720   30.5930 H   0  0  0  0  0  0  0  0  0  0  0  0
   40.9840   26.8640   32.0730 C   0  0  0  0  0  0  0  0  0  0  0  0
   41.8320   27.0570   31.4080 H   0  0  0  0  0  0  0  0  0  0  0  0
   41.2010   27.2250   33.3870 C   0  0  0  0  0  3  0  0  0  0  0  0
   40.1550   27.0040   34.2870 C   0  0  0  0  0  3  0  0  0  0  0  0
   36.9200   25.0770   34.5250 H   0  0  0  0  0  0  0  0  0  0  0  0
   37.6420   26.1690   34.9930 S   0  0  0  0  0  0  0  0  0  0  0  0
   38.0880   25.9800   36.3910 O   0  0  0  0  0  0  0  0  0  0  0  0
   36.6930   27.3400   34.9560 O   0  0  0  0  0  0  0  0  0  0  0  0
  2  1  1  0  0  0  0
  3 15  1  0  0  0  0
  3  2  2  0  0  0  0
  4  3  1  0  0  0  0
  5  4  2  0  0  0  0
  5  6  1  0  0  0  0
  6  7  2  0  0  0  0
  7  2  1  0  0  0  0
  7 21  1  0  0  0  0
  8  4  1  0  0  0  0
  9  5  1  0  0  0  0
 10  6  1  0  0  0  0
 11 17  1  0  0  0  0
 12 18  1  0  0  0  0
 12 11  2  0  0  0  0
 13 12  1  0  0  0  0
 14 13  2  0  0  0  0
 14 15  1  0  0  0  0
 15 16  2  0  0  0  0
 16 11  1  0  0  0  0
 19 13  1  0  0  0  0
 20 27  1  0  0  0  0
 20 29  1  0  0  0  0
 21 20  2  0  0  0  0
 22 24  2  0  0  0  0
 22 21  1  0  0  0  0
 23 22  1  0  0  0  0
 24 26  1  0  0  0  0
 25 24  1  0  0  0  0
 26 27  2  0  0  0  0
 28 29  1  0  0  0  0
 29 30  2  0  0  0  0
 31 29  2  0  0  0  0
M  END
>  <minimizedAffinity>
-5.31483507

$$$$

 OpenBabel03272500313D

 31 33  0  0  0  0  0  0  0  0999 V2000
   36.2920   28.1980   34.6450 Cl  0  0  0  0  0  0  0  0  0  0  0  0
   36.0960   29.1200   33.1600 C   0  0  0  0  0  0  0  0  0  0  0  0
   36.6080   28.5400   32.0280 C   0  0  0  0  0  0  0  0  0  0  0  0
   36.4620   29.2610   30.8290 C   0  0  0  0  0  0  0  0  0  0  0  0
   35.8350   30.4780   30.8390 C   0  0  0  0  0  0  0  0  0  0  0  0
   35.3510   30.9910   32.0120 C   0  0  0  0  0  0  0  0  0  0  0  0
   35.4590   30.3430   33.2130 C   0  0  0  0  0  0  0  0  0  0  0  0
   36.8700   28.7950   29.9350 H   0  0  0  0  0  0  0  0  0  0  0  0
   35.7440   31.0000   29.8940 H   0  0  0  0  0  0  0  0  0  0  0  0
   34.8550   31.9600   32.0020 H   0  0  0  0  0  0  0  0  0  0  0  0
   37.0740   24.9330   31.9230 C   0  0  0  0  0  0  0  0  0  0  0  0
   38.4470   24.7570   32.0910 C   0  0  0  0  0  0  0  0  0  0  0  0
   39.2210   25.9110   32.2420 C   0  0  0  0  0  0  0  0  0  0  0  0
   38.6060   27.1280   32.2200 N   0  0  0  0  0  0  0  0  0  0  0  0
   37.2720   27.2380   32.0530 C   0  0  0  0  0  0  0  0  0  0  0  0
   36.5110   26.1420   31.9060 N   0  0  0  0  0  0  0  0  0  0  0  0
   36.5470   23.9980   31.8130 H   0  0  0  0  0  0  0  0  0  0  0  0
   38.9980   23.8390   32.1200 H   0  0  0  0  0  0  0  0  0  0  0  0
   40.2750   25.9960   32.3820 H   0  0  0  0  0  0  0  0  0  0  0  0
   33.6910   30.5710   34.9460 C   0  0  0  0  0  0  0  0  0  0  0  0
   34.9620   30.8430   34.4890 C   0  0  0  0  0  0  0  0  0  0  0  0
   35.8190   31.6110   35.2410 C   0  0  0  0  0  0  0  0  0  0  0  0
   36.8320   31.8850   34.9780 H   0  0  0  0  0  0  0  0  0  0  0  0
   35.3910   32.1110   36.4630 C   0  0  0  0  0  0  0  0  0  0  0  0
   36.0130   32.7290   37.1170 H   0  0  0  0  0  0  0  0  0  0  0  0
   34.1260   31.8600   36.9550 C   0  0  0  0  0  3  0  0  0  0  0  0
   33.2810   31.0750   36.1660 C   0  0  0  0  0  3  0  0  0  0  0  0
   33.4590   28.7800   33.1630 H   0  0  0  0  0  0  0  0  0  0  0  0
   32.6490   29.5900   33.9510 S   0  0  0  0  0  0  0  0  0  0  0  0
   31.6670   28.8040   34.7290 O   0  0  0  0  0  0  0  0  0  0  0  0
   31.8900   30.4750   32.9930 O   0  0  0  0  0  0  0  0  0  0  0  0
  2  7  1  0  0  0  0
  2  1  1  0  0  0  0
  3 15  1  0  0  0  0
  3  2  2  0  0  0  0
  4  5  2  0  0  0  0
  4  3  1  0  0  0  0
  5  6  1  0  0  0  0
  6  7  2  0  0  0  0
  7 21  1  0  0  0  0
  8  4  1  0  0  0  0
  9  5  1  0  0  0  0
 10  6  1  0  0  0  0
 11 12  1  0  0  0  0
 12 18  1  0  0  0  0
 12 13  2  0  0  0  0
 13 19  1  0  0  0  0
 14 13  1  0  0  0  0
 15 14  2  0  0  0  0
 16 11  2  0  0  0  0
 16 15  1  0  0  0  0
 17 11  1  0  0  0  0
 20 27  1  0  0  0  0
 21 20  2  0  0  0  0
 21 22  1  0  0  0  0
 22 24  2  0  0  0  0
 23 22  1  0  0  0  0
 24 26  1  0  0  0  0
 24 25  1  0  0  0  0
 27 26  2  0  0  0  0
 28 29  1  0  0  0  0
 29 30  2  0  0  0  0
 29 20  1  0  0  0  0
 31 29  2  0  0  0  0
M  END
>  <minimizedAffinity>
-5.29761934

$$$$

 OpenBabel03272500313D

 31 33  0  0  0  0  0  0  0  0999 V2000
   37.9350   23.0690   33.3170 Cl  0  0  0  0  0  0  0  0  0  0  0  0
   36.8540   24.0950   32.3850 C   0  0  0  0  0  0  0  0  0  0  0  0
   35.9500   23.4390   31.5890 C   0  0  0  0  0  0  0  0  0  0  0  0
   35.0750   24.2410   30.8340 C   0  0  0  0  0  0  0  0  0  0  0  0
   35.1580   25.6050   30.9200 C   0  0  0  0  0  0  0  0  0  0  0  0
   36.0900   26.1860   31.7380 C   0  0  0  0  0  0  0  0  0  0  0  0
   36.9710   25.4650   32.4990 C   0  0  0  0  0  0  0  0  0  0  0  0
   34.3610   23.7140   30.2060 H   0  0  0  0  0  0  0  0  0  0  0  0
   34.4670   26.1850   30.3220 H   0  0  0  0  0  0  0  0  0  0  0  0
   36.1420   27.2710   31.7930 H   0  0  0  0  0  0  0  0  0  0  0  0
   34.9000   20.0220   32.2690 C   0  0  0  0  0  0  0  0  0  0  0  0
   35.7140   19.2400   31.4510 C   0  0  0  0  0  0  0  0  0  0  0  0
   36.6430   19.9140   30.6510 C   0  0  0  0  0  0  0  0  0  0  0  0
   36.7040   21.2740   30.7110 N   0  0  0  0  0  0  0  0  0  0  0  0
   35.8890   21.9800   31.5210 C   0  0  0  0  0  0  0  0  0  0  0  0
   34.9910   21.3530   32.2970 N   0  0  0  0  0  0  0  0  0  0  0  0
   34.2120   19.4310   32.8540 H   0  0  0  0  0  0  0  0  0  0  0  0
   35.7250   18.1740   31.3520 H   0  0  0  0  0  0  0  0  0  0  0  0
   37.3510   19.5090   29.9640 H   0  0  0  0  0  0  0  0  0  0  0  0
   39.2620   26.3110   32.9640 C   0  0  0  0  0  0  0  0  0  0  0  0
   37.9800   26.0320   33.3850 C   0  0  0  0  0  0  0  0  0  0  0  0
   37.6060   26.2860   34.6830 C   0  0  0  0  0  0  0  0  0  0  0  0
   36.6310   26.1050   35.1170 H   0  0  0  0  0  0  0  0  0  0  0  0
   38.5320   26.8250   35.5660 C   0  0  0  0  0  0  0  0  0  0  0  0
   38.3100   27.0540   36.6130 H   0  0  0  0  0  0  0  0  0  0  0  0
   39.8250   27.1180   35.1820 C   0  0  0  0  0  3  0  0  0  0  0  0
   40.1720   26.8480   33.8560 C   0  0  0  0  0  3  0  0  0  0  0  0
   39.0450   24.7850   30.9490 H   0  0  0  0  0  0  0  0  0  0  0  0
   39.6790   25.9690   31.3070 S   0  0  0  0  0  0  0  0  0  0  0  0
   39.3520   27.0750   30.3810 O   0  0  0  0  0  0  0  0  0  0  0  0
   41.1590   25.6940   31.2080 O   0  0  0  0  0  0  0  0  0  0  0  0
  2  7  1  0  0  0  0
  2  1  1  0  0  0  0
  3  2  2  0  0  0  0
  4  5  2  0  0  0  0
  4  3  1  0  0  0  0
  5  6  1  0  0  0  0
  6 10  1  0  0  0  0
  6  7  2  0  0  0  0
  7 21  1  0  0  0  0
  8  4  1  0  0  0  0
  9  5  1  0  0  0  0
 11 16  1  0  0  0  0
 11 17  1  0  0  0  0
 12 11  2  0  0  0  0
 13 14  2  0  0  0  0
 13 12  1  0  0  0  0
 14 15  1  0  0  0  0
 15  3  1  0  0  0  0
 15 16  2  0  0  0  0
 18 12  1  0  0  0  0
 19 13  1  0  0  0  0
 20 21  2  0  0  0  0
 20 27  1  0  0  0  0
 21 22  1  0  0  0  0
 22 23  1  0  0  0  0
 22 24  2  0  0  0  0
 24 25  1  0  0  0  0
 26 24  1  0  0  0  0
 27 26  2  0  0  0  0
 28 29  1  0  0  0  0
 29 20  1  0  0  0  0
 30 29  2  0  0  0  0
 31 29  2  0  0  0  0
M  END
>  <minimizedAffinity>
-5.26024914

$$$$

 OpenBabel03272500313D

 31 33  0  0  0  0  0  0  0  0999 V2000
   39.5430   25.3980   34.3510 Cl  0  0  0  0  0  0  0  0  0  0  0  0
   38.5080   24.1290   33.7120 C   0  0  0  0  0  0  0  0  0  0  0  0
   37.6480   24.5090   32.7130 C   0  0  0  0  0  0  0  0  0  0  0  0
   36.8100   23.5080   32.1880 C   0  0  0  0  0  0  0  0  0  0  0  0
   36.8830   22.2320   32.6810 C   0  0  0  0  0  0  0  0  0  0  0  0
   37.7690   21.9320   33.6810 C   0  0  0  0  0  0  0  0  0  0  0  0
   38.6110   22.8560   34.2360 C   0  0  0  0  0  0  0  0  0  0  0  0
   36.1310   23.8170   31.3970 H   0  0  0  0  0  0  0  0  0  0  0  0
   36.2200   21.4930   32.2490 H   0  0  0  0  0  0  0  0  0  0  0  0
   37.8130   20.9130   34.0600 H   0  0  0  0  0  0  0  0  0  0  0  0
   36.6950   28.0060   32.4060 C   0  0  0  0  0  0  0  0  0  0  0  0
   37.4430   28.4750   31.3260 C   0  0  0  0  0  0  0  0  0  0  0  0
   38.2910   27.5590   30.6970 C   0  0  0  0  0  0  0  0  0  0  0  0
   38.3430   26.2780   31.1610 N   0  0  0  0  0  0  0  0  0  0  0  0
   37.5960   25.8800   32.2120 C   0  0  0  0  0  0  0  0  0  0  0  0
   36.7750   26.7440   32.8300 N   0  0  0  0  0  0  0  0  0  0  0  0
   36.0660   28.7700   32.8360 H   0  0  0  0  0  0  0  0  0  0  0  0
   37.4540   29.4600   30.9070 H   0  0  0  0  0  0  0  0  0  0  0  0
   38.9400   27.7120   29.8650 H   0  0  0  0  0  0  0  0  0  0  0  0
   39.2800   22.8020   36.6300 C   0  0  0  0  0  0  0  0  0  0  0  0
   39.5720   22.5900   35.3000 C   0  0  0  0  0  0  0  0  0  0  0  0
   40.8060   22.1110   34.9280 C   0  0  0  0  0  0  0  0  0  0  0  0
   41.1380   21.9100   33.9180 H   0  0  0  0  0  0  0  0  0  0  0  0
   41.7540   21.8430   35.9060 C   0  0  0  0  0  0  0  0  0  0  0  0
   42.7570   21.4610   35.6890 H   0  0  0  0  0  0  0  0  0  0  0  0
   41.5010   22.0420   37.2470 C   0  0  0  0  0  3  0  0  0  0  0  0
   40.2370   22.5300   37.5900 C   0  0  0  0  0  3  0  0  0  0  0  0
   37.3890   24.4200   36.1380 H   0  0  0  0  0  0  0  0  0  0  0  0
   37.7000   23.4100   37.0410 S   0  0  0  0  0  0  0  0  0  0  0  0
   36.6600   22.3590   37.0790 O   0  0  0  0  0  0  0  0  0  0  0  0
   37.7530   24.0690   38.3970 O   0  0  0  0  0  0  0  0  0  0  0  0
  2  7  1  0  0  0  0
  2  1  1  0  0  0  0
  3  2  2  0  0  0  0
  4  5  2  0  0  0  0
  4  3  1  0  0  0  0
  5  6  1  0  0  0  0
  6 10  1  0  0  0  0
  6  7  2  0  0  0  0
  7 21  1  0  0  0  0
  8  4  1  0  0  0  0
  9  5  1  0  0  0  0
 11 16  1  0  0  0  0
 11 17  1  0  0  0  0
 12 11  2  0  0  0  0
 13 14  2  0  0  0  0
 13 12  1  0  0  0  0
 14 15  1  0  0  0  0
 15  3  1  0  0  0  0
 15 16  2  0  0  0  0
 18 12  1  0  0  0  0
 19 13  1  0  0  0  0
 20 29  1  0  0  0  0
 20 27  1  0  0  0  0
 21 20  2  0  0  0  0
 22 21  1  0  0  0  0
 22 24  2  0  0  0  0
 23 22  1  0  0  0  0
 24 26  1  0  0  0  0
 25 24  1  0  0  0  0
 26 27  2  0  0  0  0
 28 29  1  0  0  0  0
 29 30  2  0  0  0  0
 29 31  2  0  0  0  0
M  END
>  <minimizedAffinity>
-5.12123919

$$$$

 OpenBabel03272500313D

 31 33  0  0  0  0  0  0  0  0999 V2000
   38.5030   25.6080   34.5390 Cl  0  0  0  0  0  0  0  0  0  0  0  0
   37.9280   24.0960   33.8480 C   0  0  0  0  0  0  0  0  0  0  0  0
   37.5130   24.1600   32.5420 C   0  0  0  0  0  0  0  0  0  0  0  0
   37.0480   22.9620   31.9690 C   0  0  0  0  0  0  0  0  0  0  0  0
   37.0290   21.8140   32.7150 C   0  0  0  0  0  0  0  0  0  0  0  0
   37.4610   21.8320   34.0140 C   0  0  0  0  0  0  0  0  0  0  0  0
   37.9240   22.9620   34.6330 C   0  0  0  0  0  0  0  0  0  0  0  0
   36.7200   23.0200   30.9340 H   0  0  0  0  0  0  0  0  0  0  0  0
   36.6640   20.9140   32.2360 H   0  0  0  0  0  0  0  0  0  0  0  0
   37.4380   20.9100   34.5930 H   0  0  0  0  0  0  0  0  0  0  0  0
   36.4270   27.3100   31.0810 C   0  0  0  0  0  0  0  0  0  0  0  0
   37.5320   27.7540   30.3550 C   0  0  0  0  0  0  0  0  0  0  0  0
   38.6710   26.9440   30.3750 C   0  0  0  0  0  0  0  0  0  0  0  0
   38.6450   25.7820   31.0890 N   0  0  0  0  0  0  0  0  0  0  0  0
   37.5460   25.4030   31.7750 C   0  0  0  0  0  0  0  0  0  0  0  0
   36.4420   26.1670   31.7680 N   0  0  0  0  0  0  0  0  0  0  0  0
   35.5900   27.9880   31.0170 H   0  0  0  0  0  0  0  0  0  0  0  0
   37.6260   28.6480   29.7740 H   0  0  0  0  0  0  0  0  0  0  0  0
   39.6100   27.0980   29.8930 H   0  0  0  0  0  0  0  0  0  0  0  0
   39.6920   22.7360   36.3660 C   0  0  0  0  0  0  0  0  0  0  0  0
   38.3950   23.0370   36.0110 C   0  0  0  0  0  0  0  0  0  0  0  0
   37.4860   23.4250   36.9660 C   0  0  0  0  0  0  0  0  0  0  0  0
   36.4490   23.6810   36.7970 H   0  0  0  0  0  0  0  0  0  0  0  0
   37.8880   23.5100   38.2920 C   0  0  0  0  0  0  0  0  0  0  0  0
   37.2230   23.8110   39.1080 H   0  0  0  0  0  0  0  0  0  0  0  0
   39.1770   23.2180   38.6880 C   0  0  0  0  0  3  0  0  0  0  0  0
   40.0750   22.8270   37.6920 C   0  0  0  0  0  3  0  0  0  0  0  0
   40.1020   21.4460   34.2200 H   0  0  0  0  0  0  0  0  0  0  0  0
   40.8000   22.2510   35.1130 S   0  0  0  0  0  0  0  0  0  0  0  0
   41.4540   23.3920   34.4350 O   0  0  0  0  0  0  0  0  0  0  0  0
   41.8770   21.3760   35.7040 O   0  0  0  0  0  0  0  0  0  0  0  0
  2  1  1  0  0  0  0
  2  7  1  0  0  0  0
  3  2  2  0  0  0  0
  4  3  1  0  0  0  0
  4  5  2  0  0  0  0
  5  6  1  0  0  0  0
  6 10  1  0  0  0  0
  6  7  2  0  0  0  0
  7 21  1  0  0  0  0
  8  4  1  0  0  0  0
  9  5  1  0  0  0  0
 11 16  1  0  0  0  0
 12 13  1  0  0  0  0
 12 11  2  0  0  0  0
 13 14  2  0  0  0  0
 14 15  1  0  0  0  0
 15  3  1  0  0  0  0
 16 15  2  0  0  0  0
 17 11  1  0  0  0  0
 18 12  1  0  0  0  0
 19 13  1  0  0  0  0
 20 27  1  0  0  0  0
 21 20  2  0  0  0  0
 21 22  1  0  0  0  0
 22 24  2  0  0  0  0
 23 22  1  0  0  0  0
 24 26  1  0  0  0  0
 24 25  1  0  0  0  0
 27 26  2  0  0  0  0
 28 29  1  0  0  0  0
 29 31  2  0  0  0  0
 29 20  1  0  0  0  0
 30 29  2  0  0  0  0
M  END
>  <minimizedAffinity>
-5.02049732

$$$$

 OpenBabel03272500313D

 31 33  0  0  0  0  0  0  0  0999 V2000
   37.9480   27.4200   33.5320 Cl  0  0  0  0  0  0  0  0  0  0  0  0
   37.0040   26.2890   32.5720 C   0  0  0  0  0  0  0  0  0  0  0  0
   37.3100   24.9630   32.7440 C   0  0  0  0  0  0  0  0  0  0  0  0
   36.5670   24.0400   31.9850 C   0  0  0  0  0  0  0  0  0  0  0  0
   35.5960   24.4890   31.1300 C   0  0  0  0  0  0  0  0  0  0  0  0
   35.3500   25.8310   31.0140 C   0  0  0  0  0  0  0  0  0  0  0  0
   36.0350   26.7810   31.7220 C   0  0  0  0  0  0  0  0  0  0  0  0
   36.8160   22.9910   32.1260 H   0  0  0  0  0  0  0  0  0  0  0  0
   35.0480   23.7460   30.5650 H   0  0  0  0  0  0  0  0  0  0  0  0
   34.5750   26.1700   30.3300 H   0  0  0  0  0  0  0  0  0  0  0  0
   40.5730   23.9270   33.9780 C   0  0  0  0  0  0  0  0  0  0  0  0
   40.3680   23.6840   35.3350 C   0  0  0  0  0  0  0  0  0  0  0  0
   39.0750   23.8840   35.8280 C   0  0  0  0  0  0  0  0  0  0  0  0
   38.0970   24.2970   34.9720 N   0  0  0  0  0  0  0  0  0  0  0  0
   38.3540   24.5190   33.6660 C   0  0  0  0  0  0  0  0  0  0  0  0
   39.5890   24.3330   33.1730 N   0  0  0  0  0  0  0  0  0  0  0  0
   41.5930   23.7510   33.6750 H   0  0  0  0  0  0  0  0  0  0  0  0
   41.0810   23.3580   36.0640 H   0  0  0  0  0  0  0  0  0  0  0  0
   38.7100   23.7550   36.8220 H   0  0  0  0  0  0  0  0  0  0  0  0
   36.4870   29.0210   30.7410 C   0  0  0  0  0  0  0  0  0  0  0  0
   35.8140   28.2200   31.6370 C   0  0  0  0  0  0  0  0  0  0  0  0
   34.8910   28.7650   32.4980 C   0  0  0  0  0  0  0  0  0  0  0  0
   34.3090   28.2310   33.2380 H   0  0  0  0  0  0  0  0  0  0  0  0
   34.6460   30.1320   32.4550 C   0  0  0  0  0  0  0  0  0  0  0  0
   33.9280   30.6390   33.1080 H   0  0  0  0  0  0  0  0  0  0  0  0
   35.3000   30.9660   31.5730 C   0  0  0  0  0  3  0  0  0  0  0  0
   36.2300   30.3790   30.7120 C   0  0  0  0  0  3  0  0  0  0  0  0
   37.3070   26.9290   29.5610 H   0  0  0  0  0  0  0  0  0  0  0  0
   37.6440   28.2730   29.6740 S   0  0  0  0  0  0  0  0  0  0  0  0
   37.7370   28.9340   28.3550 O   0  0  0  0  0  0  0  0  0  0  0  0
   39.0110   28.3040   30.3130 O   0  0  0  0  0  0  0  0  0  0  0  0
  2  3  1  0  0  0  0
  2  1  1  0  0  0  0
  3 15  1  0  0  0  0
  4  8  1  0  0  0  0
  4  3  2  0  0  0  0
  5  4  1  0  0  0  0
  6  5  2  0  0  0  0
  6  7  1  0  0  0  0
  7  2  2  0  0  0  0
  9  5  1  0  0  0  0
 10  6  1  0  0  0  0
 11 12  1  0  0  0  0
 12 13  2  0  0  0  0
 12 18  1  0  0  0  0
 13 19  1  0  0  0  0
 14 13  1  0  0  0  0
 15 14  2  0  0  0  0
 16 15  1  0  0  0  0
 16 11  2  0  0  0  0
 17 11  1  0  0  0  0
 20 21  1  0  0  0  0
 21  7  1  0  0  0  0
 21 22  2  0  0  0  0
 22 23  1  0  0  0  0
 24 22  1  0  0  0  0
 24 25  1  0  0  0  0
 26 24  2  0  0  0  0
 27 20  2  0  0  0  0
 27 26  1  0  0  0  0
 28 29  1  0  0  0  0
 29 31  2  0  0  0  0
 29 20  1  0  0  0  0
 30 29  2  0  0  0  0
M  END
>  <minimizedAffinity>
-5.00406313

$$$$

 OpenBabel03272500313D

 31 33  0  0  0  0  0  0  0  0999 V2000
   39.4250   23.5240   33.8120 Cl  0  0  0  0  0  0  0  0  0  0  0  0
   38.0470   22.4340   33.7570 C   0  0  0  0  0  0  0  0  0  0  0  0
   37.5260   22.0720   34.9730 C   0  0  0  0  0  0  0  0  0  0  0  0
   36.4230   21.1990   34.9530 C   0  0  0  0  0  0  0  0  0  0  0  0
   35.9260   20.7590   33.7550 C   0  0  0  0  0  0  0  0  0  0  0  0
   36.5020   21.1670   32.5820 C   0  0  0  0  0  0  0  0  0  0  0  0
   37.5770   22.0120   32.5300 C   0  0  0  0  0  0  0  0  0  0  0  0
   36.0150   20.9170   35.9200 H   0  0  0  0  0  0  0  0  0  0  0  0
   35.0760   20.0890   33.7840 H   0  0  0  0  0  0  0  0  0  0  0  0
   36.0950   20.8060   31.6390 H   0  0  0  0  0  0  0  0  0  0  0  0
   39.8900   22.6370   37.6810 C   0  0  0  0  0  0  0  0  0  0  0  0
   39.1950   23.4400   38.5850 C   0  0  0  0  0  0  0  0  0  0  0  0
   37.8840   23.7890   38.2460 C   0  0  0  0  0  0  0  0  0  0  0  0
   37.3610   23.3350   37.0720 N   0  0  0  0  0  0  0  0  0  0  0  0
   38.0810   22.5610   36.2340 C   0  0  0  0  0  0  0  0  0  0  0  0
   39.3420   22.2150   36.5400 N   0  0  0  0  0  0  0  0  0  0  0  0
   40.8920   22.4120   38.0130 H   0  0  0  0  0  0  0  0  0  0  0  0
   39.5360   23.8310   39.5210 H   0  0  0  0  0  0  0  0  0  0  0  0
   37.1890   24.3860   38.7910 H   0  0  0  0  0  0  0  0  0  0  0  0
   37.9080   23.6770   30.7130 C   0  0  0  0  0  0  0  0  0  0  0  0
   38.2280   22.4770   31.3110 C   0  0  0  0  0  0  0  0  0  0  0  0
   39.1910   21.6640   30.7630 C   0  0  0  0  0  0  0  0  0  0  0  0
   39.5180   20.7070   31.1480 H   0  0  0  0  0  0  0  0  0  0  0  0
   39.8380   22.0640   29.6010 C   0  0  0  0  0  0  0  0  0  0  0  0
   40.6150   21.4720   29.1060 H   0  0  0  0  0  0  0  0  0  0  0  0
   39.5470   23.2570   28.9730 C   0  0  0  0  0  3  0  0  0  0  0  0
   38.5630   24.0590   29.5570 C   0  0  0  0  0  3  0  0  0  0  0  0
   36.6840   24.3950   32.8160 H   0  0  0  0  0  0  0  0  0  0  0  0
   36.6790   24.6660   31.4530 S   0  0  0  0  0  0  0  0  0  0  0  0
   36.8430   26.1090   31.1740 O   0  0  0  0  0  0  0  0  0  0  0  0
   35.3220   24.2410   30.9510 O   0  0  0  0  0  0  0  0  0  0  0  0
  2  1  1  0  0  0  0
  2  3  1  0  0  0  0
  3 15  1  0  0  0  0
  4  3  2  0  0  0  0
  4  8  1  0  0  0  0
  5  9  1  0  0  0  0
  5  4  1  0  0  0  0
  6  5  2  0  0  0  0
  7  6  1  0  0  0  0
  7  2  2  0  0  0  0
 10  6  1  0  0  0  0
 11 17  1  0  0  0  0
 11 12  1  0  0  0  0
 12 18  1  0  0  0  0
 13 12  2  0  0  0  0
 13 19  1  0  0  0  0
 14 13  1  0  0  0  0
 15 16  1  0  0  0  0
 15 14  2  0  0  0  0
 16 11  2  0  0  0  0
 20 21  1  0  0  0  0
 20 29  1  0  0  0  0
 21  7  1  0  0  0  0
 22 23  1  0  0  0  0
 22 21  2  0  0  0  0
 24 22  1  0  0  0  0
 25 24  1  0  0  0  0
 26 27  1  0  0  0  0
 26 24  2  0  0  0  0
 27 20  2  0  0  0  0
 29 28  1  0  0  0  0
 30 29  2  0  0  0  0
 31 29  2  0  0  0  0
M  END
>  <minimizedAffinity>
-4.99971056

$$$$

 OpenBabel03272500313D

 31 33  0  0  0  0  0  0  0  0999 V2000
   39.2220   25.8090   34.5260 Cl  0  0  0  0  0  0  0  0  0  0  0  0
   38.4840   24.4320   33.7200 C   0  0  0  0  0  0  0  0  0  0  0  0
   38.1480   23.3770   34.5310 C   0  0  0  0  0  0  0  0  0  0  0  0
   37.5560   22.2640   33.9060 C   0  0  0  0  0  0  0  0  0  0  0  0
   37.3440   22.2770   32.5530 C   0  0  0  0  0  0  0  0  0  0  0  0
   37.7080   23.3690   31.8110 C   0  0  0  0  0  0  0  0  0  0  0  0
   38.2880   24.4830   32.3550 C   0  0  0  0  0  0  0  0  0  0  0  0
   37.2930   21.4330   34.5550 H   0  0  0  0  0  0  0  0  0  0  0  0
   36.8870   21.4010   32.1120 H   0  0  0  0  0  0  0  0  0  0  0  0
   37.5330   23.3610   30.7370 H   0  0  0  0  0  0  0  0  0  0  0  0
   39.7490   22.7740   37.7420 C   0  0  0  0  0  0  0  0  0  0  0  0
   38.9090   23.3910   38.6690 C   0  0  0  0  0  0  0  0  0  0  0  0
   37.7690   24.0260   38.1670 C   0  0  0  0  0  0  0  0  0  0  0  0
   37.5390   24.0100   36.8230 N   0  0  0  0  0  0  0  0  0  0  0  0
   38.3890   23.3970   35.9720 C   0  0  0  0  0  0  0  0  0  0  0  0
   39.4890   22.7820   36.4330 N   0  0  0  0  0  0  0  0  0  0  0  0
   40.6050   22.3080   38.2050 H   0  0  0  0  0  0  0  0  0  0  0  0
   39.0220   23.4440   39.7320 H   0  0  0  0  0  0  0  0  0  0  0  0
   37.0060   24.5490   38.6980 H   0  0  0  0  0  0  0  0  0  0  0  0
   37.8260   26.7070   31.3440 C   0  0  0  0  0  0  0  0  0  0  0  0
   38.6940   25.6710   31.6130 C   0  0  0  0  0  0  0  0  0  0  0  0
   39.9970   25.7270   31.1790 C   0  0  0  0  0  0  0  0  0  0  0  0
   40.7570   24.9730   31.3340 H   0  0  0  0  0  0  0  0  0  0  0  0
   40.4300   26.8380   30.4680 C   0  0  0  0  0  0  0  0  0  0  0  0
   41.4500   26.9560   30.0890 H   0  0  0  0  0  0  0  0  0  0  0  0
   39.5920   27.8960   30.1790 C   0  0  0  0  0  3  0  0  0  0  0  0
   38.2740   27.8060   30.6350 C   0  0  0  0  0  3  0  0  0  0  0  0
   36.1930   25.7480   33.0330 H   0  0  0  0  0  0  0  0  0  0  0  0
   36.1870   26.5810   31.9200 S   0  0  0  0  0  0  0  0  0  0  0  0
   35.5660   27.8910   32.2120 O   0  0  0  0  0  0  0  0  0  0  0  0
   35.3430   25.8810   30.8840 O   0  0  0  0  0  0  0  0  0  0  0  0
  2  1  1  0  0  0  0
  2  3  1  0  0  0  0
  3 15  1  0  0  0  0
  4  3  2  0  0  0  0
  4  8  1  0  0  0  0
  5  4  1  0  0  0  0
  6  7  1  0  0  0  0
  6  5  2  0  0  0  0
  7  2  2  0  0  0  0
  9  5  1  0  0  0  0
 10  6  1  0  0  0  0
 11 17  1  0  0  0  0
 11 12  1  0  0  0  0
 12 18  1  0  0  0  0
 13 12  2  0  0  0  0
 13 19  1  0  0  0  0
 14 13  1  0  0  0  0
 15 16  1  0  0  0  0
 15 14  2  0  0  0  0
 16 11  2  0  0  0  0
 20 21  1  0  0  0  0
 20 29  1  0  0  0  0
 21  7  1  0  0  0  0
 22 23  1  0  0  0  0
 22 21  2  0  0  0  0
 24 22  1  0  0  0  0
 25 24  1  0  0  0  0
 26 24  2  0  0  0  0
 26 27  1  0  0  0  0
 27 20  2  0  0  0  0
 29 30  2  0  0  0  0
 29 28  1  0  0  0  0
 31 29  2  0  0  0  0
M  END
>  <minimizedAffinity>
-4.96167898

$$$$
