
 OpenBabel03272500543D

 35 37  0  0  0  0  0  0  0  0999 V2000
   35.7280   30.0520   43.5510 C   0  0  0  0  0  0  0  0  0  0  0  0
   35.6560   29.2380   42.4250 C   0  0  0  0  0  0  0  0  0  0  0  0
   36.6650   29.1570   41.4790 C   0  0  0  0  0  0  0  0  0  0  0  0
   37.8300   29.9510   41.6770 C   0  0  0  0  0  0  0  0  0  0  0  0
   37.8740   30.7400   42.7900 C   0  0  0  0  0  0  0  0  0  0  0  0
   36.8830   30.8120   43.7160 C   0  0  0  0  0  0  0  0  0  0  0  0
   34.7620   28.6200   42.2620 H   0  0  0  0  0  0  0  0  0  0  0  0
   36.4940   28.4760   40.6280 H   0  0  0  0  0  0  0  0  0  0  0  0
   38.5080   29.7720   40.8580 H   0  0  0  0  0  0  0  0  0  0  0  0
   38.8060   31.2550   42.6820 H   0  0  0  0  0  0  0  0  0  0  0  0
   34.5940   29.1910   45.5050 C   0  0  0  0  0  0  0  0  0  0  0  0
   34.5640   30.0600   44.4020 C   0  0  0  0  0  0  0  0  0  0  0  0
   33.4100   30.8400   44.2460 C   0  0  0  0  0  0  0  0  0  0  0  0
   32.3940   30.7490   45.1150 N   0  0  0  0  0  0  0  0  0  0  0  0
   32.4450   29.9010   46.1760 C   0  0  0  0  0  0  0  0  0  0  0  0
   33.5390   29.1380   46.3530 N   0  0  0  0  0  0  0  0  0  0  0  0
   35.4020   28.5350   45.7570 H   0  0  0  0  0  0  0  0  0  0  0  0
   33.4380   31.4950   43.3770 H   0  0  0  0  0  0  0  0  0  0  0  0
   31.5600   29.9530   46.7630 H   0  0  0  0  0  0  0  0  0  0  0  0
   37.8870   31.0900   45.8260 C   0  0  0  0  0  0  0  0  0  0  0  0
   38.4080   29.9430   45.5950 O   0  0  0  0  0  0  0  0  0  0  0  0
   36.9590   31.6090   44.8600 N   0  0  0  0  0  0  0  0  0  0  0  0
   36.4220   32.4550   44.9890 H   0  0  0  0  0  0  0  0  0  0  0  0
   39.2070   32.8150   47.1490 C   0  0  0  0  0  0  0  0  0  0  0  0
   38.2000   31.8840   47.0290 C   0  0  0  0  0  0  0  0  0  0  0  0
   37.3870   31.6540   48.1210 C   0  0  0  0  0  0  0  0  0  0  0  0
   36.5570   30.9450   48.1590 H   0  0  0  0  0  0  0  0  0  0  0  0
   37.5970   32.3560   49.3030 C   0  0  0  0  0  0  0  0  0  0  0  0
   37.0040   32.2250   50.1830 H   0  0  0  0  0  0  0  0  0  0  0  0
   38.6070   33.2880   49.4150 C   0  0  0  0  0  3  0  0  0  0  0  0
   39.4240   33.5170   48.3150 C   0  0  0  0  0  3  0  0  0  0  0  0
   40.9650   34.2350   46.0750 H   0  0  0  0  0  0  0  0  0  0  0  0
   40.2260   33.0970   45.7720 S   0  0  0  0  0  0  0  0  0  0  0  0
   41.1120   31.9830   45.3990 O   0  0  0  0  0  0  0  0  0  0  0  0
   39.3290   33.4630   44.5990 O   0  0  0  0  0  0  0  0  0  0  0  0
  1  6  1  0  0  0  0
  1 12  1  0  0  0  0
  2  1  2  0  0  0  0
  3  4  2  0  0  0  0
  3  2  1  0  0  0  0
  4  5  1  0  0  0  0
  5  6  2  0  0  0  0
  6 22  1  0  0  0  0
  7  2  1  0  0  0  0
  8  3  1  0  0  0  0
  9  4  1  0  0  0  0
 10  5  1  0  0  0  0
 11 17  1  0  0  0  0
 11 16  1  0  0  0  0
 12 11  2  0  0  0  0
 13 12  1  0  0  0  0
 13 14  2  0  0  0  0
 14 15  1  0  0  0  0
 15 16  2  0  0  0  0
 15 19  1  0  0  0  0
 18 13  1  0  0  0  0
 20 25  1  0  0  0  0
 21 20  2  0  0  0  0
 22 23  1  0  0  0  0
 22 20  1  0  0  0  0
 24 31  1  0  0  0  0
 25 24  2  0  0  0  0
 25 26  1  0  0  0  0
 26 27  1  0  0  0  0
 26 28  2  0  0  0  0
 28 30  1  0  0  0  0
 28 29  1  0  0  0  0
 31 30  2  0  0  0  0
 33 32  1  0  0  0  0
 33 24  1  0  0  0  0
 34 33  2  0  0  0  0
 35 33  2  0  0  0  0
M  END
>  <minimizedAffinity>
-5.09685755

>  <minimizedRMSD>
5.15118027

$$$$
