
 OpenBabel03262523553D

 41 43  0  0  1  0  0  0  0  0999 V2000
   35.1750   30.1030   43.5170 C   0  0  1  0  0  0  0  0  0  0  0  0
   34.6840   31.4520   43.2610 C   0  0  0  0  0  0  0  0  0  0  0  0
   34.9970   31.8270   41.8440 C   0  0  0  0  0  0  0  0  0  0  0  0
   36.3470   31.3720   41.4600 C   0  0  0  0  0  0  0  0  0  0  0  0
   37.2760   31.0780   42.5700 C   0  0  0  0  0  0  0  0  0  0  0  0
   36.6940   30.1720   43.6550 C   0  0  1  0  0  0  0  0  0  0  0  0
   35.0090   29.4500   42.6100 H   0  0  0  0  0  0  0  0  0  0  0  0
   33.5640   31.5170   43.3900 H   0  0  0  0  0  0  0  0  0  0  0  0
   35.0780   32.2260   43.9590 H   0  0  0  0  0  0  0  0  0  0  0  0
   34.9530   32.9530   41.7950 H   0  0  0  0  0  0  0  0  0  0  0  0
   34.1900   31.4930   41.1600 H   0  0  0  0  0  0  0  0  0  0  0  0
   36.8180   32.1520   40.8290 H   0  0  0  0  0  0  0  0  0  0  0  0
   36.2550   30.4830   40.8050 H   0  0  0  0  0  0  0  0  0  0  0  0
   37.6930   32.0170   43.0190 H   0  0  0  0  0  0  0  0  0  0  0  0
   38.1600   30.5500   42.1590 H   0  0  0  0  0  0  0  0  0  0  0  0
   37.0710   29.1330   43.5060 H   0  0  0  0  0  0  0  0  0  0  0  0
   33.9100   27.4530   45.7840 C   0  0  0  0  0  0  0  0  0  0  0  0
   34.4050   28.0800   44.6070 C   0  0  0  0  0  0  0  0  0  0  0  0
   34.6840   29.4370   44.7280 C   0  0  0  0  0  0  0  0  0  0  0  0
   34.4780   30.0880   45.9270 N   0  0  0  0  0  0  0  0  0  0  0  0
   34.0100   29.4540   47.0070 C   0  0  0  0  0  0  0  0  0  0  0  0
   33.7210   28.1340   46.9490 N   0  0  0  0  0  0  0  0  0  0  0  0
   33.6960   26.3820   45.6610 H   0  0  0  0  0  0  0  0  0  0  0  0
   34.5450   27.5170   43.6970 H   0  0  0  0  0  0  0  0  0  0  0  0
   33.8380   29.9360   47.9560 H   0  0  0  0  0  0  0  0  0  0  0  0
   38.3310   30.4450   45.7060 C   0  0  0  0  0  0  0  0  0  0  0  0
   39.1860   29.7980   45.0610 O   0  0  0  0  0  0  0  0  0  0  0  0
   37.1380   30.6080   44.9530 N   0  0  0  0  0  0  0  0  0  0  0  0
   36.3050   31.1610   45.3280 H   0  0  0  0  0  0  0  0  0  0  0  0
   38.9800   32.2550   47.0950 C   0  0  0  0  0  0  0  0  0  0  0  0
   38.3120   31.0360   47.0110 C   0  0  0  0  0  0  0  0  0  0  0  0
   37.6880   30.4780   48.1070 C   0  0  0  0  0  0  0  0  0  0  0  0
   37.1820   29.5290   48.0040 H   0  0  0  0  0  0  0  0  0  0  0  0
   37.7530   31.1840   49.3030 C   0  0  0  0  0  0  0  0  0  0  0  0
   37.2730   30.7630   50.1580 H   0  0  0  0  0  0  0  0  0  0  0  0
   38.3960   32.3770   49.4250 C   0  0  0  0  0  0  0  0  0  0  0  0
   39.0180   32.9290   48.3180 C   0  0  0  0  0  0  0  0  0  0  0  0
   40.1560   34.2790   46.0660 H   0  0  0  0  0  0  0  0  0  0  0  0
   39.7870   33.0040   45.7480 S   0  0  0  0  0  0  0  0  0  0  0  0
   38.8980   33.1050   44.5280 O   0  0  0  0  0  0  0  0  0  0  0  0
   41.0420   32.2370   45.4640 O   0  0  0  0  0  0  0  0  0  0  0  0
  1  7  1  6  0  0  0
  1  6  1  0  0  0  0
  1 19  1  0  0  0  0
  2  8  1  0  0  0  0
  2  1  1  0  0  0  0
  2  9  1  0  0  0  0
  3  2  1  0  0  0  0
  4  3  1  0  0  0  0
  4  5  1  0  0  0  0
  5 14  1  0  0  0  0
  5  6  1  0  0  0  0
  6 16  1  6  0  0  0
  6 28  1  0  0  0  0
 10  3  1  0  0  0  0
 11  3  1  0  0  0  0
 12  4  1  0  0  0  0
 13  4  1  0  0  0  0
 15  5  1  0  0  0  0
 17 22  1  0  0  0  0
 18 19  1  0  0  0  0
 18 17  2  0  0  0  0
 19 20  2  0  0  0  0
 20 21  1  0  0  0  0
 21 25  1  0  0  0  0
 22 21  2  0  0  0  0
 23 17  1  0  0  0  0
 24 18  1  0  0  0  0
 26 31  1  0  0  0  0
 27 26  2  0  0  0  0
 28 29  1  0  0  0  0
 28 26  1  0  0  0  0
 30 37  1  0  0  0  0
 31 30  2  0  0  0  0
 31 32  1  0  0  0  0
 32 34  2  0  0  0  0
 33 32  1  0  0  0  0
 34 36  1  0  0  0  0
 34 35  1  0  0  0  0
 37 36  2  0  0  0  0
 39 38  1  0  0  0  0
 39 30  1  0  0  0  0
 40 39  2  0  0  0  0
 41 39  2  0  0  0  0
M  END
>  <minimizedAffinity>
-5.34063816

>  <minimizedRMSD>
4.78499222

$$$$
