
 OpenBabel03262523563D

 41 43  0  0  1  0  0  0  0  0999 V2000
   34.0370   29.9350   44.7360 C   0  0  1  0  0  0  0  0  0  0  0  0
   33.2720   31.1750   44.6720 C   0  0  0  0  0  0  0  0  0  0  0  0
   33.1230   31.5860   43.2380 C   0  0  0  0  0  0  0  0  0  0  0  0
   34.3760   31.3690   42.4910 C   0  0  0  0  0  0  0  0  0  0  0  0
   35.6070   31.2520   43.3000 C   0  0  0  0  0  0  0  0  0  0  0  0
   35.5020   30.2690   44.4650 C   0  0  1  0  0  0  0  0  0  0  0  0
   33.7460   29.2550   43.8820 H   0  0  0  0  0  0  0  0  0  0  0  0
   32.2350   31.0460   45.0990 H   0  0  0  0  0  0  0  0  0  0  0  0
   33.7030   32.0130   45.2680 H   0  0  0  0  0  0  0  0  0  0  0  0
   32.8760   32.6860   43.2450 H   0  0  0  0  0  0  0  0  0  0  0  0
   32.2310   31.1090   42.7830 H   0  0  0  0  0  0  0  0  0  0  0  0
   34.5200   32.2130   41.7870 H   0  0  0  0  0  0  0  0  0  0  0  0
   34.2640   30.4710   41.8510 H   0  0  0  0  0  0  0  0  0  0  0  0
   35.9630   32.2530   43.6550 H   0  0  0  0  0  0  0  0  0  0  0  0
   36.4230   30.8810   42.6470 H   0  0  0  0  0  0  0  0  0  0  0  0
   35.9950   29.3090   44.1820 H   0  0  0  0  0  0  0  0  0  0  0  0
   33.9200   27.1260   47.1570 C   0  0  0  0  0  0  0  0  0  0  0  0
   33.9650   27.8190   45.9150 C   0  0  0  0  0  0  0  0  0  0  0  0
   34.0110   29.2060   46.0090 C   0  0  0  0  0  0  0  0  0  0  0  0
   34.0110   29.8230   47.2420 N   0  0  0  0  0  0  0  0  0  0  0  0
   33.9670   29.1280   48.3830 C   0  0  0  0  0  0  0  0  0  0  0  0
   33.9210   27.7760   48.3550 N   0  0  0  0  0  0  0  0  0  0  0  0
   33.8810   26.0330   47.0550 H   0  0  0  0  0  0  0  0  0  0  0  0
   33.9620   27.2800   44.9810 H   0  0  0  0  0  0  0  0  0  0  0  0
   33.9650   29.5810   49.3620 H   0  0  0  0  0  0  0  0  0  0  0  0
   37.5030   30.6190   46.1490 C   0  0  0  0  0  0  0  0  0  0  0  0
   38.1940   29.8680   45.4240 O   0  0  0  0  0  0  0  0  0  0  0  0
   36.1980   30.7880   45.6130 N   0  0  0  0  0  0  0  0  0  0  0  0
   35.4750   31.4200   46.0780 H   0  0  0  0  0  0  0  0  0  0  0  0
   38.6620   32.3700   47.2530 C   0  0  0  0  0  0  0  0  0  0  0  0
   37.7540   31.3210   47.3720 C   0  0  0  0  0  0  0  0  0  0  0  0
   37.1570   31.0170   48.5780 C   0  0  0  0  0  0  0  0  0  0  0  0
   36.4590   30.1940   48.6330 H   0  0  0  0  0  0  0  0  0  0  0  0
   37.5000   31.8010   49.6730 C   0  0  0  0  0  0  0  0  0  0  0  0
   37.0440   31.5760   50.6110 H   0  0  0  0  0  0  0  0  0  0  0  0
   38.3830   32.8340   49.5960 C   0  0  0  0  0  3  0  0  0  0  0  0
   38.9760   33.1310   48.3820 C   0  0  0  0  0  3  0  0  0  0  0  0
   40.0220   34.0300   45.8620 H   0  0  0  0  0  0  0  0  0  0  0  0
   39.4480   32.7960   45.7600 S   0  0  0  0  0  0  0  0  0  0  0  0
   38.4790   32.8670   44.6010 O   0  0  0  0  0  0  0  0  0  0  0  0
   40.5510   31.8130   45.5100 O   0  0  0  0  0  0  0  0  0  0  0  0
  1  7  1  6  0  0  0
  1 19  1  0  0  0  0
  2  1  1  0  0  0  0
  2  8  1  0  0  0  0
  2  9  1  0  0  0  0
  3 10  1  0  0  0  0
  3  2  1  0  0  0  0
  4  3  1  0  0  0  0
  4  5  1  0  0  0  0
  5 14  1  0  0  0  0
  5  6  1  0  0  0  0
  6 16  1  6  0  0  0
  6  1  1  0  0  0  0
  6 28  1  0  0  0  0
 11  3  1  0  0  0  0
 12  4  1  0  0  0  0
 13  4  1  0  0  0  0
 15  5  1  0  0  0  0
 17 22  1  0  0  0  0
 18 19  1  0  0  0  0
 18 17  2  0  0  0  0
 19 20  2  0  0  0  0
 20 21  1  0  0  0  0
 21 25  1  0  0  0  0
 22 21  2  0  0  0  0
 23 17  1  0  0  0  0
 24 18  1  0  0  0  0
 26 31  1  0  0  0  0
 27 26  2  0  0  0  0
 28 29  1  0  0  0  0
 28 26  1  0  0  0  0
 30 31  2  0  0  0  0
 30 37  1  0  0  0  0
 31 32  1  0  0  0  0
 32 33  1  0  0  0  0
 32 34  2  0  0  0  0
 34 35  1  0  0  0  0
 36 34  1  0  0  0  0
 37 36  2  0  0  0  0
 39 38  1  0  0  0  0
 39 30  1  0  0  0  0
 40 39  2  0  0  0  0
 41 39  2  0  0  0  0
M  END
>  <minimizedAffinity>
-5.32960796

>  <minimizedRMSD>
4.70095587

$$$$
