
 OpenBabel03272508503D

 32 34  0  0  1  0  0  0  0  0999 V2000
   38.4410   30.5680   46.3480 C   0  0  2  0  0  0  0  0  0  0  0  0
   39.7920   30.9110   45.9300 C   0  0  0  0  0  0  0  0  0  0  0  0
   38.5760   31.7480   45.5030 C   0  0  1  0  0  0  0  0  0  0  0  0
   37.8930   29.7170   45.8480 H   0  0  0  0  0  0  0  0  0  0  0  0
   40.2250   30.3320   45.0900 H   0  0  0  0  0  0  0  0  0  0  0  0
   40.5160   31.4180   46.5900 H   0  0  0  0  0  0  0  0  0  0  0  0
   38.7030   32.8010   45.7810 H   0  0  0  0  0  0  0  0  0  0  0  0
   36.4990   30.0970   49.4670 C   0  0  0  0  0  0  0  0  0  0  0  0
   37.1010   31.0400   50.3340 C   0  0  0  0  0  0  0  0  0  0  0  0
   38.1820   31.8360   49.8300 C   0  0  0  0  0  0  0  0  0  0  0  0
   38.5780   31.6490   48.5410 N   0  0  0  0  0  0  0  0  0  0  0  0
   37.9570   30.7250   47.7570 C   0  0  0  0  0  0  0  0  0  0  0  0
   36.9290   29.9420   48.1760 N   0  0  0  0  0  0  0  0  0  0  0  0
   35.7020   29.5390   49.9070 H   0  0  0  0  0  0  0  0  0  0  0  0
   36.7580   31.1560   51.3450 H   0  0  0  0  0  0  0  0  0  0  0  0
   38.6600   32.5610   50.4720 H   0  0  0  0  0  0  0  0  0  0  0  0
   38.7750   32.5360   43.1700 C   0  0  0  0  0  0  0  0  0  0  0  0
   39.6290   33.3740   43.5500 O   0  0  0  0  0  0  0  0  0  0  0  0
   38.2090   31.5810   44.0900 N   0  0  0  0  0  0  0  0  0  0  0  0
   37.5890   30.8480   43.7050 H   0  0  0  0  0  0  0  0  0  0  0  0
   38.6930   31.6270   40.8120 C   0  0  0  0  0  0  0  0  0  0  0  0
   38.3970   32.5880   41.7580 C   0  0  0  0  0  0  0  0  0  0  0  0
   37.6780   33.7370   41.4250 C   0  0  0  0  0  0  0  0  0  0  0  0
   37.4200   34.5210   42.1300 H   0  0  0  0  0  0  0  0  0  0  0  0
   37.2360   33.9480   40.1160 C   0  0  0  0  0  0  0  0  0  0  0  0
   36.6790   34.8360   39.8460 H   0  0  0  0  0  0  0  0  0  0  0  0
   37.5310   32.9850   39.1630 C   0  0  0  0  0  3  0  0  0  0  0  0
   38.2470   31.8520   39.5240 C   0  0  0  0  0  3  0  0  0  0  0  0
   40.1800   29.6660   40.2370 H   0  0  0  0  0  0  0  0  0  0  0  0
   39.5910   30.2380   41.3360 S   0  0  0  0  0  0  0  0  0  0  0  0
   38.6490   29.2620   42.0180 O   0  0  0  0  0  0  0  0  0  0  0  0
   40.6750   30.5980   42.3000 O   0  0  0  0  0  0  0  0  0  0  0  0
  1  4  1  6  0  0  0
  1 12  1  0  0  0  0
  2  1  1  0  0  0  0
  2  6  1  0  0  0  0
  3  7  1  1  0  0  0
  3  2  1  0  0  0  0
  3  1  1  0  0  0  0
  5  2  1  0  0  0  0
  8 14  1  0  0  0  0
  8  9  1  0  0  0  0
  9 15  1  0  0  0  0
 10  9  2  0  0  0  0
 10 16  1  0  0  0  0
 11 10  1  0  0  0  0
 12 13  1  0  0  0  0
 12 11  2  0  0  0  0
 13  8  2  0  0  0  0
 17 18  2  0  0  0  0
 17 19  1  0  0  0  0
 19  3  1  0  0  0  0
 20 19  1  0  0  0  0
 21 30  1  0  0  0  0
 21 22  1  0  0  0  0
 22 17  1  0  0  0  0
 23 22  2  0  0  0  0
 23 24  1  0  0  0  0
 25 23  1  0  0  0  0
 26 25  1  0  0  0  0
 27 28  1  0  0  0  0
 27 25  2  0  0  0  0
 28 21  2  0  0  0  0
 29 30  1  0  0  0  0
 30 31  2  0  0  0  0
 30 32  2  0  0  0  0
M  END
>  <minimizedAffinity>
-4.4751296

>  <minimizedRMSD>
8.88627243

$$$$
