
 OpenBabel03272508503D

 32 34  0  0  1  0  0  0  0  0999 V2000
   35.6520   30.7930   43.7940 C   0  0  2  0  0  0  0  0  0  0  0  0
   35.3750   29.3730   43.6330 C   0  0  0  0  0  0  0  0  0  0  0  0
   34.8820   30.1610   44.8580 C   0  0  1  0  0  0  0  0  0  0  0  0
   36.6760   31.1350   44.1220 H   0  0  0  0  0  0  0  0  0  0  0  0
   36.1900   28.6650   43.8830 H   0  0  0  0  0  0  0  0  0  0  0  0
   34.5880   28.9850   42.9650 H   0  0  0  0  0  0  0  0  0  0  0  0
   33.7970   30.0660   44.9800 H   0  0  0  0  0  0  0  0  0  0  0  0
   35.1250   33.9220   41.8830 C   0  0  0  0  0  0  0  0  0  0  0  0
   33.8000   33.7610   41.4130 C   0  0  0  0  0  0  0  0  0  0  0  0
   33.0940   32.5630   41.7630 C   0  0  0  0  0  0  0  0  0  0  0  0
   33.7310   31.6370   42.5310 N   0  0  0  0  0  0  0  0  0  0  0  0
   35.0080   31.8510   42.9520 C   0  0  0  0  0  0  0  0  0  0  0  0
   35.7280   32.9640   42.6540 N   0  0  0  0  0  0  0  0  0  0  0  0
   35.5910   34.8360   41.5840 H   0  0  0  0  0  0  0  0  0  0  0  0
   33.3350   34.5160   40.8090 H   0  0  0  0  0  0  0  0  0  0  0  0
   32.0820   32.4150   41.4160 H   0  0  0  0  0  0  0  0  0  0  0  0
   34.9850   30.2560   47.3250 C   0  0  0  0  0  0  0  0  0  0  0  0
   33.8210   30.7270   47.3320 O   0  0  0  0  0  0  0  0  0  0  0  0
   35.6160   29.8510   46.0940 N   0  0  0  0  0  0  0  0  0  0  0  0
   36.5320   29.3750   46.1540 H   0  0  0  0  0  0  0  0  0  0  0  0
   35.4380   29.1430   49.5490 C   0  0  0  0  0  0  0  0  0  0  0  0
   35.6490   30.1460   48.6230 C   0  0  0  0  0  0  0  0  0  0  0  0
   36.5540   31.1790   48.8660 C   0  0  0  0  0  0  0  0  0  0  0  0
   36.7540   31.9900   48.1730 H   0  0  0  0  0  0  0  0  0  0  0  0
   37.2780   31.2280   50.0600 C   0  0  0  0  0  0  0  0  0  0  0  0
   37.9820   32.0250   50.2600 H   0  0  0  0  0  0  0  0  0  0  0  0
   37.0710   30.2230   50.9930 C   0  0  0  0  0  3  0  0  0  0  0  0
   36.1630   29.2060   50.7230 C   0  0  0  0  0  3  0  0  0  0  0  0
   34.5100   26.8290   49.9630 H   0  0  0  0  0  0  0  0  0  0  0  0
   34.2900   27.9070   49.1430 S   0  0  0  0  0  0  0  0  0  0  0  0
   34.4610   27.5250   47.6850 O   0  0  0  0  0  0  0  0  0  0  0  0
   32.8790   28.3570   49.3510 O   0  0  0  0  0  0  0  0  0  0  0  0
  1  4  1  1  0  0  0
  1  3  1  0  0  0  0
  2  1  1  0  0  0  0
  2  5  1  0  0  0  0
  2  3  1  0  0  0  0
  3  7  1  1  0  0  0
  3 19  1  0  0  0  0
  6  2  1  0  0  0  0
  8 13  1  0  0  0  0
  9 10  1  0  0  0  0
  9  8  2  0  0  0  0
 10 11  2  0  0  0  0
 11 12  1  0  0  0  0
 12  1  1  0  0  0  0
 13 12  2  0  0  0  0
 14  8  1  0  0  0  0
 15  9  1  0  0  0  0
 16 10  1  0  0  0  0
 17 18  2  0  0  0  0
 17 22  1  0  0  0  0
 19 20  1  0  0  0  0
 19 17  1  0  0  0  0
 21 28  1  0  0  0  0
 22 23  1  0  0  0  0
 22 21  2  0  0  0  0
 23 25  2  0  0  0  0
 24 23  1  0  0  0  0
 25 26  1  0  0  0  0
 25 27  1  0  0  0  0
 28 27  2  0  0  0  0
 30 32  2  0  0  0  0
 30 21  1  0  0  0  0
 30 29  1  0  0  0  0
 31 30  2  0  0  0  0
M  END
>  <minimizedAffinity>
-4.66800737

>  <minimizedRMSD>
4.65739489

$$$$
