
 OpenBabel03272508503D

 32 34  0  0  1  0  0  0  0  0999 V2000
   38.1120   30.6880   46.3530 C   0  0  2  0  0  0  0  0  0  0  0  0
   39.4740   30.9300   45.8980 C   0  0  0  0  0  0  0  0  0  0  0  0
   38.3090   31.8490   45.4950 C   0  0  1  0  0  0  0  0  0  0  0  0
   37.4930   29.8740   45.8750 H   0  0  0  0  0  0  0  0  0  0  0  0
   39.8420   30.3160   45.0530 H   0  0  0  0  0  0  0  0  0  0  0  0
   40.2480   31.3880   46.5350 H   0  0  0  0  0  0  0  0  0  0  0  0
   38.5180   32.8920   45.7610 H   0  0  0  0  0  0  0  0  0  0  0  0
   35.9790   30.9330   49.3720 C   0  0  0  0  0  0  0  0  0  0  0  0
   36.9230   31.2640   50.3740 C   0  0  0  0  0  0  0  0  0  0  0  0
   38.2990   31.4000   49.9940 C   0  0  0  0  0  0  0  0  0  0  0  0
   38.6330   31.2050   48.6890 N   0  0  0  0  0  0  0  0  0  0  0  0
   37.6780   30.8880   47.7730 C   0  0  0  0  0  0  0  0  0  0  0  0
   36.3600   30.7450   48.0700 N   0  0  0  0  0  0  0  0  0  0  0  0
   34.9740   30.8460   49.7240 H   0  0  0  0  0  0  0  0  0  0  0  0
   36.6170   31.4080   51.3920 H   0  0  0  0  0  0  0  0  0  0  0  0
   39.0390   31.6500   50.7400 H   0  0  0  0  0  0  0  0  0  0  0  0
   38.5290   32.5800   43.1460 C   0  0  0  0  0  0  0  0  0  0  0  0
   39.4690   33.3360   43.4930 O   0  0  0  0  0  0  0  0  0  0  0  0
   37.8950   31.6980   44.0930 N   0  0  0  0  0  0  0  0  0  0  0  0
   37.1980   31.0230   43.7340 H   0  0  0  0  0  0  0  0  0  0  0  0
   38.4110   31.7030   40.7780 C   0  0  0  0  0  0  0  0  0  0  0  0
   38.1240   32.6490   41.7420 C   0  0  0  0  0  0  0  0  0  0  0  0
   37.3910   33.7970   41.4380 C   0  0  0  0  0  0  0  0  0  0  0  0
   37.1410   34.5690   42.1580 H   0  0  0  0  0  0  0  0  0  0  0  0
   36.9240   34.0230   40.1410 C   0  0  0  0  0  0  0  0  0  0  0  0
   36.3550   34.9110   39.8930 H   0  0  0  0  0  0  0  0  0  0  0  0
   37.2080   33.0760   39.1680 C   0  0  0  0  0  3  0  0  0  0  0  0
   37.9400   31.9420   39.5010 C   0  0  0  0  0  3  0  0  0  0  0  0
   39.5660   29.5430   40.1550 H   0  0  0  0  0  0  0  0  0  0  0  0
   39.3280   30.3140   41.2660 S   0  0  0  0  0  0  0  0  0  0  0  0
   38.5430   29.5380   42.3080 O   0  0  0  0  0  0  0  0  0  0  0  0
   40.6510   30.6890   41.8530 O   0  0  0  0  0  0  0  0  0  0  0  0
  1  4  1  6  0  0  0
  1 12  1  0  0  0  0
  2  1  1  0  0  0  0
  2  6  1  0  0  0  0
  3  7  1  1  0  0  0
  3  2  1  0  0  0  0
  3  1  1  0  0  0  0
  5  2  1  0  0  0  0
  8 14  1  0  0  0  0
  8  9  1  0  0  0  0
  9 15  1  0  0  0  0
 10  9  2  0  0  0  0
 10 16  1  0  0  0  0
 11 10  1  0  0  0  0
 12 13  1  0  0  0  0
 12 11  2  0  0  0  0
 13  8  2  0  0  0  0
 17 18  2  0  0  0  0
 17 19  1  0  0  0  0
 19  3  1  0  0  0  0
 20 19  1  0  0  0  0
 21 30  1  0  0  0  0
 21 22  1  0  0  0  0
 22 17  1  0  0  0  0
 23 22  2  0  0  0  0
 23 24  1  0  0  0  0
 25 23  1  0  0  0  0
 26 25  1  0  0  0  0
 27 28  1  0  0  0  0
 27 25  2  0  0  0  0
 28 21  2  0  0  0  0
 29 30  1  0  0  0  0
 30 32  2  0  0  0  0
 30 31  2  0  0  0  0
M  END
>  <minimizedAffinity>
-4.43514681

>  <minimizedRMSD>
8.93901539

$$$$
