
 OpenBabel03272509323D

 41 43  0  0  1  0  0  0  0  0999 V2000
   38.7290   25.7420   34.5200 C   0  0  2  0  0  0  0  0  0  0  0  0
   38.7150   27.1350   35.0790 C   0  0  0  0  0  0  0  0  0  0  0  0
   37.3710   27.8190   34.9170 C   0  0  0  0  0  0  0  0  0  0  0  0
   36.9750   27.8480   33.4400 C   0  0  0  0  0  0  0  0  0  0  0  0
   37.3370   26.6010   32.6850 C   0  0  0  0  0  0  0  0  0  0  0  0
   37.5220   25.4570   33.6970 C   0  0  1  0  0  0  0  0  0  0  0  0
   39.6320   25.5340   33.8660 H   0  0  0  0  0  0  0  0  0  0  0  0
   39.3930   27.7250   34.3700 H   0  0  0  0  0  0  0  0  0  0  0  0
   39.1440   27.2830   36.0490 H   0  0  0  0  0  0  0  0  0  0  0  0
   36.5560   27.3240   35.4570 H   0  0  0  0  0  0  0  0  0  0  0  0
   37.5060   28.8580   35.2410 H   0  0  0  0  0  0  0  0  0  0  0  0
   37.4740   28.7010   32.9320 H   0  0  0  0  0  0  0  0  0  0  0  0
   35.8760   27.9800   33.4160 H   0  0  0  0  0  0  0  0  0  0  0  0
   38.2110   26.6870   32.0320 H   0  0  0  0  0  0  0  0  0  0  0  0
   36.4870   26.2720   32.0510 H   0  0  0  0  0  0  0  0  0  0  0  0
   36.6240   25.5510   34.2460 H   0  0  0  0  0  0  0  0  0  0  0  0
   38.8170   24.7360   35.6080 C   0  0  0  0  0  0  0  0  0  0  0  0
   38.0350   24.9960   36.7520 C   0  0  0  0  0  0  0  0  0  0  0  0
   38.1080   24.0560   37.7820 C   0  0  0  0  0  0  0  0  0  0  0  0
   38.9210   22.9510   37.6250 N   0  0  0  0  0  0  0  0  0  0  0  0
   39.6630   22.7460   36.4860 C   0  0  0  0  0  0  0  0  0  0  0  0
   39.5940   23.6520   35.4950 N   0  0  0  0  0  0  0  0  0  0  0  0
   37.3640   25.8060   36.9720 H   0  0  0  0  0  0  0  0  0  0  0  0
   37.5690   24.1220   38.7170 H   0  0  0  0  0  0  0  0  0  0  0  0
   40.2460   21.8470   36.5010 H   0  0  0  0  0  0  0  0  0  0  0  0
   36.5290   23.6550   32.2000 C   0  0  0  0  0  0  0  0  0  0  0  0
   35.5390   24.2020   31.6420 O   0  0  0  0  0  0  0  0  0  0  0  0
   37.4760   24.1530   33.1300 N   0  0  0  0  0  0  0  0  0  0  0  0
   38.1780   23.3860   33.3640 H   0  0  0  0  0  0  0  0  0  0  0  0
   37.4590   21.7290   30.8300 C   0  0  0  0  0  0  0  0  0  0  0  0
   36.5280   22.2870   31.6720 C   0  0  0  0  0  0  0  0  0  0  0  0
   35.4500   21.5310   32.1120 C   0  0  0  0  0  0  0  0  0  0  0  0
   34.6780   21.9060   32.7720 H   0  0  0  0  0  0  0  0  0  0  0  0
   35.3200   20.2240   31.7000 C   0  0  0  0  0  0  0  0  0  0  0  0
   34.5050   19.5660   32.0050 H   0  0  0  0  0  0  0  0  0  0  0  0
   36.2370   19.6360   30.8570 C   0  0  0  0  0  3  0  0  0  0  0  0
   37.3080   20.4080   30.4280 C   0  0  0  0  0  3  0  0  0  0  0  0
   38.3730   24.0460   30.1030 H   0  0  0  0  0  0  0  0  0  0  0  0
   38.7800   22.7690   30.3320 S   0  0  0  0  0  0  0  0  0  0  0  0
   39.7810   22.8300   31.4610 O   0  0  0  0  0  0  0  0  0  0  0  0
   39.5150   22.1650   29.1560 O   0  0  0  0  0  0  0  0  0  0  0  0
  1  7  1  6  0  0  0
  1  2  1  0  0  0  0
  1 17  1  0  0  0  0
  2  9  1  0  0  0  0
  3  2  1  0  0  0  0
  3 11  1  0  0  0  0
  3 10  1  0  0  0  0
  4  3  1  0  0  0  0
  5  4  1  0  0  0  0
  5  6  1  0  0  0  0
  6 16  1  1  0  0  0
  6  1  1  0  0  0  0
  8  2  1  0  0  0  0
 12  4  1  0  0  0  0
 13  4  1  0  0  0  0
 14  5  1  0  0  0  0
 15  5  1  0  0  0  0
 17 18  1  0  0  0  0
 18 23  1  0  0  0  0
 18 19  2  0  0  0  0
 19 24  1  0  0  0  0
 20 19  1  0  0  0  0
 21 25  1  0  0  0  0
 21 20  2  0  0  0  0
 22 17  2  0  0  0  0
 22 21  1  0  0  0  0
 26 28  1  0  0  0  0
 27 26  2  0  0  0  0
 28 29  1  0  0  0  0
 28  6  1  0  0  0  0
 30 31  1  0  0  0  0
 31 32  2  0  0  0  0
 31 26  1  0  0  0  0
 32 33  1  0  0  0  0
 34 35  1  0  0  0  0
 34 32  1  0  0  0  0
 36 34  2  0  0  0  0
 37 30  2  0  0  0  0
 37 36  1  0  0  0  0
 38 39  1  0  0  0  0
 39 30  1  0  0  0  0
 39 40  2  0  0  0  0
 41 39  2  0  0  0  0
M  END
>  <minimizedAffinity>
-5.70546246

$$$$

 OpenBabel03272509323D

 41 43  0  0  1  0  0  0  0  0999 V2000
   36.2240   25.7500   31.9570 C   0  0  2  0  0  0  0  0  0  0  0  0
   35.9740   26.6920   30.8160 C   0  0  0  0  0  0  0  0  0  0  0  0
   36.9410   27.8610   30.7960 C   0  0  0  0  0  0  0  0  0  0  0  0
   36.8680   28.6200   32.1220 C   0  0  0  0  0  0  0  0  0  0  0  0
   36.7010   27.7360   33.3250 C   0  0  0  0  0  0  0  0  0  0  0  0
   37.1710   26.3190   32.9550 C   0  0  1  0  0  0  0  0  0  0  0  0
   35.2800   25.4700   32.5190 H   0  0  0  0  0  0  0  0  0  0  0  0
   34.9750   27.1860   31.0780 H   0  0  0  0  0  0  0  0  0  0  0  0
   35.8180   26.2640   29.8470 H   0  0  0  0  0  0  0  0  0  0  0  0
   37.9860   27.5660   30.6540 H   0  0  0  0  0  0  0  0  0  0  0  0
   36.5950   28.5420   30.0090 H   0  0  0  0  0  0  0  0  0  0  0  0
   36.0090   29.3250   32.1070 H   0  0  0  0  0  0  0  0  0  0  0  0
   37.8180   29.1790   32.2120 H   0  0  0  0  0  0  0  0  0  0  0  0
   35.6940   27.7110   33.7520 H   0  0  0  0  0  0  0  0  0  0  0  0
   37.3910   28.0510   34.1350 H   0  0  0  0  0  0  0  0  0  0  0  0
   38.1160   26.5420   32.5380 H   0  0  0  0  0  0  0  0  0  0  0  0
   36.7630   24.4560   31.4670 C   0  0  0  0  0  0  0  0  0  0  0  0
   35.9280   23.3340   31.6450 C   0  0  0  0  0  0  0  0  0  0  0  0
   36.4230   22.1120   31.1870 C   0  0  0  0  0  0  0  0  0  0  0  0
   37.6710   22.0710   30.6000 N   0  0  0  0  0  0  0  0  0  0  0  0
   38.4450   23.1980   30.4500 C   0  0  0  0  0  0  0  0  0  0  0  0
   37.9690   24.3750   30.8930 N   0  0  0  0  0  0  0  0  0  0  0  0
   34.9440   23.2550   32.0710 H   0  0  0  0  0  0  0  0  0  0  0  0
   35.8980   21.1680   31.2570 H   0  0  0  0  0  0  0  0  0  0  0  0
   39.3890   23.0190   29.9760 H   0  0  0  0  0  0  0  0  0  0  0  0
   38.3390   25.7370   35.1390 C   0  0  0  0  0  0  0  0  0  0  0  0
   39.0730   26.7300   35.3930 O   0  0  0  0  0  0  0  0  0  0  0  0
   37.4470   25.4770   34.0690 N   0  0  0  0  0  0  0  0  0  0  0  0
   36.9930   24.5230   34.2100 H   0  0  0  0  0  0  0  0  0  0  0  0
   39.4020   23.7010   36.2250 C   0  0  0  0  0  0  0  0  0  0  0  0
   38.5920   24.8110   36.2480 C   0  0  0  0  0  0  0  0  0  0  0  0
   37.9180   25.1530   37.4130 C   0  0  0  0  0  0  0  0  0  0  0  0
   37.2620   26.0100   37.5020 H   0  0  0  0  0  0  0  0  0  0  0  0
   38.0640   24.3760   38.5390 C   0  0  0  0  0  0  0  0  0  0  0  0
   37.5720   24.5800   39.4910 H   0  0  0  0  0  0  0  0  0  0  0  0
   38.8680   23.2570   38.5470 C   0  0  0  0  0  3  0  0  0  0  0  0
   39.5350   22.9310   37.3740 C   0  0  0  0  0  3  0  0  0  0  0  0
   40.8240   24.4510   34.1880 H   0  0  0  0  0  0  0  0  0  0  0  0
   40.2060   23.3560   34.7060 S   0  0  0  0  0  0  0  0  0  0  0  0
   41.2870   22.3340   34.9680 O   0  0  0  0  0  0  0  0  0  0  0  0
   39.2460   22.7070   33.7340 O   0  0  0  0  0  0  0  0  0  0  0  0
  1  7  1  1  0  0  0
  1  6  1  0  0  0  0
  2  8  1  0  0  0  0
  2  1  1  0  0  0  0
  3  2  1  0  0  0  0
  3  4  1  0  0  0  0
  4 13  1  0  0  0  0
  4  5  1  0  0  0  0
  5 14  1  0  0  0  0
  5 15  1  0  0  0  0
  6 16  1  6  0  0  0
  6  5  1  0  0  0  0
  6 28  1  0  0  0  0
  9  2  1  0  0  0  0
 10  3  1  0  0  0  0
 11  3  1  0  0  0  0
 12  4  1  0  0  0  0
 17 18  1  0  0  0  0
 17  1  1  0  0  0  0
 18 23  1  0  0  0  0
 19 24  1  0  0  0  0
 19 18  2  0  0  0  0
 20 19  1  0  0  0  0
 21 20  2  0  0  0  0
 21 22  1  0  0  0  0
 22 17  2  0  0  0  0
 25 21  1  0  0  0  0
 26 27  2  0  0  0  0
 26 31  1  0  0  0  0
 28 29  1  0  0  0  0
 28 26  1  0  0  0  0
 30 31  2  0  0  0  0
 30 37  1  0  0  0  0
 31 32  1  0  0  0  0
 32 33  1  0  0  0  0
 32 34  2  0  0  0  0
 34 36  1  0  0  0  0
 34 35  1  0  0  0  0
 37 36  2  0  0  0  0
 38 39  1  0  0  0  0
 39 40  2  0  0  0  0
 39 30  1  0  0  0  0
 41 39  2  0  0  0  0
M  END
>  <minimizedAffinity>
-5.57806635

$$$$

 OpenBabel03272509323D

 41 43  0  0  1  0  0  0  0  0999 V2000
   38.8250   25.8910   34.7480 C   0  0  2  0  0  0  0  0  0  0  0  0
   38.5160   27.2390   35.3300 C   0  0  0  0  0  0  0  0  0  0  0  0
   37.1240   27.7270   34.9770 C   0  0  0  0  0  0  0  0  0  0  0  0
   36.9550   27.7660   33.4570 C   0  0  0  0  0  0  0  0  0  0  0  0
   37.6110   26.6220   32.7380 C   0  0  0  0  0  0  0  0  0  0  0  0
   37.8130   25.4710   33.7400 C   0  0  1  0  0  0  0  0  0  0  0  0
   39.8370   25.8470   34.2380 H   0  0  0  0  0  0  0  0  0  0  0  0
   39.1960   27.9550   34.7490 H   0  0  0  0  0  0  0  0  0  0  0  0
   38.7670   27.4030   36.3580 H   0  0  0  0  0  0  0  0  0  0  0  0
   36.3220   27.0930   35.3710 H   0  0  0  0  0  0  0  0  0  0  0  0
   37.0500   28.7580   35.3420 H   0  0  0  0  0  0  0  0  0  0  0  0
   37.3900   28.7050   33.0530 H   0  0  0  0  0  0  0  0  0  0  0  0
   35.8660   27.7370   33.2650 H   0  0  0  0  0  0  0  0  0  0  0  0
   38.5500   26.8640   32.2320 H   0  0  0  0  0  0  0  0  0  0  0  0
   36.9260   26.2020   31.9730 H   0  0  0  0  0  0  0  0  0  0  0  0
   36.8390   25.4070   34.1450 H   0  0  0  0  0  0  0  0  0  0  0  0
   38.8990   24.8590   35.8130 C   0  0  0  0  0  0  0  0  0  0  0  0
   37.9630   24.9860   36.8600 C   0  0  0  0  0  0  0  0  0  0  0  0
   38.0220   24.0200   37.8660 C   0  0  0  0  0  0  0  0  0  0  0  0
   38.9690   23.0200   37.7820 N   0  0  0  0  0  0  0  0  0  0  0  0
   39.8590   22.9420   36.7360 C   0  0  0  0  0  0  0  0  0  0  0  0
   39.8030   23.8730   35.7680 N   0  0  0  0  0  0  0  0  0  0  0  0
   37.1820   25.7070   37.0170 H   0  0  0  0  0  0  0  0  0  0  0  0
   37.3730   23.9890   38.7310 H   0  0  0  0  0  0  0  0  0  0  0  0
   40.5350   22.1140   36.7990 H   0  0  0  0  0  0  0  0  0  0  0  0
   37.2960   23.5840   32.1140 C   0  0  0  0  0  0  0  0  0  0  0  0
   36.2830   23.9720   31.4730 O   0  0  0  0  0  0  0  0  0  0  0  0
   38.0510   24.2020   33.1430 N   0  0  0  0  0  0  0  0  0  0  0  0
   38.8520   23.5600   33.4280 H   0  0  0  0  0  0  0  0  0  0  0  0
   37.1230   21.0510   32.0240 C   0  0  0  0  0  0  0  0  0  0  0  0
   37.5860   22.2580   31.5580 C   0  0  0  0  0  0  0  0  0  0  0  0
   38.4150   22.3000   30.4450 C   0  0  0  0  0  0  0  0  0  0  0  0
   38.8190   23.2120   30.0260 H   0  0  0  0  0  0  0  0  0  0  0  0
   38.7700   21.1290   29.8150 C   0  0  0  0  0  0  0  0  0  0  0  0
   39.4120   21.0790   28.9350 H   0  0  0  0  0  0  0  0  0  0  0  0
   38.3220   19.9030   30.2580 C   0  0  0  0  0  3  0  0  0  0  0  0
   37.4940   19.8820   31.3720 C   0  0  0  0  0  3  0  0  0  0  0  0
   35.0020   21.9090   33.2480 H   0  0  0  0  0  0  0  0  0  0  0  0
   36.0850   21.1080   33.4360 S   0  0  0  0  0  0  0  0  0  0  0  0
   35.5540   19.7160   33.6860 O   0  0  0  0  0  0  0  0  0  0  0  0
   36.8840   21.4770   34.6660 O   0  0  0  0  0  0  0  0  0  0  0  0
  1  7  1  6  0  0  0
  1  2  1  0  0  0  0
  1 17  1  0  0  0  0
  2  9  1  0  0  0  0
  3  2  1  0  0  0  0
  3 11  1  0  0  0  0
  3 10  1  0  0  0  0
  4  3  1  0  0  0  0
  5  4  1  0  0  0  0
  5  6  1  0  0  0  0
  6 16  1  1  0  0  0
  6  1  1  0  0  0  0
  8  2  1  0  0  0  0
 12  4  1  0  0  0  0
 13  4  1  0  0  0  0
 14  5  1  0  0  0  0
 15  5  1  0  0  0  0
 17 18  1  0  0  0  0
 18 23  1  0  0  0  0
 18 19  2  0  0  0  0
 19 24  1  0  0  0  0
 20 19  1  0  0  0  0
 21 25  1  0  0  0  0
 21 20  2  0  0  0  0
 22 17  2  0  0  0  0
 22 21  1  0  0  0  0
 26 28  1  0  0  0  0
 27 26  2  0  0  0  0
 28 29  1  0  0  0  0
 28  6  1  0  0  0  0
 30 39  1  0  0  0  0
 31 30  1  0  0  0  0
 31 26  1  0  0  0  0
 32 31  2  0  0  0  0
 33 32  1  0  0  0  0
 34 36  2  0  0  0  0
 34 32  1  0  0  0  0
 35 34  1  0  0  0  0
 36 37  1  0  0  0  0
 37 30  2  0  0  0  0
 38 39  1  0  0  0  0
 39 40  2  0  0  0  0
 39 41  2  0  0  0  0
M  END
>  <minimizedAffinity>
-5.53450775

$$$$

 OpenBabel03272509323D

 41 43  0  0  1  0  0  0  0  0999 V2000
   36.3580   24.1250   32.1740 C   0  0  2  0  0  0  0  0  0  0  0  0
   35.6700   25.0010   31.1700 C   0  0  0  0  0  0  0  0  0  0  0  0
   36.4550   26.2600   30.8520 C   0  0  0  0  0  0  0  0  0  0  0  0
   36.7170   27.0480   32.1360 C   0  0  0  0  0  0  0  0  0  0  0  0
   37.0250   26.1900   33.3300 C   0  0  0  0  0  0  0  0  0  0  0  0
   37.5030   24.8160   32.8280 C   0  0  1  0  0  0  0  0  0  0  0  0
   35.6700   23.7700   33.0020 H   0  0  0  0  0  0  0  0  0  0  0  0
   34.7550   25.4010   31.7310 H   0  0  0  0  0  0  0  0  0  0  0  0
   35.2660   24.5300   30.2960 H   0  0  0  0  0  0  0  0  0  0  0  0
   37.4290   26.0670   30.3900 H   0  0  0  0  0  0  0  0  0  0  0  0
   35.8130   26.8780   30.2130 H   0  0  0  0  0  0  0  0  0  0  0  0
   35.8280   27.6630   32.3910 H   0  0  0  0  0  0  0  0  0  0  0  0
   37.5850   27.7020   31.9270 H   0  0  0  0  0  0  0  0  0  0  0  0
   36.2080   26.0780   34.0490 H   0  0  0  0  0  0  0  0  0  0  0  0
   37.8960   26.5970   33.8850 H   0  0  0  0  0  0  0  0  0  0  0  0
   38.2430   25.1190   32.1380 H   0  0  0  0  0  0  0  0  0  0  0  0
   36.8510   22.8760   31.5380 C   0  0  0  0  0  0  0  0  0  0  0  0
   35.9300   21.8100   31.4800 C   0  0  0  0  0  0  0  0  0  0  0  0
   36.3820   20.6320   30.8830 C   0  0  0  0  0  0  0  0  0  0  0  0
   37.6720   20.5780   30.3950 N   0  0  0  0  0  0  0  0  0  0  0  0
   38.5290   21.6500   30.4770 C   0  0  0  0  0  0  0  0  0  0  0  0
   38.0950   22.7840   31.0530 N   0  0  0  0  0  0  0  0  0  0  0  0
   34.9100   21.7480   31.8120 H   0  0  0  0  0  0  0  0  0  0  0  0
   35.7920   19.7320   30.7690 H   0  0  0  0  0  0  0  0  0  0  0  0
   39.4970   21.4680   30.0550 H   0  0  0  0  0  0  0  0  0  0  0  0
   39.3680   24.4060   34.5100 C   0  0  0  0  0  0  0  0  0  0  0  0
   40.0620   25.4580   34.4920 O   0  0  0  0  0  0  0  0  0  0  0  0
   38.1970   24.0400   33.7990 N   0  0  0  0  0  0  0  0  0  0  0  0
   37.8930   23.0630   34.0960 H   0  0  0  0  0  0  0  0  0  0  0  0
   39.6100   23.2280   36.7490 C   0  0  0  0  0  0  0  0  0  0  0  0
   40.0460   23.5450   35.4840 C   0  0  0  0  0  0  0  0  0  0  0  0
   41.2450   23.0240   35.0150 C   0  0  0  0  0  0  0  0  0  0  0  0
   41.6510   23.2330   34.0340 H   0  0  0  0  0  0  0  0  0  0  0  0
   41.9900   22.1940   35.8210 C   0  0  0  0  0  0  0  0  0  0  0  0
   42.9380   21.7440   35.5230 H   0  0  0  0  0  0  0  0  0  0  0  0
   41.5800   21.8590   37.0920 C   0  0  0  0  0  3  0  0  0  0  0  0
   40.3780   22.3890   37.5440 C   0  0  0  0  0  3  0  0  0  0  0  0
   37.6880   24.9410   36.4170 H   0  0  0  0  0  0  0  0  0  0  0  0
   38.0850   23.9390   37.2450 S   0  0  0  0  0  0  0  0  0  0  0  0
   37.0220   22.8690   37.1700 O   0  0  0  0  0  0  0  0  0  0  0  0
   38.1470   24.3640   38.6960 O   0  0  0  0  0  0  0  0  0  0  0  0
  1  6  1  0  0  0  0
  1  7  1  1  0  0  0
  2  8  1  0  0  0  0
  2  1  1  0  0  0  0
  3  2  1  0  0  0  0
  3  4  1  0  0  0  0
  4 12  1  0  0  0  0
  4  5  1  0  0  0  0
  5 15  1  0  0  0  0
  5 14  1  0  0  0  0
  6 16  1  6  0  0  0
  6  5  1  0  0  0  0
  6 28  1  0  0  0  0
  9  2  1  0  0  0  0
 10  3  1  0  0  0  0
 11  3  1  0  0  0  0
 13  4  1  0  0  0  0
 17  1  1  0  0  0  0
 18 17  1  0  0  0  0
 18 23  1  0  0  0  0
 19 18  2  0  0  0  0
 20 21  2  0  0  0  0
 20 19  1  0  0  0  0
 21 22  1  0  0  0  0
 22 17  2  0  0  0  0
 24 19  1  0  0  0  0
 25 21  1  0  0  0  0
 26 31  1  0  0  0  0
 27 26  2  0  0  0  0
 28 29  1  0  0  0  0
 28 26  1  0  0  0  0
 30 39  1  0  0  0  0
 30 37  1  0  0  0  0
 31 30  2  0  0  0  0
 32 31  1  0  0  0  0
 32 34  2  0  0  0  0
 33 32  1  0  0  0  0
 34 36  1  0  0  0  0
 35 34  1  0  0  0  0
 36 37  2  0  0  0  0
 38 39  1  0  0  0  0
 39 41  2  0  0  0  0
 40 39  2  0  0  0  0
M  END
>  <minimizedAffinity>
-5.49011898

$$$$

 OpenBabel03272509323D

 41 43  0  0  1  0  0  0  0  0999 V2000
   39.5190   25.4170   34.5540 C   0  0  2  0  0  0  0  0  0  0  0  0
   39.7700   26.7870   35.1110 C   0  0  0  0  0  0  0  0  0  0  0  0
   38.5360   27.3970   35.7490 C   0  0  0  0  0  0  0  0  0  0  0  0
   37.3960   27.4500   34.7310 C   0  0  0  0  0  0  0  0  0  0  0  0
   37.3230   26.2510   33.8290 C   0  0  0  0  0  0  0  0  0  0  0  0
   38.0680   25.0880   34.5080 C   0  0  1  0  0  0  0  0  0  0  0  0
   39.9220   25.2820   33.5030 H   0  0  0  0  0  0  0  0  0  0  0  0
   39.9310   27.4390   34.1830 H   0  0  0  0  0  0  0  0  0  0  0  0
   40.6550   26.9290   35.6970 H   0  0  0  0  0  0  0  0  0  0  0  0
   38.1660   26.8380   36.6160 H   0  0  0  0  0  0  0  0  0  0  0  0
   38.7940   28.4320   36.0070 H   0  0  0  0  0  0  0  0  0  0  0  0
   37.5080   28.3460   34.0840 H   0  0  0  0  0  0  0  0  0  0  0  0
   36.4600   27.5190   35.3180 H   0  0  0  0  0  0  0  0  0  0  0  0
   37.6940   26.4080   32.8120 H   0  0  0  0  0  0  0  0  0  0  0  0
   36.2760   25.8940   33.7440 H   0  0  0  0  0  0  0  0  0  0  0  0
   37.6150   25.1120   35.4620 H   0  0  0  0  0  0  0  0  0  0  0  0
   40.2200   24.3820   35.3580 C   0  0  0  0  0  0  0  0  0  0  0  0
   41.5920   24.2120   35.0800 C   0  0  0  0  0  0  0  0  0  0  0  0
   42.2610   23.2440   35.8300 C   0  0  0  0  0  0  0  0  0  0  0  0
   41.5610   22.5260   36.7780 N   0  0  0  0  0  0  0  0  0  0  0  0
   40.2210   22.7330   37.0090 C   0  0  0  0  0  0  0  0  0  0  0  0
   39.5760   23.6650   36.2860 N   0  0  0  0  0  0  0  0  0  0  0  0
   42.2330   24.7200   34.3830 H   0  0  0  0  0  0  0  0  0  0  0  0
   43.3110   23.0000   35.7280 H   0  0  0  0  0  0  0  0  0  0  0  0
   39.8080   22.1070   37.7740 H   0  0  0  0  0  0  0  0  0  0  0  0
   37.2590   23.5010   32.6910 C   0  0  0  0  0  0  0  0  0  0  0  0
   36.9810   24.2410   31.7090 O   0  0  0  0  0  0  0  0  0  0  0  0
   37.7600   23.8020   33.9830 N   0  0  0  0  0  0  0  0  0  0  0  0
   37.8770   22.8980   34.5360 H   0  0  0  0  0  0  0  0  0  0  0  0
   37.8350   21.1410   31.9460 C   0  0  0  0  0  0  0  0  0  0  0  0
   36.9410   22.1480   32.2220 C   0  0  0  0  0  0  0  0  0  0  0  0
   35.5790   21.9280   32.0670 C   0  0  0  0  0  0  0  0  0  0  0  0
   34.8200   22.6740   32.2620 H   0  0  0  0  0  0  0  0  0  0  0  0
   35.1320   20.7000   31.6350 C   0  0  0  0  0  0  0  0  0  0  0  0
   34.0800   20.4480   31.4930 H   0  0  0  0  0  0  0  0  0  0  0  0
   36.0030   19.6710   31.3500 C   0  0  0  0  0  3  0  0  0  0  0  0
   37.3610   19.9100   31.5120 C   0  0  0  0  0  3  0  0  0  0  0  0
   40.3450   20.7110   31.4470 H   0  0  0  0  0  0  0  0  0  0  0  0
   39.5310   21.5230   32.1720 S   0  0  0  0  0  0  0  0  0  0  0  0
   39.7670   22.9290   31.6720 O   0  0  0  0  0  0  0  0  0  0  0  0
   39.8780   21.5420   33.6450 O   0  0  0  0  0  0  0  0  0  0  0  0
  1  7  1  6  0  0  0
  1  2  1  0  0  0  0
  1 17  1  0  0  0  0
  2  9  1  0  0  0  0
  2  3  1  0  0  0  0
  3 11  1  0  0  0  0
  3 10  1  0  0  0  0
  4 13  1  0  0  0  0
  4  3  1  0  0  0  0
  5  6  1  0  0  0  0
  5  4  1  0  0  0  0
  6  1  1  0  0  0  0
  6 16  1  1  0  0  0
  8  2  1  0  0  0  0
 12  4  1  0  0  0  0
 14  5  1  0  0  0  0
 15  5  1  0  0  0  0
 17 22  1  0  0  0  0
 18 17  2  0  0  0  0
 18 19  1  0  0  0  0
 19 20  2  0  0  0  0
 20 21  1  0  0  0  0
 21 25  1  0  0  0  0
 22 21  2  0  0  0  0
 23 18  1  0  0  0  0
 24 19  1  0  0  0  0
 26 28  1  0  0  0  0
 27 26  2  0  0  0  0
 28  6  1  0  0  0  0
 28 29  1  0  0  0  0
 30 39  1  0  0  0  0
 30 31  1  0  0  0  0
 31 26  1  0  0  0  0
 32 31  2  0  0  0  0
 32 33  1  0  0  0  0
 34 32  1  0  0  0  0
 35 34  1  0  0  0  0
 36 37  1  0  0  0  0
 36 34  2  0  0  0  0
 37 30  2  0  0  0  0
 38 39  1  0  0  0  0
 39 41  2  0  0  0  0
 40 39  2  0  0  0  0
M  END
>  <minimizedAffinity>
-5.34658957

$$$$

 OpenBabel03272509323D

 41 43  0  0  1  0  0  0  0  0999 V2000
   38.9670   25.3670   34.8860 C   0  0  2  0  0  0  0  0  0  0  0  0
   38.9310   26.8250   35.2360 C   0  0  0  0  0  0  0  0  0  0  0  0
   37.5960   27.4730   34.9160 C   0  0  0  0  0  0  0  0  0  0  0  0
   37.2680   27.2860   33.4350 C   0  0  0  0  0  0  0  0  0  0  0  0
   37.6620   25.9450   32.8850 C   0  0  0  0  0  0  0  0  0  0  0  0
   37.7990   24.9600   34.0590 C   0  0  1  0  0  0  0  0  0  0  0  0
   39.8980   25.0700   34.3110 H   0  0  0  0  0  0  0  0  0  0  0  0
   39.6420   27.3110   34.4810 H   0  0  0  0  0  0  0  0  0  0  0  0
   39.3150   27.1140   36.1930 H   0  0  0  0  0  0  0  0  0  0  0  0
   36.7570   27.0570   35.4850 H   0  0  0  0  0  0  0  0  0  0  0  0
   37.7190   28.5490   35.0930 H   0  0  0  0  0  0  0  0  0  0  0  0
   37.7910   28.0590   32.8310 H   0  0  0  0  0  0  0  0  0  0  0  0
   36.1720   27.4080   33.3420 H   0  0  0  0  0  0  0  0  0  0  0  0
   38.5640   25.9390   32.2660 H   0  0  0  0  0  0  0  0  0  0  0  0
   36.8410   25.5240   32.2680 H   0  0  0  0  0  0  0  0  0  0  0  0
   36.8770   25.1280   34.5470 H   0  0  0  0  0  0  0  0  0  0  0  0
   39.0040   24.5290   36.1110 C   0  0  0  0  0  0  0  0  0  0  0  0
   38.0350   24.8290   37.0910 C   0  0  0  0  0  0  0  0  0  0  0  0
   38.0590   24.0470   38.2470 C   0  0  0  0  0  0  0  0  0  0  0  0
   39.0040   23.0480   38.3630 N   0  0  0  0  0  0  0  0  0  0  0  0
   39.9270   22.7970   37.3740 C   0  0  0  0  0  0  0  0  0  0  0  0
   39.9050   23.5510   36.2620 N   0  0  0  0  0  0  0  0  0  0  0  0
   37.2530   25.5660   37.0990 H   0  0  0  0  0  0  0  0  0  0  0  0
   37.3820   24.1610   39.0840 H   0  0  0  0  0  0  0  0  0  0  0  0
   40.5970   21.9920   37.5970 H   0  0  0  0  0  0  0  0  0  0  0  0
   38.5560   22.9590   32.6830 C   0  0  0  0  0  0  0  0  0  0  0  0
   39.4410   23.4110   31.9070 O   0  0  0  0  0  0  0  0  0  0  0  0
   37.7760   23.5870   33.6860 N   0  0  0  0  0  0  0  0  0  0  0  0
   37.1370   22.8650   34.1410 H   0  0  0  0  0  0  0  0  0  0  0  0
   37.3170   20.8160   32.1090 C   0  0  0  0  0  0  0  0  0  0  0  0
   38.4650   21.5370   32.3340 C   0  0  0  0  0  0  0  0  0  0  0  0
   39.7040   20.9180   32.2320 C   0  0  0  0  0  0  0  0  0  0  0  0
   40.6470   21.4220   32.3990 H   0  0  0  0  0  0  0  0  0  0  0  0
   39.7740   19.5820   31.9060 C   0  0  0  0  0  0  0  0  0  0  0  0
   40.7070   19.0270   31.8040 H   0  0  0  0  0  0  0  0  0  0  0  0
   38.6410   18.8330   31.6750 C   0  0  0  0  0  3  0  0  0  0  0  0
   37.4120   19.4700   31.7810 C   0  0  0  0  0  3  0  0  0  0  0  0
   35.7290   22.3850   33.4310 H   0  0  0  0  0  0  0  0  0  0  0  0
   35.8060   21.6910   32.2650 S   0  0  0  0  0  0  0  0  0  0  0  0
   35.7360   22.7090   31.1510 O   0  0  0  0  0  0  0  0  0  0  0  0
   34.6310   20.7620   32.0540 O   0  0  0  0  0  0  0  0  0  0  0  0
  1  7  1  6  0  0  0
  1  2  1  0  0  0  0
  1 17  1  0  0  0  0
  2  9  1  0  0  0  0
  3 11  1  0  0  0  0
  3  2  1  0  0  0  0
  3 10  1  0  0  0  0
  4  3  1  0  0  0  0
  5  4  1  0  0  0  0
  5  6  1  0  0  0  0
  6 16  1  1  0  0  0
  6  1  1  0  0  0  0
  8  2  1  0  0  0  0
 12  4  1  0  0  0  0
 13  4  1  0  0  0  0
 14  5  1  0  0  0  0
 15  5  1  0  0  0  0
 17 22  2  0  0  0  0
 17 18  1  0  0  0  0
 18 23  1  0  0  0  0
 18 19  2  0  0  0  0
 19 20  1  0  0  0  0
 19 24  1  0  0  0  0
 21 25  1  0  0  0  0
 21 20  2  0  0  0  0
 22 21  1  0  0  0  0
 26 28  1  0  0  0  0
 27 26  2  0  0  0  0
 28  6  1  0  0  0  0
 28 29  1  0  0  0  0
 30 39  1  0  0  0  0
 30 31  1  0  0  0  0
 31 26  1  0  0  0  0
 32 31  2  0  0  0  0
 32 33  1  0  0  0  0
 34 32  1  0  0  0  0
 35 34  1  0  0  0  0
 36 37  1  0  0  0  0
 36 34  2  0  0  0  0
 37 30  2  0  0  0  0
 39 38  1  0  0  0  0
 40 39  2  0  0  0  0
 41 39  2  0  0  0  0
M  END
>  <minimizedAffinity>
-5.32684898

$$$$

 OpenBabel03272509323D

 41 43  0  0  1  0  0  0  0  0999 V2000
   39.1940   23.8030   36.1900 C   0  0  2  0  0  0  0  0  0  0  0  0
   39.5610   23.0150   37.4120 C   0  0  0  0  0  0  0  0  0  0  0  0
   38.4490   22.9770   38.4430 C   0  0  0  0  0  0  0  0  0  0  0  0
   38.0580   24.4010   38.8410 C   0  0  0  0  0  0  0  0  0  0  0  0
   38.0630   25.3790   37.7000 C   0  0  0  0  0  0  0  0  0  0  0  0
   37.9450   24.5900   36.3850 C   0  0  1  0  0  0  0  0  0  0  0  0
   39.9990   24.5360   35.8730 H   0  0  0  0  0  0  0  0  0  0  0  0
   40.3650   23.6520   37.9220 H   0  0  0  0  0  0  0  0  0  0  0  0
   40.0250   22.0610   37.2650 H   0  0  0  0  0  0  0  0  0  0  0  0
   37.5370   22.4820   38.0900 H   0  0  0  0  0  0  0  0  0  0  0  0
   38.8620   22.4890   39.3340 H   0  0  0  0  0  0  0  0  0  0  0  0
   38.7620   24.7860   39.6100 H   0  0  0  0  0  0  0  0  0  0  0  0
   37.0350   24.3370   39.2590 H   0  0  0  0  0  0  0  0  0  0  0  0
   38.9190   26.0580   37.6690 H   0  0  0  0  0  0  0  0  0  0  0  0
   37.1480   26.0070   37.7250 H   0  0  0  0  0  0  0  0  0  0  0  0
   37.1120   23.9800   36.6100 H   0  0  0  0  0  0  0  0  0  0  0  0
   39.0200   22.9090   35.0160 C   0  0  0  0  0  0  0  0  0  0  0  0
   40.1990   22.5680   34.3220 C   0  0  0  0  0  0  0  0  0  0  0  0
   40.0480   21.7280   33.2180 C   0  0  0  0  0  0  0  0  0  0  0  0
   38.7850   21.2880   32.8760 N   0  0  0  0  0  0  0  0  0  0  0  0
   37.6680   21.6520   33.5890 C   0  0  0  0  0  0  0  0  0  0  0  0
   37.8120   22.4620   34.6520 N   0  0  0  0  0  0  0  0  0  0  0  0
   41.2230   22.8390   34.5070 H   0  0  0  0  0  0  0  0  0  0  0  0
   40.8590   21.3840   32.5890 H   0  0  0  0  0  0  0  0  0  0  0  0
   36.7550   21.2350   33.2130 H   0  0  0  0  0  0  0  0  0  0  0  0
   37.9090   26.7050   34.9710 C   0  0  0  0  0  0  0  0  0  0  0  0
   38.6570   27.5180   35.5800 O   0  0  0  0  0  0  0  0  0  0  0  0
   37.5430   25.3660   35.2620 N   0  0  0  0  0  0  0  0  0  0  0  0
   36.8950   25.0030   34.4980 H   0  0  0  0  0  0  0  0  0  0  0  0
   37.8970   27.3430   32.5120 C   0  0  0  0  0  0  0  0  0  0  0  0
   37.4380   27.4560   33.8030 C   0  0  0  0  0  0  0  0  0  0  0  0
   36.4200   28.3510   34.1010 C   0  0  0  0  0  0  0  0  0  0  0  0
   36.0130   28.4950   35.0930 H   0  0  0  0  0  0  0  0  0  0  0  0
   35.8760   29.1230   33.0990 C   0  0  0  0  0  0  0  0  0  0  0  0
   35.0730   29.8450   33.2520 H   0  0  0  0  0  0  0  0  0  0  0  0
   36.3150   29.0340   31.7960 C   0  0  0  0  0  3  0  0  0  0  0  0
   37.3330   28.1320   31.5180 C   0  0  0  0  0  3  0  0  0  0  0  0
   40.0650   26.1410   33.2800 H   0  0  0  0  0  0  0  0  0  0  0  0
   39.1860   26.1860   32.2430 S   0  0  0  0  0  0  0  0  0  0  0  0
   38.5690   24.8100   32.1410 O   0  0  0  0  0  0  0  0  0  0  0  0
   39.8580   26.4400   30.9120 O   0  0  0  0  0  0  0  0  0  0  0  0
  1  7  1  6  0  0  0
  1  6  1  0  0  0  0
  1  2  1  0  0  0  0
  2  8  1  0  0  0  0
  2  3  1  0  0  0  0
  3  4  1  0  0  0  0
  3 11  1  0  0  0  0
  4 13  1  0  0  0  0
  4 12  1  0  0  0  0
  5 15  1  0  0  0  0
  5  4  1  0  0  0  0
  6 16  1  1  0  0  0
  6  5  1  0  0  0  0
  9  2  1  0  0  0  0
 10  3  1  0  0  0  0
 14  5  1  0  0  0  0
 17  1  1  0  0  0  0
 18 23  1  0  0  0  0
 18 17  2  0  0  0  0
 19 18  1  0  0  0  0
 20 19  2  0  0  0  0
 20 21  1  0  0  0  0
 21 22  2  0  0  0  0
 22 17  1  0  0  0  0
 24 19  1  0  0  0  0
 25 21  1  0  0  0  0
 26 28  1  0  0  0  0
 26 27  2  0  0  0  0
 28  6  1  0  0  0  0
 29 28  1  0  0  0  0
 30 31  1  0  0  0  0
 31 32  2  0  0  0  0
 31 26  1  0  0  0  0
 32 33  1  0  0  0  0
 34 35  1  0  0  0  0
 34 32  1  0  0  0  0
 36 34  2  0  0  0  0
 37 36  1  0  0  0  0
 37 30  2  0  0  0  0
 39 30  1  0  0  0  0
 39 38  1  0  0  0  0
 40 39  2  0  0  0  0
 41 39  2  0  0  0  0
M  END
>  <minimizedAffinity>
-5.31790829

$$$$

 OpenBabel03272509323D

 41 43  0  0  1  0  0  0  0  0999 V2000
   36.8330   22.5290   31.3900 C   0  0  2  0  0  0  0  0  0  0  0  0
   35.5430   21.8240   31.0930 C   0  0  0  0  0  0  0  0  0  0  0  0
   34.8980   21.2320   32.3320 C   0  0  0  0  0  0  0  0  0  0  0  0
   35.8700   20.2700   33.0160 C   0  0  0  0  0  0  0  0  0  0  0  0
   37.3010   20.7280   32.9960 C   0  0  0  0  0  0  0  0  0  0  0  0
   37.3200   22.2500   32.7690 C   0  0  1  0  0  0  0  0  0  0  0  0
   37.6700   22.2450   30.6800 H   0  0  0  0  0  0  0  0  0  0  0  0
   35.8630   20.8980   30.4990 H   0  0  0  0  0  0  0  0  0  0  0  0
   34.8410   22.3240   30.4570 H   0  0  0  0  0  0  0  0  0  0  0  0
   34.6090   21.9800   33.0790 H   0  0  0  0  0  0  0  0  0  0  0  0
   34.0400   20.6420   31.9880 H   0  0  0  0  0  0  0  0  0  0  0  0
   35.8330   19.2780   32.5180 H   0  0  0  0  0  0  0  0  0  0  0  0
   35.5320   20.1830   34.0660 H   0  0  0  0  0  0  0  0  0  0  0  0
   37.9450   20.2200   32.2730 H   0  0  0  0  0  0  0  0  0  0  0  0
   37.7630   20.5950   33.9970 H   0  0  0  0  0  0  0  0  0  0  0  0
   36.6330   22.5550   33.5120 H   0  0  0  0  0  0  0  0  0  0  0  0
   36.6850   23.9980   31.2210 C   0  0  0  0  0  0  0  0  0  0  0  0
   35.3630   24.4870   31.2220 C   0  0  0  0  0  0  0  0  0  0  0  0
   35.2120   25.8660   31.0660 C   0  0  0  0  0  0  0  0  0  0  0  0
   36.3360   26.6530   30.9240 N   0  0  0  0  0  0  0  0  0  0  0  0
   37.6050   26.1230   30.9310 C   0  0  0  0  0  0  0  0  0  0  0  0
   37.7510   24.7950   31.0800 N   0  0  0  0  0  0  0  0  0  0  0  0
   34.4270   23.9730   31.3380 H   0  0  0  0  0  0  0  0  0  0  0  0
   34.2620   26.3850   31.0440 H   0  0  0  0  0  0  0  0  0  0  0  0
   38.3830   26.8500   30.8140 H   0  0  0  0  0  0  0  0  0  0  0  0
   38.8320   23.6090   34.2980 C   0  0  0  0  0  0  0  0  0  0  0  0
   38.1300   23.8600   35.3140 O   0  0  0  0  0  0  0  0  0  0  0  0
   38.5460   22.8850   33.1130 N   0  0  0  0  0  0  0  0  0  0  0  0
   39.4060   22.8820   32.4840 H   0  0  0  0  0  0  0  0  0  0  0  0
   41.2040   23.6980   35.2030 C   0  0  0  0  0  0  0  0  0  0  0  0
   40.1160   24.2600   34.5790 C   0  0  0  0  0  0  0  0  0  0  0  0
   40.1720   25.5750   34.1390 C   0  0  0  0  0  0  0  0  0  0  0  0
   39.3540   26.0820   33.6440 H   0  0  0  0  0  0  0  0  0  0  0  0
   41.3190   26.3100   34.3320 C   0  0  0  0  0  0  0  0  0  0  0  0
   41.4420   27.3460   34.0120 H   0  0  0  0  0  0  0  0  0  0  0  0
   42.4260   25.7760   34.9550 C   0  0  0  0  0  3  0  0  0  0  0  0
   42.3510   24.4590   35.3870 C   0  0  0  0  0  3  0  0  0  0  0  0
   40.2250   21.3150   34.8940 H   0  0  0  0  0  0  0  0  0  0  0  0
   41.0290   22.0320   35.7220 S   0  0  0  0  0  0  0  0  0  0  0  0
   42.3910   21.3800   35.6750 O   0  0  0  0  0  0  0  0  0  0  0  0
   40.5890   21.9710   37.1680 O   0  0  0  0  0  0  0  0  0  0  0  0
  1  7  1  6  0  0  0
  1  6  1  0  0  0  0
  2  1  1  0  0  0  0
  2  3  1  0  0  0  0
  3  4  1  0  0  0  0
  3 10  1  0  0  0  0
  4 13  1  0  0  0  0
  5  4  1  0  0  0  0
  5 15  1  0  0  0  0
  6  5  1  0  0  0  0
  6 28  1  0  0  0  0
  6 16  1  1  0  0  0
  8  2  1  0  0  0  0
  9  2  1  0  0  0  0
 11  3  1  0  0  0  0
 12  4  1  0  0  0  0
 14  5  1  0  0  0  0
 17 18  1  0  0  0  0
 17  1  1  0  0  0  0
 18 23  1  0  0  0  0
 19 18  2  0  0  0  0
 20 21  2  0  0  0  0
 20 19  1  0  0  0  0
 21 22  1  0  0  0  0
 22 17  2  0  0  0  0
 24 19  1  0  0  0  0
 25 21  1  0  0  0  0
 26 31  1  0  0  0  0
 26 27  2  0  0  0  0
 28 26  1  0  0  0  0
 29 28  1  0  0  0  0
 30 37  1  0  0  0  0
 30 39  1  0  0  0  0
 31 30  2  0  0  0  0
 32 34  2  0  0  0  0
 32 31  1  0  0  0  0
 33 32  1  0  0  0  0
 34 36  1  0  0  0  0
 35 34  1  0  0  0  0
 36 37  2  0  0  0  0
 38 39  1  0  0  0  0
 39 41  2  0  0  0  0
 40 39  2  0  0  0  0
M  END
>  <minimizedAffinity>
-5.19837713

$$$$

 OpenBabel03272509323D

 41 43  0  0  1  0  0  0  0  0999 V2000
   41.1560   23.6620   34.7320 C   0  0  2  0  0  0  0  0  0  0  0  0
   42.2660   22.9630   35.4610 C   0  0  0  0  0  0  0  0  0  0  0  0
   43.0220   23.8840   36.4000 C   0  0  0  0  0  0  0  0  0  0  0  0
   43.5810   25.0770   35.6230 C   0  0  0  0  0  0  0  0  0  0  0  0
   42.6600   25.5980   34.5560 C   0  0  0  0  0  0  0  0  0  0  0  0
   41.2290   25.1400   34.8850 C   0  0  1  0  0  0  0  0  0  0  0  0
   41.1480   23.4450   33.6190 H   0  0  0  0  0  0  0  0  0  0  0  0
   43.0360   22.7380   34.6440 H   0  0  0  0  0  0  0  0  0  0  0  0
   42.0480   22.0100   35.8980 H   0  0  0  0  0  0  0  0  0  0  0  0
   42.4060   24.2900   37.2100 H   0  0  0  0  0  0  0  0  0  0  0  0
   43.8760   23.3120   36.7810 H   0  0  0  0  0  0  0  0  0  0  0  0
   44.5340   24.7930   35.1280 H   0  0  0  0  0  0  0  0  0  0  0  0
   43.7610   25.8750   36.3670 H   0  0  0  0  0  0  0  0  0  0  0  0
   42.9290   25.3250   33.5310 H   0  0  0  0  0  0  0  0  0  0  0  0
   42.6100   26.7060   34.5960 H   0  0  0  0  0  0  0  0  0  0  0  0
   41.1650   25.4480   35.8940 H   0  0  0  0  0  0  0  0  0  0  0  0
   39.8300   23.1940   35.2110 C   0  0  0  0  0  0  0  0  0  0  0  0
   39.0850   22.4170   34.3010 C   0  0  0  0  0  0  0  0  0  0  0  0
   37.8380   21.9700   34.7410 C   0  0  0  0  0  0  0  0  0  0  0  0
   37.4150   22.3050   36.0110 N   0  0  0  0  0  0  0  0  0  0  0  0
   38.1840   23.0660   36.8600 C   0  0  0  0  0  0  0  0  0  0  0  0
   39.3840   23.4980   36.4360 N   0  0  0  0  0  0  0  0  0  0  0  0
   39.3210   22.0880   33.3050 H   0  0  0  0  0  0  0  0  0  0  0  0
   37.1560   21.3690   34.1550 H   0  0  0  0  0  0  0  0  0  0  0  0
   37.7320   23.2460   37.8150 H   0  0  0  0  0  0  0  0  0  0  0  0
   39.1740   26.6390   34.7990 C   0  0  0  0  0  0  0  0  0  0  0  0
   38.9050   26.8960   36.0040 O   0  0  0  0  0  0  0  0  0  0  0  0
   40.2060   25.8650   34.2110 N   0  0  0  0  0  0  0  0  0  0  0  0
   40.1090   25.8940   33.1500 H   0  0  0  0  0  0  0  0  0  0  0  0
   38.0460   27.4590   32.6750 C   0  0  0  0  0  0  0  0  0  0  0  0
   38.1350   27.3450   34.0420 C   0  0  0  0  0  0  0  0  0  0  0  0
   37.1710   27.9310   34.8500 C   0  0  0  0  0  0  0  0  0  0  0  0
   37.1790   27.8850   35.9310 H   0  0  0  0  0  0  0  0  0  0  0  0
   36.1300   28.6250   34.2760 C   0  0  0  0  0  0  0  0  0  0  0  0
   35.3330   29.1090   34.8420 H   0  0  0  0  0  0  0  0  0  0  0  0
   36.0140   28.7570   32.9100 C   0  0  0  0  0  3  0  0  0  0  0  0
   36.9880   28.1640   32.1180 C   0  0  0  0  0  3  0  0  0  0  0  0
   40.5250   26.7540   32.3650 H   0  0  0  0  0  0  0  0  0  0  0  0
   39.3160   26.6840   31.7460 S   0  0  0  0  0  0  0  0  0  0  0  0
   38.9780   25.2170   31.6210 O   0  0  0  0  0  0  0  0  0  0  0  0
   39.3450   27.2260   30.3340 O   0  0  0  0  0  0  0  0  0  0  0  0
  1  7  1  6  0  0  0
  1  6  1  0  0  0  0
  1 17  1  0  0  0  0
  1  2  1  0  0  0  0
  2  9  1  0  0  0  0
  2  3  1  0  0  0  0
  3 11  1  0  0  0  0
  3 10  1  0  0  0  0
  4 13  1  0  0  0  0
  4  3  1  0  0  0  0
  5 15  1  0  0  0  0
  5  6  1  0  0  0  0
  5  4  1  0  0  0  0
  6 16  1  1  0  0  0
  8  2  1  0  0  0  0
 12  4  1  0  0  0  0
 14  5  1  0  0  0  0
 17 22  1  0  0  0  0
 18 19  1  0  0  0  0
 18 17  2  0  0  0  0
 19 20  2  0  0  0  0
 20 21  1  0  0  0  0
 21 25  1  0  0  0  0
 22 21  2  0  0  0  0
 23 18  1  0  0  0  0
 24 19  1  0  0  0  0
 26 27  2  0  0  0  0
 28 26  1  0  0  0  0
 28  6  1  0  0  0  0
 29 28  1  0  0  0  0
 30 31  1  0  0  0  0
 31 26  1  0  0  0  0
 31 32  2  0  0  0  0
 32 33  1  0  0  0  0
 34 35  1  0  0  0  0
 34 32  1  0  0  0  0
 36 34  2  0  0  0  0
 37 30  2  0  0  0  0
 37 36  1  0  0  0  0
 39 38  1  0  0  0  0
 39 30  1  0  0  0  0
 40 39  2  0  0  0  0
 41 39  2  0  0  0  0
M  END
>  <minimizedAffinity>
-5.13914728

$$$$
