
 OpenBabel03272503053D

 35 37  0  0  0  0  0  0  0  0999 V2000
   38.0140   30.0600   47.2200 F   0  0  0  0  0  0  0  0  0  0  0  0
   38.4540   31.2750   47.6060 C   0  0  0  0  0  0  0  0  0  0  0  0
   38.1290   31.7810   48.8450 C   0  0  0  0  0  0  0  0  0  0  0  0
   38.6130   33.0180   49.1690 C   0  0  0  0  0  0  0  0  0  0  0  0
   39.3980   33.7620   48.3160 C   0  0  0  0  0  0  0  0  0  0  0  0
   39.7190   33.2430   47.0700 C   0  0  0  0  0  0  0  0  0  0  0  0
   39.2390   31.9960   46.7300 C   0  0  0  0  0  0  0  0  0  0  0  0
   38.3500   33.4100   50.1540 H   0  0  0  0  0  0  0  0  0  0  0  0
   39.7690   34.7260   48.5790 H   0  0  0  0  0  0  0  0  0  0  0  0
   40.3330   33.7710   46.3460 H   0  0  0  0  0  0  0  0  0  0  0  0
   36.9450   29.6230   51.7260 C   0  0  0  0  0  0  0  0  0  0  0  0
   37.7610   30.4170   50.9060 C   0  0  0  0  0  0  0  0  0  0  0  0
   37.2900   30.9470   49.7150 C   0  0  0  0  0  0  0  0  0  0  0  0
   35.9930   30.6620   49.3710 N   0  0  0  0  0  0  0  0  0  0  0  0
   35.2260   29.8990   50.1730 C   0  0  0  0  0  0  0  0  0  0  0  0
   35.6800   29.3960   51.3070 N   0  0  0  0  0  0  0  0  0  0  0  0
   37.4800   29.2990   52.6100 H   0  0  0  0  0  0  0  0  0  0  0  0
   38.8030   30.6780   51.1280 H   0  0  0  0  0  0  0  0  0  0  0  0
   34.1930   29.6770   49.8890 H   0  0  0  0  0  0  0  0  0  0  0  0
   38.6130   31.7680   44.4050 C   0  0  0  0  0  0  0  0  0  0  0  0
   37.6460   32.5130   44.7850 O   0  0  0  0  0  0  0  0  0  0  0  0
   39.5580   31.4370   45.4420 N   0  0  0  0  0  0  0  0  0  0  0  0
   40.4170   30.8720   45.4240 H   0  0  0  0  0  0  0  0  0  0  0  0
   38.1420   30.1460   42.6430 C   0  0  0  0  0  0  0  0  0  0  0  0
   38.9470   31.1830   43.1110 C   0  0  0  0  0  0  0  0  0  0  0  0
   40.0370   31.6980   42.4380 C   0  0  0  0  0  0  0  0  0  0  0  0
   40.6110   32.5060   42.8740 H   0  0  0  0  0  0  0  0  0  0  0  0
   40.3430   31.1260   41.1960 C   0  0  0  0  0  0  0  0  0  0  0  0
   41.2010   31.5120   40.6400 H   0  0  0  0  0  0  0  0  0  0  0  0
   39.5540   30.0940   40.7140 C   0  0  0  0  0  3  0  0  0  0  0  0
   38.4650   29.5880   41.3990 C   0  0  0  0  0  3  0  0  0  0  0  0
   37.1520   29.6670   44.9070 H   0  0  0  0  0  0  0  0  0  0  0  0
   36.7830   29.5790   43.5930 S   0  0  0  0  0  0  0  0  0  0  0  0
   35.5620   30.4030   43.3050 O   0  0  0  0  0  0  0  0  0  0  0  0
   36.5670   28.1230   43.2410 O   0  0  0  0  0  0  0  0  0  0  0  0
  1  2  1  0  0  0  0
  2  3  1  0  0  0  0
  3  4  2  0  0  0  0
  3 13  1  0  0  0  0
  4  8  1  0  0  0  0
  5  9  1  0  0  0  0
  5  4  1  0  0  0  0
  6  5  2  0  0  0  0
  7  6  1  0  0  0  0
  7  2  2  0  0  0  0
 10  6  1  0  0  0  0
 11 17  1  0  0  0  0
 12 18  1  0  0  0  0
 12 11  2  0  0  0  0
 13 12  1  0  0  0  0
 14 13  2  0  0  0  0
 14 15  1  0  0  0  0
 15 16  2  0  0  0  0
 16 11  1  0  0  0  0
 19 15  1  0  0  0  0
 20 21  2  0  0  0  0
 20 22  1  0  0  0  0
 22  7  1  0  0  0  0
 23 22  1  0  0  0  0
 24 25  1  0  0  0  0
 24 33  1  0  0  0  0
 25 20  1  0  0  0  0
 26 27  1  0  0  0  0
 26 25  2  0  0  0  0
 28 26  1  0  0  0  0
 29 28  1  0  0  0  0
 30 28  2  0  0  0  0
 30 31  1  0  0  0  0
 31 24  2  0  0  0  0
 33 32  1  0  0  0  0
 34 33  2  0  0  0  0
 35 33  2  0  0  0  0
M  END
>  <minimizedAffinity>
-6.17677021

>  <minimizedRMSD>
0.852174044

$$$$
