
 OpenBabel03272503243D

 35 37  0  0  1  0  0  0  0  0999 V2000
   37.0070   30.3810   48.6780 N   0  0  0  0  0  0  0  0  0  0  0  0
   37.3950   31.6440   48.1660 C   0  0  1  0  0  0  0  0  0  0  0  0
   38.2840   32.2410   49.2500 C   0  0  0  0  0  0  0  0  0  0  0  0
   38.3100   31.1530   50.3520 C   0  0  0  0  0  0  0  0  0  0  0  0
   38.0990   29.9250   49.4960 C   0  0  0  0  0  0  0  0  0  0  0  0
   36.4590   32.3550   48.2440 H   0  0  0  0  0  0  0  0  0  0  0  0
   37.9580   33.2060   49.6260 H   0  0  0  0  0  0  0  0  0  0  0  0
   39.3090   32.2620   48.8150 H   0  0  0  0  0  0  0  0  0  0  0  0
   39.2810   31.1530   50.8730 H   0  0  0  0  0  0  0  0  0  0  0  0
   37.4290   31.3020   50.9740 H   0  0  0  0  0  0  0  0  0  0  0  0
   37.8070   29.0890   50.1580 H   0  0  0  0  0  0  0  0  0  0  0  0
   38.9890   29.6890   48.8800 H   0  0  0  0  0  0  0  0  0  0  0  0
   35.7710   29.7120   48.4390 C   0  0  0  0  0  0  0  0  0  0  0  0
   34.9190   30.2280   47.4470 C   0  0  0  0  0  0  0  0  0  0  0  0
   33.7150   29.5630   47.1890 C   0  0  0  0  0  0  0  0  0  0  0  0
   33.4500   28.4440   47.9310 N   0  0  0  0  0  0  0  0  0  0  0  0
   34.2940   27.9750   48.8780 C   0  0  0  0  0  0  0  0  0  0  0  0
   35.4680   28.6190   49.1330 N   0  0  0  0  0  0  0  0  0  0  0  0
   35.1400   31.1010   46.8780 H   0  0  0  0  0  0  0  0  0  0  0  0
   33.0380   29.9350   46.4320 H   0  0  0  0  0  0  0  0  0  0  0  0
   33.9870   27.0840   49.4050 H   0  0  0  0  0  0  0  0  0  0  0  0
   37.8580   31.7340   46.8160 C   0  0  0  0  0  0  0  0  0  0  0  0
   37.2010   32.4630   46.0700 O   0  0  0  0  0  0  0  0  0  0  0  0
   38.5460   30.5630   44.7280 C   0  0  0  0  0  0  0  0  0  0  0  0
   38.8540   31.2760   45.8590 C   0  0  0  0  0  0  0  0  0  0  0  0
   40.1850   31.5760   46.0330 C   0  0  0  0  0  0  0  0  0  0  0  0
   40.6380   32.1330   46.8260 H   0  0  0  0  0  0  0  0  0  0  0  0
   41.2250   31.2370   45.1970 C   0  0  0  0  0  0  0  0  0  0  0  0
   42.2790   31.4370   45.2710 H   0  0  0  0  0  0  0  0  0  0  0  0
   40.8860   30.5210   44.0700 C   0  0  0  0  0  3  0  0  0  0  0  0
   39.5770   30.1890   43.8360 C   0  0  0  0  0  3  0  0  0  0  0  0
   36.1470   30.0080   45.4000 H   0  0  0  0  0  0  0  0  0  0  0  0
   36.9310   30.0720   44.3010 S   0  0  0  0  0  0  0  0  0  0  0  0
   37.0030   28.8060   43.4990 O   0  0  0  0  0  0  0  0  0  0  0  0
   36.2940   31.1190   43.3990 O   0  0  0  0  0  0  0  0  0  0  0  0
  1  5  1  0  0  0  0
  2  6  1  1  0  0  0
  2  1  1  0  0  0  0
  2  3  1  0  0  0  0
  3  7  1  0  0  0  0
  3  4  1  0  0  0  0
  4  9  1  0  0  0  0
  4 10  1  0  0  0  0
  5 11  1  0  0  0  0
  5  4  1  0  0  0  0
  8  3  1  0  0  0  0
 12  5  1  0  0  0  0
 13  1  1  0  0  0  0
 13 18  1  0  0  0  0
 14 13  2  0  0  0  0
 15 14  1  0  0  0  0
 15 16  2  0  0  0  0
 16 17  1  0  0  0  0
 17 18  2  0  0  0  0
 17 21  1  0  0  0  0
 19 14  1  0  0  0  0
 20 15  1  0  0  0  0
 22  2  1  0  0  0  0
 23 22  2  0  0  0  0
 24 25  1  0  0  0  0
 25 26  2  0  0  0  0
 25 22  1  0  0  0  0
 26 27  1  0  0  0  0
 28 29  1  0  0  0  0
 28 26  1  0  0  0  0
 30 28  2  0  0  0  0
 31 30  1  0  0  0  0
 31 24  2  0  0  0  0
 33 24  1  0  0  0  0
 33 32  1  0  0  0  0
 34 33  2  0  0  0  0
 35 33  2  0  0  0  0
M  END
>  <minimizedAffinity>
-4.50391388

>  <minimizedRMSD>
1.92575276

$$$$
