
 OpenBabel03272503043D

 35 37  0  0  0  0  0  0  0  0999 V2000
   38.1250   30.3220   46.4970 F   0  0  0  0  0  0  0  0  0  0  0  0
   38.6320   31.4840   46.9590 C   0  0  0  0  0  0  0  0  0  0  0  0
   38.3630   31.9100   48.2410 C   0  0  0  0  0  0  0  0  0  0  0  0
   38.9130   33.0960   48.6410 C   0  0  0  0  0  0  0  0  0  0  0  0
   39.7100   33.8650   47.8230 C   0  0  0  0  0  0  0  0  0  0  0  0
   39.9750   33.4260   46.5340 C   0  0  0  0  0  0  0  0  0  0  0  0
   39.4280   32.2310   46.1160 C   0  0  0  0  0  0  0  0  0  0  0  0
   38.6930   33.4250   49.6600 H   0  0  0  0  0  0  0  0  0  0  0  0
   40.1330   34.7880   48.1460 H   0  0  0  0  0  0  0  0  0  0  0  0
   40.5950   33.9790   45.8340 H   0  0  0  0  0  0  0  0  0  0  0  0
   37.1810   29.4830   50.9000 C   0  0  0  0  0  0  0  0  0  0  0  0
   38.0130   30.2960   50.1160 C   0  0  0  0  0  0  0  0  0  0  0  0
   37.5070   31.0520   49.0710 C   0  0  0  0  0  0  0  0  0  0  0  0
   36.1580   30.9710   48.8340 N   0  0  0  0  0  0  0  0  0  0  0  0
   35.3770   30.1840   49.5990 C   0  0  0  0  0  0  0  0  0  0  0  0
   35.8650   29.4670   50.5940 N   0  0  0  0  0  0  0  0  0  0  0  0
   37.7490   28.9690   51.6660 H   0  0  0  0  0  0  0  0  0  0  0  0
   39.0960   30.4010   50.2590 H   0  0  0  0  0  0  0  0  0  0  0  0
   34.3020   30.1260   49.4010 H   0  0  0  0  0  0  0  0  0  0  0  0
   38.6130   31.9940   43.8520 C   0  0  0  0  0  0  0  0  0  0  0  0
   37.6020   32.5970   44.3510 O   0  0  0  0  0  0  0  0  0  0  0  0
   39.6880   31.7570   44.7830 N   0  0  0  0  0  0  0  0  0  0  0  0
   40.6050   31.3070   44.6620 H   0  0  0  0  0  0  0  0  0  0  0  0
   38.7240   30.1310   42.2790 C   0  0  0  0  0  0  0  0  0  0  0  0
   38.8910   31.4950   42.5100 C   0  0  0  0  0  0  0  0  0  0  0  0
   39.2980   32.4100   41.5590 C   0  0  0  0  0  0  0  0  0  0  0  0
   39.4020   33.4550   41.8220 H   0  0  0  0  0  0  0  0  0  0  0  0
   39.5580   31.9140   40.2740 C   0  0  0  0  0  0  0  0  0  0  0  0
   39.8830   32.6150   39.5010 H   0  0  0  0  0  0  0  0  0  0  0  0
   39.3970   30.5600   40.0260 C   0  0  0  0  0  3  0  0  0  0  0  0
   38.9890   29.6550   40.9890 C   0  0  0  0  0  3  0  0  0  0  0  0
   38.5000   29.6980   44.7490 H   0  0  0  0  0  0  0  0  0  0  0  0
   38.2000   29.0700   43.5720 S   0  0  0  0  0  0  0  0  0  0  0  0
   36.7320   28.7850   43.4550 O   0  0  0  0  0  0  0  0  0  0  0  0
   39.0220   27.8030   43.4700 O   0  0  0  0  0  0  0  0  0  0  0  0
  1  2  1  0  0  0  0
  2  3  1  0  0  0  0
  3  4  2  0  0  0  0
  3 13  1  0  0  0  0
  4  8  1  0  0  0  0
  5  9  1  0  0  0  0
  5  4  1  0  0  0  0
  6  5  2  0  0  0  0
  7  6  1  0  0  0  0
  7  2  2  0  0  0  0
 10  6  1  0  0  0  0
 11 17  1  0  0  0  0
 12 18  1  0  0  0  0
 12 11  2  0  0  0  0
 13 12  1  0  0  0  0
 14 13  2  0  0  0  0
 14 15  1  0  0  0  0
 15 16  2  0  0  0  0
 16 11  1  0  0  0  0
 19 15  1  0  0  0  0
 20 21  2  0  0  0  0
 20 22  1  0  0  0  0
 22  7  1  0  0  0  0
 23 22  1  0  0  0  0
 24 25  1  0  0  0  0
 24 33  1  0  0  0  0
 25 20  1  0  0  0  0
 26 27  1  0  0  0  0
 26 25  2  0  0  0  0
 28 26  1  0  0  0  0
 29 28  1  0  0  0  0
 30 28  2  0  0  0  0
 30 31  1  0  0  0  0
 31 24  2  0  0  0  0
 33 32  1  0  0  0  0
 34 33  2  0  0  0  0
 35 33  2  0  0  0  0
M  END
>  <minimizedAffinity>
-5.81345749

>  <minimizedRMSD>
1.05368626

$$$$
