
 OpenBabel03272509303D

 41 43  0  0  1  0  0  0  0  0999 V2000
   35.8460   30.6480   48.2360 C   0  0  2  0  0  0  0  0  0  0  0  0
   36.6200   30.9330   49.4890 C   0  0  0  0  0  0  0  0  0  0  0  0
   36.7170   29.7290   50.4070 C   0  0  0  0  0  0  0  0  0  0  0  0
   35.3150   29.2310   50.7630 C   0  0  0  0  0  0  0  0  0  0  0  0
   34.3340   29.2990   49.6280 C   0  0  0  0  0  0  0  0  0  0  0  0
   35.1230   29.3490   48.3080 C   0  0  1  0  0  0  0  0  0  0  0  0
   35.0730   31.4430   47.9990 H   0  0  0  0  0  0  0  0  0  0  0  0
   35.9460   31.6510   50.0740 H   0  0  0  0  0  0  0  0  0  0  0  0
   37.5490   31.4560   49.3880 H   0  0  0  0  0  0  0  0  0  0  0  0
   37.2550   28.8820   49.9660 H   0  0  0  0  0  0  0  0  0  0  0  0
   37.1880   30.0770   51.3340 H   0  0  0  0  0  0  0  0  0  0  0  0
   34.9000   29.8370   51.5970 H   0  0  0  0  0  0  0  0  0  0  0  0
   35.4320   28.1770   51.0790 H   0  0  0  0  0  0  0  0  0  0  0  0
   33.6130   30.1200   49.6800 H   0  0  0  0  0  0  0  0  0  0  0  0
   33.7510   28.3560   49.5640 H   0  0  0  0  0  0  0  0  0  0  0  0
   35.7730   28.5290   48.4510 H   0  0  0  0  0  0  0  0  0  0  0  0
   36.7420   30.6340   47.0510 C   0  0  0  0  0  0  0  0  0  0  0  0
   38.1240   30.6040   47.3260 C   0  0  0  0  0  0  0  0  0  0  0  0
   38.9770   30.5890   46.2200 C   0  0  0  0  0  0  0  0  0  0  0  0
   38.4320   30.6040   44.9520 N   0  0  0  0  0  0  0  0  0  0  0  0
   37.0730   30.6320   44.7410 C   0  0  0  0  0  0  0  0  0  0  0  0
   36.2520   30.6480   45.8060 N   0  0  0  0  0  0  0  0  0  0  0  0
   38.6520   30.5770   48.2620 H   0  0  0  0  0  0  0  0  0  0  0  0
   40.0570   30.5690   46.2740 H   0  0  0  0  0  0  0  0  0  0  0  0
   36.7920   30.6380   43.7070 H   0  0  0  0  0  0  0  0  0  0  0  0
   33.3490   29.8030   46.5410 C   0  0  0  0  0  0  0  0  0  0  0  0
   32.8850   30.9400   46.8270 O   0  0  0  0  0  0  0  0  0  0  0  0
   34.3620   29.0210   47.1510 N   0  0  0  0  0  0  0  0  0  0  0  0
   34.4810   28.1110   46.6080 H   0  0  0  0  0  0  0  0  0  0  0  0
   32.9480   28.4390   44.4350 C   0  0  0  0  0  0  0  0  0  0  0  0
   32.5860   29.3920   45.3580 C   0  0  0  0  0  0  0  0  0  0  0  0
   31.3840   30.0710   45.2180 C   0  0  0  0  0  0  0  0  0  0  0  0
   31.0380   30.8340   45.9020 H   0  0  0  0  0  0  0  0  0  0  0  0
   30.5600   29.7850   44.1520 C   0  0  0  0  0  0  0  0  0  0  0  0
   29.5990   30.2710   43.9760 H   0  0  0  0  0  0  0  0  0  0  0  0
   30.8940   28.8370   43.2120 C   0  0  0  0  0  3  0  0  0  0  0  0
   32.1010   28.1670   43.3680 C   0  0  0  0  0  3  0  0  0  0  0  0
   35.1040   28.0780   45.8320 H   0  0  0  0  0  0  0  0  0  0  0  0
   34.4860   27.6420   44.7020 S   0  0  0  0  0  0  0  0  0  0  0  0
   34.2240   26.1660   44.8930 O   0  0  0  0  0  0  0  0  0  0  0  0
   35.3610   27.7550   43.4730 O   0  0  0  0  0  0  0  0  0  0  0  0
  1  7  1  6  0  0  0
  1  6  1  0  0  0  0
  1  2  1  0  0  0  0
  2  8  1  0  0  0  0
  2  3  1  0  0  0  0
  3  4  1  0  0  0  0
  3 11  1  0  0  0  0
  4 13  1  0  0  0  0
  4 12  1  0  0  0  0
  5 14  1  0  0  0  0
  5  4  1  0  0  0  0
  6 16  1  1  0  0  0
  6  5  1  0  0  0  0
  9  2  1  0  0  0  0
 10  3  1  0  0  0  0
 15  5  1  0  0  0  0
 17 18  1  0  0  0  0
 17  1  1  0  0  0  0
 18 23  1  0  0  0  0
 19 24  1  0  0  0  0
 19 18  2  0  0  0  0
 20 19  1  0  0  0  0
 21 20  2  0  0  0  0
 21 22  1  0  0  0  0
 22 17  2  0  0  0  0
 25 21  1  0  0  0  0
 26 27  2  0  0  0  0
 26 28  1  0  0  0  0
 28  6  1  0  0  0  0
 29 28  1  0  0  0  0
 30 39  1  0  0  0  0
 30 31  1  0  0  0  0
 31 26  1  0  0  0  0
 32 31  2  0  0  0  0
 32 33  1  0  0  0  0
 34 32  1  0  0  0  0
 35 34  1  0  0  0  0
 36 37  1  0  0  0  0
 36 34  2  0  0  0  0
 37 30  2  0  0  0  0
 39 40  2  0  0  0  0
 39 38  1  0  0  0  0
 41 39  2  0  0  0  0
M  END
>  <minimizedAffinity>
-4.5884943

>  <minimizedRMSD>
3.0135119

$$$$
