
 OpenBabel03272503243D

 35 37  0  0  1  0  0  0  0  0999 V2000
   37.2570   30.8010   47.8100 N   0  0  0  0  0  0  0  0  0  0  0  0
   37.9460   31.6020   46.8650 C   0  0  1  0  0  0  0  0  0  0  0  0
   38.7090   32.6180   47.7070 C   0  0  0  0  0  0  0  0  0  0  0  0
   38.3420   32.2450   49.1640 C   0  0  0  0  0  0  0  0  0  0  0  0
   38.0830   30.7660   48.9870 C   0  0  0  0  0  0  0  0  0  0  0  0
   37.1500   32.3040   46.3560 H   0  0  0  0  0  0  0  0  0  0  0  0
   38.4920   33.6560   47.4760 H   0  0  0  0  0  0  0  0  0  0  0  0
   39.7850   32.3560   47.5850 H   0  0  0  0  0  0  0  0  0  0  0  0
   39.1840   32.4560   49.8420 H   0  0  0  0  0  0  0  0  0  0  0  0
   37.4000   32.7400   49.3970 H   0  0  0  0  0  0  0  0  0  0  0  0
   37.5340   30.4030   49.8750 H   0  0  0  0  0  0  0  0  0  0  0  0
   39.0170   30.2000   48.8040 H   0  0  0  0  0  0  0  0  0  0  0  0
   35.9900   30.1750   47.6280 C   0  0  0  0  0  0  0  0  0  0  0  0
   35.3950   30.2400   46.3550 C   0  0  0  0  0  0  0  0  0  0  0  0
   34.1630   29.6070   46.1600 C   0  0  0  0  0  0  0  0  0  0  0  0
   33.6170   28.9620   47.2370 N   0  0  0  0  0  0  0  0  0  0  0  0
   34.2180   28.9180   48.4480 C   0  0  0  0  0  0  0  0  0  0  0  0
   35.4180   29.5340   48.6430 N   0  0  0  0  0  0  0  0  0  0  0  0
   35.8330   30.7480   45.5270 H   0  0  0  0  0  0  0  0  0  0  0  0
   33.6800   29.6380   45.1940 H   0  0  0  0  0  0  0  0  0  0  0  0
   33.7000   28.3820   49.2300 H   0  0  0  0  0  0  0  0  0  0  0  0
   38.6590   30.9640   45.8030 C   0  0  0  0  0  0  0  0  0  0  0  0
   39.8850   30.9260   45.9250 O   0  0  0  0  0  0  0  0  0  0  0  0
   37.9920   30.8820   43.4040 C   0  0  0  0  0  0  0  0  0  0  0  0
   38.5430   30.2960   44.5150 C   0  0  0  0  0  0  0  0  0  0  0  0
   39.0250   29.0200   44.3400 C   0  0  0  0  0  0  0  0  0  0  0  0
   39.5050   28.3910   45.0610 H   0  0  0  0  0  0  0  0  0  0  0  0
   39.0100   28.2820   43.1780 C   0  0  0  0  0  0  0  0  0  0  0  0
   39.3660   27.2880   42.9730 H   0  0  0  0  0  0  0  0  0  0  0  0
   38.4510   28.8960   42.0800 C   0  0  0  0  0  3  0  0  0  0  0  0
   37.9520   30.1690   42.1850 C   0  0  0  0  0  3  0  0  0  0  0  0
   37.7200   33.1830   44.4770 H   0  0  0  0  0  0  0  0  0  0  0  0
   37.3210   32.4890   43.3870 S   0  0  0  0  0  0  0  0  0  0  0  0
   35.8340   32.3940   43.2060 O   0  0  0  0  0  0  0  0  0  0  0  0
   37.8530   33.2600   42.1880 O   0  0  0  0  0  0  0  0  0  0  0  0
  1  5  1  0  0  0  0
  2  6  1  6  0  0  0
  2  3  1  0  0  0  0
  2  1  1  0  0  0  0
  3  4  1  0  0  0  0
  4 10  1  0  0  0  0
  4  9  1  0  0  0  0
  5  4  1  0  0  0  0
  5 11  1  0  0  0  0
  7  3  1  0  0  0  0
  8  3  1  0  0  0  0
 12  5  1  0  0  0  0
 13  1  1  0  0  0  0
 13 18  1  0  0  0  0
 14 13  2  0  0  0  0
 15 14  1  0  0  0  0
 15 16  2  0  0  0  0
 16 17  1  0  0  0  0
 17 18  2  0  0  0  0
 17 21  1  0  0  0  0
 19 14  1  0  0  0  0
 20 15  1  0  0  0  0
 22 23  2  0  0  0  0
 22  2  1  0  0  0  0
 24 25  1  0  0  0  0
 25 22  1  0  0  0  0
 26 25  2  0  0  0  0
 26 27  1  0  0  0  0
 28 26  1  0  0  0  0
 29 28  1  0  0  0  0
 30 31  1  0  0  0  0
 30 28  2  0  0  0  0
 31 24  2  0  0  0  0
 33 24  1  0  0  0  0
 33 32  1  0  0  0  0
 34 33  2  0  0  0  0
 35 33  2  0  0  0  0
M  END
>  <minimizedAffinity>
-4.82594395

>  <minimizedRMSD>
1.89960992

$$$$
