
 OpenBabel03272503253D

 35 37  0  0  1  0  0  0  0  0999 V2000
   38.6470   23.3330   36.1780 N   0  0  0  0  0  0  0  0  0  0  0  0
   38.0880   24.5980   36.4860 C   0  0  1  0  0  0  0  0  0  0  0  0
   38.0010   24.6180   38.0080 C   0  0  0  0  0  0  0  0  0  0  0  0
   38.5760   23.2460   38.4330 C   0  0  0  0  0  0  0  0  0  0  0  0
   39.5160   22.9980   37.2750 C   0  0  0  0  0  0  0  0  0  0  0  0
   36.9440   24.5510   36.2090 H   0  0  0  0  0  0  0  0  0  0  0  0
   37.0050   24.7930   38.4050 H   0  0  0  0  0  0  0  0  0  0  0  0
   38.7450   25.3790   38.3370 H   0  0  0  0  0  0  0  0  0  0  0  0
   39.0980   23.3270   39.4000 H   0  0  0  0  0  0  0  0  0  0  0  0
   37.7630   22.5240   38.3830 H   0  0  0  0  0  0  0  0  0  0  0  0
   39.7950   21.9290   37.2790 H   0  0  0  0  0  0  0  0  0  0  0  0
   40.3980   23.6680   37.3050 H   0  0  0  0  0  0  0  0  0  0  0  0
   38.3810   22.5470   35.0190 C   0  0  0  0  0  0  0  0  0  0  0  0
   39.4160   22.3790   34.0810 C   0  0  0  0  0  0  0  0  0  0  0  0
   39.1720   21.5890   32.9520 C   0  0  0  0  0  0  0  0  0  0  0  0
   37.9280   21.0290   32.8410 N   0  0  0  0  0  0  0  0  0  0  0  0
   36.9560   21.2110   33.7640 C   0  0  0  0  0  0  0  0  0  0  0  0
   37.1890   21.9800   34.8650 N   0  0  0  0  0  0  0  0  0  0  0  0
   40.3790   22.8230   34.1820 H   0  0  0  0  0  0  0  0  0  0  0  0
   39.9450   21.4410   32.2120 H   0  0  0  0  0  0  0  0  0  0  0  0
   36.0100   20.7230   33.5780 H   0  0  0  0  0  0  0  0  0  0  0  0
   38.6100   25.7630   35.8440 C   0  0  0  0  0  0  0  0  0  0  0  0
   38.3980   26.8340   36.4180 O   0  0  0  0  0  0  0  0  0  0  0  0
   38.7690   26.4340   33.4500 C   0  0  0  0  0  0  0  0  0  0  0  0
   39.3360   26.2700   34.6890 C   0  0  0  0  0  0  0  0  0  0  0  0
   40.6530   26.6500   34.7980 C   0  0  0  0  0  0  0  0  0  0  0  0
   41.2770   26.6240   35.6670 H   0  0  0  0  0  0  0  0  0  0  0  0
   41.4490   27.1700   33.8040 C   0  0  0  0  0  0  0  0  0  0  0  0
   42.4770   27.4850   33.8190 H   0  0  0  0  0  0  0  0  0  0  0  0
   40.8530   27.3240   32.5710 C   0  0  0  0  0  3  0  0  0  0  0  0
   39.5430   26.9650   32.3930 C   0  0  0  0  0  3  0  0  0  0  0  0
   36.3230   26.2310   34.1500 H   0  0  0  0  0  0  0  0  0  0  0  0
   37.1190   26.0240   33.0760 S   0  0  0  0  0  0  0  0  0  0  0  0
   37.0780   24.6330   32.5160 O   0  0  0  0  0  0  0  0  0  0  0  0
   36.5910   26.9440   31.9860 O   0  0  0  0  0  0  0  0  0  0  0  0
  1  2  1  0  0  0  0
  1  5  1  0  0  0  0
  2  6  1  6  0  0  0
  2  3  1  0  0  0  0
  3  8  1  0  0  0  0
  3  7  1  0  0  0  0
  3  4  1  0  0  0  0
  4  9  1  0  0  0  0
  5 11  1  0  0  0  0
  5 12  1  0  0  0  0
  5  4  1  0  0  0  0
 10  4  1  0  0  0  0
 13  1  1  0  0  0  0
 14 19  1  0  0  0  0
 14 13  2  0  0  0  0
 15 14  1  0  0  0  0
 16 15  2  0  0  0  0
 16 17  1  0  0  0  0
 17 18  2  0  0  0  0
 18 13  1  0  0  0  0
 20 15  1  0  0  0  0
 21 17  1  0  0  0  0
 22 23  2  0  0  0  0
 22  2  1  0  0  0  0
 24 25  1  0  0  0  0
 25 26  2  0  0  0  0
 25 22  1  0  0  0  0
 26 27  1  0  0  0  0
 28 29  1  0  0  0  0
 28 26  1  0  0  0  0
 30 28  2  0  0  0  0
 31 30  1  0  0  0  0
 31 24  2  0  0  0  0
 33 24  1  0  0  0  0
 33 32  1  0  0  0  0
 34 33  2  0  0  0  0
 35 33  2  0  0  0  0
M  END
>  <minimizedAffinity>
-5.30284834

$$$$

 OpenBabel03272503253D

 35 37  0  0  1  0  0  0  0  0999 V2000
   38.3170   25.5660   33.8120 N   0  0  0  0  0  0  0  0  0  0  0  0
   39.2810   24.5280   33.7770 C   0  0  1  0  0  0  0  0  0  0  0  0
   40.5100   25.1230   34.4540 C   0  0  0  0  0  0  0  0  0  0  0  0
   40.0670   26.5560   34.8370 C   0  0  0  0  0  0  0  0  0  0  0  0
   38.5830   26.3230   35.0060 C   0  0  0  0  0  0  0  0  0  0  0  0
   39.6680   24.4480   32.6670 H   0  0  0  0  0  0  0  0  0  0  0  0
   41.4120   25.1140   33.8490 H   0  0  0  0  0  0  0  0  0  0  0  0
   40.6180   24.5680   35.4130 H   0  0  0  0  0  0  0  0  0  0  0  0
   40.5600   26.8780   35.7690 H   0  0  0  0  0  0  0  0  0  0  0  0
   40.2260   27.1880   33.9650 H   0  0  0  0  0  0  0  0  0  0  0  0
   38.0770   27.3060   35.0010 H   0  0  0  0  0  0  0  0  0  0  0  0
   38.3560   25.7310   35.9140 H   0  0  0  0  0  0  0  0  0  0  0  0
   37.3010   25.8140   32.8430 C   0  0  0  0  0  0  0  0  0  0  0  0
   36.9390   27.1490   32.5900 C   0  0  0  0  0  0  0  0  0  0  0  0
   35.9600   27.4030   31.6230 C   0  0  0  0  0  0  0  0  0  0  0  0
   35.4190   26.3200   30.9850 N   0  0  0  0  0  0  0  0  0  0  0  0
   35.7920   25.0480   31.2530 C   0  0  0  0  0  0  0  0  0  0  0  0
   36.7450   24.7950   32.1950 N   0  0  0  0  0  0  0  0  0  0  0  0
   37.3700   27.9810   33.0960 H   0  0  0  0  0  0  0  0  0  0  0  0
   35.6590   28.4180   31.4040 H   0  0  0  0  0  0  0  0  0  0  0  0
   35.3010   24.2670   30.6920 H   0  0  0  0  0  0  0  0  0  0  0  0
   38.8950   23.2070   34.1650 C   0  0  0  0  0  0  0  0  0  0  0  0
   39.7380   22.3260   33.9850 O   0  0  0  0  0  0  0  0  0  0  0  0
   37.4980   22.3620   36.0460 C   0  0  0  0  0  0  0  0  0  0  0  0
   37.8270   22.3850   34.7140 C   0  0  0  0  0  0  0  0  0  0  0  0
   37.0550   21.5960   33.8950 C   0  0  0  0  0  0  0  0  0  0  0  0
   37.1260   21.4800   32.8330 H   0  0  0  0  0  0  0  0  0  0  0  0
   36.0010   20.7970   34.2710 C   0  0  0  0  0  0  0  0  0  0  0  0
   35.3600   20.1590   33.6880 H   0  0  0  0  0  0  0  0  0  0  0  0
   35.6930   20.7940   35.6130 C   0  0  0  0  0  3  0  0  0  0  0  0
   36.4220   21.5570   36.4860 C   0  0  0  0  0  3  0  0  0  0  0  0
   38.3390   24.5950   36.9540 H   0  0  0  0  0  0  0  0  0  0  0  0
   38.3330   23.2800   37.2680 S   0  0  0  0  0  0  0  0  0  0  0  0
   39.6880   22.6760   37.4890 O   0  0  0  0  0  0  0  0  0  0  0  0
   37.5920   23.1730   38.5920 O   0  0  0  0  0  0  0  0  0  0  0  0
  1  5  1  0  0  0  0
  2  6  1  6  0  0  0
  2  1  1  0  0  0  0
  2 22  1  0  0  0  0
  2  3  1  0  0  0  0
  3  4  1  0  0  0  0
  3  8  1  0  0  0  0
  4  5  1  0  0  0  0
  4  9  1  0  0  0  0
  5 12  1  0  0  0  0
  7  3  1  0  0  0  0
 10  4  1  0  0  0  0
 11  5  1  0  0  0  0
 13  1  1  0  0  0  0
 14 13  1  0  0  0  0
 14 19  1  0  0  0  0
 15 14  2  0  0  0  0
 16 17  2  0  0  0  0
 16 15  1  0  0  0  0
 17 18  1  0  0  0  0
 18 13  2  0  0  0  0
 20 15  1  0  0  0  0
 21 17  1  0  0  0  0
 22 25  1  0  0  0  0
 23 22  2  0  0  0  0
 24 31  1  0  0  0  0
 24 33  1  0  0  0  0
 25 24  2  0  0  0  0
 26 28  2  0  0  0  0
 26 25  1  0  0  0  0
 27 26  1  0  0  0  0
 28 30  1  0  0  0  0
 29 28  1  0  0  0  0
 30 31  2  0  0  0  0
 32 33  1  0  0  0  0
 33 34  2  0  0  0  0
 33 35  2  0  0  0  0
M  END
>  <minimizedAffinity>
-5.24772167

$$$$

 OpenBabel03272503253D

 35 37  0  0  1  0  0  0  0  0999 V2000
   34.9290   29.6360   32.6740 N   0  0  0  0  0  0  0  0  0  0  0  0
   35.6000   28.6890   31.8610 C   0  0  1  0  0  0  0  0  0  0  0  0
   36.2610   29.5210   30.7680 C   0  0  0  0  0  0  0  0  0  0  0  0
   35.8640   30.9760   31.1160 C   0  0  0  0  0  0  0  0  0  0  0  0
   35.7100   30.8430   32.6140 C   0  0  0  0  0  0  0  0  0  0  0  0
   34.7790   28.1260   31.2310 H   0  0  0  0  0  0  0  0  0  0  0  0
   35.9850   29.2440   29.7550 H   0  0  0  0  0  0  0  0  0  0  0  0
   37.3560   29.4460   30.9610 H   0  0  0  0  0  0  0  0  0  0  0  0
   36.6640   31.6760   30.8260 H   0  0  0  0  0  0  0  0  0  0  0  0
   34.8830   31.1570   30.6780 H   0  0  0  0  0  0  0  0  0  0  0  0
   35.1520   31.7230   32.9830 H   0  0  0  0  0  0  0  0  0  0  0  0
   36.6860   30.7140   33.1220 H   0  0  0  0  0  0  0  0  0  0  0  0
   33.7140   29.4310   33.3900 C   0  0  0  0  0  0  0  0  0  0  0  0
   33.7060   29.6940   34.7720 C   0  0  0  0  0  0  0  0  0  0  0  0
   32.5110   29.5190   35.4780 C   0  0  0  0  0  0  0  0  0  0  0  0
   31.4220   29.0990   34.7640 N   0  0  0  0  0  0  0  0  0  0  0  0
   31.4640   28.8560   33.4340 C   0  0  0  0  0  0  0  0  0  0  0  0
   32.6270   29.0240   32.7420 N   0  0  0  0  0  0  0  0  0  0  0  0
   34.5640   30.0200   35.3130 H   0  0  0  0  0  0  0  0  0  0  0  0
   32.4720   29.7120   36.5410 H   0  0  0  0  0  0  0  0  0  0  0  0
   30.5470   28.5280   32.9690 H   0  0  0  0  0  0  0  0  0  0  0  0
   36.3930   27.6760   32.4850 C   0  0  0  0  0  0  0  0  0  0  0  0
   36.1140   26.5130   32.1840 O   0  0  0  0  0  0  0  0  0  0  0  0
   38.7740   27.1930   33.0350 C   0  0  0  0  0  0  0  0  0  0  0  0
   37.4760   27.4100   33.4200 C   0  0  0  0  0  0  0  0  0  0  0  0
   37.2450   27.3980   34.7760 C   0  0  0  0  0  0  0  0  0  0  0  0
   36.3200   27.5610   35.2900 H   0  0  0  0  0  0  0  0  0  0  0  0
   38.1730   27.1920   35.7700 C   0  0  0  0  0  0  0  0  0  0  0  0
   38.0630   27.1680   36.8400 H   0  0  0  0  0  0  0  0  0  0  0  0
   39.4680   26.9770   35.3540 C   0  0  0  0  0  3  0  0  0  0  0  0
   39.7680   26.9760   34.0170 C   0  0  0  0  0  3  0  0  0  0  0  0
   38.6920   28.1430   30.6670 H   0  0  0  0  0  0  0  0  0  0  0  0
   39.3010   27.1650   31.3750 S   0  0  0  0  0  0  0  0  0  0  0  0
   39.1210   25.7800   30.8300 O   0  0  0  0  0  0  0  0  0  0  0  0
   40.7900   27.4670   31.3010 O   0  0  0  0  0  0  0  0  0  0  0  0
  1 13  1  0  0  0  0
  2  6  1  6  0  0  0
  2 22  1  0  0  0  0
  2  1  1  0  0  0  0
  3  8  1  0  0  0  0
  3  4  1  0  0  0  0
  3  2  1  0  0  0  0
  4  5  1  0  0  0  0
  5  1  1  0  0  0  0
  5 11  1  0  0  0  0
  5 12  1  0  0  0  0
  7  3  1  0  0  0  0
  9  4  1  0  0  0  0
 10  4  1  0  0  0  0
 13 14  1  0  0  0  0
 14 19  1  0  0  0  0
 14 15  2  0  0  0  0
 15 20  1  0  0  0  0
 16 15  1  0  0  0  0
 17 16  2  0  0  0  0
 18 13  2  0  0  0  0
 18 17  1  0  0  0  0
 21 17  1  0  0  0  0
 22 25  1  0  0  0  0
 23 22  2  0  0  0  0
 24 25  2  0  0  0  0
 24 31  1  0  0  0  0
 25 26  1  0  0  0  0
 26 27  1  0  0  0  0
 26 28  2  0  0  0  0
 28 29  1  0  0  0  0
 30 28  1  0  0  0  0
 31 30  2  0  0  0  0
 32 33  1  0  0  0  0
 33 24  1  0  0  0  0
 34 33  2  0  0  0  0
 35 33  2  0  0  0  0
M  END
>  <minimizedAffinity>
-5.19696331

$$$$

 OpenBabel03272503253D

 35 37  0  0  1  0  0  0  0  0999 V2000
   37.7640   25.5200   32.7970 N   0  0  0  0  0  0  0  0  0  0  0  0
   39.0320   25.8150   33.3580 C   0  0  1  0  0  0  0  0  0  0  0  0
   39.4260   27.1490   32.7340 C   0  0  0  0  0  0  0  0  0  0  0  0
   38.2310   27.4970   31.8130 C   0  0  0  0  0  0  0  0  0  0  0  0
   37.1250   26.7860   32.5590 C   0  0  0  0  0  0  0  0  0  0  0  0
   39.8160   25.1010   32.8430 H   0  0  0  0  0  0  0  0  0  0  0  0
   40.3730   27.1410   32.2020 H   0  0  0  0  0  0  0  0  0  0  0  0
   39.3970   27.8860   33.5680 H   0  0  0  0  0  0  0  0  0  0  0  0
   38.0850   28.5880   31.7650 H   0  0  0  0  0  0  0  0  0  0  0  0
   38.3960   26.9900   30.8640 H   0  0  0  0  0  0  0  0  0  0  0  0
   36.2550   26.6970   31.8820 H   0  0  0  0  0  0  0  0  0  0  0  0
   36.8730   27.2930   33.5110 H   0  0  0  0  0  0  0  0  0  0  0  0
   37.2430   24.2240   32.5130 C   0  0  0  0  0  0  0  0  0  0  0  0
   36.1340   24.1300   31.6530 C   0  0  0  0  0  0  0  0  0  0  0  0
   35.6310   22.8610   31.3490 C   0  0  0  0  0  0  0  0  0  0  0  0
   36.2610   21.7880   31.9190 N   0  0  0  0  0  0  0  0  0  0  0  0
   37.3270   21.9150   32.7420 C   0  0  0  0  0  0  0  0  0  0  0  0
   37.8210   23.1500   33.0420 N   0  0  0  0  0  0  0  0  0  0  0  0
   35.6540   24.9760   31.2180 H   0  0  0  0  0  0  0  0  0  0  0  0
   34.7800   22.7540   30.6910 H   0  0  0  0  0  0  0  0  0  0  0  0
   37.7490   21.0030   33.1370 H   0  0  0  0  0  0  0  0  0  0  0  0
   39.2200   25.6700   34.7670 C   0  0  0  0  0  0  0  0  0  0  0  0
   39.6970   26.6460   35.3490 O   0  0  0  0  0  0  0  0  0  0  0  0
   39.9110   23.6950   36.1190 C   0  0  0  0  0  0  0  0  0  0  0  0
   39.0900   24.7730   35.9060 C   0  0  0  0  0  0  0  0  0  0  0  0
   38.1320   24.9930   36.8670 C   0  0  0  0  0  0  0  0  0  0  0  0
   37.4060   25.7790   36.9090 H   0  0  0  0  0  0  0  0  0  0  0  0
   37.9160   24.2500   38.0050 C   0  0  0  0  0  0  0  0  0  0  0  0
   37.1910   24.3630   38.7910 H   0  0  0  0  0  0  0  0  0  0  0  0
   38.7550   23.1730   38.1920 C   0  0  0  0  0  3  0  0  0  0  0  0
   39.7320   22.8970   37.2720 C   0  0  0  0  0  3  0  0  0  0  0  0
   40.8480   23.4710   33.7550 H   0  0  0  0  0  0  0  0  0  0  0  0
   41.1930   23.2240   35.0390 S   0  0  0  0  0  0  0  0  0  0  0  0
   41.5790   21.8050   35.3300 O   0  0  0  0  0  0  0  0  0  0  0  0
   42.4290   24.0700   35.3050 O   0  0  0  0  0  0  0  0  0  0  0  0
  1  2  1  0  0  0  0
  2  6  1  6  0  0  0
  2 22  1  0  0  0  0
  3  2  1  0  0  0  0
  3  8  1  0  0  0  0
  4  5  1  0  0  0  0
  4  3  1  0  0  0  0
  5  1  1  0  0  0  0
  5 12  1  0  0  0  0
  7  3  1  0  0  0  0
  9  4  1  0  0  0  0
 10  4  1  0  0  0  0
 11  5  1  0  0  0  0
 13  1  1  0  0  0  0
 13 18  1  0  0  0  0
 14 13  2  0  0  0  0
 15 14  1  0  0  0  0
 15 16  2  0  0  0  0
 16 17  1  0  0  0  0
 17 18  2  0  0  0  0
 17 21  1  0  0  0  0
 19 14  1  0  0  0  0
 20 15  1  0  0  0  0
 22 23  2  0  0  0  0
 22 25  1  0  0  0  0
 24 31  1  0  0  0  0
 25 24  2  0  0  0  0
 25 26  1  0  0  0  0
 26 27  1  0  0  0  0
 26 28  2  0  0  0  0
 28 30  1  0  0  0  0
 28 29  1  0  0  0  0
 31 30  2  0  0  0  0
 32 33  1  0  0  0  0
 33 35  2  0  0  0  0
 33 34  2  0  0  0  0
 33 24  1  0  0  0  0
M  END
>  <minimizedAffinity>
-5.14054346

$$$$

 OpenBabel03272503253D

 35 37  0  0  1  0  0  0  0  0999 V2000
   38.3180   23.3620   36.2540 N   0  0  0  0  0  0  0  0  0  0  0  0
   37.8030   24.5870   36.7460 C   0  0  1  0  0  0  0  0  0  0  0  0
   38.1340   24.5720   38.2340 C   0  0  0  0  0  0  0  0  0  0  0  0
   38.8710   23.2260   38.4390 C   0  0  0  0  0  0  0  0  0  0  0  0
   39.4700   23.0560   37.0610 C   0  0  0  0  0  0  0  0  0  0  0  0
   36.6310   24.4800   36.7890 H   0  0  0  0  0  0  0  0  0  0  0  0
   37.2780   24.6820   38.8930 H   0  0  0  0  0  0  0  0  0  0  0  0
   38.9010   25.3680   38.3750 H   0  0  0  0  0  0  0  0  0  0  0  0
   39.6330   23.3180   39.2300 H   0  0  0  0  0  0  0  0  0  0  0  0
   38.1120   22.4610   38.5870 H   0  0  0  0  0  0  0  0  0  0  0  0
   39.7920   22.0040   36.9520 H   0  0  0  0  0  0  0  0  0  0  0  0
   40.2920   23.7750   36.8730 H   0  0  0  0  0  0  0  0  0  0  0  0
   37.7850   22.5850   35.1850 C   0  0  0  0  0  0  0  0  0  0  0  0
   36.7960   21.6320   35.4870 C   0  0  0  0  0  0  0  0  0  0  0  0
   36.2500   20.8820   34.4400 C   0  0  0  0  0  0  0  0  0  0  0  0
   36.7230   21.1330   33.1810 N   0  0  0  0  0  0  0  0  0  0  0  0
   37.6760   22.0590   32.9260 C   0  0  0  0  0  0  0  0  0  0  0  0
   38.2120   22.7920   33.9430 N   0  0  0  0  0  0  0  0  0  0  0  0
   36.4390   21.4480   36.4740 H   0  0  0  0  0  0  0  0  0  0  0  0
   35.4880   20.1410   34.6390 H   0  0  0  0  0  0  0  0  0  0  0  0
   37.9770   22.1770   31.8960 H   0  0  0  0  0  0  0  0  0  0  0  0
   38.0710   25.7930   36.0270 C   0  0  0  0  0  0  0  0  0  0  0  0
   38.2480   26.8010   36.7150 O   0  0  0  0  0  0  0  0  0  0  0  0
   39.4150   26.4540   34.0370 C   0  0  0  0  0  0  0  0  0  0  0  0
   38.2210   26.3920   34.7100 C   0  0  0  0  0  0  0  0  0  0  0  0
   37.1340   26.9100   34.0460 C   0  0  0  0  0  0  0  0  0  0  0  0
   36.1160   26.9480   34.3750 H   0  0  0  0  0  0  0  0  0  0  0  0
   37.1240   27.4760   32.7920 C   0  0  0  0  0  0  0  0  0  0  0  0
   36.3180   27.8980   32.2180 H   0  0  0  0  0  0  0  0  0  0  0  0
   38.3370   27.5250   32.1400 C   0  0  0  0  0  3  0  0  0  0  0  0
   39.4610   27.0260   32.7450 C   0  0  0  0  0  3  0  0  0  0  0  0
   40.8560   25.7550   36.0250 H   0  0  0  0  0  0  0  0  0  0  0  0
   40.9220   25.8610   34.6780 S   0  0  0  0  0  0  0  0  0  0  0  0
   42.0410   26.7170   34.1650 O   0  0  0  0  0  0  0  0  0  0  0  0
   41.1850   24.4540   34.1640 O   0  0  0  0  0  0  0  0  0  0  0  0
  1  2  1  0  0  0  0
  1  5  1  0  0  0  0
  2  6  1  6  0  0  0
  2  3  1  0  0  0  0
  3  8  1  0  0  0  0
  3  4  1  0  0  0  0
  3  7  1  0  0  0  0
  4 10  1  0  0  0  0
  4  9  1  0  0  0  0
  5  4  1  0  0  0  0
 11  5  1  0  0  0  0
 12  5  1  0  0  0  0
 13 14  1  0  0  0  0
 13  1  1  0  0  0  0
 14 19  1  0  0  0  0
 15 20  1  0  0  0  0
 15 14  2  0  0  0  0
 16 15  1  0  0  0  0
 17 16  2  0  0  0  0
 17 18  1  0  0  0  0
 18 13  2  0  0  0  0
 21 17  1  0  0  0  0
 22 23  2  0  0  0  0
 22  2  1  0  0  0  0
 24 33  1  0  0  0  0
 24 25  1  0  0  0  0
 25 22  1  0  0  0  0
 26 27  1  0  0  0  0
 26 25  2  0  0  0  0
 28 26  1  0  0  0  0
 29 28  1  0  0  0  0
 30 31  1  0  0  0  0
 30 28  2  0  0  0  0
 31 24  2  0  0  0  0
 33 32  1  0  0  0  0
 34 33  2  0  0  0  0
 35 33  2  0  0  0  0
M  END
>  <minimizedAffinity>
-5.09428215

$$$$

 OpenBabel03272503253D

 35 37  0  0  1  0  0  0  0  0999 V2000
   38.7140   23.1960   35.5930 N   0  0  0  0  0  0  0  0  0  0  0  0
   37.9250   24.3190   35.9460 C   0  0  1  0  0  0  0  0  0  0  0  0
   38.0300   24.3990   37.4650 C   0  0  0  0  0  0  0  0  0  0  0  0
   38.9530   23.2130   37.8370 C   0  0  0  0  0  0  0  0  0  0  0  0
   39.7690   23.1220   36.5680 C   0  0  0  0  0  0  0  0  0  0  0  0
   36.7960   24.0030   35.8290 H   0  0  0  0  0  0  0  0  0  0  0  0
   37.0800   24.3670   37.9900 H   0  0  0  0  0  0  0  0  0  0  0  0
   38.6170   25.3220   37.6730 H   0  0  0  0  0  0  0  0  0  0  0  0
   39.5620   23.4590   38.7220 H   0  0  0  0  0  0  0  0  0  0  0  0
   38.3260   22.3270   37.9150 H   0  0  0  0  0  0  0  0  0  0  0  0
   40.2830   22.1430   36.5570 H   0  0  0  0  0  0  0  0  0  0  0  0
   40.4710   23.9720   36.4630 H   0  0  0  0  0  0  0  0  0  0  0  0
   38.4880   22.3110   34.4980 C   0  0  0  0  0  0  0  0  0  0  0  0
   39.5910   21.9390   33.7090 C   0  0  0  0  0  0  0  0  0  0  0  0
   39.3840   21.0510   32.6480 C   0  0  0  0  0  0  0  0  0  0  0  0
   38.1050   20.6040   32.4500 N   0  0  0  0  0  0  0  0  0  0  0  0
   37.0670   20.9830   33.2300 C   0  0  0  0  0  0  0  0  0  0  0  0
   37.2640   21.8480   34.2650 N   0  0  0  0  0  0  0  0  0  0  0  0
   40.5810   22.2970   33.8760 H   0  0  0  0  0  0  0  0  0  0  0  0
   40.2110   20.7450   32.0230 H   0  0  0  0  0  0  0  0  0  0  0  0
   36.0990   20.5710   32.9860 H   0  0  0  0  0  0  0  0  0  0  0  0
   38.0810   25.5360   35.2140 C   0  0  0  0  0  0  0  0  0  0  0  0
   39.2190   26.0100   35.1950 O   0  0  0  0  0  0  0  0  0  0  0  0
   37.1000   26.4040   33.0950 C   0  0  0  0  0  0  0  0  0  0  0  0
   37.4030   26.5540   34.4240 C   0  0  0  0  0  0  0  0  0  0  0  0
   36.9950   27.7330   35.0010 C   0  0  0  0  0  0  0  0  0  0  0  0
   37.1110   28.0460   36.0180 H   0  0  0  0  0  0  0  0  0  0  0  0
   36.3220   28.7640   34.3870 C   0  0  0  0  0  0  0  0  0  0  0  0
   35.9750   29.7060   34.7740 H   0  0  0  0  0  0  0  0  0  0  0  0
   36.0300   28.5860   33.0530 C   0  0  0  0  0  3  0  0  0  0  0  0
   36.4090   27.4330   32.4160 C   0  0  0  0  0  3  0  0  0  0  0  0
   38.3760   24.2080   32.8410 H   0  0  0  0  0  0  0  0  0  0  0  0
   37.5160   24.9970   32.1580 S   0  0  0  0  0  0  0  0  0  0  0  0
   37.9960   25.4360   30.8060 O   0  0  0  0  0  0  0  0  0  0  0  0
   36.2760   24.1480   31.9200 O   0  0  0  0  0  0  0  0  0  0  0  0
  1  2  1  0  0  0  0
  1  5  1  0  0  0  0
  2  6  1  6  0  0  0
  2  3  1  0  0  0  0
  3  8  1  0  0  0  0
  3  4  1  0  0  0  0
  3  7  1  0  0  0  0
  4 10  1  0  0  0  0
  4  9  1  0  0  0  0
  5  4  1  0  0  0  0
 11  5  1  0  0  0  0
 12  5  1  0  0  0  0
 13  1  1  0  0  0  0
 14 19  1  0  0  0  0
 14 13  2  0  0  0  0
 15 14  1  0  0  0  0
 16 15  2  0  0  0  0
 16 17  1  0  0  0  0
 17 18  2  0  0  0  0
 18 13  1  0  0  0  0
 20 15  1  0  0  0  0
 21 17  1  0  0  0  0
 22  2  1  0  0  0  0
 23 22  2  0  0  0  0
 24 25  1  0  0  0  0
 25 26  2  0  0  0  0
 25 22  1  0  0  0  0
 26 27  1  0  0  0  0
 28 29  1  0  0  0  0
 28 26  1  0  0  0  0
 30 28  2  0  0  0  0
 31 30  1  0  0  0  0
 31 24  2  0  0  0  0
 33 32  1  0  0  0  0
 33 24  1  0  0  0  0
 34 33  2  0  0  0  0
 35 33  2  0  0  0  0
M  END
>  <minimizedAffinity>
-5.0240202

$$$$

 OpenBabel03272503253D

 35 37  0  0  1  0  0  0  0  0999 V2000
   38.8420   26.5900   33.6600 N   0  0  0  0  0  0  0  0  0  0  0  0
   39.5740   26.1370   34.7850 C   0  0  1  0  0  0  0  0  0  0  0  0
   38.9050   26.8140   35.9760 C   0  0  0  0  0  0  0  0  0  0  0  0
   37.7640   27.6450   35.3400 C   0  0  0  0  0  0  0  0  0  0  0  0
   37.4930   26.8020   34.1140 C   0  0  0  0  0  0  0  0  0  0  0  0
   40.6100   26.6970   34.7770 H   0  0  0  0  0  0  0  0  0  0  0  0
   39.5680   27.4190   36.5880 H   0  0  0  0  0  0  0  0  0  0  0  0
   38.4090   25.9940   36.5430 H   0  0  0  0  0  0  0  0  0  0  0  0
   36.9000   27.7020   36.0210 H   0  0  0  0  0  0  0  0  0  0  0  0
   38.1930   28.5940   35.0230 H   0  0  0  0  0  0  0  0  0  0  0  0
   36.9010   27.4060   33.4030 H   0  0  0  0  0  0  0  0  0  0  0  0
   37.0020   25.8420   34.3700 H   0  0  0  0  0  0  0  0  0  0  0  0
   39.3530   26.8080   32.3470 C   0  0  0  0  0  0  0  0  0  0  0  0
   38.5120   26.5300   31.2540 C   0  0  0  0  0  0  0  0  0  0  0  0
   38.9960   26.7640   29.9630 C   0  0  0  0  0  0  0  0  0  0  0  0
   40.2700   27.2520   29.8540 N   0  0  0  0  0  0  0  0  0  0  0  0
   41.0520   27.5090   30.9280 C   0  0  0  0  0  0  0  0  0  0  0  0
   40.5850   27.2820   32.1880 N   0  0  0  0  0  0  0  0  0  0  0  0
   37.5220   26.1500   31.3560 H   0  0  0  0  0  0  0  0  0  0  0  0
   38.3750   26.5610   29.1020 H   0  0  0  0  0  0  0  0  0  0  0  0
   42.0420   27.8920   30.7300 H   0  0  0  0  0  0  0  0  0  0  0  0
   39.8710   24.7430   34.9060 C   0  0  0  0  0  0  0  0  0  0  0  0
   39.4180   24.0190   34.0170 O   0  0  0  0  0  0  0  0  0  0  0  0
   39.9280   23.1100   36.7860 C   0  0  0  0  0  0  0  0  0  0  0  0
   40.5240   23.7240   35.7130 C   0  0  0  0  0  0  0  0  0  0  0  0
   41.7930   23.2930   35.4080 C   0  0  0  0  0  0  0  0  0  0  0  0
   42.4270   23.6200   34.6100 H   0  0  0  0  0  0  0  0  0  0  0  0
   42.5160   22.3220   36.0610 C   0  0  0  0  0  0  0  0  0  0  0  0
   43.5050   21.9400   35.8780 H   0  0  0  0  0  0  0  0  0  0  0  0
   41.8930   21.7230   37.1340 C   0  0  0  0  0  3  0  0  0  0  0  0
   40.6270   22.1050   37.4920 C   0  0  0  0  0  3  0  0  0  0  0  0
   38.0160   24.7770   37.0750 H   0  0  0  0  0  0  0  0  0  0  0  0
   38.3270   23.4900   37.3550 S   0  0  0  0  0  0  0  0  0  0  0  0
   38.2220   23.1140   38.8020 O   0  0  0  0  0  0  0  0  0  0  0  0
   37.3010   22.6460   36.6150 O   0  0  0  0  0  0  0  0  0  0  0  0
  1  5  1  0  0  0  0
  1  2  1  0  0  0  0
  2  6  1  6  0  0  0
  2 22  1  0  0  0  0
  2  3  1  0  0  0  0
  3  8  1  0  0  0  0
  3  7  1  0  0  0  0
  4  3  1  0  0  0  0
  4  9  1  0  0  0  0
  5 12  1  0  0  0  0
  5  4  1  0  0  0  0
 10  4  1  0  0  0  0
 11  5  1  0  0  0  0
 13  1  1  0  0  0  0
 14 19  1  0  0  0  0
 14 13  2  0  0  0  0
 15 14  1  0  0  0  0
 16 15  2  0  0  0  0
 16 17  1  0  0  0  0
 17 18  2  0  0  0  0
 18 13  1  0  0  0  0
 20 15  1  0  0  0  0
 21 17  1  0  0  0  0
 22 25  1  0  0  0  0
 23 22  2  0  0  0  0
 24 33  1  0  0  0  0
 24 31  1  0  0  0  0
 25 24  2  0  0  0  0
 26 25  1  0  0  0  0
 26 28  2  0  0  0  0
 27 26  1  0  0  0  0
 28 30  1  0  0  0  0
 29 28  1  0  0  0  0
 30 31  2  0  0  0  0
 32 33  1  0  0  0  0
 33 34  2  0  0  0  0
 35 33  2  0  0  0  0
M  END
>  <minimizedAffinity>
-4.99549675

$$$$

 OpenBabel03272503253D

 35 37  0  0  1  0  0  0  0  0999 V2000
   37.5720   27.2820   33.7610 N   0  0  0  0  0  0  0  0  0  0  0  0
   38.7050   26.5000   33.4260 C   0  0  1  0  0  0  0  0  0  0  0  0
   39.5320   26.4540   34.7060 C   0  0  0  0  0  0  0  0  0  0  0  0
   38.7010   27.2810   35.7160 C   0  0  0  0  0  0  0  0  0  0  0  0
   37.3160   27.0430   35.1570 C   0  0  0  0  0  0  0  0  0  0  0  0
   39.4000   27.1660   32.7480 H   0  0  0  0  0  0  0  0  0  0  0  0
   40.5490   26.8200   34.6050 H   0  0  0  0  0  0  0  0  0  0  0  0
   39.4780   25.3970   35.0550 H   0  0  0  0  0  0  0  0  0  0  0  0
   38.8260   26.8850   36.7370 H   0  0  0  0  0  0  0  0  0  0  0  0
   38.9620   28.3280   35.5700 H   0  0  0  0  0  0  0  0  0  0  0  0
   36.6340   27.7950   35.5940 H   0  0  0  0  0  0  0  0  0  0  0  0
   36.9710   26.0040   35.3290 H   0  0  0  0  0  0  0  0  0  0  0  0
   36.8470   28.1440   32.8880 C   0  0  0  0  0  0  0  0  0  0  0  0
   37.3220   28.3080   31.5740 C   0  0  0  0  0  0  0  0  0  0  0  0
   36.6030   29.1330   30.7030 C   0  0  0  0  0  0  0  0  0  0  0  0
   35.4740   29.7290   31.1980 N   0  0  0  0  0  0  0  0  0  0  0  0
   35.0460   29.5480   32.4680 C   0  0  0  0  0  0  0  0  0  0  0  0
   35.7430   28.7460   33.3210 N   0  0  0  0  0  0  0  0  0  0  0  0
   38.2030   27.8370   31.2050 H   0  0  0  0  0  0  0  0  0  0  0  0
   36.9410   29.2800   29.6870 H   0  0  0  0  0  0  0  0  0  0  0  0
   34.1430   30.0660   32.7560 H   0  0  0  0  0  0  0  0  0  0  0  0
   38.5160   25.2690   32.7230 C   0  0  0  0  0  0  0  0  0  0  0  0
   39.4380   24.9290   31.9770 O   0  0  0  0  0  0  0  0  0  0  0  0
   37.6200   22.9970   33.2120 C   0  0  0  0  0  0  0  0  0  0  0  0
   37.6110   24.1570   32.4790 C   0  0  0  0  0  0  0  0  0  0  0  0
   36.6550   24.2320   31.4940 C   0  0  0  0  0  0  0  0  0  0  0  0
   36.4610   25.0440   30.8230 H   0  0  0  0  0  0  0  0  0  0  0  0
   35.7190   23.2760   31.1740 C   0  0  0  0  0  0  0  0  0  0  0  0
   34.9500   23.2690   30.4230 H   0  0  0  0  0  0  0  0  0  0  0  0
   35.7520   22.1230   31.9270 C   0  0  0  0  0  3  0  0  0  0  0  0
   36.6800   21.9820   32.9250 C   0  0  0  0  0  3  0  0  0  0  0  0
   39.1190   23.8330   35.1020 H   0  0  0  0  0  0  0  0  0  0  0  0
   38.7380   22.6790   34.5090 S   0  0  0  0  0  0  0  0  0  0  0  0
   39.8610   21.8330   33.9870 O   0  0  0  0  0  0  0  0  0  0  0  0
   38.0520   21.8630   35.5940 O   0  0  0  0  0  0  0  0  0  0  0  0
  1  5  1  0  0  0  0
  2  6  1  6  0  0  0
  2  1  1  0  0  0  0
  2  3  1  0  0  0  0
  3  8  1  0  0  0  0
  3  4  1  0  0  0  0
  4  9  1  0  0  0  0
  5 12  1  0  0  0  0
  5 11  1  0  0  0  0
  5  4  1  0  0  0  0
  7  3  1  0  0  0  0
 10  4  1  0  0  0  0
 13 18  1  0  0  0  0
 13  1  1  0  0  0  0
 14 13  2  0  0  0  0
 15 16  2  0  0  0  0
 15 14  1  0  0  0  0
 16 17  1  0  0  0  0
 17 21  1  0  0  0  0
 17 18  2  0  0  0  0
 19 14  1  0  0  0  0
 20 15  1  0  0  0  0
 22  2  1  0  0  0  0
 23 22  2  0  0  0  0
 24 33  1  0  0  0  0
 25 22  1  0  0  0  0
 25 24  2  0  0  0  0
 26 25  1  0  0  0  0
 27 26  1  0  0  0  0
 28 26  2  0  0  0  0
 28 30  1  0  0  0  0
 29 28  1  0  0  0  0
 30 31  2  0  0  0  0
 31 24  1  0  0  0  0
 33 32  1  0  0  0  0
 33 35  2  0  0  0  0
 34 33  2  0  0  0  0
M  END
>  <minimizedAffinity>
-4.99303818

$$$$

 OpenBabel03272503253D

 35 37  0  0  1  0  0  0  0  0999 V2000
   34.9410   30.1070   32.1730 N   0  0  0  0  0  0  0  0  0  0  0  0
   35.7960   28.9770   32.1930 C   0  0  1  0  0  0  0  0  0  0  0  0
   36.8450   29.2710   31.1270 C   0  0  0  0  0  0  0  0  0  0  0  0
   36.4380   30.6590   30.5760 C   0  0  0  0  0  0  0  0  0  0  0  0
   35.7640   31.2290   31.8030 C   0  0  0  0  0  0  0  0  0  0  0  0
   35.2150   28.0910   31.6800 H   0  0  0  0  0  0  0  0  0  0  0  0
   36.9240   28.5200   30.3470 H   0  0  0  0  0  0  0  0  0  0  0  0
   37.7970   29.4280   31.6840 H   0  0  0  0  0  0  0  0  0  0  0  0
   37.3290   31.2310   30.2710 H   0  0  0  0  0  0  0  0  0  0  0  0
   35.6850   30.4940   29.8080 H   0  0  0  0  0  0  0  0  0  0  0  0
   35.1650   32.1040   31.4930 H   0  0  0  0  0  0  0  0  0  0  0  0
   36.4910   31.4720   32.6020 H   0  0  0  0  0  0  0  0  0  0  0  0
   33.5430   30.1190   32.4470 C   0  0  0  0  0  0  0  0  0  0  0  0
   32.8210   31.2920   32.1630 C   0  0  0  0  0  0  0  0  0  0  0  0
   31.4430   31.3030   32.4060 C   0  0  0  0  0  0  0  0  0  0  0  0
   30.8900   30.1580   32.9100 N   0  0  0  0  0  0  0  0  0  0  0  0
   31.6150   29.0460   33.1720 C   0  0  0  0  0  0  0  0  0  0  0  0
   32.9570   29.0300   32.9370 N   0  0  0  0  0  0  0  0  0  0  0  0
   33.2670   32.1760   31.7710 H   0  0  0  0  0  0  0  0  0  0  0  0
   30.8600   32.1890   32.1980 H   0  0  0  0  0  0  0  0  0  0  0  0
   31.0780   28.1970   33.5690 H   0  0  0  0  0  0  0  0  0  0  0  0
   36.2600   28.4800   33.4510 C   0  0  0  0  0  0  0  0  0  0  0  0
   35.8800   29.1000   34.4470 O   0  0  0  0  0  0  0  0  0  0  0  0
   37.3040   26.2230   33.5970 C   0  0  0  0  0  0  0  0  0  0  0  0
   37.0780   27.4750   34.1120 C   0  0  0  0  0  0  0  0  0  0  0  0
   37.7070   27.7530   35.3030 C   0  0  0  0  0  0  0  0  0  0  0  0
   37.6830   28.6640   35.8650 H   0  0  0  0  0  0  0  0  0  0  0  0
   38.5280   26.9140   36.0200 C   0  0  0  0  0  0  0  0  0  0  0  0
   39.0480   27.0650   36.9490 H   0  0  0  0  0  0  0  0  0  0  0  0
   38.7370   25.6640   35.4790 C   0  0  0  0  0  3  0  0  0  0  0  0
   38.1410   25.3210   34.2940 C   0  0  0  0  0  3  0  0  0  0  0  0
   35.5020   26.3530   31.7940 H   0  0  0  0  0  0  0  0  0  0  0  0
   36.6150   25.6500   32.1040 S   0  0  0  0  0  0  0  0  0  0  0  0
   36.4220   24.1660   32.1950 O   0  0  0  0  0  0  0  0  0  0  0  0
   37.5880   25.8890   30.9600 O   0  0  0  0  0  0  0  0  0  0  0  0
  1  2  1  0  0  0  0
  1 13  1  0  0  0  0
  2  6  1  6  0  0  0
  2 22  1  0  0  0  0
  3  8  1  0  0  0  0
  3  2  1  0  0  0  0
  4  3  1  0  0  0  0
  4  5  1  0  0  0  0
  5  1  1  0  0  0  0
  5 12  1  0  0  0  0
  7  3  1  0  0  0  0
  9  4  1  0  0  0  0
 10  4  1  0  0  0  0
 11  5  1  0  0  0  0
 13 18  1  0  0  0  0
 14 15  1  0  0  0  0
 14 13  2  0  0  0  0
 15 16  2  0  0  0  0
 16 17  1  0  0  0  0
 17 21  1  0  0  0  0
 18 17  2  0  0  0  0
 19 14  1  0  0  0  0
 20 15  1  0  0  0  0
 22 25  1  0  0  0  0
 22 23  2  0  0  0  0
 24 25  2  0  0  0  0
 24 31  1  0  0  0  0
 25 26  1  0  0  0  0
 26 27  1  0  0  0  0
 26 28  2  0  0  0  0
 28 29  1  0  0  0  0
 30 28  1  0  0  0  0
 31 30  2  0  0  0  0
 32 33  1  0  0  0  0
 33 34  2  0  0  0  0
 33 24  1  0  0  0  0
 35 33  2  0  0  0  0
M  END
>  <minimizedAffinity>
-4.98190498

$$$$
