
 OpenBabel03272501293D

 23 24  0  0  0  0  0  0  0  0999 V2000
   38.6190   31.1860   45.6740 C   0  0  0  0  0  0  0  0  0  0  0  0
   37.5250   31.1230   46.5140 C   0  0  0  0  0  0  0  0  0  0  0  0
   36.3450   30.5650   46.0640 C   0  0  0  0  0  0  0  0  0  0  0  0
   35.5240   30.5390   46.7500 H   0  0  0  0  0  0  0  0  0  0  0  0
   36.1850   30.0580   44.8040 C   0  0  0  0  0  0  0  0  0  0  0  0
   35.2160   29.6390   44.5410 H   0  0  0  0  0  0  0  0  0  0  0  0
   37.2750   30.1150   43.9520 C   0  0  0  0  0  3  0  0  0  0  0  0
   38.4790   30.6760   44.3920 C   0  0  0  0  0  3  0  0  0  0  0  0
   40.4950   31.8780   47.3340 H   0  0  0  0  0  0  0  0  0  0  0  0
   40.1870   31.8330   46.0170 S   0  0  0  0  0  0  0  0  0  0  0  0
   40.2580   33.2350   45.4370 O   0  0  0  0  0  0  0  0  0  0  0  0
   41.2720   31.0580   45.2790 O   0  0  0  0  0  0  0  0  0  0  0  0
   37.7470   31.6780   47.8460 C   0  0  0  0  0  0  0  0  0  0  0  0
   38.1950   32.8370   47.9440 O   0  0  0  0  0  0  0  0  0  0  0  0
   37.5920   30.2660   51.3050 C   0  0  0  0  0  0  0  0  0  0  0  0
   37.9290   31.1140   50.2480 C   0  0  0  0  0  0  0  0  0  0  0  0
   37.4280   30.8270   48.9840 C   0  0  0  0  0  0  0  0  0  0  0  0
   36.6430   29.7340   48.8780 N   0  0  0  0  0  0  0  0  0  0  0  0
   36.3280   28.9300   49.8970 C   0  0  0  0  0  0  0  0  0  0  0  0
   36.7980   29.1880   51.1170 N   0  0  0  0  0  0  0  0  0  0  0  0
   37.9400   30.4240   52.3020 H   0  0  0  0  0  0  0  0  0  0  0  0
   38.5720   31.9770   50.4290 H   0  0  0  0  0  0  0  0  0  0  0  0
   35.6790   28.0640   49.7050 H   0  0  0  0  0  0  0  0  0  0  0  0
  1 10  1  0  0  0  0
  1  2  1  0  0  0  0
  2 13  1  0  0  0  0
  3  2  2  0  0  0  0
  3  4  1  0  0  0  0
  5  3  1  0  0  0  0
  6  5  1  0  0  0  0
  7  8  1  0  0  0  0
  7  5  2  0  0  0  0
  8  1  2  0  0  0  0
 10  9  1  0  0  0  0
 11 10  2  0  0  0  0
 12 10  2  0  0  0  0
 13 14  2  0  0  0  0
 13 17  1  0  0  0  0
 15 21  1  0  0  0  0
 16 22  1  0  0  0  0
 16 15  2  0  0  0  0
 17 16  1  0  0  0  0
 18 17  2  0  0  0  0
 18 19  1  0  0  0  0
 19 20  2  0  0  0  0
 20 15  1  0  0  0  0
 23 19  1  0  0  0  0
M  END
>  <minimizedAffinity>
-4.79516554

>  <minimizedRMSD>
0.796847761

$$$$
