
 OpenBabel03262522083D

 23 24  0  0  0  0  0  0  0  0999 V2000
   39.2500   32.6980   47.0590 C   0  0  0  0  0  0  0  0  0  0  0  0
   38.2760   32.3210   47.9380 C   0  0  0  0  0  0  0  0  0  0  0  0
   38.1620   33.0050   49.1310 C   0  0  0  0  0  0  0  0  0  0  0  0
   37.3630   32.6680   49.8100 H   0  0  0  0  0  0  0  0  0  0  0  0
   38.9830   34.0450   49.4690 C   0  0  0  0  0  0  0  0  0  0  0  0
   38.7960   34.5010   50.4300 H   0  0  0  0  0  0  0  0  0  0  0  0
   39.9740   34.4250   48.5690 C   0  0  0  0  0  3  0  0  0  0  0  0
   40.1090   33.7470   47.3560 C   0  0  0  0  0  3  0  0  0  0  0  0
   38.3150   31.3570   45.1080 H   0  0  0  0  0  0  0  0  0  0  0  0
   39.5080   31.9300   45.5260 S   0  0  0  0  0  0  0  0  0  0  0  0
   39.8730   32.9340   44.4530 O   0  0  0  0  0  0  0  0  0  0  0  0
   40.5860   30.9170   45.5520 O   0  0  0  0  0  0  0  0  0  0  0  0
   37.3860   31.2140   47.6000 C   0  0  0  0  0  0  0  0  0  0  0  0
   36.9650   30.7170   46.5570 O   0  0  0  0  0  0  0  0  0  0  0  0
   37.8390   29.9620   49.7240 C   0  0  0  0  0  0  0  0  0  0  0  0
   36.8920   30.5570   48.8380 C   0  0  0  0  0  0  0  0  0  0  0  0
   35.5340   30.4960   49.1770 C   0  0  0  0  0  0  0  0  0  0  0  0
   35.1930   29.8750   50.3260 N   0  0  0  0  0  0  0  0  0  0  0  0
   36.1100   29.3220   51.1420 C   0  0  0  0  0  0  0  0  0  0  0  0
   37.4180   29.3590   50.8560 N   0  0  0  0  0  0  0  0  0  0  0  0
   38.8960   30.0000   49.4780 H   0  0  0  0  0  0  0  0  0  0  0  0
   34.8420   30.9560   48.4840 H   0  0  0  0  0  0  0  0  0  0  0  0
   35.7780   28.8300   52.0640 H   0  0  0  0  0  0  0  0  0  0  0  0
  1  8  2  0  0  0  0
  1  2  1  0  0  0  0
  2  3  2  0  0  0  0
  3  5  1  0  0  0  0
  3  4  1  0  0  0  0
  5  6  1  0  0  0  0
  7  5  2  0  0  0  0
  8  7  1  0  0  0  0
  9 10  1  0  0  0  0
 10 12  2  0  0  0  0
 10  1  1  0  0  0  0
 11 10  2  0  0  0  0
 13  2  1  0  0  0  0
 13 16  1  0  0  0  0
 14 13  2  0  0  0  0
 15 20  1  0  0  0  0
 16 17  1  0  0  0  0
 16 15  2  0  0  0  0
 17 18  2  0  0  0  0
 18 19  1  0  0  0  0
 19 23  1  0  0  0  0
 20 19  2  0  0  0  0
 21 15  1  0  0  0  0
 22 17  1  0  0  0  0
M  END
>  <minimizedAffinity>
-5.40311718

>  <minimizedRMSD>
3.83645463

$$$$
