
 OpenBabel03272501293D

 23 24  0  0  0  0  0  0  0  0999 V2000
   36.3830   30.6020   46.8420 C   0  0  0  0  0  0  0  0  0  0  0  0
   37.5790   31.1930   47.1930 C   0  0  0  0  0  0  0  0  0  0  0  0
   38.6150   31.2410   46.2800 C   0  0  0  0  0  0  0  0  0  0  0  0
   39.5240   31.7100   46.5970 H   0  0  0  0  0  0  0  0  0  0  0  0
   38.5280   30.7260   45.0170 C   0  0  0  0  0  0  0  0  0  0  0  0
   39.3980   30.8110   44.3690 H   0  0  0  0  0  0  0  0  0  0  0  0
   37.3320   30.1290   44.6530 C   0  0  0  0  0  3  0  0  0  0  0  0
   36.2730   30.0730   45.5650 C   0  0  0  0  0  3  0  0  0  0  0  0
   34.8940   31.2740   48.8630 H   0  0  0  0  0  0  0  0  0  0  0  0
   34.9590   30.4260   47.8100 S   0  0  0  0  0  0  0  0  0  0  0  0
   34.9020   28.9950   48.3160 O   0  0  0  0  0  0  0  0  0  0  0  0
   33.7000   30.5840   46.9660 O   0  0  0  0  0  0  0  0  0  0  0  0
   37.6190   31.7270   48.5510 C   0  0  0  0  0  0  0  0  0  0  0  0
   37.6810   32.9620   48.7070 O   0  0  0  0  0  0  0  0  0  0  0  0
   37.1000   30.1770   51.9140 C   0  0  0  0  0  0  0  0  0  0  0  0
   37.1120   31.1360   50.8990 C   0  0  0  0  0  0  0  0  0  0  0  0
   37.5840   30.7670   49.6460 C   0  0  0  0  0  0  0  0  0  0  0  0
   38.0010   29.4900   49.5070 N   0  0  0  0  0  0  0  0  0  0  0  0
   37.9840   28.5820   50.4860 C   0  0  0  0  0  0  0  0  0  0  0  0
   37.5340   28.9150   51.6950 N   0  0  0  0  0  0  0  0  0  0  0  0
   36.7510   30.3890   52.9010 H   0  0  0  0  0  0  0  0  0  0  0  0
   36.7550   32.1470   51.1040 H   0  0  0  0  0  0  0  0  0  0  0  0
   38.3450   27.5660   50.2700 H   0  0  0  0  0  0  0  0  0  0  0  0
  1  2  1  0  0  0  0
  1 10  1  0  0  0  0
  2 13  1  0  0  0  0
  3  4  1  0  0  0  0
  3  2  2  0  0  0  0
  5  3  1  0  0  0  0
  6  5  1  0  0  0  0
  7  5  2  0  0  0  0
  7  8  1  0  0  0  0
  8  1  2  0  0  0  0
 10 11  2  0  0  0  0
 10  9  1  0  0  0  0
 12 10  2  0  0  0  0
 13 14  2  0  0  0  0
 13 17  1  0  0  0  0
 15 21  1  0  0  0  0
 16 22  1  0  0  0  0
 16 15  2  0  0  0  0
 17 16  1  0  0  0  0
 18 17  2  0  0  0  0
 18 19  1  0  0  0  0
 19 20  2  0  0  0  0
 20 15  1  0  0  0  0
 23 19  1  0  0  0  0
M  END
>  <minimizedAffinity>
-3.14645576

>  <minimizedRMSD>
1.23091042

$$$$
