
 OpenBabel03272501293D

 23 24  0  0  0  0  0  0  0  0999 V2000
   38.3950   31.2250   45.8150 C   0  0  0  0  0  0  0  0  0  0  0  0
   37.3110   31.0770   46.6550 C   0  0  0  0  0  0  0  0  0  0  0  0
   36.1620   30.4630   46.1940 C   0  0  0  0  0  0  0  0  0  0  0  0
   35.3480   30.3720   46.8810 H   0  0  0  0  0  0  0  0  0  0  0  0
   36.0280   29.9800   44.9220 C   0  0  0  0  0  0  0  0  0  0  0  0
   35.0840   29.5120   44.6500 H   0  0  0  0  0  0  0  0  0  0  0  0
   37.1100   30.1220   44.0690 C   0  0  0  0  0  3  0  0  0  0  0  0
   38.2800   30.7400   44.5210 C   0  0  0  0  0  3  0  0  0  0  0  0
   40.1700   32.1170   47.4910 H   0  0  0  0  0  0  0  0  0  0  0  0
   39.9260   31.9530   46.1690 S   0  0  0  0  0  0  0  0  0  0  0  0
   39.9780   33.3060   45.4800 O   0  0  0  0  0  0  0  0  0  0  0  0
   41.0670   31.1600   45.5460 O   0  0  0  0  0  0  0  0  0  0  0  0
   37.5060   31.6110   48.0010 C   0  0  0  0  0  0  0  0  0  0  0  0
   38.0810   32.7080   48.1310 O   0  0  0  0  0  0  0  0  0  0  0  0
   37.3560   29.4970   51.0820 C   0  0  0  0  0  0  0  0  0  0  0  0
   37.8850   30.2540   50.0340 C   0  0  0  0  0  0  0  0  0  0  0  0
   37.0080   30.8120   49.1120 C   0  0  0  0  0  0  0  0  0  0  0  0
   35.6940   30.5730   49.3060 N   0  0  0  0  0  0  0  0  0  0  0  0
   35.2000   29.8470   50.3120 C   0  0  0  0  0  0  0  0  0  0  0  0
   36.0240   29.3040   51.2070 N   0  0  0  0  0  0  0  0  0  0  0  0
   37.9690   29.0390   51.8260 H   0  0  0  0  0  0  0  0  0  0  0  0
   38.9650   30.3940   49.9580 H   0  0  0  0  0  0  0  0  0  0  0  0
   34.1110   29.7130   50.3810 H   0  0  0  0  0  0  0  0  0  0  0  0
  1 10  1  0  0  0  0
  1  2  1  0  0  0  0
  2 13  1  0  0  0  0
  3  2  2  0  0  0  0
  3  4  1  0  0  0  0
  5  3  1  0  0  0  0
  6  5  1  0  0  0  0
  7  8  1  0  0  0  0
  7  5  2  0  0  0  0
  8  1  2  0  0  0  0
 10  9  1  0  0  0  0
 11 10  2  0  0  0  0
 12 10  2  0  0  0  0
 13 14  2  0  0  0  0
 13 17  1  0  0  0  0
 15 20  1  0  0  0  0
 15 21  1  0  0  0  0
 16 15  2  0  0  0  0
 17 18  2  0  0  0  0
 17 16  1  0  0  0  0
 18 19  1  0  0  0  0
 19 23  1  0  0  0  0
 19 20  2  0  0  0  0
 22 16  1  0  0  0  0
M  END
>  <minimizedAffinity>
-4.78717184

>  <minimizedRMSD>
1.49218178

$$$$
