
 OpenBabel03272501293D

 23 24  0  0  0  0  0  0  0  0999 V2000
   38.5270   31.2630   45.6510 C   0  0  0  0  0  0  0  0  0  0  0  0
   37.4200   31.0920   46.4560 C   0  0  0  0  0  0  0  0  0  0  0  0
   36.2960   30.4640   45.9550 C   0  0  0  0  0  0  0  0  0  0  0  0
   35.4620   30.3540   46.6150 H   0  0  0  0  0  0  0  0  0  0  0  0
   36.2090   29.9890   44.6760 C   0  0  0  0  0  0  0  0  0  0  0  0
   35.2820   29.5090   44.3720 H   0  0  0  0  0  0  0  0  0  0  0  0
   37.3140   30.1550   43.8570 C   0  0  0  0  0  3  0  0  0  0  0  0
   38.4600   30.7880   44.3500 C   0  0  0  0  0  3  0  0  0  0  0  0
   40.2370   32.1640   47.3880 H   0  0  0  0  0  0  0  0  0  0  0  0
   40.0330   32.0130   46.0590 S   0  0  0  0  0  0  0  0  0  0  0  0
   40.0820   33.3750   45.3870 O   0  0  0  0  0  0  0  0  0  0  0  0
   41.2060   31.2470   45.4590 O   0  0  0  0  0  0  0  0  0  0  0  0
   37.5640   31.6170   47.8110 C   0  0  0  0  0  0  0  0  0  0  0  0
   38.1430   32.7100   47.9700 O   0  0  0  0  0  0  0  0  0  0  0  0
   37.2780   29.3920   50.8020 C   0  0  0  0  0  0  0  0  0  0  0  0
   37.8550   30.1450   49.7770 C   0  0  0  0  0  0  0  0  0  0  0  0
   37.0160   30.8180   48.8980 C   0  0  0  0  0  0  0  0  0  0  0  0
   35.6890   30.6870   49.1070 N   0  0  0  0  0  0  0  0  0  0  0  0
   35.1490   29.9640   50.0910 C   0  0  0  0  0  0  0  0  0  0  0  0
   35.9360   29.3110   50.9460 N   0  0  0  0  0  0  0  0  0  0  0  0
   37.8600   28.8500   51.5140 H   0  0  0  0  0  0  0  0  0  0  0  0
   38.9420   30.1930   49.6850 H   0  0  0  0  0  0  0  0  0  0  0  0
   34.0540   29.9230   50.1770 H   0  0  0  0  0  0  0  0  0  0  0  0
  1 10  1  0  0  0  0
  1  2  1  0  0  0  0
  2 13  1  0  0  0  0
  3  2  2  0  0  0  0
  3  4  1  0  0  0  0
  5  3  1  0  0  0  0
  6  5  1  0  0  0  0
  7  8  1  0  0  0  0
  7  5  2  0  0  0  0
  8  1  2  0  0  0  0
 10  9  1  0  0  0  0
 11 10  2  0  0  0  0
 12 10  2  0  0  0  0
 13 14  2  0  0  0  0
 13 17  1  0  0  0  0
 15 20  1  0  0  0  0
 15 21  1  0  0  0  0
 16 15  2  0  0  0  0
 17 18  2  0  0  0  0
 17 16  1  0  0  0  0
 18 19  1  0  0  0  0
 19 23  1  0  0  0  0
 19 20  2  0  0  0  0
 22 16  1  0  0  0  0
M  END
>  <minimizedAffinity>
-4.7574625

>  <minimizedRMSD>
1.23328471

$$$$
