
 OpenBabel03272509183D

 38 41  0  0  0  0  0  0  0  0999 V2000
   37.9980   31.4020   47.6430 C   0  0  0  0  0  0  0  0  0  0  0  0
   37.0930   31.3180   48.6950 C   0  0  0  0  0  0  0  0  0  0  0  0
   37.2250   32.3290   49.6460 C   0  0  0  0  0  0  0  0  0  0  0  0
   38.1940   33.3240   49.5230 C   0  0  0  0  0  0  0  0  0  0  0  0
   39.0600   33.3210   48.4260 C   0  0  0  0  0  0  0  0  0  0  0  0
   38.9530   32.3350   47.4690 C   0  0  0  0  0  0  0  0  0  0  0  0
   36.5660   32.3490   50.5030 H   0  0  0  0  0  0  0  0  0  0  0  0
   38.2640   34.0950   50.2890 H   0  0  0  0  0  0  0  0  0  0  0  0
   39.8010   34.0960   48.3480 H   0  0  0  0  0  0  0  0  0  0  0  0
   34.9430   30.3500   48.0240 C   0  0  0  0  0  0  0  0  0  0  0  0
   36.1010   30.2980   48.8200 C   0  0  0  0  0  0  0  0  0  0  0  0
   36.2280   29.2340   49.7100 C   0  0  0  0  0  0  0  0  0  0  0  0
   35.2270   28.3090   49.7580 N   0  0  0  0  0  0  0  0  0  0  0  0
   34.1190   28.3930   48.9710 C   0  0  0  0  0  0  0  0  0  0  0  0
   33.9830   29.4120   48.1100 N   0  0  0  0  0  0  0  0  0  0  0  0
   34.8140   31.1690   47.3200 H   0  0  0  0  0  0  0  0  0  0  0  0
   33.3320   27.6560   49.0160 H   0  0  0  0  0  0  0  0  0  0  0  0
   37.4150   29.1220   50.5700 C   0  0  0  0  0  0  0  0  0  0  0  0
   37.0450   28.9070   51.6100 H   0  0  0  0  0  0  0  0  0  0  0  0
   38.0340   28.2680   50.2390 H   0  0  0  0  0  0  0  0  0  0  0  0
   37.9690   30.0760   50.5420 H   0  0  0  0  0  0  0  0  0  0  0  0
   37.9250   30.4070   46.6320 O   0  0  0  0  0  0  0  0  0  0  0  0
   38.6990   29.7500   46.6310 H   0  0  0  0  0  0  0  0  0  0  0  0
   39.8190   32.3600   46.4000 O   0  0  0  0  0  0  0  0  0  0  0  0
   40.9980   32.9630   43.8780 H   0  0  0  0  0  0  0  0  0  0  0  0
   39.9940   32.7780   43.9350 N   0  0  0  0  0  0  0  0  0  0  0  0
   39.3940   32.4890   45.1030 C   0  0  0  0  0  0  0  0  0  0  0  0
   38.0850   32.3060   44.8010 N   0  0  0  0  0  0  0  0  0  0  0  0
   37.8950   32.4810   43.4830 C   0  0  0  0  0  0  0  0  0  0  0  0
   36.8430   32.4400   42.5700 C   0  0  0  0  0  0  0  0  0  0  0  0
   37.0410   32.6800   41.2610 N   0  0  0  0  0  0  0  0  0  0  0  0
   38.2790   32.9740   40.7810 C   0  0  0  0  0  0  0  0  0  0  0  0
   38.4970   33.1750   39.7440 H   0  0  0  0  0  0  0  0  0  0  0  0
   39.3510   33.0310   41.6060 N   0  0  0  0  0  0  0  0  0  0  0  0
   39.1200   32.7860   42.9120 C   0  0  0  0  0  0  0  0  0  0  0  0
   35.5540   32.1320   43.0910 N   0  0  0  0  0  0  0  0  0  0  0  0
   34.9170   32.7210   43.6810 H   0  0  0  0  0  0  0  0  0  0  0  0
   35.3210   31.1610   42.7750 H   0  0  0  0  0  0  0  0  0  0  0  0
  1  2  1  0  0  0  0
  2 11  1  0  0  0  0
  2  3  2  0  0  0  0
  3  7  1  0  0  0  0
  4  3  1  0  0  0  0
  4  8  1  0  0  0  0
  5  4  2  0  0  0  0
  6  1  2  0  0  0  0
  6  5  1  0  0  0  0
  9  5  1  0  0  0  0
 10 15  2  0  0  0  0
 10 11  1  0  0  0  0
 11 12  2  0  0  0  0
 12 13  1  0  0  0  0
 12 18  1  0  0  0  0
 14 17  1  0  0  0  0
 14 13  2  0  0  0  0
 15 14  1  0  0  0  0
 16 10  1  0  0  0  0
 18 19  1  0  0  0  0
 20 18  1  0  0  0  0
 21 18  1  0  0  0  0
 22  1  1  0  0  0  0
 23 22  1  0  0  0  0
 24  6  1  0  0  0  0
 25 26  1  0  0  0  0
 26 27  1  0  0  0  0
 27 24  1  0  0  0  0
 28 27  2  0  0  0  0
 29 28  1  0  0  0  0
 30 36  1  0  0  0  0
 30 29  2  0  0  0  0
 31 30  1  0  0  0  0
 32 31  2  0  0  0  0
 32 34  1  0  0  0  0
 33 32  1  0  0  0  0
 34 35  2  0  0  0  0
 35 29  1  0  0  0  0
 35 26  1  0  0  0  0
 36 37  1  0  0  0  0
 38 36  1  0  0  0  0
M  END
>  <minimizedAffinity>
-7.15929985

>  <minimizedRMSD>
0.112079546

$$$$
