
 OpenBabel03272508293D

 43 47  0  0  1  0  0  0  0  0999 V2000
   37.3630   27.4590   34.1250 C   0  0  2  0  0  0  0  0  0  0  0  0
   36.3850   27.7670   33.0030 C   0  0  2  0  0  0  0  0  0  0  0  0
   37.1530   28.0770   31.9160 O   0  0  0  0  0  0  0  0  0  0  0  0
   38.3890   27.5090   32.0270 C   0  0  0  0  0  0  0  0  0  0  0  0
   38.4350   26.7230   33.3180 C   0  0  1  0  0  0  0  0  0  0  0  0
   37.8360   28.3630   34.5300 H   0  0  0  0  0  0  0  0  0  0  0  0
   35.8000   26.8300   32.8630 H   0  0  0  0  0  0  0  0  0  0  0  0
   38.5460   26.7550   31.2020 H   0  0  0  0  0  0  0  0  0  0  0  0
   39.1730   28.2700   31.9480 H   0  0  0  0  0  0  0  0  0  0  0  0
   38.0270   25.7040   33.1410 H   0  0  0  0  0  0  0  0  0  0  0  0
   36.0590   29.9920   34.2860 C   0  0  1  0  0  0  0  0  0  0  0  0
   35.5590   28.9340   33.4420 C   0  0  1  0  0  0  0  0  0  0  0  0
   35.7110   30.2840   32.8180 C   0  0  0  0  0  0  0  0  0  0  0  0
   37.1140   30.2610   34.4850 H   0  0  0  0  0  0  0  0  0  0  0  0
   34.4810   28.6420   33.6110 H   0  0  0  0  0  0  0  0  0  0  0  0
   36.5440   30.3260   32.0860 H   0  0  0  0  0  0  0  0  0  0  0  0
   34.8320   30.9070   32.6010 H   0  0  0  0  0  0  0  0  0  0  0  0
   35.1410   30.7370   35.2420 C   0  0  0  0  0  0  0  0  0  0  0  0
   35.7180   31.7250   36.0400 C   0  0  0  0  0  0  0  0  0  0  0  0
   34.8350   32.3520   36.9120 C   0  0  0  0  0  0  0  0  0  0  0  0
   33.5100   32.0030   36.9590 N   0  0  0  0  0  0  0  0  0  0  0  0
   33.0020   31.0340   36.1610 C   0  0  0  0  0  0  0  0  0  0  0  0
   33.8270   30.3970   35.2950 N   0  0  0  0  0  0  0  0  0  0  0  0
   36.7490   31.9730   35.9800 H   0  0  0  0  0  0  0  0  0  0  0  0
   35.1800   33.1320   37.5740 H   0  0  0  0  0  0  0  0  0  0  0  0
   31.9520   30.7980   36.2380 H   0  0  0  0  0  0  0  0  0  0  0  0
   36.8310   26.6560   35.1160 O   0  0  0  0  0  0  0  0  0  0  0  0
   37.5610   26.3560   35.6820 H   0  0  0  0  0  0  0  0  0  0  0  0
   39.6460   26.7180   33.9550 O   0  0  0  0  0  0  0  0  0  0  0  0
   42.1480   25.3950   34.2660 H   0  0  0  0  0  0  0  0  0  0  0  0
   41.2950   25.0490   34.7460 N   0  0  0  0  0  0  0  0  0  0  0  0
   40.0720   25.6010   34.6630 C   0  0  0  0  0  0  0  0  0  0  0  0
   39.2920   24.8230   35.4410 N   0  0  0  0  0  0  0  0  0  0  0  0
   40.0030   23.8190   35.9900 C   0  0  0  0  0  0  0  0  0  0  0  0
   39.6920   22.7770   36.8390 C   0  0  0  0  0  0  0  0  0  0  0  0
   40.6200   21.8840   37.2490 N   0  0  0  0  0  0  0  0  0  0  0  0
   41.8870   22.0480   36.7950 C   0  0  0  0  0  0  0  0  0  0  0  0
   42.7650   21.4470   37.0040 H   0  0  0  0  0  0  0  0  0  0  0  0
   42.2080   23.0630   35.9630 N   0  0  0  0  0  0  0  0  0  0  0  0
   41.3060   23.9660   35.5370 C   0  0  0  0  0  0  0  0  0  0  0  0
   38.3510   22.6340   37.2970 N   0  0  0  0  0  0  0  0  0  0  0  0
   38.0190   22.7150   38.3010 H   0  0  0  0  0  0  0  0  0  0  0  0
   37.6780   22.4360   36.5460 H   0  0  0  0  0  0  0  0  0  0  0  0
  1  6  1  1  0  0  0
  1 27  1  0  0  0  0
  2  7  1  6  0  0  0
  2 12  1  0  0  0  0
  2  1  1  0  0  0  0
  3  4  1  0  0  0  0
  3  2  1  0  0  0  0
  4  5  1  0  0  0  0
  5 10  1  6  0  0  0
  5 29  1  0  0  0  0
  5  1  1  0  0  0  0
  8  4  1  0  0  0  0
  9  4  1  0  0  0  0
 11 14  1  1  0  0  0
 11 18  1  0  0  0  0
 12 15  1  1  0  0  0
 12 11  1  0  0  0  0
 13 12  1  0  0  0  0
 13 11  1  0  0  0  0
 16 13  1  0  0  0  0
 17 13  1  0  0  0  0
 18 23  2  0  0  0  0
 18 19  1  0  0  0  0
 19 20  2  0  0  0  0
 20 21  1  0  0  0  0
 20 25  1  0  0  0  0
 22 26  1  0  0  0  0
 22 21  2  0  0  0  0
 23 22  1  0  0  0  0
 24 19  1  0  0  0  0
 27 28  1  0  0  0  0
 29 32  1  0  0  0  0
 30 31  1  0  0  0  0
 31 40  1  0  0  0  0
 32 31  1  0  0  0  0
 32 33  2  0  0  0  0
 33 34  1  0  0  0  0
 34 35  1  0  0  0  0
 35 36  2  0  0  0  0
 35 41  1  0  0  0  0
 37 38  1  0  0  0  0
 37 36  1  0  0  0  0
 39 37  2  0  0  0  0
 40 39  1  0  0  0  0
 40 34  2  0  0  0  0
 41 42  1  0  0  0  0
 43 41  1  0  0  0  0
M  END
>  <minimizedAffinity>
-5.85646296

$$$$

 OpenBabel03272508293D

 43 47  0  0  1  0  0  0  0  0999 V2000
   38.5030   25.4510   32.3840 C   0  0  2  0  0  0  0  0  0  0  0  0
   37.6040   25.7750   31.2030 C   0  0  2  0  0  0  0  0  0  0  0  0
   36.8070   26.8060   31.6140 O   0  0  0  0  0  0  0  0  0  0  0  0
   37.4080   27.5000   32.6230 C   0  0  0  0  0  0  0  0  0  0  0  0
   38.7570   26.8720   32.8940 C   0  0  1  0  0  0  0  0  0  0  0  0
   37.9710   24.9180   33.1830 H   0  0  0  0  0  0  0  0  0  0  0  0
   38.2970   26.0690   30.3820 H   0  0  0  0  0  0  0  0  0  0  0  0
   37.6220   28.5580   32.2930 H   0  0  0  0  0  0  0  0  0  0  0  0
   36.7580   27.5420   33.5050 H   0  0  0  0  0  0  0  0  0  0  0  0
   39.5090   27.3070   32.2000 H   0  0  0  0  0  0  0  0  0  0  0  0
   36.3160   23.6470   31.9220 C   0  0  1  0  0  0  0  0  0  0  0  0
   36.8020   24.5480   30.9040 C   0  0  1  0  0  0  0  0  0  0  0  0
   35.3240   24.5030   31.1190 C   0  0  0  0  0  0  0  0  0  0  0  0
   36.1970   23.8450   33.0040 H   0  0  0  0  0  0  0  0  0  0  0  0
   37.1250   24.0640   29.9360 H   0  0  0  0  0  0  0  0  0  0  0  0
   34.9310   25.4250   31.5950 H   0  0  0  0  0  0  0  0  0  0  0  0
   34.6640   24.0020   30.3970 H   0  0  0  0  0  0  0  0  0  0  0  0
   36.1380   22.1640   31.6390 C   0  0  0  0  0  0  0  0  0  0  0  0
   35.0940   21.5110   32.2950 C   0  0  0  0  0  0  0  0  0  0  0  0
   34.9980   20.1520   32.0180 C   0  0  0  0  0  0  0  0  0  0  0  0
   35.8760   19.5340   31.1650 N   0  0  0  0  0  0  0  0  0  0  0  0
   36.8730   20.2160   30.5540 C   0  0  0  0  0  0  0  0  0  0  0  0
   37.0030   21.5430   30.7950 N   0  0  0  0  0  0  0  0  0  0  0  0
   34.4300   22.0180   32.9510 H   0  0  0  0  0  0  0  0  0  0  0  0
   34.2240   19.5530   32.4750 H   0  0  0  0  0  0  0  0  0  0  0  0
   37.5360   19.6810   29.8920 H   0  0  0  0  0  0  0  0  0  0  0  0
   39.6800   24.8210   32.0260 O   0  0  0  0  0  0  0  0  0  0  0  0
   40.2670   24.8240   32.7990 H   0  0  0  0  0  0  0  0  0  0  0  0
   39.1550   26.8860   34.2020 O   0  0  0  0  0  0  0  0  0  0  0  0
   41.6740   25.5570   34.2090 H   0  0  0  0  0  0  0  0  0  0  0  0
   40.8680   25.1840   34.7490 N   0  0  0  0  0  0  0  0  0  0  0  0
   39.6450   25.7370   34.8090 C   0  0  0  0  0  0  0  0  0  0  0  0
   38.9400   24.9180   35.6170 N   0  0  0  0  0  0  0  0  0  0  0  0
   39.6980   23.8890   36.0460 C   0  0  0  0  0  0  0  0  0  0  0  0
   39.4660   22.8050   36.8660 C   0  0  0  0  0  0  0  0  0  0  0  0
   40.4270   21.8950   37.1410 N   0  0  0  0  0  0  0  0  0  0  0  0
   41.6460   22.0860   36.5780 C   0  0  0  0  0  0  0  0  0  0  0  0
   42.5390   21.4770   36.6730 H   0  0  0  0  0  0  0  0  0  0  0  0
   41.8890   23.1420   35.7730 N   0  0  0  0  0  0  0  0  0  0  0  0
   40.9520   24.0630   35.4800 C   0  0  0  0  0  0  0  0  0  0  0  0
   38.1740   22.6350   37.4410 N   0  0  0  0  0  0  0  0  0  0  0  0
   37.9380   22.6630   38.4740 H   0  0  0  0  0  0  0  0  0  0  0  0
   37.4330   22.4720   36.7470 H   0  0  0  0  0  0  0  0  0  0  0  0
  1  5  1  0  0  0  0
  1  6  1  1  0  0  0
  2  7  1  6  0  0  0
  2  3  1  0  0  0  0
  2  1  1  0  0  0  0
  3  4  1  0  0  0  0
  4  5  1  0  0  0  0
  4  9  1  0  0  0  0
  5 10  1  6  0  0  0
  5 29  1  0  0  0  0
  8  4  1  0  0  0  0
 11 14  1  1  0  0  0
 12 15  1  6  0  0  0
 12 13  1  0  0  0  0
 12  2  1  0  0  0  0
 12 11  1  0  0  0  0
 13 16  1  0  0  0  0
 13 11  1  0  0  0  0
 17 13  1  0  0  0  0
 18 11  1  0  0  0  0
 18 19  1  0  0  0  0
 19 24  1  0  0  0  0
 20 19  2  0  0  0  0
 20 25  1  0  0  0  0
 21 20  1  0  0  0  0
 22 23  1  0  0  0  0
 22 21  2  0  0  0  0
 23 18  2  0  0  0  0
 26 22  1  0  0  0  0
 27  1  1  0  0  0  0
 27 28  1  0  0  0  0
 29 32  1  0  0  0  0
 30 31  1  0  0  0  0
 31 32  1  0  0  0  0
 31 40  1  0  0  0  0
 32 33  2  0  0  0  0
 33 34  1  0  0  0  0
 34 35  1  0  0  0  0
 35 36  2  0  0  0  0
 35 41  1  0  0  0  0
 37 38  1  0  0  0  0
 37 36  1  0  0  0  0
 39 37  2  0  0  0  0
 40 39  1  0  0  0  0
 40 34  2  0  0  0  0
 41 42  1  0  0  0  0
 43 41  1  0  0  0  0
M  END
>  <minimizedAffinity>
-5.84103012

$$$$

 OpenBabel03272508293D

 43 47  0  0  1  0  0  0  0  0999 V2000
   37.4810   26.6750   32.9320 C   0  0  2  0  0  0  0  0  0  0  0  0
   38.8800   27.1660   33.2590 C   0  0  2  0  0  0  0  0  0  0  0  0
   39.6670   26.7690   32.2150 O   0  0  0  0  0  0  0  0  0  0  0  0
   38.9150   26.5940   31.0900 C   0  0  0  0  0  0  0  0  0  0  0  0
   37.4790   26.9310   31.4230 C   0  0  1  0  0  0  0  0  0  0  0  0
   37.3730   25.5910   33.0690 H   0  0  0  0  0  0  0  0  0  0  0  0
   38.7890   28.2740   33.3310 H   0  0  0  0  0  0  0  0  0  0  0  0
   39.2280   27.3300   30.2940 H   0  0  0  0  0  0  0  0  0  0  0  0
   39.0470   25.5820   30.6900 H   0  0  0  0  0  0  0  0  0  0  0  0
   37.3240   28.0260   31.3070 H   0  0  0  0  0  0  0  0  0  0  0  0
   39.4650   25.0860   34.6840 C   0  0  1  0  0  0  0  0  0  0  0  0
   39.2940   26.5110   34.5380 C   0  0  1  0  0  0  0  0  0  0  0  0
   40.6880   26.0140   34.7510 C   0  0  0  0  0  0  0  0  0  0  0  0
   39.6050   24.3330   33.8850 H   0  0  0  0  0  0  0  0  0  0  0  0
   38.8720   27.0480   35.4380 H   0  0  0  0  0  0  0  0  0  0  0  0
   41.3200   26.1060   33.8440 H   0  0  0  0  0  0  0  0  0  0  0  0
   41.1920   26.1470   35.7190 H   0  0  0  0  0  0  0  0  0  0  0  0
   39.2080   24.3940   36.0130 C   0  0  0  0  0  0  0  0  0  0  0  0
   38.1340   24.8560   36.7760 C   0  0  0  0  0  0  0  0  0  0  0  0
   37.9670   24.2030   37.9920 C   0  0  0  0  0  0  0  0  0  0  0  0
   38.8070   23.1920   38.3800 N   0  0  0  0  0  0  0  0  0  0  0  0
   39.8350   22.7820   37.6010 C   0  0  0  0  0  0  0  0  0  0  0  0
   40.0350   23.3910   36.4070 N   0  0  0  0  0  0  0  0  0  0  0  0
   37.5010   25.6430   36.4460 H   0  0  0  0  0  0  0  0  0  0  0  0
   37.1640   24.4840   38.6580 H   0  0  0  0  0  0  0  0  0  0  0  0
   40.4660   21.9820   37.9550 H   0  0  0  0  0  0  0  0  0  0  0  0
   36.4820   27.3850   33.5700 O   0  0  0  0  0  0  0  0  0  0  0  0
   35.6340   27.1380   33.1660 H   0  0  0  0  0  0  0  0  0  0  0  0
   36.5380   26.1800   30.7740 O   0  0  0  0  0  0  0  0  0  0  0  0
   34.5940   24.5680   32.0900 H   0  0  0  0  0  0  0  0  0  0  0  0
   35.4440   24.1460   31.6670 N   0  0  0  0  0  0  0  0  0  0  0  0
   36.4150   24.8200   31.0270 C   0  0  0  0  0  0  0  0  0  0  0  0
   37.3000   23.8720   30.6560 N   0  0  0  0  0  0  0  0  0  0  0  0
   36.8950   22.6490   31.0510 C   0  0  0  0  0  0  0  0  0  0  0  0
   37.4200   21.3790   30.9260 C   0  0  0  0  0  0  0  0  0  0  0  0
   36.7940   20.2910   31.4280 N   0  0  0  0  0  0  0  0  0  0  0  0
   35.6130   20.4910   32.0660 C   0  0  0  0  0  0  0  0  0  0  0  0
   34.9640   19.7580   32.5330 H   0  0  0  0  0  0  0  0  0  0  0  0
   35.0870   21.7270   32.1970 N   0  0  0  0  0  0  0  0  0  0  0  0
   35.6880   22.8280   31.7090 C   0  0  0  0  0  0  0  0  0  0  0  0
   38.6610   21.2060   30.2500 N   0  0  0  0  0  0  0  0  0  0  0  0
   38.8140   20.6710   29.3470 H   0  0  0  0  0  0  0  0  0  0  0  0
   39.4530   21.6610   30.7200 H   0  0  0  0  0  0  0  0  0  0  0  0
  1  6  1  1  0  0  0
  1  2  1  0  0  0  0
  1 27  1  0  0  0  0
  2  7  1  1  0  0  0
  2 12  1  0  0  0  0
  3  2  1  0  0  0  0
  4  5  1  0  0  0  0
  4  3  1  0  0  0  0
  5 10  1  6  0  0  0
  5  1  1  0  0  0  0
  8  4  1  0  0  0  0
  9  4  1  0  0  0  0
 11 14  1  6  0  0  0
 11 13  1  0  0  0  0
 11 18  1  0  0  0  0
 12 11  1  0  0  0  0
 12 13  1  0  0  0  0
 12 15  1  1  0  0  0
 13 17  1  0  0  0  0
 16 13  1  0  0  0  0
 18 23  2  0  0  0  0
 18 19  1  0  0  0  0
 19 20  2  0  0  0  0
 20 21  1  0  0  0  0
 20 25  1  0  0  0  0
 22 26  1  0  0  0  0
 22 21  2  0  0  0  0
 23 22  1  0  0  0  0
 24 19  1  0  0  0  0
 28 27  1  0  0  0  0
 29 32  1  0  0  0  0
 29  5  1  0  0  0  0
 31 40  1  0  0  0  0
 31 30  1  0  0  0  0
 32 31  1  0  0  0  0
 33 32  2  0  0  0  0
 33 34  1  0  0  0  0
 34 40  1  0  0  0  0
 35 34  2  0  0  0  0
 35 36  1  0  0  0  0
 36 37  2  0  0  0  0
 37 39  1  0  0  0  0
 37 38  1  0  0  0  0
 40 39  2  0  0  0  0
 41 43  1  0  0  0  0
 41 35  1  0  0  0  0
 42 41  1  0  0  0  0
M  END
>  <minimizedAffinity>
-5.79844713

$$$$

 OpenBabel03272508293D

 43 47  0  0  1  0  0  0  0  0999 V2000
   36.9120   25.8160   31.7530 C   0  0  2  0  0  0  0  0  0  0  0  0
   37.5450   27.1160   31.2880 C   0  0  2  0  0  0  0  0  0  0  0  0
   38.2990   27.5590   32.3380 O   0  0  0  0  0  0  0  0  0  0  0  0
   38.6520   26.5170   33.1450 C   0  0  0  0  0  0  0  0  0  0  0  0
   38.0870   25.2460   32.5520 C   0  0  1  0  0  0  0  0  0  0  0  0
   36.0930   25.9780   32.4670 H   0  0  0  0  0  0  0  0  0  0  0  0
   38.1610   26.8390   30.4030 H   0  0  0  0  0  0  0  0  0  0  0  0
   39.7740   26.3860   33.1420 H   0  0  0  0  0  0  0  0  0  0  0  0
   38.3330   26.7000   34.1770 H   0  0  0  0  0  0  0  0  0  0  0  0
   38.7970   24.8480   31.7950 H   0  0  0  0  0  0  0  0  0  0  0  0
   36.2370   29.3190   31.6610 C   0  0  1  0  0  0  0  0  0  0  0  0
   36.4320   28.0650   30.9740 C   0  0  1  0  0  0  0  0  0  0  0  0
   36.6620   29.3130   30.1840 C   0  0  0  0  0  0  0  0  0  0  0  0
   36.9720   29.8860   32.2640 H   0  0  0  0  0  0  0  0  0  0  0  0
   35.4890   27.5190   30.6760 H   0  0  0  0  0  0  0  0  0  0  0  0
   37.7340   29.4820   29.9530 H   0  0  0  0  0  0  0  0  0  0  0  0
   35.9370   29.6440   29.4280 H   0  0  0  0  0  0  0  0  0  0  0  0
   34.8470   29.9080   31.8450 C   0  0  0  0  0  0  0  0  0  0  0  0
   33.9570   29.2020   32.6540 C   0  0  0  0  0  0  0  0  0  0  0  0
   32.6950   29.7760   32.7620 C   0  0  0  0  0  0  0  0  0  0  0  0
   32.3830   30.9420   32.1110 N   0  0  0  0  0  0  0  0  0  0  0  0
   33.2870   31.5870   31.3360 C   0  0  0  0  0  0  0  0  0  0  0  0
   34.5290   31.0630   31.2040 N   0  0  0  0  0  0  0  0  0  0  0  0
   34.2300   28.3010   33.1450 H   0  0  0  0  0  0  0  0  0  0  0  0
   31.9310   29.3090   33.3660 H   0  0  0  0  0  0  0  0  0  0  0  0
   32.9890   32.5010   30.8460 H   0  0  0  0  0  0  0  0  0  0  0  0
   36.5470   24.9770   30.7180 O   0  0  0  0  0  0  0  0  0  0  0  0
   36.3330   24.1090   31.0960 H   0  0  0  0  0  0  0  0  0  0  0  0
   37.6840   24.3070   33.4620 O   0  0  0  0  0  0  0  0  0  0  0  0
   40.1070   22.8950   32.9690 H   0  0  0  0  0  0  0  0  0  0  0  0
   39.7380   23.0080   33.9340 N   0  0  0  0  0  0  0  0  0  0  0  0
   38.6080   23.6550   34.2680 C   0  0  0  0  0  0  0  0  0  0  0  0
   38.5360   23.5450   35.6100 N   0  0  0  0  0  0  0  0  0  0  0  0
   39.5850   22.8530   36.0970 C   0  0  0  0  0  0  0  0  0  0  0  0
   39.9760   22.4720   37.3640 C   0  0  0  0  0  0  0  0  0  0  0  0
   41.1050   21.7620   37.5830 N   0  0  0  0  0  0  0  0  0  0  0  0
   41.8540   21.4330   36.5010 C   0  0  0  0  0  0  0  0  0  0  0  0
   42.7830   20.8730   36.4650 H   0  0  0  0  0  0  0  0  0  0  0  0
   41.4850   21.7980   35.2550 N   0  0  0  0  0  0  0  0  0  0  0  0
   40.3660   22.5040   35.0060 C   0  0  0  0  0  0  0  0  0  0  0  0
   39.1660   22.8340   38.4780 N   0  0  0  0  0  0  0  0  0  0  0  0
   39.4450   23.4780   39.2740 H   0  0  0  0  0  0  0  0  0  0  0  0
   38.2310   22.4070   38.4630 H   0  0  0  0  0  0  0  0  0  0  0  0
  1  6  1  1  0  0  0
  1  5  1  0  0  0  0
  2  7  1  6  0  0  0
  2  1  1  0  0  0  0
  2  3  1  0  0  0  0
  3  4  1  0  0  0  0
  4  9  1  0  0  0  0
  5 10  1  6  0  0  0
  5  4  1  0  0  0  0
  5 29  1  0  0  0  0
  8  4  1  0  0  0  0
 11 18  1  0  0  0  0
 11 14  1  1  0  0  0
 12 15  1  6  0  0  0
 12  2  1  0  0  0  0
 12 11  1  0  0  0  0
 13 12  1  0  0  0  0
 13 11  1  0  0  0  0
 16 13  1  0  0  0  0
 17 13  1  0  0  0  0
 18 19  1  0  0  0  0
 19 20  2  0  0  0  0
 19 24  1  0  0  0  0
 20 25  1  0  0  0  0
 21 20  1  0  0  0  0
 22 21  2  0  0  0  0
 23 22  1  0  0  0  0
 23 18  2  0  0  0  0
 26 22  1  0  0  0  0
 27 28  1  0  0  0  0
 27  1  1  0  0  0  0
 29 32  1  0  0  0  0
 30 31  1  0  0  0  0
 31 32  1  0  0  0  0
 31 40  1  0  0  0  0
 32 33  2  0  0  0  0
 33 34  1  0  0  0  0
 34 35  1  0  0  0  0
 35 36  2  0  0  0  0
 35 41  1  0  0  0  0
 37 36  1  0  0  0  0
 38 37  1  0  0  0  0
 39 37  2  0  0  0  0
 40 39  1  0  0  0  0
 40 34  2  0  0  0  0
 41 42  1  0  0  0  0
 43 41  1  0  0  0  0
M  END
>  <minimizedAffinity>
-5.76212645

$$$$

 OpenBabel03272508293D

 43 47  0  0  1  0  0  0  0  0999 V2000
   37.3830   24.5480   32.3380 C   0  0  2  0  0  0  0  0  0  0  0  0
   37.6470   23.0820   32.0400 C   0  0  2  0  0  0  0  0  0  0  0  0
   36.4500   22.5640   31.6330 O   0  0  0  0  0  0  0  0  0  0  0  0
   35.6490   23.5490   31.1340 C   0  0  0  0  0  0  0  0  0  0  0  0
   36.4080   24.8560   31.2000 C   0  0  1  0  0  0  0  0  0  0  0  0
   36.8320   24.6930   33.2760 H   0  0  0  0  0  0  0  0  0  0  0  0
   38.4130   23.0840   31.2310 H   0  0  0  0  0  0  0  0  0  0  0  0
   35.4450   23.3660   30.0390 H   0  0  0  0  0  0  0  0  0  0  0  0
   34.6890   23.5710   31.6610 H   0  0  0  0  0  0  0  0  0  0  0  0
   37.0360   24.9600   30.2890 H   0  0  0  0  0  0  0  0  0  0  0  0
   37.7650   22.9370   34.6220 C   0  0  1  0  0  0  0  0  0  0  0  0
   38.1160   22.4470   33.3110 C   0  0  1  0  0  0  0  0  0  0  0  0
   37.2170   21.5850   34.1370 C   0  0  0  0  0  0  0  0  0  0  0  0
   36.9280   23.6070   34.8960 H   0  0  0  0  0  0  0  0  0  0  0  0
   39.1610   22.0300   33.2090 H   0  0  0  0  0  0  0  0  0  0  0  0
   36.1780   21.5550   33.7510 H   0  0  0  0  0  0  0  0  0  0  0  0
   37.5940   20.6670   34.6090 H   0  0  0  0  0  0  0  0  0  0  0  0
   38.7080   22.7720   35.8030 C   0  0  0  0  0  0  0  0  0  0  0  0
   38.2980   23.3020   37.0260 C   0  0  0  0  0  0  0  0  0  0  0  0
   39.2140   23.1440   38.0600 C   0  0  0  0  0  0  0  0  0  0  0  0
   40.4150   22.5130   37.8600 N   0  0  0  0  0  0  0  0  0  0  0  0
   40.7630   22.0160   36.6500 C   0  0  0  0  0  0  0  0  0  0  0  0
   39.9010   22.1480   35.6140 N   0  0  0  0  0  0  0  0  0  0  0  0
   37.3600   23.7860   37.1490 H   0  0  0  0  0  0  0  0  0  0  0  0
   38.9930   23.5190   39.0490 H   0  0  0  0  0  0  0  0  0  0  0  0
   41.7210   21.5290   36.5470 H   0  0  0  0  0  0  0  0  0  0  0  0
   38.5140   25.3390   32.2660 O   0  0  0  0  0  0  0  0  0  0  0  0
   38.2310   26.2680   32.2800 H   0  0  0  0  0  0  0  0  0  0  0  0
   35.6440   25.9600   31.4610 O   0  0  0  0  0  0  0  0  0  0  0  0
   36.8870   26.9360   29.0920 H   0  0  0  0  0  0  0  0  0  0  0  0
   36.6240   27.5790   29.8640 N   0  0  0  0  0  0  0  0  0  0  0  0
   36.0360   27.2170   31.0170 C   0  0  0  0  0  0  0  0  0  0  0  0
   35.8890   28.3690   31.7030 N   0  0  0  0  0  0  0  0  0  0  0  0
   36.3700   29.4150   31.0010 C   0  0  0  0  0  0  0  0  0  0  0  0
   36.4590   30.7700   31.2420 C   0  0  0  0  0  0  0  0  0  0  0  0
   37.0020   31.6240   30.3460 N   0  0  0  0  0  0  0  0  0  0  0  0
   37.4620   31.0980   29.1830 C   0  0  0  0  0  0  0  0  0  0  0  0
   37.9270   31.6080   28.3470 H   0  0  0  0  0  0  0  0  0  0  0  0
   37.3820   29.7740   28.9330 N   0  0  0  0  0  0  0  0  0  0  0  0
   36.8480   28.9000   29.8060 C   0  0  0  0  0  0  0  0  0  0  0  0
   35.9660   31.2890   32.4740 N   0  0  0  0  0  0  0  0  0  0  0  0
   35.1570   31.9640   32.5910 H   0  0  0  0  0  0  0  0  0  0  0  0
   36.4760   30.9450   33.2980 H   0  0  0  0  0  0  0  0  0  0  0  0
  1  6  1  1  0  0  0
  2  7  1  6  0  0  0
  2  1  1  0  0  0  0
  2 12  1  0  0  0  0
  3  2  1  0  0  0  0
  4  5  1  0  0  0  0
  4  3  1  0  0  0  0
  4  9  1  0  0  0  0
  5 10  1  6  0  0  0
  5 29  1  0  0  0  0
  5  1  1  0  0  0  0
  8  4  1  0  0  0  0
 11 14  1  1  0  0  0
 11 18  1  0  0  0  0
 12 15  1  6  0  0  0
 12 13  1  0  0  0  0
 12 11  1  0  0  0  0
 13 17  1  0  0  0  0
 13 11  1  0  0  0  0
 16 13  1  0  0  0  0
 18 19  1  0  0  0  0
 19 24  1  0  0  0  0
 19 20  2  0  0  0  0
 20 25  1  0  0  0  0
 21 20  1  0  0  0  0
 22 21  2  0  0  0  0
 23 18  2  0  0  0  0
 23 22  1  0  0  0  0
 26 22  1  0  0  0  0
 27 28  1  0  0  0  0
 27  1  1  0  0  0  0
 30 31  1  0  0  0  0
 31 32  1  0  0  0  0
 32 29  1  0  0  0  0
 32 33  2  0  0  0  0
 34 35  1  0  0  0  0
 34 33  1  0  0  0  0
 35 41  1  0  0  0  0
 36 35  2  0  0  0  0
 37 36  1  0  0  0  0
 38 37  1  0  0  0  0
 39 37  2  0  0  0  0
 39 40  1  0  0  0  0
 40 31  1  0  0  0  0
 40 34  2  0  0  0  0
 41 42  1  0  0  0  0
 41 43  1  0  0  0  0
M  END
>  <minimizedAffinity>
-5.72380924

$$$$

 OpenBabel03272508293D

 43 47  0  0  1  0  0  0  0  0999 V2000
   36.4380   22.6260   32.1920 C   0  0  2  0  0  0  0  0  0  0  0  0
   36.4450   23.6270   31.0490 C   0  0  2  0  0  0  0  0  0  0  0  0
   37.7610   23.8400   30.7490 O   0  0  0  0  0  0  0  0  0  0  0  0
   38.5170   22.7730   31.1380 C   0  0  0  0  0  0  0  0  0  0  0  0
   37.5980   21.7350   31.7420 C   0  0  1  0  0  0  0  0  0  0  0  0
   36.7360   23.0770   33.1480 H   0  0  0  0  0  0  0  0  0  0  0  0
   35.8910   23.1270   30.2220 H   0  0  0  0  0  0  0  0  0  0  0  0
   38.9880   22.2810   30.2380 H   0  0  0  0  0  0  0  0  0  0  0  0
   39.3210   23.0930   31.8110 H   0  0  0  0  0  0  0  0  0  0  0  0
   37.1860   21.0960   30.9310 H   0  0  0  0  0  0  0  0  0  0  0  0
   36.1760   26.2000   31.1310 C   0  0  1  0  0  0  0  0  0  0  0  0
   35.7860   24.8740   31.5470 C   0  0  1  0  0  0  0  0  0  0  0  0
   34.8110   25.6360   30.7080 C   0  0  0  0  0  0  0  0  0  0  0  0
   36.7600   26.4880   30.2350 H   0  0  0  0  0  0  0  0  0  0  0  0
   35.4630   24.7750   32.6240 H   0  0  0  0  0  0  0  0  0  0  0  0
   34.7140   25.2250   29.6820 H   0  0  0  0  0  0  0  0  0  0  0  0
   33.9040   26.0700   31.1530 H   0  0  0  0  0  0  0  0  0  0  0  0
   36.0290   27.3920   32.0630 C   0  0  0  0  0  0  0  0  0  0  0  0
   36.6020   27.2850   33.3300 C   0  0  0  0  0  0  0  0  0  0  0  0
   36.4120   28.3950   34.1460 C   0  0  0  0  0  0  0  0  0  0  0  0
   35.7120   29.4900   33.7090 N   0  0  0  0  0  0  0  0  0  0  0  0
   35.1760   29.5410   32.4670 C   0  0  0  0  0  0  0  0  0  0  0  0
   35.3380   28.4820   31.6380 N   0  0  0  0  0  0  0  0  0  0  0  0
   37.1390   26.4220   33.6390 H   0  0  0  0  0  0  0  0  0  0  0  0
   36.8150   28.4140   35.1470 H   0  0  0  0  0  0  0  0  0  0  0  0
   34.6340   30.4270   32.1730 H   0  0  0  0  0  0  0  0  0  0  0  0
   35.2590   21.9120   32.2950 O   0  0  0  0  0  0  0  0  0  0  0  0
   35.4060   21.1780   32.9130 H   0  0  0  0  0  0  0  0  0  0  0  0
   38.1290   21.0180   32.7790 O   0  0  0  0  0  0  0  0  0  0  0  0
   36.2100   21.7660   34.7460 H   0  0  0  0  0  0  0  0  0  0  0  0
   37.2280   21.8850   34.9160 N   0  0  0  0  0  0  0  0  0  0  0  0
   38.2080   21.5640   34.0540 C   0  0  0  0  0  0  0  0  0  0  0  0
   39.3490   21.8890   34.6960 N   0  0  0  0  0  0  0  0  0  0  0  0
   39.0890   22.3970   35.9180 C   0  0  0  0  0  0  0  0  0  0  0  0
   39.8780   22.8700   36.9450 C   0  0  0  0  0  0  0  0  0  0  0  0
   39.3490   23.3370   38.0990 N   0  0  0  0  0  0  0  0  0  0  0  0
   37.9980   23.3230   38.2160 C   0  0  0  0  0  0  0  0  0  0  0  0
   37.3870   23.6510   39.0500 H   0  0  0  0  0  0  0  0  0  0  0  0
   37.2130   22.8640   37.2180 N   0  0  0  0  0  0  0  0  0  0  0  0
   37.7100   22.3940   36.0590 C   0  0  0  0  0  0  0  0  0  0  0  0
   41.2940   22.8700   36.7890 N   0  0  0  0  0  0  0  0  0  0  0  0
   41.9880   22.3100   37.3620 H   0  0  0  0  0  0  0  0  0  0  0  0
   41.6240   23.4870   36.0360 H   0  0  0  0  0  0  0  0  0  0  0  0
  1 27  1  0  0  0  0
  1  6  1  1  0  0  0
  2  7  1  6  0  0  0
  2 12  1  0  0  0  0
  2  1  1  0  0  0  0
  3  2  1  0  0  0  0
  3  4  1  0  0  0  0
  4  5  1  0  0  0  0
  4  9  1  0  0  0  0
  5 10  1  6  0  0  0
  5  1  1  0  0  0  0
  5 29  1  0  0  0  0
  8  4  1  0  0  0  0
 11 14  1  6  0  0  0
 11 12  1  0  0  0  0
 11 18  1  0  0  0  0
 12 15  1  1  0  0  0
 13 11  1  0  0  0  0
 13 17  1  0  0  0  0
 13 12  1  0  0  0  0
 16 13  1  0  0  0  0
 18 19  1  0  0  0  0
 19 24  1  0  0  0  0
 19 20  2  0  0  0  0
 20 25  1  0  0  0  0
 21 20  1  0  0  0  0
 22 21  2  0  0  0  0
 23 18  2  0  0  0  0
 23 22  1  0  0  0  0
 26 22  1  0  0  0  0
 27 28  1  0  0  0  0
 29 32  1  0  0  0  0
 30 31  1  0  0  0  0
 31 40  1  0  0  0  0
 32 33  2  0  0  0  0
 32 31  1  0  0  0  0
 33 34  1  0  0  0  0
 34 40  2  0  0  0  0
 34 35  1  0  0  0  0
 35 36  2  0  0  0  0
 36 37  1  0  0  0  0
 37 38  1  0  0  0  0
 39 37  2  0  0  0  0
 40 39  1  0  0  0  0
 41 35  1  0  0  0  0
 41 42  1  0  0  0  0
 43 41  1  0  0  0  0
M  END
>  <minimizedAffinity>
-5.63823843

$$$$

 OpenBabel03272508293D

 43 47  0  0  1  0  0  0  0  0999 V2000
   38.6330   25.5960   31.9470 C   0  0  2  0  0  0  0  0  0  0  0  0
   37.5800   25.8460   30.8810 C   0  0  2  0  0  0  0  0  0  0  0  0
   36.8500   26.9140   31.3220 O   0  0  0  0  0  0  0  0  0  0  0  0
   37.5860   27.6700   32.1870 C   0  0  0  0  0  0  0  0  0  0  0  0
   38.9580   27.0450   32.3130 C   0  0  1  0  0  0  0  0  0  0  0  0
   38.2150   25.1270   32.8480 H   0  0  0  0  0  0  0  0  0  0  0  0
   38.1540   26.0730   29.9540 H   0  0  0  0  0  0  0  0  0  0  0  0
   37.7550   28.6990   31.7550 H   0  0  0  0  0  0  0  0  0  0  0  0
   37.0650   27.7830   33.1440 H   0  0  0  0  0  0  0  0  0  0  0  0
   39.6080   27.4220   31.4930 H   0  0  0  0  0  0  0  0  0  0  0  0
   36.3820   23.8020   31.9230 C   0  0  1  0  0  0  0  0  0  0  0  0
   36.7420   24.6110   30.7840 C   0  0  1  0  0  0  0  0  0  0  0  0
   35.3020   24.6050   31.1820 C   0  0  0  0  0  0  0  0  0  0  0  0
   36.3980   24.0880   32.9920 H   0  0  0  0  0  0  0  0  0  0  0  0
   36.9410   24.0460   29.8260 H   0  0  0  0  0  0  0  0  0  0  0  0
   34.9750   25.5680   31.6250 H   0  0  0  0  0  0  0  0  0  0  0  0
   34.5550   24.0580   30.5890 H   0  0  0  0  0  0  0  0  0  0  0  0
   36.1630   22.3040   31.7870 C   0  0  0  0  0  0  0  0  0  0  0  0
   37.0570   21.5990   30.9810 C   0  0  0  0  0  0  0  0  0  0  0  0
   36.7890   20.2390   30.8730 C   0  0  0  0  0  0  0  0  0  0  0  0
   35.7250   19.6680   31.5220 N   0  0  0  0  0  0  0  0  0  0  0  0
   34.8870   20.3990   32.2940 C   0  0  0  0  0  0  0  0  0  0  0  0
   35.1100   21.7290   32.4260 N   0  0  0  0  0  0  0  0  0  0  0  0
   37.8730   22.0710   30.4910 H   0  0  0  0  0  0  0  0  0  0  0  0
   37.4210   19.6020   30.2720 H   0  0  0  0  0  0  0  0  0  0  0  0
   34.0640   19.9000   32.7810 H   0  0  0  0  0  0  0  0  0  0  0  0
   39.7480   24.9280   31.4770 O   0  0  0  0  0  0  0  0  0  0  0  0
   40.4360   24.9780   32.1600 H   0  0  0  0  0  0  0  0  0  0  0  0
   39.5330   27.1480   33.5500 O   0  0  0  0  0  0  0  0  0  0  0  0
   37.4940   26.7600   35.5000 H   0  0  0  0  0  0  0  0  0  0  0  0
   38.2860   26.0950   35.4120 N   0  0  0  0  0  0  0  0  0  0  0  0
   39.2940   26.1900   34.5270 C   0  0  0  0  0  0  0  0  0  0  0  0
   40.0740   25.1200   34.7820 N   0  0  0  0  0  0  0  0  0  0  0  0
   39.5710   24.3810   35.7900 C   0  0  0  0  0  0  0  0  0  0  0  0
   39.9710   23.2220   36.4210 C   0  0  0  0  0  0  0  0  0  0  0  0
   39.2640   22.6760   37.4360 N   0  0  0  0  0  0  0  0  0  0  0  0
   38.1300   23.3130   37.8190 C   0  0  0  0  0  0  0  0  0  0  0  0
   37.4310   23.0410   38.6020 H   0  0  0  0  0  0  0  0  0  0  0  0
   37.7250   24.4490   37.2110 N   0  0  0  0  0  0  0  0  0  0  0  0
   38.4080   25.0160   36.2000 C   0  0  0  0  0  0  0  0  0  0  0  0
   41.1680   22.5780   35.9940 N   0  0  0  0  0  0  0  0  0  0  0  0
   41.2400   21.6140   35.5580 H   0  0  0  0  0  0  0  0  0  0  0  0
   42.0140   23.1420   36.1430 H   0  0  0  0  0  0  0  0  0  0  0  0
  1  5  1  0  0  0  0
  1  6  1  1  0  0  0
  2  7  1  6  0  0  0
  2  3  1  0  0  0  0
  2  1  1  0  0  0  0
  3  4  1  0  0  0  0
  4  5  1  0  0  0  0
  4  9  1  0  0  0  0
  5 10  1  6  0  0  0
  5 29  1  0  0  0  0
  8  4  1  0  0  0  0
 11 14  1  1  0  0  0
 12 15  1  6  0  0  0
 12  2  1  0  0  0  0
 12 13  1  0  0  0  0
 12 11  1  0  0  0  0
 13 16  1  0  0  0  0
 13 11  1  0  0  0  0
 17 13  1  0  0  0  0
 18 11  1  0  0  0  0
 18 23  1  0  0  0  0
 19 18  2  0  0  0  0
 20 19  1  0  0  0  0
 20 21  2  0  0  0  0
 21 22  1  0  0  0  0
 22 23  2  0  0  0  0
 22 26  1  0  0  0  0
 24 19  1  0  0  0  0
 25 20  1  0  0  0  0
 27  1  1  0  0  0  0
 27 28  1  0  0  0  0
 29 32  1  0  0  0  0
 31 30  1  0  0  0  0
 31 40  1  0  0  0  0
 32 33  2  0  0  0  0
 32 31  1  0  0  0  0
 33 34  1  0  0  0  0
 34 40  2  0  0  0  0
 34 35  1  0  0  0  0
 35 36  2  0  0  0  0
 36 37  1  0  0  0  0
 37 38  1  0  0  0  0
 39 37  2  0  0  0  0
 40 39  1  0  0  0  0
 41 43  1  0  0  0  0
 41 35  1  0  0  0  0
 42 41  1  0  0  0  0
M  END
>  <minimizedAffinity>
-5.62779093

$$$$

 OpenBabel03272508293D

 43 47  0  0  1  0  0  0  0  0999 V2000
   35.9080   26.5860   31.4620 C   0  0  2  0  0  0  0  0  0  0  0  0
   36.9010   27.4970   32.1630 C   0  0  2  0  0  0  0  0  0  0  0  0
   37.2280   26.8630   33.3290 O   0  0  0  0  0  0  0  0  0  0  0  0
   37.0240   25.5190   33.2140 C   0  0  0  0  0  0  0  0  0  0  0  0
   36.5280   25.2320   31.8140 C   0  0  1  0  0  0  0  0  0  0  0  0
   34.9140   26.6100   31.9280 H   0  0  0  0  0  0  0  0  0  0  0  0
   37.7630   27.5800   31.4630 H   0  0  0  0  0  0  0  0  0  0  0  0
   38.0050   24.9670   33.3120 H   0  0  0  0  0  0  0  0  0  0  0  0
   36.3510   25.1610   34.0000 H   0  0  0  0  0  0  0  0  0  0  0  0
   37.4000   25.1180   31.1330 H   0  0  0  0  0  0  0  0  0  0  0  0
   34.7860   28.9100   32.6440 C   0  0  1  0  0  0  0  0  0  0  0  0
   36.2070   28.7970   32.4220 C   0  0  1  0  0  0  0  0  0  0  0  0
   35.7650   29.1920   33.7940 C   0  0  0  0  0  0  0  0  0  0  0  0
   34.0780   28.1110   32.9380 H   0  0  0  0  0  0  0  0  0  0  0  0
   36.6810   29.6450   31.8460 H   0  0  0  0  0  0  0  0  0  0  0  0
   35.9290   28.3920   34.5450 H   0  0  0  0  0  0  0  0  0  0  0  0
   35.8770   30.2280   34.1460 H   0  0  0  0  0  0  0  0  0  0  0  0
   34.0220   30.1590   32.2340 C   0  0  0  0  0  0  0  0  0  0  0  0
   34.6290   31.0010   31.3020 C   0  0  0  0  0  0  0  0  0  0  0  0
   33.8950   32.1390   30.9880 C   0  0  0  0  0  0  0  0  0  0  0  0
   32.6770   32.3850   31.5670 N   0  0  0  0  0  0  0  0  0  0  0  0
   32.1330   31.5330   32.4680 C   0  0  0  0  0  0  0  0  0  0  0  0
   32.8140   30.4110   32.8030 N   0  0  0  0  0  0  0  0  0  0  0  0
   35.5750   30.7820   30.8720 H   0  0  0  0  0  0  0  0  0  0  0  0
   34.2760   32.8560   30.2760 H   0  0  0  0  0  0  0  0  0  0  0  0
   31.1710   31.7750   32.8930 H   0  0  0  0  0  0  0  0  0  0  0  0
   35.8510   26.7790   30.0950 O   0  0  0  0  0  0  0  0  0  0  0  0
   35.3460   26.0440   29.7100 H   0  0  0  0  0  0  0  0  0  0  0  0
   35.6250   24.2100   31.7130 O   0  0  0  0  0  0  0  0  0  0  0  0
   38.0070   23.0580   30.6610 H   0  0  0  0  0  0  0  0  0  0  0  0
   37.2080   22.4640   30.9560 N   0  0  0  0  0  0  0  0  0  0  0  0
   36.0470   22.9100   31.4630 C   0  0  0  0  0  0  0  0  0  0  0  0
   35.3250   21.7950   31.6970 N   0  0  0  0  0  0  0  0  0  0  0  0
   36.0130   20.6900   31.3470 C   0  0  0  0  0  0  0  0  0  0  0  0
   35.7370   19.3390   31.3830 C   0  0  0  0  0  0  0  0  0  0  0  0
   36.6270   18.4140   30.9590 N   0  0  0  0  0  0  0  0  0  0  0  0
   37.8190   18.8630   30.4940 C   0  0  0  0  0  0  0  0  0  0  0  0
   38.6570   18.2900   30.1130 H   0  0  0  0  0  0  0  0  0  0  0  0
   38.1040   20.1830   30.4520 N   0  0  0  0  0  0  0  0  0  0  0  0
   37.2380   21.1260   30.8650 C   0  0  0  0  0  0  0  0  0  0  0  0
   34.4750   18.9020   31.8780 N   0  0  0  0  0  0  0  0  0  0  0  0
   34.3110   18.3130   32.7440 H   0  0  0  0  0  0  0  0  0  0  0  0
   33.6790   19.2130   31.3070 H   0  0  0  0  0  0  0  0  0  0  0  0
  1  5  1  0  0  0  0
  1  6  1  1  0  0  0
  1  2  1  0  0  0  0
  2  7  1  6  0  0  0
  2 12  1  0  0  0  0
  2  3  1  0  0  0  0
  4  8  1  0  0  0  0
  4  3  1  0  0  0  0
  4  9  1  0  0  0  0
  5 10  1  6  0  0  0
  5  4  1  0  0  0  0
 11 14  1  1  0  0  0
 11 13  1  0  0  0  0
 12 15  1  6  0  0  0
 12 11  1  0  0  0  0
 12 13  1  0  0  0  0
 13 17  1  0  0  0  0
 13 16  1  0  0  0  0
 18 11  1  0  0  0  0
 18 23  1  0  0  0  0
 19 18  2  0  0  0  0
 20 19  1  0  0  0  0
 20 21  2  0  0  0  0
 21 22  1  0  0  0  0
 22 23  2  0  0  0  0
 22 26  1  0  0  0  0
 24 19  1  0  0  0  0
 25 20  1  0  0  0  0
 27  1  1  0  0  0  0
 28 27  1  0  0  0  0
 29  5  1  0  0  0  0
 30 31  1  0  0  0  0
 31 32  1  0  0  0  0
 32 33  2  0  0  0  0
 32 29  1  0  0  0  0
 34 35  1  0  0  0  0
 34 33  1  0  0  0  0
 35 41  1  0  0  0  0
 36 35  2  0  0  0  0
 37 36  1  0  0  0  0
 38 37  1  0  0  0  0
 39 37  2  0  0  0  0
 39 40  1  0  0  0  0
 40 31  1  0  0  0  0
 40 34  2  0  0  0  0
 41 42  1  0  0  0  0
 43 41  1  0  0  0  0
M  END
>  <minimizedAffinity>
-5.6103425

$$$$

 OpenBabel03272508293D

 43 47  0  0  1  0  0  0  0  0999 V2000
   38.5870   24.8800   31.6800 C   0  0  2  0  0  0  0  0  0  0  0  0
   39.5280   25.9720   31.2010 C   0  0  2  0  0  0  0  0  0  0  0  0
   40.6790   25.8130   31.9210 O   0  0  0  0  0  0  0  0  0  0  0  0
   40.7940   24.5250   32.3580 C   0  0  0  0  0  0  0  0  0  0  0  0
   39.5990   23.7460   31.8550 C   0  0  1  0  0  0  0  0  0  0  0  0
   38.1710   25.0890   32.6740 H   0  0  0  0  0  0  0  0  0  0  0  0
   39.6710   25.7770   30.1140 H   0  0  0  0  0  0  0  0  0  0  0  0
   41.6990   24.0360   31.8920 H   0  0  0  0  0  0  0  0  0  0  0  0
   40.9120   24.4950   33.4460 H   0  0  0  0  0  0  0  0  0  0  0  0
   39.8110   23.3740   30.8280 H   0  0  0  0  0  0  0  0  0  0  0  0
   37.4730   27.5460   31.2640 C   0  0  1  0  0  0  0  0  0  0  0  0
   38.8730   27.2840   31.4970 C   0  0  1  0  0  0  0  0  0  0  0  0
   38.0110   27.4780   32.7020 C   0  0  0  0  0  0  0  0  0  0  0  0
   36.6570   26.8100   31.1300 H   0  0  0  0  0  0  0  0  0  0  0  0
   39.5710   28.1520   31.3070 H   0  0  0  0  0  0  0  0  0  0  0  0
   37.8520   26.5390   33.2720 H   0  0  0  0  0  0  0  0  0  0  0  0
   38.0600   28.4070   33.2880 H   0  0  0  0  0  0  0  0  0  0  0  0
   36.9810   28.9400   30.9110 C   0  0  0  0  0  0  0  0  0  0  0  0
   35.7600   29.3420   31.4530 C   0  0  0  0  0  0  0  0  0  0  0  0
   35.3500   30.6150   31.0730 C   0  0  0  0  0  0  0  0  0  0  0  0
   36.1090   31.3870   30.2320 N   0  0  0  0  0  0  0  0  0  0  0  0
   37.2890   30.9480   29.7340 C   0  0  0  0  0  0  0  0  0  0  0  0
   37.7270   29.7130   30.0780 N   0  0  0  0  0  0  0  0  0  0  0  0
   35.1950   28.7190   32.1030 H   0  0  0  0  0  0  0  0  0  0  0  0
   34.4190   31.0220   31.4380 H   0  0  0  0  0  0  0  0  0  0  0  0
   37.8460   31.5960   29.0750 H   0  0  0  0  0  0  0  0  0  0  0  0
   37.6090   24.5510   30.7600 O   0  0  0  0  0  0  0  0  0  0  0  0
   37.1800   23.7320   31.0590 H   0  0  0  0  0  0  0  0  0  0  0  0
   39.1410   22.7720   32.6990 O   0  0  0  0  0  0  0  0  0  0  0  0
   37.3860   24.4580   34.1780 H   0  0  0  0  0  0  0  0  0  0  0  0
   38.0860   23.8590   34.6570 N   0  0  0  0  0  0  0  0  0  0  0  0
   38.9550   23.0320   34.0510 C   0  0  0  0  0  0  0  0  0  0  0  0
   39.6540   22.4710   35.0590 N   0  0  0  0  0  0  0  0  0  0  0  0
   39.2350   22.9320   36.2540 C   0  0  0  0  0  0  0  0  0  0  0  0
   39.6060   22.6850   37.5600 C   0  0  0  0  0  0  0  0  0  0  0  0
   39.0070   23.2990   38.6040 N   0  0  0  0  0  0  0  0  0  0  0  0
   38.0120   24.1770   38.3240 C   0  0  0  0  0  0  0  0  0  0  0  0
   37.4140   24.7660   39.0120 H   0  0  0  0  0  0  0  0  0  0  0  0
   37.6370   24.4290   37.0520 N   0  0  0  0  0  0  0  0  0  0  0  0
   38.2150   23.8350   35.9920 C   0  0  0  0  0  0  0  0  0  0  0  0
   40.6550   21.7570   37.8180 N   0  0  0  0  0  0  0  0  0  0  0  0
   40.5650   20.8370   38.3380 H   0  0  0  0  0  0  0  0  0  0  0  0
   41.5660   22.0520   37.4450 H   0  0  0  0  0  0  0  0  0  0  0  0
  1  5  1  0  0  0  0
  1  6  1  1  0  0  0
  2  7  1  6  0  0  0
  2 12  1  0  0  0  0
  2  1  1  0  0  0  0
  2  3  1  0  0  0  0
  3  4  1  0  0  0  0
  4  9  1  0  0  0  0
  5 10  1  6  0  0  0
  5  4  1  0  0  0  0
  5 29  1  0  0  0  0
  8  4  1  0  0  0  0
 11 14  1  6  0  0  0
 11 12  1  0  0  0  0
 11 13  1  0  0  0  0
 12 15  1  6  0  0  0
 12 13  1  0  0  0  0
 13 16  1  0  0  0  0
 13 17  1  0  0  0  0
 18 11  1  0  0  0  0
 18 19  1  0  0  0  0
 19 24  1  0  0  0  0
 20 25  1  0  0  0  0
 20 19  2  0  0  0  0
 21 20  1  0  0  0  0
 22 23  1  0  0  0  0
 22 21  2  0  0  0  0
 23 18  2  0  0  0  0
 26 22  1  0  0  0  0
 27 28  1  0  0  0  0
 27  1  1  0  0  0  0
 29 32  1  0  0  0  0
 30 31  1  0  0  0  0
 31 40  1  0  0  0  0
 32 31  1  0  0  0  0
 32 33  2  0  0  0  0
 33 34  1  0  0  0  0
 34 35  1  0  0  0  0
 35 41  1  0  0  0  0
 35 36  2  0  0  0  0
 37 36  1  0  0  0  0
 37 38  1  0  0  0  0
 39 37  2  0  0  0  0
 40 34  2  0  0  0  0
 40 39  1  0  0  0  0
 41 42  1  0  0  0  0
 43 41  1  0  0  0  0
M  END
>  <minimizedAffinity>
-5.58564949

$$$$
