
 OpenBabel03272504203D

 32 34  0  0  0  0  0  0  0  0999 V2000
   37.4610   20.0790   31.3320 O   0  0  0  0  0  0  0  0  0  0  0  0
   37.2690   21.3850   32.0440 P   0  0  2  0  0  0  0  0  0  0  0  0
   35.8860   21.2200   33.0470 O   0  0  0  0  0  0  0  0  0  0  0  0
   35.3970   22.1010   33.0730 H   0  0  0  0  0  0  0  0  0  0  0  0
   36.9930   22.6350   30.9540 O   0  0  0  0  0  0  0  0  0  0  0  0
   35.8530   23.3030   31.3320 C   0  0  0  0  0  0  0  0  0  0  0  0
   35.0500   23.2980   30.5660 H   0  0  0  0  0  0  0  0  0  0  0  0
   35.3850   22.8170   32.2370 H   0  0  0  0  0  0  0  0  0  0  0  0
   36.1020   24.7240   31.6870 C   0  0  0  0  0  0  0  0  0  0  0  0
   35.4030   25.7030   30.9930 C   0  0  0  0  0  0  0  0  0  0  0  0
   35.6280   27.0440   31.3190 C   0  0  0  0  0  0  0  0  0  0  0  0
   36.5310   27.3110   32.3090 N   0  0  0  0  0  0  0  0  0  0  0  0
   37.1920   26.3360   32.9610 C   0  0  0  0  0  0  0  0  0  0  0  0
   36.9840   25.0510   32.6580 N   0  0  0  0  0  0  0  0  0  0  0  0
   34.7000   25.4260   30.2190 H   0  0  0  0  0  0  0  0  0  0  0  0
   35.0910   27.8250   30.7880 H   0  0  0  0  0  0  0  0  0  0  0  0
   37.8770   26.6870   33.7210 H   0  0  0  0  0  0  0  0  0  0  0  0
   38.6380   21.7110   32.9900 O   0  0  0  0  0  0  0  0  0  0  0  0
   36.9420   23.6310   34.2190 H   0  0  0  0  0  0  0  0  0  0  0  0
   37.7300   23.1500   34.7420 N   0  0  0  0  0  0  0  0  0  0  0  0
   38.5990   22.2260   34.2680 C   0  0  0  0  0  0  0  0  0  0  0  0
   39.4330   21.8880   35.2700 N   0  0  0  0  0  0  0  0  0  0  0  0
   39.1040   22.5900   36.3820 C   0  0  0  0  0  0  0  0  0  0  0  0
   39.6670   22.5870   37.6580 C   0  0  0  0  0  0  0  0  0  0  0  0
   39.1330   23.4000   38.5990 N   0  0  0  0  0  0  0  0  0  0  0  0
   38.0720   24.1790   38.2490 C   0  0  0  0  0  0  0  0  0  0  0  0
   37.6840   24.8100   39.0370 H   0  0  0  0  0  0  0  0  0  0  0  0
   37.5410   24.1720   37.0200 N   0  0  0  0  0  0  0  0  0  0  0  0
   38.0190   23.3890   36.0290 C   0  0  0  0  0  0  0  0  0  0  0  0
   40.7810   21.7270   37.9120 N   0  0  0  0  0  0  0  0  0  0  0  0
   40.8630   20.8050   37.4510 H   0  0  0  0  0  0  0  0  0  0  0  0
   41.5120   22.0710   38.5900 H   0  0  0  0  0  0  0  0  0  0  0  0
  2  1  2  6  0  0  0
  2 18  1  0  0  0  0
  2  3  1  0  0  0  0
  3  4  1  0  0  0  0
  5  6  1  0  0  0  0
  5  2  1  0  0  0  0
  6  9  1  0  0  0  0
  6  8  1  0  0  0  0
  7  6  1  0  0  0  0
  9 14  1  0  0  0  0
 10 11  1  0  0  0  0
 10  9  2  0  0  0  0
 11 12  2  0  0  0  0
 12 13  1  0  0  0  0
 13 17  1  0  0  0  0
 14 13  2  0  0  0  0
 15 10  1  0  0  0  0
 16 11  1  0  0  0  0
 18 21  1  0  0  0  0
 19 20  1  0  0  0  0
 20 29  1  0  0  0  0
 21 20  1  0  0  0  0
 21 22  2  0  0  0  0
 22 23  1  0  0  0  0
 23 24  1  0  0  0  0
 24 30  1  0  0  0  0
 24 25  2  0  0  0  0
 26 25  1  0  0  0  0
 26 27  1  0  0  0  0
 28 26  2  0  0  0  0
 29 23  2  0  0  0  0
 29 28  1  0  0  0  0
 30 32  1  0  0  0  0
 31 30  1  0  0  0  0
M  END
>  <minimizedAffinity>
-5.23042011

$$$$

 OpenBabel03272504203D

 32 34  0  0  0  0  0  0  0  0999 V2000
   36.0800   28.2880   34.4330 O   0  0  0  0  0  0  0  0  0  0  0  0
   37.3610   27.5400   34.6550 P   0  0  2  0  0  0  0  0  0  0  0  0
   38.1830   28.3120   35.9490 O   0  0  0  0  0  0  0  0  0  0  0  0
   39.1760   28.2700   35.7730 H   0  0  0  0  0  0  0  0  0  0  0  0
   38.3400   27.5970   33.2890 O   0  0  0  0  0  0  0  0  0  0  0  0
   37.5380   27.6750   32.1770 C   0  0  0  0  0  0  0  0  0  0  0  0
   36.6530   28.3320   32.3000 H   0  0  0  0  0  0  0  0  0  0  0  0
   38.1030   28.1180   31.3050 H   0  0  0  0  0  0  0  0  0  0  0  0
   37.0330   26.3500   31.7300 C   0  0  0  0  0  0  0  0  0  0  0  0
   35.6980   26.2510   31.3610 C   0  0  0  0  0  0  0  0  0  0  0  0
   35.2110   25.0100   30.9400 C   0  0  0  0  0  0  0  0  0  0  0  0
   36.0870   23.9620   30.9160 N   0  0  0  0  0  0  0  0  0  0  0  0
   37.3760   24.0940   31.2810 C   0  0  0  0  0  0  0  0  0  0  0  0
   37.8520   25.2750   31.6860 N   0  0  0  0  0  0  0  0  0  0  0  0
   35.0550   27.1190   31.4030 H   0  0  0  0  0  0  0  0  0  0  0  0
   34.1690   24.9100   30.6470 H   0  0  0  0  0  0  0  0  0  0  0  0
   37.9580   23.1850   31.2150 H   0  0  0  0  0  0  0  0  0  0  0  0
   37.0060   25.9340   35.0660 O   0  0  0  0  0  0  0  0  0  0  0  0
   39.1020   24.6980   33.5980 H   0  0  0  0  0  0  0  0  0  0  0  0
   38.9110   24.4730   34.6180 N   0  0  0  0  0  0  0  0  0  0  0  0
   37.9490   24.9920   35.4180 C   0  0  0  0  0  0  0  0  0  0  0  0
   38.0690   24.4250   36.6330 N   0  0  0  0  0  0  0  0  0  0  0  0
   39.1010   23.5450   36.6170 C   0  0  0  0  0  0  0  0  0  0  0  0
   39.6100   22.7250   37.6220 C   0  0  0  0  0  0  0  0  0  0  0  0
   40.6660   21.9300   37.3310 N   0  0  0  0  0  0  0  0  0  0  0  0
   41.1760   21.9750   36.0690 C   0  0  0  0  0  0  0  0  0  0  0  0
   42.0190   21.3210   35.8890 H   0  0  0  0  0  0  0  0  0  0  0  0
   40.6770   22.7690   35.1130 N   0  0  0  0  0  0  0  0  0  0  0  0
   39.6250   23.5880   35.3270 C   0  0  0  0  0  0  0  0  0  0  0  0
   38.9940   22.7600   38.9120 N   0  0  0  0  0  0  0  0  0  0  0  0
   38.5950   23.6350   39.2930 H   0  0  0  0  0  0  0  0  0  0  0  0
   38.9660   21.8590   39.4590 H   0  0  0  0  0  0  0  0  0  0  0  0
  2  1  2  6  0  0  0
  2 18  1  0  0  0  0
  2  3  1  0  0  0  0
  4  3  1  0  0  0  0
  5  2  1  0  0  0  0
  6  7  1  0  0  0  0
  6  5  1  0  0  0  0
  8  6  1  0  0  0  0
  9  6  1  0  0  0  0
 10 15  1  0  0  0  0
 10  9  2  0  0  0  0
 11 10  1  0  0  0  0
 12 11  2  0  0  0  0
 12 13  1  0  0  0  0
 13 14  2  0  0  0  0
 14  9  1  0  0  0  0
 16 11  1  0  0  0  0
 17 13  1  0  0  0  0
 18 21  1  0  0  0  0
 19 20  1  0  0  0  0
 20 29  1  0  0  0  0
 20 21  1  0  0  0  0
 21 22  2  0  0  0  0
 23 22  1  0  0  0  0
 23 24  1  0  0  0  0
 24 30  1  0  0  0  0
 25 24  2  0  0  0  0
 26 25  1  0  0  0  0
 27 26  1  0  0  0  0
 28 29  1  0  0  0  0
 28 26  2  0  0  0  0
 29 23  2  0  0  0  0
 30 31  1  0  0  0  0
 30 32  1  0  0  0  0
M  END
>  <minimizedAffinity>
-5.17750835

$$$$

 OpenBabel03272504203D

 32 34  0  0  0  0  0  0  0  0999 V2000
   38.6560   26.4930   32.5780 O   0  0  0  0  0  0  0  0  0  0  0  0
   37.2760   26.4500   33.1650 P   0  0  2  0  0  0  0  0  0  0  0  0
   36.3700   25.3110   32.2550 O   0  0  0  0  0  0  0  0  0  0  0  0
   35.4160   25.6320   32.1900 H   0  0  0  0  0  0  0  0  0  0  0  0
   36.5210   27.9480   33.0500 O   0  0  0  0  0  0  0  0  0  0  0  0
   35.7560   27.9670   31.9100 C   0  0  0  0  0  0  0  0  0  0  0  0
   35.5560   26.9640   31.4800 H   0  0  0  0  0  0  0  0  0  0  0  0
   34.7320   28.3950   32.1210 H   0  0  0  0  0  0  0  0  0  0  0  0
   36.3490   28.7910   30.8240 C   0  0  0  0  0  0  0  0  0  0  0  0
   36.1950   30.1690   30.8910 C   0  0  0  0  0  0  0  0  0  0  0  0
   36.7490   30.9540   29.8750 C   0  0  0  0  0  0  0  0  0  0  0  0
   37.4140   30.3110   28.8700 N   0  0  0  0  0  0  0  0  0  0  0  0
   37.5440   28.9720   28.8370 C   0  0  0  0  0  0  0  0  0  0  0  0
   37.0180   28.2110   29.8020 N   0  0  0  0  0  0  0  0  0  0  0  0
   35.6560   30.6180   31.7150 H   0  0  0  0  0  0  0  0  0  0  0  0
   36.6400   32.0350   29.9090 H   0  0  0  0  0  0  0  0  0  0  0  0
   38.0940   28.5930   27.9850 H   0  0  0  0  0  0  0  0  0  0  0  0
   37.3740   25.9550   34.7840 O   0  0  0  0  0  0  0  0  0  0  0  0
   39.5830   24.6380   33.5760 H   0  0  0  0  0  0  0  0  0  0  0  0
   39.2890   24.4530   34.5800 N   0  0  0  0  0  0  0  0  0  0  0  0
   38.2610   25.0140   35.2600 C   0  0  0  0  0  0  0  0  0  0  0  0
   38.2500   24.4900   36.5000 N   0  0  0  0  0  0  0  0  0  0  0  0
   39.2640   23.5960   36.6180 C   0  0  0  0  0  0  0  0  0  0  0  0
   39.6570   22.8060   37.6980 C   0  0  0  0  0  0  0  0  0  0  0  0
   40.7240   21.9880   37.5410 N   0  0  0  0  0  0  0  0  0  0  0  0
   41.3570   21.9800   36.3350 C   0  0  0  0  0  0  0  0  0  0  0  0
   42.2020   21.3090   36.2630 H   0  0  0  0  0  0  0  0  0  0  0  0
   40.9680   22.7450   35.3070 N   0  0  0  0  0  0  0  0  0  0  0  0
   39.9150   23.5850   35.3870 C   0  0  0  0  0  0  0  0  0  0  0  0
   38.9170   22.8970   38.9180 N   0  0  0  0  0  0  0  0  0  0  0  0
   38.4970   23.7910   39.2260 H   0  0  0  0  0  0  0  0  0  0  0  0
   38.8200   22.0170   39.4900 H   0  0  0  0  0  0  0  0  0  0  0  0
  2  1  2  6  0  0  0
  2 18  1  0  0  0  0
  3  2  1  0  0  0  0
  4  3  1  0  0  0  0
  5  2  1  0  0  0  0
  6  8  1  0  0  0  0
  6  5  1  0  0  0  0
  7  6  1  0  0  0  0
  9 10  1  0  0  0  0
  9  6  1  0  0  0  0
 10 15  1  0  0  0  0
 11 16  1  0  0  0  0
 11 10  2  0  0  0  0
 12 11  1  0  0  0  0
 13 12  2  0  0  0  0
 13 14  1  0  0  0  0
 14  9  2  0  0  0  0
 17 13  1  0  0  0  0
 18 21  1  0  0  0  0
 19 20  1  0  0  0  0
 20 21  1  0  0  0  0
 20 29  1  0  0  0  0
 21 22  2  0  0  0  0
 22 23  1  0  0  0  0
 23 24  1  0  0  0  0
 24 30  1  0  0  0  0
 25 24  2  0  0  0  0
 26 25  1  0  0  0  0
 27 26  1  0  0  0  0
 28 29  1  0  0  0  0
 28 26  2  0  0  0  0
 29 23  2  0  0  0  0
 30 31  1  0  0  0  0
 30 32  1  0  0  0  0
M  END
>  <minimizedAffinity>
-5.11682272

$$$$

 OpenBabel03272504203D

 32 34  0  0  0  0  0  0  0  0999 V2000
   40.4130   26.5770   35.0610 O   0  0  0  0  0  0  0  0  0  0  0  0
   38.9340   26.5390   35.3070 P   0  0  2  0  0  0  0  0  0  0  0  0
   38.5420   27.9020   36.2730 O   0  0  0  0  0  0  0  0  0  0  0  0
   37.8000   27.6490   36.9080 H   0  0  0  0  0  0  0  0  0  0  0  0
   38.4940   25.1480   36.1430 O   0  0  0  0  0  0  0  0  0  0  0  0
   38.6650   24.0650   35.3150 C   0  0  0  0  0  0  0  0  0  0  0  0
   37.7600   23.4350   35.1980 H   0  0  0  0  0  0  0  0  0  0  0  0
   38.9170   24.3980   34.2660 H   0  0  0  0  0  0  0  0  0  0  0  0
   39.7640   23.1650   35.7530 C   0  0  0  0  0  0  0  0  0  0  0  0
   39.8260   22.8170   37.0970 C   0  0  0  0  0  0  0  0  0  0  0  0
   40.8550   21.9700   37.5210 C   0  0  0  0  0  0  0  0  0  0  0  0
   41.7440   21.5340   36.5790 N   0  0  0  0  0  0  0  0  0  0  0  0
   41.6530   21.8920   35.2850 C   0  0  0  0  0  0  0  0  0  0  0  0
   40.6740   22.7010   34.8680 N   0  0  0  0  0  0  0  0  0  0  0  0
   39.0910   23.1970   37.7930 H   0  0  0  0  0  0  0  0  0  0  0  0
   40.9220   21.6860   38.5670 H   0  0  0  0  0  0  0  0  0  0  0  0
   42.4220   21.4760   34.6480 H   0  0  0  0  0  0  0  0  0  0  0  0
   38.1180   26.6240   33.8230 O   0  0  0  0  0  0  0  0  0  0  0  0
   36.1160   27.9420   35.3490 H   0  0  0  0  0  0  0  0  0  0  0  0
   36.2790   28.1520   34.3210 N   0  0  0  0  0  0  0  0  0  0  0  0
   37.1950   27.5940   33.4940 C   0  0  0  0  0  0  0  0  0  0  0  0
   37.0510   28.1520   32.2780 N   0  0  0  0  0  0  0  0  0  0  0  0
   36.0480   29.0650   32.3190 C   0  0  0  0  0  0  0  0  0  0  0  0
   35.5320   29.8920   31.3230 C   0  0  0  0  0  0  0  0  0  0  0  0
   34.5120   30.7230   31.6420 N   0  0  0  0  0  0  0  0  0  0  0  0
   34.0460   30.7080   32.9220 C   0  0  0  0  0  0  0  0  0  0  0  0
   33.2310   31.3900   33.1240 H   0  0  0  0  0  0  0  0  0  0  0  0
   34.5520   29.9070   33.8680 N   0  0  0  0  0  0  0  0  0  0  0  0
   35.5680   29.0520   33.6270 C   0  0  0  0  0  0  0  0  0  0  0  0
   36.1000   29.8240   30.0140 N   0  0  0  0  0  0  0  0  0  0  0  0
   37.1090   29.6350   29.8750 H   0  0  0  0  0  0  0  0  0  0  0  0
   35.4520   29.9760   29.1960 H   0  0  0  0  0  0  0  0  0  0  0  0
  2  1  2  6  0  0  0
  2  5  1  0  0  0  0
  2  3  1  0  0  0  0
  3  4  1  0  0  0  0
  6  9  1  0  0  0  0
  6  5  1  0  0  0  0
  7  6  1  0  0  0  0
  8  6  1  0  0  0  0
  9 10  1  0  0  0  0
 10 11  2  0  0  0  0
 10 15  1  0  0  0  0
 11 16  1  0  0  0  0
 12 11  1  0  0  0  0
 13 12  2  0  0  0  0
 14 13  1  0  0  0  0
 14  9  2  0  0  0  0
 17 13  1  0  0  0  0
 18  2  1  0  0  0  0
 20 19  1  0  0  0  0
 21 18  1  0  0  0  0
 21 20  1  0  0  0  0
 22 23  1  0  0  0  0
 22 21  2  0  0  0  0
 23 29  1  0  0  0  0
 24 25  1  0  0  0  0
 24 23  2  0  0  0  0
 25 26  2  0  0  0  0
 26 27  1  0  0  0  0
 26 28  1  0  0  0  0
 29 28  2  0  0  0  0
 29 20  1  0  0  0  0
 30 24  1  0  0  0  0
 31 30  1  0  0  0  0
 32 30  1  0  0  0  0
M  END
>  <minimizedAffinity>
-5.03763723

$$$$

 OpenBabel03272504203D

 32 34  0  0  0  0  0  0  0  0999 V2000
   36.2410   26.5000   32.2040 O   0  0  0  0  0  0  0  0  0  0  0  0
   37.6240   26.1430   32.6620 P   0  0  2  0  0  0  0  0  0  0  0  0
   38.6160   27.5200   32.4090 O   0  0  0  0  0  0  0  0  0  0  0  0
   39.5390   27.2110   32.1420 H   0  0  0  0  0  0  0  0  0  0  0  0
   38.2470   24.8630   31.7670 O   0  0  0  0  0  0  0  0  0  0  0  0
   37.2030   24.1840   31.1860 C   0  0  0  0  0  0  0  0  0  0  0  0
   36.2920   24.7990   31.0300 H   0  0  0  0  0  0  0  0  0  0  0  0
   37.4830   23.8250   30.1530 H   0  0  0  0  0  0  0  0  0  0  0  0
   36.7860   22.9850   31.9580 C   0  0  0  0  0  0  0  0  0  0  0  0
   35.5230   22.4600   31.7200 C   0  0  0  0  0  0  0  0  0  0  0  0
   35.1200   21.3320   32.4410 C   0  0  0  0  0  0  0  0  0  0  0  0
   36.0020   20.8110   33.3440 N   0  0  0  0  0  0  0  0  0  0  0  0
   37.2200   21.3450   33.5500 C   0  0  0  0  0  0  0  0  0  0  0  0
   37.6160   22.4240   32.8670 N   0  0  0  0  0  0  0  0  0  0  0  0
   34.8700   22.9210   30.9900 H   0  0  0  0  0  0  0  0  0  0  0  0
   34.1350   20.9060   32.2690 H   0  0  0  0  0  0  0  0  0  0  0  0
   37.8170   20.8340   34.2930 H   0  0  0  0  0  0  0  0  0  0  0  0
   37.5820   25.7510   34.3110 O   0  0  0  0  0  0  0  0  0  0  0  0
   40.0080   24.5510   33.4460 H   0  0  0  0  0  0  0  0  0  0  0  0
   39.5930   24.3690   34.4070 N   0  0  0  0  0  0  0  0  0  0  0  0
   38.4520   24.8780   34.9280 C   0  0  0  0  0  0  0  0  0  0  0  0
   38.3060   24.3800   36.1710 N   0  0  0  0  0  0  0  0  0  0  0  0
   39.3460   23.5550   36.4480 C   0  0  0  0  0  0  0  0  0  0  0  0
   39.6370   22.8150   37.5930 C   0  0  0  0  0  0  0  0  0  0  0  0
   40.7620   22.0620   37.6030 N   0  0  0  0  0  0  0  0  0  0  0  0
   41.5510   22.0690   36.4930 C   0  0  0  0  0  0  0  0  0  0  0  0
   42.4370   21.4510   36.5530 H   0  0  0  0  0  0  0  0  0  0  0  0
   41.2590   22.7860   35.4000 N   0  0  0  0  0  0  0  0  0  0  0  0
   40.1560   23.5590   35.3150 C   0  0  0  0  0  0  0  0  0  0  0  0
   38.7360   22.8830   38.7000 N   0  0  0  0  0  0  0  0  0  0  0  0
   38.2250   23.7550   38.9240 H   0  0  0  0  0  0  0  0  0  0  0  0
   38.6160   22.0110   39.2800 H   0  0  0  0  0  0  0  0  0  0  0  0
  2  1  2  6  0  0  0
  2 18  1  0  0  0  0
  3  2  1  0  0  0  0
  4  3  1  0  0  0  0
  5  2  1  0  0  0  0
  6  5  1  0  0  0  0
  6  9  1  0  0  0  0
  7  6  1  0  0  0  0
  8  6  1  0  0  0  0
  9 14  1  0  0  0  0
 10  9  2  0  0  0  0
 10 11  1  0  0  0  0
 11 12  2  0  0  0  0
 12 13  1  0  0  0  0
 13 17  1  0  0  0  0
 14 13  2  0  0  0  0
 15 10  1  0  0  0  0
 16 11  1  0  0  0  0
 18 21  1  0  0  0  0
 19 20  1  0  0  0  0
 20 21  1  0  0  0  0
 20 29  1  0  0  0  0
 21 22  2  0  0  0  0
 22 23  1  0  0  0  0
 23 24  1  0  0  0  0
 24 25  2  0  0  0  0
 24 30  1  0  0  0  0
 26 27  1  0  0  0  0
 26 25  1  0  0  0  0
 28 26  2  0  0  0  0
 29 28  1  0  0  0  0
 29 23  2  0  0  0  0
 30 31  1  0  0  0  0
 30 32  1  0  0  0  0
M  END
>  <minimizedAffinity>
-5.01004744

$$$$

 OpenBabel03272504203D

 32 34  0  0  0  0  0  0  0  0999 V2000
   36.5220   27.6080   34.9030 O   0  0  0  0  0  0  0  0  0  0  0  0
   37.8920   27.0060   34.9970 P   0  0  2  0  0  0  0  0  0  0  0  0
   38.7230   27.8230   36.2570 O   0  0  0  0  0  0  0  0  0  0  0  0
   39.6970   27.9020   36.0060 H   0  0  0  0  0  0  0  0  0  0  0  0
   38.7480   27.2200   33.5660 O   0  0  0  0  0  0  0  0  0  0  0  0
   37.8530   27.4530   32.5490 C   0  0  0  0  0  0  0  0  0  0  0  0
   36.9650   28.0440   32.8530 H   0  0  0  0  0  0  0  0  0  0  0  0
   38.3300   28.0590   31.7260 H   0  0  0  0  0  0  0  0  0  0  0  0
   37.3460   26.2040   31.9230 C   0  0  0  0  0  0  0  0  0  0  0  0
   35.9940   26.1310   31.6120 C   0  0  0  0  0  0  0  0  0  0  0  0
   35.5060   24.9610   31.0220 C   0  0  0  0  0  0  0  0  0  0  0  0
   36.3960   23.9520   30.7880 N   0  0  0  0  0  0  0  0  0  0  0  0
   37.7000   24.0560   31.1030 C   0  0  0  0  0  0  0  0  0  0  0  0
   38.1780   25.1700   31.6670 N   0  0  0  0  0  0  0  0  0  0  0  0
   35.3400   26.9670   31.8240 H   0  0  0  0  0  0  0  0  0  0  0  0
   34.4510   24.8850   30.7700 H   0  0  0  0  0  0  0  0  0  0  0  0
   38.2930   23.1840   30.8640 H   0  0  0  0  0  0  0  0  0  0  0  0
   37.7530   25.3570   35.3660 O   0  0  0  0  0  0  0  0  0  0  0  0
   39.5400   24.6600   33.2690 H   0  0  0  0  0  0  0  0  0  0  0  0
   39.5820   24.2060   34.2280 N   0  0  0  0  0  0  0  0  0  0  0  0
   38.7910   24.4520   35.2990 C   0  0  0  0  0  0  0  0  0  0  0  0
   39.1930   23.6510   36.3040 N   0  0  0  0  0  0  0  0  0  0  0  0
   40.2370   22.8940   35.8830 C   0  0  0  0  0  0  0  0  0  0  0  0
   40.9850   21.9280   36.5540 C   0  0  0  0  0  0  0  0  0  0  0  0
   41.9900   21.3140   35.8850 N   0  0  0  0  0  0  0  0  0  0  0  0
   42.2160   21.6740   34.5910 C   0  0  0  0  0  0  0  0  0  0  0  0
   43.0290   21.1540   34.1030 H   0  0  0  0  0  0  0  0  0  0  0  0
   41.4880   22.6040   33.9600 N   0  0  0  0  0  0  0  0  0  0  0  0
   40.4710   23.2590   34.5600 C   0  0  0  0  0  0  0  0  0  0  0  0
   40.6590   21.6300   37.9130 N   0  0  0  0  0  0  0  0  0  0  0  0
   40.3110   22.3630   38.5550 H   0  0  0  0  0  0  0  0  0  0  0  0
   40.7890   20.6340   38.2350 H   0  0  0  0  0  0  0  0  0  0  0  0
  2  1  2  6  0  0  0
  2 18  1  0  0  0  0
  2  3  1  0  0  0  0
  4  3  1  0  0  0  0
  5  2  1  0  0  0  0
  6  7  1  0  0  0  0
  6  5  1  0  0  0  0
  8  6  1  0  0  0  0
  9  6  1  0  0  0  0
 10 15  1  0  0  0  0
 10  9  2  0  0  0  0
 11 10  1  0  0  0  0
 12 11  2  0  0  0  0
 12 13  1  0  0  0  0
 13 14  2  0  0  0  0
 14  9  1  0  0  0  0
 16 11  1  0  0  0  0
 17 13  1  0  0  0  0
 19 20  1  0  0  0  0
 20 29  1  0  0  0  0
 20 21  1  0  0  0  0
 21 18  1  0  0  0  0
 21 22  2  0  0  0  0
 23 22  1  0  0  0  0
 23 24  1  0  0  0  0
 24 30  1  0  0  0  0
 25 24  2  0  0  0  0
 26 25  1  0  0  0  0
 27 26  1  0  0  0  0
 28 29  1  0  0  0  0
 28 26  2  0  0  0  0
 29 23  2  0  0  0  0
 30 32  1  0  0  0  0
 30 31  1  0  0  0  0
M  END
>  <minimizedAffinity>
-4.97092915

$$$$

 OpenBabel03272504203D

 32 34  0  0  0  0  0  0  0  0999 V2000
   37.9020   25.0100   30.6230 O   0  0  0  0  0  0  0  0  0  0  0  0
   36.5680   25.2880   31.2490 P   0  0  2  0  0  0  0  0  0  0  0  0
   35.8330   26.5480   30.3450 O   0  0  0  0  0  0  0  0  0  0  0  0
   35.3020   27.1320   30.9730 H   0  0  0  0  0  0  0  0  0  0  0  0
   36.7410   25.8030   32.8400 O   0  0  0  0  0  0  0  0  0  0  0  0
   38.0170   25.5140   33.2590 C   0  0  0  0  0  0  0  0  0  0  0  0
   38.6740   25.1040   32.4640 H   0  0  0  0  0  0  0  0  0  0  0  0
   38.5450   26.4470   33.6120 H   0  0  0  0  0  0  0  0  0  0  0  0
   38.0550   24.5480   34.3890 C   0  0  0  0  0  0  0  0  0  0  0  0
   38.0430   25.0540   35.6820 C   0  0  0  0  0  0  0  0  0  0  0  0
   38.0780   24.1550   36.7520 C   0  0  0  0  0  0  0  0  0  0  0  0
   38.1210   22.8220   36.4570 N   0  0  0  0  0  0  0  0  0  0  0  0
   38.1310   22.3660   35.1910 C   0  0  0  0  0  0  0  0  0  0  0  0
   38.0990   23.2160   34.1600 N   0  0  0  0  0  0  0  0  0  0  0  0
   38.0090   26.1230   35.8490 H   0  0  0  0  0  0  0  0  0  0  0  0
   38.0700   24.5310   37.7720 H   0  0  0  0  0  0  0  0  0  0  0  0
   38.1670   21.2890   35.1000 H   0  0  0  0  0  0  0  0  0  0  0  0
   35.6150   23.8870   31.1770 O   0  0  0  0  0  0  0  0  0  0  0  0
   38.2570   22.8420   31.1390 H   0  0  0  0  0  0  0  0  0  0  0  0
   37.4020   22.2250   31.2680 N   0  0  0  0  0  0  0  0  0  0  0  0
   36.1030   22.6040   31.3020 C   0  0  0  0  0  0  0  0  0  0  0  0
   35.3540   21.5000   31.4810 N   0  0  0  0  0  0  0  0  0  0  0  0
   36.1650   20.4160   31.5610 C   0  0  0  0  0  0  0  0  0  0  0  0
   35.8630   19.0670   31.7430 C   0  0  0  0  0  0  0  0  0  0  0  0
   36.8840   18.1790   31.7870 N   0  0  0  0  0  0  0  0  0  0  0  0
   38.1540   18.6530   31.6510 C   0  0  0  0  0  0  0  0  0  0  0  0
   38.9320   17.9020   31.6940 H   0  0  0  0  0  0  0  0  0  0  0  0
   38.4290   19.9520   31.4780 N   0  0  0  0  0  0  0  0  0  0  0  0
   37.4650   20.8950   31.4230 C   0  0  0  0  0  0  0  0  0  0  0  0
   34.4920   18.6840   31.8730 N   0  0  0  0  0  0  0  0  0  0  0  0
   33.8050   19.3000   32.3410 H   0  0  0  0  0  0  0  0  0  0  0  0
   34.2120   17.7480   31.4770 H   0  0  0  0  0  0  0  0  0  0  0  0
  2  1  2  6  0  0  0
  2  5  1  0  0  0  0
  3  4  1  0  0  0  0
  3  2  1  0  0  0  0
  5  6  1  0  0  0  0
  6  8  1  0  0  0  0
  6  9  1  0  0  0  0
  7  6  1  0  0  0  0
  9 10  1  0  0  0  0
 10 15  1  0  0  0  0
 10 11  2  0  0  0  0
 11 16  1  0  0  0  0
 12 11  1  0  0  0  0
 13 12  2  0  0  0  0
 14  9  2  0  0  0  0
 14 13  1  0  0  0  0
 17 13  1  0  0  0  0
 18  2  1  0  0  0  0
 18 21  1  0  0  0  0
 19 20  1  0  0  0  0
 20 21  1  0  0  0  0
 20 29  1  0  0  0  0
 21 22  2  0  0  0  0
 22 23  1  0  0  0  0
 23 24  1  0  0  0  0
 24 25  2  0  0  0  0
 24 30  1  0  0  0  0
 26 27  1  0  0  0  0
 26 25  1  0  0  0  0
 28 26  2  0  0  0  0
 29 28  1  0  0  0  0
 29 23  2  0  0  0  0
 30 31  1  0  0  0  0
 32 30  1  0  0  0  0
M  END
>  <minimizedAffinity>
-4.95164728

$$$$

 OpenBabel03272504203D

 32 34  0  0  0  0  0  0  0  0999 V2000
   40.0430   23.2830   36.3710 O   0  0  0  0  0  0  0  0  0  0  0  0
   38.6550   23.3560   36.9340 P   0  0  2  0  0  0  0  0  0  0  0  0
   38.7520   22.9210   38.5910 O   0  0  0  0  0  0  0  0  0  0  0  0
   37.9180   22.4140   38.8440 H   0  0  0  0  0  0  0  0  0  0  0  0
   37.6280   22.2740   36.1570 O   0  0  0  0  0  0  0  0  0  0  0  0
   38.2030   21.9020   34.9660 C   0  0  0  0  0  0  0  0  0  0  0  0
   39.1210   22.4680   34.7080 H   0  0  0  0  0  0  0  0  0  0  0  0
   38.5350   20.8230   35.0010 H   0  0  0  0  0  0  0  0  0  0  0  0
   37.2790   22.0290   33.8090 C   0  0  0  0  0  0  0  0  0  0  0  0
   36.2630   21.0910   33.6780 C   0  0  0  0  0  0  0  0  0  0  0  0
   35.3880   21.2010   32.5930 C   0  0  0  0  0  0  0  0  0  0  0  0
   35.5880   22.2320   31.7210 N   0  0  0  0  0  0  0  0  0  0  0  0
   36.5840   23.1240   31.8780 C   0  0  0  0  0  0  0  0  0  0  0  0
   37.4270   23.0290   32.9110 N   0  0  0  0  0  0  0  0  0  0  0  0
   36.1580   20.2960   34.4040 H   0  0  0  0  0  0  0  0  0  0  0  0
   34.5850   20.4770   32.4730 H   0  0  0  0  0  0  0  0  0  0  0  0
   36.6280   23.8890   31.1150 H   0  0  0  0  0  0  0  0  0  0  0  0
   38.0740   24.9420   36.7820 O   0  0  0  0  0  0  0  0  0  0  0  0
   39.5800   24.7640   34.3790 H   0  0  0  0  0  0  0  0  0  0  0  0
   38.7860   25.4580   34.5030 N   0  0  0  0  0  0  0  0  0  0  0  0
   38.0020   25.6360   35.5930 C   0  0  0  0  0  0  0  0  0  0  0  0
   37.1270   26.6210   35.3180 N   0  0  0  0  0  0  0  0  0  0  0  0
   37.3450   27.0760   34.0590 C   0  0  0  0  0  0  0  0  0  0  0  0
   36.7030   28.0760   33.3300 C   0  0  0  0  0  0  0  0  0  0  0  0
   37.1290   28.3300   32.0710 N   0  0  0  0  0  0  0  0  0  0  0  0
   38.1650   27.5930   31.5820 C   0  0  0  0  0  0  0  0  0  0  0  0
   38.4670   27.8360   30.5720 H   0  0  0  0  0  0  0  0  0  0  0  0
   38.7730   26.6350   32.2940 N   0  0  0  0  0  0  0  0  0  0  0  0
   38.4050   26.3250   33.5550 C   0  0  0  0  0  0  0  0  0  0  0  0
   35.6250   28.7860   33.9450 N   0  0  0  0  0  0  0  0  0  0  0  0
   34.9830   28.3180   34.6090 H   0  0  0  0  0  0  0  0  0  0  0  0
   35.5100   29.8030   33.6930 H   0  0  0  0  0  0  0  0  0  0  0  0
  2  1  2  6  0  0  0
  2  3  1  0  0  0  0
  3  4  1  0  0  0  0
  5  2  1  0  0  0  0
  6  8  1  0  0  0  0
  6  5  1  0  0  0  0
  7  6  1  0  0  0  0
  9  6  1  0  0  0  0
 10  9  1  0  0  0  0
 10 15  1  0  0  0  0
 11 10  2  0  0  0  0
 12 13  2  0  0  0  0
 12 11  1  0  0  0  0
 13 14  1  0  0  0  0
 14  9  2  0  0  0  0
 16 11  1  0  0  0  0
 17 13  1  0  0  0  0
 18  2  1  0  0  0  0
 19 20  1  0  0  0  0
 20 21  1  0  0  0  0
 21 18  1  0  0  0  0
 22 21  2  0  0  0  0
 23 22  1  0  0  0  0
 24 30  1  0  0  0  0
 24 23  2  0  0  0  0
 25 24  1  0  0  0  0
 26 25  2  0  0  0  0
 26 28  1  0  0  0  0
 27 26  1  0  0  0  0
 28 29  2  0  0  0  0
 29 23  1  0  0  0  0
 29 20  1  0  0  0  0
 30 31  1  0  0  0  0
 32 30  1  0  0  0  0
M  END
>  <minimizedAffinity>
-4.95105648

$$$$

 OpenBabel03272504203D

 32 34  0  0  0  0  0  0  0  0999 V2000
   36.5520   27.3250   34.8530 O   0  0  0  0  0  0  0  0  0  0  0  0
   38.0060   26.9650   34.9260 P   0  0  2  0  0  0  0  0  0  0  0  0
   38.6840   27.8450   36.2350 O   0  0  0  0  0  0  0  0  0  0  0  0
   39.6290   28.1050   35.9970 H   0  0  0  0  0  0  0  0  0  0  0  0
   38.8100   27.4020   33.5150 O   0  0  0  0  0  0  0  0  0  0  0  0
   38.1550   26.8410   32.4450 C   0  0  0  0  0  0  0  0  0  0  0  0
   38.7450   26.0740   31.9030 H   0  0  0  0  0  0  0  0  0  0  0  0
   37.2250   26.2980   32.7840 H   0  0  0  0  0  0  0  0  0  0  0  0
   37.7230   27.8440   31.4370 C   0  0  0  0  0  0  0  0  0  0  0  0
   38.2470   27.7490   30.1550 C   0  0  0  0  0  0  0  0  0  0  0  0
   37.8480   28.6870   29.1980 C   0  0  0  0  0  0  0  0  0  0  0  0
   36.9580   29.6470   29.5870 N   0  0  0  0  0  0  0  0  0  0  0  0
   36.4690   29.7100   30.8390 C   0  0  0  0  0  0  0  0  0  0  0  0
   36.8440   28.8190   31.7620 N   0  0  0  0  0  0  0  0  0  0  0  0
   38.9500   26.9640   29.9100 H   0  0  0  0  0  0  0  0  0  0  0  0
   38.2470   28.6300   28.1880 H   0  0  0  0  0  0  0  0  0  0  0  0
   35.7730   30.5200   31.0120 H   0  0  0  0  0  0  0  0  0  0  0  0
   38.1560   25.2990   35.2050 O   0  0  0  0  0  0  0  0  0  0  0  0
   40.7230   25.6260   34.0310 H   0  0  0  0  0  0  0  0  0  0  0  0
   40.5260   24.8960   34.7770 N   0  0  0  0  0  0  0  0  0  0  0  0
   39.3530   24.6460   35.4050 C   0  0  0  0  0  0  0  0  0  0  0  0
   39.5540   23.6360   36.2730 N   0  0  0  0  0  0  0  0  0  0  0  0
   40.8490   23.2370   36.2030 C   0  0  0  0  0  0  0  0  0  0  0  0
   41.5290   22.2380   36.8980 C   0  0  0  0  0  0  0  0  0  0  0  0
   42.8420   22.0480   36.6300 N   0  0  0  0  0  0  0  0  0  0  0  0
   43.4290   22.8440   35.6930 C   0  0  0  0  0  0  0  0  0  0  0  0
   44.4780   22.6500   35.5160 H   0  0  0  0  0  0  0  0  0  0  0  0
   42.7620   23.8000   35.0330 N   0  0  0  0  0  0  0  0  0  0  0  0
   41.4530   24.0480   35.2460 C   0  0  0  0  0  0  0  0  0  0  0  0
   40.8110   21.4630   37.8610 N   0  0  0  0  0  0  0  0  0  0  0  0
   40.0510   21.8790   38.4270 H   0  0  0  0  0  0  0  0  0  0  0  0
   41.0880   20.4510   37.9710 H   0  0  0  0  0  0  0  0  0  0  0  0
  2  1  2  6  0  0  0
  2 18  1  0  0  0  0
  2  3  1  0  0  0  0
  4  3  1  0  0  0  0
  5  2  1  0  0  0  0
  6  8  1  0  0  0  0
  6  5  1  0  0  0  0
  7  6  1  0  0  0  0
  9 14  1  0  0  0  0
  9  6  1  0  0  0  0
 10  9  2  0  0  0  0
 11 12  2  0  0  0  0
 11 10  1  0  0  0  0
 12 13  1  0  0  0  0
 13 17  1  0  0  0  0
 13 14  2  0  0  0  0
 15 10  1  0  0  0  0
 16 11  1  0  0  0  0
 18 21  1  0  0  0  0
 19 20  1  0  0  0  0
 20 29  1  0  0  0  0
 20 21  1  0  0  0  0
 21 22  2  0  0  0  0
 23 22  1  0  0  0  0
 23 24  1  0  0  0  0
 24 30  1  0  0  0  0
 25 24  2  0  0  0  0
 26 25  1  0  0  0  0
 27 26  1  0  0  0  0
 28 29  1  0  0  0  0
 28 26  2  0  0  0  0
 29 23  2  0  0  0  0
 30 32  1  0  0  0  0
 30 31  1  0  0  0  0
M  END
>  <minimizedAffinity>
-4.95094681

$$$$
