
 OpenBabel03272509193D

 38 41  0  0  0  0  0  0  0  0999 V2000
   37.5110   26.1050   31.9170 C   0  0  0  0  0  0  0  0  0  0  0  0
   36.5300   26.7960   31.2150 C   0  0  0  0  0  0  0  0  0  0  0  0
   35.4360   26.0150   30.8400 C   0  0  0  0  0  0  0  0  0  0  0  0
   35.3660   24.6590   31.1580 C   0  0  0  0  0  0  0  0  0  0  0  0
   36.4060   24.0550   31.8700 C   0  0  0  0  0  0  0  0  0  0  0  0
   37.4990   24.8020   32.2540 C   0  0  0  0  0  0  0  0  0  0  0  0
   34.6210   26.4620   30.2890 H   0  0  0  0  0  0  0  0  0  0  0  0
   34.4930   24.0860   30.8460 H   0  0  0  0  0  0  0  0  0  0  0  0
   36.3330   23.0090   32.1060 H   0  0  0  0  0  0  0  0  0  0  0  0
   37.1100   28.5810   29.6380 C   0  0  0  0  0  0  0  0  0  0  0  0
   36.6040   28.1840   30.8890 C   0  0  0  0  0  0  0  0  0  0  0  0
   36.1910   29.1840   31.7670 C   0  0  0  0  0  0  0  0  0  0  0  0
   36.3010   30.4820   31.3650 N   0  0  0  0  0  0  0  0  0  0  0  0
   36.7970   30.8280   30.1450 C   0  0  0  0  0  0  0  0  0  0  0  0
   37.1980   29.8770   29.2900 N   0  0  0  0  0  0  0  0  0  0  0  0
   37.4410   27.8250   28.9310 H   0  0  0  0  0  0  0  0  0  0  0  0
   36.8800   31.8590   29.8360 H   0  0  0  0  0  0  0  0  0  0  0  0
   35.6530   28.8340   33.0900 C   0  0  0  0  0  0  0  0  0  0  0  0
   36.1680   29.4980   33.8370 H   0  0  0  0  0  0  0  0  0  0  0  0
   34.5700   29.0540   33.1190 H   0  0  0  0  0  0  0  0  0  0  0  0
   35.8710   27.7720   33.2960 H   0  0  0  0  0  0  0  0  0  0  0  0
   38.6560   26.8330   32.3350 O   0  0  0  0  0  0  0  0  0  0  0  0
   39.5090   26.6000   31.8360 H   0  0  0  0  0  0  0  0  0  0  0  0
   38.5070   24.1780   32.9540 O   0  0  0  0  0  0  0  0  0  0  0  0
   37.2770   25.5570   35.1200 H   0  0  0  0  0  0  0  0  0  0  0  0
   37.9240   24.7890   35.3130 N   0  0  0  0  0  0  0  0  0  0  0  0
   38.5270   24.1090   34.3230 C   0  0  0  0  0  0  0  0  0  0  0  0
   39.2990   23.1810   34.9400 N   0  0  0  0  0  0  0  0  0  0  0  0
   39.1670   23.2940   36.2710 C   0  0  0  0  0  0  0  0  0  0  0  0
   39.6580   22.6800   37.4210 C   0  0  0  0  0  0  0  0  0  0  0  0
   39.2820   23.0830   38.6490 N   0  0  0  0  0  0  0  0  0  0  0  0
   38.4060   24.1090   38.8110 C   0  0  0  0  0  0  0  0  0  0  0  0
   38.0680   24.4760   39.7680 H   0  0  0  0  0  0  0  0  0  0  0  0
   37.8840   24.7570   37.7420 N   0  0  0  0  0  0  0  0  0  0  0  0
   38.2820   24.3290   36.5250 C   0  0  0  0  0  0  0  0  0  0  0  0
   40.5750   21.6050   37.2310 N   0  0  0  0  0  0  0  0  0  0  0  0
   41.5730   21.6330   36.9120 H   0  0  0  0  0  0  0  0  0  0  0  0
   40.0660   20.7240   37.4750 H   0  0  0  0  0  0  0  0  0  0  0  0
  1  6  1  0  0  0  0
  1 22  1  0  0  0  0
  2  1  2  0  0  0  0
  3  4  2  0  0  0  0
  3  2  1  0  0  0  0
  4  5  1  0  0  0  0
  5  9  1  0  0  0  0
  5  6  2  0  0  0  0
  6 24  1  0  0  0  0
  7  3  1  0  0  0  0
  8  4  1  0  0  0  0
 10 11  1  0  0  0  0
 11  2  1  0  0  0  0
 11 12  2  0  0  0  0
 12 18  1  0  0  0  0
 13 12  1  0  0  0  0
 14 13  2  0  0  0  0
 15 10  2  0  0  0  0
 15 14  1  0  0  0  0
 16 10  1  0  0  0  0
 17 14  1  0  0  0  0
 18 20  1  0  0  0  0
 18 21  1  0  0  0  0
 18 19  1  0  0  0  0
 23 22  1  0  0  0  0
 24 27  1  0  0  0  0
 25 26  1  0  0  0  0
 26 35  1  0  0  0  0
 27 28  2  0  0  0  0
 27 26  1  0  0  0  0
 28 29  1  0  0  0  0
 29 35  2  0  0  0  0
 29 30  1  0  0  0  0
 30 31  2  0  0  0  0
 31 32  1  0  0  0  0
 32 33  1  0  0  0  0
 34 32  2  0  0  0  0
 35 34  1  0  0  0  0
 36 30  1  0  0  0  0
 36 38  1  0  0  0  0
 37 36  1  0  0  0  0
M  END
>  <minimizedAffinity>
-6.2205534

$$$$

 OpenBabel03272509193D

 38 41  0  0  0  0  0  0  0  0999 V2000
   37.8930   25.6550   34.1040 C   0  0  0  0  0  0  0  0  0  0  0  0
   38.6580   25.5230   35.2580 C   0  0  0  0  0  0  0  0  0  0  0  0
   38.6250   26.6370   36.0970 C   0  0  0  0  0  0  0  0  0  0  0  0
   37.8790   27.7700   35.7750 C   0  0  0  0  0  0  0  0  0  0  0  0
   37.1410   27.8050   34.5890 C   0  0  0  0  0  0  0  0  0  0  0  0
   37.1540   26.7190   33.7400 C   0  0  0  0  0  0  0  0  0  0  0  0
   39.1890   26.6310   37.0190 H   0  0  0  0  0  0  0  0  0  0  0  0
   37.8810   28.6190   36.4590 H   0  0  0  0  0  0  0  0  0  0  0  0
   36.5720   28.6870   34.3580 H   0  0  0  0  0  0  0  0  0  0  0  0
   40.7250   24.2180   35.0760 C   0  0  0  0  0  0  0  0  0  0  0  0
   39.4220   24.3620   35.5860 C   0  0  0  0  0  0  0  0  0  0  0  0
   38.9300   23.3460   36.4020 C   0  0  0  0  0  0  0  0  0  0  0  0
   39.7360   22.2760   36.6580 N   0  0  0  0  0  0  0  0  0  0  0  0
   40.9930   22.1710   36.1460 C   0  0  0  0  0  0  0  0  0  0  0  0
   41.4800   23.1410   35.3590 N   0  0  0  0  0  0  0  0  0  0  0  0
   41.1380   24.9940   34.4360 H   0  0  0  0  0  0  0  0  0  0  0  0
   41.6240   21.3210   36.3540 H   0  0  0  0  0  0  0  0  0  0  0  0
   37.5760   23.4380   36.9660 C   0  0  0  0  0  0  0  0  0  0  0  0
   37.0810   22.4430   36.7870 H   0  0  0  0  0  0  0  0  0  0  0  0
   37.6390   23.6010   38.0570 H   0  0  0  0  0  0  0  0  0  0  0  0
   37.0270   24.2450   36.4510 H   0  0  0  0  0  0  0  0  0  0  0  0
   37.8750   24.5610   33.2000 O   0  0  0  0  0  0  0  0  0  0  0  0
   38.3710   24.7250   32.3290 H   0  0  0  0  0  0  0  0  0  0  0  0
   36.4170   26.7840   32.5800 O   0  0  0  0  0  0  0  0  0  0  0  0
   35.7450   29.4940   32.0180 H   0  0  0  0  0  0  0  0  0  0  0  0
   36.3320   28.9730   31.3630 N   0  0  0  0  0  0  0  0  0  0  0  0
   36.6760   27.6930   31.5870 C   0  0  0  0  0  0  0  0  0  0  0  0
   37.4440   27.3340   30.5290 N   0  0  0  0  0  0  0  0  0  0  0  0
   37.5650   28.3720   29.6840 C   0  0  0  0  0  0  0  0  0  0  0  0
   38.1870   28.6580   28.4710 C   0  0  0  0  0  0  0  0  0  0  0  0
   38.0820   29.8700   27.8950 N   0  0  0  0  0  0  0  0  0  0  0  0
   37.3610   30.8620   28.4810 C   0  0  0  0  0  0  0  0  0  0  0  0
   37.2410   31.8510   28.0680 H   0  0  0  0  0  0  0  0  0  0  0  0
   36.7270   30.6620   29.6610 N   0  0  0  0  0  0  0  0  0  0  0  0
   36.8520   29.4360   30.2110 C   0  0  0  0  0  0  0  0  0  0  0  0
   38.9390   27.6050   27.8720 N   0  0  0  0  0  0  0  0  0  0  0  0
   38.6000   26.7300   27.4050 H   0  0  0  0  0  0  0  0  0  0  0  0
   39.9500   27.8540   27.9790 H   0  0  0  0  0  0  0  0  0  0  0  0
  1  2  1  0  0  0  0
  2 11  1  0  0  0  0
  2  3  2  0  0  0  0
  3  7  1  0  0  0  0
  4  3  1  0  0  0  0
  4  8  1  0  0  0  0
  5  4  2  0  0  0  0
  6  1  2  0  0  0  0
  6  5  1  0  0  0  0
  9  5  1  0  0  0  0
 10 15  2  0  0  0  0
 10 11  1  0  0  0  0
 11 12  2  0  0  0  0
 12 13  1  0  0  0  0
 12 18  1  0  0  0  0
 14 17  1  0  0  0  0
 14 13  2  0  0  0  0
 15 14  1  0  0  0  0
 16 10  1  0  0  0  0
 18 20  1  0  0  0  0
 19 18  1  0  0  0  0
 21 18  1  0  0  0  0
 22  1  1  0  0  0  0
 23 22  1  0  0  0  0
 24  6  1  0  0  0  0
 26 27  1  0  0  0  0
 26 25  1  0  0  0  0
 27 24  1  0  0  0  0
 28 27  2  0  0  0  0
 29 35  1  0  0  0  0
 29 28  1  0  0  0  0
 30 29  2  0  0  0  0
 31 30  1  0  0  0  0
 31 32  2  0  0  0  0
 32 34  1  0  0  0  0
 33 32  1  0  0  0  0
 34 35  2  0  0  0  0
 35 26  1  0  0  0  0
 36 38  1  0  0  0  0
 36 30  1  0  0  0  0
 37 36  1  0  0  0  0
M  END
>  <minimizedAffinity>
-5.94764328

$$$$

 OpenBabel03272509193D

 38 41  0  0  0  0  0  0  0  0999 V2000
   37.9370   25.5560   34.0800 C   0  0  0  0  0  0  0  0  0  0  0  0
   38.6560   25.4650   35.2660 C   0  0  0  0  0  0  0  0  0  0  0  0
   38.5710   26.5970   36.0770 C   0  0  0  0  0  0  0  0  0  0  0  0
   37.8190   27.7090   35.6990 C   0  0  0  0  0  0  0  0  0  0  0  0
   37.1300   27.7030   34.4840 C   0  0  0  0  0  0  0  0  0  0  0  0
   37.1950   26.5990   33.6620 C   0  0  0  0  0  0  0  0  0  0  0  0
   39.0960   26.6220   37.0210 H   0  0  0  0  0  0  0  0  0  0  0  0
   37.7800   28.5730   36.3620 H   0  0  0  0  0  0  0  0  0  0  0  0
   36.5560   28.5700   34.2090 H   0  0  0  0  0  0  0  0  0  0  0  0
   40.7390   24.1750   35.1720 C   0  0  0  0  0  0  0  0  0  0  0  0
   39.4260   24.3250   35.6520 C   0  0  0  0  0  0  0  0  0  0  0  0
   38.9290   23.3360   36.4970 C   0  0  0  0  0  0  0  0  0  0  0  0
   39.7400   22.2850   36.8090 N   0  0  0  0  0  0  0  0  0  0  0  0
   41.0080   22.1740   36.3230 C   0  0  0  0  0  0  0  0  0  0  0  0
   41.4990   23.1180   35.5090 N   0  0  0  0  0  0  0  0  0  0  0  0
   41.1560   24.9310   34.5090 H   0  0  0  0  0  0  0  0  0  0  0  0
   41.6430   21.3380   36.5750 H   0  0  0  0  0  0  0  0  0  0  0  0
   37.5640   23.4340   37.0340 C   0  0  0  0  0  0  0  0  0  0  0  0
   37.0820   22.4290   36.8840 H   0  0  0  0  0  0  0  0  0  0  0  0
   37.6060   23.6400   38.1180 H   0  0  0  0  0  0  0  0  0  0  0  0
   37.0160   24.2160   36.4790 H   0  0  0  0  0  0  0  0  0  0  0  0
   37.9740   24.4420   33.2020 O   0  0  0  0  0  0  0  0  0  0  0  0
   38.5010   24.5950   32.3480 H   0  0  0  0  0  0  0  0  0  0  0  0
   36.5050   26.6240   32.4710 O   0  0  0  0  0  0  0  0  0  0  0  0
   38.2380   26.2850   30.2370 H   0  0  0  0  0  0  0  0  0  0  0  0
   37.7360   27.1690   30.3570 N   0  0  0  0  0  0  0  0  0  0  0  0
   36.9080   27.3730   31.3960 C   0  0  0  0  0  0  0  0  0  0  0  0
   36.4290   28.6320   31.2340 N   0  0  0  0  0  0  0  0  0  0  0  0
   36.9530   29.1770   30.1240 C   0  0  0  0  0  0  0  0  0  0  0  0
   36.8820   30.3770   29.4220 C   0  0  0  0  0  0  0  0  0  0  0  0
   37.5860   30.5740   28.2920 N   0  0  0  0  0  0  0  0  0  0  0  0
   38.3950   29.6010   27.7930 C   0  0  0  0  0  0  0  0  0  0  0  0
   38.9810   29.7000   26.8930 H   0  0  0  0  0  0  0  0  0  0  0  0
   38.5170   28.4060   28.4180 N   0  0  0  0  0  0  0  0  0  0  0  0
   37.7990   28.2420   29.5490 C   0  0  0  0  0  0  0  0  0  0  0  0
   36.0290   31.3840   29.9600 N   0  0  0  0  0  0  0  0  0  0  0  0
   36.1600   31.9800   30.8130 H   0  0  0  0  0  0  0  0  0  0  0  0
   35.1940   31.4430   29.3310 H   0  0  0  0  0  0  0  0  0  0  0  0
  1  2  1  0  0  0  0
  2 11  1  0  0  0  0
  2  3  2  0  0  0  0
  3  7  1  0  0  0  0
  4  3  1  0  0  0  0
  4  8  1  0  0  0  0
  5  4  2  0  0  0  0
  6  1  2  0  0  0  0
  6  5  1  0  0  0  0
  9  5  1  0  0  0  0
 10 15  2  0  0  0  0
 10 11  1  0  0  0  0
 11 12  2  0  0  0  0
 12 13  1  0  0  0  0
 12 18  1  0  0  0  0
 14 17  1  0  0  0  0
 14 13  2  0  0  0  0
 15 14  1  0  0  0  0
 16 10  1  0  0  0  0
 18 20  1  0  0  0  0
 19 18  1  0  0  0  0
 21 18  1  0  0  0  0
 22  1  1  0  0  0  0
 23 22  1  0  0  0  0
 24  6  1  0  0  0  0
 25 26  1  0  0  0  0
 26 27  1  0  0  0  0
 27 24  1  0  0  0  0
 28 27  2  0  0  0  0
 29 28  1  0  0  0  0
 30 36  1  0  0  0  0
 30 29  2  0  0  0  0
 31 30  1  0  0  0  0
 32 31  2  0  0  0  0
 32 34  1  0  0  0  0
 33 32  1  0  0  0  0
 34 35  2  0  0  0  0
 35 29  1  0  0  0  0
 35 26  1  0  0  0  0
 36 37  1  0  0  0  0
 38 36  1  0  0  0  0
M  END
>  <minimizedAffinity>
-5.87262058

$$$$

 OpenBabel03272509193D

 38 41  0  0  0  0  0  0  0  0999 V2000
   37.9730   24.0580   33.8660 C   0  0  0  0  0  0  0  0  0  0  0  0
   38.8430   24.6150   34.7970 C   0  0  0  0  0  0  0  0  0  0  0  0
   38.9900   25.9980   34.6880 C   0  0  0  0  0  0  0  0  0  0  0  0
   38.3080   26.7290   33.7160 C   0  0  0  0  0  0  0  0  0  0  0  0
   37.4530   26.0750   32.8240 C   0  0  0  0  0  0  0  0  0  0  0  0
   37.2880   24.7090   32.9080 C   0  0  0  0  0  0  0  0  0  0  0  0
   39.6460   26.5230   35.3670 H   0  0  0  0  0  0  0  0  0  0  0  0
   38.4510   27.8080   33.6650 H   0  0  0  0  0  0  0  0  0  0  0  0
   36.9360   26.6560   32.0820 H   0  0  0  0  0  0  0  0  0  0  0  0
   40.8400   23.3950   35.5270 C   0  0  0  0  0  0  0  0  0  0  0  0
   39.5420   23.8650   35.7910 C   0  0  0  0  0  0  0  0  0  0  0  0
   38.9880   23.5710   37.0350 C   0  0  0  0  0  0  0  0  0  0  0  0
   39.7330   22.8480   37.9190 N   0  0  0  0  0  0  0  0  0  0  0  0
   40.9890   22.4100   37.6270 C   0  0  0  0  0  0  0  0  0  0  0  0
   41.5340   22.6850   36.4340 N   0  0  0  0  0  0  0  0  0  0  0  0
   41.3000   23.6080   34.5640 H   0  0  0  0  0  0  0  0  0  0  0  0
   41.5710   21.8380   38.3330 H   0  0  0  0  0  0  0  0  0  0  0  0
   37.6340   24.0340   37.3740 C   0  0  0  0  0  0  0  0  0  0  0  0
   37.0890   23.1540   37.8130 H   0  0  0  0  0  0  0  0  0  0  0  0
   37.6940   24.8240   38.1440 H   0  0  0  0  0  0  0  0  0  0  0  0
   37.1340   24.3820   36.4530 H   0  0  0  0  0  0  0  0  0  0  0  0
   37.7710   22.6540   33.9150 O   0  0  0  0  0  0  0  0  0  0  0  0
   38.1820   22.1420   33.1410 H   0  0  0  0  0  0  0  0  0  0  0  0
   36.4390   24.0950   32.0160 O   0  0  0  0  0  0  0  0  0  0  0  0
   38.3830   22.7720   30.4090 H   0  0  0  0  0  0  0  0  0  0  0  0
   37.5920   22.2430   30.7820 N   0  0  0  0  0  0  0  0  0  0  0  0
   36.6500   22.8250   31.5450 C   0  0  0  0  0  0  0  0  0  0  0  0
   35.7730   21.8370   31.8530 N   0  0  0  0  0  0  0  0  0  0  0  0
   36.1730   20.6850   31.2910 C   0  0  0  0  0  0  0  0  0  0  0  0
   35.7470   19.3610   31.2190 C   0  0  0  0  0  0  0  0  0  0  0  0
   36.4380   18.4360   30.5280 N   0  0  0  0  0  0  0  0  0  0  0  0
   37.5840   18.7640   29.8730 C   0  0  0  0  0  0  0  0  0  0  0  0
   38.1800   18.0680   29.3040 H   0  0  0  0  0  0  0  0  0  0  0  0
   38.0630   20.0300   29.8960 N   0  0  0  0  0  0  0  0  0  0  0  0
   37.3450   20.9330   30.5970 C   0  0  0  0  0  0  0  0  0  0  0  0
   34.5440   19.0360   31.9120 N   0  0  0  0  0  0  0  0  0  0  0  0
   33.5540   19.2870   31.6770 H   0  0  0  0  0  0  0  0  0  0  0  0
   34.8190   18.4700   32.7490 H   0  0  0  0  0  0  0  0  0  0  0  0
  1 22  1  0  0  0  0
  1  2  1  0  0  0  0
  2 11  1  0  0  0  0
  3  2  2  0  0  0  0
  3  7  1  0  0  0  0
  4  3  1  0  0  0  0
  5  6  1  0  0  0  0
  5  4  2  0  0  0  0
  6  1  2  0  0  0  0
  8  4  1  0  0  0  0
  9  5  1  0  0  0  0
 10 11  2  0  0  0  0
 10 15  1  0  0  0  0
 11 12  1  0  0  0  0
 12 18  1  0  0  0  0
 12 13  2  0  0  0  0
 14 13  1  0  0  0  0
 14 17  1  0  0  0  0
 15 14  2  0  0  0  0
 16 10  1  0  0  0  0
 18 19  1  0  0  0  0
 18 20  1  0  0  0  0
 21 18  1  0  0  0  0
 23 22  1  0  0  0  0
 24  6  1  0  0  0  0
 25 26  1  0  0  0  0
 26 27  1  0  0  0  0
 27 28  2  0  0  0  0
 27 24  1  0  0  0  0
 29 28  1  0  0  0  0
 30 29  1  0  0  0  0
 30 36  1  0  0  0  0
 31 30  2  0  0  0  0
 32 34  2  0  0  0  0
 32 31  1  0  0  0  0
 33 32  1  0  0  0  0
 34 35  1  0  0  0  0
 35 26  1  0  0  0  0
 35 29  2  0  0  0  0
 36 38  1  0  0  0  0
 37 36  1  0  0  0  0
M  END
>  <minimizedAffinity>
-5.78788328

$$$$

 OpenBabel03272509193D

 38 41  0  0  0  0  0  0  0  0999 V2000
   36.2770   28.2350   33.5850 C   0  0  0  0  0  0  0  0  0  0  0  0
   35.4900   28.3460   32.4450 C   0  0  0  0  0  0  0  0  0  0  0  0
   35.6320   27.2890   31.5460 C   0  0  0  0  0  0  0  0  0  0  0  0
   36.4990   26.2270   31.8000 C   0  0  0  0  0  0  0  0  0  0  0  0
   37.2500   26.2080   32.9790 C   0  0  0  0  0  0  0  0  0  0  0  0
   37.1300   27.2380   33.8860 C   0  0  0  0  0  0  0  0  0  0  0  0
   35.0610   27.2850   30.6280 H   0  0  0  0  0  0  0  0  0  0  0  0
   36.5810   25.4220   31.0700 H   0  0  0  0  0  0  0  0  0  0  0  0
   37.9130   25.3810   33.1570 H   0  0  0  0  0  0  0  0  0  0  0  0
   33.2840   29.3910   32.6730 C   0  0  0  0  0  0  0  0  0  0  0  0
   34.6020   29.4340   32.1850 C   0  0  0  0  0  0  0  0  0  0  0  0
   34.9860   30.5580   31.4570 C   0  0  0  0  0  0  0  0  0  0  0  0
   34.0670   31.5460   31.2610 N   0  0  0  0  0  0  0  0  0  0  0  0
   32.7980   31.4680   31.7500 C   0  0  0  0  0  0  0  0  0  0  0  0
   32.4150   30.3920   32.4520 N   0  0  0  0  0  0  0  0  0  0  0  0
   32.9540   28.5260   33.2450 H   0  0  0  0  0  0  0  0  0  0  0  0
   32.0770   32.2550   31.5900 H   0  0  0  0  0  0  0  0  0  0  0  0
   36.3500   30.6640   30.9190 C   0  0  0  0  0  0  0  0  0  0  0  0
   36.2530   30.9880   29.8470 H   0  0  0  0  0  0  0  0  0  0  0  0
   36.9050   31.4460   31.4690 H   0  0  0  0  0  0  0  0  0  0  0  0
   36.8400   29.6770   30.9860 H   0  0  0  0  0  0  0  0  0  0  0  0
   36.1860   29.2730   34.5490 O   0  0  0  0  0  0  0  0  0  0  0  0
   37.0080   29.8670   34.6080 H   0  0  0  0  0  0  0  0  0  0  0  0
   37.8820   27.1890   35.0380 O   0  0  0  0  0  0  0  0  0  0  0  0
   40.3340   25.9210   34.3370 H   0  0  0  0  0  0  0  0  0  0  0  0
   39.7400   25.5080   35.0600 N   0  0  0  0  0  0  0  0  0  0  0  0
   38.5750   26.0720   35.4240 C   0  0  0  0  0  0  0  0  0  0  0  0
   38.0700   25.2650   36.3900 N   0  0  0  0  0  0  0  0  0  0  0  0
   38.9070   24.2380   36.6070 C   0  0  0  0  0  0  0  0  0  0  0  0
   38.9810   23.1110   37.4220 C   0  0  0  0  0  0  0  0  0  0  0  0
   40.0260   22.2650   37.3590 N   0  0  0  0  0  0  0  0  0  0  0  0
   41.0500   22.4810   36.4920 C   0  0  0  0  0  0  0  0  0  0  0  0
   41.9120   21.8400   36.3970 H   0  0  0  0  0  0  0  0  0  0  0  0
   41.0510   23.5550   35.6670 N   0  0  0  0  0  0  0  0  0  0  0  0
   39.9890   24.3830   35.7550 C   0  0  0  0  0  0  0  0  0  0  0  0
   37.8980   22.9010   38.3250 N   0  0  0  0  0  0  0  0  0  0  0  0
   36.9160   22.5960   38.1230 H   0  0  0  0  0  0  0  0  0  0  0  0
   38.2570   23.1120   39.2850 H   0  0  0  0  0  0  0  0  0  0  0  0
  1  6  1  0  0  0  0
  1 22  1  0  0  0  0
  2  1  2  0  0  0  0
  3  4  2  0  0  0  0
  3  2  1  0  0  0  0
  4  5  1  0  0  0  0
  5  9  1  0  0  0  0
  5  6  2  0  0  0  0
  6 24  1  0  0  0  0
  7  3  1  0  0  0  0
  8  4  1  0  0  0  0
 10 16  1  0  0  0  0
 11  2  1  0  0  0  0
 11 10  2  0  0  0  0
 12 11  1  0  0  0  0
 13 12  2  0  0  0  0
 13 14  1  0  0  0  0
 14 15  2  0  0  0  0
 15 10  1  0  0  0  0
 17 14  1  0  0  0  0
 18 21  1  0  0  0  0
 18 12  1  0  0  0  0
 18 20  1  0  0  0  0
 19 18  1  0  0  0  0
 22 23  1  0  0  0  0
 24 27  1  0  0  0  0
 25 26  1  0  0  0  0
 26 27  1  0  0  0  0
 26 35  1  0  0  0  0
 27 28  2  0  0  0  0
 28 29  1  0  0  0  0
 29 30  1  0  0  0  0
 30 36  1  0  0  0  0
 31 30  2  0  0  0  0
 32 31  1  0  0  0  0
 33 32  1  0  0  0  0
 34 35  1  0  0  0  0
 34 32  2  0  0  0  0
 35 29  2  0  0  0  0
 36 38  1  0  0  0  0
 37 36  1  0  0  0  0
M  END
>  <minimizedAffinity>
-5.6600132

$$$$

 OpenBabel03272509193D

 38 41  0  0  0  0  0  0  0  0999 V2000
   37.9470   25.3270   34.3540 C   0  0  0  0  0  0  0  0  0  0  0  0
   37.9150   26.6720   34.0030 C   0  0  0  0  0  0  0  0  0  0  0  0
   38.0920   27.5470   35.0750 C   0  0  0  0  0  0  0  0  0  0  0  0
   38.2820   27.0800   36.3750 C   0  0  0  0  0  0  0  0  0  0  0  0
   38.2980   25.7050   36.6250 C   0  0  0  0  0  0  0  0  0  0  0  0
   38.1260   24.8160   35.5860 C   0  0  0  0  0  0  0  0  0  0  0  0
   38.0830   28.6150   34.9040 H   0  0  0  0  0  0  0  0  0  0  0  0
   38.4160   27.7980   37.1830 H   0  0  0  0  0  0  0  0  0  0  0  0
   38.4450   25.3630   37.6330 H   0  0  0  0  0  0  0  0  0  0  0  0
   36.4190   27.4140   32.2080 C   0  0  0  0  0  0  0  0  0  0  0  0
   37.7210   27.1500   32.6720 C   0  0  0  0  0  0  0  0  0  0  0  0
   38.7780   27.3730   31.7930 C   0  0  0  0  0  0  0  0  0  0  0  0
   38.4920   27.8300   30.5410 N   0  0  0  0  0  0  0  0  0  0  0  0
   37.2170   28.0740   30.1270 C   0  0  0  0  0  0  0  0  0  0  0  0
   36.1900   27.8640   30.9620 N   0  0  0  0  0  0  0  0  0  0  0  0
   35.5720   27.2490   32.8700 H   0  0  0  0  0  0  0  0  0  0  0  0
   37.0000   28.4360   29.1340 H   0  0  0  0  0  0  0  0  0  0  0  0
   40.1620   27.1170   32.2170 C   0  0  0  0  0  0  0  0  0  0  0  0
   40.6510   26.5250   31.3950 H   0  0  0  0  0  0  0  0  0  0  0  0
   40.7010   28.0760   32.3200 H   0  0  0  0  0  0  0  0  0  0  0  0
   40.1480   26.5400   33.1580 H   0  0  0  0  0  0  0  0  0  0  0  0
   37.7750   24.3740   33.3160 O   0  0  0  0  0  0  0  0  0  0  0  0
   36.8890   23.8780   33.3410 H   0  0  0  0  0  0  0  0  0  0  0  0
   38.1470   23.4680   35.8650 O   0  0  0  0  0  0  0  0  0  0  0  0
   39.4900   22.1970   38.0310 H   0  0  0  0  0  0  0  0  0  0  0  0
   39.9090   22.1800   37.0980 N   0  0  0  0  0  0  0  0  0  0  0  0
   39.3110   22.7660   36.0460 C   0  0  0  0  0  0  0  0  0  0  0  0
   40.1380   22.5480   34.9930 N   0  0  0  0  0  0  0  0  0  0  0  0
   41.2100   21.8470   35.3960 C   0  0  0  0  0  0  0  0  0  0  0  0
   42.3750   21.3190   34.8450 C   0  0  0  0  0  0  0  0  0  0  0  0
   43.2630   20.6400   35.5940 N   0  0  0  0  0  0  0  0  0  0  0  0
   43.0520   20.4440   36.9230 C   0  0  0  0  0  0  0  0  0  0  0  0
   43.7270   19.9090   37.5730 H   0  0  0  0  0  0  0  0  0  0  0  0
   41.9430   20.9260   37.5320 N   0  0  0  0  0  0  0  0  0  0  0  0
   41.0740   21.6030   36.7530 C   0  0  0  0  0  0  0  0  0  0  0  0
   42.5780   21.5340   33.4500 N   0  0  0  0  0  0  0  0  0  0  0  0
   42.8290   22.4170   32.9440 H   0  0  0  0  0  0  0  0  0  0  0  0
   42.4260   20.6140   32.9750 H   0  0  0  0  0  0  0  0  0  0  0  0
  1  6  1  0  0  0  0
  2  1  2  0  0  0  0
  2  3  1  0  0  0  0
  3  4  2  0  0  0  0
  4  5  1  0  0  0  0
  4  8  1  0  0  0  0
  5  9  1  0  0  0  0
  6 24  1  0  0  0  0
  6  5  2  0  0  0  0
  7  3  1  0  0  0  0
 10 11  1  0  0  0  0
 10 16  1  0  0  0  0
 11  2  1  0  0  0  0
 12 18  1  0  0  0  0
 12 11  2  0  0  0  0
 13 12  1  0  0  0  0
 14 13  2  0  0  0  0
 14 15  1  0  0  0  0
 15 10  2  0  0  0  0
 17 14  1  0  0  0  0
 18 20  1  0  0  0  0
 18 21  1  0  0  0  0
 19 18  1  0  0  0  0
 22 23  1  0  0  0  0
 22  1  1  0  0  0  0
 24 27  1  0  0  0  0
 26 25  1  0  0  0  0
 27 26  1  0  0  0  0
 28 29  1  0  0  0  0
 28 27  2  0  0  0  0
 29 35  1  0  0  0  0
 30 29  2  0  0  0  0
 30 31  1  0  0  0  0
 31 32  2  0  0  0  0
 32 34  1  0  0  0  0
 32 33  1  0  0  0  0
 35 26  1  0  0  0  0
 35 34  2  0  0  0  0
 36 30  1  0  0  0  0
 37 36  1  0  0  0  0
 38 36  1  0  0  0  0
M  END
>  <minimizedAffinity>
-5.63393879

$$$$

 OpenBabel03272509193D

 38 41  0  0  0  0  0  0  0  0999 V2000
   36.9470   27.6870   33.2300 C   0  0  0  0  0  0  0  0  0  0  0  0
   38.1680   27.2740   32.7080 C   0  0  0  0  0  0  0  0  0  0  0  0
   38.4100   27.7080   31.4050 C   0  0  0  0  0  0  0  0  0  0  0  0
   37.4840   28.4870   30.7130 C   0  0  0  0  0  0  0  0  0  0  0  0
   36.2820   28.8510   31.3260 C   0  0  0  0  0  0  0  0  0  0  0  0
   36.0160   28.4380   32.6130 C   0  0  0  0  0  0  0  0  0  0  0  0
   39.3330   27.4380   30.9120 H   0  0  0  0  0  0  0  0  0  0  0  0
   37.7120   28.8040   29.6950 H   0  0  0  0  0  0  0  0  0  0  0  0
   35.5810   29.4520   30.7760 H   0  0  0  0  0  0  0  0  0  0  0  0
   40.1430   27.0980   34.1500 C   0  0  0  0  0  0  0  0  0  0  0  0
   39.1150   26.4760   33.4190 C   0  0  0  0  0  0  0  0  0  0  0  0
   39.0700   25.0830   33.4220 C   0  0  0  0  0  0  0  0  0  0  0  0
   40.0200   24.4080   34.1300 N   0  0  0  0  0  0  0  0  0  0  0  0
   41.0000   25.0460   34.8270 C   0  0  0  0  0  0  0  0  0  0  0  0
   41.0560   26.3850   34.8320 N   0  0  0  0  0  0  0  0  0  0  0  0
   40.2060   28.1830   34.1670 H   0  0  0  0  0  0  0  0  0  0  0  0
   41.7480   24.5020   35.3850 H   0  0  0  0  0  0  0  0  0  0  0  0
   38.0200   24.3730   32.6770 C   0  0  0  0  0  0  0  0  0  0  0  0
   38.5310   23.5600   32.0910 H   0  0  0  0  0  0  0  0  0  0  0  0
   37.3180   23.9000   33.3860 H   0  0  0  0  0  0  0  0  0  0  0  0
   37.5180   25.0850   31.9990 H   0  0  0  0  0  0  0  0  0  0  0  0
   36.6300   27.2860   34.5550 O   0  0  0  0  0  0  0  0  0  0  0  0
   35.8920   26.5910   34.6190 H   0  0  0  0  0  0  0  0  0  0  0  0
   34.8230   28.8130   33.1900 O   0  0  0  0  0  0  0  0  0  0  0  0
   36.4200   31.0020   34.0670 H   0  0  0  0  0  0  0  0  0  0  0  0
   35.5230   30.8160   34.5230 N   0  0  0  0  0  0  0  0  0  0  0  0
   34.7360   29.7950   34.1420 C   0  0  0  0  0  0  0  0  0  0  0  0
   33.6510   29.8540   34.9530 N   0  0  0  0  0  0  0  0  0  0  0  0
   33.7760   30.8850   35.8030 C   0  0  0  0  0  0  0  0  0  0  0  0
   33.0530   31.4720   36.8400 C   0  0  0  0  0  0  0  0  0  0  0  0
   33.5160   32.5500   37.4980 N   0  0  0  0  0  0  0  0  0  0  0  0
   34.7120   33.1090   37.1710 C   0  0  0  0  0  0  0  0  0  0  0  0
   35.1340   33.9720   37.6610 H   0  0  0  0  0  0  0  0  0  0  0  0
   35.4730   32.5970   36.1750 N   0  0  0  0  0  0  0  0  0  0  0  0
   34.9800   31.5150   35.5360 C   0  0  0  0  0  0  0  0  0  0  0  0
   31.8020   30.8720   37.1680 N   0  0  0  0  0  0  0  0  0  0  0  0
   31.6080   29.9620   37.6500 H   0  0  0  0  0  0  0  0  0  0  0  0
   31.0550   31.5240   36.8300 H   0  0  0  0  0  0  0  0  0  0  0  0
  1 22  1  0  0  0  0
  2  1  1  0  0  0  0
  2 11  1  0  0  0  0
  3  2  2  0  0  0  0
  4  5  2  0  0  0  0
  4  3  1  0  0  0  0
  5  6  1  0  0  0  0
  6 24  1  0  0  0  0
  6  1  2  0  0  0  0
  7  3  1  0  0  0  0
  8  4  1  0  0  0  0
  9  5  1  0  0  0  0
 10 16  1  0  0  0  0
 10 15  1  0  0  0  0
 11 12  1  0  0  0  0
 11 10  2  0  0  0  0
 12 13  2  0  0  0  0
 13 14  1  0  0  0  0
 14 15  2  0  0  0  0
 14 17  1  0  0  0  0
 18 20  1  0  0  0  0
 18 12  1  0  0  0  0
 19 18  1  0  0  0  0
 21 18  1  0  0  0  0
 22 23  1  0  0  0  0
 24 27  1  0  0  0  0
 25 26  1  0  0  0  0
 26 35  1  0  0  0  0
 27 26  1  0  0  0  0
 27 28  2  0  0  0  0
 28 29  1  0  0  0  0
 29 30  1  0  0  0  0
 30 36  1  0  0  0  0
 30 31  2  0  0  0  0
 32 31  1  0  0  0  0
 32 33  1  0  0  0  0
 34 32  2  0  0  0  0
 35 29  2  0  0  0  0
 35 34  1  0  0  0  0
 36 37  1  0  0  0  0
 38 36  1  0  0  0  0
M  END
>  <minimizedAffinity>
-5.60636568

$$$$

 OpenBabel03272509193D

 38 41  0  0  0  0  0  0  0  0999 V2000
   37.9690   24.4980   33.8010 C   0  0  0  0  0  0  0  0  0  0  0  0
   38.6350   24.9900   34.9180 C   0  0  0  0  0  0  0  0  0  0  0  0
   38.5170   26.3690   35.0940 C   0  0  0  0  0  0  0  0  0  0  0  0
   37.7870   27.1570   34.2060 C   0  0  0  0  0  0  0  0  0  0  0  0
   37.1520   26.5660   33.1100 C   0  0  0  0  0  0  0  0  0  0  0  0
   37.2500   25.2060   32.9100 C   0  0  0  0  0  0  0  0  0  0  0  0
   39.0000   26.8460   35.9350 H   0  0  0  0  0  0  0  0  0  0  0  0
   37.7210   28.2310   34.3800 H   0  0  0  0  0  0  0  0  0  0  0  0
   36.5940   27.1910   32.4350 H   0  0  0  0  0  0  0  0  0  0  0  0
   38.7640   23.6820   36.9870 C   0  0  0  0  0  0  0  0  0  0  0  0
   39.3820   24.1810   35.8280 C   0  0  0  0  0  0  0  0  0  0  0  0
   40.7210   23.8580   35.6170 C   0  0  0  0  0  0  0  0  0  0  0  0
   41.3500   23.0790   36.5430 N   0  0  0  0  0  0  0  0  0  0  0  0
   40.7180   22.6130   37.6550 C   0  0  0  0  0  0  0  0  0  0  0  0
   39.4300   22.9170   37.8710 N   0  0  0  0  0  0  0  0  0  0  0  0
   37.7200   23.9170   37.1810 H   0  0  0  0  0  0  0  0  0  0  0  0
   41.2240   21.9980   38.3820 H   0  0  0  0  0  0  0  0  0  0  0  0
   41.4250   24.3490   34.4230 C   0  0  0  0  0  0  0  0  0  0  0  0
   42.4080   24.7670   34.7740 H   0  0  0  0  0  0  0  0  0  0  0  0
   41.6300   23.5050   33.7410 H   0  0  0  0  0  0  0  0  0  0  0  0
   40.8150   25.1360   33.9460 H   0  0  0  0  0  0  0  0  0  0  0  0
   38.0410   23.1020   33.5560 O   0  0  0  0  0  0  0  0  0  0  0  0
   38.6070   22.8430   32.7530 H   0  0  0  0  0  0  0  0  0  0  0  0
   36.6140   24.6550   31.8220 O   0  0  0  0  0  0  0  0  0  0  0  0
   34.6480   22.9210   32.9370 H   0  0  0  0  0  0  0  0  0  0  0  0
   35.3490   22.5430   32.2960 N   0  0  0  0  0  0  0  0  0  0  0  0
   36.2950   23.3230   31.7450 C   0  0  0  0  0  0  0  0  0  0  0  0
   37.0350   22.4980   30.9640 N   0  0  0  0  0  0  0  0  0  0  0  0
   36.5500   21.2480   31.0390 C   0  0  0  0  0  0  0  0  0  0  0  0
   36.8310   19.9890   30.5120 C   0  0  0  0  0  0  0  0  0  0  0  0
   36.0900   18.9120   30.8290 N   0  0  0  0  0  0  0  0  0  0  0  0
   35.0340   19.0150   31.6800 C   0  0  0  0  0  0  0  0  0  0  0  0
   34.4040   18.1890   31.9700 H   0  0  0  0  0  0  0  0  0  0  0  0
   34.6970   20.2040   32.2330 N   0  0  0  0  0  0  0  0  0  0  0  0
   35.4610   21.2640   31.8950 C   0  0  0  0  0  0  0  0  0  0  0  0
   37.9410   19.9010   29.6220 N   0  0  0  0  0  0  0  0  0  0  0  0
   38.9670   19.9580   29.8320 H   0  0  0  0  0  0  0  0  0  0  0  0
   37.5500   19.7630   28.6610 H   0  0  0  0  0  0  0  0  0  0  0  0
  1  2  1  0  0  0  0
  2  3  2  0  0  0  0
  2 11  1  0  0  0  0
  3  7  1  0  0  0  0
  4  8  1  0  0  0  0
  4  3  1  0  0  0  0
  5  4  2  0  0  0  0
  6  5  1  0  0  0  0
  6  1  2  0  0  0  0
  9  5  1  0  0  0  0
 10 16  1  0  0  0  0
 10 15  1  0  0  0  0
 11 10  2  0  0  0  0
 12 11  1  0  0  0  0
 12 13  2  0  0  0  0
 13 14  1  0  0  0  0
 14 15  2  0  0  0  0
 14 17  1  0  0  0  0
 18 19  1  0  0  0  0
 18 12  1  0  0  0  0
 20 18  1  0  0  0  0
 21 18  1  0  0  0  0
 22  1  1  0  0  0  0
 23 22  1  0  0  0  0
 24  6  1  0  0  0  0
 26 25  1  0  0  0  0
 27 24  1  0  0  0  0
 27 26  1  0  0  0  0
 28 29  1  0  0  0  0
 28 27  2  0  0  0  0
 29 35  1  0  0  0  0
 30 31  1  0  0  0  0
 30 29  2  0  0  0  0
 31 32  2  0  0  0  0
 32 33  1  0  0  0  0
 32 34  1  0  0  0  0
 35 34  2  0  0  0  0
 35 26  1  0  0  0  0
 36 37  1  0  0  0  0
 36 30  1  0  0  0  0
 38 36  1  0  0  0  0
M  END
>  <minimizedAffinity>
-5.59071922

$$$$

 OpenBabel03272509193D

 38 41  0  0  0  0  0  0  0  0999 V2000
   38.4480   25.1770   34.0700 C   0  0  0  0  0  0  0  0  0  0  0  0
   38.3030   23.9330   34.6740 C   0  0  0  0  0  0  0  0  0  0  0  0
   37.8780   22.9240   33.8100 C   0  0  0  0  0  0  0  0  0  0  0  0
   37.6270   23.1760   32.4620 C   0  0  0  0  0  0  0  0  0  0  0  0
   37.8030   24.4640   31.9490 C   0  0  0  0  0  0  0  0  0  0  0  0
   38.2230   25.4810   32.7780 C   0  0  0  0  0  0  0  0  0  0  0  0
   37.7350   21.9210   34.1860 H   0  0  0  0  0  0  0  0  0  0  0  0
   37.2950   22.3580   31.8220 H   0  0  0  0  0  0  0  0  0  0  0  0
   37.6040   24.6390   30.9070 H   0  0  0  0  0  0  0  0  0  0  0  0
   37.5580   23.9290   37.0090 C   0  0  0  0  0  0  0  0  0  0  0  0
   38.5600   23.6770   36.0550 C   0  0  0  0  0  0  0  0  0  0  0  0
   39.7780   23.1790   36.5110 C   0  0  0  0  0  0  0  0  0  0  0  0
   39.9280   22.9660   37.8500 N   0  0  0  0  0  0  0  0  0  0  0  0
   38.9340   23.2230   38.7450 C   0  0  0  0  0  0  0  0  0  0  0  0
   37.7570   23.7030   38.3200 N   0  0  0  0  0  0  0  0  0  0  0  0
   36.5960   24.3190   36.6840 H   0  0  0  0  0  0  0  0  0  0  0  0
   39.0620   23.0520   39.8030 H   0  0  0  0  0  0  0  0  0  0  0  0
   40.8660   22.8940   35.5640 C   0  0  0  0  0  0  0  0  0  0  0  0
   41.8000   23.3490   35.9940 H   0  0  0  0  0  0  0  0  0  0  0  0
   41.0150   21.8010   35.4900 H   0  0  0  0  0  0  0  0  0  0  0  0
   40.6210   23.3510   34.5900 H   0  0  0  0  0  0  0  0  0  0  0  0
   38.8800   26.2570   34.8850 O   0  0  0  0  0  0  0  0  0  0  0  0
   38.1660   26.9530   35.0760 H   0  0  0  0  0  0  0  0  0  0  0  0
   38.3870   26.7390   32.2430 O   0  0  0  0  0  0  0  0  0  0  0  0
   35.9880   27.2840   33.6780 H   0  0  0  0  0  0  0  0  0  0  0  0
   36.2470   27.8750   32.8850 N   0  0  0  0  0  0  0  0  0  0  0  0
   37.3700   27.6560   32.1790 C   0  0  0  0  0  0  0  0  0  0  0  0
   37.3870   28.6160   31.2210 N   0  0  0  0  0  0  0  0  0  0  0  0
   36.3030   29.3980   31.3440 C   0  0  0  0  0  0  0  0  0  0  0  0
   35.7440   30.5070   30.7130 C   0  0  0  0  0  0  0  0  0  0  0  0
   34.5850   31.0470   31.1350 N   0  0  0  0  0  0  0  0  0  0  0  0
   33.9160   30.5250   32.1970 C   0  0  0  0  0  0  0  0  0  0  0  0
   32.9860   30.9130   32.5800 H   0  0  0  0  0  0  0  0  0  0  0  0
   34.3950   29.4470   32.8630 N   0  0  0  0  0  0  0  0  0  0  0  0
   35.5580   28.9300   32.4140 C   0  0  0  0  0  0  0  0  0  0  0  0
   36.4600   31.0410   29.6020 N   0  0  0  0  0  0  0  0  0  0  0  0
   36.5770   30.6470   28.6370 H   0  0  0  0  0  0  0  0  0  0  0  0
   36.8800   31.9460   29.9170 H   0  0  0  0  0  0  0  0  0  0  0  0
  1  2  1  0  0  0  0
  1 22  1  0  0  0  0
  2 11  1  0  0  0  0
  3  7  1  0  0  0  0
  3  2  2  0  0  0  0
  4  3  1  0  0  0  0
  5  4  2  0  0  0  0
  5  6  1  0  0  0  0
  6  1  2  0  0  0  0
  8  4  1  0  0  0  0
  9  5  1  0  0  0  0
 10 15  1  0  0  0  0
 11 12  1  0  0  0  0
 11 10  2  0  0  0  0
 12 13  2  0  0  0  0
 13 14  1  0  0  0  0
 14 17  1  0  0  0  0
 15 14  2  0  0  0  0
 16 10  1  0  0  0  0
 18 19  1  0  0  0  0
 18 12  1  0  0  0  0
 20 18  1  0  0  0  0
 21 18  1  0  0  0  0
 22 23  1  0  0  0  0
 24  6  1  0  0  0  0
 26 25  1  0  0  0  0
 27 24  1  0  0  0  0
 27 26  1  0  0  0  0
 28 29  1  0  0  0  0
 28 27  2  0  0  0  0
 29 35  1  0  0  0  0
 30 31  1  0  0  0  0
 30 29  2  0  0  0  0
 31 32  2  0  0  0  0
 32 33  1  0  0  0  0
 32 34  1  0  0  0  0
 35 34  2  0  0  0  0
 35 26  1  0  0  0  0
 36 38  1  0  0  0  0
 36 30  1  0  0  0  0
 37 36  1  0  0  0  0
M  END
>  <minimizedAffinity>
-5.51213932

$$$$
