
 OpenBabel03262520493D

 53 58  0  0  1  0  0  0  0  0999 V2000
   39.4770   28.7830   43.2250 C   0  0  0  0  0  0  0  0  0  0  0  0
   40.3340   29.8180   42.8950 C   0  0  0  0  0  0  0  0  0  0  0  0
   41.0930   29.7530   41.7210 C   0  0  0  0  0  0  0  0  0  0  0  0
   40.9960   28.6570   40.8860 C   0  0  0  0  0  0  0  0  0  0  0  0
   41.6130   28.3710   39.7240 N   0  0  0  0  0  0  0  0  0  0  0  0
   41.1500   27.1750   39.3340 C   0  0  0  0  0  0  0  0  0  0  0  0
   40.2370   26.6590   40.2130 C   0  0  0  0  0  0  0  0  0  0  0  0
   40.1450   27.6210   41.2080 C   0  0  0  0  0  0  0  0  0  0  0  0
   39.4010   27.6960   42.3670 C   0  0  0  0  0  0  0  0  0  0  0  0
   38.8450   28.7280   44.0980 H   0  0  0  0  0  0  0  0  0  0  0  0
   41.7520   30.5890   41.5020 H   0  0  0  0  0  0  0  0  0  0  0  0
   42.3110   28.9940   39.2560 H   0  0  0  0  0  0  0  0  0  0  0  0
   41.4950   26.7170   38.4170 H   0  0  0  0  0  0  0  0  0  0  0  0
   39.7060   25.7200   40.1520 H   0  0  0  0  0  0  0  0  0  0  0  0
   38.5370   26.5990   42.6540 N   0  0  0  0  0  0  0  0  0  0  0  0
   39.0100   25.5960   43.4410 C   0  0  0  0  0  0  0  0  0  0  0  0
   39.9810   25.4630   43.9240 H   0  0  0  0  0  0  0  0  0  0  0  0
   38.0120   24.6820   43.5640 N   0  0  0  0  0  0  0  0  0  0  0  0
   36.9440   25.1150   42.8630 C   0  0  0  0  0  0  0  0  0  0  0  0
   35.6590   24.6740   42.5890 C   0  0  0  0  0  0  0  0  0  0  0  0
   34.8430   25.4000   41.8210 N   0  0  0  0  0  0  0  0  0  0  0  0
   35.2040   26.5740   41.2800 C   0  0  0  0  0  0  0  0  0  0  0  0
   34.4620   27.0710   40.6790 H   0  0  0  0  0  0  0  0  0  0  0  0
   36.4510   27.0470   41.5210 N   0  0  0  0  0  0  0  0  0  0  0  0
   37.2790   26.3330   42.2850 C   0  0  0  0  0  0  0  0  0  0  0  0
   35.2630   23.4280   43.1570 N   0  0  0  0  0  0  0  0  0  0  0  0
   34.6900   22.7650   42.5610 H   0  0  0  0  0  0  0  0  0  0  0  0
   35.4580   23.0570   44.1060 H   0  0  0  0  0  0  0  0  0  0  0  0
   40.4200   30.9960   43.8140 C   0  0  0  0  0  0  0  0  0  0  0  0
   39.9330   31.8390   43.2590 H   0  0  0  0  0  0  0  0  0  0  0  0
   41.4770   31.2440   44.0490 H   0  0  0  0  0  0  0  0  0  0  0  0
   39.6200   30.6650   45.0540 C   0  0  0  0  0  0  0  0  0  0  0  0
   39.8860   29.6140   45.3400 H   0  0  0  0  0  0  0  0  0  0  0  0
   38.5460   30.7640   44.7560 H   0  0  0  0  0  0  0  0  0  0  0  0
   38.7900   32.2010   46.8770 C   0  0  1  0  0  0  0  0  0  0  0  0
   39.8750   32.9950   46.1860 C   0  0  0  0  0  0  0  0  0  0  0  0
   39.9260   31.5210   46.2280 C   0  0  2  0  0  0  0  0  0  0  0  0
   37.7810   32.1490   46.3990 H   0  0  0  0  0  0  0  0  0  0  0  0
   39.6570   33.4280   45.1810 H   0  0  0  0  0  0  0  0  0  0  0  0
   40.5860   33.5980   46.7550 H   0  0  0  0  0  0  0  0  0  0  0  0
   40.6890   31.1280   46.9640 H   0  0  0  0  0  0  0  0  0  0  0  0
   38.7210   32.3810   48.3590 C   0  0  0  0  0  0  0  0  0  0  0  0
   38.2420   33.3750   48.5540 H   0  0  0  0  0  0  0  0  0  0  0  0
   39.7350   32.4180   48.8060 H   0  0  0  0  0  0  0  0  0  0  0  0
   37.4450   30.0370   50.9930 C   0  0  0  0  0  0  0  0  0  0  0  0
   38.1550   31.0850   50.3420 C   0  0  0  0  0  0  0  0  0  0  0  0
   37.9630   31.2800   49.0030 C   0  0  0  0  0  0  0  0  0  0  0  0
   37.1110   30.4690   48.3670 N   0  0  0  0  0  0  0  0  0  0  0  0
   36.4420   29.4850   48.9740 C   0  0  0  0  0  0  0  0  0  0  0  0
   36.6210   29.2830   50.2860 N   0  0  0  0  0  0  0  0  0  0  0  0
   37.6410   29.9320   52.0680 H   0  0  0  0  0  0  0  0  0  0  0  0
   38.8360   31.7170   50.8990 H   0  0  0  0  0  0  0  0  0  0  0  0
   35.7540   28.8300   48.4580 H   0  0  0  0  0  0  0  0  0  0  0  0
  1 10  1  0  0  0  0
  2  1  1  0  0  0  0
  2 29  1  0  0  0  0
  3  2  2  0  0  0  0
  4  8  2  0  0  0  0
  4  3  1  0  0  0  0
  5  4  1  0  0  0  0
  6  5  1  0  0  0  0
  6  7  2  0  0  0  0
  7  8  1  0  0  0  0
  8  9  1  0  0  0  0
  9 15  1  0  0  0  0
  9  1  2  0  0  0  0
 11  3  1  0  0  0  0
 12  5  1  0  0  0  0
 13  6  1  0  0  0  0
 14  7  1  0  0  0  0
 15 16  1  0  0  0  0
 16 18  2  0  0  0  0
 16 17  1  0  0  0  0
 19 18  1  0  0  0  0
 20 19  1  0  0  0  0
 20 26  1  0  0  0  0
 21 20  2  0  0  0  0
 22 24  2  0  0  0  0
 22 21  1  0  0  0  0
 23 22  1  0  0  0  0
 24 25  1  0  0  0  0
 25 15  1  0  0  0  0
 25 19  2  0  0  0  0
 26 28  1  0  0  0  0
 27 26  1  0  0  0  0
 29 31  1  0  0  0  0
 29 32  1  0  0  0  0
 30 29  1  0  0  0  0
 32 33  1  0  0  0  0
 32 37  1  0  0  0  0
 34 32  1  0  0  0  0
 35 38  1  6  0  0  0
 35 42  1  0  0  0  0
 36 37  1  0  0  0  0
 36 40  1  0  0  0  0
 36 35  1  0  0  0  0
 37 35  1  0  0  0  0
 37 41  1  1  0  0  0
 39 36  1  0  0  0  0
 42 43  1  0  0  0  0
 42 44  1  0  0  0  0
 42 47  1  0  0  0  0
 45 51  1  0  0  0  0
 46 52  1  0  0  0  0
 46 45  1  0  0  0  0
 47 46  2  0  0  0  0
 48 49  2  0  0  0  0
 48 47  1  0  0  0  0
 49 50  1  0  0  0  0
 50 45  2  0  0  0  0
 53 49  1  0  0  0  0
M  END
>  <minimizedAffinity>
-6.05919552

>  <minimizedRMSD>
0.206726357

$$$$
