
 OpenBabel03272508093D

 29 31  0  0  0  0  0  0  0  0999 V2000
   38.9640   23.9550   32.4610 O   0  0  0  0  0  0  0  0  0  0  0  0
   37.4680   25.3350   34.2780 H   0  0  0  0  0  0  0  0  0  0  0  0
   38.1390   24.5720   34.5430 N   0  0  0  0  0  0  0  0  0  0  0  0
   38.9730   23.7590   33.8470 C   0  0  0  0  0  0  0  0  0  0  0  0
   39.6040   22.9570   34.7220 N   0  0  0  0  0  0  0  0  0  0  0  0
   39.1720   23.2600   35.9600 C   0  0  0  0  0  0  0  0  0  0  0  0
   39.5440   22.6960   37.1590 C   0  0  0  0  0  0  0  0  0  0  0  0
   38.9730   23.1650   38.2840 N   0  0  0  0  0  0  0  0  0  0  0  0
   38.0630   24.1680   38.1680 C   0  0  0  0  0  0  0  0  0  0  0  0
   37.5550   24.6050   39.0330 H   0  0  0  0  0  0  0  0  0  0  0  0
   37.6980   24.7220   37.0040 N   0  0  0  0  0  0  0  0  0  0  0  0
   38.2470   24.2770   35.8630 C   0  0  0  0  0  0  0  0  0  0  0  0
   40.5000   21.6450   37.2490 N   0  0  0  0  0  0  0  0  0  0  0  0
   41.4320   22.0730   37.5260 H   0  0  0  0  0  0  0  0  0  0  0  0
   40.4980   20.6000   37.1130 H   0  0  0  0  0  0  0  0  0  0  0  0
   37.3630   25.9000   31.9680 O   0  0  0  0  0  0  0  0  0  0  0  0
   37.5390   24.4390   31.6610 P   0  0  1  0  0  0  0  0  0  0  0  0
   37.8160   24.2130   30.0070 O   0  0  0  0  0  0  0  0  0  0  0  0
   37.0230   24.4150   29.4570 H   0  0  0  0  0  0  0  0  0  0  0  0
   36.2740   23.4670   32.1990 O   0  0  0  0  0  0  0  0  0  0  0  0
   34.9700   20.0010   32.0370 C   0  0  0  0  0  0  0  0  0  0  0  0
   35.0440   21.3240   32.4760 C   0  0  0  0  0  0  0  0  0  0  0  0
   36.0190   22.1590   31.9260 C   0  0  0  0  0  0  0  0  0  0  0  0
   36.8480   21.6360   30.9860 N   0  0  0  0  0  0  0  0  0  0  0  0
   36.7500   20.3490   30.5810 C   0  0  0  0  0  0  0  0  0  0  0  0
   35.8200   19.5430   31.1030 N   0  0  0  0  0  0  0  0  0  0  0  0
   34.1760   19.4770   32.5430 H   0  0  0  0  0  0  0  0  0  0  0  0
   34.4300   21.7940   33.2030 H   0  0  0  0  0  0  0  0  0  0  0  0
   37.4250   19.9540   29.8280 H   0  0  0  0  0  0  0  0  0  0  0  0
  1  4  1  0  0  0  0
  2  3  1  0  0  0  0
  3 12  1  0  0  0  0
  4  3  1  0  0  0  0
  4  5  2  0  0  0  0
  5  6  1  0  0  0  0
  6  7  1  0  0  0  0
  7 13  1  0  0  0  0
  7  8  2  0  0  0  0
  9  8  1  0  0  0  0
  9 10  1  0  0  0  0
 11  9  2  0  0  0  0
 12  6  2  0  0  0  0
 12 11  1  0  0  0  0
 13 14  1  0  0  0  0
 15 13  1  0  0  0  0
 17 16  2  1  0  0  0
 17 20  1  0  0  0  0
 17  1  1  0  0  0  0
 18 17  1  0  0  0  0
 19 18  1  0  0  0  0
 21 22  1  0  0  0  0
 21 27  1  0  0  0  0
 22 28  1  0  0  0  0
 23 20  1  0  0  0  0
 23 22  2  0  0  0  0
 24 23  1  0  0  0  0
 25 24  2  0  0  0  0
 25 26  1  0  0  0  0
 26 21  2  0  0  0  0
 29 25  1  0  0  0  0
M  END
>  <minimizedAffinity>
-5.28860903

$$$$

 OpenBabel03272508093D

 29 31  0  0  0  0  0  0  0  0999 V2000
   37.3060   26.0110   34.5090 O   0  0  0  0  0  0  0  0  0  0  0  0
   39.8300   25.1820   33.8910 H   0  0  0  0  0  0  0  0  0  0  0  0
   39.3200   24.8810   34.7570 N   0  0  0  0  0  0  0  0  0  0  0  0
   38.0950   25.1450   35.2760 C   0  0  0  0  0  0  0  0  0  0  0  0
   37.9750   24.4710   36.4330 N   0  0  0  0  0  0  0  0  0  0  0  0
   39.1140   23.7880   36.6440 C   0  0  0  0  0  0  0  0  0  0  0  0
   39.4370   22.9650   37.6990 C   0  0  0  0  0  0  0  0  0  0  0  0
   40.6480   22.3800   37.6990 N   0  0  0  0  0  0  0  0  0  0  0  0
   41.4820   22.6360   36.6560 C   0  0  0  0  0  0  0  0  0  0  0  0
   42.4820   22.2010   36.5800 H   0  0  0  0  0  0  0  0  0  0  0  0
   41.1730   23.4360   35.6260 N   0  0  0  0  0  0  0  0  0  0  0  0
   39.9730   24.0360   35.5950 C   0  0  0  0  0  0  0  0  0  0  0  0
   38.5430   22.7140   38.7790 N   0  0  0  0  0  0  0  0  0  0  0  0
   38.0740   21.7780   38.6050 H   0  0  0  0  0  0  0  0  0  0  0  0
   38.2550   23.2150   39.6600 H   0  0  0  0  0  0  0  0  0  0  0  0
   36.2290   26.6930   32.2810 O   0  0  0  0  0  0  0  0  0  0  0  0
   37.4980   26.0920   32.8180 P   0  0  1  0  0  0  0  0  0  0  0  0
   38.8070   27.1270   32.5330 O   0  0  0  0  0  0  0  0  0  0  0  0
   39.0350   27.1980   31.5760 H   0  0  0  0  0  0  0  0  0  0  0  0
   37.8200   24.5420   32.2460 O   0  0  0  0  0  0  0  0  0  0  0  0
   35.2830   21.8580   31.9350 C   0  0  0  0  0  0  0  0  0  0  0  0
   35.8900   23.0850   31.6660 C   0  0  0  0  0  0  0  0  0  0  0  0
   37.0650   23.4150   32.3460 C   0  0  0  0  0  0  0  0  0  0  0  0
   37.5560   22.5180   33.2390 N   0  0  0  0  0  0  0  0  0  0  0  0
   36.9440   21.3360   33.4780 C   0  0  0  0  0  0  0  0  0  0  0  0
   35.8190   21.0130   32.8310 N   0  0  0  0  0  0  0  0  0  0  0  0
   34.3910   21.7370   31.3420 H   0  0  0  0  0  0  0  0  0  0  0  0
   35.5610   23.8280   30.9840 H   0  0  0  0  0  0  0  0  0  0  0  0
   37.3570   20.6350   34.1960 H   0  0  0  0  0  0  0  0  0  0  0  0
  1  4  1  0  0  0  0
  2  3  1  0  0  0  0
  3  4  1  0  0  0  0
  3 12  1  0  0  0  0
  4  5  2  0  0  0  0
  5  6  1  0  0  0  0
  6  7  1  0  0  0  0
  7 13  1  0  0  0  0
  8  7  2  0  0  0  0
  9  8  1  0  0  0  0
 10  9  1  0  0  0  0
 11  9  2  0  0  0  0
 12 11  1  0  0  0  0
 12  6  2  0  0  0  0
 13 15  1  0  0  0  0
 14 13  1  0  0  0  0
 17 16  2  6  0  0  0
 17  1  1  0  0  0  0
 18 17  1  0  0  0  0
 19 18  1  0  0  0  0
 20 23  1  0  0  0  0
 20 17  1  0  0  0  0
 21 26  1  0  0  0  0
 22 21  2  0  0  0  0
 22 23  1  0  0  0  0
 23 24  2  0  0  0  0
 24 25  1  0  0  0  0
 25 29  1  0  0  0  0
 26 25  2  0  0  0  0
 27 21  1  0  0  0  0
 28 22  1  0  0  0  0
M  END
>  <minimizedAffinity>
-5.12557173

$$$$

 OpenBabel03272508093D

 29 31  0  0  0  0  0  0  0  0999 V2000
   38.9290   22.6580   35.7990 O   0  0  0  0  0  0  0  0  0  0  0  0
   36.9290   20.8240   35.5180 H   0  0  0  0  0  0  0  0  0  0  0  0
   37.2040   21.4980   34.7620 N   0  0  0  0  0  0  0  0  0  0  0  0
   38.1360   22.4780   34.6590 C   0  0  0  0  0  0  0  0  0  0  0  0
   38.0350   23.0270   33.4360 N   0  0  0  0  0  0  0  0  0  0  0  0
   37.0470   22.4010   32.7720 C   0  0  0  0  0  0  0  0  0  0  0  0
   36.5930   22.6300   31.4940 C   0  0  0  0  0  0  0  0  0  0  0  0
   35.5820   21.8710   31.0340 N   0  0  0  0  0  0  0  0  0  0  0  0
   35.0680   20.9220   31.8600 C   0  0  0  0  0  0  0  0  0  0  0  0
   34.2470   20.2640   31.5640 H   0  0  0  0  0  0  0  0  0  0  0  0
   35.5060   20.6930   33.1070 N   0  0  0  0  0  0  0  0  0  0  0  0
   36.5130   21.4320   33.5960 C   0  0  0  0  0  0  0  0  0  0  0  0
   37.1510   23.6320   30.6500 N   0  0  0  0  0  0  0  0  0  0  0  0
   37.8290   23.1590   29.9830 H   0  0  0  0  0  0  0  0  0  0  0  0
   37.0530   24.6750   30.5390 H   0  0  0  0  0  0  0  0  0  0  0  0
   36.8970   22.8280   37.3580 O   0  0  0  0  0  0  0  0  0  0  0  0
   38.2850   23.3840   37.1990 P   0  0  1  0  0  0  0  0  0  0  0  0
   39.2660   22.8970   38.4890 O   0  0  0  0  0  0  0  0  0  0  0  0
   39.0050   23.3130   39.3440 H   0  0  0  0  0  0  0  0  0  0  0  0
   38.3360   25.0550   37.0010 O   0  0  0  0  0  0  0  0  0  0  0  0
   39.4900   26.9710   34.0450 C   0  0  0  0  0  0  0  0  0  0  0  0
   39.6150   26.2330   35.2230 C   0  0  0  0  0  0  0  0  0  0  0  0
   38.4550   25.7820   35.8570 C   0  0  0  0  0  0  0  0  0  0  0  0
   37.2600   26.0870   35.2890 N   0  0  0  0  0  0  0  0  0  0  0  0
   37.1720   26.8040   34.1450 C   0  0  0  0  0  0  0  0  0  0  0  0
   38.2780   27.2400   33.5330 N   0  0  0  0  0  0  0  0  0  0  0  0
   40.4600   27.2510   33.6680 H   0  0  0  0  0  0  0  0  0  0  0  0
   40.5130   25.9610   35.7180 H   0  0  0  0  0  0  0  0  0  0  0  0
   36.2050   27.0360   33.7110 H   0  0  0  0  0  0  0  0  0  0  0  0
  1 17  1  0  0  0  0
  3  2  1  0  0  0  0
  4  3  1  0  0  0  0
  4  1  1  0  0  0  0
  5  4  2  0  0  0  0
  6  5  1  0  0  0  0
  6 12  1  0  0  0  0
  7  6  2  0  0  0  0
  8  7  1  0  0  0  0
  8  9  2  0  0  0  0
  9 11  1  0  0  0  0
 10  9  1  0  0  0  0
 11 12  2  0  0  0  0
 12  3  1  0  0  0  0
 13  7  1  0  0  0  0
 14 13  1  0  0  0  0
 15 13  1  0  0  0  0
 17 16  2  1  0  0  0
 17 18  1  0  0  0  0
 18 19  1  0  0  0  0
 20 17  1  0  0  0  0
 21 22  1  0  0  0  0
 22 28  1  0  0  0  0
 22 23  2  0  0  0  0
 23 20  1  0  0  0  0
 24 23  1  0  0  0  0
 25 24  2  0  0  0  0
 26 21  2  0  0  0  0
 26 25  1  0  0  0  0
 27 21  1  0  0  0  0
 29 25  1  0  0  0  0
M  END
>  <minimizedAffinity>
-5.04111242

$$$$

 OpenBabel03272508093D

 29 31  0  0  0  0  0  0  0  0999 V2000
   39.4640   23.3850   32.6850 O   0  0  0  0  0  0  0  0  0  0  0  0
   37.7410   24.8790   34.1830 H   0  0  0  0  0  0  0  0  0  0  0  0
   38.4190   24.1930   34.5960 N   0  0  0  0  0  0  0  0  0  0  0  0
   39.3510   23.3530   34.0810 C   0  0  0  0  0  0  0  0  0  0  0  0
   39.9340   22.6960   35.0990 N   0  0  0  0  0  0  0  0  0  0  0  0
   39.3750   23.1160   36.2480 C   0  0  0  0  0  0  0  0  0  0  0  0
   39.6580   22.7190   37.5340 C   0  0  0  0  0  0  0  0  0  0  0  0
   38.9620   23.2820   38.5390 N   0  0  0  0  0  0  0  0  0  0  0  0
   38.0220   24.2110   38.2240 C   0  0  0  0  0  0  0  0  0  0  0  0
   37.4140   24.7150   38.9800 H   0  0  0  0  0  0  0  0  0  0  0  0
   37.7420   24.6020   36.9730 N   0  0  0  0  0  0  0  0  0  0  0  0
   38.4160   24.0600   35.9470 C   0  0  0  0  0  0  0  0  0  0  0  0
   40.6500   21.7430   37.8360 N   0  0  0  0  0  0  0  0  0  0  0  0
   41.5300   22.2530   38.1390 H   0  0  0  0  0  0  0  0  0  0  0  0
   40.7090   20.6900   37.8280 H   0  0  0  0  0  0  0  0  0  0  0  0
   38.5320   23.8000   30.3300 O   0  0  0  0  0  0  0  0  0  0  0  0
   38.3570   24.2760   31.7450 P   0  0  1  0  0  0  0  0  0  0  0  0
   36.8140   23.8790   32.3150 O   0  0  0  0  0  0  0  0  0  0  0  0
   36.0990   24.3900   31.8660 H   0  0  0  0  0  0  0  0  0  0  0  0
   38.6760   25.9150   31.9630 O   0  0  0  0  0  0  0  0  0  0  0  0
   36.4900   28.8930   32.2680 C   0  0  0  0  0  0  0  0  0  0  0  0
   37.3460   27.9900   31.6350 C   0  0  0  0  0  0  0  0  0  0  0  0
   37.8380   26.9070   32.3680 C   0  0  0  0  0  0  0  0  0  0  0  0
   37.4560   26.7900   33.6650 N   0  0  0  0  0  0  0  0  0  0  0  0
   36.6230   27.6820   34.2500 C   0  0  0  0  0  0  0  0  0  0  0  0
   36.1480   28.7210   33.5560 N   0  0  0  0  0  0  0  0  0  0  0  0
   36.1900   29.6720   31.5880 H   0  0  0  0  0  0  0  0  0  0  0  0
   37.6830   28.0230   30.6300 H   0  0  0  0  0  0  0  0  0  0  0  0
   36.3310   27.5660   35.2890 H   0  0  0  0  0  0  0  0  0  0  0  0
  1  4  1  0  0  0  0
  2  3  1  0  0  0  0
  3 12  1  0  0  0  0
  4  3  1  0  0  0  0
  4  5  2  0  0  0  0
  5  6  1  0  0  0  0
  6  7  1  0  0  0  0
  7 13  1  0  0  0  0
  7  8  2  0  0  0  0
  9  8  1  0  0  0  0
  9 10  1  0  0  0  0
 11  9  2  0  0  0  0
 12  6  2  0  0  0  0
 12 11  1  0  0  0  0
 13 14  1  0  0  0  0
 15 13  1  0  0  0  0
 17 16  2  6  0  0  0
 17 20  1  0  0  0  0
 17 18  1  0  0  0  0
 17  1  1  0  0  0  0
 19 18  1  0  0  0  0
 20 23  1  0  0  0  0
 21 26  1  0  0  0  0
 22 21  2  0  0  0  0
 22 23  1  0  0  0  0
 23 24  2  0  0  0  0
 24 25  1  0  0  0  0
 25 29  1  0  0  0  0
 26 25  2  0  0  0  0
 27 21  1  0  0  0  0
 28 22  1  0  0  0  0
M  END
>  <minimizedAffinity>
-5.0112319

$$$$

 OpenBabel03272508093D

 29 31  0  0  0  0  0  0  0  0999 V2000
   35.6050   26.7330   31.0940 O   0  0  0  0  0  0  0  0  0  0  0  0
   37.8690   25.6510   30.0230 H   0  0  0  0  0  0  0  0  0  0  0  0
   37.1380   25.0850   30.5200 N   0  0  0  0  0  0  0  0  0  0  0  0
   35.9590   25.3780   31.1230 C   0  0  0  0  0  0  0  0  0  0  0  0
   35.4360   24.2360   31.6010 N   0  0  0  0  0  0  0  0  0  0  0  0
   36.2770   23.2290   31.3040 C   0  0  0  0  0  0  0  0  0  0  0  0
   36.1490   21.8910   31.5960 C   0  0  0  0  0  0  0  0  0  0  0  0
   37.1260   21.0580   31.1940 N   0  0  0  0  0  0  0  0  0  0  0  0
   38.1820   21.5880   30.5230 C   0  0  0  0  0  0  0  0  0  0  0  0
   39.0170   20.9800   30.1620 H   0  0  0  0  0  0  0  0  0  0  0  0
   38.3120   22.8910   30.2350 N   0  0  0  0  0  0  0  0  0  0  0  0
   37.3560   23.7490   30.6210 C   0  0  0  0  0  0  0  0  0  0  0  0
   35.0300   21.3630   32.3010 N   0  0  0  0  0  0  0  0  0  0  0  0
   34.3610   20.9450   31.5900 H   0  0  0  0  0  0  0  0  0  0  0  0
   34.7290   21.2940   33.3090 H   0  0  0  0  0  0  0  0  0  0  0  0
   36.9840   28.2750   29.5740 O   0  0  0  0  0  0  0  0  0  0  0  0
   36.8030   27.9420   31.0290 P   0  0  1  0  0  0  0  0  0  0  0  0
   36.1850   29.2770   31.8660 O   0  0  0  0  0  0  0  0  0  0  0  0
   36.8320   30.0180   31.9330 H   0  0  0  0  0  0  0  0  0  0  0  0
   38.1920   27.3530   31.7760 O   0  0  0  0  0  0  0  0  0  0  0  0
   39.7670   26.9330   35.1050 C   0  0  0  0  0  0  0  0  0  0  0  0
   39.7040   26.9630   33.7110 C   0  0  0  0  0  0  0  0  0  0  0  0
   38.4850   27.2680   33.1020 C   0  0  0  0  0  0  0  0  0  0  0  0
   37.4180   27.5210   33.9040 N   0  0  0  0  0  0  0  0  0  0  0  0
   37.5120   27.4840   35.2530 C   0  0  0  0  0  0  0  0  0  0  0  0
   38.6760   27.1930   35.8430 N   0  0  0  0  0  0  0  0  0  0  0  0
   40.7630   26.6870   35.4350 H   0  0  0  0  0  0  0  0  0  0  0  0
   40.4950   26.7770   33.0290 H   0  0  0  0  0  0  0  0  0  0  0  0
   36.6450   27.6900   35.8720 H   0  0  0  0  0  0  0  0  0  0  0  0
  1  4  1  0  0  0  0
  2  3  1  0  0  0  0
  3 12  1  0  0  0  0
  3  4  1  0  0  0  0
  4  5  2  0  0  0  0
  6  7  1  0  0  0  0
  6  5  1  0  0  0  0
  7 13  1  0  0  0  0
  8  7  2  0  0  0  0
  9  8  1  0  0  0  0
 10  9  1  0  0  0  0
 11  9  2  0  0  0  0
 11 12  1  0  0  0  0
 12  6  2  0  0  0  0
 13 15  1  0  0  0  0
 14 13  1  0  0  0  0
 17 16  2  6  0  0  0
 17  1  1  0  0  0  0
 17 20  1  0  0  0  0
 17 18  1  0  0  0  0
 18 19  1  0  0  0  0
 20 23  1  0  0  0  0
 21 27  1  0  0  0  0
 21 26  1  0  0  0  0
 22 21  2  0  0  0  0
 23 22  1  0  0  0  0
 23 24  2  0  0  0  0
 24 25  1  0  0  0  0
 25 26  2  0  0  0  0
 25 29  1  0  0  0  0
 28 22  1  0  0  0  0
M  END
>  <minimizedAffinity>
-4.89364433

$$$$

 OpenBabel03272508093D

 29 31  0  0  0  0  0  0  0  0999 V2000
   36.1850   29.5830   31.5110 O   0  0  0  0  0  0  0  0  0  0  0  0
   33.5490   29.0750   32.0000 H   0  0  0  0  0  0  0  0  0  0  0  0
   34.1760   29.5750   32.6780 N   0  0  0  0  0  0  0  0  0  0  0  0
   35.4830   29.9380   32.6700 C   0  0  0  0  0  0  0  0  0  0  0  0
   35.7520   30.5660   33.8280 N   0  0  0  0  0  0  0  0  0  0  0  0
   34.6250   30.5990   34.5620 C   0  0  0  0  0  0  0  0  0  0  0  0
   34.4320   31.1410   35.8120 C   0  0  0  0  0  0  0  0  0  0  0  0
   33.2050   31.0550   36.3570 N   0  0  0  0  0  0  0  0  0  0  0  0
   32.2280   30.4390   35.6400 C   0  0  0  0  0  0  0  0  0  0  0  0
   31.2050   30.3290   36.0110 H   0  0  0  0  0  0  0  0  0  0  0  0
   32.4100   29.9100   34.4220 N   0  0  0  0  0  0  0  0  0  0  0  0
   33.6210   29.9770   33.8500 C   0  0  0  0  0  0  0  0  0  0  0  0
   35.4740   31.7810   36.5400 N   0  0  0  0  0  0  0  0  0  0  0  0
   35.3640   32.8300   36.4180 H   0  0  0  0  0  0  0  0  0  0  0  0
   36.2850   31.4720   37.1390 H   0  0  0  0  0  0  0  0  0  0  0  0
   35.3070   27.1760   31.6660 O   0  0  0  0  0  0  0  0  0  0  0  0
   36.4900   27.9470   31.1480 P   0  0  1  0  0  0  0  0  0  0  0  0
   36.5720   27.8360   29.4610 O   0  0  0  0  0  0  0  0  0  0  0  0
   36.8020   26.9290   29.1490 H   0  0  0  0  0  0  0  0  0  0  0  0
   37.9550   27.5120   31.8520 O   0  0  0  0  0  0  0  0  0  0  0  0
   37.9650   27.2220   35.5480 C   0  0  0  0  0  0  0  0  0  0  0  0
   37.4190   27.4180   34.2790 C   0  0  0  0  0  0  0  0  0  0  0  0
   38.2630   27.3540   33.1680 C   0  0  0  0  0  0  0  0  0  0  0  0
   39.5800   27.1010   33.3840 N   0  0  0  0  0  0  0  0  0  0  0  0
   40.0790   26.9150   34.6270 C   0  0  0  0  0  0  0  0  0  0  0  0
   39.2770   26.9750   35.6950 N   0  0  0  0  0  0  0  0  0  0  0  0
   37.2030   27.2990   36.3050 H   0  0  0  0  0  0  0  0  0  0  0  0
   36.4040   27.6180   34.0410 H   0  0  0  0  0  0  0  0  0  0  0  0
   41.1360   26.7140   34.7730 H   0  0  0  0  0  0  0  0  0  0  0  0
  1  4  1  0  0  0  0
  2  3  1  0  0  0  0
  3 12  1  0  0  0  0
  4  3  1  0  0  0  0
  4  5  2  0  0  0  0
  5  6  1  0  0  0  0
  6  7  1  0  0  0  0
  7  8  2  0  0  0  0
  7 13  1  0  0  0  0
  9 10  1  0  0  0  0
  9  8  1  0  0  0  0
 11  9  2  0  0  0  0
 12 11  1  0  0  0  0
 12  6  2  0  0  0  0
 13 15  1  0  0  0  0
 14 13  1  0  0  0  0
 17  1  1  0  0  0  0
 17 16  2  1  0  0  0
 17 20  1  0  0  0  0
 18 17  1  0  0  0  0
 19 18  1  0  0  0  0
 20 23  1  0  0  0  0
 21 26  1  0  0  0  0
 21 27  1  0  0  0  0
 22 21  2  0  0  0  0
 23 24  2  0  0  0  0
 23 22  1  0  0  0  0
 24 25  1  0  0  0  0
 25 29  1  0  0  0  0
 25 26  2  0  0  0  0
 28 22  1  0  0  0  0
M  END
>  <minimizedAffinity>
-4.84307337

$$$$

 OpenBabel03272508093D

 29 31  0  0  0  0  0  0  0  0999 V2000
   38.5910   24.3550   32.7100 O   0  0  0  0  0  0  0  0  0  0  0  0
   37.9920   22.8450   30.5170 H   0  0  0  0  0  0  0  0  0  0  0  0
   37.6530   22.6190   31.4840 N   0  0  0  0  0  0  0  0  0  0  0  0
   37.8080   23.1940   32.7030 C   0  0  0  0  0  0  0  0  0  0  0  0
   37.1360   22.4560   33.6040 N   0  0  0  0  0  0  0  0  0  0  0  0
   36.5620   21.4240   32.9610 C   0  0  0  0  0  0  0  0  0  0  0  0
   35.7810   20.4170   33.4820 C   0  0  0  0  0  0  0  0  0  0  0  0
   35.3100   19.4800   32.6390 N   0  0  0  0  0  0  0  0  0  0  0  0
   35.6330   19.5840   31.3230 C   0  0  0  0  0  0  0  0  0  0  0  0
   35.2910   18.8650   30.5730 H   0  0  0  0  0  0  0  0  0  0  0  0
   36.3920   20.5620   30.8100 N   0  0  0  0  0  0  0  0  0  0  0  0
   36.8790   21.5120   31.6220 C   0  0  0  0  0  0  0  0  0  0  0  0
   35.4590   20.3340   34.8660 N   0  0  0  0  0  0  0  0  0  0  0  0
   34.4820   20.7270   34.9990 H   0  0  0  0  0  0  0  0  0  0  0  0
   35.9380   19.9920   35.7400 H   0  0  0  0  0  0  0  0  0  0  0  0
   39.4690   26.4990   33.8130 O   0  0  0  0  0  0  0  0  0  0  0  0
   38.2410   25.6310   33.7820 P   0  0  1  0  0  0  0  0  0  0  0  0
   36.9380   26.4780   33.1120 O   0  0  0  0  0  0  0  0  0  0  0  0
   36.6220   27.2110   33.6920 H   0  0  0  0  0  0  0  0  0  0  0  0
   37.8290   24.9720   35.2740 O   0  0  0  0  0  0  0  0  0  0  0  0
   40.3840   22.8440   36.9130 C   0  0  0  0  0  0  0  0  0  0  0  0
   39.7740   23.5410   35.8690 C   0  0  0  0  0  0  0  0  0  0  0  0
   38.5890   24.2340   36.1280 C   0  0  0  0  0  0  0  0  0  0  0  0
   38.0900   24.1920   37.3900 N   0  0  0  0  0  0  0  0  0  0  0  0
   38.7060   23.5070   38.3810 C   0  0  0  0  0  0  0  0  0  0  0  0
   39.8400   22.8410   38.1410 N   0  0  0  0  0  0  0  0  0  0  0  0
   41.2840   22.3600   36.5710 H   0  0  0  0  0  0  0  0  0  0  0  0
   40.1090   23.6140   34.8640 H   0  0  0  0  0  0  0  0  0  0  0  0
   38.2880   23.4890   39.3820 H   0  0  0  0  0  0  0  0  0  0  0  0
  1 17  1  0  0  0  0
  2  3  1  0  0  0  0
  3 12  1  0  0  0  0
  3  4  1  0  0  0  0
  4  1  1  0  0  0  0
  4  5  2  0  0  0  0
  6  7  1  0  0  0  0
  6  5  1  0  0  0  0
  7 13  1  0  0  0  0
  8  7  2  0  0  0  0
  9  8  1  0  0  0  0
 10  9  1  0  0  0  0
 11  9  2  0  0  0  0
 11 12  1  0  0  0  0
 12  6  2  0  0  0  0
 13 14  1  0  0  0  0
 13 15  1  0  0  0  0
 17 16  2  1  0  0  0
 17 20  1  0  0  0  0
 18 19  1  0  0  0  0
 18 17  1  0  0  0  0
 20 23  1  0  0  0  0
 21 26  1  0  0  0  0
 22 23  1  0  0  0  0
 22 21  2  0  0  0  0
 23 24  2  0  0  0  0
 24 25  1  0  0  0  0
 25 29  1  0  0  0  0
 26 25  2  0  0  0  0
 27 21  1  0  0  0  0
 28 22  1  0  0  0  0
M  END
>  <minimizedAffinity>
-4.8035264

$$$$

 OpenBabel03272508093D

 29 31  0  0  0  0  0  0  0  0999 V2000
   37.1580   22.7150   33.3660 O   0  0  0  0  0  0  0  0  0  0  0  0
   39.7370   22.0170   32.8140 H   0  0  0  0  0  0  0  0  0  0  0  0
   39.3820   22.1900   33.7860 N   0  0  0  0  0  0  0  0  0  0  0  0
   38.1790   22.5390   34.3090 C   0  0  0  0  0  0  0  0  0  0  0  0
   38.3090   22.6210   35.6440 N   0  0  0  0  0  0  0  0  0  0  0  0
   39.5820   22.3280   35.9640 C   0  0  0  0  0  0  0  0  0  0  0  0
   40.1660   22.2870   37.2090 C   0  0  0  0  0  0  0  0  0  0  0  0
   41.4700   21.9650   37.2880 N   0  0  0  0  0  0  0  0  0  0  0  0
   42.1340   21.6990   36.1320 C   0  0  0  0  0  0  0  0  0  0  0  0
   43.1930   21.4290   36.1090 H   0  0  0  0  0  0  0  0  0  0  0  0
   41.5700   21.7350   34.9160 N   0  0  0  0  0  0  0  0  0  0  0  0
   40.2720   22.0530   34.8020 C   0  0  0  0  0  0  0  0  0  0  0  0
   39.4460   22.5710   38.4040 N   0  0  0  0  0  0  0  0  0  0  0  0
   39.1750   21.6480   38.8520 H   0  0  0  0  0  0  0  0  0  0  0  0
   39.1360   23.4380   38.9180 H   0  0  0  0  0  0  0  0  0  0  0  0
   37.8630   22.8590   30.9030 O   0  0  0  0  0  0  0  0  0  0  0  0
   37.3830   23.7390   32.0240 P   0  0  1  0  0  0  0  0  0  0  0  0
   35.8640   24.3880   31.6540 O   0  0  0  0  0  0  0  0  0  0  0  0
   35.8990   25.0430   30.9180 H   0  0  0  0  0  0  0  0  0  0  0  0
   38.4680   24.9510   32.4570 O   0  0  0  0  0  0  0  0  0  0  0  0
   39.1730   27.0630   35.4200 C   0  0  0  0  0  0  0  0  0  0  0  0
   39.4530   26.1600   34.3940 C   0  0  0  0  0  0  0  0  0  0  0  0
   38.4260   25.8030   33.5170 C   0  0  0  0  0  0  0  0  0  0  0  0
   37.2020   26.3570   33.7110 N   0  0  0  0  0  0  0  0  0  0  0  0
   36.9620   27.2310   34.7160 C   0  0  0  0  0  0  0  0  0  0  0  0
   37.9400   27.5770   35.5600 N   0  0  0  0  0  0  0  0  0  0  0  0
   40.0520   27.2460   36.0160 H   0  0  0  0  0  0  0  0  0  0  0  0
   40.3820   25.6920   34.1870 H   0  0  0  0  0  0  0  0  0  0  0  0
   35.9750   27.6610   34.8510 H   0  0  0  0  0  0  0  0  0  0  0  0
  1  4  1  0  0  0  0
  2  3  1  0  0  0  0
  3  4  1  0  0  0  0
  3 12  1  0  0  0  0
  4  5  2  0  0  0  0
  5  6  1  0  0  0  0
  6  7  1  0  0  0  0
  7  8  2  0  0  0  0
  7 13  1  0  0  0  0
  9  8  1  0  0  0  0
 10  9  1  0  0  0  0
 11  9  2  0  0  0  0
 12 11  1  0  0  0  0
 12  6  2  0  0  0  0
 13 14  1  0  0  0  0
 13 15  1  0  0  0  0
 17 16  2  6  0  0  0
 17 20  1  0  0  0  0
 17  1  1  0  0  0  0
 18 17  1  0  0  0  0
 19 18  1  0  0  0  0
 20 23  1  0  0  0  0
 21 26  1  0  0  0  0
 21 27  1  0  0  0  0
 22 21  2  0  0  0  0
 23 24  2  0  0  0  0
 23 22  1  0  0  0  0
 24 25  1  0  0  0  0
 25 29  1  0  0  0  0
 25 26  2  0  0  0  0
 28 22  1  0  0  0  0
M  END
>  <minimizedAffinity>
-4.79550838

$$$$

 OpenBabel03272508093D

 29 31  0  0  0  0  0  0  0  0999 V2000
   36.8890   26.9060   34.2690 O   0  0  0  0  0  0  0  0  0  0  0  0
   36.9890   28.9520   36.0710 H   0  0  0  0  0  0  0  0  0  0  0  0
   36.5120   29.0270   35.1390 N   0  0  0  0  0  0  0  0  0  0  0  0
   36.3300   28.1790   34.0960 C   0  0  0  0  0  0  0  0  0  0  0  0
   35.6310   28.8250   33.1460 N   0  0  0  0  0  0  0  0  0  0  0  0
   35.3750   30.0700   33.5840 C   0  0  0  0  0  0  0  0  0  0  0  0
   34.6900   31.0790   32.9460 C   0  0  0  0  0  0  0  0  0  0  0  0
   34.5560   32.2560   33.5850 N   0  0  0  0  0  0  0  0  0  0  0  0
   35.1040   32.3780   34.8220 C   0  0  0  0  0  0  0  0  0  0  0  0
   35.0400   33.3000   35.4070 H   0  0  0  0  0  0  0  0  0  0  0  0
   35.7720   31.3990   35.4490 N   0  0  0  0  0  0  0  0  0  0  0  0
   35.9240   30.2140   34.8400 C   0  0  0  0  0  0  0  0  0  0  0  0
   34.1250   30.9220   31.6490 N   0  0  0  0  0  0  0  0  0  0  0  0
   33.0890   30.7240   31.7640 H   0  0  0  0  0  0  0  0  0  0  0  0
   34.4780   30.9550   30.6560 H   0  0  0  0  0  0  0  0  0  0  0  0
   39.3260   27.3330   33.5850 O   0  0  0  0  0  0  0  0  0  0  0  0
   38.5260   26.7300   34.7060 P   0  0  1  0  0  0  0  0  0  0  0  0
   38.7420   27.6200   36.1290 O   0  0  0  0  0  0  0  0  0  0  0  0
   39.6530   27.5350   36.4960 H   0  0  0  0  0  0  0  0  0  0  0  0
   38.8320   25.0950   34.9650 O   0  0  0  0  0  0  0  0  0  0  0  0
   39.7060   22.8200   37.7590 C   0  0  0  0  0  0  0  0  0  0  0  0
   39.7930   23.3720   36.4800 C   0  0  0  0  0  0  0  0  0  0  0  0
   38.9260   24.4140   36.1390 C   0  0  0  0  0  0  0  0  0  0  0  0
   38.0400   24.8360   37.0770 N   0  0  0  0  0  0  0  0  0  0  0  0
   37.9810   24.2810   38.3090 C   0  0  0  0  0  0  0  0  0  0  0  0
   38.8070   23.2830   38.6420 N   0  0  0  0  0  0  0  0  0  0  0  0
   40.4300   22.0310   37.8820 H   0  0  0  0  0  0  0  0  0  0  0  0
   40.4590   23.0910   35.7030 H   0  0  0  0  0  0  0  0  0  0  0  0
   37.2640   24.6360   39.0420 H   0  0  0  0  0  0  0  0  0  0  0  0
  1 17  1  0  0  0  0
  3  2  1  0  0  0  0
  4  1  1  0  0  0  0
  4  3  1  0  0  0  0
  5  6  1  0  0  0  0
  5  4  2  0  0  0  0
  6 12  1  0  0  0  0
  7  6  2  0  0  0  0
  7  8  1  0  0  0  0
  8  9  2  0  0  0  0
  9 10  1  0  0  0  0
  9 11  1  0  0  0  0
 12  3  1  0  0  0  0
 12 11  2  0  0  0  0
 13 14  1  0  0  0  0
 13  7  1  0  0  0  0
 15 13  1  0  0  0  0
 17 16  2  6  0  0  0
 17 20  1  0  0  0  0
 17 18  1  0  0  0  0
 18 19  1  0  0  0  0
 20 23  1  0  0  0  0
 21 27  1  0  0  0  0
 21 26  1  0  0  0  0
 22 21  2  0  0  0  0
 23 22  1  0  0  0  0
 23 24  2  0  0  0  0
 24 25  1  0  0  0  0
 25 26  2  0  0  0  0
 25 29  1  0  0  0  0
 28 22  1  0  0  0  0
M  END
>  <minimizedAffinity>
-4.77956915

$$$$
