
 OpenBabel03272509183D

 38 41  0  0  0  0  0  0  0  0999 V2000
   38.1220   31.2920   47.7350 C   0  0  0  0  0  0  0  0  0  0  0  0
   37.1150   31.3120   48.6930 C   0  0  0  0  0  0  0  0  0  0  0  0
   37.1530   32.4170   49.5430 C   0  0  0  0  0  0  0  0  0  0  0  0
   38.1340   33.4000   49.4150 C   0  0  0  0  0  0  0  0  0  0  0  0
   39.1060   33.2900   48.4170 C   0  0  0  0  0  0  0  0  0  0  0  0
   39.0920   32.2090   47.5620 C   0  0  0  0  0  0  0  0  0  0  0  0
   36.4110   32.5210   50.3210 H   0  0  0  0  0  0  0  0  0  0  0  0
   38.1280   34.2470   50.1010 H   0  0  0  0  0  0  0  0  0  0  0  0
   39.8530   34.0580   48.3350 H   0  0  0  0  0  0  0  0  0  0  0  0
   34.9730   30.3420   47.9970 C   0  0  0  0  0  0  0  0  0  0  0  0
   36.1110   30.3040   48.8220 C   0  0  0  0  0  0  0  0  0  0  0  0
   36.2080   29.2640   49.7440 C   0  0  0  0  0  0  0  0  0  0  0  0
   35.1980   28.3490   49.7930 N   0  0  0  0  0  0  0  0  0  0  0  0
   34.1100   28.4190   48.9770 C   0  0  0  0  0  0  0  0  0  0  0  0
   34.0040   29.4140   48.0860 N   0  0  0  0  0  0  0  0  0  0  0  0
   34.8680   31.1420   47.2680 H   0  0  0  0  0  0  0  0  0  0  0  0
   33.3150   27.6900   49.0230 H   0  0  0  0  0  0  0  0  0  0  0  0
   37.3730   29.1670   50.6350 C   0  0  0  0  0  0  0  0  0  0  0  0
   36.9760   28.9840   51.6720 H   0  0  0  0  0  0  0  0  0  0  0  0
   37.9920   28.2990   50.3430 H   0  0  0  0  0  0  0  0  0  0  0  0
   37.9350   30.1160   50.5950 H   0  0  0  0  0  0  0  0  0  0  0  0
   38.1480   30.1980   46.8310 O   0  0  0  0  0  0  0  0  0  0  0  0
   38.9160   29.5500   46.9750 H   0  0  0  0  0  0  0  0  0  0  0  0
   40.0630   32.1300   46.5900 O   0  0  0  0  0  0  0  0  0  0  0  0
   39.4450   34.2380   44.7780 H   0  0  0  0  0  0  0  0  0  0  0  0
   39.4960   33.2760   44.4340 N   0  0  0  0  0  0  0  0  0  0  0  0
   39.7850   32.2480   45.2530 C   0  0  0  0  0  0  0  0  0  0  0  0
   39.7660   31.1450   44.4660 N   0  0  0  0  0  0  0  0  0  0  0  0
   39.4740   31.4930   43.2020 C   0  0  0  0  0  0  0  0  0  0  0  0
   39.3060   30.8740   41.9660 C   0  0  0  0  0  0  0  0  0  0  0  0
   39.0000   31.5810   40.8620 N   0  0  0  0  0  0  0  0  0  0  0  0
   38.8440   32.9290   40.9160 C   0  0  0  0  0  0  0  0  0  0  0  0
   38.5990   33.5480   40.0660 H   0  0  0  0  0  0  0  0  0  0  0  0
   38.9910   33.6040   42.0810 N   0  0  0  0  0  0  0  0  0  0  0  0
   39.2970   32.8660   43.1690 C   0  0  0  0  0  0  0  0  0  0  0  0
   39.4730   29.4590   41.9300 N   0  0  0  0  0  0  0  0  0  0  0  0
   38.8480   28.7060   42.3050 H   0  0  0  0  0  0  0  0  0  0  0  0
   40.3780   29.2720   41.4370 H   0  0  0  0  0  0  0  0  0  0  0  0
  1  2  1  0  0  0  0
  2 11  1  0  0  0  0
  2  3  2  0  0  0  0
  3  7  1  0  0  0  0
  4  3  1  0  0  0  0
  4  8  1  0  0  0  0
  5  4  2  0  0  0  0
  6  1  2  0  0  0  0
  6  5  1  0  0  0  0
  9  5  1  0  0  0  0
 10 15  2  0  0  0  0
 10 11  1  0  0  0  0
 11 12  2  0  0  0  0
 12 13  1  0  0  0  0
 12 18  1  0  0  0  0
 14 17  1  0  0  0  0
 14 13  2  0  0  0  0
 15 14  1  0  0  0  0
 16 10  1  0  0  0  0
 18 19  1  0  0  0  0
 20 18  1  0  0  0  0
 21 18  1  0  0  0  0
 22 23  1  0  0  0  0
 22  1  1  0  0  0  0
 24  6  1  0  0  0  0
 26 25  1  0  0  0  0
 26 27  1  0  0  0  0
 27 24  1  0  0  0  0
 28 27  2  0  0  0  0
 29 28  1  0  0  0  0
 30 29  2  0  0  0  0
 31 32  2  0  0  0  0
 31 30  1  0  0  0  0
 32 34  1  0  0  0  0
 33 32  1  0  0  0  0
 34 35  2  0  0  0  0
 35 29  1  0  0  0  0
 35 26  1  0  0  0  0
 36 30  1  0  0  0  0
 36 37  1  0  0  0  0
 38 36  1  0  0  0  0
M  END
>  <minimizedAffinity>
-6.88625908

>  <minimizedRMSD>
0.626794159

$$$$
