
 OpenBabel03272509253D

 29 31  0  0  0  0  0  0  0  0999 V2000
   38.5050   26.0090   34.2110 C   0  0  0  0  0  0  0  0  0  0  0  0
   38.8980   26.9740   34.5470 H   0  0  0  0  0  0  0  0  0  0  0  0
   37.4390   25.8380   34.4700 H   0  0  0  0  0  0  0  0  0  0  0  0
   39.2510   24.8930   34.8100 N   0  0  0  0  0  0  0  0  0  0  0  0
   40.2450   24.1610   34.3040 C   0  0  0  0  0  0  0  0  0  0  0  0
   40.6370   24.3310   33.3120 H   0  0  0  0  0  0  0  0  0  0  0  0
   40.6300   23.2320   35.2250 N   0  0  0  0  0  0  0  0  0  0  0  0
   39.8290   23.4300   36.3100 C   0  0  0  0  0  0  0  0  0  0  0  0
   39.7800   22.7780   37.5270 C   0  0  0  0  0  0  0  0  0  0  0  0
   38.8620   23.1950   38.4400 N   0  0  0  0  0  0  0  0  0  0  0  0
   38.0120   24.2000   38.2190 C   0  0  0  0  0  0  0  0  0  0  0  0
   37.2990   24.4990   38.9730 H   0  0  0  0  0  0  0  0  0  0  0  0
   38.0610   24.8350   37.0320 N   0  0  0  0  0  0  0  0  0  0  0  0
   38.9510   24.4760   36.0670 C   0  0  0  0  0  0  0  0  0  0  0  0
   40.6420   21.6960   37.8600 N   0  0  0  0  0  0  0  0  0  0  0  0
   40.2640   20.7290   37.7160 H   0  0  0  0  0  0  0  0  0  0  0  0
   41.4700   22.2770   38.1750 H   0  0  0  0  0  0  0  0  0  0  0  0
   38.6590   25.8500   32.7070 C   0  0  0  0  0  0  0  0  0  0  0  0
   38.9790   26.8150   32.2890 H   0  0  0  0  0  0  0  0  0  0  0  0
   39.4670   25.1180   32.5050 H   0  0  0  0  0  0  0  0  0  0  0  0
   35.6910   23.8860   31.3540 C   0  0  0  0  0  0  0  0  0  0  0  0
   36.9370   24.1420   31.9490 C   0  0  0  0  0  0  0  0  0  0  0  0
   37.3620   25.4520   32.0940 C   0  0  0  0  0  0  0  0  0  0  0  0
   36.5440   26.4490   31.6470 N   0  0  0  0  0  0  0  0  0  0  0  0
   35.3520   26.1780   31.0790 C   0  0  0  0  0  0  0  0  0  0  0  0
   34.9240   24.9090   30.9310 N   0  0  0  0  0  0  0  0  0  0  0  0
   35.3470   22.8660   31.2340 H   0  0  0  0  0  0  0  0  0  0  0  0
   37.5710   23.3630   32.2950 H   0  0  0  0  0  0  0  0  0  0  0  0
   34.8010   27.0590   30.7680 H   0  0  0  0  0  0  0  0  0  0  0  0
  1  3  1  0  0  0  0
  1  2  1  0  0  0  0
  1  4  1  0  0  0  0
  4 14  1  0  0  0  0
  5  4  1  0  0  0  0
  5  7  2  0  0  0  0
  6  5  1  0  0  0  0
  7  8  1  0  0  0  0
  8  9  1  0  0  0  0
  9 15  1  0  0  0  0
  9 10  2  0  0  0  0
 11 10  1  0  0  0  0
 11 12  1  0  0  0  0
 13 11  2  0  0  0  0
 14  8  2  0  0  0  0
 14 13  1  0  0  0  0
 15 17  1  0  0  0  0
 16 15  1  0  0  0  0
 18  1  1  0  0  0  0
 19 18  1  0  0  0  0
 20 18  1  0  0  0  0
 21 22  1  0  0  0  0
 22 23  2  0  0  0  0
 22 28  1  0  0  0  0
 23 18  1  0  0  0  0
 24 23  1  0  0  0  0
 25 24  2  0  0  0  0
 26 25  1  0  0  0  0
 26 21  2  0  0  0  0
 27 21  1  0  0  0  0
 29 25  1  0  0  0  0
M  END
>  <minimizedAffinity>
-5.02158451

$$$$

 OpenBabel03272509253D

 29 31  0  0  0  0  0  0  0  0999 V2000
   38.4350   22.7770   33.5830 C   0  0  0  0  0  0  0  0  0  0  0  0
   38.8870   23.6980   33.9640 H   0  0  0  0  0  0  0  0  0  0  0  0
   39.1450   22.1060   33.0550 H   0  0  0  0  0  0  0  0  0  0  0  0
   37.3640   23.0710   32.6190 N   0  0  0  0  0  0  0  0  0  0  0  0
   36.6350   22.2390   31.8730 C   0  0  0  0  0  0  0  0  0  0  0  0
   36.7720   21.1670   31.9050 H   0  0  0  0  0  0  0  0  0  0  0  0
   35.7560   22.9640   31.1240 N   0  0  0  0  0  0  0  0  0  0  0  0
   35.9810   24.2690   31.4460 C   0  0  0  0  0  0  0  0  0  0  0  0
   35.3810   25.4270   30.9940 C   0  0  0  0  0  0  0  0  0  0  0  0
   35.8150   26.6140   31.4980 N   0  0  0  0  0  0  0  0  0  0  0  0
   36.7880   26.7120   32.4070 C   0  0  0  0  0  0  0  0  0  0  0  0
   37.1010   27.6750   32.7810 H   0  0  0  0  0  0  0  0  0  0  0  0
   37.3730   25.5810   32.8480 N   0  0  0  0  0  0  0  0  0  0  0  0
   36.9940   24.3560   32.3910 C   0  0  0  0  0  0  0  0  0  0  0  0
   34.3360   25.4300   30.0270 N   0  0  0  0  0  0  0  0  0  0  0  0
   34.6140   25.5950   29.0300 H   0  0  0  0  0  0  0  0  0  0  0  0
   33.5350   25.2460   30.6960 H   0  0  0  0  0  0  0  0  0  0  0  0
   37.7790   21.9870   34.7030 C   0  0  0  0  0  0  0  0  0  0  0  0
   36.6950   22.1690   34.6670 H   0  0  0  0  0  0  0  0  0  0  0  0
   37.9370   20.9050   34.5200 H   0  0  0  0  0  0  0  0  0  0  0  0
   40.0160   22.7370   37.6920 C   0  0  0  0  0  0  0  0  0  0  0  0
   39.6280   22.2850   36.4200 C   0  0  0  0  0  0  0  0  0  0  0  0
   38.3090   22.4260   36.0230 C   0  0  0  0  0  0  0  0  0  0  0  0
   37.4320   23.0040   36.8950 N   0  0  0  0  0  0  0  0  0  0  0  0
   37.8270   23.4310   38.1100 C   0  0  0  0  0  0  0  0  0  0  0  0
   39.1070   23.3010   38.5110 N   0  0  0  0  0  0  0  0  0  0  0  0
   41.0440   22.6310   38.0150 H   0  0  0  0  0  0  0  0  0  0  0  0
   40.3140   21.8340   35.7460 H   0  0  0  0  0  0  0  0  0  0  0  0
   37.0330   23.8710   38.7030 H   0  0  0  0  0  0  0  0  0  0  0  0
  1  2  1  0  0  0  0
  1 18  1  0  0  0  0
  3  1  1  0  0  0  0
  4  1  1  0  0  0  0
  5  6  1  0  0  0  0
  5  4  1  0  0  0  0
  7  8  1  0  0  0  0
  7  5  2  0  0  0  0
  8 14  1  0  0  0  0
  9  8  2  0  0  0  0
  9 10  1  0  0  0  0
 10 11  2  0  0  0  0
 11 12  1  0  0  0  0
 11 13  1  0  0  0  0
 14  4  1  0  0  0  0
 14 13  2  0  0  0  0
 15 17  1  0  0  0  0
 15  9  1  0  0  0  0
 16 15  1  0  0  0  0
 18 23  1  0  0  0  0
 19 18  1  0  0  0  0
 20 18  1  0  0  0  0
 21 27  1  0  0  0  0
 21 26  1  0  0  0  0
 22 21  2  0  0  0  0
 23 22  1  0  0  0  0
 23 24  2  0  0  0  0
 24 25  1  0  0  0  0
 25 26  2  0  0  0  0
 25 29  1  0  0  0  0
 28 22  1  0  0  0  0
M  END
>  <minimizedAffinity>
-5.0201664

$$$$

 OpenBabel03272509253D

 29 31  0  0  0  0  0  0  0  0999 V2000
   37.7800   25.0100   33.7320 C   0  0  0  0  0  0  0  0  0  0  0  0
   36.7950   25.0590   34.2090 H   0  0  0  0  0  0  0  0  0  0  0  0
   37.7580   24.6620   32.6780 H   0  0  0  0  0  0  0  0  0  0  0  0
   38.6700   24.0810   34.4460 N   0  0  0  0  0  0  0  0  0  0  0  0
   39.6150   23.2700   33.9710 C   0  0  0  0  0  0  0  0  0  0  0  0
   39.8440   23.2080   32.9170 H   0  0  0  0  0  0  0  0  0  0  0  0
   40.1850   22.5920   35.0080 N   0  0  0  0  0  0  0  0  0  0  0  0
   39.5460   23.0250   36.1320 C   0  0  0  0  0  0  0  0  0  0  0  0
   39.7170   22.6790   37.4570 C   0  0  0  0  0  0  0  0  0  0  0  0
   38.9250   23.2830   38.3840 N   0  0  0  0  0  0  0  0  0  0  0  0
   37.9970   24.1900   38.0760 C   0  0  0  0  0  0  0  0  0  0  0  0
   37.3900   24.6450   38.8440 H   0  0  0  0  0  0  0  0  0  0  0  0
   37.8320   24.5280   36.7810 N   0  0  0  0  0  0  0  0  0  0  0  0
   38.5850   23.9680   35.7960 C   0  0  0  0  0  0  0  0  0  0  0  0
   40.6780   21.7220   37.8890 N   0  0  0  0  0  0  0  0  0  0  0  0
   40.3370   20.7410   38.0350 H   0  0  0  0  0  0  0  0  0  0  0  0
   41.5100   22.3770   37.9270 H   0  0  0  0  0  0  0  0  0  0  0  0
   38.4740   26.3620   33.7730 C   0  0  0  0  0  0  0  0  0  0  0  0
   38.9270   26.4870   34.7660 H   0  0  0  0  0  0  0  0  0  0  0  0
   39.2970   26.3650   33.0310 H   0  0  0  0  0  0  0  0  0  0  0  0
   35.7930   29.0350   34.1860 C   0  0  0  0  0  0  0  0  0  0  0  0
   36.6880   28.0070   34.5240 C   0  0  0  0  0  0  0  0  0  0  0  0
   37.4890   27.4540   33.5390 C   0  0  0  0  0  0  0  0  0  0  0  0
   37.3720   27.9350   32.2670 N   0  0  0  0  0  0  0  0  0  0  0  0
   36.5060   28.9220   31.9670 C   0  0  0  0  0  0  0  0  0  0  0  0
   35.7200   29.4710   32.9140 N   0  0  0  0  0  0  0  0  0  0  0  0
   35.1610   29.4750   34.9470 H   0  0  0  0  0  0  0  0  0  0  0  0
   36.7750   27.6350   35.5160 H   0  0  0  0  0  0  0  0  0  0  0  0
   36.5110   29.2120   30.9210 H   0  0  0  0  0  0  0  0  0  0  0  0
  1 18  1  0  0  0  0
  1  2  1  0  0  0  0
  1  4  1  0  0  0  0
  3  1  1  0  0  0  0
  4 14  1  0  0  0  0
  5  4  1  0  0  0  0
  5  7  2  0  0  0  0
  6  5  1  0  0  0  0
  7  8  1  0  0  0  0
  8  9  1  0  0  0  0
  9 15  1  0  0  0  0
  9 10  2  0  0  0  0
 11 10  1  0  0  0  0
 11 12  1  0  0  0  0
 13 11  2  0  0  0  0
 14  8  2  0  0  0  0
 14 13  1  0  0  0  0
 15 17  1  0  0  0  0
 15 16  1  0  0  0  0
 18 19  1  0  0  0  0
 20 18  1  0  0  0  0
 21 22  1  0  0  0  0
 21 27  1  0  0  0  0
 22 28  1  0  0  0  0
 23 18  1  0  0  0  0
 23 22  2  0  0  0  0
 24 23  1  0  0  0  0
 25 24  2  0  0  0  0
 25 26  1  0  0  0  0
 26 21  2  0  0  0  0
 29 25  1  0  0  0  0
M  END
>  <minimizedAffinity>
-4.97894287

$$$$

 OpenBabel03272509253D

 29 31  0  0  0  0  0  0  0  0999 V2000
   38.5620   26.3100   34.3700 C   0  0  0  0  0  0  0  0  0  0  0  0
   39.1800   27.2120   34.4500 H   0  0  0  0  0  0  0  0  0  0  0  0
   39.1290   25.3940   34.1030 H   0  0  0  0  0  0  0  0  0  0  0  0
   37.5290   26.4650   33.3350 N   0  0  0  0  0  0  0  0  0  0  0  0
   36.9300   27.5680   32.8850 C   0  0  0  0  0  0  0  0  0  0  0  0
   37.1670   28.5500   33.2710 H   0  0  0  0  0  0  0  0  0  0  0  0
   36.0340   27.2270   31.9170 N   0  0  0  0  0  0  0  0  0  0  0  0
   36.1120   25.8710   31.7980 C   0  0  0  0  0  0  0  0  0  0  0  0
   35.4330   24.9960   30.9740 C   0  0  0  0  0  0  0  0  0  0  0  0
   35.7190   23.6690   31.0720 N   0  0  0  0  0  0  0  0  0  0  0  0
   36.6210   23.1760   31.9230 C   0  0  0  0  0  0  0  0  0  0  0  0
   36.8180   22.1150   31.9680 H   0  0  0  0  0  0  0  0  0  0  0  0
   37.2840   24.0310   32.7260 N   0  0  0  0  0  0  0  0  0  0  0  0
   37.0530   25.3720   32.6870 C   0  0  0  0  0  0  0  0  0  0  0  0
   34.4520   25.4220   30.0340 N   0  0  0  0  0  0  0  0  0  0  0  0
   33.4500   25.3700   30.3390 H   0  0  0  0  0  0  0  0  0  0  0  0
   35.1190   25.6810   29.2530 H   0  0  0  0  0  0  0  0  0  0  0  0
   37.8140   26.0460   35.6660 C   0  0  0  0  0  0  0  0  0  0  0  0
   37.8770   26.9470   36.2920 H   0  0  0  0  0  0  0  0  0  0  0  0
   36.7430   25.8790   35.4340 H   0  0  0  0  0  0  0  0  0  0  0  0
   38.6700   23.3590   38.2250 C   0  0  0  0  0  0  0  0  0  0  0  0
   38.0160   24.4530   37.6360 C   0  0  0  0  0  0  0  0  0  0  0  0
   38.4270   24.8980   36.3910 C   0  0  0  0  0  0  0  0  0  0  0  0
   39.4610   24.2490   35.7830 N   0  0  0  0  0  0  0  0  0  0  0  0
   40.0730   23.2000   36.3670 C   0  0  0  0  0  0  0  0  0  0  0  0
   39.6860   22.7540   37.5780 N   0  0  0  0  0  0  0  0  0  0  0  0
   38.3590   23.0010   39.1980 H   0  0  0  0  0  0  0  0  0  0  0  0
   37.2120   24.9560   38.1140 H   0  0  0  0  0  0  0  0  0  0  0  0
   40.8790   22.7750   35.7780 H   0  0  0  0  0  0  0  0  0  0  0  0
  1  2  1  0  0  0  0
  1 18  1  0  0  0  0
  3  1  1  0  0  0  0
  4  1  1  0  0  0  0
  5  6  1  0  0  0  0
  5  4  1  0  0  0  0
  7  5  2  0  0  0  0
  8  7  1  0  0  0  0
  8 14  1  0  0  0  0
  9 10  1  0  0  0  0
  9  8  2  0  0  0  0
 10 11  2  0  0  0  0
 11 12  1  0  0  0  0
 11 13  1  0  0  0  0
 14 13  2  0  0  0  0
 14  4  1  0  0  0  0
 15 16  1  0  0  0  0
 15  9  1  0  0  0  0
 17 15  1  0  0  0  0
 18 19  1  0  0  0  0
 18 23  1  0  0  0  0
 20 18  1  0  0  0  0
 21 27  1  0  0  0  0
 22 28  1  0  0  0  0
 22 21  1  0  0  0  0
 23 22  2  0  0  0  0
 24 25  2  0  0  0  0
 24 23  1  0  0  0  0
 25 26  1  0  0  0  0
 26 21  2  0  0  0  0
 29 25  1  0  0  0  0
M  END
>  <minimizedAffinity>
-4.9589076

$$$$

 OpenBabel03272509253D

 29 31  0  0  0  0  0  0  0  0999 V2000
   38.4900   26.7260   35.2050 C   0  0  0  0  0  0  0  0  0  0  0  0
   38.2090   27.6650   35.6950 H   0  0  0  0  0  0  0  0  0  0  0  0
   39.5410   26.4170   35.3840 H   0  0  0  0  0  0  0  0  0  0  0  0
   38.3390   26.8240   33.7450 N   0  0  0  0  0  0  0  0  0  0  0  0
   39.0610   26.2660   32.7730 C   0  0  0  0  0  0  0  0  0  0  0  0
   39.9080   25.6260   32.9800 H   0  0  0  0  0  0  0  0  0  0  0  0
   38.5500   26.6380   31.5660 N   0  0  0  0  0  0  0  0  0  0  0  0
   37.4880   27.4470   31.8450 C   0  0  0  0  0  0  0  0  0  0  0  0
   36.6080   28.1020   31.0070 C   0  0  0  0  0  0  0  0  0  0  0  0
   35.6250   28.8550   31.5720 N   0  0  0  0  0  0  0  0  0  0  0  0
   35.4700   28.9860   32.8910 C   0  0  0  0  0  0  0  0  0  0  0  0
   34.6750   29.5930   33.2970 H   0  0  0  0  0  0  0  0  0  0  0  0
   36.3290   28.3450   33.7070 N   0  0  0  0  0  0  0  0  0  0  0  0
   37.3390   27.5750   33.2180 C   0  0  0  0  0  0  0  0  0  0  0  0
   36.6890   28.0260   29.5880 N   0  0  0  0  0  0  0  0  0  0  0  0
   37.1950   28.8050   29.1000 H   0  0  0  0  0  0  0  0  0  0  0  0
   36.1600   27.1160   29.4730 H   0  0  0  0  0  0  0  0  0  0  0  0
   37.5790   25.5900   35.6410 C   0  0  0  0  0  0  0  0  0  0  0  0
   36.7590   26.0140   36.2360 H   0  0  0  0  0  0  0  0  0  0  0  0
   37.1290   25.1260   34.7410 H   0  0  0  0  0  0  0  0  0  0  0  0
   38.8160   23.3590   38.4680 C   0  0  0  0  0  0  0  0  0  0  0  0
   38.0300   24.3000   37.7840 C   0  0  0  0  0  0  0  0  0  0  0  0
   38.3360   24.6110   36.4690 C   0  0  0  0  0  0  0  0  0  0  0  0
   39.4010   23.9850   35.8900 N   0  0  0  0  0  0  0  0  0  0  0  0
   40.1410   23.0850   36.5670 C   0  0  0  0  0  0  0  0  0  0  0  0
   39.8550   22.7710   37.8460 N   0  0  0  0  0  0  0  0  0  0  0  0
   38.5870   23.1080   39.4970 H   0  0  0  0  0  0  0  0  0  0  0  0
   37.2020   24.7860   38.2390 H   0  0  0  0  0  0  0  0  0  0  0  0
   40.9570   22.6620   35.9920 H   0  0  0  0  0  0  0  0  0  0  0  0
  1  3  1  0  0  0  0
  1 18  1  0  0  0  0
  1  2  1  0  0  0  0
  4  1  1  0  0  0  0
  5  6  1  0  0  0  0
  5  4  1  0  0  0  0
  7  8  1  0  0  0  0
  7  5  2  0  0  0  0
  8 14  1  0  0  0  0
  9 10  1  0  0  0  0
  9  8  2  0  0  0  0
 10 11  2  0  0  0  0
 11 12  1  0  0  0  0
 11 13  1  0  0  0  0
 14 13  2  0  0  0  0
 14  4  1  0  0  0  0
 15  9  1  0  0  0  0
 16 15  1  0  0  0  0
 17 15  1  0  0  0  0
 18 19  1  0  0  0  0
 18 23  1  0  0  0  0
 20 18  1  0  0  0  0
 21 27  1  0  0  0  0
 22 28  1  0  0  0  0
 22 21  2  0  0  0  0
 23 22  1  0  0  0  0
 24 23  2  0  0  0  0
 24 25  1  0  0  0  0
 25 26  2  0  0  0  0
 26 21  1  0  0  0  0
 29 25  1  0  0  0  0
M  END
>  <minimizedAffinity>
-4.79622602

$$$$

 OpenBabel03272509253D

 29 31  0  0  0  0  0  0  0  0999 V2000
   39.3090   25.7490   33.7320 C   0  0  0  0  0  0  0  0  0  0  0  0
   40.3850   25.9480   33.7630 H   0  0  0  0  0  0  0  0  0  0  0  0
   38.6850   26.6510   33.5560 H   0  0  0  0  0  0  0  0  0  0  0  0
   38.8380   25.1740   35.0010 N   0  0  0  0  0  0  0  0  0  0  0  0
   37.7060   25.3940   35.6700 C   0  0  0  0  0  0  0  0  0  0  0  0
   36.9510   26.0810   35.3140 H   0  0  0  0  0  0  0  0  0  0  0  0
   37.7010   24.6340   36.8030 N   0  0  0  0  0  0  0  0  0  0  0  0
   38.8770   23.9450   36.7930 C   0  0  0  0  0  0  0  0  0  0  0  0
   39.3960   23.0320   37.6900 C   0  0  0  0  0  0  0  0  0  0  0  0
   40.6150   22.4910   37.4210 N   0  0  0  0  0  0  0  0  0  0  0  0
   41.3300   22.7980   36.3370 C   0  0  0  0  0  0  0  0  0  0  0  0
   42.2940   22.3440   36.1620 H   0  0  0  0  0  0  0  0  0  0  0  0
   40.8220   23.6880   35.4620 N   0  0  0  0  0  0  0  0  0  0  0  0
   39.6090   24.2720   35.6610 C   0  0  0  0  0  0  0  0  0  0  0  0
   38.7130   22.6400   38.8760 N   0  0  0  0  0  0  0  0  0  0  0  0
   38.9760   23.1380   39.7600 H   0  0  0  0  0  0  0  0  0  0  0  0
   38.0990   21.8970   38.4370 H   0  0  0  0  0  0  0  0  0  0  0  0
   38.9740   24.7230   32.6620 C   0  0  0  0  0  0  0  0  0  0  0  0
   39.7340   24.7890   31.8700 H   0  0  0  0  0  0  0  0  0  0  0  0
   39.0440   23.7090   33.1030 H   0  0  0  0  0  0  0  0  0  0  0  0
   35.4870   24.4050   31.1660 C   0  0  0  0  0  0  0  0  0  0  0  0
   36.7270   24.0230   31.7040 C   0  0  0  0  0  0  0  0  0  0  0  0
   37.6310   25.0010   32.0820 C   0  0  0  0  0  0  0  0  0  0  0  0
   37.2760   26.3080   31.9130 N   0  0  0  0  0  0  0  0  0  0  0  0
   36.0800   26.6500   31.3960 C   0  0  0  0  0  0  0  0  0  0  0  0
   35.1890   25.7100   31.0230 N   0  0  0  0  0  0  0  0  0  0  0  0
   34.7710   23.6490   30.8660 H   0  0  0  0  0  0  0  0  0  0  0  0
   37.0000   23.0050   31.8320 H   0  0  0  0  0  0  0  0  0  0  0  0
   35.9220   27.7200   31.3150 H   0  0  0  0  0  0  0  0  0  0  0  0
  1  2  1  0  0  0  0
  1  4  1  0  0  0  0
  3  1  1  0  0  0  0
  4 14  1  0  0  0  0
  4  5  1  0  0  0  0
  5  7  2  0  0  0  0
  6  5  1  0  0  0  0
  8  7  1  0  0  0  0
  8  9  1  0  0  0  0
  9 15  1  0  0  0  0
 10  9  2  0  0  0  0
 11 10  1  0  0  0  0
 12 11  1  0  0  0  0
 13 14  1  0  0  0  0
 13 11  2  0  0  0  0
 14  8  2  0  0  0  0
 15 16  1  0  0  0  0
 17 15  1  0  0  0  0
 18 20  1  0  0  0  0
 18  1  1  0  0  0  0
 19 18  1  0  0  0  0
 21 22  1  0  0  0  0
 22 28  1  0  0  0  0
 22 23  2  0  0  0  0
 23 18  1  0  0  0  0
 24 23  1  0  0  0  0
 25 24  2  0  0  0  0
 26 21  2  0  0  0  0
 26 25  1  0  0  0  0
 27 21  1  0  0  0  0
 29 25  1  0  0  0  0
M  END
>  <minimizedAffinity>
-4.71482086

$$$$

 OpenBabel03272509253D

 29 31  0  0  0  0  0  0  0  0999 V2000
   38.4660   26.1590   34.5360 C   0  0  0  0  0  0  0  0  0  0  0  0
   39.3720   26.6300   34.9330 H   0  0  0  0  0  0  0  0  0  0  0  0
   38.6600   25.3220   33.8330 H   0  0  0  0  0  0  0  0  0  0  0  0
   37.6450   27.1280   33.7960 N   0  0  0  0  0  0  0  0  0  0  0  0
   36.6580   27.9160   34.2260 C   0  0  0  0  0  0  0  0  0  0  0  0
   36.3350   27.9220   35.2580 H   0  0  0  0  0  0  0  0  0  0  0  0
   36.1840   28.6510   33.1810 N   0  0  0  0  0  0  0  0  0  0  0  0
   36.9230   28.2770   32.0980 C   0  0  0  0  0  0  0  0  0  0  0  0
   36.8740   28.6960   30.7830 C   0  0  0  0  0  0  0  0  0  0  0  0
   37.7480   28.1400   29.9000 N   0  0  0  0  0  0  0  0  0  0  0  0
   38.6460   27.2140   30.2430 C   0  0  0  0  0  0  0  0  0  0  0  0
   39.3210   26.8000   29.5090 H   0  0  0  0  0  0  0  0  0  0  0  0
   38.6920   26.8060   31.5260 N   0  0  0  0  0  0  0  0  0  0  0  0
   37.8520   27.3150   32.4680 C   0  0  0  0  0  0  0  0  0  0  0  0
   35.9540   29.6770   30.3180 N   0  0  0  0  0  0  0  0  0  0  0  0
   35.0700   29.3250   29.8770 H   0  0  0  0  0  0  0  0  0  0  0  0
   36.5160   30.5300   30.5960 H   0  0  0  0  0  0  0  0  0  0  0  0
   37.5830   25.6410   35.6600 C   0  0  0  0  0  0  0  0  0  0  0  0
   37.2970   26.4920   36.2940 H   0  0  0  0  0  0  0  0  0  0  0  0
   36.6530   25.2260   35.2240 H   0  0  0  0  0  0  0  0  0  0  0  0
   38.7840   23.3650   38.4670 C   0  0  0  0  0  0  0  0  0  0  0  0
   38.0130   24.3240   37.7910 C   0  0  0  0  0  0  0  0  0  0  0  0
   38.3240   24.6430   36.4800 C   0  0  0  0  0  0  0  0  0  0  0  0
   39.3790   24.0050   35.8950 N   0  0  0  0  0  0  0  0  0  0  0  0
   40.1050   23.0880   36.5640 C   0  0  0  0  0  0  0  0  0  0  0  0
   39.8140   22.7660   37.8390 N   0  0  0  0  0  0  0  0  0  0  0  0
   38.5500   23.1070   39.4930 H   0  0  0  0  0  0  0  0  0  0  0  0
   37.1930   24.8190   38.2510 H   0  0  0  0  0  0  0  0  0  0  0  0
   40.9140   22.6570   35.9850 H   0  0  0  0  0  0  0  0  0  0  0  0
  1  2  1  0  0  0  0
  1 18  1  0  0  0  0
  3  1  1  0  0  0  0
  4  5  1  0  0  0  0
  4  1  1  0  0  0  0
  5  6  1  0  0  0  0
  7  5  2  0  0  0  0
  8 14  1  0  0  0  0
  8  7  1  0  0  0  0
  9  8  2  0  0  0  0
 10 11  2  0  0  0  0
 10  9  1  0  0  0  0
 11 13  1  0  0  0  0
 12 11  1  0  0  0  0
 13 14  2  0  0  0  0
 14  4  1  0  0  0  0
 15 17  1  0  0  0  0
 15  9  1  0  0  0  0
 16 15  1  0  0  0  0
 18 19  1  0  0  0  0
 18 23  1  0  0  0  0
 20 18  1  0  0  0  0
 21 27  1  0  0  0  0
 22 28  1  0  0  0  0
 22 21  2  0  0  0  0
 23 22  1  0  0  0  0
 24 23  2  0  0  0  0
 24 25  1  0  0  0  0
 25 26  2  0  0  0  0
 26 21  1  0  0  0  0
 29 25  1  0  0  0  0
M  END
>  <minimizedAffinity>
-4.60942316

$$$$

 OpenBabel03272509253D

 29 31  0  0  0  0  0  0  0  0999 V2000
   38.1740   21.8390   35.0970 C   0  0  0  0  0  0  0  0  0  0  0  0
   38.7270   21.1120   35.7020 H   0  0  0  0  0  0  0  0  0  0  0  0
   38.5840   21.9830   34.0750 H   0  0  0  0  0  0  0  0  0  0  0  0
   38.1780   23.1670   35.7270 N   0  0  0  0  0  0  0  0  0  0  0  0
   37.8980   23.5170   36.9830 C   0  0  0  0  0  0  0  0  0  0  0  0
   37.6150   22.7910   37.7330 H   0  0  0  0  0  0  0  0  0  0  0  0
   38.0320   24.8670   37.1120 N   0  0  0  0  0  0  0  0  0  0  0  0
   38.4050   25.3230   35.8820 C   0  0  0  0  0  0  0  0  0  0  0  0
   38.6790   26.6010   35.4380 C   0  0  0  0  0  0  0  0  0  0  0  0
   39.0340   26.7650   34.1350 N   0  0  0  0  0  0  0  0  0  0  0  0
   39.1310   25.7540   33.2700 C   0  0  0  0  0  0  0  0  0  0  0  0
   39.4170   25.9290   32.2430 H   0  0  0  0  0  0  0  0  0  0  0  0
   38.8640   24.5060   33.7050 N   0  0  0  0  0  0  0  0  0  0  0  0
   38.5020   24.2620   34.9940 C   0  0  0  0  0  0  0  0  0  0  0  0
   38.6030   27.7460   36.2810 N   0  0  0  0  0  0  0  0  0  0  0  0
   37.7120   28.2970   36.2510 H   0  0  0  0  0  0  0  0  0  0  0  0
   39.5680   27.6600   36.7090 H   0  0  0  0  0  0  0  0  0  0  0  0
   36.7120   21.4430   34.9710 C   0  0  0  0  0  0  0  0  0  0  0  0
   36.5360   20.5640   35.6070 H   0  0  0  0  0  0  0  0  0  0  0  0
   36.0830   22.2670   35.3640 H   0  0  0  0  0  0  0  0  0  0  0  0
   35.1830   19.9700   31.8100 C   0  0  0  0  0  0  0  0  0  0  0  0
   35.3980   20.2140   33.1760 C   0  0  0  0  0  0  0  0  0  0  0  0
   36.3890   21.1030   33.5580 C   0  0  0  0  0  0  0  0  0  0  0  0
   37.1220   21.7100   32.5800 N   0  0  0  0  0  0  0  0  0  0  0  0
   36.8960   21.4600   31.2750 C   0  0  0  0  0  0  0  0  0  0  0  0
   35.9360   20.5980   30.8880 N   0  0  0  0  0  0  0  0  0  0  0  0
   34.4110   19.2760   31.4990 H   0  0  0  0  0  0  0  0  0  0  0  0
   34.8250   19.7380   33.9340 H   0  0  0  0  0  0  0  0  0  0  0  0
   37.5470   22.0070   30.6020 H   0  0  0  0  0  0  0  0  0  0  0  0
  1  2  1  0  0  0  0
  1  4  1  0  0  0  0
  3  1  1  0  0  0  0
  4  5  1  0  0  0  0
  5  7  2  0  0  0  0
  5  6  1  0  0  0  0
  8  7  1  0  0  0  0
  9  8  1  0  0  0  0
  9 15  1  0  0  0  0
 10  9  2  0  0  0  0
 11 13  2  0  0  0  0
 11 10  1  0  0  0  0
 12 11  1  0  0  0  0
 13 14  1  0  0  0  0
 14  4  1  0  0  0  0
 14  8  2  0  0  0  0
 15 17  1  0  0  0  0
 16 15  1  0  0  0  0
 18  1  1  0  0  0  0
 18 20  1  0  0  0  0
 18 19  1  0  0  0  0
 21 22  1  0  0  0  0
 22 23  2  0  0  0  0
 22 28  1  0  0  0  0
 23 18  1  0  0  0  0
 24 23  1  0  0  0  0
 25 24  2  0  0  0  0
 26 25  1  0  0  0  0
 26 21  2  0  0  0  0
 27 21  1  0  0  0  0
 29 25  1  0  0  0  0
M  END
>  <minimizedAffinity>
-4.58763933

$$$$

 OpenBabel03272509253D

 29 31  0  0  0  0  0  0  0  0999 V2000
   38.7100   22.9040   33.5410 C   0  0  0  0  0  0  0  0  0  0  0  0
   39.7550   22.8840   33.8710 H   0  0  0  0  0  0  0  0  0  0  0  0
   38.5250   22.3710   32.5850 H   0  0  0  0  0  0  0  0  0  0  0  0
   38.2460   24.2840   33.3330 N   0  0  0  0  0  0  0  0  0  0  0  0
   38.7050   25.4260   33.8480 C   0  0  0  0  0  0  0  0  0  0  0  0
   39.5400   25.4530   34.5330 H   0  0  0  0  0  0  0  0  0  0  0  0
   37.9610   26.4630   33.3700 N   0  0  0  0  0  0  0  0  0  0  0  0
   37.0320   25.9040   32.5430 C   0  0  0  0  0  0  0  0  0  0  0  0
   36.0270   26.4820   31.7930 C   0  0  0  0  0  0  0  0  0  0  0  0
   35.2340   25.6660   31.0460 N   0  0  0  0  0  0  0  0  0  0  0  0
   35.3820   24.3410   31.0030 C   0  0  0  0  0  0  0  0  0  0  0  0
   34.7310   23.7310   30.3950 H   0  0  0  0  0  0  0  0  0  0  0  0
   36.3640   23.7780   31.7350 N   0  0  0  0  0  0  0  0  0  0  0  0
   37.1970   24.5270   32.5070 C   0  0  0  0  0  0  0  0  0  0  0  0
   35.7870   27.8850   31.7720 N   0  0  0  0  0  0  0  0  0  0  0  0
   35.0430   28.2470   32.4160 H   0  0  0  0  0  0  0  0  0  0  0  0
   36.5110   28.1330   31.0400 H   0  0  0  0  0  0  0  0  0  0  0  0
   37.7920   22.3140   34.5990 C   0  0  0  0  0  0  0  0  0  0  0  0
   36.7940   22.7560   34.4770 H   0  0  0  0  0  0  0  0  0  0  0  0
   37.6950   21.2240   34.4220 H   0  0  0  0  0  0  0  0  0  0  0  0
   38.1520   23.4850   38.2050 C   0  0  0  0  0  0  0  0  0  0  0  0
   37.5610   23.2380   36.9550 C   0  0  0  0  0  0  0  0  0  0  0  0
   38.3070   22.6270   35.9610 C   0  0  0  0  0  0  0  0  0  0  0  0
   39.5990   22.2880   36.2410 N   0  0  0  0  0  0  0  0  0  0  0  0
   40.1440   22.5350   37.4480 C   0  0  0  0  0  0  0  0  0  0  0  0
   39.4320   23.1280   38.4260 N   0  0  0  0  0  0  0  0  0  0  0  0
   37.5800   23.9630   38.9900 H   0  0  0  0  0  0  0  0  0  0  0  0
   36.5550   23.5050   36.7420 H   0  0  0  0  0  0  0  0  0  0  0  0
   41.1770   22.2160   37.5390 H   0  0  0  0  0  0  0  0  0  0  0  0
  1  2  1  0  0  0  0
  1 18  1  0  0  0  0
  3  1  1  0  0  0  0
  4  1  1  0  0  0  0
  4  5  1  0  0  0  0
  5  6  1  0  0  0  0
  7  5  2  0  0  0  0
  8  7  1  0  0  0  0
  9  8  2  0  0  0  0
 10  9  1  0  0  0  0
 11 10  2  0  0  0  0
 11 13  1  0  0  0  0
 12 11  1  0  0  0  0
 13 14  2  0  0  0  0
 14  8  1  0  0  0  0
 14  4  1  0  0  0  0
 15  9  1  0  0  0  0
 15 16  1  0  0  0  0
 17 15  1  0  0  0  0
 18 23  1  0  0  0  0
 19 18  1  0  0  0  0
 20 18  1  0  0  0  0
 21 26  1  0  0  0  0
 21 27  1  0  0  0  0
 22 21  2  0  0  0  0
 23 24  2  0  0  0  0
 23 22  1  0  0  0  0
 24 25  1  0  0  0  0
 25 29  1  0  0  0  0
 25 26  2  0  0  0  0
 28 22  1  0  0  0  0
M  END
>  <minimizedAffinity>
-4.55283976

$$$$
