
 OpenBabel03262522153D

 50 54  0  0  1  0  0  0  0  0999 V2000
   39.0980   29.7730   42.2080 C   0  0  1  0  0  0  0  0  0  0  0  0
   39.0110   31.2760   41.9880 C   0  0  0  0  0  0  0  0  0  0  0  0
   40.0290   31.7900   42.9600 C   0  0  2  0  0  0  0  0  0  0  0  0
   40.4510   30.7460   43.7250 O   0  0  0  0  0  0  0  0  0  0  0  0
   39.4940   29.7490   43.6740 C   0  0  0  0  0  0  0  0  0  0  0  0
   39.9500   29.3340   41.6380 H   0  0  0  0  0  0  0  0  0  0  0  0
   38.0210   31.5920   42.3290 H   0  0  0  0  0  0  0  0  0  0  0  0
   39.2470   31.5320   40.9360 H   0  0  0  0  0  0  0  0  0  0  0  0
   40.9070   32.1760   42.3840 H   0  0  0  0  0  0  0  0  0  0  0  0
   40.0160   28.8000   43.9490 H   0  0  0  0  0  0  0  0  0  0  0  0
   38.6160   29.9640   44.3110 H   0  0  0  0  0  0  0  0  0  0  0  0
   39.4850   32.9340   43.7760 C   0  0  0  0  0  0  0  0  0  0  0  0
   38.4260   32.8200   44.0380 H   0  0  0  0  0  0  0  0  0  0  0  0
   39.5910   33.8650   43.1680 H   0  0  0  0  0  0  0  0  0  0  0  0
   40.5770   33.1520   45.2040 S   0  0  0  0  0  0  0  0  0  0  0  0
   37.7770   31.7750   47.6520 C   0  0  0  0  0  0  0  0  0  0  0  0
   37.9490   32.5140   48.8230 C   0  0  0  0  0  0  0  0  0  0  0  0
   38.9350   33.4720   48.9160 C   0  0  0  0  0  0  0  0  0  0  0  0
   39.7170   33.6450   47.8040 C   0  0  0  0  0  0  0  0  0  0  0  0
   39.5350   32.9150   46.6680 C   0  0  0  0  0  0  0  0  0  0  0  0
   38.5690   31.9720   46.5690 N   0  0  0  0  0  0  0  0  0  0  0  0
   37.2950   32.3290   49.6690 H   0  0  0  0  0  0  0  0  0  0  0  0
   39.0690   34.0500   49.8320 H   0  0  0  0  0  0  0  0  0  0  0  0
   40.5160   34.3800   47.7950 H   0  0  0  0  0  0  0  0  0  0  0  0
   36.7210   30.7910   47.6350 C   0  0  0  0  0  0  0  0  0  0  0  0
   36.2440   30.3760   46.5780 O   0  0  0  0  0  0  0  0  0  0  0  0
   37.0370   29.6320   49.7940 C   0  0  0  0  0  0  0  0  0  0  0  0
   36.1530   30.2260   48.8760 C   0  0  0  0  0  0  0  0  0  0  0  0
   34.7750   30.2690   49.1530 C   0  0  0  0  0  0  0  0  0  0  0  0
   34.3470   29.7160   50.3340 N   0  0  0  0  0  0  0  0  0  0  0  0
   35.2080   29.1520   51.1990 C   0  0  0  0  0  0  0  0  0  0  0  0
   36.5240   29.1120   50.9320 N   0  0  0  0  0  0  0  0  0  0  0  0
   38.0800   29.6050   49.5720 H   0  0  0  0  0  0  0  0  0  0  0  0
   34.1320   30.7310   48.4290 H   0  0  0  0  0  0  0  0  0  0  0  0
   34.6990   28.7730   52.0630 H   0  0  0  0  0  0  0  0  0  0  0  0
   37.8780   29.1650   41.9900 O   0  0  0  0  0  0  0  0  0  0  0  0
   35.8100   27.8150   43.4080 H   0  0  0  0  0  0  0  0  0  0  0  0
   36.5470   27.2330   42.9550 N   0  0  0  0  0  0  0  0  0  0  0  0
   37.5420   27.8620   42.2730 C   0  0  0  0  0  0  0  0  0  0  0  0
   38.3930   26.9240   41.7610 N   0  0  0  0  0  0  0  0  0  0  0  0
   37.9210   25.7050   42.1290 C   0  0  0  0  0  0  0  0  0  0  0  0
   38.3150   24.3910   41.9350 C   0  0  0  0  0  0  0  0  0  0  0  0
   37.5780   23.4130   42.4650 N   0  0  0  0  0  0  0  0  0  0  0  0
   36.4600   23.6210   43.1870 C   0  0  0  0  0  0  0  0  0  0  0  0
   35.8970   22.7770   43.5970 H   0  0  0  0  0  0  0  0  0  0  0  0
   36.0390   24.9020   43.4010 N   0  0  0  0  0  0  0  0  0  0  0  0
   36.7750   25.9100   42.8700 C   0  0  0  0  0  0  0  0  0  0  0  0
   39.4980   24.1930   41.1700 N   0  0  0  0  0  0  0  0  0  0  0  0
   39.6710   23.9370   40.1540 H   0  0  0  0  0  0  0  0  0  0  0  0
   40.4130   24.3120   41.6550 H   0  0  0  0  0  0  0  0  0  0  0  0
  1  6  1  6  0  0  0
  1  5  1  0  0  0  0
  2  1  1  0  0  0  0
  2  7  1  0  0  0  0
  2  3  1  0  0  0  0
  3  9  1  6  0  0  0
  3  4  1  0  0  0  0
  3 12  1  0  0  0  0
  5  4  1  0  0  0  0
  5 10  1  0  0  0  0
  5 11  1  0  0  0  0
  8  2  1  0  0  0  0
 12 13  1  0  0  0  0
 12 15  1  0  0  0  0
 14 12  1  0  0  0  0
 15 20  1  0  0  0  0
 16 17  1  0  0  0  0
 17 18  2  0  0  0  0
 17 22  1  0  0  0  0
 18 23  1  0  0  0  0
 19 18  1  0  0  0  0
 20 19  2  0  0  0  0
 21 20  1  0  0  0  0
 21 16  2  0  0  0  0
 24 19  1  0  0  0  0
 25 16  1  0  0  0  0
 25 28  1  0  0  0  0
 26 25  2  0  0  0  0
 27 32  1  0  0  0  0
 28 29  1  0  0  0  0
 28 27  2  0  0  0  0
 29 30  2  0  0  0  0
 30 31  1  0  0  0  0
 31 35  1  0  0  0  0
 32 31  2  0  0  0  0
 33 27  1  0  0  0  0
 34 29  1  0  0  0  0
 36  1  1  0  0  0  0
 36 39  1  0  0  0  0
 38 37  1  0  0  0  0
 39 38  1  0  0  0  0
 40 41  1  0  0  0  0
 40 39  2  0  0  0  0
 41 47  1  0  0  0  0
 42 41  2  0  0  0  0
 42 43  1  0  0  0  0
 43 44  2  0  0  0  0
 44 46  1  0  0  0  0
 44 45  1  0  0  0  0
 47 38  1  0  0  0  0
 47 46  2  0  0  0  0
 48 50  1  0  0  0  0
 48 42  1  0  0  0  0
 49 48  1  0  0  0  0
M  END
>  <minimizedAffinity>
-5.61186934

>  <minimizedRMSD>
1.87788916

$$$$
