
 OpenBabel03262521473D

 35 37  0  0  0  0  0  0  0  0999 V2000
   34.7010   30.6000   49.1530 O   0  0  0  0  0  0  0  0  0  0  0  0
   34.4430   29.4420   50.1220 P   0  0  2  0  0  0  0  0  0  0  0  0
   33.0060   29.7880   50.8990 O   0  0  0  0  0  0  0  0  0  0  0  0
   32.6040   28.9930   51.3400 H   0  0  0  0  0  0  0  0  0  0  0  0
   35.7360   29.3570   51.1940 O   0  0  0  0  0  0  0  0  0  0  0  0
   36.9640   29.2400   50.5260 C   0  0  0  0  0  0  0  0  0  0  0  0
   36.7230   29.2340   49.4230 H   0  0  0  0  0  0  0  0  0  0  0  0
   37.4880   28.3000   50.7290 H   0  0  0  0  0  0  0  0  0  0  0  0
   37.7480   30.4920   50.7710 C   0  0  0  0  0  0  0  0  0  0  0  0
   38.6710   30.2130   51.3590 H   0  0  0  0  0  0  0  0  0  0  0  0
   37.2080   31.2120   51.4220 H   0  0  0  0  0  0  0  0  0  0  0  0
   38.1270   31.2040   49.5520 C   0  0  0  0  0  0  0  0  0  0  0  0
   38.5490   32.5330   49.5620 C   0  0  0  0  0  0  0  0  0  0  0  0
   38.8900   33.1240   48.3390 C   0  0  0  0  0  0  0  0  0  0  0  0
   38.7890   32.3620   47.1920 N   0  0  0  0  0  0  0  0  0  0  0  0
   38.3730   31.0690   47.2340 C   0  0  0  0  0  0  0  0  0  0  0  0
   38.0450   30.5070   48.4290 N   0  0  0  0  0  0  0  0  0  0  0  0
   38.5990   33.0550   50.4940 H   0  0  0  0  0  0  0  0  0  0  0  0
   39.2180   34.1450   48.3120 H   0  0  0  0  0  0  0  0  0  0  0  0
   38.3060   30.4990   46.3130 H   0  0  0  0  0  0  0  0  0  0  0  0
   34.2790   27.9950   49.2610 O   0  0  0  0  0  0  0  0  0  0  0  0
   31.6700   28.5590   49.8390 H   0  0  0  0  0  0  0  0  0  0  0  0
   31.9750   28.0310   48.9810 N   0  0  0  0  0  0  0  0  0  0  0  0
   33.1810   27.6480   48.5070 C   0  0  0  0  0  0  0  0  0  0  0  0
   32.9700   26.9820   47.3340 N   0  0  0  0  0  0  0  0  0  0  0  0
   31.6500   26.9440   47.0750 C   0  0  0  0  0  0  0  0  0  0  0  0
   30.9820   26.3790   46.0090 C   0  0  0  0  0  0  0  0  0  0  0  0
   29.6450   26.5100   46.0340 N   0  0  0  0  0  0  0  0  0  0  0  0
   28.9960   27.1480   47.0290 C   0  0  0  0  0  0  0  0  0  0  0  0
   27.9020   27.2210   46.9910 H   0  0  0  0  0  0  0  0  0  0  0  0
   29.7020   27.6770   48.0380 N   0  0  0  0  0  0  0  0  0  0  0  0
   31.0350   27.6080   48.1170 C   0  0  0  0  0  0  0  0  0  0  0  0
   31.6680   25.7060   44.9590 N   0  0  0  0  0  0  0  0  0  0  0  0
   31.3020   24.7300   45.0320 H   0  0  0  0  0  0  0  0  0  0  0  0
   32.3650   26.0640   44.2730 H   0  0  0  0  0  0  0  0  0  0  0  0
  2  1  2  6  0  0  0
  2  3  1  0  0  0  0
  2  5  1  0  0  0  0
  3  4  1  0  0  0  0
  6  8  1  0  0  0  0
  6  9  1  0  0  0  0
  6  5  1  0  0  0  0
  7  6  1  0  0  0  0
  9 10  1  0  0  0  0
  9 11  1  0  0  0  0
 12 13  1  0  0  0  0
 12  9  1  0  0  0  0
 13 18  1  0  0  0  0
 14 13  2  0  0  0  0
 15 16  2  0  0  0  0
 15 14  1  0  0  0  0
 16 17  1  0  0  0  0
 17 12  2  0  0  0  0
 19 14  1  0  0  0  0
 20 16  1  0  0  0  0
 21  2  1  0  0  0  0
 23 22  1  0  0  0  0
 24 23  1  0  0  0  0
 24 21  1  0  0  0  0
 25 24  2  0  0  0  0
 26 25  1  0  0  0  0
 26 32  1  0  0  0  0
 27 28  1  0  0  0  0
 27 26  2  0  0  0  0
 28 29  2  0  0  0  0
 29 31  1  0  0  0  0
 30 29  1  0  0  0  0
 31 32  2  0  0  0  0
 32 23  1  0  0  0  0
 33 34  1  0  0  0  0
 33 27  1  0  0  0  0
 35 33  1  0  0  0  0
M  END
>  <minimizedAffinity>
-5.68100691

>  <minimizedRMSD>
0.890771806

$$$$
