
 OpenBabel03262522153D

 50 54  0  0  1  0  0  0  0  0999 V2000
   39.3830   29.6110   42.4620 C   0  0  1  0  0  0  0  0  0  0  0  0
   38.9620   31.0330   42.1210 C   0  0  0  0  0  0  0  0  0  0  0  0
   39.9400   31.8430   42.9170 C   0  0  2  0  0  0  0  0  0  0  0  0
   40.6450   30.9940   43.7160 O   0  0  0  0  0  0  0  0  0  0  0  0
   39.9170   29.8280   43.8670 C   0  0  0  0  0  0  0  0  0  0  0  0
   40.2480   29.2890   41.8350 H   0  0  0  0  0  0  0  0  0  0  0  0
   37.9660   31.1820   42.5480 H   0  0  0  0  0  0  0  0  0  0  0  0
   39.0350   31.2120   41.0310 H   0  0  0  0  0  0  0  0  0  0  0  0
   40.6580   32.3290   42.2090 H   0  0  0  0  0  0  0  0  0  0  0  0
   40.6500   29.0370   44.1600 H   0  0  0  0  0  0  0  0  0  0  0  0
   39.0810   29.9330   44.5810 H   0  0  0  0  0  0  0  0  0  0  0  0
   39.2520   32.9400   43.6880 C   0  0  0  0  0  0  0  0  0  0  0  0
   38.2330   32.6810   43.9990 H   0  0  0  0  0  0  0  0  0  0  0  0
   39.1930   33.8360   43.0240 H   0  0  0  0  0  0  0  0  0  0  0  0
   40.3420   33.4110   45.0550 S   0  0  0  0  0  0  0  0  0  0  0  0
   37.7660   31.8040   47.6060 C   0  0  0  0  0  0  0  0  0  0  0  0
   38.0150   32.4660   48.8090 C   0  0  0  0  0  0  0  0  0  0  0  0
   38.9870   33.4380   48.8930 C   0  0  0  0  0  0  0  0  0  0  0  0
   39.6780   33.7060   47.7400 C   0  0  0  0  0  0  0  0  0  0  0  0
   39.4220   33.0500   46.5730 C   0  0  0  0  0  0  0  0  0  0  0  0
   38.4690   32.0930   46.4820 N   0  0  0  0  0  0  0  0  0  0  0  0
   37.4320   32.2070   49.6870 H   0  0  0  0  0  0  0  0  0  0  0  0
   39.1820   33.9560   49.8350 H   0  0  0  0  0  0  0  0  0  0  0  0
   40.4590   34.4580   47.7220 H   0  0  0  0  0  0  0  0  0  0  0  0
   36.7310   30.7990   47.6000 C   0  0  0  0  0  0  0  0  0  0  0  0
   36.2650   30.3600   46.5490 O   0  0  0  0  0  0  0  0  0  0  0  0
   37.0580   29.6290   49.7510 C   0  0  0  0  0  0  0  0  0  0  0  0
   36.1710   30.2400   48.8480 C   0  0  0  0  0  0  0  0  0  0  0  0
   34.7980   30.3050   49.1460 C   0  0  0  0  0  0  0  0  0  0  0  0
   34.3780   29.7560   50.3310 N   0  0  0  0  0  0  0  0  0  0  0  0
   35.2420   29.1750   51.1820 C   0  0  0  0  0  0  0  0  0  0  0  0
   36.5540   29.1140   50.8960 N   0  0  0  0  0  0  0  0  0  0  0  0
   38.0980   29.5860   49.5140 H   0  0  0  0  0  0  0  0  0  0  0  0
   34.1530   30.7790   48.4320 H   0  0  0  0  0  0  0  0  0  0  0  0
   34.7400   28.8020   52.0530 H   0  0  0  0  0  0  0  0  0  0  0  0
   38.3020   28.7530   42.4440 O   0  0  0  0  0  0  0  0  0  0  0  0
   40.2370   26.7960   43.1710 H   0  0  0  0  0  0  0  0  0  0  0  0
   39.2410   26.4930   43.1130 N   0  0  0  0  0  0  0  0  0  0  0  0
   38.3020   27.4160   42.7670 C   0  0  0  0  0  0  0  0  0  0  0  0
   37.0750   26.8170   42.7510 N   0  0  0  0  0  0  0  0  0  0  0  0
   37.2540   25.5150   43.0890 C   0  0  0  0  0  0  0  0  0  0  0  0
   36.4320   24.4110   43.2480 C   0  0  0  0  0  0  0  0  0  0  0  0
   36.9790   23.2480   43.6020 N   0  0  0  0  0  0  0  0  0  0  0  0
   38.2960   23.0710   43.8180 C   0  0  0  0  0  0  0  0  0  0  0  0
   38.6870   22.0890   44.1060 H   0  0  0  0  0  0  0  0  0  0  0  0
   39.1400   24.1330   43.6710 N   0  0  0  0  0  0  0  0  0  0  0  0
   38.6040   25.3260   43.3130 C   0  0  0  0  0  0  0  0  0  0  0  0
   35.0430   24.6200   43.0160 N   0  0  0  0  0  0  0  0  0  0  0  0
   34.2160   24.7840   43.6610 H   0  0  0  0  0  0  0  0  0  0  0  0
   34.7150   24.6230   42.0270 H   0  0  0  0  0  0  0  0  0  0  0  0
  1  6  1  6  0  0  0
  1  5  1  0  0  0  0
  2  1  1  0  0  0  0
  2  7  1  0  0  0  0
  2  3  1  0  0  0  0
  3  9  1  6  0  0  0
  3 12  1  0  0  0  0
  3  4  1  0  0  0  0
  4  5  1  0  0  0  0
  5 10  1  0  0  0  0
  5 11  1  0  0  0  0
  8  2  1  0  0  0  0
 12 13  1  0  0  0  0
 12 15  1  0  0  0  0
 14 12  1  0  0  0  0
 15 20  1  0  0  0  0
 16 17  1  0  0  0  0
 17 18  2  0  0  0  0
 17 22  1  0  0  0  0
 18 23  1  0  0  0  0
 19 18  1  0  0  0  0
 20 19  2  0  0  0  0
 21 20  1  0  0  0  0
 21 16  2  0  0  0  0
 24 19  1  0  0  0  0
 25 16  1  0  0  0  0
 25 28  1  0  0  0  0
 26 25  2  0  0  0  0
 27 32  1  0  0  0  0
 28 29  1  0  0  0  0
 28 27  2  0  0  0  0
 29 30  2  0  0  0  0
 30 31  1  0  0  0  0
 31 35  1  0  0  0  0
 32 31  2  0  0  0  0
 33 27  1  0  0  0  0
 34 29  1  0  0  0  0
 36  1  1  0  0  0  0
 36 39  1  0  0  0  0
 38 37  1  0  0  0  0
 38 47  1  0  0  0  0
 39 38  1  0  0  0  0
 40 39  2  0  0  0  0
 40 41  1  0  0  0  0
 41 42  2  0  0  0  0
 41 47  1  0  0  0  0
 42 43  1  0  0  0  0
 43 44  2  0  0  0  0
 44 45  1  0  0  0  0
 46 44  1  0  0  0  0
 47 46  2  0  0  0  0
 48 42  1  0  0  0  0
 48 49  1  0  0  0  0
 50 48  1  0  0  0  0
M  END
>  <minimizedAffinity>
-5.59172106

>  <minimizedRMSD>
2.24948168

$$$$
