
 OpenBabel03272508283D

 43 47  0  0  1  0  0  0  0  0999 V2000
   33.9640   29.0420   47.3380 C   0  0  2  0  0  0  0  0  0  0  0  0
   34.7360   28.2510   48.3810 C   0  0  2  0  0  0  0  0  0  0  0  0
   33.8590   28.0330   49.4060 O   0  0  0  0  0  0  0  0  0  0  0  0
   32.5730   28.0880   48.9540 C   0  0  0  0  0  0  0  0  0  0  0  0
   32.6040   28.3510   47.4650 C   0  0  1  0  0  0  0  0  0  0  0  0
   33.8140   30.0900   47.6320 H   0  0  0  0  0  0  0  0  0  0  0  0
   35.0380   27.3110   47.8660 H   0  0  0  0  0  0  0  0  0  0  0  0
   32.0740   27.0830   49.0790 H   0  0  0  0  0  0  0  0  0  0  0  0
   31.9960   28.8280   49.5190 H   0  0  0  0  0  0  0  0  0  0  0  0
   32.7110   27.3840   46.9260 H   0  0  0  0  0  0  0  0  0  0  0  0
   35.7950   30.5200   49.0370 C   0  0  1  0  0  0  0  0  0  0  0  0
   35.8900   29.0970   48.8160 C   0  0  1  0  0  0  0  0  0  0  0  0
   36.0270   29.5750   50.2260 C   0  0  0  0  0  0  0  0  0  0  0  0
   34.8820   31.1230   49.2050 H   0  0  0  0  0  0  0  0  0  0  0  0
   36.8640   28.7350   48.3740 H   0  0  0  0  0  0  0  0  0  0  0  0
   35.1530   29.3090   50.8560 H   0  0  0  0  0  0  0  0  0  0  0  0
   37.0070   29.5880   50.7240 H   0  0  0  0  0  0  0  0  0  0  0  0
   36.9880   31.4340   48.8030 C   0  0  0  0  0  0  0  0  0  0  0  0
   37.1690   32.4880   49.6990 C   0  0  0  0  0  0  0  0  0  0  0  0
   38.2590   33.3040   49.4180 C   0  0  0  0  0  0  0  0  0  0  0  0
   39.0710   33.0640   48.3390 N   0  0  0  0  0  0  0  0  0  0  0  0
   38.8490   32.0250   47.5000 C   0  0  0  0  0  0  0  0  0  0  0  0
   37.7970   31.2040   47.7360 N   0  0  0  0  0  0  0  0  0  0  0  0
   36.5220   32.6470   50.5260 H   0  0  0  0  0  0  0  0  0  0  0  0
   38.4880   34.1490   50.0500 H   0  0  0  0  0  0  0  0  0  0  0  0
   39.5180   31.8820   46.6650 H   0  0  0  0  0  0  0  0  0  0  0  0
   34.4780   28.9240   46.0610 O   0  0  0  0  0  0  0  0  0  0  0  0
   33.8290   29.2950   45.4420 H   0  0  0  0  0  0  0  0  0  0  0  0
   31.5840   29.1270   46.9890 O   0  0  0  0  0  0  0  0  0  0  0  0
   31.6050   30.0680   44.3000 H   0  0  0  0  0  0  0  0  0  0  0  0
   30.9840   29.2890   44.5920 N   0  0  0  0  0  0  0  0  0  0  0  0
   30.9020   28.7740   45.8310 C   0  0  0  0  0  0  0  0  0  0  0  0
   29.9790   27.7950   45.7340 N   0  0  0  0  0  0  0  0  0  0  0  0
   29.5030   27.7000   44.4780 C   0  0  0  0  0  0  0  0  0  0  0  0
   28.5710   26.8880   43.8660 C   0  0  0  0  0  0  0  0  0  0  0  0
   28.2700   27.0050   42.5520 N   0  0  0  0  0  0  0  0  0  0  0  0
   28.9220   27.9620   41.8460 C   0  0  0  0  0  0  0  0  0  0  0  0
   28.8230   28.2130   40.7960 H   0  0  0  0  0  0  0  0  0  0  0  0
   29.8360   28.7650   42.4320 N   0  0  0  0  0  0  0  0  0  0  0  0
   30.1570   28.6720   43.7360 C   0  0  0  0  0  0  0  0  0  0  0  0
   27.9050   25.8940   44.6370 N   0  0  0  0  0  0  0  0  0  0  0  0
   27.9730   24.8440   44.5030 H   0  0  0  0  0  0  0  0  0  0  0  0
   27.3130   26.2820   45.3830 H   0  0  0  0  0  0  0  0  0  0  0  0
  1  5  1  0  0  0  0
  1  6  1  1  0  0  0
  1  2  1  0  0  0  0
  2  7  1  6  0  0  0
  2 12  1  0  0  0  0
  2  3  1  0  0  0  0
  4  8  1  0  0  0  0
  4  3  1  0  0  0  0
  4  9  1  0  0  0  0
  5 10  1  6  0  0  0
  5  4  1  0  0  0  0
 11 14  1  6  0  0  0
 11 13  1  0  0  0  0
 12 15  1  6  0  0  0
 12 11  1  0  0  0  0
 12 13  1  0  0  0  0
 13 17  1  0  0  0  0
 13 16  1  0  0  0  0
 18 11  1  0  0  0  0
 18 19  1  0  0  0  0
 19 24  1  0  0  0  0
 20 19  2  0  0  0  0
 20 25  1  0  0  0  0
 21 20  1  0  0  0  0
 22 23  1  0  0  0  0
 22 21  2  0  0  0  0
 23 18  2  0  0  0  0
 26 22  1  0  0  0  0
 27  1  1  0  0  0  0
 28 27  1  0  0  0  0
 29  5  1  0  0  0  0
 30 31  1  0  0  0  0
 31 32  1  0  0  0  0
 32 29  1  0  0  0  0
 33 32  2  0  0  0  0
 34 33  1  0  0  0  0
 35 34  1  0  0  0  0
 35 41  1  0  0  0  0
 36 35  2  0  0  0  0
 37 39  2  0  0  0  0
 37 36  1  0  0  0  0
 38 37  1  0  0  0  0
 39 40  1  0  0  0  0
 40 34  2  0  0  0  0
 40 31  1  0  0  0  0
 41 43  1  0  0  0  0
 42 41  1  0  0  0  0
M  END
>  <minimizedAffinity>
-4.98645926

>  <minimizedRMSD>
0.455572516

$$$$
