
 OpenBabel03262520493D

 53 58  0  0  1  0  0  0  0  0999 V2000
   39.4950   28.7730   43.2710 C   0  0  0  0  0  0  0  0  0  0  0  0
   40.3600   29.7880   42.9010 C   0  0  0  0  0  0  0  0  0  0  0  0
   41.0890   29.6880   41.7100 C   0  0  0  0  0  0  0  0  0  0  0  0
   40.9520   28.5800   40.8990 C   0  0  0  0  0  0  0  0  0  0  0  0
   41.5350   28.2620   39.7270 N   0  0  0  0  0  0  0  0  0  0  0  0
   41.0430   27.0680   39.3700 C   0  0  0  0  0  0  0  0  0  0  0  0
   40.1430   26.5830   40.2810 C   0  0  0  0  0  0  0  0  0  0  0  0
   40.0930   27.5640   41.2600 C   0  0  0  0  0  0  0  0  0  0  0  0
   39.3790   27.6730   42.4360 C   0  0  0  0  0  0  0  0  0  0  0  0
   38.8840   28.7460   44.1610 H   0  0  0  0  0  0  0  0  0  0  0  0
   41.7560   30.5090   41.4600 H   0  0  0  0  0  0  0  0  0  0  0  0
   42.2320   28.8650   39.2300 H   0  0  0  0  0  0  0  0  0  0  0  0
   41.3570   26.5870   38.4540 H   0  0  0  0  0  0  0  0  0  0  0  0
   39.5960   25.6530   40.2500 H   0  0  0  0  0  0  0  0  0  0  0  0
   38.5040   26.5960   42.7640 N   0  0  0  0  0  0  0  0  0  0  0  0
   39.0190   25.5320   43.4360 C   0  0  0  0  0  0  0  0  0  0  0  0
   40.0320   25.3320   43.7930 H   0  0  0  0  0  0  0  0  0  0  0  0
   38.0010   24.6520   43.6270 N   0  0  0  0  0  0  0  0  0  0  0  0
   36.8800   25.1670   43.0810 C   0  0  0  0  0  0  0  0  0  0  0  0
   35.5530   24.7940   42.9370 C   0  0  0  0  0  0  0  0  0  0  0  0
   34.6880   25.5950   42.3110 N   0  0  0  0  0  0  0  0  0  0  0  0
   35.0370   26.7820   41.7930 C   0  0  0  0  0  0  0  0  0  0  0  0
   34.2550   27.3410   41.3110 H   0  0  0  0  0  0  0  0  0  0  0  0
   36.3250   27.1910   41.9110 N   0  0  0  0  0  0  0  0  0  0  0  0
   37.2010   26.4020   42.5330 C   0  0  0  0  0  0  0  0  0  0  0  0
   35.1680   23.5340   43.4820 N   0  0  0  0  0  0  0  0  0  0  0  0
   34.5000   22.9300   42.9250 H   0  0  0  0  0  0  0  0  0  0  0  0
   35.4550   23.1010   44.3810 H   0  0  0  0  0  0  0  0  0  0  0  0
   40.4890   30.9810   43.7970 C   0  0  0  0  0  0  0  0  0  0  0  0
   40.0840   31.8400   43.2010 H   0  0  0  0  0  0  0  0  0  0  0  0
   41.5500   31.1620   44.0700 H   0  0  0  0  0  0  0  0  0  0  0  0
   39.6180   30.7360   45.0080 C   0  0  0  0  0  0  0  0  0  0  0  0
   39.7920   29.6740   45.3230 H   0  0  0  0  0  0  0  0  0  0  0  0
   38.5670   30.9100   44.6660 H   0  0  0  0  0  0  0  0  0  0  0  0
   38.8440   32.3870   46.7540 C   0  0  1  0  0  0  0  0  0  0  0  0
   40.0300   33.0610   46.1040 C   0  0  0  0  0  0  0  0  0  0  0  0
   39.9430   31.5900   46.1790 C   0  0  2  0  0  0  0  0  0  0  0  0
   37.8590   32.4140   46.2250 H   0  0  0  0  0  0  0  0  0  0  0  0
   39.9030   33.4870   45.0810 H   0  0  0  0  0  0  0  0  0  0  0  0
   40.7650   33.6110   46.6970 H   0  0  0  0  0  0  0  0  0  0  0  0
   40.6290   31.1480   46.9620 H   0  0  0  0  0  0  0  0  0  0  0  0
   38.7170   32.6090   48.2260 C   0  0  0  0  0  0  0  0  0  0  0  0
   38.2340   33.6090   48.3740 H   0  0  0  0  0  0  0  0  0  0  0  0
   39.7130   32.6580   48.7110 H   0  0  0  0  0  0  0  0  0  0  0  0
   37.5280   30.1630   50.8070 C   0  0  0  0  0  0  0  0  0  0  0  0
   38.2590   31.1970   50.1560 C   0  0  0  0  0  0  0  0  0  0  0  0
   37.9330   31.5280   48.8720 C   0  0  0  0  0  0  0  0  0  0  0  0
   36.9340   30.8580   48.2860 N   0  0  0  0  0  0  0  0  0  0  0  0
   36.2450   29.8880   48.8920 C   0  0  0  0  0  0  0  0  0  0  0  0
   36.5560   29.5540   50.1520 N   0  0  0  0  0  0  0  0  0  0  0  0
   37.8370   29.9440   51.8380 H   0  0  0  0  0  0  0  0  0  0  0  0
   39.0610   31.7120   50.6720 H   0  0  0  0  0  0  0  0  0  0  0  0
   35.4390   29.3480   48.4180 H   0  0  0  0  0  0  0  0  0  0  0  0
  1 10  1  0  0  0  0
  2  1  1  0  0  0  0
  2 29  1  0  0  0  0
  3  2  2  0  0  0  0
  4  8  2  0  0  0  0
  4  3  1  0  0  0  0
  5  4  1  0  0  0  0
  6  5  1  0  0  0  0
  6  7  2  0  0  0  0
  7  8  1  0  0  0  0
  8  9  1  0  0  0  0
  9 15  1  0  0  0  0
  9  1  2  0  0  0  0
 11  3  1  0  0  0  0
 12  5  1  0  0  0  0
 13  6  1  0  0  0  0
 14  7  1  0  0  0  0
 15 16  1  0  0  0  0
 16 18  2  0  0  0  0
 16 17  1  0  0  0  0
 19 18  1  0  0  0  0
 20 19  1  0  0  0  0
 20 26  1  0  0  0  0
 21 20  2  0  0  0  0
 22 24  2  0  0  0  0
 22 21  1  0  0  0  0
 23 22  1  0  0  0  0
 24 25  1  0  0  0  0
 25 15  1  0  0  0  0
 25 19  2  0  0  0  0
 26 28  1  0  0  0  0
 27 26  1  0  0  0  0
 29 31  1  0  0  0  0
 29 32  1  0  0  0  0
 30 29  1  0  0  0  0
 32 33  1  0  0  0  0
 32 37  1  0  0  0  0
 34 32  1  0  0  0  0
 35 38  1  6  0  0  0
 35 42  1  0  0  0  0
 36 37  1  0  0  0  0
 36 40  1  0  0  0  0
 36 35  1  0  0  0  0
 37 35  1  0  0  0  0
 37 41  1  1  0  0  0
 39 36  1  0  0  0  0
 42 43  1  0  0  0  0
 42 44  1  0  0  0  0
 42 47  1  0  0  0  0
 45 51  1  0  0  0  0
 46 52  1  0  0  0  0
 46 45  1  0  0  0  0
 47 46  2  0  0  0  0
 48 47  1  0  0  0  0
 48 49  2  0  0  0  0
 49 50  1  0  0  0  0
 50 45  2  0  0  0  0
 53 49  1  0  0  0  0
M  END
>  <minimizedAffinity>
-6.06732559

>  <minimizedRMSD>
1.12101865

$$$$
