
 OpenBabel03262521523D

 28 30  0  0  0  0  0  0  0  0999 V2000
   34.6790   28.2980   48.9780 S   0  0  0  0  0  0  0  0  0  0  0  0
   31.9400   28.9730   50.3310 H   0  0  0  0  0  0  0  0  0  0  0  0
   31.8070   28.3490   49.5130 N   0  0  0  0  0  0  0  0  0  0  0  0
   32.9280   27.9980   48.8570 C   0  0  0  0  0  0  0  0  0  0  0  0
   32.5660   27.1910   47.8270 N   0  0  0  0  0  0  0  0  0  0  0  0
   31.2330   27.0160   47.8070 C   0  0  0  0  0  0  0  0  0  0  0  0
   30.3130   26.3370   47.0410 C   0  0  0  0  0  0  0  0  0  0  0  0
   28.9970   26.4220   47.3680 N   0  0  0  0  0  0  0  0  0  0  0  0
   28.5960   27.1630   48.4340 C   0  0  0  0  0  0  0  0  0  0  0  0
   27.5160   27.1790   48.6300 H   0  0  0  0  0  0  0  0  0  0  0  0
   29.4970   27.8420   49.2030 N   0  0  0  0  0  0  0  0  0  0  0  0
   30.8010   27.7610   48.8810 C   0  0  0  0  0  0  0  0  0  0  0  0
   30.7930   25.5770   45.9360 N   0  0  0  0  0  0  0  0  0  0  0  0
   30.6350   24.5660   46.1330 H   0  0  0  0  0  0  0  0  0  0  0  0
   31.2370   25.9150   45.0550 H   0  0  0  0  0  0  0  0  0  0  0  0
   35.0730   29.3190   50.4400 C   0  0  0  0  0  0  0  0  0  0  0  0
   34.5780   30.3110   50.3010 H   0  0  0  0  0  0  0  0  0  0  0  0
   34.5790   28.8690   51.3320 H   0  0  0  0  0  0  0  0  0  0  0  0
   36.8450   29.4950   50.7050 S   0  0  0  0  0  0  0  0  0  0  0  0
   37.4900   30.6230   49.4950 C   0  0  0  0  0  0  0  0  0  0  0  0
   37.6140   31.9400   49.9170 C   0  0  0  0  0  0  0  0  0  0  0  0
   38.1180   32.8780   49.0030 C   0  0  0  0  0  0  0  0  0  0  0  0
   38.4640   32.4680   47.7470 N   0  0  0  0  0  0  0  0  0  0  0  0
   38.3140   31.1640   47.4020 C   0  0  0  0  0  0  0  0  0  0  0  0
   37.8430   30.2740   48.2500 N   0  0  0  0  0  0  0  0  0  0  0  0
   37.3490   32.2890   50.9050 H   0  0  0  0  0  0  0  0  0  0  0  0
   38.2340   33.9180   49.2870 H   0  0  0  0  0  0  0  0  0  0  0  0
   38.5930   30.8530   46.3980 H   0  0  0  0  0  0  0  0  0  0  0  0
  1 16  1  0  0  0  0
  3  2  1  0  0  0  0
  4  1  1  0  0  0  0
  4  3  1  0  0  0  0
  5  4  2  0  0  0  0
  6  5  1  0  0  0  0
  6 12  1  0  0  0  0
  7  8  1  0  0  0  0
  7  6  2  0  0  0  0
  8  9  2  0  0  0  0
  9 10  1  0  0  0  0
  9 11  1  0  0  0  0
 12 11  2  0  0  0  0
 12  3  1  0  0  0  0
 13 14  1  0  0  0  0
 13  7  1  0  0  0  0
 15 13  1  0  0  0  0
 16 19  1  0  0  0  0
 16 18  1  0  0  0  0
 17 16  1  0  0  0  0
 20 21  1  0  0  0  0
 20 19  1  0  0  0  0
 21 26  1  0  0  0  0
 22 27  1  0  0  0  0
 22 21  2  0  0  0  0
 23 22  1  0  0  0  0
 24 23  2  0  0  0  0
 24 25  1  0  0  0  0
 25 20  2  0  0  0  0
 28 24  1  0  0  0  0
M  END
>  <minimizedAffinity>
-4.86749125

>  <minimizedRMSD>
1.26931179

$$$$
