
 OpenBabel03262522203D

 24 26  0  0  0  0  0  0  0  0999 V2000
   37.3180   25.9770   35.0780 H   0  0  0  0  0  0  0  0  0  0  0  0
   37.9520   25.1300   35.1740 N   0  0  0  0  0  0  0  0  0  0  0  0
   38.6120   24.4010   34.2490 C   0  0  0  0  0  0  0  0  0  0  0  0
   39.2930   23.4130   34.8660 N   0  0  0  0  0  0  0  0  0  0  0  0
   39.0610   23.5150   36.2040 C   0  0  0  0  0  0  0  0  0  0  0  0
   39.4910   22.7870   37.2860 C   0  0  0  0  0  0  0  0  0  0  0  0
   39.0690   23.1560   38.5100 N   0  0  0  0  0  0  0  0  0  0  0  0
   38.2470   24.2100   38.6780 C   0  0  0  0  0  0  0  0  0  0  0  0
   37.9390   24.4640   39.6790 H   0  0  0  0  0  0  0  0  0  0  0  0
   37.8340   24.9130   37.6230 N   0  0  0  0  0  0  0  0  0  0  0  0
   38.2240   24.5890   36.3830 C   0  0  0  0  0  0  0  0  0  0  0  0
   40.3520   21.6780   37.1380 N   0  0  0  0  0  0  0  0  0  0  0  0
   40.3590   20.6650   36.9820 H   0  0  0  0  0  0  0  0  0  0  0  0
   41.2620   22.1890   37.2410 H   0  0  0  0  0  0  0  0  0  0  0  0
   38.4910   24.7600   32.9350 O   0  0  0  0  0  0  0  0  0  0  0  0
   36.5800   23.9010   31.9060 C   0  0  0  0  0  0  0  0  0  0  0  0
   37.3310   25.0430   32.2510 C   0  0  0  0  0  0  0  0  0  0  0  0
   36.8250   26.2920   31.8710 C   0  0  0  0  0  0  0  0  0  0  0  0
   35.6590   26.3340   31.2010 N   0  0  0  0  0  0  0  0  0  0  0  0
   34.9620   25.2200   30.8850 C   0  0  0  0  0  0  0  0  0  0  0  0
   35.4170   23.9860   31.2350 N   0  0  0  0  0  0  0  0  0  0  0  0
   36.8550   22.8790   32.1370 H   0  0  0  0  0  0  0  0  0  0  0  0
   37.4360   27.1040   32.1600 H   0  0  0  0  0  0  0  0  0  0  0  0
   34.0570   25.4920   30.3470 H   0  0  0  0  0  0  0  0  0  0  0  0
  1  2  1  0  0  0  0
  2 11  1  0  0  0  0
  3  4  2  0  0  0  0
  3  2  1  0  0  0  0
  4  5  1  0  0  0  0
  5 11  2  0  0  0  0
  5  6  1  0  0  0  0
  6  7  2  0  0  0  0
  7  8  1  0  0  0  0
  8  9  1  0  0  0  0
 10  8  2  0  0  0  0
 11 10  1  0  0  0  0
 12 14  1  0  0  0  0
 12  6  1  0  0  0  0
 13 12  1  0  0  0  0
 15  3  1  0  0  0  0
 16 22  1  0  0  0  0
 16 17  1  0  0  0  0
 17 15  1  0  0  0  0
 18 23  1  0  0  0  0
 18 17  2  0  0  0  0
 19 18  1  0  0  0  0
 20 19  2  0  0  0  0
 20 21  1  0  0  0  0
 21 16  2  0  0  0  0
 24 20  1  0  0  0  0
M  END
>  <minimizedAffinity>
-4.8716526

$$$$

 OpenBabel03262522203D

 24 26  0  0  0  0  0  0  0  0999 V2000
   40.1270   25.4340   34.0480 H   0  0  0  0  0  0  0  0  0  0  0  0
   39.5760   25.0920   34.8890 N   0  0  0  0  0  0  0  0  0  0  0  0
   38.3650   25.4530   35.3680 C   0  0  0  0  0  0  0  0  0  0  0  0
   38.0900   24.7250   36.4710 N   0  0  0  0  0  0  0  0  0  0  0  0
   39.1420   23.8900   36.6960 C   0  0  0  0  0  0  0  0  0  0  0  0
   39.3980   22.9460   37.6610 C   0  0  0  0  0  0  0  0  0  0  0  0
   40.5620   22.2740   37.6010 N   0  0  0  0  0  0  0  0  0  0  0  0
   41.4590   22.5140   36.6250 C   0  0  0  0  0  0  0  0  0  0  0  0
   42.3760   21.9480   36.6220 H   0  0  0  0  0  0  0  0  0  0  0  0
   41.2040   23.4310   35.6920 N   0  0  0  0  0  0  0  0  0  0  0  0
   40.0610   24.1280   35.7040 C   0  0  0  0  0  0  0  0  0  0  0  0
   38.4760   22.6760   38.6950 N   0  0  0  0  0  0  0  0  0  0  0  0
   38.2010   22.9620   39.6410 H   0  0  0  0  0  0  0  0  0  0  0  0
   37.9470   21.9060   38.2170 H   0  0  0  0  0  0  0  0  0  0  0  0
   37.6690   26.4240   34.7030 O   0  0  0  0  0  0  0  0  0  0  0  0
   36.5970   27.5550   32.9640 C   0  0  0  0  0  0  0  0  0  0  0  0
   37.0900   26.3300   33.4580 C   0  0  0  0  0  0  0  0  0  0  0  0
   36.9410   25.1970   32.6490 C   0  0  0  0  0  0  0  0  0  0  0  0
   36.3380   25.3370   31.4540 N   0  0  0  0  0  0  0  0  0  0  0  0
   35.8750   26.5260   31.0100 C   0  0  0  0  0  0  0  0  0  0  0  0
   36.0000   27.6530   31.7630 N   0  0  0  0  0  0  0  0  0  0  0  0
   36.6470   28.5030   33.4850 H   0  0  0  0  0  0  0  0  0  0  0  0
   37.3320   24.3130   33.0780 H   0  0  0  0  0  0  0  0  0  0  0  0
   35.4280   26.4030   30.0260 H   0  0  0  0  0  0  0  0  0  0  0  0
  1  2  1  0  0  0  0
  2  3  1  0  0  0  0
  2 11  1  0  0  0  0
  3  4  2  0  0  0  0
  4  5  1  0  0  0  0
  5  6  1  0  0  0  0
  6 12  1  0  0  0  0
  7  6  2  0  0  0  0
  8  7  1  0  0  0  0
  9  8  1  0  0  0  0
 10 11  1  0  0  0  0
 10  8  2  0  0  0  0
 11  5  2  0  0  0  0
 12 13  1  0  0  0  0
 14 12  1  0  0  0  0
 15  3  1  0  0  0  0
 16 17  1  0  0  0  0
 16 22  1  0  0  0  0
 17 15  1  0  0  0  0
 18 23  1  0  0  0  0
 18 17  2  0  0  0  0
 19 18  1  0  0  0  0
 20 19  2  0  0  0  0
 20 21  1  0  0  0  0
 21 16  2  0  0  0  0
 24 20  1  0  0  0  0
M  END
>  <minimizedAffinity>
-4.71772814

$$$$

 OpenBabel03262522203D

 24 26  0  0  0  0  0  0  0  0999 V2000
   37.1080   24.2490   34.4050 H   0  0  0  0  0  0  0  0  0  0  0  0
   37.8840   23.6440   34.8050 N   0  0  0  0  0  0  0  0  0  0  0  0
   38.7360   22.7790   34.2120 C   0  0  0  0  0  0  0  0  0  0  0  0
   39.5490   22.2460   35.1480 N   0  0  0  0  0  0  0  0  0  0  0  0
   39.2070   22.7780   36.3540 C   0  0  0  0  0  0  0  0  0  0  0  0
   39.6900   22.5990   37.6270 C   0  0  0  0  0  0  0  0  0  0  0  0
   39.1200   23.2930   38.6290 N   0  0  0  0  0  0  0  0  0  0  0  0
   38.1010   24.1440   38.3980 C   0  0  0  0  0  0  0  0  0  0  0  0
   37.6790   24.6760   39.2350 H   0  0  0  0  0  0  0  0  0  0  0  0
   37.6370   24.3130   37.1600 N   0  0  0  0  0  0  0  0  0  0  0  0
   38.1690   23.6480   36.1270 C   0  0  0  0  0  0  0  0  0  0  0  0
   40.7560   21.7130   37.8960 N   0  0  0  0  0  0  0  0  0  0  0  0
   40.9690   20.7370   38.1270 H   0  0  0  0  0  0  0  0  0  0  0  0
   41.5420   22.4010   37.7970 H   0  0  0  0  0  0  0  0  0  0  0  0
   38.6420   22.6020   32.8590 O   0  0  0  0  0  0  0  0  0  0  0  0
   38.0090   20.4720   32.1420 C   0  0  0  0  0  0  0  0  0  0  0  0
   37.7110   21.8500   32.1800 C   0  0  0  0  0  0  0  0  0  0  0  0
   36.5410   22.2790   31.5420 C   0  0  0  0  0  0  0  0  0  0  0  0
   35.7700   21.3600   30.9320 N   0  0  0  0  0  0  0  0  0  0  0  0
   36.0830   20.0460   30.9140 C   0  0  0  0  0  0  0  0  0  0  0  0
   37.2110   19.5860   31.5210 N   0  0  0  0  0  0  0  0  0  0  0  0
   38.8780   20.0090   32.5930 H   0  0  0  0  0  0  0  0  0  0  0  0
   36.3790   23.3210   31.6080 H   0  0  0  0  0  0  0  0  0  0  0  0
   35.3220   19.4930   30.3680 H   0  0  0  0  0  0  0  0  0  0  0  0
  1  2  1  0  0  0  0
  2 11  1  0  0  0  0
  3  2  1  0  0  0  0
  3  4  2  0  0  0  0
  4  5  1  0  0  0  0
  5  6  1  0  0  0  0
  6 12  1  0  0  0  0
  6  7  2  0  0  0  0
  8  7  1  0  0  0  0
  8  9  1  0  0  0  0
 10  8  2  0  0  0  0
 11  5  2  0  0  0  0
 11 10  1  0  0  0  0
 12 13  1  0  0  0  0
 14 12  1  0  0  0  0
 15  3  1  0  0  0  0
 16 17  1  0  0  0  0
 16 22  1  0  0  0  0
 17 15  1  0  0  0  0
 18 23  1  0  0  0  0
 18 17  2  0  0  0  0
 19 18  1  0  0  0  0
 20 19  2  0  0  0  0
 20 21  1  0  0  0  0
 21 16  2  0  0  0  0
 24 20  1  0  0  0  0
M  END
>  <minimizedAffinity>
-4.69705153

$$$$

 OpenBabel03262522203D

 24 26  0  0  0  0  0  0  0  0999 V2000
   39.7300   22.2130   33.1110 H   0  0  0  0  0  0  0  0  0  0  0  0
   39.2690   22.3110   34.0630 N   0  0  0  0  0  0  0  0  0  0  0  0
   37.9680   22.3670   34.4210 C   0  0  0  0  0  0  0  0  0  0  0  0
   37.8820   22.4950   35.7620 N   0  0  0  0  0  0  0  0  0  0  0  0
   39.1490   22.5220   36.2630 C   0  0  0  0  0  0  0  0  0  0  0  0
   39.6490   22.6350   37.5370 C   0  0  0  0  0  0  0  0  0  0  0  0
   40.9850   22.6280   37.7000 N   0  0  0  0  0  0  0  0  0  0  0  0
   41.8170   22.5150   36.6460 C   0  0  0  0  0  0  0  0  0  0  0  0
   42.8780   22.5150   36.8300 H   0  0  0  0  0  0  0  0  0  0  0  0
   41.3240   22.4060   35.4120 N   0  0  0  0  0  0  0  0  0  0  0  0
   40.0030   22.4060   35.1940 C   0  0  0  0  0  0  0  0  0  0  0  0
   38.7990   22.7550   38.6580 N   0  0  0  0  0  0  0  0  0  0  0  0
   38.3060   23.4400   39.2400 H   0  0  0  0  0  0  0  0  0  0  0  0
   38.7150   21.7330   38.8830 H   0  0  0  0  0  0  0  0  0  0  0  0
   37.0210   22.2880   33.4380 O   0  0  0  0  0  0  0  0  0  0  0  0
   36.8310   20.8870   31.5800 C   0  0  0  0  0  0  0  0  0  0  0  0
   36.4560   21.1480   32.9140 C   0  0  0  0  0  0  0  0  0  0  0  0
   35.5820   20.2450   33.5310 C   0  0  0  0  0  0  0  0  0  0  0  0
   35.1490   19.1860   32.8230 N   0  0  0  0  0  0  0  0  0  0  0  0
   35.5270   18.9640   31.5450 C   0  0  0  0  0  0  0  0  0  0  0  0
   36.3750   19.8150   30.9060 N   0  0  0  0  0  0  0  0  0  0  0  0
   37.4970   21.5010   30.9870 H   0  0  0  0  0  0  0  0  0  0  0  0
   35.3420   20.5000   34.5290 H   0  0  0  0  0  0  0  0  0  0  0  0
   35.0570   18.0550   31.1750 H   0  0  0  0  0  0  0  0  0  0  0  0
  1  2  1  0  0  0  0
  2  3  1  0  0  0  0
  2 11  1  0  0  0  0
  3  4  2  0  0  0  0
  4  5  1  0  0  0  0
  5  6  1  0  0  0  0
  6  7  2  0  0  0  0
  6 12  1  0  0  0  0
  8  9  1  0  0  0  0
  8  7  1  0  0  0  0
 10  8  2  0  0  0  0
 11 10  1  0  0  0  0
 11  5  2  0  0  0  0
 12 14  1  0  0  0  0
 12 13  1  0  0  0  0
 15  3  1  0  0  0  0
 16 17  1  0  0  0  0
 17 15  1  0  0  0  0
 17 18  2  0  0  0  0
 18 23  1  0  0  0  0
 19 18  1  0  0  0  0
 20 19  2  0  0  0  0
 21 20  1  0  0  0  0
 21 16  2  0  0  0  0
 22 16  1  0  0  0  0
 24 20  1  0  0  0  0
M  END
>  <minimizedAffinity>
-4.4792614

$$$$

 OpenBabel03262522203D

 24 26  0  0  0  0  0  0  0  0999 V2000
   37.3510   23.0270   33.3960 H   0  0  0  0  0  0  0  0  0  0  0  0
   37.5420   24.0620   33.2580 N   0  0  0  0  0  0  0  0  0  0  0  0
   38.4550   24.8820   33.8220 C   0  0  0  0  0  0  0  0  0  0  0  0
   38.3040   26.1260   33.3200 N   0  0  0  0  0  0  0  0  0  0  0  0
   37.2770   26.0960   32.4260 C   0  0  0  0  0  0  0  0  0  0  0  0
   36.6990   27.0560   31.6330 C   0  0  0  0  0  0  0  0  0  0  0  0
   35.6750   26.6950   30.8380 N   0  0  0  0  0  0  0  0  0  0  0  0
   35.2230   25.4260   30.8150 C   0  0  0  0  0  0  0  0  0  0  0  0
   34.4000   25.1880   30.1610 H   0  0  0  0  0  0  0  0  0  0  0  0
   35.7890   24.4980   31.5870 N   0  0  0  0  0  0  0  0  0  0  0  0
   36.8120   24.8050   32.3960 C   0  0  0  0  0  0  0  0  0  0  0  0
   37.1530   28.3930   31.6380 N   0  0  0  0  0  0  0  0  0  0  0  0
   37.0260   29.2980   32.1050 H   0  0  0  0  0  0  0  0  0  0  0  0
   37.8540   28.3090   30.8620 H   0  0  0  0  0  0  0  0  0  0  0  0
   39.3220   24.3550   34.7390 O   0  0  0  0  0  0  0  0  0  0  0  0
   39.9420   23.1430   36.6370 C   0  0  0  0  0  0  0  0  0  0  0  0
   39.0730   24.0980   36.0680 C   0  0  0  0  0  0  0  0  0  0  0  0
   38.0910   24.6560   36.8960 C   0  0  0  0  0  0  0  0  0  0  0  0
   38.0290   24.2540   38.1780 N   0  0  0  0  0  0  0  0  0  0  0  0
   38.8770   23.3370   38.6930 C   0  0  0  0  0  0  0  0  0  0  0  0
   39.8460   22.7690   37.9250 N   0  0  0  0  0  0  0  0  0  0  0  0
   40.7410   22.6360   36.1120 H   0  0  0  0  0  0  0  0  0  0  0  0
   37.4750   25.3630   36.4070 H   0  0  0  0  0  0  0  0  0  0  0  0
   38.6430   23.1660   39.7420 H   0  0  0  0  0  0  0  0  0  0  0  0
  2  1  1  0  0  0  0
  2  3  1  0  0  0  0
  3 15  1  0  0  0  0
  4  3  2  0  0  0  0
  5  4  1  0  0  0  0
  6 12  1  0  0  0  0
  6  5  2  0  0  0  0
  7  6  1  0  0  0  0
  8  7  2  0  0  0  0
  8 10  1  0  0  0  0
  9  8  1  0  0  0  0
 10 11  2  0  0  0  0
 11  5  1  0  0  0  0
 11  2  1  0  0  0  0
 12 13  1  0  0  0  0
 14 12  1  0  0  0  0
 15 17  1  0  0  0  0
 16 21  1  0  0  0  0
 17 16  2  0  0  0  0
 17 18  1  0  0  0  0
 18 19  2  0  0  0  0
 19 20  1  0  0  0  0
 20 24  1  0  0  0  0
 21 20  2  0  0  0  0
 22 16  1  0  0  0  0
 23 18  1  0  0  0  0
M  END
>  <minimizedAffinity>
-4.42864847

$$$$

 OpenBabel03262522203D

 24 26  0  0  0  0  0  0  0  0999 V2000
   40.0980   22.4360   32.9540 H   0  0  0  0  0  0  0  0  0  0  0  0
   39.5650   22.6310   33.8520 N   0  0  0  0  0  0  0  0  0  0  0  0
   38.3070   23.0750   34.0630 C   0  0  0  0  0  0  0  0  0  0  0  0
   38.0860   23.1640   35.3920 N   0  0  0  0  0  0  0  0  0  0  0  0
   39.2200   22.7720   36.0340 C   0  0  0  0  0  0  0  0  0  0  0  0
   39.5550   22.6650   37.3620 C   0  0  0  0  0  0  0  0  0  0  0  0
   40.7900   22.2340   37.6750 N   0  0  0  0  0  0  0  0  0  0  0  0
   41.6820   21.9130   36.7170 C   0  0  0  0  0  0  0  0  0  0  0  0
   42.6590   21.5720   37.0210 H   0  0  0  0  0  0  0  0  0  0  0  0
   41.3510   22.0180   35.4300 N   0  0  0  0  0  0  0  0  0  0  0  0
   40.1340   22.4410   35.0640 C   0  0  0  0  0  0  0  0  0  0  0  0
   38.6400   22.9960   38.3840 N   0  0  0  0  0  0  0  0  0  0  0  0
   38.3050   23.7750   38.9620 H   0  0  0  0  0  0  0  0  0  0  0  0
   38.2180   22.0430   38.5120 H   0  0  0  0  0  0  0  0  0  0  0  0
   37.5230   23.3410   32.9750 O   0  0  0  0  0  0  0  0  0  0  0  0
   36.0700   24.4920   31.5560 C   0  0  0  0  0  0  0  0  0  0  0  0
   37.0450   24.5670   32.5710 C   0  0  0  0  0  0  0  0  0  0  0  0
   37.4030   25.8380   33.0350 C   0  0  0  0  0  0  0  0  0  0  0  0
   36.8030   26.9120   32.4910 N   0  0  0  0  0  0  0  0  0  0  0  0
   35.8700   26.8070   31.5190 C   0  0  0  0  0  0  0  0  0  0  0  0
   35.4920   25.5910   31.0380 N   0  0  0  0  0  0  0  0  0  0  0  0
   35.7030   23.5770   31.1080 H   0  0  0  0  0  0  0  0  0  0  0  0
   38.1390   25.8220   33.7950 H   0  0  0  0  0  0  0  0  0  0  0  0
   35.5240   27.7980   31.2320 H   0  0  0  0  0  0  0  0  0  0  0  0
  1  2  1  0  0  0  0
  2  3  1  0  0  0  0
  2 11  1  0  0  0  0
  3  4  2  0  0  0  0
  4  5  1  0  0  0  0
  5  6  1  0  0  0  0
  6  7  2  0  0  0  0
  6 12  1  0  0  0  0
  8  9  1  0  0  0  0
  8  7  1  0  0  0  0
 10  8  2  0  0  0  0
 11 10  1  0  0  0  0
 11  5  2  0  0  0  0
 12 14  1  0  0  0  0
 12 13  1  0  0  0  0
 15  3  1  0  0  0  0
 16 17  1  0  0  0  0
 17 15  1  0  0  0  0
 17 18  2  0  0  0  0
 18 23  1  0  0  0  0
 19 18  1  0  0  0  0
 20 19  2  0  0  0  0
 21 20  1  0  0  0  0
 21 16  2  0  0  0  0
 22 16  1  0  0  0  0
 24 20  1  0  0  0  0
M  END
>  <minimizedAffinity>
-4.40227127

$$$$

 OpenBabel03262522203D

 24 26  0  0  0  0  0  0  0  0999 V2000
   33.4390   28.9370   33.3080 H   0  0  0  0  0  0  0  0  0  0  0  0
   33.9690   29.5670   33.9790 N   0  0  0  0  0  0  0  0  0  0  0  0
   35.2720   29.9200   34.0280 C   0  0  0  0  0  0  0  0  0  0  0  0
   35.4670   30.7490   35.0760 N   0  0  0  0  0  0  0  0  0  0  0  0
   34.2710   30.9220   35.7030 C   0  0  0  0  0  0  0  0  0  0  0  0
   33.8880   31.6480   36.8040 C   0  0  0  0  0  0  0  0  0  0  0  0
   32.5960   31.6080   37.1760 N   0  0  0  0  0  0  0  0  0  0  0  0
   31.6940   30.8780   36.4920 C   0  0  0  0  0  0  0  0  0  0  0  0
   30.6710   30.8800   36.8310 H   0  0  0  0  0  0  0  0  0  0  0  0
   32.0720   30.1760   35.4230 N   0  0  0  0  0  0  0  0  0  0  0  0
   33.3460   30.1810   35.0100 C   0  0  0  0  0  0  0  0  0  0  0  0
   34.8130   32.4210   37.5390 N   0  0  0  0  0  0  0  0  0  0  0  0
   35.4790   32.3770   38.3190 H   0  0  0  0  0  0  0  0  0  0  0  0
   34.6900   33.3240   37.0190 H   0  0  0  0  0  0  0  0  0  0  0  0
   36.1160   29.4190   33.0760 O   0  0  0  0  0  0  0  0  0  0  0  0
   36.9320   27.3150   33.6720 C   0  0  0  0  0  0  0  0  0  0  0  0
   36.2700   28.1020   32.7080 C   0  0  0  0  0  0  0  0  0  0  0  0
   35.8580   27.4720   31.5280 C   0  0  0  0  0  0  0  0  0  0  0  0
   36.1160   26.1600   31.3770 N   0  0  0  0  0  0  0  0  0  0  0  0
   36.7520   25.4330   32.3200 C   0  0  0  0  0  0  0  0  0  0  0  0
   37.1700   26.0040   33.4830 N   0  0  0  0  0  0  0  0  0  0  0  0
   37.3010   27.6740   34.6250 H   0  0  0  0  0  0  0  0  0  0  0  0
   35.3690   28.1190   30.8490 H   0  0  0  0  0  0  0  0  0  0  0  0
   36.8510   24.4020   31.9870 H   0  0  0  0  0  0  0  0  0  0  0  0
  1  2  1  0  0  0  0
  2  3  1  0  0  0  0
  2 11  1  0  0  0  0
  3  4  2  0  0  0  0
  4  5  1  0  0  0  0
  5  6  1  0  0  0  0
  6  7  2  0  0  0  0
  6 12  1  0  0  0  0
  8  9  1  0  0  0  0
  8  7  1  0  0  0  0
 10  8  2  0  0  0  0
 11 10  1  0  0  0  0
 11  5  2  0  0  0  0
 12 13  1  0  0  0  0
 14 12  1  0  0  0  0
 15  3  1  0  0  0  0
 16 22  1  0  0  0  0
 17 15  1  0  0  0  0
 17 16  2  0  0  0  0
 18 17  1  0  0  0  0
 19 18  2  0  0  0  0
 19 20  1  0  0  0  0
 20 21  2  0  0  0  0
 21 16  1  0  0  0  0
 23 18  1  0  0  0  0
 24 20  1  0  0  0  0
M  END
>  <minimizedAffinity>
-4.39879942

$$$$

 OpenBabel03262522203D

 24 26  0  0  0  0  0  0  0  0999 V2000
   39.8790   26.6520   34.4530 H   0  0  0  0  0  0  0  0  0  0  0  0
   38.9760   26.5310   33.9070 N   0  0  0  0  0  0  0  0  0  0  0  0
   37.7760   26.0300   34.2700 C   0  0  0  0  0  0  0  0  0  0  0  0
   36.9340   26.0890   33.2160 N   0  0  0  0  0  0  0  0  0  0  0  0
   37.6110   26.6350   32.1680 C   0  0  0  0  0  0  0  0  0  0  0  0
   37.2550   26.9250   30.8740 C   0  0  0  0  0  0  0  0  0  0  0  0
   38.1810   27.4760   30.0670 N   0  0  0  0  0  0  0  0  0  0  0  0
   39.4260   27.7380   30.5090 C   0  0  0  0  0  0  0  0  0  0  0  0
   40.1300   28.1800   29.8230 H   0  0  0  0  0  0  0  0  0  0  0  0
   39.7640   27.4540   31.7670 N   0  0  0  0  0  0  0  0  0  0  0  0
   38.8820   26.9060   32.6120 C   0  0  0  0  0  0  0  0  0  0  0  0
   35.9570   26.6590   30.3860 N   0  0  0  0  0  0  0  0  0  0  0  0
   35.3840   25.9350   29.9390 H   0  0  0  0  0  0  0  0  0  0  0  0
   35.5260   27.5890   30.6120 H   0  0  0  0  0  0  0  0  0  0  0  0
   37.6220   25.5800   35.5520 O   0  0  0  0  0  0  0  0  0  0  0  0
   38.0000   24.4140   37.5400 C   0  0  0  0  0  0  0  0  0  0  0  0
   38.3820   24.6340   36.2010 C   0  0  0  0  0  0  0  0  0  0  0  0
   39.4560   23.8870   35.7010 C   0  0  0  0  0  0  0  0  0  0  0  0
   40.0620   23.0080   36.5210 N   0  0  0  0  0  0  0  0  0  0  0  0
   39.6700   22.8200   37.8000 C   0  0  0  0  0  0  0  0  0  0  0  0
   38.6310   23.5240   38.3260 N   0  0  0  0  0  0  0  0  0  0  0  0
   37.1900   24.9220   38.0490 H   0  0  0  0  0  0  0  0  0  0  0  0
   39.6900   24.1010   34.6930 H   0  0  0  0  0  0  0  0  0  0  0  0
   40.2980   22.0660   38.2700 H   0  0  0  0  0  0  0  0  0  0  0  0
  2  3  1  0  0  0  0
  2  1  1  0  0  0  0
  3 15  1  0  0  0  0
  4  3  2  0  0  0  0
  5 11  1  0  0  0  0
  5  4  1  0  0  0  0
  6  5  2  0  0  0  0
  7  8  2  0  0  0  0
  7  6  1  0  0  0  0
  8 10  1  0  0  0  0
  9  8  1  0  0  0  0
 10 11  2  0  0  0  0
 11  2  1  0  0  0  0
 12 14  1  0  0  0  0
 12  6  1  0  0  0  0
 13 12  1  0  0  0  0
 15 17  1  0  0  0  0
 16 22  1  0  0  0  0
 16 21  1  0  0  0  0
 17 16  2  0  0  0  0
 18 17  1  0  0  0  0
 18 19  2  0  0  0  0
 19 20  1  0  0  0  0
 20 24  1  0  0  0  0
 20 21  2  0  0  0  0
 23 18  1  0  0  0  0
M  END
>  <minimizedAffinity>
-4.35614681

$$$$

 OpenBabel03262522203D

 24 26  0  0  0  0  0  0  0  0999 V2000
   36.7190   28.6000   35.4740 H   0  0  0  0  0  0  0  0  0  0  0  0
   36.4480   28.4990   34.4520 N   0  0  0  0  0  0  0  0  0  0  0  0
   35.8170   29.3440   33.6090 C   0  0  0  0  0  0  0  0  0  0  0  0
   35.7000   28.7590   32.3990 N   0  0  0  0  0  0  0  0  0  0  0  0
   36.2650   27.5210   32.4750 C   0  0  0  0  0  0  0  0  0  0  0  0
   36.4260   26.5090   31.5620 C   0  0  0  0  0  0  0  0  0  0  0  0
   37.0430   25.3820   31.9620 N   0  0  0  0  0  0  0  0  0  0  0  0
   37.4930   25.2420   33.2240 C   0  0  0  0  0  0  0  0  0  0  0  0
   37.9800   24.3190   33.4940 H   0  0  0  0  0  0  0  0  0  0  0  0
   37.3330   26.2290   34.1050 N   0  0  0  0  0  0  0  0  0  0  0  0
   36.7270   27.3720   33.7590 C   0  0  0  0  0  0  0  0  0  0  0  0
   35.9630   26.6300   30.2330 N   0  0  0  0  0  0  0  0  0  0  0  0
   35.1440   26.4740   29.6350 H   0  0  0  0  0  0  0  0  0  0  0  0
   36.8400   27.0220   29.8110 H   0  0  0  0  0  0  0  0  0  0  0  0
   35.4310   30.5670   34.0860 O   0  0  0  0  0  0  0  0  0  0  0  0
   35.0910   31.6990   36.1000 C   0  0  0  0  0  0  0  0  0  0  0  0
   34.5690   30.8200   35.1290 C   0  0  0  0  0  0  0  0  0  0  0  0
   33.2760   30.3230   35.3320 C   0  0  0  0  0  0  0  0  0  0  0  0
   32.6070   30.7080   36.4340 N   0  0  0  0  0  0  0  0  0  0  0  0
   33.1360   31.5520   37.3460 C   0  0  0  0  0  0  0  0  0  0  0  0
   34.3890   32.0590   37.1890 N   0  0  0  0  0  0  0  0  0  0  0  0
   36.0730   32.1530   36.0670 H   0  0  0  0  0  0  0  0  0  0  0  0
   32.9460   29.6710   34.5680 H   0  0  0  0  0  0  0  0  0  0  0  0
   32.4210   31.7220   38.1490 H   0  0  0  0  0  0  0  0  0  0  0  0
  2  1  1  0  0  0  0
  3 15  1  0  0  0  0
  3  2  1  0  0  0  0
  4  5  1  0  0  0  0
  4  3  2  0  0  0  0
  5 11  1  0  0  0  0
  6  7  1  0  0  0  0
  6  5  2  0  0  0  0
  7  8  2  0  0  0  0
  8  9  1  0  0  0  0
  8 10  1  0  0  0  0
 11 10  2  0  0  0  0
 11  2  1  0  0  0  0
 12  6  1  0  0  0  0
 13 12  1  0  0  0  0
 14 12  1  0  0  0  0
 15 17  1  0  0  0  0
 16 21  1  0  0  0  0
 17 18  1  0  0  0  0
 17 16  2  0  0  0  0
 18 19  2  0  0  0  0
 19 20  1  0  0  0  0
 20 24  1  0  0  0  0
 21 20  2  0  0  0  0
 22 16  1  0  0  0  0
 23 18  1  0  0  0  0
M  END
>  <minimizedAffinity>
-4.34454107

$$$$
