
 OpenBabel03272509243D

 29 31  0  0  0  0  0  0  0  0999 V2000
   38.3430   32.2960   47.6520 C   0  0  0  0  0  0  0  0  0  0  0  0
   37.3220   32.6790   47.7520 H   0  0  0  0  0  0  0  0  0  0  0  0
   39.0600   32.7170   48.3880 H   0  0  0  0  0  0  0  0  0  0  0  0
   38.8980   32.6030   46.3250 N   0  0  0  0  0  0  0  0  0  0  0  0
   40.0580   33.1730   45.9950 C   0  0  0  0  0  0  0  0  0  0  0  0
   40.7730   33.4950   46.7400 H   0  0  0  0  0  0  0  0  0  0  0  0
   40.1470   33.2540   44.6380 N   0  0  0  0  0  0  0  0  0  0  0  0
   38.9930   32.7110   44.1570 C   0  0  0  0  0  0  0  0  0  0  0  0
   38.5500   32.5350   42.8620 C   0  0  0  0  0  0  0  0  0  0  0  0
   37.3340   31.9550   42.6730 N   0  0  0  0  0  0  0  0  0  0  0  0
   36.5530   31.5480   43.6750 C   0  0  0  0  0  0  0  0  0  0  0  0
   35.5950   31.0910   43.4800 H   0  0  0  0  0  0  0  0  0  0  0  0
   36.9870   31.7210   44.9400 N   0  0  0  0  0  0  0  0  0  0  0  0
   38.1910   32.2930   45.2090 C   0  0  0  0  0  0  0  0  0  0  0  0
   39.3080   32.9340   41.7240 N   0  0  0  0  0  0  0  0  0  0  0  0
   39.0800   33.8690   41.3070 H   0  0  0  0  0  0  0  0  0  0  0  0
   39.9190   32.0710   41.6600 H   0  0  0  0  0  0  0  0  0  0  0  0
   38.3720   30.7810   47.7730 C   0  0  0  0  0  0  0  0  0  0  0  0
   37.8530   30.3550   46.9030 H   0  0  0  0  0  0  0  0  0  0  0  0
   39.4250   30.4380   47.7310 H   0  0  0  0  0  0  0  0  0  0  0  0
   37.3460   30.2440   51.4000 C   0  0  0  0  0  0  0  0  0  0  0  0
   38.0760   30.7120   50.2960 C   0  0  0  0  0  0  0  0  0  0  0  0
   37.6810   30.3500   49.0190 C   0  0  0  0  0  0  0  0  0  0  0  0
   36.5870   29.5450   48.8870 N   0  0  0  0  0  0  0  0  0  0  0  0
   35.9020   29.1080   49.9620 C   0  0  0  0  0  0  0  0  0  0  0  0
   36.2730   29.4520   51.2110 N   0  0  0  0  0  0  0  0  0  0  0  0
   37.6460   30.5190   52.4040 H   0  0  0  0  0  0  0  0  0  0  0  0
   38.9280   31.3380   50.4040 H   0  0  0  0  0  0  0  0  0  0  0  0
   35.0540   28.4760   49.7190 H   0  0  0  0  0  0  0  0  0  0  0  0
  1  2  1  0  0  0  0
  1 18  1  0  0  0  0
  1  3  1  0  0  0  0
  4  1  1  0  0  0  0
  5  4  1  0  0  0  0
  5  6  1  0  0  0  0
  7  5  2  0  0  0  0
  8  7  1  0  0  0  0
  8 14  1  0  0  0  0
  9  8  2  0  0  0  0
 10  9  1  0  0  0  0
 10 11  2  0  0  0  0
 11 13  1  0  0  0  0
 12 11  1  0  0  0  0
 13 14  2  0  0  0  0
 14  4  1  0  0  0  0
 15  9  1  0  0  0  0
 16 15  1  0  0  0  0
 17 15  1  0  0  0  0
 18 23  1  0  0  0  0
 19 18  1  0  0  0  0
 20 18  1  0  0  0  0
 21 27  1  0  0  0  0
 22 28  1  0  0  0  0
 22 21  2  0  0  0  0
 23 22  1  0  0  0  0
 24 23  2  0  0  0  0
 24 25  1  0  0  0  0
 25 26  2  0  0  0  0
 26 21  1  0  0  0  0
 29 25  1  0  0  0  0
M  END
>  <minimizedAffinity>
-5.299788

>  <minimizedRMSD>
1.40229011

$$$$
