
 OpenBabel03272509433D

 43 46  0  0  1  0  0  0  0  0999 V2000
   37.0980   30.9410   49.0380 C   0  0  0  0  0  0  0  0  0  0  0  0
   36.8330   31.8880   50.0300 C   0  0  0  0  0  0  0  0  0  0  0  0
   37.4340   33.1380   50.0260 C   0  0  0  0  0  0  0  0  0  0  0  0
   38.3300   33.4650   49.0050 C   0  0  0  0  0  0  0  0  0  0  0  0
   38.5790   32.5310   48.0440 C   0  0  0  0  0  0  0  0  0  0  0  0
   37.9610   31.2900   48.0770 C   0  0  0  0  0  0  0  0  0  0  0  0
   36.1270   31.6030   50.8130 H   0  0  0  0  0  0  0  0  0  0  0  0
   37.1470   33.7770   50.8430 H   0  0  0  0  0  0  0  0  0  0  0  0
   38.7520   34.4560   49.0770 H   0  0  0  0  0  0  0  0  0  0  0  0
   39.2970   32.9280   47.3210 H   0  0  0  0  0  0  0  0  0  0  0  0
   36.4980   29.6250   49.0570 C   0  0  2  0  0  0  0  0  0  0  0  0
   36.9930   29.0490   48.1830 H   0  0  0  0  0  0  0  0  0  0  0  0
   33.6220   29.9680   46.8630 C   0  0  0  0  0  0  0  0  0  0  0  0
   32.8850   28.8210   47.0930 C   0  0  0  0  0  0  0  0  0  0  0  0
   33.3380   27.9410   48.0580 C   0  0  0  0  0  0  0  0  0  0  0  0
   34.4950   28.2300   48.7490 N   0  0  0  0  0  0  0  0  0  0  0  0
   35.1530   29.3400   48.4800 C   0  0  0  0  0  0  0  0  0  0  0  0
   34.7250   30.2140   47.5420 N   0  0  0  0  0  0  0  0  0  0  0  0
   33.2710   30.6610   46.1080 H   0  0  0  0  0  0  0  0  0  0  0  0
   31.9730   28.5560   46.5740 H   0  0  0  0  0  0  0  0  0  0  0  0
   32.8260   27.0240   48.3040 H   0  0  0  0  0  0  0  0  0  0  0  0
   36.9560   28.8890   50.0070 O   0  0  0  0  0  0  0  0  0  0  0  0
   36.7910   29.1280   50.9610 H   0  0  0  0  0  0  0  0  0  0  0  0
   38.3390   30.3880   47.0150 C   0  0  0  0  0  3  0  0  0  0  0  0
   38.8270   30.7860   45.8350 C   0  0  0  0  0  3  0  0  0  0  0  0
   39.2850   29.9550   44.6980 C   0  0  0  0  0  0  0  0  0  0  0  0
   38.5260   29.1590   44.5470 H   0  0  0  0  0  0  0  0  0  0  0  0
   40.2410   29.4380   44.9230 H   0  0  0  0  0  0  0  0  0  0  0  0
   39.3860   30.9580   43.2130 S   0  0  0  0  0  0  0  0  0  0  0  0
   38.4930   28.5430   41.4380 H   0  0  0  0  0  0  0  0  0  0  0  0
   39.3890   28.9950   41.1560 N   0  0  0  0  0  0  0  0  0  0  0  0
   39.9280   30.0460   41.8020 C   0  0  0  0  0  0  0  0  0  0  0  0
   41.0810   30.4140   41.2140 N   0  0  0  0  0  0  0  0  0  0  0  0
   41.3170   29.5930   40.1570 C   0  0  0  0  0  0  0  0  0  0  0  0
   42.3240   29.5040   39.2160 C   0  0  0  0  0  0  0  0  0  0  0  0
   42.2500   28.5320   38.2610 N   0  0  0  0  0  0  0  0  0  0  0  0
   41.1890   27.6790   38.2620 C   0  0  0  0  0  0  0  0  0  0  0  0
   41.1750   26.9220   37.4810 H   0  0  0  0  0  0  0  0  0  0  0  0
   40.2010   27.7780   39.1980 N   0  0  0  0  0  0  0  0  0  0  0  0
   40.2440   28.7270   40.1540 C   0  0  0  0  0  0  0  0  0  0  0  0
   43.3910   30.4450   39.3010 N   0  0  0  0  0  0  0  0  0  0  0  0
   43.2700   31.4560   39.4960 H   0  0  0  0  0  0  0  0  0  0  0  0
   44.3230   29.9960   39.1420 H   0  0  0  0  0  0  0  0  0  0  0  0
  1 11  1  0  0  0  0
  1  2  1  0  0  0  0
  2  7  1  0  0  0  0
  3  2  2  0  0  0  0
  3  8  1  0  0  0  0
  4  9  1  0  0  0  0
  4  3  1  0  0  0  0
  5  6  1  0  0  0  0
  5  4  2  0  0  0  0
  6  1  2  0  0  0  0
 10  5  1  0  0  0  0
 11 12  1  6  0  0  0
 11 22  1  0  0  0  0
 13 14  2  0  0  0  0
 13 18  1  0  0  0  0
 14 15  1  0  0  0  0
 15 21  1  0  0  0  0
 15 16  2  0  0  0  0
 17 16  1  0  0  0  0
 17 11  1  0  0  0  0
 18 17  2  0  0  0  0
 19 13  1  0  0  0  0
 20 14  1  0  0  0  0
 22 23  1  0  0  0  0
 24  6  1  0  0  0  0
 25 24  2  0  0  0  0
 26 28  1  0  0  0  0
 26 25  1  0  0  0  0
 27 26  1  0  0  0  0
 29 26  1  0  0  0  0
 31 30  1  0  0  0  0
 31 32  1  0  0  0  0
 32 29  1  0  0  0  0
 33 32  2  0  0  0  0
 34 33  1  0  0  0  0
 35 41  1  0  0  0  0
 35 34  2  0  0  0  0
 36 37  2  0  0  0  0
 36 35  1  0  0  0  0
 37 39  1  0  0  0  0
 38 37  1  0  0  0  0
 39 40  2  0  0  0  0
 40 34  1  0  0  0  0
 40 31  1  0  0  0  0
 41 42  1  0  0  0  0
 43 41  1  0  0  0  0
M  END
>  <minimizedAffinity>
-6.06461143

>  <minimizedRMSD>
0.193750903

$$$$
