
 OpenBabel03272508283D

 43 47  0  0  1  0  0  0  0  0999 V2000
   33.6810   29.0070   47.1550 C   0  0  2  0  0  0  0  0  0  0  0  0
   34.4040   28.1340   48.1660 C   0  0  2  0  0  0  0  0  0  0  0  0
   33.5180   27.9330   49.1860 O   0  0  0  0  0  0  0  0  0  0  0  0
   32.2370   28.0830   48.7410 C   0  0  0  0  0  0  0  0  0  0  0  0
   32.2820   28.3960   47.2620 C   0  0  1  0  0  0  0  0  0  0  0  0
   33.5970   30.0510   47.4850 H   0  0  0  0  0  0  0  0  0  0  0  0
   34.6470   27.1950   47.6170 H   0  0  0  0  0  0  0  0  0  0  0  0
   31.6770   27.1070   48.8320 H   0  0  0  0  0  0  0  0  0  0  0  0
   31.7070   28.8370   49.3330 H   0  0  0  0  0  0  0  0  0  0  0  0
   32.3280   27.4450   46.6880 H   0  0  0  0  0  0  0  0  0  0  0  0
   35.5830   30.2900   48.9790 C   0  0  1  0  0  0  0  0  0  0  0  0
   35.6090   28.8910   48.6270 C   0  0  1  0  0  0  0  0  0  0  0  0
   35.8200   29.2310   50.0670 C   0  0  0  0  0  0  0  0  0  0  0  0
   34.7040   30.9100   49.2390 H   0  0  0  0  0  0  0  0  0  0  0  0
   36.5490   28.5330   48.1130 H   0  0  0  0  0  0  0  0  0  0  0  0
   34.9600   28.9430   50.7060 H   0  0  0  0  0  0  0  0  0  0  0  0
   36.8180   29.1610   50.5230 H   0  0  0  0  0  0  0  0  0  0  0  0
   36.8040   31.1750   48.7780 C   0  0  0  0  0  0  0  0  0  0  0  0
   37.0060   32.2020   49.7010 C   0  0  0  0  0  0  0  0  0  0  0  0
   38.1210   32.9920   49.4500 C   0  0  0  0  0  0  0  0  0  0  0  0
   38.9360   32.7550   48.3730 N   0  0  0  0  0  0  0  0  0  0  0  0
   38.6940   31.7430   47.5070 C   0  0  0  0  0  0  0  0  0  0  0  0
   37.6170   30.9470   47.7140 N   0  0  0  0  0  0  0  0  0  0  0  0
   36.3550   32.3590   50.5250 H   0  0  0  0  0  0  0  0  0  0  0  0
   38.3680   33.8150   50.1050 H   0  0  0  0  0  0  0  0  0  0  0  0
   39.3670   31.6010   46.6760 H   0  0  0  0  0  0  0  0  0  0  0  0
   34.1850   28.9030   45.8720 O   0  0  0  0  0  0  0  0  0  0  0  0
   33.5590   29.3350   45.2690 H   0  0  0  0  0  0  0  0  0  0  0  0
   31.3110   29.2510   46.8170 O   0  0  0  0  0  0  0  0  0  0  0  0
   30.4930   26.6810   45.9010 H   0  0  0  0  0  0  0  0  0  0  0  0
   29.9070   27.5210   45.7360 N   0  0  0  0  0  0  0  0  0  0  0  0
   30.2040   28.7730   46.1270 C   0  0  0  0  0  0  0  0  0  0  0  0
   29.1660   29.5200   45.7000 N   0  0  0  0  0  0  0  0  0  0  0  0
   28.2510   28.7610   45.0630 C   0  0  0  0  0  0  0  0  0  0  0  0
   27.0420   29.0270   44.4560 C   0  0  0  0  0  0  0  0  0  0  0  0
   26.3030   28.0560   43.8760 N   0  0  0  0  0  0  0  0  0  0  0  0
   26.7940   26.7920   43.9100 C   0  0  0  0  0  0  0  0  0  0  0  0
   26.3590   25.8850   43.5080 H   0  0  0  0  0  0  0  0  0  0  0  0
   27.9770   26.5170   44.5030 N   0  0  0  0  0  0  0  0  0  0  0  0
   28.7340   27.4620   45.0880 C   0  0  0  0  0  0  0  0  0  0  0  0
   26.5550   30.3650   44.4360 N   0  0  0  0  0  0  0  0  0  0  0  0
   25.6740   30.7210   44.9090 H   0  0  0  0  0  0  0  0  0  0  0  0
   27.1500   31.0110   43.9010 H   0  0  0  0  0  0  0  0  0  0  0  0
  1  5  1  0  0  0  0
  1  6  1  1  0  0  0
  1  2  1  0  0  0  0
  2  7  1  6  0  0  0
  2 12  1  0  0  0  0
  2  3  1  0  0  0  0
  4  8  1  0  0  0  0
  4  3  1  0  0  0  0
  4  9  1  0  0  0  0
  5 10  1  6  0  0  0
  5  4  1  0  0  0  0
 11 14  1  6  0  0  0
 11 13  1  0  0  0  0
 12 15  1  6  0  0  0
 12 11  1  0  0  0  0
 12 13  1  0  0  0  0
 13 17  1  0  0  0  0
 13 16  1  0  0  0  0
 18 11  1  0  0  0  0
 18 19  1  0  0  0  0
 19 24  1  0  0  0  0
 20 19  2  0  0  0  0
 20 25  1  0  0  0  0
 21 20  1  0  0  0  0
 22 23  1  0  0  0  0
 22 21  2  0  0  0  0
 23 18  2  0  0  0  0
 26 22  1  0  0  0  0
 27  1  1  0  0  0  0
 28 27  1  0  0  0  0
 29  5  1  0  0  0  0
 31 30  1  0  0  0  0
 31 32  1  0  0  0  0
 32 29  1  0  0  0  0
 33 32  2  0  0  0  0
 34 40  1  0  0  0  0
 34 33  1  0  0  0  0
 35 34  2  0  0  0  0
 36 37  2  0  0  0  0
 36 35  1  0  0  0  0
 37 39  1  0  0  0  0
 38 37  1  0  0  0  0
 39 40  2  0  0  0  0
 40 31  1  0  0  0  0
 41 35  1  0  0  0  0
 41 42  1  0  0  0  0
 43 41  1  0  0  0  0
M  END
>  <minimizedAffinity>
-5.42399359

>  <minimizedRMSD>
1.3175

$$$$
