
 OpenBabel03272509433D

 43 46  0  0  1  0  0  0  0  0999 V2000
   36.9870   30.8810   49.1700 C   0  0  0  0  0  0  0  0  0  0  0  0
   36.6460   31.7960   50.1680 C   0  0  0  0  0  0  0  0  0  0  0  0
   37.1780   33.0770   50.2000 C   0  0  0  0  0  0  0  0  0  0  0  0
   38.0810   33.4680   49.2070 C   0  0  0  0  0  0  0  0  0  0  0  0
   38.4050   32.5640   48.2400 C   0  0  0  0  0  0  0  0  0  0  0  0
   37.8540   31.2910   48.2380 C   0  0  0  0  0  0  0  0  0  0  0  0
   35.9370   31.4610   50.9290 H   0  0  0  0  0  0  0  0  0  0  0  0
   36.8360   33.6860   51.0180 H   0  0  0  0  0  0  0  0  0  0  0  0
   38.4470   34.4790   49.3050 H   0  0  0  0  0  0  0  0  0  0  0  0
   39.1190   33.0120   47.5420 H   0  0  0  0  0  0  0  0  0  0  0  0
   36.4590   29.5350   49.1540 C   0  0  2  0  0  0  0  0  0  0  0  0
   36.9290   29.0320   48.2230 H   0  0  0  0  0  0  0  0  0  0  0  0
   33.5850   29.5730   46.9320 C   0  0  0  0  0  0  0  0  0  0  0  0
   32.7970   28.5300   47.3830 C   0  0  0  0  0  0  0  0  0  0  0  0
   33.2170   27.8370   48.5030 C   0  0  0  0  0  0  0  0  0  0  0  0
   34.3920   28.2020   49.1240 N   0  0  0  0  0  0  0  0  0  0  0  0
   35.0980   29.2050   48.6430 C   0  0  0  0  0  0  0  0  0  0  0  0
   34.7030   29.8960   47.5490 N   0  0  0  0  0  0  0  0  0  0  0  0
   33.2600   30.1190   46.0540 H   0  0  0  0  0  0  0  0  0  0  0  0
   31.8700   28.2110   46.9250 H   0  0  0  0  0  0  0  0  0  0  0  0
   32.6650   27.0120   48.9240 H   0  0  0  0  0  0  0  0  0  0  0  0
   37.0130   28.7780   50.0340 O   0  0  0  0  0  0  0  0  0  0  0  0
   36.8950   28.9590   51.0080 H   0  0  0  0  0  0  0  0  0  0  0  0
   38.3080   30.4280   47.1730 C   0  0  0  0  0  3  0  0  0  0  0  0
   38.5890   30.8530   45.9360 C   0  0  0  0  0  3  0  0  0  0  0  0
   39.0990   30.0710   44.7860 C   0  0  0  0  0  0  0  0  0  0  0  0
   38.2830   30.0240   44.0350 H   0  0  0  0  0  0  0  0  0  0  0  0
   39.3270   29.0220   45.0680 H   0  0  0  0  0  0  0  0  0  0  0  0
   40.5150   30.9060   44.0630 S   0  0  0  0  0  0  0  0  0  0  0  0
   42.1450   28.5550   42.8010 H   0  0  0  0  0  0  0  0  0  0  0  0
   41.6950   29.2010   42.1190 N   0  0  0  0  0  0  0  0  0  0  0  0
   40.9550   30.2660   42.4780 C   0  0  0  0  0  0  0  0  0  0  0  0
   40.5040   30.9110   41.3880 N   0  0  0  0  0  0  0  0  0  0  0  0
   40.9500   30.2650   40.2790 C   0  0  0  0  0  0  0  0  0  0  0  0
   40.8020   30.4720   38.9200 C   0  0  0  0  0  0  0  0  0  0  0  0
   41.4010   29.6070   38.0520 N   0  0  0  0  0  0  0  0  0  0  0  0
   42.1250   28.5660   38.5460 C   0  0  0  0  0  0  0  0  0  0  0  0
   42.5850   27.9030   37.8140 H   0  0  0  0  0  0  0  0  0  0  0  0
   42.2650   28.3730   39.8890 N   0  0  0  0  0  0  0  0  0  0  0  0
   41.6850   29.2100   40.7730 C   0  0  0  0  0  0  0  0  0  0  0  0
   40.0220   31.5910   38.5050 N   0  0  0  0  0  0  0  0  0  0  0  0
   39.1240   31.8770   38.9380 H   0  0  0  0  0  0  0  0  0  0  0  0
   40.4630   32.1000   37.7040 H   0  0  0  0  0  0  0  0  0  0  0  0
  1  2  1  0  0  0  0
  2  3  2  0  0  0  0
  2  7  1  0  0  0  0
  3  8  1  0  0  0  0
  4  9  1  0  0  0  0
  4  3  1  0  0  0  0
  5  4  2  0  0  0  0
  6  5  1  0  0  0  0
  6  1  2  0  0  0  0
 10  5  1  0  0  0  0
 11 12  1  6  0  0  0
 11  1  1  0  0  0  0
 11 22  1  0  0  0  0
 13 14  2  0  0  0  0
 13 18  1  0  0  0  0
 14 15  1  0  0  0  0
 15 21  1  0  0  0  0
 15 16  2  0  0  0  0
 17 16  1  0  0  0  0
 17 11  1  0  0  0  0
 18 17  2  0  0  0  0
 19 13  1  0  0  0  0
 20 14  1  0  0  0  0
 22 23  1  0  0  0  0
 24  6  1  0  0  0  0
 25 24  2  0  0  0  0
 26 28  1  0  0  0  0
 26 25  1  0  0  0  0
 27 26  1  0  0  0  0
 29 26  1  0  0  0  0
 31 32  1  0  0  0  0
 31 30  1  0  0  0  0
 32 29  1  0  0  0  0
 33 32  2  0  0  0  0
 34 40  1  0  0  0  0
 34 33  1  0  0  0  0
 35 34  2  0  0  0  0
 36 37  2  0  0  0  0
 36 35  1  0  0  0  0
 37 39  1  0  0  0  0
 38 37  1  0  0  0  0
 39 40  2  0  0  0  0
 40 31  1  0  0  0  0
 41 35  1  0  0  0  0
 41 42  1  0  0  0  0
 43 41  1  0  0  0  0
M  END
>  <minimizedAffinity>
-6.34961605

>  <minimizedRMSD>
1.24744868

$$$$
