
 OpenBabel03272509243D

 29 31  0  0  0  0  0  0  0  0999 V2000
   38.3810   32.3190   47.7160 C   0  0  0  0  0  0  0  0  0  0  0  0
   37.3660   32.7150   47.8350 H   0  0  0  0  0  0  0  0  0  0  0  0
   39.1120   32.7160   48.4510 H   0  0  0  0  0  0  0  0  0  0  0  0
   38.9240   32.6420   46.3890 N   0  0  0  0  0  0  0  0  0  0  0  0
   40.0670   33.2450   46.0570 C   0  0  0  0  0  0  0  0  0  0  0  0
   40.7740   33.5870   46.8000 H   0  0  0  0  0  0  0  0  0  0  0  0
   40.1500   33.3320   44.7000 N   0  0  0  0  0  0  0  0  0  0  0  0
   39.0100   32.7570   44.2200 C   0  0  0  0  0  0  0  0  0  0  0  0
   38.5690   32.5700   42.9250 C   0  0  0  0  0  0  0  0  0  0  0  0
   37.3700   31.9550   42.7390 N   0  0  0  0  0  0  0  0  0  0  0  0
   36.6030   31.5260   43.7430 C   0  0  0  0  0  0  0  0  0  0  0  0
   35.6580   31.0430   43.5490 H   0  0  0  0  0  0  0  0  0  0  0  0
   37.0340   31.7090   45.0060 N   0  0  0  0  0  0  0  0  0  0  0  0
   38.2230   32.3150   45.2730 C   0  0  0  0  0  0  0  0  0  0  0  0
   39.3130   32.9920   41.7870 N   0  0  0  0  0  0  0  0  0  0  0  0
   39.0570   33.9210   41.3720 H   0  0  0  0  0  0  0  0  0  0  0  0
   39.9470   32.1470   41.7200 H   0  0  0  0  0  0  0  0  0  0  0  0
   38.3890   30.8020   47.8090 C   0  0  0  0  0  0  0  0  0  0  0  0
   37.8680   30.3990   46.9300 H   0  0  0  0  0  0  0  0  0  0  0  0
   39.4380   30.4460   47.7640 H   0  0  0  0  0  0  0  0  0  0  0  0
   37.3350   30.2270   51.4230 C   0  0  0  0  0  0  0  0  0  0  0  0
   38.0730   30.7080   50.3290 C   0  0  0  0  0  0  0  0  0  0  0  0
   37.6890   30.3570   49.0450 C   0  0  0  0  0  0  0  0  0  0  0  0
   36.5980   29.5510   48.8970 N   0  0  0  0  0  0  0  0  0  0  0  0
   35.9050   29.1020   49.9620 C   0  0  0  0  0  0  0  0  0  0  0  0
   36.2660   29.4340   51.2170 N   0  0  0  0  0  0  0  0  0  0  0  0
   37.6250   30.4940   52.4320 H   0  0  0  0  0  0  0  0  0  0  0  0
   38.9220   31.3350   50.4500 H   0  0  0  0  0  0  0  0  0  0  0  0
   35.0620   28.4700   49.7060 H   0  0  0  0  0  0  0  0  0  0  0  0
  1 18  1  0  0  0  0
  1  2  1  0  0  0  0
  1  3  1  0  0  0  0
  4  1  1  0  0  0  0
  5  4  1  0  0  0  0
  5  6  1  0  0  0  0
  7  5  2  0  0  0  0
  8  7  1  0  0  0  0
  8 14  1  0  0  0  0
  9  8  2  0  0  0  0
 10  9  1  0  0  0  0
 10 11  2  0  0  0  0
 11 13  1  0  0  0  0
 12 11  1  0  0  0  0
 13 14  2  0  0  0  0
 14  4  1  0  0  0  0
 15  9  1  0  0  0  0
 16 15  1  0  0  0  0
 17 15  1  0  0  0  0
 18 23  1  0  0  0  0
 19 18  1  0  0  0  0
 20 18  1  0  0  0  0
 21 27  1  0  0  0  0
 22 28  1  0  0  0  0
 22 21  2  0  0  0  0
 23 22  1  0  0  0  0
 24 23  2  0  0  0  0
 24 25  1  0  0  0  0
 25 26  2  0  0  0  0
 26 21  1  0  0  0  0
 29 25  1  0  0  0  0
M  END
>  <minimizedAffinity>
-5.33279514

>  <minimizedRMSD>
1.45463359

$$$$
