
 OpenBabel03272509183D

 38 41  0  0  0  0  0  0  0  0999 V2000
   38.1750   31.3940   47.9130 C   0  0  0  0  0  0  0  0  0  0  0  0
   37.2350   31.5650   48.9240 C   0  0  0  0  0  0  0  0  0  0  0  0
   37.3530   32.7690   49.6180 C   0  0  0  0  0  0  0  0  0  0  0  0
   38.3410   33.7000   49.3000 C   0  0  0  0  0  0  0  0  0  0  0  0
   39.2410   33.4350   48.2650 C   0  0  0  0  0  0  0  0  0  0  0  0
   39.1490   32.2540   47.5600 C   0  0  0  0  0  0  0  0  0  0  0  0
   36.6670   32.9930   50.4230 H   0  0  0  0  0  0  0  0  0  0  0  0
   38.3980   34.6280   49.8690 H   0  0  0  0  0  0  0  0  0  0  0  0
   39.9960   34.1650   48.0350 H   0  0  0  0  0  0  0  0  0  0  0  0
   35.1410   30.4160   48.3720 C   0  0  0  0  0  0  0  0  0  0  0  0
   36.2240   30.6100   49.2480 C   0  0  0  0  0  0  0  0  0  0  0  0
   36.2590   29.8470   50.4130 C   0  0  0  0  0  0  0  0  0  0  0  0
   35.2460   28.9610   50.6360 N   0  0  0  0  0  0  0  0  0  0  0  0
   34.2130   28.8010   49.7630 C   0  0  0  0  0  0  0  0  0  0  0  0
   34.1670   29.5290   48.6380 N   0  0  0  0  0  0  0  0  0  0  0  0
   35.0850   30.9970   47.4540 H   0  0  0  0  0  0  0  0  0  0  0  0
   33.4160   28.0970   49.9480 H   0  0  0  0  0  0  0  0  0  0  0  0
   37.3640   30.0030   51.3700 C   0  0  0  0  0  0  0  0  0  0  0  0
   36.9010   30.0900   52.3910 H   0  0  0  0  0  0  0  0  0  0  0  0
   37.9990   29.0990   51.3530 H   0  0  0  0  0  0  0  0  0  0  0  0
   37.9290   30.9170   51.1190 H   0  0  0  0  0  0  0  0  0  0  0  0
   38.1190   30.1920   47.1600 O   0  0  0  0  0  0  0  0  0  0  0  0
   38.8820   29.5470   47.3380 H   0  0  0  0  0  0  0  0  0  0  0  0
   40.0500   32.0230   46.5450 O   0  0  0  0  0  0  0  0  0  0  0  0
   39.4000   29.6480   45.1120 H   0  0  0  0  0  0  0  0  0  0  0  0
   39.3650   30.5520   44.6350 N   0  0  0  0  0  0  0  0  0  0  0  0
   39.6640   31.6990   45.2710 C   0  0  0  0  0  0  0  0  0  0  0  0
   39.5120   32.6780   44.3430 N   0  0  0  0  0  0  0  0  0  0  0  0
   39.1310   32.1370   43.1740 C   0  0  0  0  0  0  0  0  0  0  0  0
   38.8210   32.5630   41.8840 C   0  0  0  0  0  0  0  0  0  0  0  0
   38.4620   31.6920   40.9230 N   0  0  0  0  0  0  0  0  0  0  0  0
   38.3900   30.3590   41.1790 C   0  0  0  0  0  0  0  0  0  0  0  0
   38.1100   29.6140   40.4510 H   0  0  0  0  0  0  0  0  0  0  0  0
   38.6770   29.8670   42.4070 N   0  0  0  0  0  0  0  0  0  0  0  0
   39.0330   30.7670   43.3480 C   0  0  0  0  0  0  0  0  0  0  0  0
   38.9020   33.9640   41.6360 N   0  0  0  0  0  0  0  0  0  0  0  0
   39.7490   34.5750   41.5510 H   0  0  0  0  0  0  0  0  0  0  0  0
   37.9200   34.3150   41.5430 H   0  0  0  0  0  0  0  0  0  0  0  0
  1  2  1  0  0  0  0
  2 11  1  0  0  0  0
  2  3  2  0  0  0  0
  3  7  1  0  0  0  0
  4  3  1  0  0  0  0
  4  8  1  0  0  0  0
  5  4  2  0  0  0  0
  6  1  2  0  0  0  0
  6  5  1  0  0  0  0
  9  5  1  0  0  0  0
 10 15  2  0  0  0  0
 10 11  1  0  0  0  0
 11 12  2  0  0  0  0
 12 13  1  0  0  0  0
 12 18  1  0  0  0  0
 14 17  1  0  0  0  0
 14 13  2  0  0  0  0
 15 14  1  0  0  0  0
 16 10  1  0  0  0  0
 18 19  1  0  0  0  0
 20 18  1  0  0  0  0
 21 18  1  0  0  0  0
 22 23  1  0  0  0  0
 22  1  1  0  0  0  0
 24  6  1  0  0  0  0
 26 25  1  0  0  0  0
 26 27  1  0  0  0  0
 27 24  1  0  0  0  0
 28 27  2  0  0  0  0
 29 35  1  0  0  0  0
 29 28  1  0  0  0  0
 30 29  2  0  0  0  0
 31 32  2  0  0  0  0
 31 30  1  0  0  0  0
 32 34  1  0  0  0  0
 33 32  1  0  0  0  0
 34 35  2  0  0  0  0
 35 26  1  0  0  0  0
 36 30  1  0  0  0  0
 37 36  1  0  0  0  0
 38 36  1  0  0  0  0
M  END
>  <minimizedAffinity>
-6.73813105

>  <minimizedRMSD>
1.16150486

$$$$
