
 OpenBabel03272506413D

 24 26  0  0  0  0  0  0  0  0999 V2000
   33.3790   26.4290   48.8350 H   0  0  0  0  0  0  0  0  0  0  0  0
   33.5900   27.1000   48.0890 N   0  0  0  0  0  0  0  0  0  0  0  0
   33.9680   28.3460   48.4390 C   0  0  0  0  0  0  0  0  0  0  0  0
   34.1910   29.0460   47.3310 N   0  0  0  0  0  0  0  0  0  0  0  0
   33.9560   28.2470   46.2680 C   0  0  0  0  0  0  0  0  0  0  0  0
   34.0100   28.3860   44.9040 C   0  0  0  0  0  0  0  0  0  0  0  0
   33.6990   27.3460   44.1170 N   0  0  0  0  0  0  0  0  0  0  0  0
   33.3310   26.1560   44.6020 C   0  0  0  0  0  0  0  0  0  0  0  0
   33.1010   25.3830   43.8840 H   0  0  0  0  0  0  0  0  0  0  0  0
   33.2650   25.9760   45.9520 N   0  0  0  0  0  0  0  0  0  0  0  0
   33.5750   27.0130   46.7500 C   0  0  0  0  0  0  0  0  0  0  0  0
   34.4070   29.6710   44.4170 N   0  0  0  0  0  0  0  0  0  0  0  0
   33.7340   30.4170   44.7500 H   0  0  0  0  0  0  0  0  0  0  0  0
   35.1730   30.0620   43.8290 H   0  0  0  0  0  0  0  0  0  0  0  0
   34.2190   29.2100   49.9910 S   0  0  0  0  0  0  0  0  0  0  0  0
   38.0910   29.8660   50.4750 C   0  0  0  0  0  0  0  0  0  0  0  0
   38.2730   31.1990   50.1010 C   0  0  0  0  0  0  0  0  0  0  0  0
   37.1590   31.9420   49.6790 C   0  0  0  0  0  0  0  0  0  0  0  0
   35.9510   31.3090   49.6580 N   0  0  0  0  0  0  0  0  0  0  0  0
   35.8070   30.0300   50.0210 C   0  0  0  0  0  0  0  0  0  0  0  0
   36.8690   29.2960   50.4330 N   0  0  0  0  0  0  0  0  0  0  0  0
   38.9450   29.2920   50.8010 H   0  0  0  0  0  0  0  0  0  0  0  0
   39.2650   31.6790   50.1300 H   0  0  0  0  0  0  0  0  0  0  0  0
   37.2440   32.9810   49.3770 H   0  0  0  0  0  0  0  0  0  0  0  0
  2  3  1  0  0  0  0
  2  1  1  0  0  0  0
  3 15  1  0  0  0  0
  4  3  2  0  0  0  0
  5 11  1  0  0  0  0
  5  4  1  0  0  0  0
  6  5  2  0  0  0  0
  7  8  2  0  0  0  0
  7  6  1  0  0  0  0
  8 10  1  0  0  0  0
  9  8  1  0  0  0  0
 10 11  2  0  0  0  0
 11  2  1  0  0  0  0
 12 13  1  0  0  0  0
 12  6  1  0  0  0  0
 14 12  1  0  0  0  0
 15 20  1  0  0  0  0
 16 22  1  0  0  0  0
 17 23  1  0  0  0  0
 17 16  2  0  0  0  0
 18 17  1  0  0  0  0
 19 18  2  0  0  0  0
 19 20  1  0  0  0  0
 20 21  2  0  0  0  0
 21 16  1  0  0  0  0
 24 18  1  0  0  0  0
M  END
>  <minimizedAffinity>
-3.78676629

>  <minimizedRMSD>
3.80440235

$$$$
