
 OpenBabel03272509433D

 43 46  0  0  1  0  0  0  0  0999 V2000
   37.0940   30.9330   49.0460 C   0  0  0  0  0  0  0  0  0  0  0  0
   36.8360   31.8760   50.0430 C   0  0  0  0  0  0  0  0  0  0  0  0
   37.4390   33.1250   50.0420 C   0  0  0  0  0  0  0  0  0  0  0  0
   38.3300   33.4550   49.0160 C   0  0  0  0  0  0  0  0  0  0  0  0
   38.5720   32.5240   48.0500 C   0  0  0  0  0  0  0  0  0  0  0  0
   37.9510   31.2840   48.0820 C   0  0  0  0  0  0  0  0  0  0  0  0
   36.1340   31.5900   50.8300 H   0  0  0  0  0  0  0  0  0  0  0  0
   37.1590   33.7610   50.8630 H   0  0  0  0  0  0  0  0  0  0  0  0
   38.7550   34.4450   49.0900 H   0  0  0  0  0  0  0  0  0  0  0  0
   39.2860   32.9240   47.3240 H   0  0  0  0  0  0  0  0  0  0  0  0
   36.4910   29.6180   49.0630 C   0  0  2  0  0  0  0  0  0  0  0  0
   36.9860   29.0420   48.1900 H   0  0  0  0  0  0  0  0  0  0  0  0
   33.6250   29.9570   46.8550 C   0  0  0  0  0  0  0  0  0  0  0  0
   32.8800   28.8170   47.0950 C   0  0  0  0  0  0  0  0  0  0  0  0
   33.3240   27.9440   48.0710 C   0  0  0  0  0  0  0  0  0  0  0  0
   34.4800   28.2340   48.7630 N   0  0  0  0  0  0  0  0  0  0  0  0
   35.1470   29.3350   48.4850 C   0  0  0  0  0  0  0  0  0  0  0  0
   34.7280   30.2030   47.5350 N   0  0  0  0  0  0  0  0  0  0  0  0
   33.2820   30.6440   46.0920 H   0  0  0  0  0  0  0  0  0  0  0  0
   31.9680   28.5530   46.5750 H   0  0  0  0  0  0  0  0  0  0  0  0
   32.8050   27.0340   48.3250 H   0  0  0  0  0  0  0  0  0  0  0  0
   36.9470   28.8800   50.0130 O   0  0  0  0  0  0  0  0  0  0  0  0
   36.7820   29.1180   50.9670 H   0  0  0  0  0  0  0  0  0  0  0  0
   38.3220   30.3860   47.0140 C   0  0  0  0  0  3  0  0  0  0  0  0
   38.8270   30.7870   45.8420 C   0  0  0  0  0  3  0  0  0  0  0  0
   39.2800   29.9580   44.7010 C   0  0  0  0  0  0  0  0  0  0  0  0
   38.3750   29.6730   44.1250 H   0  0  0  0  0  0  0  0  0  0  0  0
   39.7500   29.0120   45.0380 H   0  0  0  0  0  0  0  0  0  0  0  0
   40.3670   30.9210   43.6440 S   0  0  0  0  0  0  0  0  0  0  0  0
   38.3700   30.6880   41.2490 H   0  0  0  0  0  0  0  0  0  0  0  0
   39.3420   30.3670   41.0510 N   0  0  0  0  0  0  0  0  0  0  0  0
   40.3340   30.3930   41.9600 C   0  0  0  0  0  0  0  0  0  0  0  0
   41.4730   29.9180   41.4230 N   0  0  0  0  0  0  0  0  0  0  0  0
   41.2370   29.5690   40.1310 C   0  0  0  0  0  0  0  0  0  0  0  0
   42.0150   29.0400   39.1200 C   0  0  0  0  0  0  0  0  0  0  0  0
   41.4470   28.8030   37.9030 N   0  0  0  0  0  0  0  0  0  0  0  0
   40.1310   29.0940   37.7190 C   0  0  0  0  0  0  0  0  0  0  0  0
   39.7220   28.8880   36.7300 H   0  0  0  0  0  0  0  0  0  0  0  0
   39.3720   29.6170   38.7240 N   0  0  0  0  0  0  0  0  0  0  0  0
   39.9040   29.8620   39.9370 C   0  0  0  0  0  0  0  0  0  0  0  0
   43.3850   28.7700   39.4160 N   0  0  0  0  0  0  0  0  0  0  0  0
   44.0060   29.4010   39.9570 H   0  0  0  0  0  0  0  0  0  0  0  0
   43.6980   27.8520   39.0220 H   0  0  0  0  0  0  0  0  0  0  0  0
  1 11  1  0  0  0  0
  1  2  1  0  0  0  0
  2  7  1  0  0  0  0
  3  2  2  0  0  0  0
  3  8  1  0  0  0  0
  4  9  1  0  0  0  0
  4  3  1  0  0  0  0
  5  6  1  0  0  0  0
  5  4  2  0  0  0  0
  6  1  2  0  0  0  0
 10  5  1  0  0  0  0
 11 12  1  6  0  0  0
 11 22  1  0  0  0  0
 13 14  2  0  0  0  0
 13 18  1  0  0  0  0
 14 15  1  0  0  0  0
 15 21  1  0  0  0  0
 15 16  2  0  0  0  0
 17 16  1  0  0  0  0
 17 11  1  0  0  0  0
 18 17  2  0  0  0  0
 19 13  1  0  0  0  0
 20 14  1  0  0  0  0
 22 23  1  0  0  0  0
 24  6  1  0  0  0  0
 25 24  2  0  0  0  0
 26 28  1  0  0  0  0
 26 25  1  0  0  0  0
 27 26  1  0  0  0  0
 29 26  1  0  0  0  0
 31 30  1  0  0  0  0
 31 32  1  0  0  0  0
 32 29  1  0  0  0  0
 33 32  2  0  0  0  0
 34 33  1  0  0  0  0
 35 41  1  0  0  0  0
 35 34  2  0  0  0  0
 36 35  1  0  0  0  0
 37 36  2  0  0  0  0
 37 39  1  0  0  0  0
 38 37  1  0  0  0  0
 39 40  2  0  0  0  0
 40 34  1  0  0  0  0
 40 31  1  0  0  0  0
 41 42  1  0  0  0  0
 43 41  1  0  0  0  0
M  END
>  <minimizedAffinity>
-6.12859297

>  <minimizedRMSD>
0.666316807

$$$$
