
 OpenBabel03272506413D

 24 26  0  0  0  0  0  0  0  0999 V2000
   41.2530   23.7020   46.6870 H   0  0  0  0  0  0  0  0  0  0  0  0
   40.8850   23.5080   47.6250 N   0  0  0  0  0  0  0  0  0  0  0  0
   39.6620   22.9470   47.7280 C   0  0  0  0  0  0  0  0  0  0  0  0
   39.3830   22.7820   49.0170 N   0  0  0  0  0  0  0  0  0  0  0  0
   40.4250   23.2410   49.7420 C   0  0  0  0  0  0  0  0  0  0  0  0
   40.7240   23.3400   51.0760 C   0  0  0  0  0  0  0  0  0  0  0  0
   41.8970   23.8660   51.4580 N   0  0  0  0  0  0  0  0  0  0  0  0
   42.8090   24.3080   50.5870 C   0  0  0  0  0  0  0  0  0  0  0  0
   43.7230   24.7150   50.9950 H   0  0  0  0  0  0  0  0  0  0  0  0
   42.5510   24.2270   49.2500 N   0  0  0  0  0  0  0  0  0  0  0  0
   41.3780   23.7010   48.8580 C   0  0  0  0  0  0  0  0  0  0  0  0
   39.7280   22.8600   51.9840 N   0  0  0  0  0  0  0  0  0  0  0  0
   38.8220   23.3950   51.8570 H   0  0  0  0  0  0  0  0  0  0  0  0
   39.6570   22.1330   52.7270 H   0  0  0  0  0  0  0  0  0  0  0  0
   38.4100   22.4050   46.5650 S   0  0  0  0  0  0  0  0  0  0  0  0
   39.4380   18.5880   46.3820 C   0  0  0  0  0  0  0  0  0  0  0  0
   38.2290   17.8930   46.4480 C   0  0  0  0  0  0  0  0  0  0  0  0
   37.0330   18.6230   46.5550 C   0  0  0  0  0  0  0  0  0  0  0  0
   37.1260   19.9830   46.5870 N   0  0  0  0  0  0  0  0  0  0  0  0
   38.2990   20.6210   46.5220 C   0  0  0  0  0  0  0  0  0  0  0  0
   39.4640   19.9360   46.4180 N   0  0  0  0  0  0  0  0  0  0  0  0
   40.3590   18.0310   46.2990 H   0  0  0  0  0  0  0  0  0  0  0  0
   38.1900   16.7920   46.4200 H   0  0  0  0  0  0  0  0  0  0  0  0
   36.0660   18.1330   46.6100 H   0  0  0  0  0  0  0  0  0  0  0  0
  1  2  1  0  0  0  0
  2  3  1  0  0  0  0
  2 11  1  0  0  0  0
  3  4  2  0  0  0  0
  4  5  1  0  0  0  0
  5  6  1  0  0  0  0
  6  7  2  0  0  0  0
  6 12  1  0  0  0  0
  8  9  1  0  0  0  0
  8  7  1  0  0  0  0
 10  8  2  0  0  0  0
 11 10  1  0  0  0  0
 11  5  2  0  0  0  0
 12 14  1  0  0  0  0
 13 12  1  0  0  0  0
 15  3  1  0  0  0  0
 16 21  2  0  0  0  0
 16 17  1  0  0  0  0
 17 18  2  0  0  0  0
 18 19  1  0  0  0  0
 18 24  1  0  0  0  0
 20 15  1  0  0  0  0
 20 19  2  0  0  0  0
 21 20  1  0  0  0  0
 22 16  1  0  0  0  0
 23 17  1  0  0  0  0
M  END
>  <minimizedAffinity>
-2.61852503

>  <minimizedRMSD>
8.77665234

$$$$
