
 OpenBabel03272509433D

 43 46  0  0  1  0  0  0  0  0999 V2000
   37.1990   30.9700   49.0080 C   0  0  0  0  0  0  0  0  0  0  0  0
   36.9560   31.9190   50.0030 C   0  0  0  0  0  0  0  0  0  0  0  0
   37.5610   33.1670   49.9870 C   0  0  0  0  0  0  0  0  0  0  0  0
   38.4400   33.4890   48.9490 C   0  0  0  0  0  0  0  0  0  0  0  0
   38.6680   32.5520   47.9850 C   0  0  0  0  0  0  0  0  0  0  0  0
   38.0450   31.3140   48.0310 C   0  0  0  0  0  0  0  0  0  0  0  0
   36.2640   31.6380   50.8000 H   0  0  0  0  0  0  0  0  0  0  0  0
   37.2930   33.8070   50.8080 H   0  0  0  0  0  0  0  0  0  0  0  0
   38.8670   34.4780   49.0120 H   0  0  0  0  0  0  0  0  0  0  0  0
   39.3730   32.9460   47.2480 H   0  0  0  0  0  0  0  0  0  0  0  0
   36.5940   29.6560   49.0400 C   0  0  2  0  0  0  0  0  0  0  0  0
   37.0840   29.0710   48.1690 H   0  0  0  0  0  0  0  0  0  0  0  0
   33.6840   30.0320   46.8970 C   0  0  0  0  0  0  0  0  0  0  0  0
   32.9670   28.8670   47.0970 C   0  0  0  0  0  0  0  0  0  0  0  0
   33.4460   27.9610   48.0230 C   0  0  0  0  0  0  0  0  0  0  0  0
   34.6080   28.2430   48.7090 N   0  0  0  0  0  0  0  0  0  0  0  0
   35.2460   29.3710   48.4710 C   0  0  0  0  0  0  0  0  0  0  0  0
   34.7920   30.2720   47.5700 N   0  0  0  0  0  0  0  0  0  0  0  0
   33.3130   30.7470   46.1720 H   0  0  0  0  0  0  0  0  0  0  0  0
   32.0520   28.6070   46.5800 H   0  0  0  0  0  0  0  0  0  0  0  0
   32.9510   27.0290   48.2440 H   0  0  0  0  0  0  0  0  0  0  0  0
   37.0530   28.9260   49.9940 O   0  0  0  0  0  0  0  0  0  0  0  0
   36.8940   29.1730   50.9470 H   0  0  0  0  0  0  0  0  0  0  0  0
   38.4000   30.4090   46.9630 C   0  0  0  0  0  3  0  0  0  0  0  0
   38.2410   30.6870   45.6650 C   0  0  0  0  0  3  0  0  0  0  0  0
   38.6070   29.8590   44.4920 C   0  0  0  0  0  0  0  0  0  0  0  0
   37.7440   29.8790   43.7950 H   0  0  0  0  0  0  0  0  0  0  0  0
   38.7630   28.7960   44.7700 H   0  0  0  0  0  0  0  0  0  0  0  0
   40.0400   30.5660   43.6720 S   0  0  0  0  0  0  0  0  0  0  0  0
   39.6310   27.7540   42.3680 H   0  0  0  0  0  0  0  0  0  0  0  0
   40.2440   28.4070   41.8350 N   0  0  0  0  0  0  0  0  0  0  0  0
   40.5320   29.6570   42.2420 C   0  0  0  0  0  0  0  0  0  0  0  0
   41.3430   30.2620   41.3550 N   0  0  0  0  0  0  0  0  0  0  0  0
   41.6010   29.3990   40.3360 C   0  0  0  0  0  0  0  0  0  0  0  0
   42.3510   29.4770   39.1790 C   0  0  0  0  0  0  0  0  0  0  0  0
   42.3960   28.3940   38.3490 N   0  0  0  0  0  0  0  0  0  0  0  0
   41.7040   27.2710   38.6830 C   0  0  0  0  0  0  0  0  0  0  0  0
   41.7710   26.4350   37.9900 H   0  0  0  0  0  0  0  0  0  0  0  0
   40.9670   27.2080   39.8290 N   0  0  0  0  0  0  0  0  0  0  0  0
   40.9010   28.2600   40.6700 C   0  0  0  0  0  0  0  0  0  0  0  0
   43.0400   30.6980   38.9200 N   0  0  0  0  0  0  0  0  0  0  0  0
   42.6370   31.6440   39.0640 H   0  0  0  0  0  0  0  0  0  0  0  0
   44.0090   30.5340   38.5620 H   0  0  0  0  0  0  0  0  0  0  0  0
  1 11  1  0  0  0  0
  1  2  1  0  0  0  0
  2  7  1  0  0  0  0
  3  2  2  0  0  0  0
  3  8  1  0  0  0  0
  4  9  1  0  0  0  0
  4  3  1  0  0  0  0
  5  6  1  0  0  0  0
  5  4  2  0  0  0  0
  6  1  2  0  0  0  0
 10  5  1  0  0  0  0
 11 12  1  6  0  0  0
 11 22  1  0  0  0  0
 13 14  2  0  0  0  0
 13 18  1  0  0  0  0
 14 15  1  0  0  0  0
 15 21  1  0  0  0  0
 15 16  2  0  0  0  0
 17 16  1  0  0  0  0
 17 11  1  0  0  0  0
 18 17  2  0  0  0  0
 19 13  1  0  0  0  0
 20 14  1  0  0  0  0
 22 23  1  0  0  0  0
 24  6  1  0  0  0  0
 25 24  2  0  0  0  0
 26 28  1  0  0  0  0
 26 25  1  0  0  0  0
 27 26  1  0  0  0  0
 29 26  1  0  0  0  0
 31 32  1  0  0  0  0
 31 30  1  0  0  0  0
 32 29  1  0  0  0  0
 33 32  2  0  0  0  0
 34 40  1  0  0  0  0
 34 33  1  0  0  0  0
 35 34  2  0  0  0  0
 36 37  2  0  0  0  0
 36 35  1  0  0  0  0
 37 39  1  0  0  0  0
 38 37  1  0  0  0  0
 39 40  2  0  0  0  0
 40 31  1  0  0  0  0
 41 42  1  0  0  0  0
 41 35  1  0  0  0  0
 43 41  1  0  0  0  0
M  END
>  <minimizedAffinity>
-6.16122007

>  <minimizedRMSD>
0.678837895

$$$$
