
 OpenBabel03262520493D

 53 58  0  0  1  0  0  0  0  0999 V2000
   39.5020   28.7660   43.2610 C   0  0  0  0  0  0  0  0  0  0  0  0
   40.3690   29.7780   42.8870 C   0  0  0  0  0  0  0  0  0  0  0  0
   41.0950   29.6740   41.6950 C   0  0  0  0  0  0  0  0  0  0  0  0
   40.9540   28.5650   40.8860 C   0  0  0  0  0  0  0  0  0  0  0  0
   41.5340   28.2430   39.7140 N   0  0  0  0  0  0  0  0  0  0  0  0
   41.0390   27.0490   39.3610 C   0  0  0  0  0  0  0  0  0  0  0  0
   40.1400   26.5680   40.2740 C   0  0  0  0  0  0  0  0  0  0  0  0
   40.0930   27.5510   41.2520 C   0  0  0  0  0  0  0  0  0  0  0  0
   39.3830   27.6640   42.4280 C   0  0  0  0  0  0  0  0  0  0  0  0
   38.8930   28.7410   44.1530 H   0  0  0  0  0  0  0  0  0  0  0  0
   41.7640   30.4930   41.4420 H   0  0  0  0  0  0  0  0  0  0  0  0
   42.2310   28.8440   39.2150 H   0  0  0  0  0  0  0  0  0  0  0  0
   41.3500   26.5660   38.4450 H   0  0  0  0  0  0  0  0  0  0  0  0
   39.5910   25.6390   40.2470 H   0  0  0  0  0  0  0  0  0  0  0  0
   38.5060   26.5890   42.7600 N   0  0  0  0  0  0  0  0  0  0  0  0
   39.0200   25.5260   43.4350 C   0  0  0  0  0  0  0  0  0  0  0  0
   40.0330   25.3260   43.7920 H   0  0  0  0  0  0  0  0  0  0  0  0
   38.0000   24.6490   43.6300 N   0  0  0  0  0  0  0  0  0  0  0  0
   36.8790   25.1650   43.0840 C   0  0  0  0  0  0  0  0  0  0  0  0
   35.5510   24.7920   42.9410 C   0  0  0  0  0  0  0  0  0  0  0  0
   34.6880   25.5930   42.3130 N   0  0  0  0  0  0  0  0  0  0  0  0
   35.0380   26.7790   41.7920 C   0  0  0  0  0  0  0  0  0  0  0  0
   34.2570   27.3380   41.3090 H   0  0  0  0  0  0  0  0  0  0  0  0
   36.3270   27.1860   41.9060 N   0  0  0  0  0  0  0  0  0  0  0  0
   37.2020   26.3980   42.5310 C   0  0  0  0  0  0  0  0  0  0  0  0
   35.1650   23.5350   43.4900 N   0  0  0  0  0  0  0  0  0  0  0  0
   34.4970   22.9300   42.9340 H   0  0  0  0  0  0  0  0  0  0  0  0
   35.4520   23.1040   44.3890 H   0  0  0  0  0  0  0  0  0  0  0  0
   40.5020   30.9720   43.7800 C   0  0  0  0  0  0  0  0  0  0  0  0
   40.1170   31.8350   43.1760 H   0  0  0  0  0  0  0  0  0  0  0  0
   41.5620   31.1400   44.0680 H   0  0  0  0  0  0  0  0  0  0  0  0
   39.6110   30.7440   44.9800 C   0  0  0  0  0  0  0  0  0  0  0  0
   39.7550   29.6770   45.2920 H   0  0  0  0  0  0  0  0  0  0  0  0
   38.5690   30.9460   44.6270 H   0  0  0  0  0  0  0  0  0  0  0  0
   38.8440   32.3590   46.7630 C   0  0  1  0  0  0  0  0  0  0  0  0
   40.0110   33.0580   46.1050 C   0  0  0  0  0  0  0  0  0  0  0  0
   39.9440   31.5840   46.1590 C   0  0  2  0  0  0  0  0  0  0  0  0
   37.8500   32.3810   46.2500 H   0  0  0  0  0  0  0  0  0  0  0  0
   39.8620   33.4970   45.0900 H   0  0  0  0  0  0  0  0  0  0  0  0
   40.7480   33.6080   46.6940 H   0  0  0  0  0  0  0  0  0  0  0  0
   40.6480   31.1400   46.9240 H   0  0  0  0  0  0  0  0  0  0  0  0
   38.7380   32.5570   48.2400 C   0  0  0  0  0  0  0  0  0  0  0  0
   38.2200   33.5360   48.4110 H   0  0  0  0  0  0  0  0  0  0  0  0
   39.7400   32.6370   48.7070 H   0  0  0  0  0  0  0  0  0  0  0  0
   37.5720   30.1430   50.8620 C   0  0  0  0  0  0  0  0  0  0  0  0
   38.2540   31.2090   50.2100 C   0  0  0  0  0  0  0  0  0  0  0  0
   38.0070   31.4390   48.8860 C   0  0  0  0  0  0  0  0  0  0  0  0
   37.1280   30.6450   48.2650 N   0  0  0  0  0  0  0  0  0  0  0  0
   36.4850   29.6440   48.8730 C   0  0  0  0  0  0  0  0  0  0  0  0
   36.7190   29.4080   50.1710 N   0  0  0  0  0  0  0  0  0  0  0  0
   37.8130   30.0090   51.9250 H   0  0  0  0  0  0  0  0  0  0  0  0
   38.9580   31.8260   50.7540 H   0  0  0  0  0  0  0  0  0  0  0  0
   35.7750   29.0030   48.3700 H   0  0  0  0  0  0  0  0  0  0  0  0
  1 10  1  0  0  0  0
  2  1  1  0  0  0  0
  2 29  1  0  0  0  0
  3  2  2  0  0  0  0
  4  8  2  0  0  0  0
  4  3  1  0  0  0  0
  5  4  1  0  0  0  0
  6  5  1  0  0  0  0
  6  7  2  0  0  0  0
  7  8  1  0  0  0  0
  8  9  1  0  0  0  0
  9 15  1  0  0  0  0
  9  1  2  0  0  0  0
 11  3  1  0  0  0  0
 12  5  1  0  0  0  0
 13  6  1  0  0  0  0
 14  7  1  0  0  0  0
 15 16  1  0  0  0  0
 16 18  2  0  0  0  0
 16 17  1  0  0  0  0
 19 18  1  0  0  0  0
 20 19  1  0  0  0  0
 20 26  1  0  0  0  0
 21 20  2  0  0  0  0
 22 24  2  0  0  0  0
 22 21  1  0  0  0  0
 23 22  1  0  0  0  0
 24 25  1  0  0  0  0
 25 15  1  0  0  0  0
 25 19  2  0  0  0  0
 26 28  1  0  0  0  0
 27 26  1  0  0  0  0
 29 31  1  0  0  0  0
 29 32  1  0  0  0  0
 30 29  1  0  0  0  0
 32 33  1  0  0  0  0
 32 37  1  0  0  0  0
 34 32  1  0  0  0  0
 35 38  1  6  0  0  0
 35 42  1  0  0  0  0
 36 37  1  0  0  0  0
 36 40  1  0  0  0  0
 36 35  1  0  0  0  0
 37 35  1  0  0  0  0
 37 41  1  1  0  0  0
 39 36  1  0  0  0  0
 42 43  1  0  0  0  0
 42 44  1  0  0  0  0
 42 47  1  0  0  0  0
 45 51  1  0  0  0  0
 46 52  1  0  0  0  0
 46 45  1  0  0  0  0
 47 46  2  0  0  0  0
 48 49  2  0  0  0  0
 48 47  1  0  0  0  0
 49 50  1  0  0  0  0
 50 45  2  0  0  0  0
 53 49  1  0  0  0  0
M  END
>  <minimizedAffinity>
-6.08092833

>  <minimizedRMSD>
0.277143508

$$$$
