
 OpenBabel03272505443D

 29 31  0  0  0  0  0  0  0  0999 V2000
   31.6240   29.3520   45.5550 O   0  0  0  0  0  0  0  0  0  0  0  0
   32.1530   28.0400   47.8890 H   0  0  0  0  0  0  0  0  0  0  0  0
   31.1790   28.3680   47.6910 N   0  0  0  0  0  0  0  0  0  0  0  0
   30.7900   29.0220   46.5840 C   0  0  0  0  0  0  0  0  0  0  0  0
   29.4580   29.2430   46.7600 N   0  0  0  0  0  0  0  0  0  0  0  0
   29.0650   28.7350   47.9400 C   0  0  0  0  0  0  0  0  0  0  0  0
   27.8650   28.6630   48.6280 C   0  0  0  0  0  0  0  0  0  0  0  0
   27.8360   28.0590   49.8300 N   0  0  0  0  0  0  0  0  0  0  0  0
   28.9200   27.5160   50.3990 C   0  0  0  0  0  0  0  0  0  0  0  0
   28.7600   27.0550   51.3790 H   0  0  0  0  0  0  0  0  0  0  0  0
   30.1190   27.5640   49.7580 N   0  0  0  0  0  0  0  0  0  0  0  0
   30.1620   28.1670   48.5520 C   0  0  0  0  0  0  0  0  0  0  0  0
   26.7230   29.2480   48.0030 N   0  0  0  0  0  0  0  0  0  0  0  0
   26.8000   30.2840   48.0900 H   0  0  0  0  0  0  0  0  0  0  0  0
   25.9710   28.6600   47.5500 H   0  0  0  0  0  0  0  0  0  0  0  0
   34.1630   28.9600   45.3280 O   0  0  0  0  0  0  0  0  0  0  0  0
   33.1390   30.0470   45.6660 P   0  0  1  0  0  0  0  0  0  0  0  0
   33.2880   31.2310   44.4850 O   0  0  0  0  0  0  0  0  0  0  0  0
   32.4930   31.3290   43.8990 H   0  0  0  0  0  0  0  0  0  0  0  0
   33.4980   30.6380   47.2170 O   0  0  0  0  0  0  0  0  0  0  0  0
   36.6640   29.9860   48.8960 C   0  0  0  0  0  0  0  0  0  0  0  0
   36.2720   28.9420   49.7780 C   0  0  0  0  0  0  0  0  0  0  0  0
   34.9330   28.5420   49.7230 C   0  0  0  0  0  0  0  0  0  0  0  0
   34.1060   29.1620   48.8480 N   0  0  0  0  0  0  0  0  0  0  0  0
   34.5040   30.1420   48.0300 C   0  0  0  0  0  0  0  0  0  0  0  0
   35.7950   30.5570   48.0550 N   0  0  0  0  0  0  0  0  0  0  0  0
   37.6930   30.3770   48.8570 H   0  0  0  0  0  0  0  0  0  0  0  0
   37.0120   28.5260   50.4260 H   0  0  0  0  0  0  0  0  0  0  0  0
   34.6150   27.7480   50.3870 H   0  0  0  0  0  0  0  0  0  0  0  0
  1 17  1  0  0  0  0
  1  4  1  0  0  0  0
  3  2  1  0  0  0  0
  3 12  1  0  0  0  0
  4  5  2  0  0  0  0
  4  3  1  0  0  0  0
  5  6  1  0  0  0  0
  6 12  2  0  0  0  0
  6  7  1  0  0  0  0
  7  8  2  0  0  0  0
  8  9  1  0  0  0  0
  9 10  1  0  0  0  0
 11  9  2  0  0  0  0
 12 11  1  0  0  0  0
 13 14  1  0  0  0  0
 13  7  1  0  0  0  0
 15 13  1  0  0  0  0
 17 16  2  6  0  0  0
 17 20  1  0  0  0  0
 18 17  1  0  0  0  0
 19 18  1  0  0  0  0
 20 25  1  0  0  0  0
 21 22  1  0  0  0  0
 22 28  1  0  0  0  0
 23 22  2  0  0  0  0
 23 29  1  0  0  0  0
 24 23  1  0  0  0  0
 25 26  1  0  0  0  0
 25 24  2  0  0  0  0
 26 21  2  0  0  0  0
 27 21  1  0  0  0  0
M  END
>  <minimizedAffinity>
-4.97574091

>  <minimizedRMSD>
4.1430068

$$$$
