
 OpenBabel03262520493D

 53 58  0  0  1  0  0  0  0  0999 V2000
   39.5080   28.7720   43.1660 C   0  0  0  0  0  0  0  0  0  0  0  0
   40.3690   29.8010   42.8240 C   0  0  0  0  0  0  0  0  0  0  0  0
   41.1240   29.7200   41.6480 C   0  0  0  0  0  0  0  0  0  0  0  0
   41.0170   28.6180   40.8240 C   0  0  0  0  0  0  0  0  0  0  0  0
   41.6280   28.3180   39.6620 N   0  0  0  0  0  0  0  0  0  0  0  0
   41.1580   27.1210   39.2840 C   0  0  0  0  0  0  0  0  0  0  0  0
   40.2450   26.6180   40.1710 C   0  0  0  0  0  0  0  0  0  0  0  0
   40.1620   27.5890   41.1580 C   0  0  0  0  0  0  0  0  0  0  0  0
   39.4230   27.6780   42.3190 C   0  0  0  0  0  0  0  0  0  0  0  0
   38.8790   28.7290   44.0430 H   0  0  0  0  0  0  0  0  0  0  0  0
   41.7860   30.5510   41.4190 H   0  0  0  0  0  0  0  0  0  0  0  0
   42.3280   28.9330   39.1850 H   0  0  0  0  0  0  0  0  0  0  0  0
   41.4970   26.6530   38.3700 H   0  0  0  0  0  0  0  0  0  0  0  0
   39.7090   25.6810   40.1200 H   0  0  0  0  0  0  0  0  0  0  0  0
   38.5540   26.5880   42.6190 N   0  0  0  0  0  0  0  0  0  0  0  0
   39.0190   25.5980   43.4280 C   0  0  0  0  0  0  0  0  0  0  0  0
   39.9860   25.4720   43.9200 H   0  0  0  0  0  0  0  0  0  0  0  0
   38.0180   24.6890   43.5590 N   0  0  0  0  0  0  0  0  0  0  0  0
   36.9560   25.1130   42.8440 C   0  0  0  0  0  0  0  0  0  0  0  0
   35.6720   24.6700   42.5670 C   0  0  0  0  0  0  0  0  0  0  0  0
   34.8640   25.3850   41.7800 N   0  0  0  0  0  0  0  0  0  0  0  0
   35.2300   26.5470   41.2210 C   0  0  0  0  0  0  0  0  0  0  0  0
   34.4960   27.0340   40.6060 H   0  0  0  0  0  0  0  0  0  0  0  0
   36.4780   27.0210   41.4630 N   0  0  0  0  0  0  0  0  0  0  0  0
   37.2970   26.3200   42.2470 C   0  0  0  0  0  0  0  0  0  0  0  0
   35.2690   23.4350   43.1540 N   0  0  0  0  0  0  0  0  0  0  0  0
   34.6990   22.7630   42.5660 H   0  0  0  0  0  0  0  0  0  0  0  0
   35.4570   23.0810   44.1110 H   0  0  0  0  0  0  0  0  0  0  0  0
   40.4650   30.9860   43.7330 C   0  0  0  0  0  0  0  0  0  0  0  0
   39.9850   31.8280   43.1690 H   0  0  0  0  0  0  0  0  0  0  0  0
   41.5240   31.2270   43.9660 H   0  0  0  0  0  0  0  0  0  0  0  0
   39.6610   30.6730   44.9740 C   0  0  0  0  0  0  0  0  0  0  0  0
   39.9190   29.6230   45.2720 H   0  0  0  0  0  0  0  0  0  0  0  0
   38.5880   30.7780   44.6750 H   0  0  0  0  0  0  0  0  0  0  0  0
   38.8560   32.2990   46.7300 C   0  0  1  0  0  0  0  0  0  0  0  0
   40.0090   33.0120   46.0640 C   0  0  0  0  0  0  0  0  0  0  0  0
   39.9730   31.5380   46.1400 C   0  0  2  0  0  0  0  0  0  0  0  0
   37.8630   32.2930   46.2150 H   0  0  0  0  0  0  0  0  0  0  0  0
   39.8540   33.4320   45.0420 H   0  0  0  0  0  0  0  0  0  0  0  0
   40.7330   33.5860   46.6460 H   0  0  0  0  0  0  0  0  0  0  0  0
   40.6840   31.1210   46.9140 H   0  0  0  0  0  0  0  0  0  0  0  0
   38.7420   32.5180   48.2040 C   0  0  0  0  0  0  0  0  0  0  0  0
   38.2270   33.5010   48.3580 H   0  0  0  0  0  0  0  0  0  0  0  0
   39.7420   32.6010   48.6750 H   0  0  0  0  0  0  0  0  0  0  0  0
   37.5520   30.1440   50.8510 C   0  0  0  0  0  0  0  0  0  0  0  0
   38.2430   31.1980   50.1880 C   0  0  0  0  0  0  0  0  0  0  0  0
   38.0030   31.4110   48.8600 C   0  0  0  0  0  0  0  0  0  0  0  0
   37.1240   30.6130   48.2460 N   0  0  0  0  0  0  0  0  0  0  0  0
   36.4740   29.6230   48.8630 C   0  0  0  0  0  0  0  0  0  0  0  0
   36.7000   29.4030   50.1660 N   0  0  0  0  0  0  0  0  0  0  0  0
   37.7880   30.0230   51.9170 H   0  0  0  0  0  0  0  0  0  0  0  0
   38.9470   31.8190   50.7280 H   0  0  0  0  0  0  0  0  0  0  0  0
   35.7640   28.9780   48.3650 H   0  0  0  0  0  0  0  0  0  0  0  0
  1 10  1  0  0  0  0
  2  1  1  0  0  0  0
  2 29  1  0  0  0  0
  3  2  2  0  0  0  0
  4  8  2  0  0  0  0
  4  3  1  0  0  0  0
  5  4  1  0  0  0  0
  6  5  1  0  0  0  0
  6  7  2  0  0  0  0
  7  8  1  0  0  0  0
  8  9  1  0  0  0  0
  9 15  1  0  0  0  0
  9  1  2  0  0  0  0
 11  3  1  0  0  0  0
 12  5  1  0  0  0  0
 13  6  1  0  0  0  0
 14  7  1  0  0  0  0
 15 16  1  0  0  0  0
 16 18  2  0  0  0  0
 16 17  1  0  0  0  0
 19 18  1  0  0  0  0
 20 19  1  0  0  0  0
 20 26  1  0  0  0  0
 21 20  2  0  0  0  0
 22 24  2  0  0  0  0
 22 21  1  0  0  0  0
 23 22  1  0  0  0  0
 24 25  1  0  0  0  0
 25 15  1  0  0  0  0
 25 19  2  0  0  0  0
 26 28  1  0  0  0  0
 27 26  1  0  0  0  0
 29 31  1  0  0  0  0
 29 32  1  0  0  0  0
 30 29  1  0  0  0  0
 32 33  1  0  0  0  0
 32 37  1  0  0  0  0
 34 32  1  0  0  0  0
 35 38  1  6  0  0  0
 35 42  1  0  0  0  0
 36 37  1  0  0  0  0
 36 40  1  0  0  0  0
 36 35  1  0  0  0  0
 37 35  1  0  0  0  0
 37 41  1  1  0  0  0
 39 36  1  0  0  0  0
 42 43  1  0  0  0  0
 42 44  1  0  0  0  0
 42 47  1  0  0  0  0
 45 51  1  0  0  0  0
 46 52  1  0  0  0  0
 46 45  1  0  0  0  0
 47 46  2  0  0  0  0
 48 47  1  0  0  0  0
 48 49  2  0  0  0  0
 49 50  1  0  0  0  0
 50 45  2  0  0  0  0
 53 49  1  0  0  0  0
M  END
>  <minimizedAffinity>
-6.05168629

>  <minimizedRMSD>
0.735245228

$$$$
