
 OpenBabel03272509183D

 38 41  0  0  0  0  0  0  0  0999 V2000
   37.9450   31.4010   48.0420 C   0  0  0  0  0  0  0  0  0  0  0  0
   36.8420   31.2780   48.8800 C   0  0  0  0  0  0  0  0  0  0  0  0
   36.7090   32.3120   49.8070 C   0  0  0  0  0  0  0  0  0  0  0  0
   37.6220   33.3640   49.8610 C   0  0  0  0  0  0  0  0  0  0  0  0
   38.7000   33.3980   48.9730 C   0  0  0  0  0  0  0  0  0  0  0  0
   38.8580   32.3900   48.0460 C   0  0  0  0  0  0  0  0  0  0  0  0
   35.8820   32.3060   50.5030 H   0  0  0  0  0  0  0  0  0  0  0  0
   37.4800   34.1520   50.6000 H   0  0  0  0  0  0  0  0  0  0  0  0
   39.3940   34.2170   49.0300 H   0  0  0  0  0  0  0  0  0  0  0  0
   34.8520   30.2390   47.8960 C   0  0  0  0  0  0  0  0  0  0  0  0
   35.9080   30.2000   48.8240 C   0  0  0  0  0  0  0  0  0  0  0  0
   35.9930   29.0890   49.6600 C   0  0  0  0  0  0  0  0  0  0  0  0
   35.0530   28.1100   49.5310 N   0  0  0  0  0  0  0  0  0  0  0  0
   34.0440   28.1830   48.6200 C   0  0  0  0  0  0  0  0  0  0  0  0
   33.9490   29.2460   47.8090 N   0  0  0  0  0  0  0  0  0  0  0  0
   34.7580   31.0930   47.2290 H   0  0  0  0  0  0  0  0  0  0  0  0
   33.3040   27.4030   48.5250 H   0  0  0  0  0  0  0  0  0  0  0  0
   37.0730   28.9870   50.6520 C   0  0  0  0  0  0  0  0  0  0  0  0
   36.5950   28.6860   51.6250 H   0  0  0  0  0  0  0  0  0  0  0  0
   37.7790   28.1920   50.3520 H   0  0  0  0  0  0  0  0  0  0  0  0
   37.5660   29.9700   50.7480 H   0  0  0  0  0  0  0  0  0  0  0  0
   38.1480   30.3860   47.0710 O   0  0  0  0  0  0  0  0  0  0  0  0
   38.9410   29.7790   47.2540 H   0  0  0  0  0  0  0  0  0  0  0  0
   39.9300   32.4510   47.1850 O   0  0  0  0  0  0  0  0  0  0  0  0
   38.6450   33.9730   45.1490 H   0  0  0  0  0  0  0  0  0  0  0  0
   39.1690   33.1320   44.8960 N   0  0  0  0  0  0  0  0  0  0  0  0
   39.7930   32.3820   45.8230 C   0  0  0  0  0  0  0  0  0  0  0  0
   40.3750   31.3690   45.1360 N   0  0  0  0  0  0  0  0  0  0  0  0
   40.1110   31.5000   43.8250 C   0  0  0  0  0  0  0  0  0  0  0  0
   40.3950   30.8320   42.6370 C   0  0  0  0  0  0  0  0  0  0  0  0
   39.9400   31.2800   41.4520 N   0  0  0  0  0  0  0  0  0  0  0  0
   39.1800   32.4050   41.3760 C   0  0  0  0  0  0  0  0  0  0  0  0
   38.7870   32.8120   40.4570 H   0  0  0  0  0  0  0  0  0  0  0  0
   38.8610   33.1090   42.4870 N   0  0  0  0  0  0  0  0  0  0  0  0
   39.3350   32.6330   43.6570 C   0  0  0  0  0  0  0  0  0  0  0  0
   41.1920   29.6550   42.7370 N   0  0  0  0  0  0  0  0  0  0  0  0
   40.9380   28.7110   43.1170 H   0  0  0  0  0  0  0  0  0  0  0  0
   42.1360   29.8910   42.3490 H   0  0  0  0  0  0  0  0  0  0  0  0
  1  6  2  0  0  0  0
  1  2  1  0  0  0  0
  2  3  2  0  0  0  0
  3  4  1  0  0  0  0
  3  7  1  0  0  0  0
  4  8  1  0  0  0  0
  5  9  1  0  0  0  0
  5  4  2  0  0  0  0
  6  5  1  0  0  0  0
 10 11  1  0  0  0  0
 11  2  1  0  0  0  0
 11 12  2  0  0  0  0
 12 18  1  0  0  0  0
 13 12  1  0  0  0  0
 14 13  2  0  0  0  0
 15 10  2  0  0  0  0
 15 14  1  0  0  0  0
 16 10  1  0  0  0  0
 17 14  1  0  0  0  0
 18 21  1  0  0  0  0
 18 19  1  0  0  0  0
 20 18  1  0  0  0  0
 22 23  1  0  0  0  0
 22  1  1  0  0  0  0
 24  6  1  0  0  0  0
 26 25  1  0  0  0  0
 26 27  1  0  0  0  0
 27 24  1  0  0  0  0
 28 27  2  0  0  0  0
 29 28  1  0  0  0  0
 30 36  1  0  0  0  0
 30 29  2  0  0  0  0
 31 30  1  0  0  0  0
 32 31  2  0  0  0  0
 32 34  1  0  0  0  0
 33 32  1  0  0  0  0
 34 35  2  0  0  0  0
 35 29  1  0  0  0  0
 35 26  1  0  0  0  0
 36 37  1  0  0  0  0
 38 36  1  0  0  0  0
M  END
>  <minimizedAffinity>
-7.49075174

>  <minimizedRMSD>
0.862532258

$$$$
