
 OpenBabel03272509433D

 43 46  0  0  1  0  0  0  0  0999 V2000
   37.2280   30.9520   49.0520 C   0  0  0  0  0  0  0  0  0  0  0  0
   37.0160   31.9280   50.0280 C   0  0  0  0  0  0  0  0  0  0  0  0
   37.6080   33.1800   49.9500 C   0  0  0  0  0  0  0  0  0  0  0  0
   38.4400   33.4790   48.8670 C   0  0  0  0  0  0  0  0  0  0  0  0
   38.6380   32.5160   47.9230 C   0  0  0  0  0  0  0  0  0  0  0  0
   38.0310   31.2740   48.0310 C   0  0  0  0  0  0  0  0  0  0  0  0
   36.3600   31.6650   50.8600 H   0  0  0  0  0  0  0  0  0  0  0  0
   37.3660   33.8430   50.7620 H   0  0  0  0  0  0  0  0  0  0  0  0
   38.8590   34.4740   48.8830 H   0  0  0  0  0  0  0  0  0  0  0  0
   39.3090   32.8940   47.1460 H   0  0  0  0  0  0  0  0  0  0  0  0
   36.6390   29.6340   49.1480 C   0  0  2  0  0  0  0  0  0  0  0  0
   37.1210   29.0190   48.2930 H   0  0  0  0  0  0  0  0  0  0  0  0
   33.6950   29.8860   47.0340 C   0  0  0  0  0  0  0  0  0  0  0  0
   32.9910   28.7250   47.2980 C   0  0  0  0  0  0  0  0  0  0  0  0
   33.4910   27.8670   48.2590 C   0  0  0  0  0  0  0  0  0  0  0  0
   34.6610   28.1910   48.9130 N   0  0  0  0  0  0  0  0  0  0  0  0
   35.2860   29.3120   48.6130 C   0  0  0  0  0  0  0  0  0  0  0  0
   34.8110   30.1650   47.6770 N   0  0  0  0  0  0  0  0  0  0  0  0
   33.3070   30.5620   46.2810 H   0  0  0  0  0  0  0  0  0  0  0  0
   32.0710   28.4340   46.8080 H   0  0  0  0  0  0  0  0  0  0  0  0
   33.0080   26.9430   48.5300 H   0  0  0  0  0  0  0  0  0  0  0  0
   37.1220   28.9490   50.1230 O   0  0  0  0  0  0  0  0  0  0  0  0
   36.9740   29.2330   51.0670 H   0  0  0  0  0  0  0  0  0  0  0  0
   38.3520   30.3410   46.9770 C   0  0  0  0  0  3  0  0  0  0  0  0
   38.7190   30.7050   45.7440 C   0  0  0  0  0  3  0  0  0  0  0  0
   39.1100   29.8410   44.6050 C   0  0  0  0  0  0  0  0  0  0  0  0
   38.1930   29.6480   44.0110 H   0  0  0  0  0  0  0  0  0  0  0  0
   39.4790   28.8520   44.9450 H   0  0  0  0  0  0  0  0  0  0  0  0
   40.3070   30.6980   43.5760 S   0  0  0  0  0  0  0  0  0  0  0  0
   42.0080   31.0180   40.9720 H   0  0  0  0  0  0  0  0  0  0  0  0
   41.5230   30.1010   41.0770 N   0  0  0  0  0  0  0  0  0  0  0  0
   40.7490   29.7850   42.1310 C   0  0  0  0  0  0  0  0  0  0  0  0
   40.2580   28.5400   41.9940 N   0  0  0  0  0  0  0  0  0  0  0  0
   40.7120   28.0140   40.8260 C   0  0  0  0  0  0  0  0  0  0  0  0
   40.5380   26.8030   40.1840 C   0  0  0  0  0  0  0  0  0  0  0  0
   41.1580   26.5970   38.9860 N   0  0  0  0  0  0  0  0  0  0  0  0
   41.9290   27.5850   38.4570 C   0  0  0  0  0  0  0  0  0  0  0  0
   42.4010   27.3740   37.5010 H   0  0  0  0  0  0  0  0  0  0  0  0
   42.0920   28.7770   39.1020 N   0  0  0  0  0  0  0  0  0  0  0  0
   41.4940   29.0130   40.2870 C   0  0  0  0  0  0  0  0  0  0  0  0
   39.7100   25.8330   40.8220 N   0  0  0  0  0  0  0  0  0  0  0  0
   39.7290   25.6190   41.8380 H   0  0  0  0  0  0  0  0  0  0  0  0
   39.0760   25.3520   40.1430 H   0  0  0  0  0  0  0  0  0  0  0  0
  1 11  1  0  0  0  0
  1  2  1  0  0  0  0
  2  7  1  0  0  0  0
  3  2  2  0  0  0  0
  3  8  1  0  0  0  0
  4  9  1  0  0  0  0
  4  3  1  0  0  0  0
  5  6  1  0  0  0  0
  5  4  2  0  0  0  0
  6  1  2  0  0  0  0
 10  5  1  0  0  0  0
 11 12  1  6  0  0  0
 11 22  1  0  0  0  0
 13 14  2  0  0  0  0
 13 18  1  0  0  0  0
 14 15  1  0  0  0  0
 15 21  1  0  0  0  0
 15 16  2  0  0  0  0
 17 16  1  0  0  0  0
 17 11  1  0  0  0  0
 18 17  2  0  0  0  0
 19 13  1  0  0  0  0
 20 14  1  0  0  0  0
 22 23  1  0  0  0  0
 24  6  1  0  0  0  0
 25 24  2  0  0  0  0
 26 28  1  0  0  0  0
 26 25  1  0  0  0  0
 27 26  1  0  0  0  0
 29 26  1  0  0  0  0
 30 31  1  0  0  0  0
 31 32  1  0  0  0  0
 32 29  1  0  0  0  0
 33 32  2  0  0  0  0
 34 33  1  0  0  0  0
 35 41  1  0  0  0  0
 35 34  2  0  0  0  0
 36 35  1  0  0  0  0
 37 36  2  0  0  0  0
 37 39  1  0  0  0  0
 38 37  1  0  0  0  0
 39 40  2  0  0  0  0
 40 34  1  0  0  0  0
 40 31  1  0  0  0  0
 41 42  1  0  0  0  0
 43 41  1  0  0  0  0
M  END
>  <minimizedAffinity>
-6.38414049

>  <minimizedRMSD>
0.682939708

$$$$
