
 OpenBabel03272508083D

 29 31  0  0  0  0  0  0  0  0999 V2000
   40.1240   32.0840   46.4450 O   0  0  0  0  0  0  0  0  0  0  0  0
   39.0410   33.2860   44.2490 H   0  0  0  0  0  0  0  0  0  0  0  0
   39.6260   32.4160   44.2010 N   0  0  0  0  0  0  0  0  0  0  0  0
   40.2600   31.6480   45.1210 C   0  0  0  0  0  0  0  0  0  0  0  0
   40.8690   30.6370   44.4770 N   0  0  0  0  0  0  0  0  0  0  0  0
   40.6230   30.7650   43.1610 C   0  0  0  0  0  0  0  0  0  0  0  0
   41.0440   29.9610   42.1280 C   0  0  0  0  0  0  0  0  0  0  0  0
   40.6710   30.2870   40.8770 N   0  0  0  0  0  0  0  0  0  0  0  0
   39.8990   31.3930   40.7090 C   0  0  0  0  0  0  0  0  0  0  0  0
   39.5530   31.7260   39.7260 H   0  0  0  0  0  0  0  0  0  0  0  0
   39.4840   32.1800   41.7110 N   0  0  0  0  0  0  0  0  0  0  0  0
   39.8390   31.8830   42.9700 C   0  0  0  0  0  0  0  0  0  0  0  0
   41.8530   28.8070   42.3340 N   0  0  0  0  0  0  0  0  0  0  0  0
   41.2200   27.9550   42.3170 H   0  0  0  0  0  0  0  0  0  0  0  0
   42.8770   28.6140   42.4910 H   0  0  0  0  0  0  0  0  0  0  0  0
   38.6340   33.2320   48.1920 O   0  0  0  0  0  0  0  0  0  0  0  0
   38.5970   32.1020   47.2000 P   0  0  1  0  0  0  0  0  0  0  0  0
   37.4640   32.4220   45.9850 O   0  0  0  0  0  0  0  0  0  0  0  0
   36.5340   32.3980   46.3150 H   0  0  0  0  0  0  0  0  0  0  0  0
   38.3300   30.5910   47.8920 O   0  0  0  0  0  0  0  0  0  0  0  0
   37.2970   30.1930   51.4300 C   0  0  0  0  0  0  0  0  0  0  0  0
   38.0860   30.6340   50.3660 C   0  0  0  0  0  0  0  0  0  0  0  0
   37.7180   30.2790   49.0660 C   0  0  0  0  0  0  0  0  0  0  0  0
   36.6050   29.5180   48.9060 N   0  0  0  0  0  0  0  0  0  0  0  0
   35.8600   29.1070   49.9580 C   0  0  0  0  0  0  0  0  0  0  0  0
   36.2060   29.4420   51.2050 N   0  0  0  0  0  0  0  0  0  0  0  0
   37.6970   30.5400   52.3680 H   0  0  0  0  0  0  0  0  0  0  0  0
   38.9640   31.2280   50.4220 H   0  0  0  0  0  0  0  0  0  0  0  0
   34.9740   28.5000   49.8030 H   0  0  0  0  0  0  0  0  0  0  0  0
  1 17  1  0  0  0  0
  3  2  1  0  0  0  0
  3  4  1  0  0  0  0
  4  1  1  0  0  0  0
  5  4  2  0  0  0  0
  6  5  1  0  0  0  0
  7 13  1  0  0  0  0
  7  6  2  0  0  0  0
  8  7  1  0  0  0  0
  9  8  2  0  0  0  0
  9 11  1  0  0  0  0
 10  9  1  0  0  0  0
 11 12  2  0  0  0  0
 12  6  1  0  0  0  0
 12  3  1  0  0  0  0
 13 15  1  0  0  0  0
 14 13  1  0  0  0  0
 17 20  1  0  0  0  0
 17 16  2  1  0  0  0
 18 19  1  0  0  0  0
 18 17  1  0  0  0  0
 20 23  1  0  0  0  0
 21 27  1  0  0  0  0
 22 28  1  0  0  0  0
 22 21  2  0  0  0  0
 23 22  1  0  0  0  0
 24 23  2  0  0  0  0
 24 25  1  0  0  0  0
 25 26  2  0  0  0  0
 26 21  1  0  0  0  0
 29 25  1  0  0  0  0
M  END
>  <minimizedAffinity>
-6.14314604

>  <minimizedRMSD>
2.01419878

$$$$
