
 OpenBabel03262521523D

 28 30  0  0  0  0  0  0  0  0999 V2000
   34.6790   28.2980   48.9780 S   0  0  0  0  0  0  0  0  0  0  0  0
   31.9400   28.9730   50.3310 H   0  0  0  0  0  0  0  0  0  0  0  0
   31.8080   28.3490   49.5120 N   0  0  0  0  0  0  0  0  0  0  0  0
   32.9290   27.9980   48.8570 C   0  0  0  0  0  0  0  0  0  0  0  0
   32.5680   27.1910   47.8280 N   0  0  0  0  0  0  0  0  0  0  0  0
   31.2340   27.0150   47.8060 C   0  0  0  0  0  0  0  0  0  0  0  0
   30.3140   26.3370   47.0410 C   0  0  0  0  0  0  0  0  0  0  0  0
   28.9980   26.4210   47.3660 N   0  0  0  0  0  0  0  0  0  0  0  0
   28.5970   27.1640   48.4330 C   0  0  0  0  0  0  0  0  0  0  0  0
   27.5170   27.1800   48.6290 H   0  0  0  0  0  0  0  0  0  0  0  0
   29.4970   27.8420   49.2010 N   0  0  0  0  0  0  0  0  0  0  0  0
   30.8020   27.7610   48.8820 C   0  0  0  0  0  0  0  0  0  0  0  0
   30.7960   25.5750   45.9370 N   0  0  0  0  0  0  0  0  0  0  0  0
   30.6370   24.5650   46.1340 H   0  0  0  0  0  0  0  0  0  0  0  0
   31.2400   25.9140   45.0550 H   0  0  0  0  0  0  0  0  0  0  0  0
   35.0730   29.3200   50.4410 C   0  0  0  0  0  0  0  0  0  0  0  0
   34.5770   30.3120   50.3020 H   0  0  0  0  0  0  0  0  0  0  0  0
   34.5790   28.8690   51.3320 H   0  0  0  0  0  0  0  0  0  0  0  0
   36.8450   29.4960   50.7060 S   0  0  0  0  0  0  0  0  0  0  0  0
   37.4900   30.6230   49.4950 C   0  0  0  0  0  0  0  0  0  0  0  0
   37.6150   31.9410   49.9170 C   0  0  0  0  0  0  0  0  0  0  0  0
   38.1180   32.8780   49.0030 C   0  0  0  0  0  0  0  0  0  0  0  0
   38.4640   32.4680   47.7460 N   0  0  0  0  0  0  0  0  0  0  0  0
   38.3140   31.1640   47.4020 C   0  0  0  0  0  0  0  0  0  0  0  0
   37.8430   30.2740   48.2510 N   0  0  0  0  0  0  0  0  0  0  0  0
   37.3490   32.2900   50.9050 H   0  0  0  0  0  0  0  0  0  0  0  0
   38.2340   33.9180   49.2860 H   0  0  0  0  0  0  0  0  0  0  0  0
   38.5930   30.8520   46.3980 H   0  0  0  0  0  0  0  0  0  0  0  0
  1 16  1  0  0  0  0
  3  2  1  0  0  0  0
  4  1  1  0  0  0  0
  4  3  1  0  0  0  0
  5  4  2  0  0  0  0
  6  5  1  0  0  0  0
  6 12  1  0  0  0  0
  7  8  1  0  0  0  0
  7  6  2  0  0  0  0
  8  9  2  0  0  0  0
  9 10  1  0  0  0  0
  9 11  1  0  0  0  0
 12 11  2  0  0  0  0
 12  3  1  0  0  0  0
 13 14  1  0  0  0  0
 13  7  1  0  0  0  0
 15 13  1  0  0  0  0
 16 19  1  0  0  0  0
 16 18  1  0  0  0  0
 17 16  1  0  0  0  0
 20 21  1  0  0  0  0
 20 19  1  0  0  0  0
 21 26  1  0  0  0  0
 22 27  1  0  0  0  0
 22 21  2  0  0  0  0
 23 22  1  0  0  0  0
 24 23  2  0  0  0  0
 24 25  1  0  0  0  0
 25 20  2  0  0  0  0
 28 24  1  0  0  0  0
M  END
>  <minimizedAffinity>
-4.87068987

>  <minimizedRMSD>
1.6714896

$$$$
