
 OpenBabel03272505093D

 34 37  0  0  0  0  0  0  0  0999 V2000
   36.3430   30.9650   45.6910 Cl  0  0  0  0  0  0  0  0  0  0  0  0
   36.6350   30.7660   47.3970 C   0  0  0  0  0  0  0  0  0  0  0  0
   37.9130   31.0420   47.8400 C   0  0  0  0  0  0  0  0  0  0  0  0
   38.1570   30.8880   49.1950 C   0  0  0  0  0  0  0  0  0  0  0  0
   37.1600   30.4770   50.0370 C   0  0  0  0  0  0  0  0  0  0  0  0
   35.9060   30.2180   49.5210 C   0  0  0  0  0  0  0  0  0  0  0  0
   35.5810   30.3480   48.1910 C   0  0  0  0  0  0  0  0  0  0  0  0
   39.1600   31.1050   49.5430 H   0  0  0  0  0  0  0  0  0  0  0  0
   37.3700   30.3610   51.0990 H   0  0  0  0  0  0  0  0  0  0  0  0
   35.1280   29.8930   50.2110 H   0  0  0  0  0  0  0  0  0  0  0  0
   40.1810   33.2740   46.0670 C   0  0  0  0  0  0  0  0  0  0  0  0
   40.8820   32.4120   45.1840 C   0  0  0  0  0  0  0  0  0  0  0  0
   40.5580   31.0640   45.2160 C   0  0  0  0  0  0  0  0  0  0  0  0
   39.5910   30.6530   46.0880 N   0  0  0  0  0  0  0  0  0  0  0  0
   38.9530   31.4810   46.9000 C   0  0  0  0  0  0  0  0  0  0  0  0
   39.2510   32.7940   46.8890 N   0  0  0  0  0  0  0  0  0  0  0  0
   40.4770   34.3140   45.9960 H   0  0  0  0  0  0  0  0  0  0  0  0
   41.6410   32.7120   44.4950 H   0  0  0  0  0  0  0  0  0  0  0  0
   41.0460   30.3650   44.5800 H   0  0  0  0  0  0  0  0  0  0  0  0
   33.9840   30.0220   47.5070 S   0  0  0  0  0  0  0  0  0  0  0  0
   35.3200   27.2110   47.8160 H   0  0  0  0  0  0  0  0  0  0  0  0
   34.3190   27.1530   47.5980 N   0  0  0  0  0  0  0  0  0  0  0  0
   33.6280   28.2910   47.4400 C   0  0  0  0  0  0  0  0  0  0  0  0
   32.3420   27.9400   47.1630 N   0  0  0  0  0  0  0  0  0  0  0  0
   32.2870   26.5790   47.1600 C   0  0  0  0  0  0  0  0  0  0  0  0
   31.2850   25.6410   46.9490 C   0  0  0  0  0  0  0  0  0  0  0  0
   31.5380   24.3210   47.0120 N   0  0  0  0  0  0  0  0  0  0  0  0
   32.7680   23.8540   47.2820 C   0  0  0  0  0  0  0  0  0  0  0  0
   32.8880   22.7930   47.3150 H   0  0  0  0  0  0  0  0  0  0  0  0
   33.7720   24.7530   47.4950 N   0  0  0  0  0  0  0  0  0  0  0  0
   33.5300   26.0760   47.4340 C   0  0  0  0  0  0  0  0  0  0  0  0
   29.9810   26.1720   46.6620 N   0  0  0  0  0  0  0  0  0  0  0  0
   29.1100   26.3300   47.2380 H   0  0  0  0  0  0  0  0  0  0  0  0
   29.8980   26.4580   45.6540 H   0  0  0  0  0  0  0  0  0  0  0  0
  1  2  1  0  0  0  0
  2  3  2  0  0  0  0
  2  7  1  0  0  0  0
  3  4  1  0  0  0  0
  4  8  1  0  0  0  0
  4  5  2  0  0  0  0
  5  9  1  0  0  0  0
  6  5  1  0  0  0  0
  6 10  1  0  0  0  0
  7  6  2  0  0  0  0
 11 16  1  0  0  0  0
 12 13  1  0  0  0  0
 12 11  2  0  0  0  0
 13 14  2  0  0  0  0
 14 15  1  0  0  0  0
 15  3  1  0  0  0  0
 16 15  2  0  0  0  0
 17 11  1  0  0  0  0
 18 12  1  0  0  0  0
 19 13  1  0  0  0  0
 20  7  1  0  0  0  0
 22 21  1  0  0  0  0
 23 20  1  0  0  0  0
 23 22  1  0  0  0  0
 24 23  2  0  0  0  0
 25 24  1  0  0  0  0
 25 31  1  0  0  0  0
 26 27  1  0  0  0  0
 26 25  2  0  0  0  0
 27 28  2  0  0  0  0
 28 29  1  0  0  0  0
 28 30  1  0  0  0  0
 31 30  2  0  0  0  0
 31 22  1  0  0  0  0
 32 26  1  0  0  0  0
 32 33  1  0  0  0  0
 34 32  1  0  0  0  0
M  END
>  <minimizedAffinity>
-5.60672712

>  <minimizedRMSD>
1.38511062

$$$$
