
 OpenBabel03272508273D

 43 47  0  0  1  0  0  0  0  0999 V2000
   33.7230   28.9580   47.1830 C   0  0  2  0  0  0  0  0  0  0  0  0
   34.4280   28.1260   48.2420 C   0  0  2  0  0  0  0  0  0  0  0  0
   33.5200   27.9580   49.2490 O   0  0  0  0  0  0  0  0  0  0  0  0
   32.2490   28.0830   48.7700 C   0  0  0  0  0  0  0  0  0  0  0  0
   32.3250   28.3420   47.2820 C   0  0  1  0  0  0  0  0  0  0  0  0
   33.6260   30.0120   47.4730 H   0  0  0  0  0  0  0  0  0  0  0  0
   34.6890   27.1700   47.7330 H   0  0  0  0  0  0  0  0  0  0  0  0
   31.6930   27.1070   48.8850 H   0  0  0  0  0  0  0  0  0  0  0  0
   31.7010   28.8550   49.3220 H   0  0  0  0  0  0  0  0  0  0  0  0
   32.3890   27.3710   46.7450 H   0  0  0  0  0  0  0  0  0  0  0  0
   35.5790   30.3210   48.9910 C   0  0  1  0  0  0  0  0  0  0  0  0
   35.6180   28.9080   48.7010 C   0  0  1  0  0  0  0  0  0  0  0  0
   35.7900   29.3110   50.1300 C   0  0  0  0  0  0  0  0  0  0  0  0
   34.6910   30.9480   49.2010 H   0  0  0  0  0  0  0  0  0  0  0  0
   36.5730   28.5320   48.2280 H   0  0  0  0  0  0  0  0  0  0  0  0
   34.9140   29.0480   50.7580 H   0  0  0  0  0  0  0  0  0  0  0  0
   36.7760   29.2650   50.6150 H   0  0  0  0  0  0  0  0  0  0  0  0
   36.8020   31.2010   48.7850 C   0  0  0  0  0  0  0  0  0  0  0  0
   37.0090   32.2310   49.7030 C   0  0  0  0  0  0  0  0  0  0  0  0
   38.1260   33.0170   49.4460 C   0  0  0  0  0  0  0  0  0  0  0  0
   38.9380   32.7730   48.3690 N   0  0  0  0  0  0  0  0  0  0  0  0
   38.6910   31.7590   47.5080 C   0  0  0  0  0  0  0  0  0  0  0  0
   37.6120   30.9670   47.7200 N   0  0  0  0  0  0  0  0  0  0  0  0
   36.3600   32.3940   50.5280 H   0  0  0  0  0  0  0  0  0  0  0  0
   38.3760   33.8420   50.0970 H   0  0  0  0  0  0  0  0  0  0  0  0
   39.3620   31.6110   46.6760 H   0  0  0  0  0  0  0  0  0  0  0  0
   34.2560   28.8090   45.9170 O   0  0  0  0  0  0  0  0  0  0  0  0
   33.6420   29.2150   45.2840 H   0  0  0  0  0  0  0  0  0  0  0  0
   31.3600   29.1730   46.7840 O   0  0  0  0  0  0  0  0  0  0  0  0
   30.0000   26.6730   46.6910 H   0  0  0  0  0  0  0  0  0  0  0  0
   29.7270   27.4560   46.0670 N   0  0  0  0  0  0  0  0  0  0  0  0
   30.3040   28.6690   46.0350 C   0  0  0  0  0  0  0  0  0  0  0  0
   29.6280   29.3450   45.0840 N   0  0  0  0  0  0  0  0  0  0  0  0
   28.6610   28.5800   44.5410 C   0  0  0  0  0  0  0  0  0  0  0  0
   27.7150   28.7860   43.5580 C   0  0  0  0  0  0  0  0  0  0  0  0
   26.8390   27.8230   43.1930 N   0  0  0  0  0  0  0  0  0  0  0  0
   26.9200   26.6290   43.8330 C   0  0  0  0  0  0  0  0  0  0  0  0
   26.3170   25.7410   43.6870 H   0  0  0  0  0  0  0  0  0  0  0  0
   27.8420   26.4130   44.7960 N   0  0  0  0  0  0  0  0  0  0  0  0
   28.7250   27.3520   45.1800 C   0  0  0  0  0  0  0  0  0  0  0  0
   27.6560   30.0510   42.9070 N   0  0  0  0  0  0  0  0  0  0  0  0
   26.8490   30.7380   42.9410 H   0  0  0  0  0  0  0  0  0  0  0  0
   28.5010   30.2730   42.3640 H   0  0  0  0  0  0  0  0  0  0  0  0
  1  5  1  0  0  0  0
  1  6  1  1  0  0  0
  1  2  1  0  0  0  0
  2  7  1  6  0  0  0
  2 12  1  0  0  0  0
  2  3  1  0  0  0  0
  4  8  1  0  0  0  0
  4  3  1  0  0  0  0
  4  9  1  0  0  0  0
  5 10  1  6  0  0  0
  5  4  1  0  0  0  0
 11 14  1  6  0  0  0
 11 13  1  0  0  0  0
 12 15  1  6  0  0  0
 12 11  1  0  0  0  0
 12 13  1  0  0  0  0
 13 17  1  0  0  0  0
 13 16  1  0  0  0  0
 18 11  1  0  0  0  0
 18 19  1  0  0  0  0
 19 24  1  0  0  0  0
 20 19  2  0  0  0  0
 20 25  1  0  0  0  0
 21 20  1  0  0  0  0
 22 23  1  0  0  0  0
 22 21  2  0  0  0  0
 23 18  2  0  0  0  0
 26 22  1  0  0  0  0
 27  1  1  0  0  0  0
 28 27  1  0  0  0  0
 29  5  1  0  0  0  0
 31 30  1  0  0  0  0
 32 31  1  0  0  0  0
 32 29  1  0  0  0  0
 33 32  2  0  0  0  0
 34 33  1  0  0  0  0
 34 40  1  0  0  0  0
 35 34  2  0  0  0  0
 36 35  1  0  0  0  0
 36 37  2  0  0  0  0
 37 39  1  0  0  0  0
 38 37  1  0  0  0  0
 39 40  2  0  0  0  0
 40 31  1  0  0  0  0
 41 42  1  0  0  0  0
 41 35  1  0  0  0  0
 43 41  1  0  0  0  0
M  END
>  <minimizedAffinity>
-5.28299952

>  <minimizedRMSD>
1.01981914

$$$$
