
 OpenBabel03262521363D

 42 46  0  0  1  0  0  0  0  0999 V2000
   37.3770   27.3860   34.3290 C   0  0  1  0  0  0  0  0  0  0  0  0
   37.5190   27.0260   32.9090 C   0  0  2  0  0  0  0  0  0  0  0  0
   36.9680   28.2620   32.1890 C   0  0  0  0  0  0  0  0  0  0  0  0
   35.8970   28.5780   32.9770 O   0  0  0  0  0  0  0  0  0  0  0  0
   36.1930   28.3400   34.3060 C   0  0  0  0  0  0  0  0  0  0  0  0
   38.2990   27.9020   34.6840 H   0  0  0  0  0  0  0  0  0  0  0  0
   38.5970   26.9970   32.6190 H   0  0  0  0  0  0  0  0  0  0  0  0
   36.6690   28.0080   31.1700 H   0  0  0  0  0  0  0  0  0  0  0  0
   37.7040   29.0940   32.2280 H   0  0  0  0  0  0  0  0  0  0  0  0
   36.4900   29.3180   34.7400 H   0  0  0  0  0  0  0  0  0  0  0  0
   35.3570   27.9480   34.8890 H   0  0  0  0  0  0  0  0  0  0  0  0
   37.5830   24.5750   31.9970 C   0  0  1  0  0  0  0  0  0  0  0  0
   37.0860   25.4520   30.9740 C   0  0  0  0  0  0  0  0  0  0  0  0
   36.7680   25.7920   32.4400 C   0  0  2  0  0  0  0  0  0  0  0  0
   38.6400   24.6620   32.3560 H   0  0  0  0  0  0  0  0  0  0  0  0
   37.7750   26.0830   30.4090 H   0  0  0  0  0  0  0  0  0  0  0  0
   36.2350   25.0670   30.3520 H   0  0  0  0  0  0  0  0  0  0  0  0
   35.7150   25.6830   32.7060 H   0  0  0  0  0  0  0  0  0  0  0  0
   35.2670   21.6370   32.0350 C   0  0  0  0  0  0  0  0  0  0  0  0
   35.8460   22.8380   31.6520 C   0  0  0  0  0  0  0  0  0  0  0  0
   36.9430   23.2950   32.3590 C   0  0  0  0  0  0  0  0  0  0  0  0
   37.4040   22.5320   33.4100 N   0  0  0  0  0  0  0  0  0  0  0  0
   36.8240   21.3640   33.7680 C   0  0  0  0  0  0  0  0  0  0  0  0
   35.7370   20.9030   33.0730 N   0  0  0  0  0  0  0  0  0  0  0  0
   34.4140   21.3620   31.4200 H   0  0  0  0  0  0  0  0  0  0  0  0
   35.5100   23.4600   30.8350 H   0  0  0  0  0  0  0  0  0  0  0  0
   37.2120   20.7900   34.6000 H   0  0  0  0  0  0  0  0  0  0  0  0
   37.0950   26.3120   35.1710 O   0  0  0  0  0  0  0  0  0  0  0  0
   39.5790   25.3790   34.1220 H   0  0  0  0  0  0  0  0  0  0  0  0
   39.2100   25.0010   35.0190 N   0  0  0  0  0  0  0  0  0  0  0  0
   38.0480   25.3890   35.5770 C   0  0  0  0  0  0  0  0  0  0  0  0
   37.9210   24.6680   36.7290 N   0  0  0  0  0  0  0  0  0  0  0  0
   38.9980   23.8760   36.8300 C   0  0  0  0  0  0  0  0  0  0  0  0
   39.4230   22.9350   37.7670 C   0  0  0  0  0  0  0  0  0  0  0  0
   40.5930   22.2720   37.5960 N   0  0  0  0  0  0  0  0  0  0  0  0
   41.3820   22.4980   36.5160 C   0  0  0  0  0  0  0  0  0  0  0  0
   42.2960   21.9050   36.4870 H   0  0  0  0  0  0  0  0  0  0  0  0
   40.9830   23.3990   35.6100 N   0  0  0  0  0  0  0  0  0  0  0  0
   39.8350   24.0760   35.7410 C   0  0  0  0  0  0  0  0  0  0  0  0
   38.6010   22.6910   38.9030 N   0  0  0  0  0  0  0  0  0  0  0  0
   37.8540   22.0440   38.5940 H   0  0  0  0  0  0  0  0  0  0  0  0
   38.5320   22.9620   39.9150 H   0  0  0  0  0  0  0  0  0  0  0  0
  1  6  1  1  0  0  0
  1 28  1  0  0  0  0
  2  7  1  6  0  0  0
  2  1  1  0  0  0  0
  3  9  1  0  0  0  0
  3  2  1  0  0  0  0
  3  4  1  0  0  0  0
  4  5  1  0  0  0  0
  5  1  1  0  0  0  0
  5 10  1  0  0  0  0
  5 11  1  0  0  0  0
  8  3  1  0  0  0  0
 12 15  1  1  0  0  0
 12 21  1  0  0  0  0
 12 14  1  0  0  0  0
 13 12  1  0  0  0  0
 13 14  1  0  0  0  0
 14 18  1  1  0  0  0
 14  2  1  0  0  0  0
 16 13  1  0  0  0  0
 17 13  1  0  0  0  0
 19 24  1  0  0  0  0
 20 19  2  0  0  0  0
 20 21  1  0  0  0  0
 21 22  2  0  0  0  0
 22 23  1  0  0  0  0
 23 27  1  0  0  0  0
 24 23  2  0  0  0  0
 25 19  1  0  0  0  0
 26 20  1  0  0  0  0
 28 31  1  0  0  0  0
 29 30  1  0  0  0  0
 30 31  1  0  0  0  0
 30 39  1  0  0  0  0
 31 32  2  0  0  0  0
 32 33  1  0  0  0  0
 33 34  1  0  0  0  0
 34 40  1  0  0  0  0
 35 34  2  0  0  0  0
 36 35  1  0  0  0  0
 37 36  1  0  0  0  0
 38 39  1  0  0  0  0
 38 36  2  0  0  0  0
 39 33  2  0  0  0  0
 40 42  1  0  0  0  0
 41 40  1  0  0  0  0
M  END
>  <minimizedAffinity>
-6.16337824

$$$$

 OpenBabel03262521363D

 42 46  0  0  1  0  0  0  0  0999 V2000
   38.8570   20.5760   32.3990 C   0  0  1  0  0  0  0  0  0  0  0  0
   37.5250   20.4440   31.7890 C   0  0  2  0  0  0  0  0  0  0  0  0
   37.7370   19.3410   30.7450 C   0  0  0  0  0  0  0  0  0  0  0  0
   38.9690   19.6690   30.2530 O   0  0  0  0  0  0  0  0  0  0  0  0
   39.7780   20.1480   31.2660 C   0  0  0  0  0  0  0  0  0  0  0  0
   38.9470   19.8840   33.2690 H   0  0  0  0  0  0  0  0  0  0  0  0
   36.8040   20.0000   32.5170 H   0  0  0  0  0  0  0  0  0  0  0  0
   36.9610   19.3870   29.9790 H   0  0  0  0  0  0  0  0  0  0  0  0
   37.7970   18.3470   31.2390 H   0  0  0  0  0  0  0  0  0  0  0  0
   40.4060   19.2940   31.5950 H   0  0  0  0  0  0  0  0  0  0  0  0
   40.4400   20.9630   30.9650 H   0  0  0  0  0  0  0  0  0  0  0  0
   36.0000   22.5660   31.9040 C   0  0  1  0  0  0  0  0  0  0  0  0
   35.4280   21.6170   30.9890 C   0  0  0  0  0  0  0  0  0  0  0  0
   36.9610   21.6800   31.1100 C   0  0  2  0  0  0  0  0  0  0  0  0
   36.0670   22.3320   32.9960 H   0  0  0  0  0  0  0  0  0  0  0  0
   34.8910   20.7450   31.3660 H   0  0  0  0  0  0  0  0  0  0  0  0
   34.9820   22.0330   30.0480 H   0  0  0  0  0  0  0  0  0  0  0  0
   37.4630   22.0690   30.2210 H   0  0  0  0  0  0  0  0  0  0  0  0
   35.2850   26.0840   30.8510 C   0  0  0  0  0  0  0  0  0  0  0  0
   35.0870   24.7430   31.1390 C   0  0  0  0  0  0  0  0  0  0  0  0
   36.1600   24.0020   31.5990 C   0  0  0  0  0  0  0  0  0  0  0  0
   37.3730   24.6380   31.7480 N   0  0  0  0  0  0  0  0  0  0  0  0
   37.5470   25.9480   31.4600 C   0  0  0  0  0  0  0  0  0  0  0  0
   36.4880   26.6900   31.0040 N   0  0  0  0  0  0  0  0  0  0  0  0
   34.3850   26.5800   30.4970 H   0  0  0  0  0  0  0  0  0  0  0  0
   34.1510   24.2140   31.0330 H   0  0  0  0  0  0  0  0  0  0  0  0
   38.5140   26.4150   31.5880 H   0  0  0  0  0  0  0  0  0  0  0  0
   39.1830   21.8700   32.8020 O   0  0  0  0  0  0  0  0  0  0  0  0
   37.3720   23.7000   34.0320 H   0  0  0  0  0  0  0  0  0  0  0  0
   38.0980   23.2150   34.5980 N   0  0  0  0  0  0  0  0  0  0  0  0
   38.9870   22.3400   34.0930 C   0  0  0  0  0  0  0  0  0  0  0  0
   39.7570   21.9310   35.1420 N   0  0  0  0  0  0  0  0  0  0  0  0
   39.3150   22.5650   36.2380 C   0  0  0  0  0  0  0  0  0  0  0  0
   39.6950   22.5580   37.5800 C   0  0  0  0  0  0  0  0  0  0  0  0
   39.0410   23.3250   38.4850 N   0  0  0  0  0  0  0  0  0  0  0  0
   38.0040   24.1210   38.1190 C   0  0  0  0  0  0  0  0  0  0  0  0
   37.5580   24.6920   38.9330 H   0  0  0  0  0  0  0  0  0  0  0  0
   37.6320   24.1360   36.8340 N   0  0  0  0  0  0  0  0  0  0  0  0
   38.2510   23.3920   35.9080 C   0  0  0  0  0  0  0  0  0  0  0  0
   40.7810   21.7260   37.9720 N   0  0  0  0  0  0  0  0  0  0  0  0
   41.6480   22.2380   37.7300 H   0  0  0  0  0  0  0  0  0  0  0  0
   40.9540   20.7890   38.4120 H   0  0  0  0  0  0  0  0  0  0  0  0
  1 28  1  0  0  0  0
  1  6  1  1  0  0  0
  2  1  1  0  0  0  0
  2  7  1  1  0  0  0
  3  9  1  0  0  0  0
  3  2  1  0  0  0  0
  4  3  1  0  0  0  0
  4  5  1  0  0  0  0
  5 10  1  0  0  0  0
  5  1  1  0  0  0  0
  8  3  1  0  0  0  0
 11  5  1  0  0  0  0
 12 15  1  1  0  0  0
 13 14  1  0  0  0  0
 13 16  1  0  0  0  0
 13 12  1  0  0  0  0
 14 18  1  6  0  0  0
 14  2  1  0  0  0  0
 14 12  1  0  0  0  0
 17 13  1  0  0  0  0
 19 24  2  0  0  0  0
 19 20  1  0  0  0  0
 20 21  2  0  0  0  0
 21 22  1  0  0  0  0
 21 12  1  0  0  0  0
 23 27  1  0  0  0  0
 23 22  2  0  0  0  0
 24 23  1  0  0  0  0
 25 19  1  0  0  0  0
 26 20  1  0  0  0  0
 28 31  1  0  0  0  0
 29 30  1  0  0  0  0
 30 39  1  0  0  0  0
 31 30  1  0  0  0  0
 31 32  2  0  0  0  0
 32 33  1  0  0  0  0
 33 34  1  0  0  0  0
 34 40  1  0  0  0  0
 34 35  2  0  0  0  0
 36 35  1  0  0  0  0
 36 37  1  0  0  0  0
 38 36  2  0  0  0  0
 39 33  2  0  0  0  0
 39 38  1  0  0  0  0
 40 42  1  0  0  0  0
 41 40  1  0  0  0  0
M  END
>  <minimizedAffinity>
-5.84954977

$$$$

 OpenBabel03262521363D

 42 46  0  0  1  0  0  0  0  0999 V2000
   38.0920   25.2720   31.9080 C   0  0  1  0  0  0  0  0  0  0  0  0
   37.7320   26.1850   33.0050 C   0  0  2  0  0  0  0  0  0  0  0  0
   38.1090   27.5600   32.4400 C   0  0  0  0  0  0  0  0  0  0  0  0
   39.2820   27.2750   31.7980 O   0  0  0  0  0  0  0  0  0  0  0  0
   39.2180   26.0240   31.2150 C   0  0  0  0  0  0  0  0  0  0  0  0
   37.2210   25.1380   31.2250 H   0  0  0  0  0  0  0  0  0  0  0  0
   36.6230   26.2320   33.1270 H   0  0  0  0  0  0  0  0  0  0  0  0
   38.2460   28.2800   33.2490 H   0  0  0  0  0  0  0  0  0  0  0  0
   37.3570   27.8900   31.6910 H   0  0  0  0  0  0  0  0  0  0  0  0
   38.9580   26.1900   30.1480 H   0  0  0  0  0  0  0  0  0  0  0  0
   40.1530   25.4620   31.2550 H   0  0  0  0  0  0  0  0  0  0  0  0
   37.6460   25.3730   35.4900 C   0  0  1  0  0  0  0  0  0  0  0  0
   37.8080   26.8010   35.4590 C   0  0  0  0  0  0  0  0  0  0  0  0
   38.4440   25.9720   34.3300 C   0  0  2  0  0  0  0  0  0  0  0  0
   36.7050   24.9000   35.1130 H   0  0  0  0  0  0  0  0  0  0  0  0
   36.9550   27.4460   35.2440 H   0  0  0  0  0  0  0  0  0  0  0  0
   38.5120   27.2420   36.2140 H   0  0  0  0  0  0  0  0  0  0  0  0
   39.5360   25.9580   34.3460 H   0  0  0  0  0  0  0  0  0  0  0  0
   40.3110   23.0210   36.6570 C   0  0  0  0  0  0  0  0  0  0  0  0
   39.5880   23.8670   35.8300 C   0  0  0  0  0  0  0  0  0  0  0  0
   38.4560   24.4760   36.3390 C   0  0  0  0  0  0  0  0  0  0  0  0
   38.1040   24.2090   37.6440 N   0  0  0  0  0  0  0  0  0  0  0  0
   38.8220   23.3790   38.4340 C   0  0  0  0  0  0  0  0  0  0  0  0
   39.9460   22.7710   37.9380 N   0  0  0  0  0  0  0  0  0  0  0  0
   41.1820   22.5910   36.1680 H   0  0  0  0  0  0  0  0  0  0  0  0
   39.8350   24.0970   34.8030 H   0  0  0  0  0  0  0  0  0  0  0  0
   38.5160   23.1910   39.4550 H   0  0  0  0  0  0  0  0  0  0  0  0
   38.5500   24.0230   32.3230 O   0  0  0  0  0  0  0  0  0  0  0  0
   37.7520   22.1710   30.3050 H   0  0  0  0  0  0  0  0  0  0  0  0
   37.4380   22.0470   31.2890 N   0  0  0  0  0  0  0  0  0  0  0  0
   37.7710   22.8760   32.2960 C   0  0  0  0  0  0  0  0  0  0  0  0
   37.1670   22.3770   33.4140 N   0  0  0  0  0  0  0  0  0  0  0  0
   36.4960   21.2740   33.0520 C   0  0  0  0  0  0  0  0  0  0  0  0
   35.7050   20.3540   33.7390 C   0  0  0  0  0  0  0  0  0  0  0  0
   35.1420   19.3080   33.0870 N   0  0  0  0  0  0  0  0  0  0  0  0
   35.3270   19.1230   31.7560 C   0  0  0  0  0  0  0  0  0  0  0  0
   34.8240   18.2480   31.3430 H   0  0  0  0  0  0  0  0  0  0  0  0
   36.0830   20.0010   31.0870 N   0  0  0  0  0  0  0  0  0  0  0  0
   36.6590   21.0470   31.6930 C   0  0  0  0  0  0  0  0  0  0  0  0
   35.5070   20.5400   35.1360 N   0  0  0  0  0  0  0  0  0  0  0  0
   34.7620   21.2540   35.2360 H   0  0  0  0  0  0  0  0  0  0  0  0
   35.8760   20.1860   36.0520 H   0  0  0  0  0  0  0  0  0  0  0  0
  1  6  1  6  0  0  0
  1 28  1  0  0  0  0
  1  2  1  0  0  0  0
  2  7  1  1  0  0  0
  2 14  1  0  0  0  0
  3  2  1  0  0  0  0
  3  8  1  0  0  0  0
  4  3  1  0  0  0  0
  5 11  1  0  0  0  0
  5  4  1  0  0  0  0
  5  1  1  0  0  0  0
  9  3  1  0  0  0  0
 10  5  1  0  0  0  0
 12 15  1  6  0  0  0
 12 21  1  0  0  0  0
 13 12  1  0  0  0  0
 13 17  1  0  0  0  0
 14 18  1  6  0  0  0
 14 13  1  0  0  0  0
 14 12  1  0  0  0  0
 16 13  1  0  0  0  0
 19 24  1  0  0  0  0
 20 21  1  0  0  0  0
 20 19  2  0  0  0  0
 21 22  2  0  0  0  0
 22 23  1  0  0  0  0
 23 27  1  0  0  0  0
 24 23  2  0  0  0  0
 25 19  1  0  0  0  0
 26 20  1  0  0  0  0
 29 30  1  0  0  0  0
 30 39  1  0  0  0  0
 30 31  1  0  0  0  0
 31 28  1  0  0  0  0
 31 32  2  0  0  0  0
 33 32  1  0  0  0  0
 33 34  1  0  0  0  0
 34 40  1  0  0  0  0
 35 34  2  0  0  0  0
 36 35  1  0  0  0  0
 37 36  1  0  0  0  0
 38 39  1  0  0  0  0
 38 36  2  0  0  0  0
 39 33  2  0  0  0  0
 40 41  1  0  0  0  0
 40 42  1  0  0  0  0
M  END
>  <minimizedAffinity>
-5.83594608

$$$$

 OpenBabel03262521363D

 42 46  0  0  1  0  0  0  0  0999 V2000
   38.0330   26.3740   33.1470 C   0  0  1  0  0  0  0  0  0  0  0  0
   38.1320   25.8490   31.7760 C   0  0  2  0  0  0  0  0  0  0  0  0
   37.6780   27.0400   30.9230 C   0  0  0  0  0  0  0  0  0  0  0  0
   36.6440   27.5290   31.6710 O   0  0  0  0  0  0  0  0  0  0  0  0
   36.9310   27.4150   33.0180 C   0  0  0  0  0  0  0  0  0  0  0  0
   38.9970   26.8480   33.4430 H   0  0  0  0  0  0  0  0  0  0  0  0
   39.2010   25.6990   31.4910 H   0  0  0  0  0  0  0  0  0  0  0  0
   37.3510   26.7010   29.9380 H   0  0  0  0  0  0  0  0  0  0  0  0
   38.4810   27.8070   30.8700 H   0  0  0  0  0  0  0  0  0  0  0  0
   37.3120   28.4070   33.3410 H   0  0  0  0  0  0  0  0  0  0  0  0
   36.0710   27.1600   33.6410 H   0  0  0  0  0  0  0  0  0  0  0  0
   37.9010   23.2490   31.6030 C   0  0  1  0  0  0  0  0  0  0  0  0
   37.8700   23.8200   30.2840 C   0  0  0  0  0  0  0  0  0  0  0  0
   37.2780   24.6380   31.4460 C   0  0  2  0  0  0  0  0  0  0  0  0
   38.8300   23.3070   32.2240 H   0  0  0  0  0  0  0  0  0  0  0  0
   38.7930   24.1490   29.8060 H   0  0  0  0  0  0  0  0  0  0  0  0
   37.1370   23.3730   29.5620 H   0  0  0  0  0  0  0  0  0  0  0  0
   36.1930   24.7530   31.4030 H   0  0  0  0  0  0  0  0  0  0  0  0
   35.1000   20.7710   31.7110 C   0  0  0  0  0  0  0  0  0  0  0  0
   35.9960   21.7070   31.2160 C   0  0  0  0  0  0  0  0  0  0  0  0
   36.9360   22.2390   32.0810 C   0  0  0  0  0  0  0  0  0  0  0  0
   36.9330   21.8100   33.3900 N   0  0  0  0  0  0  0  0  0  0  0  0
   36.0490   20.8970   33.8530 C   0  0  0  0  0  0  0  0  0  0  0  0
   35.1140   20.3640   33.0040 N   0  0  0  0  0  0  0  0  0  0  0  0
   34.4030   20.4130   30.9580 H   0  0  0  0  0  0  0  0  0  0  0  0
   36.0260   22.0660   30.1980 H   0  0  0  0  0  0  0  0  0  0  0  0
   36.0740   20.5830   34.8880 H   0  0  0  0  0  0  0  0  0  0  0  0
   37.6710   25.4260   34.1030 O   0  0  0  0  0  0  0  0  0  0  0  0
   40.2970   24.4400   33.5810 H   0  0  0  0  0  0  0  0  0  0  0  0
   39.8250   24.2320   34.4850 N   0  0  0  0  0  0  0  0  0  0  0  0
   38.5900   24.6600   34.8050 C   0  0  0  0  0  0  0  0  0  0  0  0
   38.3350   24.1830   36.0580 N   0  0  0  0  0  0  0  0  0  0  0  0
   39.4130   23.4890   36.4520 C   0  0  0  0  0  0  0  0  0  0  0  0
   39.7390   22.7840   37.6100 C   0  0  0  0  0  0  0  0  0  0  0  0
   40.9410   22.1660   37.7240 N   0  0  0  0  0  0  0  0  0  0  0  0
   41.8560   22.2120   36.7240 C   0  0  0  0  0  0  0  0  0  0  0  0
   42.7840   21.6780   36.9310 H   0  0  0  0  0  0  0  0  0  0  0  0
   41.5520   22.8850   35.6090 N   0  0  0  0  0  0  0  0  0  0  0  0
   40.3780   23.5100   35.4550 C   0  0  0  0  0  0  0  0  0  0  0  0
   38.7840   22.7310   38.6630 N   0  0  0  0  0  0  0  0  0  0  0  0
   38.1030   21.9940   38.4080 H   0  0  0  0  0  0  0  0  0  0  0  0
   38.5760   23.1980   39.5800 H   0  0  0  0  0  0  0  0  0  0  0  0
  1  6  1  1  0  0  0
  1 28  1  0  0  0  0
  2  7  1  6  0  0  0
  2  1  1  0  0  0  0
  3  4  1  0  0  0  0
  3  2  1  0  0  0  0
  4  5  1  0  0  0  0
  5  1  1  0  0  0  0
  5 10  1  0  0  0  0
  5 11  1  0  0  0  0
  8  3  1  0  0  0  0
  9  3  1  0  0  0  0
 12 21  1  0  0  0  0
 12 15  1  1  0  0  0
 13 14  1  0  0  0  0
 13 12  1  0  0  0  0
 14 18  1  1  0  0  0
 14 12  1  0  0  0  0
 14  2  1  0  0  0  0
 16 13  1  0  0  0  0
 17 13  1  0  0  0  0
 19 24  1  0  0  0  0
 20 19  2  0  0  0  0
 20 21  1  0  0  0  0
 21 22  2  0  0  0  0
 22 23  1  0  0  0  0
 23 27  1  0  0  0  0
 24 23  2  0  0  0  0
 25 19  1  0  0  0  0
 26 20  1  0  0  0  0
 28 31  1  0  0  0  0
 29 30  1  0  0  0  0
 30 31  1  0  0  0  0
 30 39  1  0  0  0  0
 31 32  2  0  0  0  0
 32 33  1  0  0  0  0
 33 34  1  0  0  0  0
 34 35  2  0  0  0  0
 34 40  1  0  0  0  0
 36 37  1  0  0  0  0
 36 35  1  0  0  0  0
 38 36  2  0  0  0  0
 39 38  1  0  0  0  0
 39 33  2  0  0  0  0
 40 42  1  0  0  0  0
 41 40  1  0  0  0  0
M  END
>  <minimizedAffinity>
-5.70300198

$$$$

 OpenBabel03262521363D

 42 46  0  0  1  0  0  0  0  0999 V2000
   38.9370   23.3510   35.6410 C   0  0  1  0  0  0  0  0  0  0  0  0
   38.6480   24.5660   36.4200 C   0  0  2  0  0  0  0  0  0  0  0  0
   37.9450   24.0110   37.6660 C   0  0  0  0  0  0  0  0  0  0  0  0
   37.1610   23.0340   37.1200 O   0  0  0  0  0  0  0  0  0  0  0  0
   37.8250   22.4110   36.0800 C   0  0  0  0  0  0  0  0  0  0  0  0
   39.9360   22.9470   35.9240 H   0  0  0  0  0  0  0  0  0  0  0  0
   39.5930   25.0120   36.8130 H   0  0  0  0  0  0  0  0  0  0  0  0
   37.3560   24.7920   38.1500 H   0  0  0  0  0  0  0  0  0  0  0  0
   38.6840   23.5420   38.3500 H   0  0  0  0  0  0  0  0  0  0  0  0
   38.2630   21.4820   36.5030 H   0  0  0  0  0  0  0  0  0  0  0  0
   37.1850   22.1350   35.2400 H   0  0  0  0  0  0  0  0  0  0  0  0
   38.3570   26.4640   34.6450 C   0  0  1  0  0  0  0  0  0  0  0  0
   38.2960   27.0310   35.9640 C   0  0  0  0  0  0  0  0  0  0  0  0
   37.7580   25.6040   35.7590 C   0  0  2  0  0  0  0  0  0  0  0  0
   39.3060   26.0070   34.2660 H   0  0  0  0  0  0  0  0  0  0  0  0
   39.2110   27.1880   36.5370 H   0  0  0  0  0  0  0  0  0  0  0  0
   37.5320   27.8360   36.1290 H   0  0  0  0  0  0  0  0  0  0  0  0
   36.6750   25.5150   35.8660 H   0  0  0  0  0  0  0  0  0  0  0  0
   35.8430   28.2470   32.5240 C   0  0  0  0  0  0  0  0  0  0  0  0
   36.7580   28.0050   33.5370 C   0  0  0  0  0  0  0  0  0  0  0  0
   37.3860   26.7730   33.5750 C   0  0  0  0  0  0  0  0  0  0  0  0
   37.0690   25.8500   32.6030 N   0  0  0  0  0  0  0  0  0  0  0  0
   36.1720   26.1060   31.6240 C   0  0  0  0  0  0  0  0  0  0  0  0
   35.5450   27.3240   31.5780 N   0  0  0  0  0  0  0  0  0  0  0  0
   35.4040   29.2400   32.5770 H   0  0  0  0  0  0  0  0  0  0  0  0
   37.0300   28.7050   34.3140 H   0  0  0  0  0  0  0  0  0  0  0  0
   35.9460   25.3570   30.8770 H   0  0  0  0  0  0  0  0  0  0  0  0
   38.8830   23.5250   34.2590 O   0  0  0  0  0  0  0  0  0  0  0  0
   36.5010   23.3320   32.7000 H   0  0  0  0  0  0  0  0  0  0  0  0
   37.2060   22.5660   32.6850 N   0  0  0  0  0  0  0  0  0  0  0  0
   38.3510   22.5830   33.3910 C   0  0  0  0  0  0  0  0  0  0  0  0
   38.9910   21.4120   33.1050 N   0  0  0  0  0  0  0  0  0  0  0  0
   38.2210   20.7320   32.2430 C   0  0  0  0  0  0  0  0  0  0  0  0
   38.3410   19.4980   31.6040 C   0  0  0  0  0  0  0  0  0  0  0  0
   37.3730   19.0620   30.7610 N   0  0  0  0  0  0  0  0  0  0  0  0
   36.2640   19.8040   30.5150 C   0  0  0  0  0  0  0  0  0  0  0  0
   35.5570   19.3490   29.8220 H   0  0  0  0  0  0  0  0  0  0  0  0
   36.1390   20.9890   31.1240 N   0  0  0  0  0  0  0  0  0  0  0  0
   37.0720   21.4570   31.9630 C   0  0  0  0  0  0  0  0  0  0  0  0
   39.5020   18.7140   31.8570 N   0  0  0  0  0  0  0  0  0  0  0  0
   39.3410   18.2300   32.7580 H   0  0  0  0  0  0  0  0  0  0  0  0
   40.4300   18.4930   31.4200 H   0  0  0  0  0  0  0  0  0  0  0  0
  1  6  1  1  0  0  0
  1  5  1  0  0  0  0
  1  2  1  0  0  0  0
  2  7  1  1  0  0  0
  2  3  1  0  0  0  0
  3  8  1  0  0  0  0
  3  9  1  0  0  0  0
  4  3  1  0  0  0  0
  5 10  1  0  0  0  0
  5  4  1  0  0  0  0
 11  5  1  0  0  0  0
 12 15  1  6  0  0  0
 12 14  1  0  0  0  0
 12 13  1  0  0  0  0
 13 17  1  0  0  0  0
 13 16  1  0  0  0  0
 14 18  1  1  0  0  0
 14 13  1  0  0  0  0
 14  2  1  0  0  0  0
 19 25  1  0  0  0  0
 19 20  1  0  0  0  0
 20 21  2  0  0  0  0
 20 26  1  0  0  0  0
 21 12  1  0  0  0  0
 22 21  1  0  0  0  0
 23 22  2  0  0  0  0
 24 23  1  0  0  0  0
 24 19  2  0  0  0  0
 27 23  1  0  0  0  0
 28  1  1  0  0  0  0
 30 29  1  0  0  0  0
 30 31  1  0  0  0  0
 31 28  1  0  0  0  0
 32 31  2  0  0  0  0
 33 32  1  0  0  0  0
 34 40  1  0  0  0  0
 34 33  2  0  0  0  0
 35 34  1  0  0  0  0
 36 35  2  0  0  0  0
 36 38  1  0  0  0  0
 37 36  1  0  0  0  0
 38 39  2  0  0  0  0
 39 33  1  0  0  0  0
 39 30  1  0  0  0  0
 40 41  1  0  0  0  0
 42 40  1  0  0  0  0
M  END
>  <minimizedAffinity>
-5.56873989

$$$$

 OpenBabel03262521363D

 42 46  0  0  1  0  0  0  0  0999 V2000
   38.7020   23.2990   35.5980 C   0  0  1  0  0  0  0  0  0  0  0  0
   38.6650   24.5970   36.2900 C   0  0  2  0  0  0  0  0  0  0  0  0
   38.1700   24.2210   37.6920 C   0  0  0  0  0  0  0  0  0  0  0  0
   37.2200   23.2820   37.4000 O   0  0  0  0  0  0  0  0  0  0  0  0
   37.6230   22.5110   36.3250 C   0  0  0  0  0  0  0  0  0  0  0  0
   39.7020   22.8250   35.7350 H   0  0  0  0  0  0  0  0  0  0  0  0
   39.7000   24.9810   36.4580 H   0  0  0  0  0  0  0  0  0  0  0  0
   37.7470   25.0930   38.1940 H   0  0  0  0  0  0  0  0  0  0  0  0
   38.9860   23.7410   38.2750 H   0  0  0  0  0  0  0  0  0  0  0  0
   38.0580   21.5830   36.7530 H   0  0  0  0  0  0  0  0  0  0  0  0
   36.8150   22.2290   35.6480 H   0  0  0  0  0  0  0  0  0  0  0  0
   38.3220   26.5850   34.6260 C   0  0  1  0  0  0  0  0  0  0  0  0
   38.2740   27.0780   35.9750 C   0  0  0  0  0  0  0  0  0  0  0  0
   37.7520   25.6570   35.7010 C   0  0  2  0  0  0  0  0  0  0  0  0
   39.2700   26.1630   34.2090 H   0  0  0  0  0  0  0  0  0  0  0  0
   39.1960   27.2170   36.5430 H   0  0  0  0  0  0  0  0  0  0  0  0
   37.5020   27.8620   36.1960 H   0  0  0  0  0  0  0  0  0  0  0  0
   36.6720   25.5480   35.8180 H   0  0  0  0  0  0  0  0  0  0  0  0
   36.0860   26.4160   31.6310 C   0  0  0  0  0  0  0  0  0  0  0  0
   37.0120   26.0370   32.5920 C   0  0  0  0  0  0  0  0  0  0  0  0
   37.3300   26.9390   33.5900 C   0  0  0  0  0  0  0  0  0  0  0  0
   36.7100   28.1690   33.5780 N   0  0  0  0  0  0  0  0  0  0  0  0
   35.8110   28.5200   32.6310 C   0  0  0  0  0  0  0  0  0  0  0  0
   35.4880   27.6320   31.6380 N   0  0  0  0  0  0  0  0  0  0  0  0
   35.9020   25.6410   30.8910 H   0  0  0  0  0  0  0  0  0  0  0  0
   37.5160   25.0830   32.6300 H   0  0  0  0  0  0  0  0  0  0  0  0
   35.3430   29.4950   32.6520 H   0  0  0  0  0  0  0  0  0  0  0  0
   38.4010   23.3600   34.2390 O   0  0  0  0  0  0  0  0  0  0  0  0
   39.8850   21.2870   32.9580 H   0  0  0  0  0  0  0  0  0  0  0  0
   38.8460   21.3040   32.9020 N   0  0  0  0  0  0  0  0  0  0  0  0
   38.0770   22.2460   33.4780 C   0  0  0  0  0  0  0  0  0  0  0  0
   36.7860   21.9200   33.1760 N   0  0  0  0  0  0  0  0  0  0  0  0
   36.8150   20.8030   32.4360 C   0  0  0  0  0  0  0  0  0  0  0  0
   35.8340   20.0090   31.8430 C   0  0  0  0  0  0  0  0  0  0  0  0
   36.1760   18.9050   31.1340 N   0  0  0  0  0  0  0  0  0  0  0  0
   37.4730   18.5410   30.9770 C   0  0  0  0  0  0  0  0  0  0  0  0
   37.6250   17.6380   30.3860 H   0  0  0  0  0  0  0  0  0  0  0  0
   38.4230   19.2970   31.5410 N   0  0  0  0  0  0  0  0  0  0  0  0
   38.1280   20.3930   32.2500 C   0  0  0  0  0  0  0  0  0  0  0  0
   34.4710   20.3840   32.0040 N   0  0  0  0  0  0  0  0  0  0  0  0
   34.2850   21.1290   31.3090 H   0  0  0  0  0  0  0  0  0  0  0  0
   33.6360   20.1400   32.5920 H   0  0  0  0  0  0  0  0  0  0  0  0
  1  6  1  1  0  0  0
  1  2  1  0  0  0  0
  1  5  1  0  0  0  0
  2  7  1  1  0  0  0
  2  3  1  0  0  0  0
  3  8  1  0  0  0  0
  3  9  1  0  0  0  0
  4  3  1  0  0  0  0
  5 10  1  0  0  0  0
  5  4  1  0  0  0  0
 11  5  1  0  0  0  0
 12 15  1  6  0  0  0
 12 14  1  0  0  0  0
 12 13  1  0  0  0  0
 13 17  1  0  0  0  0
 13 16  1  0  0  0  0
 14 18  1  1  0  0  0
 14 13  1  0  0  0  0
 14  2  1  0  0  0  0
 19 24  2  0  0  0  0
 19 20  1  0  0  0  0
 20 26  1  0  0  0  0
 20 21  2  0  0  0  0
 21 12  1  0  0  0  0
 22 21  1  0  0  0  0
 23 27  1  0  0  0  0
 23 22  2  0  0  0  0
 24 23  1  0  0  0  0
 25 19  1  0  0  0  0
 28  1  1  0  0  0  0
 30 29  1  0  0  0  0
 30 31  1  0  0  0  0
 31 28  1  0  0  0  0
 32 31  2  0  0  0  0
 33 32  1  0  0  0  0
 34 40  1  0  0  0  0
 34 33  2  0  0  0  0
 35 34  1  0  0  0  0
 36 35  2  0  0  0  0
 36 38  1  0  0  0  0
 37 36  1  0  0  0  0
 38 39  2  0  0  0  0
 39 33  1  0  0  0  0
 39 30  1  0  0  0  0
 40 42  1  0  0  0  0
 41 40  1  0  0  0  0
M  END
>  <minimizedAffinity>
-5.56864738

$$$$

 OpenBabel03262521363D

 42 46  0  0  1  0  0  0  0  0999 V2000
   38.1160   26.6420   34.1180 C   0  0  1  0  0  0  0  0  0  0  0  0
   37.7240   26.5170   32.7050 C   0  0  2  0  0  0  0  0  0  0  0  0
   36.9510   27.8180   32.4520 C   0  0  0  0  0  0  0  0  0  0  0  0
   36.2480   27.9450   33.6170 O   0  0  0  0  0  0  0  0  0  0  0  0
   37.0110   27.5190   34.6870 C   0  0  0  0  0  0  0  0  0  0  0  0
   39.1060   27.1480   34.1940 H   0  0  0  0  0  0  0  0  0  0  0  0
   38.6190   26.5960   32.0420 H   0  0  0  0  0  0  0  0  0  0  0  0
   36.2970   27.7100   31.5840 H   0  0  0  0  0  0  0  0  0  0  0  0
   37.6540   28.6740   32.3580 H   0  0  0  0  0  0  0  0  0  0  0  0
   37.4520   28.4320   35.1390 H   0  0  0  0  0  0  0  0  0  0  0  0
   36.4470   26.9930   35.4600 H   0  0  0  0  0  0  0  0  0  0  0  0
   37.5320   24.0230   31.9420 C   0  0  1  0  0  0  0  0  0  0  0  0
   37.0670   24.8820   30.8880 C   0  0  0  0  0  0  0  0  0  0  0  0
   36.8470   25.3310   32.3430 C   0  0  2  0  0  0  0  0  0  0  0  0
   38.6070   24.0350   32.2510 H   0  0  0  0  0  0  0  0  0  0  0  0
   37.7810   25.4150   30.2580 H   0  0  0  0  0  0  0  0  0  0  0  0
   36.1580   24.5400   30.3270 H   0  0  0  0  0  0  0  0  0  0  0  0
   35.8020   25.3330   32.6580 H   0  0  0  0  0  0  0  0  0  0  0  0
   35.0400   21.2430   32.1810 C   0  0  0  0  0  0  0  0  0  0  0  0
   35.7070   22.3600   31.7010 C   0  0  0  0  0  0  0  0  0  0  0  0
   36.8000   22.8280   32.4070 C   0  0  0  0  0  0  0  0  0  0  0  0
   37.1700   22.1590   33.5530 N   0  0  0  0  0  0  0  0  0  0  0  0
   36.5050   21.0710   34.0060 C   0  0  0  0  0  0  0  0  0  0  0  0
   35.4210   20.6000   33.3120 N   0  0  0  0  0  0  0  0  0  0  0  0
   34.1980   20.9520   31.5590 H   0  0  0  0  0  0  0  0  0  0  0  0
   35.4440   22.9080   30.8080 H   0  0  0  0  0  0  0  0  0  0  0  0
   36.8220   20.5700   34.9100 H   0  0  0  0  0  0  0  0  0  0  0  0
   38.1600   25.4350   34.8140 O   0  0  0  0  0  0  0  0  0  0  0  0
   40.8530   25.5640   33.8800 H   0  0  0  0  0  0  0  0  0  0  0  0
   40.5860   24.8950   34.6300 N   0  0  0  0  0  0  0  0  0  0  0  0
   39.3400   24.7740   35.1230 C   0  0  0  0  0  0  0  0  0  0  0  0
   39.4010   23.8010   36.0780 N   0  0  0  0  0  0  0  0  0  0  0  0
   40.6690   23.3690   36.1320 C   0  0  0  0  0  0  0  0  0  0  0  0
   41.3330   22.4080   36.8950 C   0  0  0  0  0  0  0  0  0  0  0  0
   42.6590   22.1870   36.7230 N   0  0  0  0  0  0  0  0  0  0  0  0
   43.3790   22.8860   35.8090 C   0  0  0  0  0  0  0  0  0  0  0  0
   44.4340   22.6200   35.7600 H   0  0  0  0  0  0  0  0  0  0  0  0
   42.7510   23.8090   35.0710 N   0  0  0  0  0  0  0  0  0  0  0  0
   41.4430   24.0600   35.2110 C   0  0  0  0  0  0  0  0  0  0  0  0
   40.5850   21.6720   37.8560 N   0  0  0  0  0  0  0  0  0  0  0  0
   40.0960   20.9200   37.3370 H   0  0  0  0  0  0  0  0  0  0  0  0
   40.3910   21.6660   38.8870 H   0  0  0  0  0  0  0  0  0  0  0  0
  1  6  1  1  0  0  0
  1  5  1  0  0  0  0
  1 28  1  0  0  0  0
  2  7  1  6  0  0  0
  2  1  1  0  0  0  0
  3  2  1  0  0  0  0
  3  4  1  0  0  0  0
  4  5  1  0  0  0  0
  5 10  1  0  0  0  0
  5 11  1  0  0  0  0
  8  3  1  0  0  0  0
  9  3  1  0  0  0  0
 12 15  1  1  0  0  0
 12 14  1  0  0  0  0
 12 21  1  0  0  0  0
 13 12  1  0  0  0  0
 13 14  1  0  0  0  0
 14 18  1  1  0  0  0
 14  2  1  0  0  0  0
 16 13  1  0  0  0  0
 17 13  1  0  0  0  0
 19 24  1  0  0  0  0
 20 19  2  0  0  0  0
 20 21  1  0  0  0  0
 21 22  2  0  0  0  0
 22 23  1  0  0  0  0
 23 27  1  0  0  0  0
 24 23  2  0  0  0  0
 25 19  1  0  0  0  0
 26 20  1  0  0  0  0
 28 31  1  0  0  0  0
 29 30  1  0  0  0  0
 30 31  1  0  0  0  0
 30 39  1  0  0  0  0
 31 32  2  0  0  0  0
 32 33  1  0  0  0  0
 33 34  1  0  0  0  0
 34 40  1  0  0  0  0
 35 34  2  0  0  0  0
 36 35  1  0  0  0  0
 37 36  1  0  0  0  0
 38 39  1  0  0  0  0
 38 36  2  0  0  0  0
 39 33  2  0  0  0  0
 40 42  1  0  0  0  0
 41 40  1  0  0  0  0
M  END
>  <minimizedAffinity>
-5.54687119

$$$$

 OpenBabel03262521363D

 42 46  0  0  1  0  0  0  0  0999 V2000
   36.8940   27.3500   32.1230 C   0  0  1  0  0  0  0  0  0  0  0  0
   35.9810   28.3230   31.5020 C   0  0  2  0  0  0  0  0  0  0  0  0
   36.7030   28.6820   30.1980 C   0  0  0  0  0  0  0  0  0  0  0  0
   38.0030   28.7440   30.6170 O   0  0  0  0  0  0  0  0  0  0  0  0
   38.2470   27.7740   31.5700 C   0  0  0  0  0  0  0  0  0  0  0  0
   36.6330   26.3180   31.7910 H   0  0  0  0  0  0  0  0  0  0  0  0
   35.0420   27.8190   31.1680 H   0  0  0  0  0  0  0  0  0  0  0  0
   36.3460   29.6400   29.8150 H   0  0  0  0  0  0  0  0  0  0  0  0
   36.6000   27.8570   29.4590 H   0  0  0  0  0  0  0  0  0  0  0  0
   38.7170   26.9220   31.0340 H   0  0  0  0  0  0  0  0  0  0  0  0
   38.9200   28.0880   32.3690 H   0  0  0  0  0  0  0  0  0  0  0  0
   34.4110   29.6620   33.1080 C   0  0  1  0  0  0  0  0  0  0  0  0
   34.4110   30.2850   31.8130 C   0  0  0  0  0  0  0  0  0  0  0  0
   35.7000   29.5910   32.2890 C   0  0  2  0  0  0  0  0  0  0  0  0
   33.9790   28.6390   33.2460 H   0  0  0  0  0  0  0  0  0  0  0  0
   33.8340   29.8520   30.9950 H   0  0  0  0  0  0  0  0  0  0  0  0
   34.4230   31.4060   31.7950 H   0  0  0  0  0  0  0  0  0  0  0  0
   36.5250   30.2760   32.4970 H   0  0  0  0  0  0  0  0  0  0  0  0
   35.9420   31.5160   35.9750 C   0  0  0  0  0  0  0  0  0  0  0  0
   35.8290   30.8330   34.7730 C   0  0  0  0  0  0  0  0  0  0  0  0
   34.5760   30.4060   34.3740 C   0  0  0  0  0  0  0  0  0  0  0  0
   33.5030   30.6810   35.1920 N   0  0  0  0  0  0  0  0  0  0  0  0
   33.6340   31.3470   36.3620 C   0  0  0  0  0  0  0  0  0  0  0  0
   34.8720   31.7740   36.7660 N   0  0  0  0  0  0  0  0  0  0  0  0
   36.9630   31.8100   36.2020 H   0  0  0  0  0  0  0  0  0  0  0  0
   36.6490   30.6010   34.1090 H   0  0  0  0  0  0  0  0  0  0  0  0
   32.7690   31.5450   36.9810 H   0  0  0  0  0  0  0  0  0  0  0  0
   36.9250   27.3930   33.5160 O   0  0  0  0  0  0  0  0  0  0  0  0
   37.4110   27.0180   36.3020 H   0  0  0  0  0  0  0  0  0  0  0  0
   37.5670   26.2400   35.6300 N   0  0  0  0  0  0  0  0  0  0  0  0
   37.3610   26.3380   34.3030 C   0  0  0  0  0  0  0  0  0  0  0  0
   37.6770   25.1190   33.7780 N   0  0  0  0  0  0  0  0  0  0  0  0
   38.0590   24.3300   34.7930 C   0  0  0  0  0  0  0  0  0  0  0  0
   38.4890   23.0060   34.8810 C   0  0  0  0  0  0  0  0  0  0  0  0
   38.8160   22.4660   36.0800 N   0  0  0  0  0  0  0  0  0  0  0  0
   38.7380   23.1890   37.2250 C   0  0  0  0  0  0  0  0  0  0  0  0
   39.0270   22.6490   38.1270 H   0  0  0  0  0  0  0  0  0  0  0  0
   38.3280   24.4610   37.1520 N   0  0  0  0  0  0  0  0  0  0  0  0
   37.9950   25.0320   35.9880 C   0  0  0  0  0  0  0  0  0  0  0  0
   38.5730   22.2400   33.6850 N   0  0  0  0  0  0  0  0  0  0  0  0
   39.4670   22.4990   33.2300 H   0  0  0  0  0  0  0  0  0  0  0  0
   38.0210   21.5240   33.1510 H   0  0  0  0  0  0  0  0  0  0  0  0
  1  6  1  6  0  0  0
  1 28  1  0  0  0  0
  2  7  1  6  0  0  0
  2  1  1  0  0  0  0
  2 14  1  0  0  0  0
  3  4  1  0  0  0  0
  3  2  1  0  0  0  0
  4  5  1  0  0  0  0
  5  1  1  0  0  0  0
  5 11  1  0  0  0  0
  8  3  1  0  0  0  0
  9  3  1  0  0  0  0
 10  5  1  0  0  0  0
 12 15  1  1  0  0  0
 12 21  1  0  0  0  0
 13 14  1  0  0  0  0
 13 12  1  0  0  0  0
 14 18  1  1  0  0  0
 14 12  1  0  0  0  0
 16 13  1  0  0  0  0
 17 13  1  0  0  0  0
 19 25  1  0  0  0  0
 19 24  1  0  0  0  0
 20 19  2  0  0  0  0
 21 20  1  0  0  0  0
 21 22  2  0  0  0  0
 22 23  1  0  0  0  0
 23 24  2  0  0  0  0
 23 27  1  0  0  0  0
 26 20  1  0  0  0  0
 28 31  1  0  0  0  0
 30 39  1  0  0  0  0
 30 29  1  0  0  0  0
 31 30  1  0  0  0  0
 32 31  2  0  0  0  0
 32 33  1  0  0  0  0
 33 34  2  0  0  0  0
 33 39  1  0  0  0  0
 34 35  1  0  0  0  0
 35 36  2  0  0  0  0
 36 37  1  0  0  0  0
 38 36  1  0  0  0  0
 39 38  2  0  0  0  0
 40 34  1  0  0  0  0
 41 40  1  0  0  0  0
 42 40  1  0  0  0  0
M  END
>  <minimizedAffinity>
-5.53550482

$$$$

 OpenBabel03262521363D

 42 46  0  0  1  0  0  0  0  0999 V2000
   33.3220   29.5440   34.4110 C   0  0  1  0  0  0  0  0  0  0  0  0
   33.2950   30.4340   35.5830 C   0  0  2  0  0  0  0  0  0  0  0  0
   31.7970   30.7000   35.7730 C   0  0  0  0  0  0  0  0  0  0  0  0
   31.3810   30.8360   34.4780 O   0  0  0  0  0  0  0  0  0  0  0  0
   32.0650   29.9580   33.6590 C   0  0  0  0  0  0  0  0  0  0  0  0
   33.2580   28.4810   34.7400 H   0  0  0  0  0  0  0  0  0  0  0  0
   33.5940   29.8770   36.5030 H   0  0  0  0  0  0  0  0  0  0  0  0
   31.6420   31.6110   36.3540 H   0  0  0  0  0  0  0  0  0  0  0  0
   31.3000   29.8130   36.2220 H   0  0  0  0  0  0  0  0  0  0  0  0
   31.4020   29.0780   33.5230 H   0  0  0  0  0  0  0  0  0  0  0  0
   32.3080   30.3590   32.6730 H   0  0  0  0  0  0  0  0  0  0  0  0
   35.5090   31.8020   35.8390 C   0  0  1  0  0  0  0  0  0  0  0  0
   34.5520   32.2570   36.8090 C   0  0  0  0  0  0  0  0  0  0  0  0
   34.0300   31.7560   35.4510 C   0  0  2  0  0  0  0  0  0  0  0  0
   35.9290   30.7670   35.8980 H   0  0  0  0  0  0  0  0  0  0  0  0
   34.3630   31.6730   37.7110 H   0  0  0  0  0  0  0  0  0  0  0  0
   34.5050   33.3640   36.9870 H   0  0  0  0  0  0  0  0  0  0  0  0
   33.6000   32.5380   34.8220 H   0  0  0  0  0  0  0  0  0  0  0  0
   36.9250   33.5290   32.8370 C   0  0  0  0  0  0  0  0  0  0  0  0
   36.1540   32.6710   33.6060 C   0  0  0  0  0  0  0  0  0  0  0  0
   36.2990   32.7080   34.9810 C   0  0  0  0  0  0  0  0  0  0  0  0
   37.2030   33.5990   35.5160 N   0  0  0  0  0  0  0  0  0  0  0  0
   37.9470   34.4270   34.7480 C   0  0  0  0  0  0  0  0  0  0  0  0
   37.8100   34.3970   33.3840 N   0  0  0  0  0  0  0  0  0  0  0  0
   36.7400   33.4260   31.7710 H   0  0  0  0  0  0  0  0  0  0  0  0
   35.4370   31.9610   33.2200 H   0  0  0  0  0  0  0  0  0  0  0  0
   38.6500   35.1140   35.2010 H   0  0  0  0  0  0  0  0  0  0  0  0
   34.4340   29.7080   33.5870 O   0  0  0  0  0  0  0  0  0  0  0  0
   35.5030   27.8920   31.6630 H   0  0  0  0  0  0  0  0  0  0  0  0
   35.9450   27.9890   32.5990 N   0  0  0  0  0  0  0  0  0  0  0  0
   35.5010   28.8210   33.5590 C   0  0  0  0  0  0  0  0  0  0  0  0
   36.3380   28.6550   34.6240 N   0  0  0  0  0  0  0  0  0  0  0  0
   37.2530   27.7380   34.2780 C   0  0  0  0  0  0  0  0  0  0  0  0
   38.3430   27.1640   34.9320 C   0  0  0  0  0  0  0  0  0  0  0  0
   39.1090   26.2350   34.3090 N   0  0  0  0  0  0  0  0  0  0  0  0
   38.8410   25.8350   33.0400 C   0  0  0  0  0  0  0  0  0  0  0  0
   39.5250   25.0830   32.6460 H   0  0  0  0  0  0  0  0  0  0  0  0
   37.7970   26.3780   32.4050 N   0  0  0  0  0  0  0  0  0  0  0  0
   37.0160   27.3000   32.9830 C   0  0  0  0  0  0  0  0  0  0  0  0
   38.6300   27.5780   36.2620 N   0  0  0  0  0  0  0  0  0  0  0  0
   37.9850   27.0550   36.8810 H   0  0  0  0  0  0  0  0  0  0  0  0
   39.2720   28.2290   36.7780 H   0  0  0  0  0  0  0  0  0  0  0  0
  1  6  1  1  0  0  0
  1  2  1  0  0  0  0
  2  3  1  0  0  0  0
  2  7  1  1  0  0  0
  3  9  1  0  0  0  0
  3  8  1  0  0  0  0
  4  3  1  0  0  0  0
  5  1  1  0  0  0  0
  5  4  1  0  0  0  0
 10  5  1  0  0  0  0
 11  5  1  0  0  0  0
 12 15  1  1  0  0  0
 12 13  1  0  0  0  0
 13 17  1  0  0  0  0
 13 16  1  0  0  0  0
 14 18  1  6  0  0  0
 14  2  1  0  0  0  0
 14 12  1  0  0  0  0
 14 13  1  0  0  0  0
 19 24  2  0  0  0  0
 19 20  1  0  0  0  0
 20 21  2  0  0  0  0
 21 22  1  0  0  0  0
 21 12  1  0  0  0  0
 23 27  1  0  0  0  0
 23 22  2  0  0  0  0
 24 23  1  0  0  0  0
 25 19  1  0  0  0  0
 26 20  1  0  0  0  0
 28  1  1  0  0  0  0
 29 30  1  0  0  0  0
 30 39  1  0  0  0  0
 30 31  1  0  0  0  0
 31 28  1  0  0  0  0
 31 32  2  0  0  0  0
 33 32  1  0  0  0  0
 33 34  1  0  0  0  0
 34 40  1  0  0  0  0
 35 34  2  0  0  0  0
 36 35  1  0  0  0  0
 37 36  1  0  0  0  0
 38 39  1  0  0  0  0
 38 36  2  0  0  0  0
 39 33  2  0  0  0  0
 40 42  1  0  0  0  0
 40 41  1  0  0  0  0
M  END
>  <minimizedAffinity>
-5.50740767

$$$$
