
 OpenBabel03272509243D

 29 31  0  0  0  0  0  0  0  0999 V2000
   38.3430   32.2960   47.6510 C   0  0  0  0  0  0  0  0  0  0  0  0
   37.3220   32.6790   47.7510 H   0  0  0  0  0  0  0  0  0  0  0  0
   39.0610   32.7160   48.3870 H   0  0  0  0  0  0  0  0  0  0  0  0
   38.8980   32.6020   46.3240 N   0  0  0  0  0  0  0  0  0  0  0  0
   40.0580   33.1720   45.9950 C   0  0  0  0  0  0  0  0  0  0  0  0
   40.7720   33.4940   46.7400 H   0  0  0  0  0  0  0  0  0  0  0  0
   40.1470   33.2540   44.6380 N   0  0  0  0  0  0  0  0  0  0  0  0
   38.9920   32.7110   44.1560 C   0  0  0  0  0  0  0  0  0  0  0  0
   38.5490   32.5340   42.8610 C   0  0  0  0  0  0  0  0  0  0  0  0
   37.3330   31.9540   42.6720 N   0  0  0  0  0  0  0  0  0  0  0  0
   36.5530   31.5480   43.6750 C   0  0  0  0  0  0  0  0  0  0  0  0
   35.5940   31.0910   43.4800 H   0  0  0  0  0  0  0  0  0  0  0  0
   36.9860   31.7200   44.9390 N   0  0  0  0  0  0  0  0  0  0  0  0
   38.1900   32.2930   45.2080 C   0  0  0  0  0  0  0  0  0  0  0  0
   39.3070   32.9340   41.7230 N   0  0  0  0  0  0  0  0  0  0  0  0
   39.0790   33.8680   41.3070 H   0  0  0  0  0  0  0  0  0  0  0  0
   39.9170   32.0700   41.6590 H   0  0  0  0  0  0  0  0  0  0  0  0
   38.3710   30.7810   47.7720 C   0  0  0  0  0  0  0  0  0  0  0  0
   37.8520   30.3550   46.9020 H   0  0  0  0  0  0  0  0  0  0  0  0
   39.4240   30.4370   47.7290 H   0  0  0  0  0  0  0  0  0  0  0  0
   37.3460   30.2440   51.4000 C   0  0  0  0  0  0  0  0  0  0  0  0
   38.0760   30.7120   50.2950 C   0  0  0  0  0  0  0  0  0  0  0  0
   37.6800   30.3500   49.0190 C   0  0  0  0  0  0  0  0  0  0  0  0
   36.5860   29.5450   48.8870 N   0  0  0  0  0  0  0  0  0  0  0  0
   35.9010   29.1080   49.9620 C   0  0  0  0  0  0  0  0  0  0  0  0
   36.2730   29.4520   51.2110 N   0  0  0  0  0  0  0  0  0  0  0  0
   37.6460   30.5200   52.4040 H   0  0  0  0  0  0  0  0  0  0  0  0
   38.9280   31.3380   50.4030 H   0  0  0  0  0  0  0  0  0  0  0  0
   35.0540   28.4760   49.7200 H   0  0  0  0  0  0  0  0  0  0  0  0
  1  2  1  0  0  0  0
  1 18  1  0  0  0  0
  1  3  1  0  0  0  0
  4  1  1  0  0  0  0
  5  4  1  0  0  0  0
  5  6  1  0  0  0  0
  7  5  2  0  0  0  0
  8  7  1  0  0  0  0
  8 14  1  0  0  0  0
  9  8  2  0  0  0  0
 10  9  1  0  0  0  0
 10 11  2  0  0  0  0
 11 13  1  0  0  0  0
 12 11  1  0  0  0  0
 13 14  2  0  0  0  0
 14  4  1  0  0  0  0
 15  9  1  0  0  0  0
 16 15  1  0  0  0  0
 17 15  1  0  0  0  0
 18 23  1  0  0  0  0
 19 18  1  0  0  0  0
 20 18  1  0  0  0  0
 21 27  1  0  0  0  0
 22 28  1  0  0  0  0
 22 21  2  0  0  0  0
 23 22  1  0  0  0  0
 24 23  2  0  0  0  0
 24 25  1  0  0  0  0
 25 26  2  0  0  0  0
 26 21  1  0  0  0  0
 29 25  1  0  0  0  0
M  END
>  <minimizedAffinity>
-5.29764128

>  <minimizedRMSD>
1.12411284

$$$$
