
 OpenBabel03262520493D

 53 58  0  0  1  0  0  0  0  0999 V2000
   39.3240   28.8830   43.1800 C   0  0  0  0  0  0  0  0  0  0  0  0
   40.3230   29.8070   42.9260 C   0  0  0  0  0  0  0  0  0  0  0  0
   41.1560   29.6500   41.8130 C   0  0  0  0  0  0  0  0  0  0  0  0
   40.9910   28.5740   40.9630 C   0  0  0  0  0  0  0  0  0  0  0  0
   41.6560   28.2150   39.8480 N   0  0  0  0  0  0  0  0  0  0  0  0
   41.0820   27.0850   39.4120 C   0  0  0  0  0  0  0  0  0  0  0  0
   40.0490   26.6830   40.2150 C   0  0  0  0  0  0  0  0  0  0  0  0
   39.9980   27.6490   41.2090 C   0  0  0  0  0  0  0  0  0  0  0  0
   39.1830   27.8140   42.3090 C   0  0  0  0  0  0  0  0  0  0  0  0
   38.6250   28.9060   44.0030 H   0  0  0  0  0  0  0  0  0  0  0  0
   41.9270   30.3990   41.6520 H   0  0  0  0  0  0  0  0  0  0  0  0
   42.4580   28.7490   39.4400 H   0  0  0  0  0  0  0  0  0  0  0  0
   41.4380   26.5880   38.5200 H   0  0  0  0  0  0  0  0  0  0  0  0
   39.4140   25.8160   40.1050 H   0  0  0  0  0  0  0  0  0  0  0  0
   38.1730   26.8300   42.5190 N   0  0  0  0  0  0  0  0  0  0  0  0
   36.9440   27.0430   41.9760 C   0  0  0  0  0  0  0  0  0  0  0  0
   36.5600   27.8720   41.3760 H   0  0  0  0  0  0  0  0  0  0  0  0
   36.1700   25.9780   42.3130 N   0  0  0  0  0  0  0  0  0  0  0  0
   36.9110   25.1250   43.0490 C   0  0  0  0  0  0  0  0  0  0  0  0
   36.7320   23.9030   43.6790 C   0  0  0  0  0  0  0  0  0  0  0  0
   37.7370   23.3310   44.3470 N   0  0  0  0  0  0  0  0  0  0  0  0
   38.9530   23.8870   44.4500 C   0  0  0  0  0  0  0  0  0  0  0  0
   39.6840   23.3360   45.0140 H   0  0  0  0  0  0  0  0  0  0  0  0
   39.1760   25.0830   43.8510 N   0  0  0  0  0  0  0  0  0  0  0  0
   38.1830   25.6670   43.1800 C   0  0  0  0  0  0  0  0  0  0  0  0
   35.4430   23.3010   43.5770 N   0  0  0  0  0  0  0  0  0  0  0  0
   35.0440   22.8260   44.4350 H   0  0  0  0  0  0  0  0  0  0  0  0
   34.8120   23.2550   42.7560 H   0  0  0  0  0  0  0  0  0  0  0  0
   40.4810   30.9650   43.8610 C   0  0  0  0  0  0  0  0  0  0  0  0
   40.0890   31.8530   43.2980 H   0  0  0  0  0  0  0  0  0  0  0  0
   41.5470   31.1170   44.1340 H   0  0  0  0  0  0  0  0  0  0  0  0
   39.6120   30.6970   45.0680 C   0  0  0  0  0  0  0  0  0  0  0  0
   39.8010   29.6350   45.3740 H   0  0  0  0  0  0  0  0  0  0  0  0
   38.5590   30.8580   44.7270 H   0  0  0  0  0  0  0  0  0  0  0  0
   38.7910   32.2290   46.8990 C   0  0  1  0  0  0  0  0  0  0  0  0
   39.8810   33.0190   46.2130 C   0  0  0  0  0  0  0  0  0  0  0  0
   39.9230   31.5440   46.2470 C   0  0  2  0  0  0  0  0  0  0  0  0
   37.7810   32.1850   46.4200 H   0  0  0  0  0  0  0  0  0  0  0  0
   39.6670   33.4590   45.2110 H   0  0  0  0  0  0  0  0  0  0  0  0
   40.5960   33.6140   46.7860 H   0  0  0  0  0  0  0  0  0  0  0  0
   40.6830   31.1430   46.9820 H   0  0  0  0  0  0  0  0  0  0  0  0
   38.7210   32.4010   48.3820 C   0  0  0  0  0  0  0  0  0  0  0  0
   38.2400   33.3930   48.5820 H   0  0  0  0  0  0  0  0  0  0  0  0
   39.7350   32.4380   48.8290 H   0  0  0  0  0  0  0  0  0  0  0  0
   37.4460   30.0450   51.0060 C   0  0  0  0  0  0  0  0  0  0  0  0
   38.1540   31.0970   50.3590 C   0  0  0  0  0  0  0  0  0  0  0  0
   37.9660   31.2950   49.0210 C   0  0  0  0  0  0  0  0  0  0  0  0
   37.1190   30.4820   48.3800 N   0  0  0  0  0  0  0  0  0  0  0  0
   36.4520   29.4930   48.9820 C   0  0  0  0  0  0  0  0  0  0  0  0
   36.6280   29.2890   50.2940 N   0  0  0  0  0  0  0  0  0  0  0  0
   37.6390   29.9370   52.0810 H   0  0  0  0  0  0  0  0  0  0  0  0
   38.8300   31.7310   50.9200 H   0  0  0  0  0  0  0  0  0  0  0  0
   35.7690   28.8370   48.4630 H   0  0  0  0  0  0  0  0  0  0  0  0
  1 10  1  0  0  0  0
  2  1  1  0  0  0  0
  2 29  1  0  0  0  0
  3  2  2  0  0  0  0
  4  8  2  0  0  0  0
  4  3  1  0  0  0  0
  5  4  1  0  0  0  0
  6  5  1  0  0  0  0
  6  7  2  0  0  0  0
  7  8  1  0  0  0  0
  8  9  1  0  0  0  0
  9 15  1  0  0  0  0
  9  1  2  0  0  0  0
 11  3  1  0  0  0  0
 12  5  1  0  0  0  0
 13  6  1  0  0  0  0
 14  7  1  0  0  0  0
 15 25  1  0  0  0  0
 16 18  2  0  0  0  0
 16 15  1  0  0  0  0
 17 16  1  0  0  0  0
 18 19  1  0  0  0  0
 19 25  2  0  0  0  0
 19 20  1  0  0  0  0
 20 21  2  0  0  0  0
 21 22  1  0  0  0  0
 22 23  1  0  0  0  0
 24 22  2  0  0  0  0
 25 24  1  0  0  0  0
 26 20  1  0  0  0  0
 26 27  1  0  0  0  0
 28 26  1  0  0  0  0
 29 31  1  0  0  0  0
 29 32  1  0  0  0  0
 30 29  1  0  0  0  0
 32 33  1  0  0  0  0
 32 37  1  0  0  0  0
 34 32  1  0  0  0  0
 35 38  1  6  0  0  0
 35 42  1  0  0  0  0
 36 37  1  0  0  0  0
 36 40  1  0  0  0  0
 36 35  1  0  0  0  0
 37 35  1  0  0  0  0
 37 41  1  1  0  0  0
 39 36  1  0  0  0  0
 42 43  1  0  0  0  0
 42 44  1  0  0  0  0
 42 47  1  0  0  0  0
 45 51  1  0  0  0  0
 46 52  1  0  0  0  0
 46 45  1  0  0  0  0
 47 46  2  0  0  0  0
 48 49  2  0  0  0  0
 48 47  1  0  0  0  0
 49 50  1  0  0  0  0
 50 45  2  0  0  0  0
 53 49  1  0  0  0  0
M  END
>  <minimizedAffinity>
-6.21655416

>  <minimizedRMSD>
0.261362523

$$$$
