
 OpenBabel03262522153D

 50 54  0  0  1  0  0  0  0  0999 V2000
   39.0860   29.7290   42.2860 C   0  0  1  0  0  0  0  0  0  0  0  0
   38.9640   31.2250   42.0380 C   0  0  0  0  0  0  0  0  0  0  0  0
   40.0040   31.7770   42.9650 C   0  0  2  0  0  0  0  0  0  0  0  0
   40.4720   30.7570   43.7360 O   0  0  0  0  0  0  0  0  0  0  0  0
   39.5320   29.7420   43.7380 C   0  0  0  0  0  0  0  0  0  0  0  0
   39.9270   29.2930   41.6960 H   0  0  0  0  0  0  0  0  0  0  0  0
   37.9800   31.5300   42.4060 H   0  0  0  0  0  0  0  0  0  0  0  0
   39.1600   31.4630   40.9740 H   0  0  0  0  0  0  0  0  0  0  0  0
   40.8560   32.1660   42.3510 H   0  0  0  0  0  0  0  0  0  0  0  0
   40.0800   28.8080   44.0140 H   0  0  0  0  0  0  0  0  0  0  0  0
   38.6720   29.9540   44.3990 H   0  0  0  0  0  0  0  0  0  0  0  0
   39.4670   32.9280   43.7760 C   0  0  0  0  0  0  0  0  0  0  0  0
   38.4090   32.8190   44.0410 H   0  0  0  0  0  0  0  0  0  0  0  0
   39.5750   33.8550   43.1620 H   0  0  0  0  0  0  0  0  0  0  0  0
   40.5640   33.1500   45.2000 S   0  0  0  0  0  0  0  0  0  0  0  0
   37.7720   31.7750   47.6580 C   0  0  0  0  0  0  0  0  0  0  0  0
   37.9500   32.5140   48.8280 C   0  0  0  0  0  0  0  0  0  0  0  0
   38.9370   33.4710   48.9180 C   0  0  0  0  0  0  0  0  0  0  0  0
   39.7150   33.6440   47.8030 C   0  0  0  0  0  0  0  0  0  0  0  0
   39.5280   32.9140   46.6670 C   0  0  0  0  0  0  0  0  0  0  0  0
   38.5610   31.9710   46.5720 N   0  0  0  0  0  0  0  0  0  0  0  0
   37.2990   32.3290   49.6770 H   0  0  0  0  0  0  0  0  0  0  0  0
   39.0750   34.0500   49.8340 H   0  0  0  0  0  0  0  0  0  0  0  0
   40.5140   34.3780   47.7910 H   0  0  0  0  0  0  0  0  0  0  0  0
   36.7160   30.7920   47.6450 C   0  0  0  0  0  0  0  0  0  0  0  0
   36.2350   30.3760   46.5910 O   0  0  0  0  0  0  0  0  0  0  0  0
   37.0340   29.6190   49.7960 C   0  0  0  0  0  0  0  0  0  0  0  0
   36.1500   30.2290   48.8880 C   0  0  0  0  0  0  0  0  0  0  0  0
   34.7760   30.2890   49.1780 C   0  0  0  0  0  0  0  0  0  0  0  0
   34.3500   29.7360   50.3600 N   0  0  0  0  0  0  0  0  0  0  0  0
   35.2110   29.1570   51.2150 C   0  0  0  0  0  0  0  0  0  0  0  0
   36.5240   29.1010   50.9370 N   0  0  0  0  0  0  0  0  0  0  0  0
   38.0750   29.5800   49.5650 H   0  0  0  0  0  0  0  0  0  0  0  0
   34.1330   30.7620   48.4620 H   0  0  0  0  0  0  0  0  0  0  0  0
   34.7050   28.7810   52.0820 H   0  0  0  0  0  0  0  0  0  0  0  0
   37.8710   29.0950   42.1210 O   0  0  0  0  0  0  0  0  0  0  0  0
   37.7580   27.6360   39.6780 H   0  0  0  0  0  0  0  0  0  0  0  0
   37.6160   27.1070   40.5660 N   0  0  0  0  0  0  0  0  0  0  0  0
   37.6660   27.7890   41.7420 C   0  0  0  0  0  0  0  0  0  0  0  0
   37.4550   26.9160   42.7720 N   0  0  0  0  0  0  0  0  0  0  0  0
   37.2730   25.6850   42.2290 C   0  0  0  0  0  0  0  0  0  0  0  0
   37.0240   24.4130   42.7190 C   0  0  0  0  0  0  0  0  0  0  0  0
   36.8990   23.4040   41.8560 N   0  0  0  0  0  0  0  0  0  0  0  0
   36.9980   23.5390   40.5210 C   0  0  0  0  0  0  0  0  0  0  0  0
   36.8850   22.6720   39.8620 H   0  0  0  0  0  0  0  0  0  0  0  0
   37.2440   24.7770   39.9970 N   0  0  0  0  0  0  0  0  0  0  0  0
   37.3740   25.8170   40.8580 C   0  0  0  0  0  0  0  0  0  0  0  0
   36.9220   24.2910   44.1340 N   0  0  0  0  0  0  0  0  0  0  0  0
   37.6010   23.9750   44.8850 H   0  0  0  0  0  0  0  0  0  0  0  0
   36.0140   24.5530   44.5760 H   0  0  0  0  0  0  0  0  0  0  0  0
  1  6  1  6  0  0  0
  1  5  1  0  0  0  0
  2  1  1  0  0  0  0
  2  7  1  0  0  0  0
  2  3  1  0  0  0  0
  3  9  1  6  0  0  0
  3  4  1  0  0  0  0
  3 12  1  0  0  0  0
  4  5  1  0  0  0  0
  5 10  1  0  0  0  0
  5 11  1  0  0  0  0
  8  2  1  0  0  0  0
 12 13  1  0  0  0  0
 12 15  1  0  0  0  0
 14 12  1  0  0  0  0
 15 20  1  0  0  0  0
 16 17  1  0  0  0  0
 17 18  2  0  0  0  0
 17 22  1  0  0  0  0
 18 23  1  0  0  0  0
 19 18  1  0  0  0  0
 20 19  2  0  0  0  0
 21 20  1  0  0  0  0
 21 16  2  0  0  0  0
 24 19  1  0  0  0  0
 25 16  1  0  0  0  0
 25 28  1  0  0  0  0
 26 25  2  0  0  0  0
 27 32  1  0  0  0  0
 28 29  1  0  0  0  0
 28 27  2  0  0  0  0
 29 30  2  0  0  0  0
 30 31  1  0  0  0  0
 31 35  1  0  0  0  0
 32 31  2  0  0  0  0
 33 27  1  0  0  0  0
 34 29  1  0  0  0  0
 36  1  1  0  0  0  0
 37 38  1  0  0  0  0
 38 47  1  0  0  0  0
 38 39  1  0  0  0  0
 39 36  1  0  0  0  0
 39 40  2  0  0  0  0
 41 42  1  0  0  0  0
 41 40  1  0  0  0  0
 42 48  1  0  0  0  0
 43 42  2  0  0  0  0
 44 43  1  0  0  0  0
 45 44  1  0  0  0  0
 46 44  2  0  0  0  0
 46 47  1  0  0  0  0
 47 41  2  0  0  0  0
 48 50  1  0  0  0  0
 48 49  1  0  0  0  0
M  END
>  <minimizedAffinity>
-5.34997892

>  <minimizedRMSD>
0.959746301

$$$$
