
 OpenBabel03262521523D

 28 30  0  0  0  0  0  0  0  0999 V2000
   33.3520   27.6580   48.3820 S   0  0  0  0  0  0  0  0  0  0  0  0
   31.3520   28.8600   50.4660 H   0  0  0  0  0  0  0  0  0  0  0  0
   30.8500   28.3150   49.7400 N   0  0  0  0  0  0  0  0  0  0  0  0
   31.6220   27.7540   48.7920 C   0  0  0  0  0  0  0  0  0  0  0  0
   30.8040   27.0890   47.9360 N   0  0  0  0  0  0  0  0  0  0  0  0
   29.5190   27.2100   48.3160 C   0  0  0  0  0  0  0  0  0  0  0  0
   28.2890   26.7820   47.8750 C   0  0  0  0  0  0  0  0  0  0  0  0
   27.1800   27.1390   48.5740 N   0  0  0  0  0  0  0  0  0  0  0  0
   27.2850   27.9070   49.6920 C   0  0  0  0  0  0  0  0  0  0  0  0
   26.3410   28.1510   50.1980 H   0  0  0  0  0  0  0  0  0  0  0  0
   28.4980   28.3400   50.1410 N   0  0  0  0  0  0  0  0  0  0  0  0
   29.5990   27.9880   49.4510 C   0  0  0  0  0  0  0  0  0  0  0  0
   28.2420   25.9800   46.6980 N   0  0  0  0  0  0  0  0  0  0  0  0
   27.9290   25.0220   46.9600 H   0  0  0  0  0  0  0  0  0  0  0  0
   28.4710   26.2490   45.7160 H   0  0  0  0  0  0  0  0  0  0  0  0
   34.2000   29.2380   48.7290 C   0  0  0  0  0  0  0  0  0  0  0  0
   34.2680   29.8020   47.7670 H   0  0  0  0  0  0  0  0  0  0  0  0
   33.5450   29.8560   49.3850 H   0  0  0  0  0  0  0  0  0  0  0  0
   35.8220   29.0040   49.4750 S   0  0  0  0  0  0  0  0  0  0  0  0
   36.8440   30.3930   49.0540 C   0  0  0  0  0  0  0  0  0  0  0  0
   36.6970   31.5080   49.8710 C   0  0  0  0  0  0  0  0  0  0  0  0
   37.4790   32.6380   49.5870 C   0  0  0  0  0  0  0  0  0  0  0  0
   38.3460   32.6030   48.5320 N   0  0  0  0  0  0  0  0  0  0  0  0
   38.4370   31.4800   47.7760 C   0  0  0  0  0  0  0  0  0  0  0  0
   37.7100   30.4130   48.0320 N   0  0  0  0  0  0  0  0  0  0  0  0
   36.0190   31.5600   50.7110 H   0  0  0  0  0  0  0  0  0  0  0  0
   37.3990   33.5310   50.1960 H   0  0  0  0  0  0  0  0  0  0  0  0
   39.1320   31.4680   46.9390 H   0  0  0  0  0  0  0  0  0  0  0  0
  1 16  1  0  0  0  0
  1  4  1  0  0  0  0
  3  2  1  0  0  0  0
  4  3  1  0  0  0  0
  5  6  1  0  0  0  0
  5  4  2  0  0  0  0
  6 12  1  0  0  0  0
  7  6  2  0  0  0  0
  7  8  1  0  0  0  0
  8  9  2  0  0  0  0
  9 11  1  0  0  0  0
  9 10  1  0  0  0  0
 12  3  1  0  0  0  0
 12 11  2  0  0  0  0
 13 14  1  0  0  0  0
 13  7  1  0  0  0  0
 15 13  1  0  0  0  0
 16 18  1  0  0  0  0
 16 19  1  0  0  0  0
 17 16  1  0  0  0  0
 20 19  1  0  0  0  0
 20 21  1  0  0  0  0
 21 26  1  0  0  0  0
 22 21  2  0  0  0  0
 22 27  1  0  0  0  0
 23 22  1  0  0  0  0
 24 25  1  0  0  0  0
 24 23  2  0  0  0  0
 25 20  2  0  0  0  0
 28 24  1  0  0  0  0
M  END
>  <minimizedAffinity>
-5.29498625

>  <minimizedRMSD>
1.98425889

$$$$
