
 OpenBabel03272509243D

 29 31  0  0  0  0  0  0  0  0999 V2000
   38.3800   32.3200   47.7150 C   0  0  0  0  0  0  0  0  0  0  0  0
   37.3650   32.7140   47.8340 H   0  0  0  0  0  0  0  0  0  0  0  0
   39.1110   32.7180   48.4500 H   0  0  0  0  0  0  0  0  0  0  0  0
   38.9230   32.6430   46.3880 N   0  0  0  0  0  0  0  0  0  0  0  0
   40.0660   33.2450   46.0560 C   0  0  0  0  0  0  0  0  0  0  0  0
   40.7730   33.5870   46.7990 H   0  0  0  0  0  0  0  0  0  0  0  0
   40.1500   33.3310   44.6990 N   0  0  0  0  0  0  0  0  0  0  0  0
   39.0090   32.7560   44.2200 C   0  0  0  0  0  0  0  0  0  0  0  0
   38.5690   32.5690   42.9250 C   0  0  0  0  0  0  0  0  0  0  0  0
   37.3690   31.9540   42.7380 N   0  0  0  0  0  0  0  0  0  0  0  0
   36.6030   31.5260   43.7420 C   0  0  0  0  0  0  0  0  0  0  0  0
   35.6570   31.0410   43.5490 H   0  0  0  0  0  0  0  0  0  0  0  0
   37.0330   31.7090   45.0060 N   0  0  0  0  0  0  0  0  0  0  0  0
   38.2220   32.3150   45.2720 C   0  0  0  0  0  0  0  0  0  0  0  0
   39.3120   32.9900   41.7850 N   0  0  0  0  0  0  0  0  0  0  0  0
   39.0570   33.9190   41.3710 H   0  0  0  0  0  0  0  0  0  0  0  0
   39.9460   32.1450   41.7190 H   0  0  0  0  0  0  0  0  0  0  0  0
   38.3900   30.8020   47.8090 C   0  0  0  0  0  0  0  0  0  0  0  0
   37.8690   30.3990   46.9300 H   0  0  0  0  0  0  0  0  0  0  0  0
   39.4390   30.4470   47.7640 H   0  0  0  0  0  0  0  0  0  0  0  0
   37.3350   30.2280   51.4230 C   0  0  0  0  0  0  0  0  0  0  0  0
   38.0730   30.7080   50.3290 C   0  0  0  0  0  0  0  0  0  0  0  0
   37.6890   30.3580   49.0450 C   0  0  0  0  0  0  0  0  0  0  0  0
   36.5990   29.5510   48.8970 N   0  0  0  0  0  0  0  0  0  0  0  0
   35.9060   29.1030   49.9610 C   0  0  0  0  0  0  0  0  0  0  0  0
   36.2660   29.4350   51.2160 N   0  0  0  0  0  0  0  0  0  0  0  0
   37.6260   30.4940   52.4320 H   0  0  0  0  0  0  0  0  0  0  0  0
   38.9220   31.3350   50.4500 H   0  0  0  0  0  0  0  0  0  0  0  0
   35.0620   28.4710   49.7050 H   0  0  0  0  0  0  0  0  0  0  0  0
  1 18  1  0  0  0  0
  1  2  1  0  0  0  0
  1  3  1  0  0  0  0
  4  1  1  0  0  0  0
  5  4  1  0  0  0  0
  5  6  1  0  0  0  0
  7  5  2  0  0  0  0
  8  7  1  0  0  0  0
  8 14  1  0  0  0  0
  9  8  2  0  0  0  0
 10  9  1  0  0  0  0
 10 11  2  0  0  0  0
 11 13  1  0  0  0  0
 12 11  1  0  0  0  0
 13 14  2  0  0  0  0
 14  4  1  0  0  0  0
 15  9  1  0  0  0  0
 16 15  1  0  0  0  0
 17 15  1  0  0  0  0
 18 23  1  0  0  0  0
 19 18  1  0  0  0  0
 20 18  1  0  0  0  0
 21 27  1  0  0  0  0
 22 28  1  0  0  0  0
 22 21  2  0  0  0  0
 23 22  1  0  0  0  0
 24 23  2  0  0  0  0
 24 25  1  0  0  0  0
 25 26  2  0  0  0  0
 26 21  1  0  0  0  0
 29 25  1  0  0  0  0
M  END
>  <minimizedAffinity>
-5.33265305

>  <minimizedRMSD>
0.940205455

$$$$
