
 OpenBabel03272508273D

 43 47  0  0  1  0  0  0  0  0999 V2000
   33.6800   29.0080   47.1550 C   0  0  2  0  0  0  0  0  0  0  0  0
   34.4050   28.1340   48.1640 C   0  0  2  0  0  0  0  0  0  0  0  0
   33.5190   27.9310   49.1840 O   0  0  0  0  0  0  0  0  0  0  0  0
   32.2370   28.0810   48.7400 C   0  0  0  0  0  0  0  0  0  0  0  0
   32.2820   28.3970   47.2610 C   0  0  1  0  0  0  0  0  0  0  0  0
   33.5960   30.0520   47.4870 H   0  0  0  0  0  0  0  0  0  0  0  0
   34.6480   27.1960   47.6130 H   0  0  0  0  0  0  0  0  0  0  0  0
   31.6780   27.1040   48.8300 H   0  0  0  0  0  0  0  0  0  0  0  0
   31.7070   28.8340   49.3340 H   0  0  0  0  0  0  0  0  0  0  0  0
   32.3280   27.4460   46.6860 H   0  0  0  0  0  0  0  0  0  0  0  0
   35.5830   30.2900   48.9780 C   0  0  1  0  0  0  0  0  0  0  0  0
   35.6090   28.8910   48.6250 C   0  0  1  0  0  0  0  0  0  0  0  0
   35.8200   29.2300   50.0650 C   0  0  0  0  0  0  0  0  0  0  0  0
   34.7040   30.9090   49.2380 H   0  0  0  0  0  0  0  0  0  0  0  0
   36.5490   28.5340   48.1110 H   0  0  0  0  0  0  0  0  0  0  0  0
   34.9600   28.9420   50.7040 H   0  0  0  0  0  0  0  0  0  0  0  0
   36.8180   29.1600   50.5210 H   0  0  0  0  0  0  0  0  0  0  0  0
   36.8030   31.1750   48.7780 C   0  0  0  0  0  0  0  0  0  0  0  0
   37.0050   32.2020   49.7000 C   0  0  0  0  0  0  0  0  0  0  0  0
   38.1200   32.9930   49.4500 C   0  0  0  0  0  0  0  0  0  0  0  0
   38.9360   32.7560   48.3740 N   0  0  0  0  0  0  0  0  0  0  0  0
   38.6940   31.7440   47.5080 C   0  0  0  0  0  0  0  0  0  0  0  0
   37.6180   30.9470   47.7140 N   0  0  0  0  0  0  0  0  0  0  0  0
   36.3530   32.3600   50.5250 H   0  0  0  0  0  0  0  0  0  0  0  0
   38.3660   33.8160   50.1050 H   0  0  0  0  0  0  0  0  0  0  0  0
   39.3680   31.6010   46.6770 H   0  0  0  0  0  0  0  0  0  0  0  0
   34.1840   28.9060   45.8720 O   0  0  0  0  0  0  0  0  0  0  0  0
   33.5570   29.3390   45.2690 H   0  0  0  0  0  0  0  0  0  0  0  0
   31.3100   29.2510   46.8180 O   0  0  0  0  0  0  0  0  0  0  0  0
   30.4930   26.6820   45.9020 H   0  0  0  0  0  0  0  0  0  0  0  0
   29.9060   27.5220   45.7370 N   0  0  0  0  0  0  0  0  0  0  0  0
   30.2030   28.7730   46.1280 C   0  0  0  0  0  0  0  0  0  0  0  0
   29.1660   29.5220   45.6990 N   0  0  0  0  0  0  0  0  0  0  0  0
   28.2520   28.7630   45.0630 C   0  0  0  0  0  0  0  0  0  0  0  0
   27.0440   29.0300   44.4540 C   0  0  0  0  0  0  0  0  0  0  0  0
   26.3040   28.0580   43.8730 N   0  0  0  0  0  0  0  0  0  0  0  0
   26.7940   26.7940   43.9090 C   0  0  0  0  0  0  0  0  0  0  0  0
   26.3590   25.8870   43.5050 H   0  0  0  0  0  0  0  0  0  0  0  0
   27.9760   26.5180   44.5010 N   0  0  0  0  0  0  0  0  0  0  0  0
   28.7340   27.4630   45.0870 C   0  0  0  0  0  0  0  0  0  0  0  0
   26.5560   30.3680   44.4340 N   0  0  0  0  0  0  0  0  0  0  0  0
   25.6760   30.7230   44.9060 H   0  0  0  0  0  0  0  0  0  0  0  0
   27.1520   31.0130   43.8980 H   0  0  0  0  0  0  0  0  0  0  0  0
  1  5  1  0  0  0  0
  1  6  1  1  0  0  0
  1  2  1  0  0  0  0
  2  7  1  6  0  0  0
  2 12  1  0  0  0  0
  2  3  1  0  0  0  0
  4  8  1  0  0  0  0
  4  3  1  0  0  0  0
  4  9  1  0  0  0  0
  5 10  1  6  0  0  0
  5  4  1  0  0  0  0
 11 14  1  6  0  0  0
 11 13  1  0  0  0  0
 12 15  1  6  0  0  0
 12 11  1  0  0  0  0
 12 13  1  0  0  0  0
 13 17  1  0  0  0  0
 13 16  1  0  0  0  0
 18 11  1  0  0  0  0
 18 19  1  0  0  0  0
 19 24  1  0  0  0  0
 20 19  2  0  0  0  0
 20 25  1  0  0  0  0
 21 20  1  0  0  0  0
 22 23  1  0  0  0  0
 22 21  2  0  0  0  0
 23 18  2  0  0  0  0
 26 22  1  0  0  0  0
 27  1  1  0  0  0  0
 28 27  1  0  0  0  0
 29  5  1  0  0  0  0
 31 30  1  0  0  0  0
 31 32  1  0  0  0  0
 32 29  1  0  0  0  0
 33 32  2  0  0  0  0
 34 40  1  0  0  0  0
 34 33  1  0  0  0  0
 35 34  2  0  0  0  0
 36 37  2  0  0  0  0
 36 35  1  0  0  0  0
 37 39  1  0  0  0  0
 38 37  1  0  0  0  0
 39 40  2  0  0  0  0
 40 31  1  0  0  0  0
 41 35  1  0  0  0  0
 41 42  1  0  0  0  0
 43 41  1  0  0  0  0
M  END
>  <minimizedAffinity>
-5.42070007

>  <minimizedRMSD>
0.972741187

$$$$
