
 OpenBabel03272506413D

 24 26  0  0  0  0  0  0  0  0999 V2000
   33.5530   28.4590   49.6420 H   0  0  0  0  0  0  0  0  0  0  0  0
   33.0700   28.4940   48.7380 N   0  0  0  0  0  0  0  0  0  0  0  0
   33.6700   29.1390   47.7170 C   0  0  0  0  0  0  0  0  0  0  0  0
   32.8800   29.0640   46.6500 N   0  0  0  0  0  0  0  0  0  0  0  0
   31.7740   28.3690   46.9870 C   0  0  0  0  0  0  0  0  0  0  0  0
   30.6310   27.9710   46.3420 C   0  0  0  0  0  0  0  0  0  0  0  0
   29.7030   27.2660   47.0060 N   0  0  0  0  0  0  0  0  0  0  0  0
   29.8360   26.9250   48.2910 C   0  0  0  0  0  0  0  0  0  0  0  0
   29.0320   26.3560   48.7350 H   0  0  0  0  0  0  0  0  0  0  0  0
   30.9580   27.3000   48.9690 N   0  0  0  0  0  0  0  0  0  0  0  0
   31.8940   28.0080   48.3110 C   0  0  0  0  0  0  0  0  0  0  0  0
   30.5160   28.3510   44.9680 N   0  0  0  0  0  0  0  0  0  0  0  0
   30.5410   29.4060   44.8730 H   0  0  0  0  0  0  0  0  0  0  0  0
   30.4180   27.8730   44.0460 H   0  0  0  0  0  0  0  0  0  0  0  0
   35.2140   30.0250   47.5060 S   0  0  0  0  0  0  0  0  0  0  0  0
   36.2510   29.4730   51.2840 C   0  0  0  0  0  0  0  0  0  0  0  0
   37.4450   30.1810   51.4310 C   0  0  0  0  0  0  0  0  0  0  0  0
   37.9670   30.8650   50.3200 C   0  0  0  0  0  0  0  0  0  0  0  0
   37.2670   30.7960   49.1520 N   0  0  0  0  0  0  0  0  0  0  0  0
   36.1240   30.1090   49.0420 C   0  0  0  0  0  0  0  0  0  0  0  0
   35.6040   29.4430   50.1010 N   0  0  0  0  0  0  0  0  0  0  0  0
   35.8460   28.9460   52.1360 H   0  0  0  0  0  0  0  0  0  0  0  0
   37.9850   30.2150   52.3900 H   0  0  0  0  0  0  0  0  0  0  0  0
   38.8910   31.4310   50.3790 H   0  0  0  0  0  0  0  0  0  0  0  0
  2  1  1  0  0  0  0
  3  2  1  0  0  0  0
  4  5  1  0  0  0  0
  4  3  2  0  0  0  0
  5 11  1  0  0  0  0
  6  5  2  0  0  0  0
  6  7  1  0  0  0  0
  7  8  2  0  0  0  0
  8  9  1  0  0  0  0
  8 10  1  0  0  0  0
 11  2  1  0  0  0  0
 11 10  2  0  0  0  0
 12  6  1  0  0  0  0
 13 12  1  0  0  0  0
 14 12  1  0  0  0  0
 15  3  1  0  0  0  0
 15 20  1  0  0  0  0
 16 17  1  0  0  0  0
 16 22  1  0  0  0  0
 17 23  1  0  0  0  0
 18 24  1  0  0  0  0
 18 17  2  0  0  0  0
 19 18  1  0  0  0  0
 20 19  2  0  0  0  0
 20 21  1  0  0  0  0
 21 16  2  0  0  0  0
M  END
>  <minimizedAffinity>
-4.49847984

>  <minimizedRMSD>
4.55737162

$$$$
