
 OpenBabel03272501073D

 45 49  0  0  1  0  0  0  0  0999 V2000
   40.6690   32.0250   44.5020 Cl  0  0  0  0  0  0  0  0  0  0  0  0
   39.1580   31.1650   44.3930 C   0  0  0  0  0  0  0  0  0  0  0  0
   38.2490   31.4960   45.3870 C   0  0  0  0  0  0  0  0  0  0  0  0
   37.0420   30.8150   45.3060 C   0  0  0  0  0  0  0  0  0  0  0  0
   36.7650   29.8890   44.3270 C   0  0  0  0  0  0  0  0  0  0  0  0
   37.7200   29.6120   43.3690 C   0  0  0  0  0  0  0  0  0  0  0  0
   38.9280   30.2500   43.3960 C   0  0  0  0  0  0  0  0  0  0  0  0
   36.2110   30.9360   45.9890 H   0  0  0  0  0  0  0  0  0  0  0  0
   35.8470   29.3440   44.2300 H   0  0  0  0  0  0  0  0  0  0  0  0
   37.5410   28.8920   42.5830 H   0  0  0  0  0  0  0  0  0  0  0  0
   39.9590   30.0230   42.4540 N   0  0  0  0  0  0  0  0  0  0  0  0
   41.0000   29.1980   42.6320 C   0  0  0  0  0  0  0  0  0  0  0  0
   41.2740   28.5670   43.4620 H   0  0  0  0  0  0  0  0  0  0  0  0
   41.8010   29.2060   41.5530 N   0  0  0  0  0  0  0  0  0  0  0  0
   41.2930   30.0490   40.6310 C   0  0  0  0  0  0  0  0  0  0  0  0
   41.6350   30.4790   39.3640 C   0  0  0  0  0  0  0  0  0  0  0  0
   40.8520   31.3730   38.7100 N   0  0  0  0  0  0  0  0  0  0  0  0
   39.7240   31.8580   39.2900 C   0  0  0  0  0  0  0  0  0  0  0  0
   39.1350   32.5720   38.7220 H   0  0  0  0  0  0  0  0  0  0  0  0
   39.3940   31.4360   40.5300 N   0  0  0  0  0  0  0  0  0  0  0  0
   40.1410   30.5480   41.2160 C   0  0  0  0  0  0  0  0  0  0  0  0
   42.8240   29.9450   38.7910 N   0  0  0  0  0  0  0  0  0  0  0  0
   43.1540   29.3750   37.9850 H   0  0  0  0  0  0  0  0  0  0  0  0
   43.8550   29.9730   39.0420 H   0  0  0  0  0  0  0  0  0  0  0  0
   38.2850   32.3480   46.4300 O   0  0  0  0  0  0  0  0  0  0  0  0
   39.0020   32.4870   47.5670 C   0  0  2  0  0  0  0  0  0  0  0  0
   38.0880   32.7880   48.8040 C   0  0  2  0  0  0  0  0  0  0  0  0
   39.0180   33.5120   49.6580 C   0  0  0  0  0  0  0  0  0  0  0  0
   39.8390   34.2840   48.8490 O   0  0  0  0  0  0  0  0  0  0  0  0
   39.6860   33.8820   47.5680 C   0  0  0  0  0  0  0  0  0  0  0  0
   39.7780   31.7720   47.8220 H   0  0  0  0  0  0  0  0  0  0  0  0
   37.3000   33.4650   48.4070 H   0  0  0  0  0  0  0  0  0  0  0  0
   38.4230   34.2100   50.3170 H   0  0  0  0  0  0  0  0  0  0  0  0
   39.6730   32.9160   50.3010 H   0  0  0  0  0  0  0  0  0  0  0  0
   40.6410   33.8190   47.0150 H   0  0  0  0  0  0  0  0  0  0  0  0
   38.9870   34.5560   47.0170 H   0  0  0  0  0  0  0  0  0  0  0  0
   37.3920   29.6860   50.8210 C   0  0  0  0  0  0  0  0  0  0  0  0
   38.0660   30.8590   50.3690 C   0  0  0  0  0  0  0  0  0  0  0  0
   37.4570   31.5990   49.3130 C   0  0  0  0  0  0  0  0  0  0  0  0
   36.2620   31.1600   48.7770 N   0  0  0  0  0  0  0  0  0  0  0  0
   35.6760   30.0480   49.2430 C   0  0  0  0  0  0  0  0  0  0  0  0
   36.2200   29.3080   50.2510 N   0  0  0  0  0  0  0  0  0  0  0  0
   37.8820   29.1620   51.6110 H   0  0  0  0  0  0  0  0  0  0  0  0
   38.9810   31.1480   50.8180 H   0  0  0  0  0  0  0  0  0  0  0  0
   34.7440   29.7600   48.7810 H   0  0  0  0  0  0  0  0  0  0  0  0
  2  1  1  0  0  0  0
  2  3  1  0  0  0  0
  3 25  1  0  0  0  0
  4  3  2  0  0  0  0
  4  8  1  0  0  0  0
  5  4  1  0  0  0  0
  6  7  1  0  0  0  0
  6  5  2  0  0  0  0
  7  2  2  0  0  0  0
  9  5  1  0  0  0  0
 10  6  1  0  0  0  0
 11 12  1  0  0  0  0
 11  7  1  0  0  0  0
 12 13  1  0  0  0  0
 14 12  2  0  0  0  0
 15 21  1  0  0  0  0
 15 14  1  0  0  0  0
 16 15  2  0  0  0  0
 17 18  2  0  0  0  0
 17 16  1  0  0  0  0
 18 20  1  0  0  0  0
 19 18  1  0  0  0  0
 20 21  2  0  0  0  0
 21 11  1  0  0  0  0
 22 24  1  0  0  0  0
 22 16  1  0  0  0  0
 23 22  1  0  0  0  0
 25 26  1  0  0  0  0
 26 30  1  0  0  0  0
 26 31  1  1  0  0  0
 26 27  1  0  0  0  0
 27 32  1  6  0  0  0
 27 39  1  0  0  0  0
 27 28  1  0  0  0  0
 28 34  1  0  0  0  0
 28 33  1  0  0  0  0
 29 28  1  0  0  0  0
 30 29  1  0  0  0  0
 35 30  1  0  0  0  0
 36 30  1  0  0  0  0
 37 43  1  0  0  0  0
 38 44  1  0  0  0  0
 38 37  1  0  0  0  0
 39 38  2  0  0  0  0
 40 41  2  0  0  0  0
 40 39  1  0  0  0  0
 41 42  1  0  0  0  0
 42 37  2  0  0  0  0
 45 41  1  0  0  0  0
M  END
>  <minimizedAffinity>
-6.50236225

>  <minimizedRMSD>
1.91536963

$$$$
