
 OpenBabel03272506443D

 37 40  0  0  1  0  0  0  0  0999 V2000
   32.3990   28.3810   47.4860 C   0  0  2  0  0  0  0  0  0  0  0  0
   33.6300   28.4410   48.3690 C   0  0  1  0  0  0  0  0  0  0  0  0
   34.1890   27.1840   48.4120 O   0  0  0  0  0  0  0  0  0  0  0  0
   33.5310   26.3800   47.5160 C   0  0  0  0  0  0  0  0  0  0  0  0
   32.8490   27.3250   46.5150 C   0  0  1  0  0  0  0  0  0  0  0  0
   31.5150   28.0030   48.0460 H   0  0  0  0  0  0  0  0  0  0  0  0
   33.3470   28.8340   49.3590 H   0  0  0  0  0  0  0  0  0  0  0  0
   32.8190   25.6610   47.9520 H   0  0  0  0  0  0  0  0  0  0  0  0
   34.3090   25.8350   46.9250 H   0  0  0  0  0  0  0  0  0  0  0  0
   33.5720   27.7010   45.7790 H   0  0  0  0  0  0  0  0  0  0  0  0
   32.1510   29.6100   46.8840 O   0  0  0  0  0  0  0  0  0  0  0  0
   31.7290   30.1710   47.6020 H   0  0  0  0  0  0  0  0  0  0  0  0
   34.8140   29.5400   47.5260 S   0  0  0  0  0  0  0  0  0  0  0  0
   37.4100   29.4970   50.5070 C   0  0  0  0  0  0  0  0  0  0  0  0
   38.0140   30.7490   50.4990 C   0  0  0  0  0  0  0  0  0  0  0  0
   37.5950   31.6600   49.5150 C   0  0  0  0  0  0  0  0  0  0  0  0
   36.6340   31.2650   48.6400 N   0  0  0  0  0  0  0  0  0  0  0  0
   36.0710   30.0430   48.6790 C   0  0  0  0  0  0  0  0  0  0  0  0
   36.4610   29.1490   49.6190 N   0  0  0  0  0  0  0  0  0  0  0  0
   37.7700   28.8300   51.2880 H   0  0  0  0  0  0  0  0  0  0  0  0
   38.7680   31.1060   51.1570 H   0  0  0  0  0  0  0  0  0  0  0  0
   37.9670   32.6840   49.3690 H   0  0  0  0  0  0  0  0  0  0  0  0
   31.7960   26.6800   45.8880 O   0  0  0  0  0  0  0  0  0  0  0  0
   31.7110   28.5150   43.7160 H   0  0  0  0  0  0  0  0  0  0  0  0
   31.7250   27.4890   43.5090 N   0  0  0  0  0  0  0  0  0  0  0  0
   31.7660   26.5880   44.5110 C   0  0  0  0  0  0  0  0  0  0  0  0
   31.7760   25.3640   43.9590 N   0  0  0  0  0  0  0  0  0  0  0  0
   31.7440   25.4720   42.6260 C   0  0  0  0  0  0  0  0  0  0  0  0
   31.7350   24.6130   41.5480 C   0  0  0  0  0  0  0  0  0  0  0  0
   31.6970   25.0760   40.2680 N   0  0  0  0  0  0  0  0  0  0  0  0
   31.6670   26.4160   40.0690 C   0  0  0  0  0  0  0  0  0  0  0  0
   31.6370   26.6830   39.0060 H   0  0  0  0  0  0  0  0  0  0  0  0
   31.6730   27.3010   41.0790 N   0  0  0  0  0  0  0  0  0  0  0  0
   31.7110   26.8360   42.3360 C   0  0  0  0  0  0  0  0  0  0  0  0
   31.7680   23.2190   41.7970 N   0  0  0  0  0  0  0  0  0  0  0  0
   31.0240   22.6560   41.3170 H   0  0  0  0  0  0  0  0  0  0  0  0
   32.4570   22.6990   42.4110 H   0  0  0  0  0  0  0  0  0  0  0  0
  1  6  1  1  0  0  0
  1  2  1  0  0  0  0
  2  3  1  0  0  0  0
  2  7  1  1  0  0  0
  4  8  1  0  0  0  0
  4  3  1  0  0  0  0
  5 10  1  6  0  0  0
  5  1  1  0  0  0  0
  5  4  1  0  0  0  0
  9  4  1  0  0  0  0
 11  1  1  0  0  0  0
 11 12  1  0  0  0  0
 13  2  1  0  0  0  0
 13 18  1  0  0  0  0
 14 20  1  0  0  0  0
 15 14  1  0  0  0  0
 15 21  1  0  0  0  0
 16 15  2  0  0  0  0
 17 18  2  0  0  0  0
 17 16  1  0  0  0  0
 18 19  1  0  0  0  0
 19 14  2  0  0  0  0
 22 16  1  0  0  0  0
 23  5  1  0  0  0  0
 25 24  1  0  0  0  0
 25 26  1  0  0  0  0
 26 23  1  0  0  0  0
 27 26  2  0  0  0  0
 28 27  1  0  0  0  0
 29 35  1  0  0  0  0
 29 28  2  0  0  0  0
 30 29  1  0  0  0  0
 31 30  2  0  0  0  0
 31 33  1  0  0  0  0
 32 31  1  0  0  0  0
 33 34  2  0  0  0  0
 34 28  1  0  0  0  0
 34 25  1  0  0  0  0
 35 37  1  0  0  0  0
 36 35  1  0  0  0  0
M  END
>  <minimizedAffinity>
-3.69358921

>  <minimizedRMSD>
0.110823721

$$$$
