
 OpenBabel03272506443D

 37 40  0  0  1  0  0  0  0  0999 V2000
   32.4020   28.3440   47.4940 C   0  0  2  0  0  0  0  0  0  0  0  0
   33.6470   28.3920   48.3580 C   0  0  1  0  0  0  0  0  0  0  0  0
   34.2260   27.1420   48.3450 O   0  0  0  0  0  0  0  0  0  0  0  0
   33.5640   26.3610   47.4320 C   0  0  0  0  0  0  0  0  0  0  0  0
   32.8500   27.3310   46.4780 C   0  0  1  0  0  0  0  0  0  0  0  0
   31.5330   27.9330   48.0550 H   0  0  0  0  0  0  0  0  0  0  0  0
   33.3760   28.7440   49.3660 H   0  0  0  0  0  0  0  0  0  0  0  0
   32.8710   25.6160   47.8530 H   0  0  0  0  0  0  0  0  0  0  0  0
   34.3390   25.8500   46.8080 H   0  0  0  0  0  0  0  0  0  0  0  0
   33.5540   27.7450   45.7440 H   0  0  0  0  0  0  0  0  0  0  0  0
   32.1240   29.5900   46.9420 O   0  0  0  0  0  0  0  0  0  0  0  0
   31.7070   30.1180   47.6870 H   0  0  0  0  0  0  0  0  0  0  0  0
   34.7990   29.5390   47.5350 S   0  0  0  0  0  0  0  0  0  0  0  0
   37.3840   29.4890   50.5270 C   0  0  0  0  0  0  0  0  0  0  0  0
   37.9960   30.7370   50.5160 C   0  0  0  0  0  0  0  0  0  0  0  0
   37.5870   31.6470   49.5270 C   0  0  0  0  0  0  0  0  0  0  0  0
   36.6260   31.2550   48.6500 N   0  0  0  0  0  0  0  0  0  0  0  0
   36.0550   30.0380   48.6910 C   0  0  0  0  0  0  0  0  0  0  0  0
   36.4350   29.1440   49.6370 N   0  0  0  0  0  0  0  0  0  0  0  0
   37.7360   28.8230   51.3110 H   0  0  0  0  0  0  0  0  0  0  0  0
   38.7500   31.0920   51.1760 H   0  0  0  0  0  0  0  0  0  0  0  0
   37.9660   32.6680   49.3780 H   0  0  0  0  0  0  0  0  0  0  0  0
   31.7960   26.6930   45.8460 O   0  0  0  0  0  0  0  0  0  0  0  0
   30.7980   24.9480   43.8330 H   0  0  0  0  0  0  0  0  0  0  0  0
   31.2200   25.8610   43.5440 N   0  0  0  0  0  0  0  0  0  0  0  0
   31.7040   26.7150   44.4680 C   0  0  0  0  0  0  0  0  0  0  0  0
   32.1770   27.7930   43.8210 N   0  0  0  0  0  0  0  0  0  0  0  0
   32.0030   27.6370   42.5040 C   0  0  0  0  0  0  0  0  0  0  0  0
   32.2700   28.3640   41.3630 C   0  0  0  0  0  0  0  0  0  0  0  0
   31.9480   27.8920   40.1270 N   0  0  0  0  0  0  0  0  0  0  0  0
   31.3520   26.6770   40.0370 C   0  0  0  0  0  0  0  0  0  0  0  0
   31.1350   26.3930   39.0010 H   0  0  0  0  0  0  0  0  0  0  0  0
   31.0670   25.9250   41.1120 N   0  0  0  0  0  0  0  0  0  0  0  0
   31.3880   26.3980   42.3250 C   0  0  0  0  0  0  0  0  0  0  0  0
   32.8930   29.6280   41.4990 N   0  0  0  0  0  0  0  0  0  0  0  0
   33.7480   29.7760   40.9100 H   0  0  0  0  0  0  0  0  0  0  0  0
   32.5850   30.4240   42.1280 H   0  0  0  0  0  0  0  0  0  0  0  0
  1  6  1  1  0  0  0
  1  2  1  0  0  0  0
  2  7  1  1  0  0  0
  3  2  1  0  0  0  0
  4  8  1  0  0  0  0
  4  3  1  0  0  0  0
  5 10  1  6  0  0  0
  5  4  1  0  0  0  0
  5  1  1  0  0  0  0
  9  4  1  0  0  0  0
 11  1  1  0  0  0  0
 11 12  1  0  0  0  0
 13  2  1  0  0  0  0
 13 18  1  0  0  0  0
 14 20  1  0  0  0  0
 15 14  1  0  0  0  0
 15 21  1  0  0  0  0
 16 15  2  0  0  0  0
 17 18  2  0  0  0  0
 17 16  1  0  0  0  0
 18 19  1  0  0  0  0
 19 14  2  0  0  0  0
 22 16  1  0  0  0  0
 23  5  1  0  0  0  0
 25 24  1  0  0  0  0
 25 26  1  0  0  0  0
 26 23  1  0  0  0  0
 27 26  2  0  0  0  0
 28 27  1  0  0  0  0
 29 35  1  0  0  0  0
 29 28  2  0  0  0  0
 30 29  1  0  0  0  0
 31 30  2  0  0  0  0
 31 33  1  0  0  0  0
 32 31  1  0  0  0  0
 33 34  2  0  0  0  0
 34 28  1  0  0  0  0
 34 25  1  0  0  0  0
 35 37  1  0  0  0  0
 36 35  1  0  0  0  0
M  END
>  <minimizedAffinity>
-3.70768189

>  <minimizedRMSD>
0.207420126

$$$$
