
 OpenBabel03272506443D

 37 40  0  0  1  0  0  0  0  0999 V2000
   32.3930   28.3670   47.4960 C   0  0  2  0  0  0  0  0  0  0  0  0
   33.6270   28.4260   48.3750 C   0  0  1  0  0  0  0  0  0  0  0  0
   34.1880   27.1690   48.4110 O   0  0  0  0  0  0  0  0  0  0  0  0
   33.5280   26.3670   47.5150 C   0  0  0  0  0  0  0  0  0  0  0  0
   32.8410   27.3150   46.5200 C   0  0  1  0  0  0  0  0  0  0  0  0
   31.5110   27.9860   48.0580 H   0  0  0  0  0  0  0  0  0  0  0  0
   33.3470   28.8150   49.3670 H   0  0  0  0  0  0  0  0  0  0  0  0
   32.8190   25.6460   47.9510 H   0  0  0  0  0  0  0  0  0  0  0  0
   34.3040   25.8260   46.9190 H   0  0  0  0  0  0  0  0  0  0  0  0
   33.5600   27.6940   45.7820 H   0  0  0  0  0  0  0  0  0  0  0  0
   32.1400   29.5970   46.8990 O   0  0  0  0  0  0  0  0  0  0  0  0
   31.7210   30.1550   47.6210 H   0  0  0  0  0  0  0  0  0  0  0  0
   34.8060   29.5290   47.5320 S   0  0  0  0  0  0  0  0  0  0  0  0
   37.3990   29.4960   50.5160 C   0  0  0  0  0  0  0  0  0  0  0  0
   38.0050   30.7470   50.5030 C   0  0  0  0  0  0  0  0  0  0  0  0
   37.5880   31.6540   49.5140 C   0  0  0  0  0  0  0  0  0  0  0  0
   36.6280   31.2560   48.6390 N   0  0  0  0  0  0  0  0  0  0  0  0
   36.0620   30.0360   48.6830 C   0  0  0  0  0  0  0  0  0  0  0  0
   36.4500   29.1450   49.6280 N   0  0  0  0  0  0  0  0  0  0  0  0
   37.7570   28.8320   51.3000 H   0  0  0  0  0  0  0  0  0  0  0  0
   38.7580   31.1060   51.1600 H   0  0  0  0  0  0  0  0  0  0  0  0
   37.9620   32.6770   49.3630 H   0  0  0  0  0  0  0  0  0  0  0  0
   31.7860   26.6700   45.8940 O   0  0  0  0  0  0  0  0  0  0  0  0
   29.8140   25.9990   43.9560 H   0  0  0  0  0  0  0  0  0  0  0  0
   30.7570   26.3130   43.6280 N   0  0  0  0  0  0  0  0  0  0  0  0
   31.7180   26.6390   44.5160 C   0  0  0  0  0  0  0  0  0  0  0  0
   32.8100   27.0010   43.8220 N   0  0  0  0  0  0  0  0  0  0  0  0
   32.5580   26.9090   42.5110 C   0  0  0  0  0  0  0  0  0  0  0  0
   33.2470   27.1330   41.3380 C   0  0  0  0  0  0  0  0  0  0  0  0
   32.6690   26.9330   40.1220 N   0  0  0  0  0  0  0  0  0  0  0  0
   31.3840   26.5030   40.0850 C   0  0  0  0  0  0  0  0  0  0  0  0
   31.0130   26.3730   39.0610 H   0  0  0  0  0  0  0  0  0  0  0  0
   30.6630   26.2670   41.1940 N   0  0  0  0  0  0  0  0  0  0  0  0
   31.2420   26.4680   42.3860 C   0  0  0  0  0  0  0  0  0  0  0  0
   34.5890   27.5820   41.4190 N   0  0  0  0  0  0  0  0  0  0  0  0
   35.2850   27.0290   40.8630 H   0  0  0  0  0  0  0  0  0  0  0  0
   34.9490   28.4080   41.9760 H   0  0  0  0  0  0  0  0  0  0  0  0
  1  6  1  1  0  0  0
  1  2  1  0  0  0  0
  2  3  1  0  0  0  0
  2  7  1  1  0  0  0
  4  8  1  0  0  0  0
  4  3  1  0  0  0  0
  5 10  1  6  0  0  0
  5  1  1  0  0  0  0
  5  4  1  0  0  0  0
  9  4  1  0  0  0  0
 11  1  1  0  0  0  0
 11 12  1  0  0  0  0
 13  2  1  0  0  0  0
 13 18  1  0  0  0  0
 14 20  1  0  0  0  0
 15 14  1  0  0  0  0
 15 21  1  0  0  0  0
 16 15  2  0  0  0  0
 17 18  2  0  0  0  0
 17 16  1  0  0  0  0
 18 19  1  0  0  0  0
 19 14  2  0  0  0  0
 22 16  1  0  0  0  0
 23  5  1  0  0  0  0
 25 24  1  0  0  0  0
 25 26  1  0  0  0  0
 26 23  1  0  0  0  0
 27 26  2  0  0  0  0
 28 27  1  0  0  0  0
 29 35  1  0  0  0  0
 29 28  2  0  0  0  0
 30 29  1  0  0  0  0
 31 30  2  0  0  0  0
 31 33  1  0  0  0  0
 32 31  1  0  0  0  0
 33 34  2  0  0  0  0
 34 28  1  0  0  0  0
 34 25  1  0  0  0  0
 35 37  1  0  0  0  0
 36 35  1  0  0  0  0
M  END
>  <minimizedAffinity>
-3.70959258

>  <minimizedRMSD>
0.10783083

$$$$
