
 OpenBabel03272506443D

 37 40  0  0  1  0  0  0  0  0999 V2000
   32.3890   28.3680   47.5040 C   0  0  2  0  0  0  0  0  0  0  0  0
   33.6270   28.4260   48.3790 C   0  0  1  0  0  0  0  0  0  0  0  0
   34.1850   27.1680   48.4150 O   0  0  0  0  0  0  0  0  0  0  0  0
   33.5200   26.3670   47.5220 C   0  0  0  0  0  0  0  0  0  0  0  0
   32.8320   27.3140   46.5270 C   0  0  1  0  0  0  0  0  0  0  0  0
   31.5090   27.9900   48.0690 H   0  0  0  0  0  0  0  0  0  0  0  0
   33.3500   28.8170   49.3710 H   0  0  0  0  0  0  0  0  0  0  0  0
   32.8110   25.6480   47.9600 H   0  0  0  0  0  0  0  0  0  0  0  0
   34.2930   25.8230   46.9240 H   0  0  0  0  0  0  0  0  0  0  0  0
   33.5500   27.6920   45.7880 H   0  0  0  0  0  0  0  0  0  0  0  0
   32.1380   29.5990   46.9060 O   0  0  0  0  0  0  0  0  0  0  0  0
   31.7210   30.1590   47.6280 H   0  0  0  0  0  0  0  0  0  0  0  0
   34.8050   29.5260   47.5310 S   0  0  0  0  0  0  0  0  0  0  0  0
   37.4080   29.4960   50.5060 C   0  0  0  0  0  0  0  0  0  0  0  0
   38.0100   30.7490   50.4930 C   0  0  0  0  0  0  0  0  0  0  0  0
   37.5870   31.6570   49.5080 C   0  0  0  0  0  0  0  0  0  0  0  0
   36.6240   31.2570   48.6360 N   0  0  0  0  0  0  0  0  0  0  0  0
   36.0640   30.0350   48.6790 C   0  0  0  0  0  0  0  0  0  0  0  0
   36.4570   29.1430   49.6210 N   0  0  0  0  0  0  0  0  0  0  0  0
   37.7710   28.8320   51.2870 H   0  0  0  0  0  0  0  0  0  0  0  0
   38.7640   31.1090   51.1490 H   0  0  0  0  0  0  0  0  0  0  0  0
   37.9560   32.6810   49.3580 H   0  0  0  0  0  0  0  0  0  0  0  0
   31.7740   26.6720   45.9060 O   0  0  0  0  0  0  0  0  0  0  0  0
   30.5840   28.2840   43.8860 H   0  0  0  0  0  0  0  0  0  0  0  0
   31.1210   27.4320   43.6010 N   0  0  0  0  0  0  0  0  0  0  0  0
   31.7000   26.6430   44.5280 C   0  0  0  0  0  0  0  0  0  0  0  0
   32.3130   25.6370   43.8820 N   0  0  0  0  0  0  0  0  0  0  0  0
   32.1350   25.7740   42.5640 C   0  0  0  0  0  0  0  0  0  0  0  0
   32.5030   25.0920   41.4240 C   0  0  0  0  0  0  0  0  0  0  0  0
   32.1370   25.5240   40.1860 N   0  0  0  0  0  0  0  0  0  0  0  0
   31.3930   26.6530   40.0930 C   0  0  0  0  0  0  0  0  0  0  0  0
   31.1530   26.9130   39.0550 H   0  0  0  0  0  0  0  0  0  0  0  0
   31.0040   27.3590   41.1670 N   0  0  0  0  0  0  0  0  0  0  0  0
   31.3690   26.9260   42.3820 C   0  0  0  0  0  0  0  0  0  0  0  0
   33.2810   23.9170   41.5640 N   0  0  0  0  0  0  0  0  0  0  0  0
   32.9130   23.0690   41.0670 H   0  0  0  0  0  0  0  0  0  0  0  0
   34.1820   23.8120   42.1110 H   0  0  0  0  0  0  0  0  0  0  0  0
  1  6  1  1  0  0  0
  1  2  1  0  0  0  0
  2  3  1  0  0  0  0
  2  7  1  1  0  0  0
  4  8  1  0  0  0  0
  4  3  1  0  0  0  0
  5 10  1  6  0  0  0
  5  1  1  0  0  0  0
  5  4  1  0  0  0  0
  9  4  1  0  0  0  0
 11  1  1  0  0  0  0
 11 12  1  0  0  0  0
 13  2  1  0  0  0  0
 13 18  1  0  0  0  0
 14 20  1  0  0  0  0
 15 14  1  0  0  0  0
 15 21  1  0  0  0  0
 16 15  2  0  0  0  0
 17 18  2  0  0  0  0
 17 16  1  0  0  0  0
 18 19  1  0  0  0  0
 19 14  2  0  0  0  0
 22 16  1  0  0  0  0
 23  5  1  0  0  0  0
 25 24  1  0  0  0  0
 25 26  1  0  0  0  0
 26 23  1  0  0  0  0
 27 26  2  0  0  0  0
 28 27  1  0  0  0  0
 29 35  1  0  0  0  0
 29 28  2  0  0  0  0
 30 29  1  0  0  0  0
 31 30  2  0  0  0  0
 31 33  1  0  0  0  0
 32 31  1  0  0  0  0
 33 34  2  0  0  0  0
 34 28  1  0  0  0  0
 34 25  1  0  0  0  0
 35 37  1  0  0  0  0
 36 35  1  0  0  0  0
M  END
>  <minimizedAffinity>
-3.69088745

>  <minimizedRMSD>
0.107011028

$$$$
