
 OpenBabel03272506443D

 37 40  0  0  1  0  0  0  0  0999 V2000
   32.2500   28.1600   47.5110 C   0  0  2  0  0  0  0  0  0  0  0  0
   33.5230   28.1090   48.3330 C   0  0  1  0  0  0  0  0  0  0  0  0
   34.1160   26.8830   48.1280 O   0  0  0  0  0  0  0  0  0  0  0  0
   33.4330   26.2240   47.1370 C   0  0  0  0  0  0  0  0  0  0  0  0
   32.6760   27.3050   46.3500 C   0  0  1  0  0  0  0  0  0  0  0  0
   31.4060   27.6600   48.0370 H   0  0  0  0  0  0  0  0  0  0  0  0
   33.2820   28.3130   49.3880 H   0  0  0  0  0  0  0  0  0  0  0  0
   32.7640   25.4170   47.4730 H   0  0  0  0  0  0  0  0  0  0  0  0
   34.1930   25.8180   46.4230 H   0  0  0  0  0  0  0  0  0  0  0  0
   33.3490   27.8280   45.6580 H   0  0  0  0  0  0  0  0  0  0  0  0
   31.9380   29.4650   47.1460 O   0  0  0  0  0  0  0  0  0  0  0  0
   31.5400   29.8780   47.9700 H   0  0  0  0  0  0  0  0  0  0  0  0
   34.6320   29.3780   47.6410 S   0  0  0  0  0  0  0  0  0  0  0  0
   37.1970   29.2500   50.6470 C   0  0  0  0  0  0  0  0  0  0  0  0
   37.6290   30.5590   50.8290 C   0  0  0  0  0  0  0  0  0  0  0  0
   37.0970   31.5380   49.9730 C   0  0  0  0  0  0  0  0  0  0  0  0
   36.2010   31.1490   49.0290 N   0  0  0  0  0  0  0  0  0  0  0  0
   35.8050   29.8710   48.8820 C   0  0  0  0  0  0  0  0  0  0  0  0
   36.3060   28.9110   49.6970 N   0  0  0  0  0  0  0  0  0  0  0  0
   37.6380   28.5320   51.3340 H   0  0  0  0  0  0  0  0  0  0  0  0
   38.3250   30.9140   51.5490 H   0  0  0  0  0  0  0  0  0  0  0  0
   37.3300   32.6120   49.9820 H   0  0  0  0  0  0  0  0  0  0  0  0
   31.6080   26.7420   45.6700 O   0  0  0  0  0  0  0  0  0  0  0  0
   29.0150   26.6530   44.5060 H   0  0  0  0  0  0  0  0  0  0  0  0
   29.6700   27.4160   44.2190 N   0  0  0  0  0  0  0  0  0  0  0  0
   30.9070   27.4930   44.7470 C   0  0  0  0  0  0  0  0  0  0  0  0
   31.5190   28.5570   44.2030 N   0  0  0  0  0  0  0  0  0  0  0  0
   30.6920   29.1570   43.3390 C   0  0  0  0  0  0  0  0  0  0  0  0
   30.7360   30.2510   42.5010 C   0  0  0  0  0  0  0  0  0  0  0  0
   29.6730   30.5970   41.7250 N   0  0  0  0  0  0  0  0  0  0  0  0
   28.5540   29.8340   41.7910 C   0  0  0  0  0  0  0  0  0  0  0  0
   27.7590   30.1970   41.1290 H   0  0  0  0  0  0  0  0  0  0  0  0
   28.4520   28.7580   42.5870 N   0  0  0  0  0  0  0  0  0  0  0  0
   29.5050   28.4260   43.3480 C   0  0  0  0  0  0  0  0  0  0  0  0
   31.9240   31.0230   42.4620 N   0  0  0  0  0  0  0  0  0  0  0  0
   32.3190   31.1960   41.5060 H   0  0  0  0  0  0  0  0  0  0  0  0
   32.4420   31.4340   43.2890 H   0  0  0  0  0  0  0  0  0  0  0  0
  1  6  1  1  0  0  0
  1  2  1  0  0  0  0
  2  7  1  1  0  0  0
  3  2  1  0  0  0  0
  4  8  1  0  0  0  0
  4  3  1  0  0  0  0
  5 10  1  6  0  0  0
  5  4  1  0  0  0  0
  5  1  1  0  0  0  0
  9  4  1  0  0  0  0
 11  1  1  0  0  0  0
 11 12  1  0  0  0  0
 13  2  1  0  0  0  0
 13 18  1  0  0  0  0
 14 15  1  0  0  0  0
 14 20  1  0  0  0  0
 15 21  1  0  0  0  0
 16 22  1  0  0  0  0
 16 15  2  0  0  0  0
 17 16  1  0  0  0  0
 18 17  2  0  0  0  0
 18 19  1  0  0  0  0
 19 14  2  0  0  0  0
 23  5  1  0  0  0  0
 25 24  1  0  0  0  0
 25 26  1  0  0  0  0
 26 23  1  0  0  0  0
 27 26  2  0  0  0  0
 28 34  1  0  0  0  0
 28 27  1  0  0  0  0
 29 28  2  0  0  0  0
 30 31  2  0  0  0  0
 30 29  1  0  0  0  0
 31 33  1  0  0  0  0
 32 31  1  0  0  0  0
 33 34  2  0  0  0  0
 34 25  1  0  0  0  0
 35 29  1  0  0  0  0
 35 37  1  0  0  0  0
 36 35  1  0  0  0  0
M  END
>  <minimizedAffinity>
-4.05005312

>  <minimizedRMSD>
2.48783517

$$$$
