
 OpenBabel03272506443D

 37 40  0  0  1  0  0  0  0  0999 V2000
   32.2250   28.1690   47.5920 C   0  0  2  0  0  0  0  0  0  0  0  0
   33.5280   28.1140   48.3660 C   0  0  1  0  0  0  0  0  0  0  0  0
   34.0700   26.8580   48.2030 O   0  0  0  0  0  0  0  0  0  0  0  0
   33.3260   26.1760   47.2740 C   0  0  0  0  0  0  0  0  0  0  0  0
   32.5750   27.2420   46.4610 C   0  0  1  0  0  0  0  0  0  0  0  0
   31.3860   27.7270   48.1740 H   0  0  0  0  0  0  0  0  0  0  0  0
   33.3350   28.3800   49.4180 H   0  0  0  0  0  0  0  0  0  0  0  0
   32.6440   25.4110   47.6760 H   0  0  0  0  0  0  0  0  0  0  0  0
   34.0420   25.7070   46.5540 H   0  0  0  0  0  0  0  0  0  0  0  0
   33.2380   27.7050   45.7190 H   0  0  0  0  0  0  0  0  0  0  0  0
   31.9440   29.4650   47.1720 O   0  0  0  0  0  0  0  0  0  0  0  0
   31.5930   29.9330   47.9880 H   0  0  0  0  0  0  0  0  0  0  0  0
   34.6510   29.3050   47.5680 S   0  0  0  0  0  0  0  0  0  0  0  0
   37.2270   29.3380   50.5670 C   0  0  0  0  0  0  0  0  0  0  0  0
   37.7330   30.6310   50.6150 C   0  0  0  0  0  0  0  0  0  0  0  0
   37.2510   31.5470   49.6650 C   0  0  0  0  0  0  0  0  0  0  0  0
   36.3270   31.1160   48.7660 N   0  0  0  0  0  0  0  0  0  0  0  0
   35.8590   29.8550   48.7510 C   0  0  0  0  0  0  0  0  0  0  0  0
   36.3110   28.9550   49.6580 N   0  0  0  0  0  0  0  0  0  0  0  0
   37.6320   28.6690   51.3230 H   0  0  0  0  0  0  0  0  0  0  0  0
   38.4530   31.0180   51.2930 H   0  0  0  0  0  0  0  0  0  0  0  0
   37.5440   32.6020   49.5640 H   0  0  0  0  0  0  0  0  0  0  0  0
   31.4630   26.6850   45.8520 O   0  0  0  0  0  0  0  0  0  0  0  0
   31.0530   28.2740   43.5280 H   0  0  0  0  0  0  0  0  0  0  0  0
   30.3020   28.2420   44.2570 N   0  0  0  0  0  0  0  0  0  0  0  0
   30.4590   27.5020   45.3710 C   0  0  0  0  0  0  0  0  0  0  0  0
   29.3530   27.6480   46.1190 N   0  0  0  0  0  0  0  0  0  0  0  0
   28.4970   28.4690   45.4980 C   0  0  0  0  0  0  0  0  0  0  0  0
   27.2450   28.9890   45.7460 C   0  0  0  0  0  0  0  0  0  0  0  0
   26.6360   29.8310   44.8660 N   0  0  0  0  0  0  0  0  0  0  0  0
   27.2940   30.1540   43.7260 C   0  0  0  0  0  0  0  0  0  0  0  0
   26.7180   30.8360   43.0880 H   0  0  0  0  0  0  0  0  0  0  0  0
   28.5150   29.6800   43.4310 N   0  0  0  0  0  0  0  0  0  0  0  0
   29.1060   28.8510   44.3040 C   0  0  0  0  0  0  0  0  0  0  0  0
   26.5910   28.6270   46.9490 N   0  0  0  0  0  0  0  0  0  0  0  0
   26.2320   29.4250   47.5260 H   0  0  0  0  0  0  0  0  0  0  0  0
   26.4330   27.6460   47.3160 H   0  0  0  0  0  0  0  0  0  0  0  0
  1  6  1  1  0  0  0
  1  2  1  0  0  0  0
  2  7  1  1  0  0  0
  3  2  1  0  0  0  0
  4  8  1  0  0  0  0
  4  3  1  0  0  0  0
  5 10  1  6  0  0  0
  5  4  1  0  0  0  0
  5  1  1  0  0  0  0
  9  4  1  0  0  0  0
 11  1  1  0  0  0  0
 11 12  1  0  0  0  0
 13  2  1  0  0  0  0
 13 18  1  0  0  0  0
 14 15  1  0  0  0  0
 14 20  1  0  0  0  0
 15 21  1  0  0  0  0
 16 15  2  0  0  0  0
 17 16  1  0  0  0  0
 18 17  2  0  0  0  0
 18 19  1  0  0  0  0
 19 14  2  0  0  0  0
 22 16  1  0  0  0  0
 23  5  1  0  0  0  0
 24 25  1  0  0  0  0
 25 34  1  0  0  0  0
 25 26  1  0  0  0  0
 26 23  1  0  0  0  0
 26 27  2  0  0  0  0
 28 29  1  0  0  0  0
 28 27  1  0  0  0  0
 29 35  1  0  0  0  0
 30 29  2  0  0  0  0
 31 30  1  0  0  0  0
 32 31  1  0  0  0  0
 33 31  2  0  0  0  0
 33 34  1  0  0  0  0
 34 28  2  0  0  0  0
 35 37  1  0  0  0  0
 35 36  1  0  0  0  0
M  END
>  <minimizedAffinity>
-4.66824865

>  <minimizedRMSD>
3.25991249

$$$$
