
 OpenBabel03272506443D

 37 40  0  0  1  0  0  0  0  0999 V2000
   32.2020   28.2670   47.5030 C   0  0  2  0  0  0  0  0  0  0  0  0
   33.4770   28.1630   48.3180 C   0  0  1  0  0  0  0  0  0  0  0  0
   33.9730   26.8870   48.1750 O   0  0  0  0  0  0  0  0  0  0  0  0
   33.2330   26.2300   47.2260 C   0  0  0  0  0  0  0  0  0  0  0  0
   32.5500   27.3220   46.3870 C   0  0  1  0  0  0  0  0  0  0  0  0
   31.3280   27.8610   48.0600 H   0  0  0  0  0  0  0  0  0  0  0  0
   33.2620   28.4410   49.3620 H   0  0  0  0  0  0  0  0  0  0  0  0
   32.5090   25.4950   47.6080 H   0  0  0  0  0  0  0  0  0  0  0  0
   33.9520   25.7310   46.5300 H   0  0  0  0  0  0  0  0  0  0  0  0
   33.2530   27.7550   45.6630 H   0  0  0  0  0  0  0  0  0  0  0  0
   31.9860   29.5710   47.0700 O   0  0  0  0  0  0  0  0  0  0  0  0
   31.6280   30.0560   47.8740 H   0  0  0  0  0  0  0  0  0  0  0  0
   34.6700   29.3060   47.5520 S   0  0  0  0  0  0  0  0  0  0  0  0
   37.1660   29.3100   50.6180 C   0  0  0  0  0  0  0  0  0  0  0  0
   37.6420   30.6130   50.7150 C   0  0  0  0  0  0  0  0  0  0  0  0
   37.1630   31.5450   49.7780 C   0  0  0  0  0  0  0  0  0  0  0  0
   36.2740   31.1190   48.8440 N   0  0  0  0  0  0  0  0  0  0  0  0
   35.8350   29.8490   48.7810 C   0  0  0  0  0  0  0  0  0  0  0  0
   36.2840   28.9330   49.6740 N   0  0  0  0  0  0  0  0  0  0  0  0
   37.5670   28.6300   51.3660 H   0  0  0  0  0  0  0  0  0  0  0  0
   38.3350   30.9960   51.4230 H   0  0  0  0  0  0  0  0  0  0  0  0
   37.4350   32.6080   49.7140 H   0  0  0  0  0  0  0  0  0  0  0  0
   31.4370   26.8060   45.7440 O   0  0  0  0  0  0  0  0  0  0  0  0
   31.3140   28.9260   43.8500 H   0  0  0  0  0  0  0  0  0  0  0  0
   30.4430   28.6570   44.3640 N   0  0  0  0  0  0  0  0  0  0  0  0
   30.4600   27.6580   45.2680 C   0  0  0  0  0  0  0  0  0  0  0  0
   29.2180   27.5350   45.7650 N   0  0  0  0  0  0  0  0  0  0  0  0
   28.4140   28.4360   45.1910 C   0  0  0  0  0  0  0  0  0  0  0  0
   27.0850   28.7950   45.2740 C   0  0  0  0  0  0  0  0  0  0  0  0
   26.5700   29.8010   44.5160 N   0  0  0  0  0  0  0  0  0  0  0  0
   27.3990   30.4550   43.6650 C   0  0  0  0  0  0  0  0  0  0  0  0
   26.8870   31.2450   43.1030 H   0  0  0  0  0  0  0  0  0  0  0  0
   28.7010   30.1510   43.5410 N   0  0  0  0  0  0  0  0  0  0  0  0
   29.1980   29.1580   44.2920 C   0  0  0  0  0  0  0  0  0  0  0  0
   26.2520   28.0880   46.1760 N   0  0  0  0  0  0  0  0  0  0  0  0
   25.6930   28.6810   46.8370 H   0  0  0  0  0  0  0  0  0  0  0  0
   26.1390   27.0370   46.2450 H   0  0  0  0  0  0  0  0  0  0  0  0
  1  6  1  1  0  0  0
  1  2  1  0  0  0  0
  2  7  1  1  0  0  0
  3  2  1  0  0  0  0
  4  8  1  0  0  0  0
  4  3  1  0  0  0  0
  5 10  1  6  0  0  0
  5  4  1  0  0  0  0
  5  1  1  0  0  0  0
  9  4  1  0  0  0  0
 11  1  1  0  0  0  0
 11 12  1  0  0  0  0
 13  2  1  0  0  0  0
 13 18  1  0  0  0  0
 14 15  1  0  0  0  0
 14 20  1  0  0  0  0
 15 21  1  0  0  0  0
 16 15  2  0  0  0  0
 17 16  1  0  0  0  0
 18 17  2  0  0  0  0
 18 19  1  0  0  0  0
 19 14  2  0  0  0  0
 22 16  1  0  0  0  0
 23  5  1  0  0  0  0
 24 25  1  0  0  0  0
 25 26  1  0  0  0  0
 26 23  1  0  0  0  0
 26 27  2  0  0  0  0
 28 29  1  0  0  0  0
 28 27  1  0  0  0  0
 29 35  1  0  0  0  0
 30 29  2  0  0  0  0
 31 30  1  0  0  0  0
 32 31  1  0  0  0  0
 33 31  2  0  0  0  0
 33 34  1  0  0  0  0
 34 25  1  0  0  0  0
 34 28  2  0  0  0  0
 35 37  1  0  0  0  0
 35 36  1  0  0  0  0
M  END
>  <minimizedAffinity>
-4.77508879

>  <minimizedRMSD>
3.2779901

$$$$
