
 OpenBabel03272506443D

 37 40  0  0  1  0  0  0  0  0999 V2000
   32.0790   27.8300   47.6600 C   0  0  2  0  0  0  0  0  0  0  0  0
   33.4400   27.7720   48.3270 C   0  0  1  0  0  0  0  0  0  0  0  0
   34.0280   26.5720   47.9950 O   0  0  0  0  0  0  0  0  0  0  0  0
   33.2490   25.9440   47.0570 C   0  0  0  0  0  0  0  0  0  0  0  0
   32.3840   27.0420   46.4160 C   0  0  1  0  0  0  0  0  0  0  0  0
   31.3110   27.2840   48.2530 H   0  0  0  0  0  0  0  0  0  0  0  0
   33.3170   27.9200   49.4120 H   0  0  0  0  0  0  0  0  0  0  0  0
   32.6390   25.1060   47.4260 H   0  0  0  0  0  0  0  0  0  0  0  0
   33.9290   25.5920   46.2410 H   0  0  0  0  0  0  0  0  0  0  0  0
   32.9630   27.6140   45.6790 H   0  0  0  0  0  0  0  0  0  0  0  0
   31.7020   29.1430   47.3980 O   0  0  0  0  0  0  0  0  0  0  0  0
   31.3940   29.5060   48.2820 H   0  0  0  0  0  0  0  0  0  0  0  0
   34.4360   29.0990   47.5770 S   0  0  0  0  0  0  0  0  0  0  0  0
   37.0140   29.2440   50.5710 C   0  0  0  0  0  0  0  0  0  0  0  0
   37.4110   30.5730   50.6630 C   0  0  0  0  0  0  0  0  0  0  0  0
   36.8490   31.4780   49.7460 C   0  0  0  0  0  0  0  0  0  0  0  0
   35.9610   31.0020   48.8340 N   0  0  0  0  0  0  0  0  0  0  0  0
   35.6000   29.7070   48.7760 C   0  0  0  0  0  0  0  0  0  0  0  0
   36.1300   28.8180   49.6510 N   0  0  0  0  0  0  0  0  0  0  0  0
   37.4770   28.5860   51.3030 H   0  0  0  0  0  0  0  0  0  0  0  0
   38.0990   30.9950   51.3530 H   0  0  0  0  0  0  0  0  0  0  0  0
   37.0530   32.5560   49.6800 H   0  0  0  0  0  0  0  0  0  0  0  0
   31.2570   26.4860   45.8350 O   0  0  0  0  0  0  0  0  0  0  0  0
   28.5080   26.6250   46.5540 H   0  0  0  0  0  0  0  0  0  0  0  0
   28.8870   27.3230   45.8720 N   0  0  0  0  0  0  0  0  0  0  0  0
   30.1840   27.2900   45.5060 C   0  0  0  0  0  0  0  0  0  0  0  0
   30.3880   28.2890   44.6330 N   0  0  0  0  0  0  0  0  0  0  0  0
   29.2440   28.9550   44.4390 C   0  0  0  0  0  0  0  0  0  0  0  0
   28.8260   30.0340   43.6890 C   0  0  0  0  0  0  0  0  0  0  0  0
   27.5350   30.4690   43.7260 N   0  0  0  0  0  0  0  0  0  0  0  0
   26.6580   29.8130   44.5250 C   0  0  0  0  0  0  0  0  0  0  0  0
   25.6500   30.2410   44.4810 H   0  0  0  0  0  0  0  0  0  0  0  0
   27.0080   28.7570   45.2760 N   0  0  0  0  0  0  0  0  0  0  0  0
   28.2800   28.3360   45.2320 C   0  0  0  0  0  0  0  0  0  0  0  0
   29.7720   30.6930   42.8670 N   0  0  0  0  0  0  0  0  0  0  0  0
   29.4900   30.8220   41.8660 H   0  0  0  0  0  0  0  0  0  0  0  0
   30.7220   31.0610   43.1610 H   0  0  0  0  0  0  0  0  0  0  0  0
  1  6  1  1  0  0  0
  1  2  1  0  0  0  0
  2  7  1  1  0  0  0
  3  2  1  0  0  0  0
  4  8  1  0  0  0  0
  4  3  1  0  0  0  0
  5 10  1  6  0  0  0
  5  4  1  0  0  0  0
  5  1  1  0  0  0  0
  9  4  1  0  0  0  0
 11  1  1  0  0  0  0
 11 12  1  0  0  0  0
 13  2  1  0  0  0  0
 13 18  1  0  0  0  0
 14 15  1  0  0  0  0
 14 20  1  0  0  0  0
 15 21  1  0  0  0  0
 16 15  2  0  0  0  0
 17 16  1  0  0  0  0
 18 17  2  0  0  0  0
 18 19  1  0  0  0  0
 19 14  2  0  0  0  0
 22 16  1  0  0  0  0
 23  5  1  0  0  0  0
 25 24  1  0  0  0  0
 26 23  1  0  0  0  0
 26 25  1  0  0  0  0
 27 26  2  0  0  0  0
 28 27  1  0  0  0  0
 28 34  1  0  0  0  0
 29 30  1  0  0  0  0
 29 28  2  0  0  0  0
 30 31  2  0  0  0  0
 31 33  1  0  0  0  0
 32 31  1  0  0  0  0
 34 33  2  0  0  0  0
 34 25  1  0  0  0  0
 35 37  1  0  0  0  0
 35 29  1  0  0  0  0
 36 35  1  0  0  0  0
M  END
>  <minimizedAffinity>
-4.39437628

>  <minimizedRMSD>
3.6317265

$$$$
