
 OpenBabel03272502173D

 38 41  0  0  1  0  0  0  0  0999 V2000
   37.4930   30.7530   48.8120 C   0  0  0  0  0  0  0  0  0  0  0  0
   37.5340   31.9620   49.5180 C   0  0  0  0  0  0  0  0  0  0  0  0
   38.2270   33.0320   48.9480 C   0  0  0  0  0  0  0  0  0  0  0  0
   38.8260   32.8280   47.7270 N   0  0  0  0  0  0  0  0  0  0  0  0
   38.7640   31.6620   47.0880 C   0  0  0  0  0  0  0  0  0  0  0  0
   38.1020   30.6390   47.6280 N   0  0  0  0  0  0  0  0  0  0  0  0
   37.1060   32.2100   50.4580 H   0  0  0  0  0  0  0  0  0  0  0  0
   38.3170   33.9970   49.4070 H   0  0  0  0  0  0  0  0  0  0  0  0
   39.3770   31.4360   45.8240 N   0  0  0  0  0  0  0  0  0  0  0  0
   40.5360   30.7680   45.5580 C   0  0  0  0  0  0  0  0  0  0  0  0
   41.0990   30.3370   46.3830 H   0  0  0  0  0  0  0  0  0  0  0  0
   40.7450   30.7950   44.2140 N   0  0  0  0  0  0  0  0  0  0  0  0
   39.7400   31.4610   43.6730 C   0  0  0  0  0  0  0  0  0  0  0  0
   39.5110   31.7510   42.3300 C   0  0  0  0  0  0  0  0  0  0  0  0
   38.3910   32.4560   42.0530 N   0  0  0  0  0  0  0  0  0  0  0  0
   37.5510   32.8500   43.0420 C   0  0  0  0  0  0  0  0  0  0  0  0
   36.6810   33.4130   42.6800 H   0  0  0  0  0  0  0  0  0  0  0  0
   37.7830   32.5640   44.3370 N   0  0  0  0  0  0  0  0  0  0  0  0
   38.8800   31.8650   44.6730 C   0  0  0  0  0  0  0  0  0  0  0  0
   40.4250   31.3160   41.3270 N   0  0  0  0  0  0  0  0  0  0  0  0
   40.9320   32.0470   40.7880 H   0  0  0  0  0  0  0  0  0  0  0  0
   40.3530   30.2640   41.3840 H   0  0  0  0  0  0  0  0  0  0  0  0
   36.5780   29.4990   49.6660 S   0  0  0  0  0  0  0  0  0  0  0  0
   34.0980   28.4570   49.3310 N   0  0  0  0  0  0  0  0  0  0  0  0
   34.7630   29.7260   49.4380 C   0  0  2  0  0  0  0  0  0  0  0  0
   34.5380   30.5020   48.1560 C   0  0  0  0  0  0  0  0  0  0  0  0
   33.4600   29.9520   47.4340 O   0  0  0  0  0  0  0  0  0  0  0  0
   33.9290   28.7250   46.9680 C   0  0  0  0  0  0  0  0  0  0  0  0
   34.4920   27.8610   48.0710 C   0  0  2  0  0  0  0  0  0  0  0  0
   34.3590   27.8430   50.1300 H   0  0  0  0  0  0  0  0  0  0  0  0
   34.3510   30.2350   50.3330 H   0  0  0  0  0  0  0  0  0  0  0  0
   34.2240   31.5250   48.4450 H   0  0  0  0  0  0  0  0  0  0  0  0
   35.4380   30.5990   47.5340 H   0  0  0  0  0  0  0  0  0  0  0  0
   34.7460   28.9270   46.2270 H   0  0  0  0  0  0  0  0  0  0  0  0
   33.1180   28.2300   46.4080 H   0  0  0  0  0  0  0  0  0  0  0  0
   35.5980   27.7950   47.9810 H   0  0  0  0  0  0  0  0  0  0  0  0
   33.9360   26.5650   48.0160 O   0  0  0  0  0  0  0  0  0  0  0  0
   34.3310   26.1330   47.2200 H   0  0  0  0  0  0  0  0  0  0  0  0
  1  2  1  0  0  0  0
  1 23  1  0  0  0  0
  2  7  1  0  0  0  0
  3  8  1  0  0  0  0
  3  2  2  0  0  0  0
  4  3  1  0  0  0  0
  5  6  1  0  0  0  0
  5  4  2  0  0  0  0
  6  1  2  0  0  0  0
  9  5  1  0  0  0  0
 10  9  1  0  0  0  0
 10 11  1  0  0  0  0
 12 10  2  0  0  0  0
 13 12  1  0  0  0  0
 13 19  1  0  0  0  0
 14 13  2  0  0  0  0
 15 14  1  0  0  0  0
 15 16  2  0  0  0  0
 16 18  1  0  0  0  0
 17 16  1  0  0  0  0
 18 19  2  0  0  0  0
 19  9  1  0  0  0  0
 20 22  1  0  0  0  0
 20 14  1  0  0  0  0
 21 20  1  0  0  0  0
 24 25  1  0  0  0  0
 24 30  1  0  0  0  0
 25 23  1  0  0  0  0
 25 31  1  1  0  0  0
 26 32  1  0  0  0  0
 26 25  1  0  0  0  0
 27 26  1  0  0  0  0
 28 27  1  0  0  0  0
 28 29  1  0  0  0  0
 29 36  1  6  0  0  0
 29 24  1  0  0  0  0
 33 26  1  0  0  0  0
 34 28  1  0  0  0  0
 35 28  1  0  0  0  0
 37 29  1  0  0  0  0
 38 37  1  0  0  0  0
M  END
>  <minimizedAffinity>
-6.13860655

>  <minimizedRMSD>
0.867453992

$$$$
