
 OpenBabel03262522443D

 42 46  0  0  1  0  0  0  0  0999 V2000
   36.5730   28.0670   42.0990 C   0  0  0  0  0  0  0  0  0  0  0  0
   36.5080   28.9210   43.2770 C   0  0  0  0  0  0  0  0  0  0  0  0
   37.6540   29.5000   43.7340 C   0  0  0  0  0  0  0  0  0  0  0  0
   38.8180   29.2290   43.0400 N   0  0  0  0  0  0  0  0  0  0  0  0
   38.8560   28.4350   41.9570 C   0  0  0  0  0  0  0  0  0  0  0  0
   37.7390   27.8640   41.4950 N   0  0  0  0  0  0  0  0  0  0  0  0
   40.0740   28.1520   41.2960 N   0  0  0  0  0  0  0  0  0  0  0  0
   35.6330   27.6360   41.7790 H   0  0  0  0  0  0  0  0  0  0  0  0
   40.3820   27.2730   41.7960 H   0  0  0  0  0  0  0  0  0  0  0  0
   40.5080   28.6890   40.5360 H   0  0  0  0  0  0  0  0  0  0  0  0
   37.7330   30.3560   44.8650 N   0  0  0  0  0  0  0  0  0  0  0  0
   36.7860   30.4770   45.8430 C   0  0  0  0  0  0  0  0  0  0  0  0
   35.8550   29.9170   45.8580 H   0  0  0  0  0  0  0  0  0  0  0  0
   37.2400   31.3980   46.7410 N   0  0  0  0  0  0  0  0  0  0  0  0
   38.4460   31.8660   46.3620 C   0  0  0  0  0  0  0  0  0  0  0  0
   39.3650   32.7720   46.8400 C   0  0  0  0  0  0  0  0  0  0  0  0
   40.5150   33.0260   46.2120 N   0  0  0  0  0  0  0  0  0  0  0  0
   40.8050   32.3840   45.0680 C   0  0  0  0  0  0  0  0  0  0  0  0
   41.7520   32.6350   44.6080 H   0  0  0  0  0  0  0  0  0  0  0  0
   39.9360   31.4840   44.5540 N   0  0  0  0  0  0  0  0  0  0  0  0
   38.7600   31.2040   45.1700 C   0  0  0  0  0  0  0  0  0  0  0  0
   35.2070   29.2360   43.9650 C   0  0  1  0  0  0  0  0  0  0  0  0
   33.9830   29.2490   43.2230 C   0  0  0  0  0  0  0  0  0  0  0  0
   34.2250   28.0200   44.0810 C   0  0  2  0  0  0  0  0  0  0  0  0
   35.3210   29.6190   45.0140 H   0  0  0  0  0  0  0  0  0  0  0  0
   33.1370   29.9190   43.5580 H   0  0  0  0  0  0  0  0  0  0  0  0
   33.9070   29.0660   42.1380 H   0  0  0  0  0  0  0  0  0  0  0  0
   34.1670   27.1720   43.3940 H   0  0  0  0  0  0  0  0  0  0  0  0
   31.1970   27.4040   43.8470 Cl  0  0  0  0  0  0  0  0  0  0  0  0
   32.0150   27.6620   45.3680 C   0  0  0  0  0  0  0  0  0  0  0  0
   33.3500   27.9730   45.2550 C   0  0  0  0  0  0  0  0  0  0  0  0
   34.0190   28.2010   46.4510 C   0  0  0  0  0  0  0  0  0  0  0  0
   33.3720   28.1220   47.6850 C   0  0  0  0  0  0  0  0  0  0  0  0
   32.0020   27.8030   47.7340 C   0  0  0  0  0  0  0  0  0  0  0  0
   31.0710   27.7240   49.2140 Cl  0  0  0  0  0  0  0  0  0  0  0  0
   31.3270   27.5700   46.5340 C   0  0  0  0  0  0  0  0  0  0  0  0
   35.0390   28.4410   46.7040 H   0  0  0  0  0  0  0  0  0  0  0  0
   33.7720   28.2740   48.6720 H   0  0  0  0  0  0  0  0  0  0  0  0
   30.2810   27.3190   46.4990 H   0  0  0  0  0  0  0  0  0  0  0  0
   39.0480   33.4440   48.0500 N   0  0  0  0  0  0  0  0  0  0  0  0
   39.6930   34.0320   48.6080 H   0  0  0  0  0  0  0  0  0  0  0  0
   38.1220   33.4100   48.4960 H   0  0  0  0  0  0  0  0  0  0  0  0
  1  2  1  0  0  0  0
  2  3  2  0  0  0  0
  2 22  1  0  0  0  0
  3 11  1  0  0  0  0
  4  3  1  0  0  0  0
  5  4  2  0  0  0  0
  6  5  1  0  0  0  0
  6  1  2  0  0  0  0
  7  9  1  0  0  0  0
  7  5  1  0  0  0  0
  8  1  1  0  0  0  0
 10  7  1  0  0  0  0
 11 21  1  0  0  0  0
 11 12  1  0  0  0  0
 12 13  1  0  0  0  0
 12 14  2  0  0  0  0
 15 14  1  0  0  0  0
 15 16  1  0  0  0  0
 16 40  1  0  0  0  0
 17 16  2  0  0  0  0
 18 17  1  0  0  0  0
 19 18  1  0  0  0  0
 20 18  2  0  0  0  0
 20 21  1  0  0  0  0
 21 15  2  0  0  0  0
 22 24  1  0  0  0  0
 22 25  1  1  0  0  0
 23 26  1  0  0  0  0
 23 22  1  0  0  0  0
 23 24  1  0  0  0  0
 24 28  1  6  0  0  0
 24 31  1  0  0  0  0
 27 23  1  0  0  0  0
 29 30  1  0  0  0  0
 30 36  1  0  0  0  0
 31 30  2  0  0  0  0
 31 32  1  0  0  0  0
 32 37  1  0  0  0  0
 32 33  2  0  0  0  0
 33 34  1  0  0  0  0
 33 38  1  0  0  0  0
 34 35  1  0  0  0  0
 36 34  2  0  0  0  0
 39 36  1  0  0  0  0
 40 42  1  0  0  0  0
 40 41  1  0  0  0  0
M  END
>  <minimizedAffinity>
-5.14513493

>  <minimizedRMSD>
4.52902031

$$$$
