
 OpenBabel03272502173D

 38 41  0  0  1  0  0  0  0  0999 V2000
   37.3970   30.7930   48.6120 C   0  0  0  0  0  0  0  0  0  0  0  0
   37.6990   31.6870   49.6460 C   0  0  0  0  0  0  0  0  0  0  0  0
   38.5470   32.7590   49.3620 C   0  0  0  0  0  0  0  0  0  0  0  0
   39.0310   32.8680   48.0790 N   0  0  0  0  0  0  0  0  0  0  0  0
   38.7180   31.9970   47.1220 C   0  0  0  0  0  0  0  0  0  0  0  0
   37.9090   30.9720   47.3910 N   0  0  0  0  0  0  0  0  0  0  0  0
   37.3770   31.6830   50.6590 H   0  0  0  0  0  0  0  0  0  0  0  0
   38.8400   33.4970   50.0830 H   0  0  0  0  0  0  0  0  0  0  0  0
   39.2100   32.0960   45.7900 N   0  0  0  0  0  0  0  0  0  0  0  0
   39.7660   33.1810   45.1770 C   0  0  0  0  0  0  0  0  0  0  0  0
   39.8690   34.1090   45.7350 H   0  0  0  0  0  0  0  0  0  0  0  0
   40.0950   32.8280   43.9030 N   0  0  0  0  0  0  0  0  0  0  0  0
   39.7470   31.5630   43.7440 C   0  0  0  0  0  0  0  0  0  0  0  0
   39.8820   30.7600   42.6150 C   0  0  0  0  0  0  0  0  0  0  0  0
   39.4390   29.4870   42.7300 N   0  0  0  0  0  0  0  0  0  0  0  0
   38.8960   29.0380   43.8880 C   0  0  0  0  0  0  0  0  0  0  0  0
   38.5770   27.9880   43.8460 H   0  0  0  0  0  0  0  0  0  0  0  0
   38.7700   29.8240   44.9740 N   0  0  0  0  0  0  0  0  0  0  0  0
   39.1940   31.0990   44.9200 C   0  0  0  0  0  0  0  0  0  0  0  0
   40.4600   31.2770   41.4200 N   0  0  0  0  0  0  0  0  0  0  0  0
   39.8510   31.3380   40.5780 H   0  0  0  0  0  0  0  0  0  0  0  0
   41.4530   31.4890   41.7110 H   0  0  0  0  0  0  0  0  0  0  0  0
   36.3140   29.4920   49.1330 S   0  0  0  0  0  0  0  0  0  0  0  0
   33.6980   28.7910   49.0120 N   0  0  0  0  0  0  0  0  0  0  0  0
   34.5490   29.9340   48.8340 C   0  0  2  0  0  0  0  0  0  0  0  0
   34.4160   30.4190   47.4040 C   0  0  0  0  0  0  0  0  0  0  0  0
   33.2530   29.8890   46.8120 O   0  0  0  0  0  0  0  0  0  0  0  0
   33.5210   28.5300   46.6480 C   0  0  0  0  0  0  0  0  0  0  0  0
   33.9700   27.8670   47.9290 C   0  0  2  0  0  0  0  0  0  0  0  0
   33.8800   28.3440   49.9350 H   0  0  0  0  0  0  0  0  0  0  0  0
   34.2380   30.6910   49.5810 H   0  0  0  0  0  0  0  0  0  0  0  0
   34.2660   31.5170   47.4450 H   0  0  0  0  0  0  0  0  0  0  0  0
   35.3070   30.2330   46.7900 H   0  0  0  0  0  0  0  0  0  0  0  0
   34.3430   28.4310   45.8930 H   0  0  0  0  0  0  0  0  0  0  0  0
   32.6320   28.0490   46.2070 H   0  0  0  0  0  0  0  0  0  0  0  0
   35.0510   27.6150   47.8720 H   0  0  0  0  0  0  0  0  0  0  0  0
   33.2240   26.6930   48.1670 O   0  0  0  0  0  0  0  0  0  0  0  0
   33.5320   26.0350   47.4970 H   0  0  0  0  0  0  0  0  0  0  0  0
  1 23  1  0  0  0  0
  1  2  1  0  0  0  0
  2  7  1  0  0  0  0
  3  2  2  0  0  0  0
  3  8  1  0  0  0  0
  4  3  1  0  0  0  0
  5  6  1  0  0  0  0
  5  4  2  0  0  0  0
  6  1  2  0  0  0  0
  9  5  1  0  0  0  0
 10 11  1  0  0  0  0
 10  9  1  0  0  0  0
 12 10  2  0  0  0  0
 13 12  1  0  0  0  0
 13 19  1  0  0  0  0
 14 15  1  0  0  0  0
 14 13  2  0  0  0  0
 15 16  2  0  0  0  0
 16 18  1  0  0  0  0
 17 16  1  0  0  0  0
 19 18  2  0  0  0  0
 19  9  1  0  0  0  0
 20 22  1  0  0  0  0
 20 14  1  0  0  0  0
 21 20  1  0  0  0  0
 24 30  1  0  0  0  0
 25 24  1  0  0  0  0
 25 23  1  0  0  0  0
 25 31  1  1  0  0  0
 26 32  1  0  0  0  0
 26 25  1  0  0  0  0
 27 26  1  0  0  0  0
 28 27  1  0  0  0  0
 28 29  1  0  0  0  0
 29 36  1  6  0  0  0
 29 37  1  0  0  0  0
 29 24  1  0  0  0  0
 33 26  1  0  0  0  0
 34 28  1  0  0  0  0
 35 28  1  0  0  0  0
 38 37  1  0  0  0  0
M  END
>  <minimizedAffinity>
-6.33224058

>  <minimizedRMSD>
1.16107988

$$$$
