
 OpenBabel03272502053D

 44 48  0  0  0  0  0  0  0  0999 V2000
   34.4720   30.7390   46.7720 F   0  0  0  0  0  0  0  0  0  0  0  0
   34.8430   30.0810   45.6280 C   0  0  0  0  0  0  0  0  0  0  0  0
   33.9260   29.4080   44.8380 C   0  0  0  0  0  0  0  0  0  0  0  0
   34.3730   28.7820   43.6890 C   0  0  0  0  0  0  0  0  0  0  0  0
   35.7250   28.8260   43.3290 C   0  0  0  0  0  0  0  0  0  0  0  0
   36.5840   29.5150   44.1650 C   0  0  0  0  0  0  0  0  0  0  0  0
   36.1940   30.1370   45.2910 C   0  0  0  0  0  0  0  0  0  0  0  0
   33.6170   28.2760   43.1170 H   0  0  0  0  0  0  0  0  0  0  0  0
   36.0300   28.3230   42.4220 H   0  0  0  0  0  0  0  0  0  0  0  0
   37.6020   29.5020   43.8180 H   0  0  0  0  0  0  0  0  0  0  0  0
   32.3500   28.9710   46.6030 C   0  0  0  0  0  0  0  0  0  0  0  0
   32.5750   29.4360   45.3140 C   0  0  0  0  0  0  0  0  0  0  0  0
   31.4860   29.8960   44.5970 C   0  0  0  0  0  0  0  0  0  0  0  0
   30.2490   29.8850   45.1480 N   0  0  0  0  0  0  0  0  0  0  0  0
   30.0690   29.4300   46.3940 C   0  0  0  0  0  0  0  0  0  0  0  0
   31.0890   28.9830   47.1100 N   0  0  0  0  0  0  0  0  0  0  0  0
   33.1710   28.5990   47.2110 H   0  0  0  0  0  0  0  0  0  0  0  0
   31.7030   30.2550   43.5800 H   0  0  0  0  0  0  0  0  0  0  0  0
   28.7030   29.4980   46.8010 N   0  0  0  0  0  0  0  0  0  0  0  0
   27.7440   30.4260   46.5330 C   0  0  0  0  0  0  0  0  0  0  0  0
   27.9170   31.2970   45.9300 H   0  0  0  0  0  0  0  0  0  0  0  0
   26.5890   30.0540   47.1460 N   0  0  0  0  0  0  0  0  0  0  0  0
   26.8390   28.9170   47.7770 C   0  0  0  0  0  0  0  0  0  0  0  0
   26.0740   28.0770   48.5550 C   0  0  0  0  0  0  0  0  0  0  0  0
   26.5840   26.9400   49.1010 N   0  0  0  0  0  0  0  0  0  0  0  0
   27.8710   26.5920   48.8960 C   0  0  0  0  0  0  0  0  0  0  0  0
   28.2340   25.6800   49.3490 H   0  0  0  0  0  0  0  0  0  0  0  0
   28.6300   27.4030   48.1380 N   0  0  0  0  0  0  0  0  0  0  0  0
   28.1450   28.5320   47.5890 C   0  0  0  0  0  0  0  0  0  0  0  0
   24.7050   28.3390   48.8400 N   0  0  0  0  0  0  0  0  0  0  0  0
   23.7230   28.1940   48.5270 H   0  0  0  0  0  0  0  0  0  0  0  0
   24.6850   28.9150   49.7330 H   0  0  0  0  0  0  0  0  0  0  0  0
   37.8680   32.4410   43.9830 Br  0  0  0  0  0  0  0  0  0  0  0  0
   37.9730   31.8820   45.8020 C   0  0  0  0  0  0  0  0  0  0  0  0
   37.1550   30.8330   46.1270 C   0  0  0  0  0  0  0  0  0  0  0  0
   37.2030   30.3410   47.4440 C   0  0  0  0  0  0  0  0  0  0  0  0
   38.0370   30.8950   48.3620 C   0  0  0  0  0  0  0  0  0  0  0  0
   38.8360   31.9530   47.9690 C   0  0  0  0  0  0  0  0  0  0  0  0
   38.8150   32.4670   46.6720 C   0  0  0  0  0  0  0  0  0  0  0  0
   36.5930   29.5160   47.7870 H   0  0  0  0  0  0  0  0  0  0  0  0
   38.0880   30.5300   49.3800 H   0  0  0  0  0  0  0  0  0  0  0  0
   39.5180   32.4260   48.6750 H   0  0  0  0  0  0  0  0  0  0  0  0
   39.5670   33.5040   46.2130 O   0  0  0  0  0  0  0  0  0  0  0  0
   40.4220   33.3910   45.7130 H   0  0  0  0  0  0  0  0  0  0  0  0
  2  1  1  0  0  0  0
  3 12  1  0  0  0  0
  3  2  2  0  0  0  0
  4  3  1  0  0  0  0
  5  4  2  0  0  0  0
  5  6  1  0  0  0  0
  6  7  2  0  0  0  0
  7  2  1  0  0  0  0
  7 35  1  0  0  0  0
  8  4  1  0  0  0  0
  9  5  1  0  0  0  0
 10  6  1  0  0  0  0
 11 16  1  0  0  0  0
 11 17  1  0  0  0  0
 12 11  2  0  0  0  0
 13 14  2  0  0  0  0
 13 12  1  0  0  0  0
 14 15  1  0  0  0  0
 15 19  1  0  0  0  0
 15 16  2  0  0  0  0
 18 13  1  0  0  0  0
 19 29  1  0  0  0  0
 20 19  1  0  0  0  0
 20 22  2  0  0  0  0
 21 20  1  0  0  0  0
 22 23  1  0  0  0  0
 23 24  1  0  0  0  0
 24 30  1  0  0  0  0
 24 25  2  0  0  0  0
 26 25  1  0  0  0  0
 26 27  1  0  0  0  0
 28 26  2  0  0  0  0
 29 23  2  0  0  0  0
 29 28  1  0  0  0  0
 30 32  1  0  0  0  0
 31 30  1  0  0  0  0
 33 34  1  0  0  0  0
 34 35  2  0  0  0  0
 34 39  1  0  0  0  0
 35 36  1  0  0  0  0
 36 40  1  0  0  0  0
 36 37  2  0  0  0  0
 37 41  1  0  0  0  0
 38 37  1  0  0  0  0
 38 42  1  0  0  0  0
 39 38  2  0  0  0  0
 43 39  1  0  0  0  0
 44 43  1  0  0  0  0
M  END
>  <minimizedAffinity>
-7.19115782

>  <minimizedRMSD>
1.04580915

$$$$
