
 OpenBabel03262521143D

 36 39  0  0  0  0  0  0  0  0999 V2000
   38.3080   25.8420   32.5980 C   0  0  0  0  0  0  0  0  0  0  0  0
   37.5590   26.1200   31.4710 C   0  0  0  0  0  0  0  0  0  0  0  0
   37.2940   24.9840   30.8460 N   0  0  0  0  0  0  0  0  0  0  0  0
   37.8410   23.9660   31.5190 C   0  0  0  0  0  0  0  0  0  0  0  0
   38.4720   24.4890   32.6070 N   0  0  0  0  0  0  0  0  0  0  0  0
   37.2560   27.1300   31.1800 H   0  0  0  0  0  0  0  0  0  0  0  0
   36.7320   24.9690   29.9580 H   0  0  0  0  0  0  0  0  0  0  0  0
   37.7010   22.6280   31.0540 N   0  0  0  0  0  0  0  0  0  0  0  0
   38.5440   22.0120   30.1740 C   0  0  0  0  0  0  0  0  0  0  0  0
   39.4210   22.4700   29.7250 H   0  0  0  0  0  0  0  0  0  0  0  0
   38.1050   20.7420   29.9570 N   0  0  0  0  0  0  0  0  0  0  0  0
   37.0050   20.5990   30.7030 C   0  0  0  0  0  0  0  0  0  0  0  0
   36.1230   19.5560   30.9080 C   0  0  0  0  0  0  0  0  0  0  0  0
   35.0580   19.6880   31.7460 N   0  0  0  0  0  0  0  0  0  0  0  0
   34.8220   20.8370   32.4060 C   0  0  0  0  0  0  0  0  0  0  0  0
   33.9970   21.0050   33.0850 H   0  0  0  0  0  0  0  0  0  0  0  0
   35.6640   21.8720   32.2290 N   0  0  0  0  0  0  0  0  0  0  0  0
   36.7190   21.7530   31.4040 C   0  0  0  0  0  0  0  0  0  0  0  0
   36.2850   18.3020   30.2570 N   0  0  0  0  0  0  0  0  0  0  0  0
   37.1540   17.8910   30.7090 H   0  0  0  0  0  0  0  0  0  0  0  0
   35.8800   17.6810   29.5380 H   0  0  0  0  0  0  0  0  0  0  0  0
   38.8230   26.7150   33.5680 O   0  0  0  0  0  0  0  0  0  0  0  0
   36.7670   27.7950   34.6690 O   0  0  0  0  0  0  0  0  0  0  0  0
   37.9280   26.8780   34.9900 P   0  0  2  0  0  0  0  0  0  0  0  0
   38.8910   27.4970   36.2350 O   0  0  0  0  0  0  0  0  0  0  0  0
   38.5480   27.3050   37.1260 H   0  0  0  0  0  0  0  0  0  0  0  0
   37.3910   25.3370   35.5020 O   0  0  0  0  0  0  0  0  0  0  0  0
   38.1330   24.5420   36.3710 C   0  0  0  0  0  0  0  0  0  0  0  0
   37.7560   24.1660   37.6740 C   0  0  0  0  0  0  0  0  0  0  0  0
   38.6410   23.3700   38.3750 C   0  0  0  0  0  0  0  0  0  0  0  0
   39.8040   22.9780   37.8240 N   0  0  0  0  0  0  0  0  0  0  0  0
   40.1350   23.3680   36.5460 C   0  0  0  0  0  0  0  0  0  0  0  0
   39.2960   24.1470   35.8300 N   0  0  0  0  0  0  0  0  0  0  0  0
   36.8050   24.5440   37.9970 H   0  0  0  0  0  0  0  0  0  0  0  0
   38.2960   23.1180   39.3590 H   0  0  0  0  0  0  0  0  0  0  0  0
   41.0830   23.0390   36.1160 H   0  0  0  0  0  0  0  0  0  0  0  0
  1  5  1  0  0  0  0
  1 22  1  0  0  0  0
  2  1  2  0  0  0  0
  3  2  1  0  0  0  0
  3  4  1  0  0  0  0
  4  5  2  0  0  0  0
  6  2  1  0  0  0  0
  7  3  1  0  0  0  0
  8 18  1  0  0  0  0
  8  4  1  0  0  0  0
  9  8  1  0  0  0  0
 10  9  1  0  0  0  0
 11  9  2  0  0  0  0
 11 12  1  0  0  0  0
 12 13  2  0  0  0  0
 12 18  1  0  0  0  0
 13 14  1  0  0  0  0
 14 15  2  0  0  0  0
 15 16  1  0  0  0  0
 17 15  1  0  0  0  0
 18 17  2  0  0  0  0
 19 20  1  0  0  0  0
 19 13  1  0  0  0  0
 21 19  1  0  0  0  0
 22 24  1  0  0  0  0
 24 23  2  6  0  0  0
 24 27  1  0  0  0  0
 24 25  1  0  0  0  0
 25 26  1  0  0  0  0
 27 28  1  0  0  0  0
 28 29  1  0  0  0  0
 29 34  1  0  0  0  0
 29 30  2  0  0  0  0
 30 35  1  0  0  0  0
 31 30  1  0  0  0  0
 32 31  2  0  0  0  0
 33 28  2  0  0  0  0
 33 32  1  0  0  0  0
 36 32  1  0  0  0  0
M  END
>  <minimizedAffinity>
-6.22915649

$$$$

 OpenBabel03262521143D

 36 39  0  0  0  0  0  0  0  0999 V2000
   37.4200   27.0810   32.5430 C   0  0  0  0  0  0  0  0  0  0  0  0
   36.6910   25.9450   32.2490 C   0  0  0  0  0  0  0  0  0  0  0  0
   37.2100   24.9230   32.9110 N   0  0  0  0  0  0  0  0  0  0  0  0
   38.2550   25.3430   33.6320 C   0  0  0  0  0  0  0  0  0  0  0  0
   38.3920   26.6800   33.4100 N   0  0  0  0  0  0  0  0  0  0  0  0
   35.8300   25.9370   31.5730 H   0  0  0  0  0  0  0  0  0  0  0  0
   36.8030   23.9580   32.8280 H   0  0  0  0  0  0  0  0  0  0  0  0
   38.9940   24.4330   34.4390 N   0  0  0  0  0  0  0  0  0  0  0  0
   40.0590   23.6930   34.0130 C   0  0  0  0  0  0  0  0  0  0  0  0
   40.4690   23.7120   33.0070 H   0  0  0  0  0  0  0  0  0  0  0  0
   40.5150   22.9380   35.0500 N   0  0  0  0  0  0  0  0  0  0  0  0
   39.7270   23.2240   36.0900 C   0  0  0  0  0  0  0  0  0  0  0  0
   39.6840   22.7890   37.4000 C   0  0  0  0  0  0  0  0  0  0  0  0
   38.7490   23.2590   38.2700 N   0  0  0  0  0  0  0  0  0  0  0  0
   37.8300   24.1660   37.8890 C   0  0  0  0  0  0  0  0  0  0  0  0
   37.0630   24.5800   38.5310 H   0  0  0  0  0  0  0  0  0  0  0  0
   37.8450   24.6120   36.6190 N   0  0  0  0  0  0  0  0  0  0  0  0
   38.7640   24.1530   35.7520 C   0  0  0  0  0  0  0  0  0  0  0  0
   40.6120   21.8320   37.8990 N   0  0  0  0  0  0  0  0  0  0  0  0
   41.5340   22.3580   37.9160 H   0  0  0  0  0  0  0  0  0  0  0  0
   40.7020   20.8590   38.2330 H   0  0  0  0  0  0  0  0  0  0  0  0
   37.2510   28.3970   32.0860 O   0  0  0  0  0  0  0  0  0  0  0  0
   34.6830   28.3900   32.2000 O   0  0  0  0  0  0  0  0  0  0  0  0
   35.8780   29.2150   32.6280 P   0  0  2  0  0  0  0  0  0  0  0  0
   35.8220   30.7800   31.9860 O   0  0  0  0  0  0  0  0  0  0  0  0
   35.2680   31.3930   32.5010 H   0  0  0  0  0  0  0  0  0  0  0  0
   35.9520   29.3820   34.3280 O   0  0  0  0  0  0  0  0  0  0  0  0
   35.3890   30.4680   34.9940 C   0  0  0  0  0  0  0  0  0  0  0  0
   36.0540   31.3250   35.8890 C   0  0  0  0  0  0  0  0  0  0  0  0
   35.3090   32.3470   36.4460 C   0  0  0  0  0  0  0  0  0  0  0  0
   34.0090   32.5030   36.1360 N   0  0  0  0  0  0  0  0  0  0  0  0
   33.3960   31.6420   35.2550 C   0  0  0  0  0  0  0  0  0  0  0  0
   34.0910   30.6310   34.6910 N   0  0  0  0  0  0  0  0  0  0  0  0
   37.0900   31.0950   36.0530 H   0  0  0  0  0  0  0  0  0  0  0  0
   35.8730   32.9650   37.1180 H   0  0  0  0  0  0  0  0  0  0  0  0
   32.3400   31.7850   35.0150 H   0  0  0  0  0  0  0  0  0  0  0  0
  1  5  1  0  0  0  0
  2  1  2  0  0  0  0
  2  3  1  0  0  0  0
  3  4  1  0  0  0  0
  4  8  1  0  0  0  0
  5  4  2  0  0  0  0
  6  2  1  0  0  0  0
  7  3  1  0  0  0  0
  8 18  1  0  0  0  0
  9  8  1  0  0  0  0
  9 11  2  0  0  0  0
 10  9  1  0  0  0  0
 11 12  1  0  0  0  0
 12 13  1  0  0  0  0
 13 19  1  0  0  0  0
 13 14  2  0  0  0  0
 15 14  1  0  0  0  0
 15 16  1  0  0  0  0
 17 15  2  0  0  0  0
 18 12  2  0  0  0  0
 18 17  1  0  0  0  0
 19 20  1  0  0  0  0
 19 21  1  0  0  0  0
 22  1  1  0  0  0  0
 22 24  1  0  0  0  0
 24 23  2  6  0  0  0
 24 27  1  0  0  0  0
 25 26  1  0  0  0  0
 25 24  1  0  0  0  0
 27 28  1  0  0  0  0
 28 29  1  0  0  0  0
 29 34  1  0  0  0  0
 29 30  2  0  0  0  0
 30 35  1  0  0  0  0
 31 30  1  0  0  0  0
 32 31  2  0  0  0  0
 33 28  2  0  0  0  0
 33 32  1  0  0  0  0
 36 32  1  0  0  0  0
M  END
>  <minimizedAffinity>
-6.20858097

$$$$

 OpenBabel03262521143D

 36 39  0  0  0  0  0  0  0  0999 V2000
   37.0800   27.2570   34.4270 C   0  0  0  0  0  0  0  0  0  0  0  0
   37.7660   27.9350   35.4160 C   0  0  0  0  0  0  0  0  0  0  0  0
   38.3500   27.0520   36.2100 N   0  0  0  0  0  0  0  0  0  0  0  0
   38.0750   25.8160   35.7810 C   0  0  0  0  0  0  0  0  0  0  0  0
   37.2880   25.9330   34.6760 N   0  0  0  0  0  0  0  0  0  0  0  0
   37.7940   29.0260   35.4920 H   0  0  0  0  0  0  0  0  0  0  0  0
   38.9270   27.3580   37.0340 H   0  0  0  0  0  0  0  0  0  0  0  0
   38.5880   24.6780   36.4660 N   0  0  0  0  0  0  0  0  0  0  0  0
   37.9750   24.0510   37.5130 C   0  0  0  0  0  0  0  0  0  0  0  0
   37.0230   24.3460   37.9460 H   0  0  0  0  0  0  0  0  0  0  0  0
   38.7490   23.0060   37.9150 N   0  0  0  0  0  0  0  0  0  0  0  0
   39.8190   23.0080   37.1140 C   0  0  0  0  0  0  0  0  0  0  0  0
   40.9420   22.2100   37.0250 C   0  0  0  0  0  0  0  0  0  0  0  0
   41.9010   22.4450   36.0880 N   0  0  0  0  0  0  0  0  0  0  0  0
   41.7940   23.4630   35.2130 C   0  0  0  0  0  0  0  0  0  0  0  0
   42.5190   23.7010   34.4470 H   0  0  0  0  0  0  0  0  0  0  0  0
   40.7110   24.2590   35.2740 N   0  0  0  0  0  0  0  0  0  0  0  0
   39.7580   24.0360   36.1950 C   0  0  0  0  0  0  0  0  0  0  0  0
   41.1490   21.1100   37.9030 N   0  0  0  0  0  0  0  0  0  0  0  0
   40.4080   20.4080   37.6090 H   0  0  0  0  0  0  0  0  0  0  0  0
   41.7320   20.7690   38.6840 H   0  0  0  0  0  0  0  0  0  0  0  0
   36.3140   27.7590   33.3640 O   0  0  0  0  0  0  0  0  0  0  0  0
   38.5700   27.6680   32.1360 O   0  0  0  0  0  0  0  0  0  0  0  0
   37.1010   27.9320   31.8810 P   0  0  2  0  0  0  0  0  0  0  0  0
   36.8430   29.4780   31.2440 O   0  0  0  0  0  0  0  0  0  0  0  0
   36.9760   29.5300   30.2810 H   0  0  0  0  0  0  0  0  0  0  0  0
   36.4470   26.8210   30.7580 O   0  0  0  0  0  0  0  0  0  0  0  0
   36.4710   25.4460   30.9720 C   0  0  0  0  0  0  0  0  0  0  0  0
   35.3970   24.6600   31.4280 C   0  0  0  0  0  0  0  0  0  0  0  0
   35.6320   23.3060   31.5760 C   0  0  0  0  0  0  0  0  0  0  0  0
   36.8350   22.7780   31.2910 N   0  0  0  0  0  0  0  0  0  0  0  0
   37.8600   23.5820   30.8470 C   0  0  0  0  0  0  0  0  0  0  0  0
   37.6700   24.9100   30.6910 N   0  0  0  0  0  0  0  0  0  0  0  0
   34.4890   25.2000   31.6200 H   0  0  0  0  0  0  0  0  0  0  0  0
   34.7740   22.7630   31.9260 H   0  0  0  0  0  0  0  0  0  0  0  0
   38.8310   23.1350   30.6210 H   0  0  0  0  0  0  0  0  0  0  0  0
  1  5  1  0  0  0  0
  1  2  2  0  0  0  0
  2  6  1  0  0  0  0
  2  3  1  0  0  0  0
  3  7  1  0  0  0  0
  4  3  1  0  0  0  0
  4  8  1  0  0  0  0
  5  4  2  0  0  0  0
  8  9  1  0  0  0  0
  9 11  2  0  0  0  0
  9 10  1  0  0  0  0
 12 11  1  0  0  0  0
 13 12  1  0  0  0  0
 13 19  1  0  0  0  0
 14 13  2  0  0  0  0
 15 17  2  0  0  0  0
 15 14  1  0  0  0  0
 16 15  1  0  0  0  0
 17 18  1  0  0  0  0
 18  8  1  0  0  0  0
 18 12  2  0  0  0  0
 19 21  1  0  0  0  0
 20 19  1  0  0  0  0
 22  1  1  0  0  0  0
 24 23  2  1  0  0  0
 24 22  1  0  0  0  0
 25 24  1  0  0  0  0
 26 25  1  0  0  0  0
 27 28  1  0  0  0  0
 27 24  1  0  0  0  0
 28 29  1  0  0  0  0
 29 30  2  0  0  0  0
 29 34  1  0  0  0  0
 30 35  1  0  0  0  0
 31 30  1  0  0  0  0
 32 31  2  0  0  0  0
 33 32  1  0  0  0  0
 33 28  2  0  0  0  0
 36 32  1  0  0  0  0
M  END
>  <minimizedAffinity>
-6.18946695

$$$$

 OpenBabel03262521143D

 36 39  0  0  0  0  0  0  0  0999 V2000
   37.2590   26.9630   32.5110 C   0  0  0  0  0  0  0  0  0  0  0  0
   36.5620   25.8050   32.2290 C   0  0  0  0  0  0  0  0  0  0  0  0
   37.1160   24.8030   32.8920 N   0  0  0  0  0  0  0  0  0  0  0  0
   38.1540   25.2580   33.6030 C   0  0  0  0  0  0  0  0  0  0  0  0
   38.2490   26.5970   33.3730 N   0  0  0  0  0  0  0  0  0  0  0  0
   35.6980   25.7670   31.5590 H   0  0  0  0  0  0  0  0  0  0  0  0
   36.7380   23.8250   32.8180 H   0  0  0  0  0  0  0  0  0  0  0  0
   38.9260   24.3750   34.4100 N   0  0  0  0  0  0  0  0  0  0  0  0
   40.0100   23.6650   33.9790 C   0  0  0  0  0  0  0  0  0  0  0  0
   40.4110   23.6900   32.9700 H   0  0  0  0  0  0  0  0  0  0  0  0
   40.4960   22.9290   35.0160 N   0  0  0  0  0  0  0  0  0  0  0  0
   39.7070   23.1970   36.0610 C   0  0  0  0  0  0  0  0  0  0  0  0
   39.6870   22.7680   37.3730 C   0  0  0  0  0  0  0  0  0  0  0  0
   38.7450   23.2160   38.2480 N   0  0  0  0  0  0  0  0  0  0  0  0
   37.7960   24.0920   37.8700 C   0  0  0  0  0  0  0  0  0  0  0  0
   37.0220   24.4860   38.5150 H   0  0  0  0  0  0  0  0  0  0  0  0
   37.7890   24.5310   36.5970 N   0  0  0  0  0  0  0  0  0  0  0  0
   38.7140   24.0960   35.7250 C   0  0  0  0  0  0  0  0  0  0  0  0
   40.6470   21.8420   37.8710 N   0  0  0  0  0  0  0  0  0  0  0  0
   41.5530   22.3950   37.8780 H   0  0  0  0  0  0  0  0  0  0  0  0
   40.7680   20.8740   38.2090 H   0  0  0  0  0  0  0  0  0  0  0  0
   37.0470   28.2710   32.0480 O   0  0  0  0  0  0  0  0  0  0  0  0
   37.5670   30.1250   30.3460 O   0  0  0  0  0  0  0  0  0  0  0  0
   37.5880   28.6180   30.4880 P   0  0  2  0  0  0  0  0  0  0  0  0
   36.6070   27.8660   29.3330 O   0  0  0  0  0  0  0  0  0  0  0  0
   37.0400   27.7480   28.4690 H   0  0  0  0  0  0  0  0  0  0  0  0
   39.1640   27.9880   30.2800 O   0  0  0  0  0  0  0  0  0  0  0  0
   39.4350   26.9300   29.4170 C   0  0  0  0  0  0  0  0  0  0  0  0
   39.5110   25.5700   29.7730 C   0  0  0  0  0  0  0  0  0  0  0  0
   39.7930   24.6750   28.7590 C   0  0  0  0  0  0  0  0  0  0  0  0
   39.9820   25.0960   27.4960 N   0  0  0  0  0  0  0  0  0  0  0  0
   39.8990   26.4360   27.1900 C   0  0  0  0  0  0  0  0  0  0  0  0
   39.6250   27.3420   28.1540 N   0  0  0  0  0  0  0  0  0  0  0  0
   39.3410   25.3630   30.8120 H   0  0  0  0  0  0  0  0  0  0  0  0
   39.8370   23.6560   29.0940 H   0  0  0  0  0  0  0  0  0  0  0  0
   40.0550   26.7600   26.1590 H   0  0  0  0  0  0  0  0  0  0  0  0
  1  5  1  0  0  0  0
  2  1  2  0  0  0  0
  2  3  1  0  0  0  0
  3  4  1  0  0  0  0
  4  8  1  0  0  0  0
  5  4  2  0  0  0  0
  6  2  1  0  0  0  0
  7  3  1  0  0  0  0
  8 18  1  0  0  0  0
  9  8  1  0  0  0  0
  9 11  2  0  0  0  0
 10  9  1  0  0  0  0
 11 12  1  0  0  0  0
 12 13  1  0  0  0  0
 13 19  1  0  0  0  0
 13 14  2  0  0  0  0
 15 14  1  0  0  0  0
 15 16  1  0  0  0  0
 17 15  2  0  0  0  0
 18 12  2  0  0  0  0
 18 17  1  0  0  0  0
 19 20  1  0  0  0  0
 19 21  1  0  0  0  0
 22  1  1  0  0  0  0
 24 23  2  6  0  0  0
 24 22  1  0  0  0  0
 25 24  1  0  0  0  0
 26 25  1  0  0  0  0
 27 24  1  0  0  0  0
 28 29  1  0  0  0  0
 28 27  1  0  0  0  0
 29 34  1  0  0  0  0
 30 35  1  0  0  0  0
 30 29  2  0  0  0  0
 31 30  1  0  0  0  0
 32 31  2  0  0  0  0
 32 33  1  0  0  0  0
 33 28  2  0  0  0  0
 36 32  1  0  0  0  0
M  END
>  <minimizedAffinity>
-5.8278594

$$$$

 OpenBabel03262521143D

 36 39  0  0  0  0  0  0  0  0999 V2000
   36.9470   27.2120   33.9610 C   0  0  0  0  0  0  0  0  0  0  0  0
   37.6470   27.9560   34.8910 C   0  0  0  0  0  0  0  0  0  0  0  0
   38.2330   27.1300   35.7420 N   0  0  0  0  0  0  0  0  0  0  0  0
   37.9460   25.8670   35.4080 C   0  0  0  0  0  0  0  0  0  0  0  0
   37.1490   25.9090   34.3050 N   0  0  0  0  0  0  0  0  0  0  0  0
   37.6840   29.0500   34.8870 H   0  0  0  0  0  0  0  0  0  0  0  0
   38.8200   27.4910   36.5360 H   0  0  0  0  0  0  0  0  0  0  0  0
   38.4570   24.7790   36.1700 N   0  0  0  0  0  0  0  0  0  0  0  0
   37.8510   24.2340   37.2660 C   0  0  0  0  0  0  0  0  0  0  0  0
   36.9050   24.5680   37.6850 H   0  0  0  0  0  0  0  0  0  0  0  0
   38.6210   23.2160   37.7370 N   0  0  0  0  0  0  0  0  0  0  0  0
   39.6840   23.1510   36.9280 C   0  0  0  0  0  0  0  0  0  0  0  0
   40.8000   22.3410   36.8870 C   0  0  0  0  0  0  0  0  0  0  0  0
   41.7520   22.4990   35.9270 N   0  0  0  0  0  0  0  0  0  0  0  0
   41.6430   23.4500   34.9810 C   0  0  0  0  0  0  0  0  0  0  0  0
   42.3620   23.6270   34.1920 H   0  0  0  0  0  0  0  0  0  0  0  0
   40.5660   24.2570   34.9930 N   0  0  0  0  0  0  0  0  0  0  0  0
   39.6200   24.1100   35.9360 C   0  0  0  0  0  0  0  0  0  0  0  0
   41.0080   21.3060   37.8420 N   0  0  0  0  0  0  0  0  0  0  0  0
   40.2590   20.5900   37.6070 H   0  0  0  0  0  0  0  0  0  0  0  0
   41.5960   21.0190   38.6400 H   0  0  0  0  0  0  0  0  0  0  0  0
   36.1750   27.6400   32.8710 O   0  0  0  0  0  0  0  0  0  0  0  0
   37.1050   29.5360   31.4050 O   0  0  0  0  0  0  0  0  0  0  0  0
   37.0110   28.0250   31.4560 P   0  0  2  0  0  0  0  0  0  0  0  0
   36.2130   27.4010   30.1010 O   0  0  0  0  0  0  0  0  0  0  0  0
   36.7890   27.2960   29.3230 H   0  0  0  0  0  0  0  0  0  0  0  0
   38.5580   27.2990   31.4960 O   0  0  0  0  0  0  0  0  0  0  0  0
   38.8430   26.1190   30.8140 C   0  0  0  0  0  0  0  0  0  0  0  0
   39.9990   25.8620   30.0540 C   0  0  0  0  0  0  0  0  0  0  0  0
   40.0880   24.6210   29.4530 C   0  0  0  0  0  0  0  0  0  0  0  0
   39.1090   23.7110   29.5970 N   0  0  0  0  0  0  0  0  0  0  0  0
   37.9940   24.0020   30.3500 C   0  0  0  0  0  0  0  0  0  0  0  0
   37.8710   25.2050   30.9530 N   0  0  0  0  0  0  0  0  0  0  0  0
   40.7050   26.6700   30.0150 H   0  0  0  0  0  0  0  0  0  0  0  0
   40.9920   24.4880   28.8880 H   0  0  0  0  0  0  0  0  0  0  0  0
   37.2090   23.2500   30.4570 H   0  0  0  0  0  0  0  0  0  0  0  0
  1  5  1  0  0  0  0
  1  2  2  0  0  0  0
  2  3  1  0  0  0  0
  3  7  1  0  0  0  0
  4  3  1  0  0  0  0
  4  8  1  0  0  0  0
  5  4  2  0  0  0  0
  6  2  1  0  0  0  0
  8  9  1  0  0  0  0
  9 10  1  0  0  0  0
  9 11  2  0  0  0  0
 12 11  1  0  0  0  0
 13 12  1  0  0  0  0
 13 19  1  0  0  0  0
 14 13  2  0  0  0  0
 15 17  2  0  0  0  0
 15 14  1  0  0  0  0
 16 15  1  0  0  0  0
 17 18  1  0  0  0  0
 18  8  1  0  0  0  0
 18 12  2  0  0  0  0
 19 21  1  0  0  0  0
 20 19  1  0  0  0  0
 22  1  1  0  0  0  0
 24 23  2  6  0  0  0
 24 27  1  0  0  0  0
 24 22  1  0  0  0  0
 25 24  1  0  0  0  0
 26 25  1  0  0  0  0
 28 33  1  0  0  0  0
 28 27  1  0  0  0  0
 29 28  2  0  0  0  0
 30 31  2  0  0  0  0
 30 29  1  0  0  0  0
 31 32  1  0  0  0  0
 32 36  1  0  0  0  0
 32 33  2  0  0  0  0
 34 29  1  0  0  0  0
 35 30  1  0  0  0  0
M  END
>  <minimizedAffinity>
-5.7556591

$$$$

 OpenBabel03262521143D

 36 39  0  0  0  0  0  0  0  0999 V2000
   36.9520   27.3000   34.1460 C   0  0  0  0  0  0  0  0  0  0  0  0
   37.5990   28.0050   35.1420 C   0  0  0  0  0  0  0  0  0  0  0  0
   38.1750   27.1450   35.9660 N   0  0  0  0  0  0  0  0  0  0  0  0
   37.9320   25.8970   35.5500 C   0  0  0  0  0  0  0  0  0  0  0  0
   37.1740   25.9840   34.4220 N   0  0  0  0  0  0  0  0  0  0  0  0
   37.6090   29.0980   35.2010 H   0  0  0  0  0  0  0  0  0  0  0  0
   38.7240   27.4730   36.8000 H   0  0  0  0  0  0  0  0  0  0  0  0
   38.4430   24.7790   36.2680 N   0  0  0  0  0  0  0  0  0  0  0  0
   37.8110   24.1590   37.3070 C   0  0  0  0  0  0  0  0  0  0  0  0
   36.8430   24.4450   37.7100 H   0  0  0  0  0  0  0  0  0  0  0  0
   38.5900   23.1330   37.7480 N   0  0  0  0  0  0  0  0  0  0  0  0
   39.6820   23.1390   36.9770 C   0  0  0  0  0  0  0  0  0  0  0  0
   40.8190   22.3580   36.9320 C   0  0  0  0  0  0  0  0  0  0  0  0
   41.8000   22.5940   36.0180 N   0  0  0  0  0  0  0  0  0  0  0  0
   41.7010   23.5950   35.1240 C   0  0  0  0  0  0  0  0  0  0  0  0
   42.4430   23.8330   34.3740 H   0  0  0  0  0  0  0  0  0  0  0  0
   40.6040   24.3750   35.1420 N   0  0  0  0  0  0  0  0  0  0  0  0
   39.6300   24.1520   36.0400 C   0  0  0  0  0  0  0  0  0  0  0  0
   41.0180   21.2750   37.8330 N   0  0  0  0  0  0  0  0  0  0  0  0
   40.2960   20.5570   37.5310 H   0  0  0  0  0  0  0  0  0  0  0  0
   41.5850   20.9570   38.6360 H   0  0  0  0  0  0  0  0  0  0  0  0
   36.2080   27.7730   33.0540 O   0  0  0  0  0  0  0  0  0  0  0  0
   36.5100   26.2310   31.0190 O   0  0  0  0  0  0  0  0  0  0  0  0
   36.9110   27.6000   31.5290 P   0  0  2  0  0  0  0  0  0  0  0  0
   38.5920   27.7660   31.6220 O   0  0  0  0  0  0  0  0  0  0  0  0
   39.0080   28.0070   30.7760 H   0  0  0  0  0  0  0  0  0  0  0  0
   36.3480   28.8450   30.5010 O   0  0  0  0  0  0  0  0  0  0  0  0
   37.1990   29.5540   29.6570 C   0  0  0  0  0  0  0  0  0  0  0  0
   37.7810   29.0680   28.4720 C   0  0  0  0  0  0  0  0  0  0  0  0
   38.6010   29.9380   27.7780 C   0  0  0  0  0  0  0  0  0  0  0  0
   38.8210   31.1870   28.2250 N   0  0  0  0  0  0  0  0  0  0  0  0
   38.2310   31.6230   29.3900 C   0  0  0  0  0  0  0  0  0  0  0  0
   37.4240   30.8020   30.0970 N   0  0  0  0  0  0  0  0  0  0  0  0
   37.5280   28.0560   28.2230 H   0  0  0  0  0  0  0  0  0  0  0  0
   39.0140   29.5090   26.8840 H   0  0  0  0  0  0  0  0  0  0  0  0
   38.4210   32.6400   29.7370 H   0  0  0  0  0  0  0  0  0  0  0  0
  1  5  1  0  0  0  0
  1  2  2  0  0  0  0
  2  6  1  0  0  0  0
  2  3  1  0  0  0  0
  3  7  1  0  0  0  0
  4  3  1  0  0  0  0
  4  8  1  0  0  0  0
  5  4  2  0  0  0  0
  8  9  1  0  0  0  0
  9 10  1  0  0  0  0
  9 11  2  0  0  0  0
 12 11  1  0  0  0  0
 13 12  1  0  0  0  0
 13 19  1  0  0  0  0
 14 13  2  0  0  0  0
 15 17  2  0  0  0  0
 15 14  1  0  0  0  0
 16 15  1  0  0  0  0
 17 18  1  0  0  0  0
 18  8  1  0  0  0  0
 18 12  2  0  0  0  0
 19 21  1  0  0  0  0
 20 19  1  0  0  0  0
 22  1  1  0  0  0  0
 24 23  2  6  0  0  0
 24 25  1  0  0  0  0
 24 22  1  0  0  0  0
 26 25  1  0  0  0  0
 27 24  1  0  0  0  0
 28 33  1  0  0  0  0
 28 27  1  0  0  0  0
 29 28  2  0  0  0  0
 30 31  2  0  0  0  0
 30 29  1  0  0  0  0
 31 32  1  0  0  0  0
 32 36  1  0  0  0  0
 32 33  2  0  0  0  0
 34 29  1  0  0  0  0
 35 30  1  0  0  0  0
M  END
>  <minimizedAffinity>
-5.74834251

$$$$

 OpenBabel03262521143D

 36 39  0  0  0  0  0  0  0  0999 V2000
   36.0730   29.1980   31.6790 C   0  0  0  0  0  0  0  0  0  0  0  0
   35.4480   30.3110   31.1520 C   0  0  0  0  0  0  0  0  0  0  0  0
   34.3060   30.5020   31.7930 N   0  0  0  0  0  0  0  0  0  0  0  0
   34.1560   29.5560   32.7270 C   0  0  0  0  0  0  0  0  0  0  0  0
   35.2460   28.7440   32.6630 N   0  0  0  0  0  0  0  0  0  0  0  0
   35.8640   30.9080   30.3340 H   0  0  0  0  0  0  0  0  0  0  0  0
   33.6700   31.3010   31.5470 H   0  0  0  0  0  0  0  0  0  0  0  0
   33.0030   29.5360   33.5620 N   0  0  0  0  0  0  0  0  0  0  0  0
   31.8290   28.9050   33.2630 C   0  0  0  0  0  0  0  0  0  0  0  0
   31.6370   28.3430   32.3530 H   0  0  0  0  0  0  0  0  0  0  0  0
   30.9530   29.0960   34.2870 N   0  0  0  0  0  0  0  0  0  0  0  0
   31.5980   29.8380   35.1930 C   0  0  0  0  0  0  0  0  0  0  0  0
   31.2470   30.3520   36.4250 C   0  0  0  0  0  0  0  0  0  0  0  0
   32.1250   31.0940   37.1550 N   0  0  0  0  0  0  0  0  0  0  0  0
   33.3670   31.3550   36.7060 C   0  0  0  0  0  0  0  0  0  0  0  0
   34.1100   31.9350   37.2370 H   0  0  0  0  0  0  0  0  0  0  0  0
   33.7390   30.8670   35.5080 N   0  0  0  0  0  0  0  0  0  0  0  0
   32.8810   30.1340   34.7790 C   0  0  0  0  0  0  0  0  0  0  0  0
   29.9590   30.1320   36.9880 N   0  0  0  0  0  0  0  0  0  0  0  0
   29.9570   29.0960   37.2200 H   0  0  0  0  0  0  0  0  0  0  0  0
   29.0710   30.5980   37.2360 H   0  0  0  0  0  0  0  0  0  0  0  0
   37.2960   28.6080   31.3280 O   0  0  0  0  0  0  0  0  0  0  0  0
   38.4540   26.7200   30.0230 O   0  0  0  0  0  0  0  0  0  0  0  0
   37.2560   26.9720   30.9130 P   0  0  2  0  0  0  0  0  0  0  0  0
   35.8040   26.5880   30.1350 O   0  0  0  0  0  0  0  0  0  0  0  0
   35.5800   25.6420   30.1720 H   0  0  0  0  0  0  0  0  0  0  0  0
   37.3180   26.0240   32.3360 O   0  0  0  0  0  0  0  0  0  0  0  0
   38.0660   26.4010   33.4480 C   0  0  0  0  0  0  0  0  0  0  0  0
   39.4600   26.5850   33.4830 C   0  0  0  0  0  0  0  0  0  0  0  0
   40.0100   26.9600   34.6940 C   0  0  0  0  0  0  0  0  0  0  0  0
   39.2360   27.1390   35.7800 N   0  0  0  0  0  0  0  0  0  0  0  0
   37.8740   26.9490   35.7020 C   0  0  0  0  0  0  0  0  0  0  0  0
   37.3000   26.5810   34.5360 N   0  0  0  0  0  0  0  0  0  0  0  0
   39.9640   26.4110   32.5520 H   0  0  0  0  0  0  0  0  0  0  0  0
   41.0750   27.0850   34.6550 H   0  0  0  0  0  0  0  0  0  0  0  0
   37.2620   27.0990   36.5930 H   0  0  0  0  0  0  0  0  0  0  0  0
  1  5  1  0  0  0  0
  2  1  2  0  0  0  0
  2  3  1  0  0  0  0
  3  4  1  0  0  0  0
  4  8  1  0  0  0  0
  5  4  2  0  0  0  0
  6  2  1  0  0  0  0
  7  3  1  0  0  0  0
  8 18  1  0  0  0  0
  9  8  1  0  0  0  0
  9 11  2  0  0  0  0
 10  9  1  0  0  0  0
 11 12  1  0  0  0  0
 12 13  1  0  0  0  0
 13 19  1  0  0  0  0
 13 14  2  0  0  0  0
 15 14  1  0  0  0  0
 15 16  1  0  0  0  0
 17 15  2  0  0  0  0
 18 12  2  0  0  0  0
 18 17  1  0  0  0  0
 19 20  1  0  0  0  0
 19 21  1  0  0  0  0
 22  1  1  0  0  0  0
 24 23  2  6  0  0  0
 24 22  1  0  0  0  0
 24 27  1  0  0  0  0
 25 26  1  0  0  0  0
 25 24  1  0  0  0  0
 27 28  1  0  0  0  0
 28 29  2  0  0  0  0
 28 33  1  0  0  0  0
 29 30  1  0  0  0  0
 30 31  2  0  0  0  0
 32 31  1  0  0  0  0
 32 36  1  0  0  0  0
 33 32  2  0  0  0  0
 34 29  1  0  0  0  0
 35 30  1  0  0  0  0
M  END
>  <minimizedAffinity>
-5.68475914

$$$$

 OpenBabel03262521143D

 36 39  0  0  0  0  0  0  0  0999 V2000
   37.0280   26.3500   32.1250 C   0  0  0  0  0  0  0  0  0  0  0  0
   36.3560   25.1540   31.9680 C   0  0  0  0  0  0  0  0  0  0  0  0
   36.9500   24.2320   32.7090 N   0  0  0  0  0  0  0  0  0  0  0  0
   37.9890   24.7770   33.3510 C   0  0  0  0  0  0  0  0  0  0  0  0
   38.0450   26.0900   32.9950 N   0  0  0  0  0  0  0  0  0  0  0  0
   35.4800   25.0330   31.3240 H   0  0  0  0  0  0  0  0  0  0  0  0
   36.5960   23.2430   32.7340 H   0  0  0  0  0  0  0  0  0  0  0  0
   38.8000   23.9920   34.2190 N   0  0  0  0  0  0  0  0  0  0  0  0
   39.8930   23.2720   33.8320 C   0  0  0  0  0  0  0  0  0  0  0  0
   40.2740   23.2120   32.8160 H   0  0  0  0  0  0  0  0  0  0  0  0
   40.4200   22.6490   34.9220 N   0  0  0  0  0  0  0  0  0  0  0  0
   39.6450   22.9940   35.9550 C   0  0  0  0  0  0  0  0  0  0  0  0
   39.6630   22.6890   37.3010 C   0  0  0  0  0  0  0  0  0  0  0  0
   38.7270   23.1940   38.1510 N   0  0  0  0  0  0  0  0  0  0  0  0
   37.7490   24.0080   37.7140 C   0  0  0  0  0  0  0  0  0  0  0  0
   36.9770   24.4420   38.3370 H   0  0  0  0  0  0  0  0  0  0  0  0
   37.7040   24.3250   36.4070 N   0  0  0  0  0  0  0  0  0  0  0  0
   38.6220   23.8320   35.5590 C   0  0  0  0  0  0  0  0  0  0  0  0
   40.6560   21.8380   37.8610 N   0  0  0  0  0  0  0  0  0  0  0  0
   41.5480   22.4110   37.7960 H   0  0  0  0  0  0  0  0  0  0  0  0
   40.8100   20.9090   38.2850 H   0  0  0  0  0  0  0  0  0  0  0  0
   36.7730   27.6030   31.5470 O   0  0  0  0  0  0  0  0  0  0  0  0
   36.4670   30.1110   32.0200 O   0  0  0  0  0  0  0  0  0  0  0  0
   36.0320   28.7550   32.5340 P   0  0  2  0  0  0  0  0  0  0  0  0
   36.4710   28.5280   34.1520 O   0  0  0  0  0  0  0  0  0  0  0  0
   35.8450   28.9210   34.7850 H   0  0  0  0  0  0  0  0  0  0  0  0
   34.3340   28.5650   32.4520 O   0  0  0  0  0  0  0  0  0  0  0  0
   33.4570   29.4320   33.0970 C   0  0  0  0  0  0  0  0  0  0  0  0
   32.4690   30.2200   32.4790 C   0  0  0  0  0  0  0  0  0  0  0  0
   31.7000   31.0180   33.3040 C   0  0  0  0  0  0  0  0  0  0  0  0
   31.8970   31.0300   34.6350 N   0  0  0  0  0  0  0  0  0  0  0  0
   32.8760   30.2430   35.2000 C   0  0  0  0  0  0  0  0  0  0  0  0
   33.6470   29.4500   34.4260 N   0  0  0  0  0  0  0  0  0  0  0  0
   32.4120   30.1210   31.4120 H   0  0  0  0  0  0  0  0  0  0  0  0
   30.9650   31.5930   32.7730 H   0  0  0  0  0  0  0  0  0  0  0  0
   33.0210   30.2660   36.2820 H   0  0  0  0  0  0  0  0  0  0  0  0
  1  5  1  0  0  0  0
  2  1  2  0  0  0  0
  2  3  1  0  0  0  0
  3  7  1  0  0  0  0
  3  4  1  0  0  0  0
  4  8  1  0  0  0  0
  5  4  2  0  0  0  0
  6  2  1  0  0  0  0
  8 18  1  0  0  0  0
  9  8  1  0  0  0  0
  9 11  2  0  0  0  0
 10  9  1  0  0  0  0
 11 12  1  0  0  0  0
 12 13  1  0  0  0  0
 13 19  1  0  0  0  0
 13 14  2  0  0  0  0
 15 14  1  0  0  0  0
 15 16  1  0  0  0  0
 17 15  2  0  0  0  0
 18 12  2  0  0  0  0
 18 17  1  0  0  0  0
 19 21  1  0  0  0  0
 20 19  1  0  0  0  0
 22  1  1  0  0  0  0
 22 24  1  0  0  0  0
 24 23  2  6  0  0  0
 24 25  1  0  0  0  0
 25 26  1  0  0  0  0
 27 24  1  0  0  0  0
 27 28  1  0  0  0  0
 28 33  1  0  0  0  0
 29 28  2  0  0  0  0
 29 30  1  0  0  0  0
 30 31  2  0  0  0  0
 31 32  1  0  0  0  0
 32 36  1  0  0  0  0
 33 32  2  0  0  0  0
 34 29  1  0  0  0  0
 35 30  1  0  0  0  0
M  END
>  <minimizedAffinity>
-5.62813187

$$$$

 OpenBabel03262521143D

 36 39  0  0  0  0  0  0  0  0999 V2000
   36.9120   27.5920   34.2730 C   0  0  0  0  0  0  0  0  0  0  0  0
   37.5630   28.2450   35.3010 C   0  0  0  0  0  0  0  0  0  0  0  0
   38.1200   27.3430   36.0930 N   0  0  0  0  0  0  0  0  0  0  0  0
   37.8610   26.1180   35.6250 C   0  0  0  0  0  0  0  0  0  0  0  0
   37.1130   26.2620   34.4960 N   0  0  0  0  0  0  0  0  0  0  0  0
   37.5880   29.3340   35.4060 H   0  0  0  0  0  0  0  0  0  0  0  0
   38.6680   27.6290   36.9440 H   0  0  0  0  0  0  0  0  0  0  0  0
   38.3510   24.9630   36.2990 N   0  0  0  0  0  0  0  0  0  0  0  0
   37.7030   24.3100   37.3070 C   0  0  0  0  0  0  0  0  0  0  0  0
   36.7360   24.5940   37.7150 H   0  0  0  0  0  0  0  0  0  0  0  0
   38.4630   23.2550   37.7100 N   0  0  0  0  0  0  0  0  0  0  0  0
   39.5600   23.2770   36.9480 C   0  0  0  0  0  0  0  0  0  0  0  0
   40.6860   22.4820   36.8770 C   0  0  0  0  0  0  0  0  0  0  0  0
   41.6770   22.7400   35.9800 N   0  0  0  0  0  0  0  0  0  0  0  0
   41.5990   23.7790   35.1280 C   0  0  0  0  0  0  0  0  0  0  0  0
   42.3500   24.0360   34.3930 H   0  0  0  0  0  0  0  0  0  0  0  0
   40.5140   24.5730   35.1710 N   0  0  0  0  0  0  0  0  0  0  0  0
   39.5300   24.3280   36.0530 C   0  0  0  0  0  0  0  0  0  0  0  0
   40.8630   21.3600   37.7350 N   0  0  0  0  0  0  0  0  0  0  0  0
   40.1330   20.6660   37.3980 H   0  0  0  0  0  0  0  0  0  0  0  0
   41.4190   21.0000   38.5270 H   0  0  0  0  0  0  0  0  0  0  0  0
   36.1830   28.1200   33.1960 O   0  0  0  0  0  0  0  0  0  0  0  0
   34.2830   28.9640   34.7080 O   0  0  0  0  0  0  0  0  0  0  0  0
   35.1450   29.4050   33.5430 P   0  0  2  0  0  0  0  0  0  0  0  0
   34.2130   29.8030   32.1890 O   0  0  0  0  0  0  0  0  0  0  0  0
   33.8570   30.7080   32.2130 H   0  0  0  0  0  0  0  0  0  0  0  0
   36.0680   30.7910   33.9310 O   0  0  0  0  0  0  0  0  0  0  0  0
   35.5170   31.8940   34.5770 C   0  0  0  0  0  0  0  0  0  0  0  0
   36.0600   32.5530   35.6960 C   0  0  0  0  0  0  0  0  0  0  0  0
   35.3510   33.6330   36.1880 C   0  0  0  0  0  0  0  0  0  0  0  0
   34.2000   34.0250   35.6130 N   0  0  0  0  0  0  0  0  0  0  0  0
   33.7040   33.3520   34.5190 C   0  0  0  0  0  0  0  0  0  0  0  0
   34.3670   32.2920   34.0100 N   0  0  0  0  0  0  0  0  0  0  0  0
   36.9820   32.1440   36.0600 H   0  0  0  0  0  0  0  0  0  0  0  0
   35.8160   34.0920   37.0390 H   0  0  0  0  0  0  0  0  0  0  0  0
   32.7680   33.6860   34.0660 H   0  0  0  0  0  0  0  0  0  0  0  0
  1  5  1  0  0  0  0
  1  2  2  0  0  0  0
  2  6  1  0  0  0  0
  2  3  1  0  0  0  0
  3  7  1  0  0  0  0
  4  3  1  0  0  0  0
  4  8  1  0  0  0  0
  5  4  2  0  0  0  0
  8  9  1  0  0  0  0
  9 11  2  0  0  0  0
  9 10  1  0  0  0  0
 12 11  1  0  0  0  0
 13 12  1  0  0  0  0
 13 19  1  0  0  0  0
 14 13  2  0  0  0  0
 15 17  2  0  0  0  0
 15 14  1  0  0  0  0
 16 15  1  0  0  0  0
 17 18  1  0  0  0  0
 18  8  1  0  0  0  0
 18 12  2  0  0  0  0
 19 21  1  0  0  0  0
 20 19  1  0  0  0  0
 22 24  1  0  0  0  0
 22  1  1  0  0  0  0
 24 27  1  0  0  0  0
 24 23  2  1  0  0  0
 25 26  1  0  0  0  0
 25 24  1  0  0  0  0
 27 28  1  0  0  0  0
 28 29  1  0  0  0  0
 29 34  1  0  0  0  0
 29 30  2  0  0  0  0
 30 35  1  0  0  0  0
 31 30  1  0  0  0  0
 32 31  2  0  0  0  0
 33 32  1  0  0  0  0
 33 28  2  0  0  0  0
 36 32  1  0  0  0  0
M  END
>  <minimizedAffinity>
-5.55460882

$$$$
