
 OpenBabel03272506133D

 29 31  0  0  0  0  0  0  0  0999 V2000
   35.3190   29.7840   49.5860 C   0  0  0  0  0  0  0  0  0  0  0  0
   36.0400   29.0900   50.5690 C   0  0  0  0  0  0  0  0  0  0  0  0
   37.2690   29.6100   50.9640 C   0  0  0  0  0  0  0  0  0  0  0  0
   37.7220   30.7610   50.3890 N   0  0  0  0  0  0  0  0  0  0  0  0
   37.0000   31.4080   49.4410 C   0  0  0  0  0  0  0  0  0  0  0  0
   35.7930   30.9190   49.0370 N   0  0  0  0  0  0  0  0  0  0  0  0
   35.5840   28.1890   50.9550 H   0  0  0  0  0  0  0  0  0  0  0  0
   37.3700   32.3130   48.9970 H   0  0  0  0  0  0  0  0  0  0  0  0
   37.9940   28.9000   51.9620 N   0  0  0  0  0  0  0  0  0  0  0  0
   38.3420   29.1790   53.2330 C   0  0  0  0  0  0  0  0  0  0  0  0
   38.0470   30.1360   53.6790 H   0  0  0  0  0  0  0  0  0  0  0  0
   39.0420   28.1510   53.7580 N   0  0  0  0  0  0  0  0  0  0  0  0
   39.1210   27.2160   52.7730 C   0  0  0  0  0  0  0  0  0  0  0  0
   39.7190   25.9700   52.7520 C   0  0  0  0  0  0  0  0  0  0  0  0
   39.6690   25.2050   51.6430 N   0  0  0  0  0  0  0  0  0  0  0  0
   39.0350   25.6530   50.5510 C   0  0  0  0  0  0  0  0  0  0  0  0
   38.9110   25.1610   49.5940 H   0  0  0  0  0  0  0  0  0  0  0  0
   38.4460   26.8560   50.5360 N   0  0  0  0  0  0  0  0  0  0  0  0
   38.4630   27.6740   51.6270 C   0  0  0  0  0  0  0  0  0  0  0  0
   40.4020   25.4600   53.8960 N   0  0  0  0  0  0  0  0  0  0  0  0
   39.7370   24.8250   54.3930 H   0  0  0  0  0  0  0  0  0  0  0  0
   41.4020   25.7930   54.0330 H   0  0  0  0  0  0  0  0  0  0  0  0
   34.0840   29.4010   49.0840 O   0  0  0  0  0  0  0  0  0  0  0  0
   34.8790   29.4390   46.5130 O   0  0  0  0  0  0  0  0  0  0  0  0
   33.9000   28.8000   47.4800 P   0  0  0  0  0  0  0  0  0  0  0  0
   34.1090   27.1240   47.5740 O   0  0  0  0  0  0  0  0  0  0  0  0
   34.4780   26.8380   46.6880 H   0  0  0  0  0  0  0  0  0  0  0  0
   32.3430   29.1980   46.9280 O   0  0  0  0  0  0  0  0  0  0  0  0
   31.6810   28.8060   47.5820 H   0  0  0  0  0  0  0  0  0  0  0  0
  1  2  1  0  0  0  0
  2  7  1  0  0  0  0
  2  3  2  0  0  0  0
  3  9  1  0  0  0  0
  4  3  1  0  0  0  0
  5  4  2  0  0  0  0
  6  5  1  0  0  0  0
  6  1  2  0  0  0  0
  8  5  1  0  0  0  0
  9 10  1  0  0  0  0
 10 11  1  0  0  0  0
 10 12  2  0  0  0  0
 13 12  1  0  0  0  0
 14 13  1  0  0  0  0
 14 20  1  0  0  0  0
 15 14  2  0  0  0  0
 16 15  1  0  0  0  0
 17 16  1  0  0  0  0
 18 16  2  0  0  0  0
 18 19  1  0  0  0  0
 19  9  1  0  0  0  0
 19 13  2  0  0  0  0
 20 22  1  0  0  0  0
 20 21  1  0  0  0  0
 23  1  1  0  0  0  0
 24 25  2  0  0  0  0
 25 26  1  0  0  0  0
 25 23  1  0  0  0  0
 27 26  1  0  0  0  0
 28 25  1  0  0  0  0
 28 29  1  0  0  0  0
M  END
>  <minimizedAffinity>
3.75016761

>  <minimizedRMSD>
1.26457775

$$$$
