
 OpenBabel03272510263D

 50 55  0  0  1  0  0  0  0  0999 V2000
   38.7170   29.3620   42.1730 N   0  0  0  0  0  0  0  0  0  0  0  0
   38.4820   30.5080   41.2670 C   0  0  1  0  0  0  0  0  0  0  0  0
   37.3740   30.1730   40.3790 C   0  0  0  0  0  0  0  0  0  0  0  0
   37.7700   29.1020   39.5570 O   0  0  0  0  0  0  0  0  0  0  0  0
   38.1940   27.9870   40.2190 C   0  0  0  0  0  0  0  0  0  0  0  0
   39.1890   28.2990   41.3140 C   0  0  1  0  0  0  0  0  0  0  0  0
   39.5000   29.6470   42.8000 H   0  0  0  0  0  0  0  0  0  0  0  0
   39.3830   30.7130   40.6690 H   0  0  0  0  0  0  0  0  0  0  0  0
   36.3990   29.9110   40.6840 H   0  0  0  0  0  0  0  0  0  0  0  0
   37.2630   31.0280   39.6430 H   0  0  0  0  0  0  0  0  0  0  0  0
   38.7400   27.3570   39.4870 H   0  0  0  0  0  0  0  0  0  0  0  0
   37.3550   27.3540   40.5870 H   0  0  0  0  0  0  0  0  0  0  0  0
   39.3740   27.3630   41.8740 H   0  0  0  0  0  0  0  0  0  0  0  0
   40.4350   28.7410   40.6780 N   0  0  0  0  0  0  0  0  0  0  0  0
   41.1210   29.8850   40.8500 C   0  0  0  0  0  0  0  0  0  0  0  0
   40.8370   30.6870   41.5150 H   0  0  0  0  0  0  0  0  0  0  0  0
   42.2180   29.8960   40.0720 N   0  0  0  0  0  0  0  0  0  0  0  0
   42.2590   28.7520   39.3830 C   0  0  0  0  0  0  0  0  0  0  0  0
   43.1850   28.3050   38.4650 C   0  0  0  0  0  0  0  0  0  0  0  0
   42.9440   27.0900   37.9350 N   0  0  0  0  0  0  0  0  0  0  0  0
   41.8460   26.3730   38.3040 C   0  0  0  0  0  0  0  0  0  0  0  0
   41.6620   25.3870   37.8670 H   0  0  0  0  0  0  0  0  0  0  0  0
   40.9580   26.8320   39.2050 N   0  0  0  0  0  0  0  0  0  0  0  0
   41.1390   28.0230   39.7610 C   0  0  0  0  0  0  0  0  0  0  0  0
   44.3280   29.0610   38.0850 N   0  0  0  0  0  0  0  0  0  0  0  0
   44.9800   28.9540   38.9050 H   0  0  0  0  0  0  0  0  0  0  0  0
   44.4230   29.5800   37.1790 H   0  0  0  0  0  0  0  0  0  0  0  0
   38.1650   31.5770   42.1490 O   0  0  0  0  0  0  0  0  0  0  0  0
   35.3790   29.9590   47.1070 C   0  0  0  0  0  0  0  0  0  0  0  0
   36.6110   30.3050   47.6590 C   0  0  0  0  0  0  0  0  0  0  0  0
   37.6490   30.7660   46.8650 C   0  0  0  0  0  0  0  0  0  0  0  0
   37.3980   30.8630   45.5030 C   0  0  0  0  0  0  0  0  0  0  0  0
   38.2530   31.2870   44.5250 N   0  0  0  0  0  0  0  0  0  0  0  0
   37.5770   31.2100   43.3720 C   0  0  0  0  0  0  0  0  0  0  0  0
   36.3570   30.7620   43.5820 N   0  0  0  0  0  0  0  0  0  0  0  0
   36.1970   30.5310   44.9110 C   0  0  0  0  0  0  0  0  0  0  0  0
   35.1660   30.0690   45.7380 C   0  0  0  0  0  0  0  0  0  0  0  0
   34.5360   29.5960   47.6760 H   0  0  0  0  0  0  0  0  0  0  0  0
   38.6000   31.0330   47.3050 H   0  0  0  0  0  0  0  0  0  0  0  0
   39.2410   31.6040   44.6830 H   0  0  0  0  0  0  0  0  0  0  0  0
   34.2290   29.8130   45.2620 H   0  0  0  0  0  0  0  0  0  0  0  0
   37.8680   30.3690   51.1990 C   0  0  0  0  0  0  0  0  0  0  0  0
   37.8410   30.5850   49.8250 C   0  0  0  0  0  0  0  0  0  0  0  0
   36.7430   30.1430   49.0950 C   0  0  0  0  0  0  0  0  0  0  0  0
   35.7410   29.5150   49.7750 N   0  0  0  0  0  0  0  0  0  0  0  0
   35.7760   29.3120   51.1080 C   0  0  0  0  0  0  0  0  0  0  0  0
   36.8250   29.7350   51.7990 N   0  0  0  0  0  0  0  0  0  0  0  0
   38.7510   30.7410   51.6840 H   0  0  0  0  0  0  0  0  0  0  0  0
   38.6450   31.0840   49.3030 H   0  0  0  0  0  0  0  0  0  0  0  0
   34.9640   28.8100   51.6190 H   0  0  0  0  0  0  0  0  0  0  0  0
  1  7  1  0  0  0  0
  2  8  1  6  0  0  0
  2 28  1  0  0  0  0
  2  1  1  0  0  0  0
  3  9  1  0  0  0  0
  3  2  1  0  0  0  0
  4  5  1  0  0  0  0
  4  3  1  0  0  0  0
  5 12  1  0  0  0  0
  5  6  1  0  0  0  0
  6 13  1  1  0  0  0
  6  1  1  0  0  0  0
 10  3  1  0  0  0  0
 11  5  1  0  0  0  0
 14 15  1  0  0  0  0
 14  6  1  0  0  0  0
 15 16  1  0  0  0  0
 17 15  2  0  0  0  0
 18 24  1  0  0  0  0
 18 17  1  0  0  0  0
 19 18  2  0  0  0  0
 20 21  2  0  0  0  0
 20 19  1  0  0  0  0
 21 23  1  0  0  0  0
 22 21  1  0  0  0  0
 23 24  2  0  0  0  0
 24 14  1  0  0  0  0
 25 19  1  0  0  0  0
 25 26  1  0  0  0  0
 27 25  1  0  0  0  0
 28 34  1  0  0  0  0
 29 30  1  0  0  0  0
 29 38  1  0  0  0  0
 30 44  1  0  0  0  0
 31 39  1  0  0  0  0
 31 30  2  0  0  0  0
 32 31  1  0  0  0  0
 33 40  1  0  0  0  0
 33 32  1  0  0  0  0
 34 35  2  0  0  0  0
 34 33  1  0  0  0  0
 35 36  1  0  0  0  0
 36 32  2  0  0  0  0
 36 37  1  0  0  0  0
 37 29  2  0  0  0  0
 41 37  1  0  0  0  0
 42 48  1  0  0  0  0
 42 47  1  0  0  0  0
 43 42  2  0  0  0  0
 44 45  2  0  0  0  0
 44 43  1  0  0  0  0
 45 46  1  0  0  0  0
 46 50  1  0  0  0  0
 46 47  2  0  0  0  0
 49 43  1  0  0  0  0
M  END
>  <minimizedAffinity>
-5.82028675

>  <minimizedRMSD>
3.95299268

$$$$
