
 OpenBabel03272510253D

 50 55  0  0  1  0  0  0  0  0999 V2000
   38.8330   31.2060   40.3170 N   0  0  0  0  0  0  0  0  0  0  0  0
   38.4020   32.6190   40.2230 C   0  0  1  0  0  0  0  0  0  0  0  0
   36.9560   32.6480   40.0390 C   0  0  0  0  0  0  0  0  0  0  0  0
   36.6540   32.0650   38.7940 O   0  0  0  0  0  0  0  0  0  0  0  0
   37.1240   30.7970   38.6150 C   0  0  0  0  0  0  0  0  0  0  0  0
   38.5770   30.6520   39.0060 C   0  0  1  0  0  0  0  0  0  0  0  0
   39.8650   31.2300   40.4660 H   0  0  0  0  0  0  0  0  0  0  0  0
   38.8920   33.1110   39.3690 H   0  0  0  0  0  0  0  0  0  0  0  0
   36.2430   32.2270   40.6930 H   0  0  0  0  0  0  0  0  0  0  0  0
   36.6570   33.7310   39.8900 H   0  0  0  0  0  0  0  0  0  0  0  0
   37.0820   30.5800   37.5280 H   0  0  0  0  0  0  0  0  0  0  0  0
   36.4840   30.0250   39.0970 H   0  0  0  0  0  0  0  0  0  0  0  0
   38.8310   29.5770   38.9520 H   0  0  0  0  0  0  0  0  0  0  0  0
   39.3830   31.3920   38.0290 N   0  0  0  0  0  0  0  0  0  0  0  0
   40.2490   32.4020   38.2270 C   0  0  0  0  0  0  0  0  0  0  0  0
   40.4870   32.8370   39.1870 H   0  0  0  0  0  0  0  0  0  0  0  0
   40.7820   32.8010   37.0580 N   0  0  0  0  0  0  0  0  0  0  0  0
   40.2660   32.0500   36.0820 C   0  0  0  0  0  0  0  0  0  0  0  0
   40.5030   32.0800   34.7230 C   0  0  0  0  0  0  0  0  0  0  0  0
   39.8190   31.1820   33.9900 N   0  0  0  0  0  0  0  0  0  0  0  0
   38.9550   30.3100   34.5820 C   0  0  0  0  0  0  0  0  0  0  0  0
   38.4060   29.5840   33.9760 H   0  0  0  0  0  0  0  0  0  0  0  0
   38.7420   30.3000   35.9100 N   0  0  0  0  0  0  0  0  0  0  0  0
   39.3860   31.1620   36.6880 C   0  0  0  0  0  0  0  0  0  0  0  0
   41.4070   32.9940   34.1150 N   0  0  0  0  0  0  0  0  0  0  0  0
   42.3550   32.5970   34.3460 H   0  0  0  0  0  0  0  0  0  0  0  0
   41.1170   33.8450   33.5770 H   0  0  0  0  0  0  0  0  0  0  0  0
   38.8000   33.1770   41.4690 O   0  0  0  0  0  0  0  0  0  0  0  0
   36.3320   30.4040   46.0720 C   0  0  0  0  0  0  0  0  0  0  0  0
   37.2800   31.1580   46.7610 C   0  0  0  0  0  0  0  0  0  0  0  0
   38.1450   32.0090   46.0920 C   0  0  0  0  0  0  0  0  0  0  0  0
   38.0170   32.0700   44.7110 C   0  0  0  0  0  0  0  0  0  0  0  0
   38.7460   32.8280   43.8380 N   0  0  0  0  0  0  0  0  0  0  0  0
   38.2700   32.5590   42.6160 C   0  0  0  0  0  0  0  0  0  0  0  0
   37.2930   31.6810   42.6840 N   0  0  0  0  0  0  0  0  0  0  0  0
   37.0960   31.3440   43.9850 C   0  0  0  0  0  0  0  0  0  0  0  0
   36.2350   30.4920   44.6880 C   0  0  0  0  0  0  0  0  0  0  0  0
   35.6330   29.7270   46.5400 H   0  0  0  0  0  0  0  0  0  0  0  0
   38.8750   32.5900   46.6380 H   0  0  0  0  0  0  0  0  0  0  0  0
   39.5210   33.4820   44.1080 H   0  0  0  0  0  0  0  0  0  0  0  0
   35.5170   29.9290   44.1080 H   0  0  0  0  0  0  0  0  0  0  0  0
   38.3110   31.1720   50.3740 C   0  0  0  0  0  0  0  0  0  0  0  0
   38.3790   31.3900   49.0020 C   0  0  0  0  0  0  0  0  0  0  0  0
   37.3150   30.9880   48.2020 C   0  0  0  0  0  0  0  0  0  0  0  0
   36.2500   30.3940   48.8150 N   0  0  0  0  0  0  0  0  0  0  0  0
   36.1940   30.1870   50.1460 C   0  0  0  0  0  0  0  0  0  0  0  0
   37.2110   30.5720   50.9040 N   0  0  0  0  0  0  0  0  0  0  0  0
   39.1740   31.5120   50.9160 H   0  0  0  0  0  0  0  0  0  0  0  0
   39.2310   31.8630   48.5340 H   0  0  0  0  0  0  0  0  0  0  0  0
   35.3340   29.7130   50.6020 H   0  0  0  0  0  0  0  0  0  0  0  0
  1  7  1  0  0  0  0
  2  8  1  6  0  0  0
  2  1  1  0  0  0  0
  2 28  1  0  0  0  0
  3  2  1  0  0  0  0
  3  9  1  0  0  0  0
  4  3  1  0  0  0  0
  5  4  1  0  0  0  0
  5  6  1  0  0  0  0
  5 12  1  0  0  0  0
  6 13  1  6  0  0  0
  6  1  1  0  0  0  0
 10  3  1  0  0  0  0
 11  5  1  0  0  0  0
 14 15  1  0  0  0  0
 14  6  1  0  0  0  0
 15 16  1  0  0  0  0
 17 15  2  0  0  0  0
 18 24  1  0  0  0  0
 18 17  1  0  0  0  0
 19 18  2  0  0  0  0
 20 21  2  0  0  0  0
 20 19  1  0  0  0  0
 21 23  1  0  0  0  0
 22 21  1  0  0  0  0
 23 24  2  0  0  0  0
 24 14  1  0  0  0  0
 25 26  1  0  0  0  0
 25 19  1  0  0  0  0
 27 25  1  0  0  0  0
 28 34  1  0  0  0  0
 29 38  1  0  0  0  0
 29 30  1  0  0  0  0
 30 44  1  0  0  0  0
 31 39  1  0  0  0  0
 31 30  2  0  0  0  0
 32 31  1  0  0  0  0
 33 40  1  0  0  0  0
 33 32  1  0  0  0  0
 34 35  2  0  0  0  0
 34 33  1  0  0  0  0
 35 36  1  0  0  0  0
 36 37  1  0  0  0  0
 36 32  2  0  0  0  0
 37 29  2  0  0  0  0
 41 37  1  0  0  0  0
 42 47  1  0  0  0  0
 42 48  1  0  0  0  0
 43 42  2  0  0  0  0
 44 45  2  0  0  0  0
 44 43  1  0  0  0  0
 45 46  1  0  0  0  0
 46 50  1  0  0  0  0
 46 47  2  0  0  0  0
 49 43  1  0  0  0  0
M  END
>  <minimizedAffinity>
-4.55054998

>  <minimizedRMSD>
2.54683113

$$$$
