
 OpenBabel03272502043D

 44 48  0  0  0  0  0  0  0  0999 V2000
   34.2830   30.6050   47.5110 F   0  0  0  0  0  0  0  0  0  0  0  0
   34.7190   30.0580   46.3320 C   0  0  0  0  0  0  0  0  0  0  0  0
   33.8550   29.4370   45.4460 C   0  0  0  0  0  0  0  0  0  0  0  0
   34.3660   28.9240   44.2690 C   0  0  0  0  0  0  0  0  0  0  0  0
   35.7300   29.0290   43.9750 C   0  0  0  0  0  0  0  0  0  0  0  0
   36.5350   29.6610   44.9050 C   0  0  0  0  0  0  0  0  0  0  0  0
   36.0820   30.1740   46.0610 C   0  0  0  0  0  0  0  0  0  0  0  0
   33.6490   28.4540   43.6220 H   0  0  0  0  0  0  0  0  0  0  0  0
   36.0870   28.6140   43.0420 H   0  0  0  0  0  0  0  0  0  0  0  0
   37.5670   29.7010   44.6040 H   0  0  0  0  0  0  0  0  0  0  0  0
   32.1470   28.4550   46.8280 C   0  0  0  0  0  0  0  0  0  0  0  0
   32.4840   29.3940   45.8630 C   0  0  0  0  0  0  0  0  0  0  0  0
   31.4800   30.2160   45.3860 C   0  0  0  0  0  0  0  0  0  0  0  0
   30.2160   30.0950   45.8550 N   0  0  0  0  0  0  0  0  0  0  0  0
   29.9260   29.1780   46.7870 C   0  0  0  0  0  0  0  0  0  0  0  0
   30.8630   28.3750   47.2670 N   0  0  0  0  0  0  0  0  0  0  0  0
   32.8980   27.7830   47.2370 H   0  0  0  0  0  0  0  0  0  0  0  0
   31.7850   30.9460   44.6220 H   0  0  0  0  0  0  0  0  0  0  0  0
   28.5480   29.2020   47.1570 N   0  0  0  0  0  0  0  0  0  0  0  0
   27.4550   29.6480   46.4780 C   0  0  0  0  0  0  0  0  0  0  0  0
   27.5060   30.0740   45.4940 H   0  0  0  0  0  0  0  0  0  0  0  0
   26.3520   29.4590   47.2480 N   0  0  0  0  0  0  0  0  0  0  0  0
   26.7650   28.9060   48.3780 C   0  0  0  0  0  0  0  0  0  0  0  0
   26.1170   28.4910   49.5220 C   0  0  0  0  0  0  0  0  0  0  0  0
   26.7880   27.9400   50.5680 N   0  0  0  0  0  0  0  0  0  0  0  0
   28.1270   27.7800   50.5220 C   0  0  0  0  0  0  0  0  0  0  0  0
   28.6200   27.3380   51.3770 H   0  0  0  0  0  0  0  0  0  0  0  0
   28.7720   28.1800   49.4130 N   0  0  0  0  0  0  0  0  0  0  0  0
   28.1260   28.7270   48.3670 C   0  0  0  0  0  0  0  0  0  0  0  0
   24.7090   28.6090   49.6850 N   0  0  0  0  0  0  0  0  0  0  0  0
   23.7880   28.1420   49.5450 H   0  0  0  0  0  0  0  0  0  0  0  0
   24.5320   29.5590   50.1280 H   0  0  0  0  0  0  0  0  0  0  0  0
   37.9800   32.4080   44.9560 Br  0  0  0  0  0  0  0  0  0  0  0  0
   37.8820   31.8270   46.7680 C   0  0  0  0  0  0  0  0  0  0  0  0
   36.9880   30.8140   46.9960 C   0  0  0  0  0  0  0  0  0  0  0  0
   36.8850   30.3080   48.3050 C   0  0  0  0  0  0  0  0  0  0  0  0
   37.6500   30.8120   49.3080 C   0  0  0  0  0  0  0  0  0  0  0  0
   38.5310   31.8350   49.0090 C   0  0  0  0  0  0  0  0  0  0  0  0
   38.6610   32.3620   47.7240 C   0  0  0  0  0  0  0  0  0  0  0  0
   36.2070   29.5090   48.5750 H   0  0  0  0  0  0  0  0  0  0  0  0
   37.5850   30.4350   50.3200 H   0  0  0  0  0  0  0  0  0  0  0  0
   39.1630   32.2680   49.7850 H   0  0  0  0  0  0  0  0  0  0  0  0
   39.5010   33.3670   47.3550 O   0  0  0  0  0  0  0  0  0  0  0  0
   40.3950   33.2180   46.9380 H   0  0  0  0  0  0  0  0  0  0  0  0
  2  1  1  0  0  0  0
  3 12  1  0  0  0  0
  3  2  2  0  0  0  0
  4  3  1  0  0  0  0
  5  4  2  0  0  0  0
  5  6  1  0  0  0  0
  6  7  2  0  0  0  0
  7  2  1  0  0  0  0
  7 35  1  0  0  0  0
  8  4  1  0  0  0  0
  9  5  1  0  0  0  0
 10  6  1  0  0  0  0
 11 17  1  0  0  0  0
 11 16  1  0  0  0  0
 12 11  2  0  0  0  0
 13 14  2  0  0  0  0
 13 12  1  0  0  0  0
 14 15  1  0  0  0  0
 15 19  1  0  0  0  0
 15 16  2  0  0  0  0
 18 13  1  0  0  0  0
 19 29  1  0  0  0  0
 20 19  1  0  0  0  0
 20 22  2  0  0  0  0
 21 20  1  0  0  0  0
 22 23  1  0  0  0  0
 23 24  1  0  0  0  0
 24 30  1  0  0  0  0
 24 25  2  0  0  0  0
 26 25  1  0  0  0  0
 26 27  1  0  0  0  0
 28 26  2  0  0  0  0
 29 23  2  0  0  0  0
 29 28  1  0  0  0  0
 30 32  1  0  0  0  0
 31 30  1  0  0  0  0
 33 34  1  0  0  0  0
 34 35  2  0  0  0  0
 34 39  1  0  0  0  0
 35 36  1  0  0  0  0
 36 40  1  0  0  0  0
 36 37  2  0  0  0  0
 37 41  1  0  0  0  0
 38 37  1  0  0  0  0
 38 42  1  0  0  0  0
 39 38  2  0  0  0  0
 43 39  1  0  0  0  0
 44 43  1  0  0  0  0
M  END
>  <minimizedAffinity>
-8.18765354

>  <minimizedRMSD>
0.418120176

$$$$
