
 OpenBabel03272502053D

 44 48  0  0  0  0  0  0  0  0999 V2000
   34.0100   30.0970   47.8800 F   0  0  0  0  0  0  0  0  0  0  0  0
   34.2900   29.7440   46.5860 C   0  0  0  0  0  0  0  0  0  0  0  0
   33.3430   29.1600   45.7620 C   0  0  0  0  0  0  0  0  0  0  0  0
   33.6960   28.8470   44.4620 C   0  0  0  0  0  0  0  0  0  0  0  0
   34.9850   29.1140   43.9860 C   0  0  0  0  0  0  0  0  0  0  0  0
   35.8790   29.6980   44.8640 C   0  0  0  0  0  0  0  0  0  0  0  0
   35.5800   30.0180   46.1340 C   0  0  0  0  0  0  0  0  0  0  0  0
   32.9210   28.3960   43.8700 H   0  0  0  0  0  0  0  0  0  0  0  0
   35.2170   28.8530   42.9630 H   0  0  0  0  0  0  0  0  0  0  0  0
   36.8440   29.8700   44.4220 H   0  0  0  0  0  0  0  0  0  0  0  0
   31.9660   27.8910   47.2730 C   0  0  0  0  0  0  0  0  0  0  0  0
   32.0630   28.9380   46.3670 C   0  0  0  0  0  0  0  0  0  0  0  0
   30.9260   29.6870   46.1250 C   0  0  0  0  0  0  0  0  0  0  0  0
   29.7660   29.3950   46.7590 N   0  0  0  0  0  0  0  0  0  0  0  0
   29.7100   28.3780   47.6280 C   0  0  0  0  0  0  0  0  0  0  0  0
   30.7790   27.6400   47.8840 N   0  0  0  0  0  0  0  0  0  0  0  0
   32.8300   27.2710   47.5000 H   0  0  0  0  0  0  0  0  0  0  0  0
   31.0410   30.5060   45.4000 H   0  0  0  0  0  0  0  0  0  0  0  0
   28.4080   28.2260   48.1960 N   0  0  0  0  0  0  0  0  0  0  0  0
   27.8190   27.1500   48.7860 C   0  0  0  0  0  0  0  0  0  0  0  0
   28.3070   26.2030   48.9060 H   0  0  0  0  0  0  0  0  0  0  0  0
   26.5620   27.4960   49.1700 N   0  0  0  0  0  0  0  0  0  0  0  0
   26.3870   28.7600   48.8200 C   0  0  0  0  0  0  0  0  0  0  0  0
   25.3360   29.6420   48.9440 C   0  0  0  0  0  0  0  0  0  0  0  0
   25.4130   30.9210   48.4890 N   0  0  0  0  0  0  0  0  0  0  0  0
   26.5350   31.3760   47.8930 C   0  0  0  0  0  0  0  0  0  0  0  0
   26.5530   32.4000   47.5470 H   0  0  0  0  0  0  0  0  0  0  0  0
   27.5680   30.5260   47.7650 N   0  0  0  0  0  0  0  0  0  0  0  0
   27.5120   29.2580   48.2080 C   0  0  0  0  0  0  0  0  0  0  0  0
   24.1040   29.2760   49.5550 N   0  0  0  0  0  0  0  0  0  0  0  0
   23.5720   29.2300   50.4480 H   0  0  0  0  0  0  0  0  0  0  0  0
   23.4800   28.9000   48.7810 H   0  0  0  0  0  0  0  0  0  0  0  0
   37.5490   32.1040   44.8750 Br  0  0  0  0  0  0  0  0  0  0  0  0
   37.5160   31.5670   46.7030 C   0  0  0  0  0  0  0  0  0  0  0  0
   36.5750   30.6190   47.0040 C   0  0  0  0  0  0  0  0  0  0  0  0
   36.5140   30.1460   48.3270 C   0  0  0  0  0  0  0  0  0  0  0  0
   37.3630   30.6210   49.2750 C   0  0  0  0  0  0  0  0  0  0  0  0
   38.2880   31.5800   48.9050 C   0  0  0  0  0  0  0  0  0  0  0  0
   38.3790   32.0720   47.6020 C   0  0  0  0  0  0  0  0  0  0  0  0
   35.8030   29.3980   48.6530 H   0  0  0  0  0  0  0  0  0  0  0  0
   37.3310   30.2700   50.2980 H   0  0  0  0  0  0  0  0  0  0  0  0
   38.9870   31.9880   49.6350 H   0  0  0  0  0  0  0  0  0  0  0  0
   39.2580   33.0130   47.1650 O   0  0  0  0  0  0  0  0  0  0  0  0
   40.1160   32.8000   46.7040 H   0  0  0  0  0  0  0  0  0  0  0  0
  2  1  1  0  0  0  0
  3 12  1  0  0  0  0
  3  2  2  0  0  0  0
  4  3  1  0  0  0  0
  5  4  2  0  0  0  0
  5  6  1  0  0  0  0
  6  7  2  0  0  0  0
  7  2  1  0  0  0  0
  7 35  1  0  0  0  0
  8  4  1  0  0  0  0
  9  5  1  0  0  0  0
 10  6  1  0  0  0  0
 11 17  1  0  0  0  0
 11 16  1  0  0  0  0
 12 11  2  0  0  0  0
 13 12  1  0  0  0  0
 13 14  2  0  0  0  0
 14 15  1  0  0  0  0
 15 16  2  0  0  0  0
 15 19  1  0  0  0  0
 18 13  1  0  0  0  0
 19 29  1  0  0  0  0
 19 20  1  0  0  0  0
 20 21  1  0  0  0  0
 20 22  2  0  0  0  0
 23 24  1  0  0  0  0
 23 22  1  0  0  0  0
 24 30  1  0  0  0  0
 25 24  2  0  0  0  0
 26 25  1  0  0  0  0
 27 26  1  0  0  0  0
 28 26  2  0  0  0  0
 28 29  1  0  0  0  0
 29 23  2  0  0  0  0
 30 31  1  0  0  0  0
 32 30  1  0  0  0  0
 33 34  1  0  0  0  0
 34 35  2  0  0  0  0
 34 39  1  0  0  0  0
 35 36  1  0  0  0  0
 36 40  1  0  0  0  0
 36 37  2  0  0  0  0
 37 41  1  0  0  0  0
 38 37  1  0  0  0  0
 38 42  1  0  0  0  0
 39 38  2  0  0  0  0
 43 39  1  0  0  0  0
 44 43  1  0  0  0  0
M  END
>  <minimizedAffinity>
-8.29801846

>  <minimizedRMSD>
0.888176501

$$$$
