
 OpenBabel03272502043D

 44 48  0  0  0  0  0  0  0  0999 V2000
   34.1430   30.1320   48.0830 F   0  0  0  0  0  0  0  0  0  0  0  0
   34.5600   29.8500   46.8080 C   0  0  0  0  0  0  0  0  0  0  0  0
   33.7390   29.2190   45.8890 C   0  0  0  0  0  0  0  0  0  0  0  0
   34.2250   28.9830   44.6170 C   0  0  0  0  0  0  0  0  0  0  0  0
   35.5210   29.3730   44.2610 C   0  0  0  0  0  0  0  0  0  0  0  0
   36.2860   29.9970   45.2300 C   0  0  0  0  0  0  0  0  0  0  0  0
   35.8550   30.2460   46.4770 C   0  0  0  0  0  0  0  0  0  0  0  0
   33.5440   28.4900   43.9470 H   0  0  0  0  0  0  0  0  0  0  0  0
   35.8600   29.1680   43.2550 H   0  0  0  0  0  0  0  0  0  0  0  0
   37.2660   30.2640   44.8770 H   0  0  0  0  0  0  0  0  0  0  0  0
   32.3530   27.7820   47.2310 C   0  0  0  0  0  0  0  0  0  0  0  0
   32.4370   28.8710   46.3740 C   0  0  0  0  0  0  0  0  0  0  0  0
   31.2650   29.5360   46.0640 C   0  0  0  0  0  0  0  0  0  0  0  0
   30.0860   29.1270   46.5870 N   0  0  0  0  0  0  0  0  0  0  0  0
   30.0430   28.0710   47.4100 C   0  0  0  0  0  0  0  0  0  0  0  0
   31.1450   27.4110   47.7300 N   0  0  0  0  0  0  0  0  0  0  0  0
   33.2440   27.2220   47.5080 H   0  0  0  0  0  0  0  0  0  0  0  0
   31.3710   30.3920   45.3820 H   0  0  0  0  0  0  0  0  0  0  0  0
   28.7170   27.7920   47.8600 N   0  0  0  0  0  0  0  0  0  0  0  0
   28.0950   26.6070   48.1030 C   0  0  0  0  0  0  0  0  0  0  0  0
   28.5710   25.6540   47.9760 H   0  0  0  0  0  0  0  0  0  0  0  0
   26.8230   26.8550   48.5160 N   0  0  0  0  0  0  0  0  0  0  0  0
   26.6720   28.1700   48.5230 C   0  0  0  0  0  0  0  0  0  0  0  0
   25.6230   29.0020   48.8450 C   0  0  0  0  0  0  0  0  0  0  0  0
   25.7280   30.3550   48.7660 N   0  0  0  0  0  0  0  0  0  0  0  0
   26.8770   30.9370   48.3670 C   0  0  0  0  0  0  0  0  0  0  0  0
   26.9170   32.0160   48.3190 H   0  0  0  0  0  0  0  0  0  0  0  0
   27.9110   30.1380   48.0500 N   0  0  0  0  0  0  0  0  0  0  0  0
   27.8270   28.7960   48.1210 C   0  0  0  0  0  0  0  0  0  0  0  0
   24.3620   28.5040   49.2780 N   0  0  0  0  0  0  0  0  0  0  0  0
   23.7910   28.2220   50.1020 H   0  0  0  0  0  0  0  0  0  0  0  0
   23.7710   28.3680   48.4060 H   0  0  0  0  0  0  0  0  0  0  0  0
   38.0150   32.2430   45.3980 Br  0  0  0  0  0  0  0  0  0  0  0  0
   37.7060   31.8210   47.2300 C   0  0  0  0  0  0  0  0  0  0  0  0
   36.7190   30.8960   47.4460 C   0  0  0  0  0  0  0  0  0  0  0  0
   36.4570   30.5080   48.7720 C   0  0  0  0  0  0  0  0  0  0  0  0
   37.1630   31.0380   49.8040 C   0  0  0  0  0  0  0  0  0  0  0  0
   38.1450   31.9680   49.5170 C   0  0  0  0  0  0  0  0  0  0  0  0
   38.4340   32.3780   48.2150 C   0  0  0  0  0  0  0  0  0  0  0  0
   35.6970   29.7840   49.0340 H   0  0  0  0  0  0  0  0  0  0  0  0
   36.9760   30.7510   50.8310 H   0  0  0  0  0  0  0  0  0  0  0  0
   38.7340   32.4180   50.3160 H   0  0  0  0  0  0  0  0  0  0  0  0
   39.3800   33.2860   47.8550 O   0  0  0  0  0  0  0  0  0  0  0  0
   40.2930   33.0420   47.5400 H   0  0  0  0  0  0  0  0  0  0  0  0
  2  1  1  0  0  0  0
  3 12  1  0  0  0  0
  3  2  2  0  0  0  0
  4  3  1  0  0  0  0
  5  4  2  0  0  0  0
  5  6  1  0  0  0  0
  6  7  2  0  0  0  0
  7  2  1  0  0  0  0
  7 35  1  0  0  0  0
  8  4  1  0  0  0  0
  9  5  1  0  0  0  0
 10  6  1  0  0  0  0
 11 17  1  0  0  0  0
 11 16  1  0  0  0  0
 12 11  2  0  0  0  0
 13 12  1  0  0  0  0
 13 14  2  0  0  0  0
 14 15  1  0  0  0  0
 15 16  2  0  0  0  0
 15 19  1  0  0  0  0
 18 13  1  0  0  0  0
 19 20  1  0  0  0  0
 19 29  1  0  0  0  0
 20 22  2  0  0  0  0
 21 20  1  0  0  0  0
 22 23  1  0  0  0  0
 23 24  1  0  0  0  0
 24 30  1  0  0  0  0
 25 24  2  0  0  0  0
 26 25  1  0  0  0  0
 27 26  1  0  0  0  0
 28 29  1  0  0  0  0
 28 26  2  0  0  0  0
 29 23  2  0  0  0  0
 30 31  1  0  0  0  0
 32 30  1  0  0  0  0
 33 34  1  0  0  0  0
 34 35  2  0  0  0  0
 34 39  1  0  0  0  0
 35 36  1  0  0  0  0
 36 40  1  0  0  0  0
 36 37  2  0  0  0  0
 37 41  1  0  0  0  0
 38 37  1  0  0  0  0
 38 42  1  0  0  0  0
 39 38  2  0  0  0  0
 43 39  1  0  0  0  0
 44 43  1  0  0  0  0
M  END
>  <minimizedAffinity>
-8.73782349

>  <minimizedRMSD>
0.955177963

$$$$
