
 OpenBabel03272506343D

 24 26  0  0  0  0  0  0  0  0999 V2000
   37.3500   30.0290   50.8700 C   0  0  0  0  0  0  0  0  0  0  0  0
   38.0350   31.0050   50.1340 C   0  0  0  0  0  0  0  0  0  0  0  0
   37.5950   31.3240   48.8510 C   0  0  0  0  0  0  0  0  0  0  0  0
   36.5080   30.6670   48.3690 N   0  0  0  0  0  0  0  0  0  0  0  0
   35.8570   29.7200   49.1040 C   0  0  0  0  0  0  0  0  0  0  0  0
   36.2720   29.4110   50.3270 N   0  0  0  0  0  0  0  0  0  0  0  0
   38.9100   31.5440   50.5050 H   0  0  0  0  0  0  0  0  0  0  0  0
   38.0790   32.0630   48.2380 H   0  0  0  0  0  0  0  0  0  0  0  0
   34.7170   29.0240   48.6100 N   0  0  0  0  0  0  0  0  0  0  0  0
   34.3500   27.7850   49.0420 C   0  0  0  0  0  0  0  0  0  0  0  0
   34.8260   27.1450   49.7910 H   0  0  0  0  0  0  0  0  0  0  0  0
   33.2230   27.3550   48.4040 N   0  0  0  0  0  0  0  0  0  0  0  0
   32.8630   28.3430   47.5450 C   0  0  0  0  0  0  0  0  0  0  0  0
   31.8490   28.5640   46.6160 C   0  0  0  0  0  0  0  0  0  0  0  0
   31.8240   29.7020   45.9320 N   0  0  0  0  0  0  0  0  0  0  0  0
   32.7560   30.6670   46.1060 C   0  0  0  0  0  0  0  0  0  0  0  0
   32.7000   31.5890   45.5240 H   0  0  0  0  0  0  0  0  0  0  0  0
   33.7810   30.5310   46.9930 N   0  0  0  0  0  0  0  0  0  0  0  0
   33.7940   29.3680   47.6820 C   0  0  0  0  0  0  0  0  0  0  0  0
   30.8860   27.5610   46.4410 N   0  0  0  0  0  0  0  0  0  0  0  0
   30.0100   27.7240   45.8850 H   0  0  0  0  0  0  0  0  0  0  0  0
   30.9690   26.6080   46.8390 H   0  0  0  0  0  0  0  0  0  0  0  0
   37.9010   29.8210   52.1190 O   0  0  0  0  0  0  0  0  0  0  0  0
   37.5870   29.1230   52.7760 H   0  0  0  0  0  0  0  0  0  0  0  0
  1 23  1  0  0  0  0
  2  7  1  0  0  0  0
  2  1  2  0  0  0  0
  3  2  1  0  0  0  0
  4  3  2  0  0  0  0
  4  5  1  0  0  0  0
  5  6  2  0  0  0  0
  6  1  1  0  0  0  0
  8  3  1  0  0  0  0
  9 10  1  0  0  0  0
  9  5  1  0  0  0  0
 10 11  1  0  0  0  0
 12 10  2  0  0  0  0
 13 19  1  0  0  0  0
 13 12  1  0  0  0  0
 14 13  2  0  0  0  0
 15 16  2  0  0  0  0
 15 14  1  0  0  0  0
 16 18  1  0  0  0  0
 17 16  1  0  0  0  0
 18 19  2  0  0  0  0
 19  9  1  0  0  0  0
 20 14  1  0  0  0  0
 20 22  1  0  0  0  0
 21 20  1  0  0  0  0
 23 24  1  0  0  0  0
M  END
>  <minimizedAffinity>
-5.38679886

>  <minimizedRMSD>
1.51783061

$$$$
