
 OpenBabel03272506333D

 24 26  0  0  0  0  0  0  0  0999 V2000
   36.7100   29.8900   50.4080 C   0  0  0  0  0  0  0  0  0  0  0  0
   37.8500   30.4530   49.8200 C   0  0  0  0  0  0  0  0  0  0  0  0
   37.8410   30.7430   48.4570 C   0  0  0  0  0  0  0  0  0  0  0  0
   36.7120   30.4640   47.7540 N   0  0  0  0  0  0  0  0  0  0  0  0
   35.6130   29.9170   48.3480 C   0  0  0  0  0  0  0  0  0  0  0  0
   35.6150   29.6380   49.6470 N   0  0  0  0  0  0  0  0  0  0  0  0
   38.7660   30.6830   50.3690 H   0  0  0  0  0  0  0  0  0  0  0  0
   38.6860   31.1740   47.9500 H   0  0  0  0  0  0  0  0  0  0  0  0
   34.4250   29.6200   47.6230 N   0  0  0  0  0  0  0  0  0  0  0  0
   33.7430   30.5430   46.8890 C   0  0  0  0  0  0  0  0  0  0  0  0
   33.9660   31.6030   46.7320 H   0  0  0  0  0  0  0  0  0  0  0  0
   32.6440   29.9900   46.3000 N   0  0  0  0  0  0  0  0  0  0  0  0
   32.6230   28.6830   46.6680 C   0  0  0  0  0  0  0  0  0  0  0  0
   31.8120   27.5740   46.4380 C   0  0  0  0  0  0  0  0  0  0  0  0
   32.1240   26.4090   46.9920 N   0  0  0  0  0  0  0  0  0  0  0  0
   33.2130   26.2540   47.7810 C   0  0  0  0  0  0  0  0  0  0  0  0
   33.4350   25.2780   48.2170 H   0  0  0  0  0  0  0  0  0  0  0  0
   34.0590   27.2870   48.0550 N   0  0  0  0  0  0  0  0  0  0  0  0
   33.7290   28.4670   47.4860 C   0  0  0  0  0  0  0  0  0  0  0  0
   30.6870   27.7400   45.6220 N   0  0  0  0  0  0  0  0  0  0  0  0
   30.1270   26.9200   45.2740 H   0  0  0  0  0  0  0  0  0  0  0  0
   30.3320   28.6620   45.3090 H   0  0  0  0  0  0  0  0  0  0  0  0
   36.8670   29.6590   51.7610 O   0  0  0  0  0  0  0  0  0  0  0  0
   36.1830   29.2100   52.3500 H   0  0  0  0  0  0  0  0  0  0  0  0
  1 23  1  0  0  0  0
  2  7  1  0  0  0  0
  2  1  1  0  0  0  0
  3  2  2  0  0  0  0
  4  5  2  0  0  0  0
  4  3  1  0  0  0  0
  5  6  1  0  0  0  0
  6  1  2  0  0  0  0
  8  3  1  0  0  0  0
  9  5  1  0  0  0  0
 10  9  1  0  0  0  0
 11 10  1  0  0  0  0
 12 13  1  0  0  0  0
 12 10  2  0  0  0  0
 13 19  1  0  0  0  0
 14 13  2  0  0  0  0
 14 15  1  0  0  0  0
 15 16  2  0  0  0  0
 16 18  1  0  0  0  0
 16 17  1  0  0  0  0
 19  9  1  0  0  0  0
 19 18  2  0  0  0  0
 20 14  1  0  0  0  0
 21 20  1  0  0  0  0
 22 20  1  0  0  0  0
 23 24  1  0  0  0  0
M  END
>  <minimizedAffinity>
-4.48452091

>  <minimizedRMSD>
2.03295732

$$$$
