
 OpenBabel03272506343D

 24 26  0  0  0  0  0  0  0  0999 V2000
   37.4180   30.0160   50.9980 C   0  0  0  0  0  0  0  0  0  0  0  0
   38.1870   30.9350   50.2730 C   0  0  0  0  0  0  0  0  0  0  0  0
   37.7920   31.2850   48.9830 C   0  0  0  0  0  0  0  0  0  0  0  0
   36.6660   30.7130   48.4850 N   0  0  0  0  0  0  0  0  0  0  0  0
   35.9330   29.8200   49.2090 C   0  0  0  0  0  0  0  0  0  0  0  0
   36.3030   29.4810   50.4390 N   0  0  0  0  0  0  0  0  0  0  0  0
   39.0940   31.4050   50.6580 H   0  0  0  0  0  0  0  0  0  0  0  0
   38.3410   31.9850   48.3780 H   0  0  0  0  0  0  0  0  0  0  0  0
   34.7510   29.2130   48.6980 N   0  0  0  0  0  0  0  0  0  0  0  0
   33.9550   28.3860   49.4330 C   0  0  0  0  0  0  0  0  0  0  0  0
   34.0660   28.0610   50.4700 H   0  0  0  0  0  0  0  0  0  0  0  0
   32.8920   27.9460   48.6980 N   0  0  0  0  0  0  0  0  0  0  0  0
   33.0120   28.5060   47.4660 C   0  0  0  0  0  0  0  0  0  0  0  0
   32.3050   28.4880   46.2670 C   0  0  0  0  0  0  0  0  0  0  0  0
   32.7510   29.1930   45.2330 N   0  0  0  0  0  0  0  0  0  0  0  0
   33.8800   29.9350   45.3010 C   0  0  0  0  0  0  0  0  0  0  0  0
   34.2130   30.5000   44.4290 H   0  0  0  0  0  0  0  0  0  0  0  0
   34.6320   30.0080   46.4360 N   0  0  0  0  0  0  0  0  0  0  0  0
   34.1650   29.2860   47.4800 C   0  0  0  0  0  0  0  0  0  0  0  0
   31.1380   27.7180   46.2020 N   0  0  0  0  0  0  0  0  0  0  0  0
   30.4700   27.7870   45.3930 H   0  0  0  0  0  0  0  0  0  0  0  0
   30.8540   27.0390   46.9330 H   0  0  0  0  0  0  0  0  0  0  0  0
   37.9310   29.7670   52.2560 O   0  0  0  0  0  0  0  0  0  0  0  0
   37.5540   29.0960   52.9080 H   0  0  0  0  0  0  0  0  0  0  0  0
  1 23  1  0  0  0  0
  2  7  1  0  0  0  0
  2  1  2  0  0  0  0
  3  2  1  0  0  0  0
  4  3  2  0  0  0  0
  4  5  1  0  0  0  0
  5  6  2  0  0  0  0
  6  1  1  0  0  0  0
  8  3  1  0  0  0  0
  9  5  1  0  0  0  0
  9 10  1  0  0  0  0
 10 11  1  0  0  0  0
 12 10  2  0  0  0  0
 13 19  1  0  0  0  0
 13 12  1  0  0  0  0
 14 13  2  0  0  0  0
 15 16  2  0  0  0  0
 15 14  1  0  0  0  0
 16 18  1  0  0  0  0
 17 16  1  0  0  0  0
 18 19  2  0  0  0  0
 19  9  1  0  0  0  0
 20 14  1  0  0  0  0
 20 22  1  0  0  0  0
 21 20  1  0  0  0  0
 23 24  1  0  0  0  0
M  END
>  <minimizedAffinity>
-5.25758743

>  <minimizedRMSD>
1.40591896

$$$$
