
 OpenBabel03272505303D

 45 49  0  0  0  0  0  0  0  0999 V2000
   37.0510   30.6120   43.1550 C   0  0  0  0  0  0  0  0  0  0  0  0
   37.4320   29.4440   42.5550 C   0  0  0  0  0  0  0  0  0  0  0  0
   37.0110   29.0130   41.3230 C   0  0  0  0  0  0  0  0  0  0  0  0
   36.1260   29.8040   40.6010 C   0  0  0  0  0  0  0  0  0  0  0  0
   35.7550   30.9870   41.2360 C   0  0  0  0  0  0  0  0  0  0  0  0
   36.1950   31.3610   42.4410 N   0  0  0  0  0  0  0  0  0  0  0  0
   38.1230   28.7780   43.0660 H   0  0  0  0  0  0  0  0  0  0  0  0
   37.3270   28.0830   40.8690 H   0  0  0  0  0  0  0  0  0  0  0  0
   35.7230   29.5870   39.6370 H   0  0  0  0  0  0  0  0  0  0  0  0
   34.8450   31.9400   40.6480 N   0  0  0  0  0  0  0  0  0  0  0  0
   34.4100   31.9520   39.3550 C   0  0  0  0  0  0  0  0  0  0  0  0
   34.7540   31.1870   38.6560 H   0  0  0  0  0  0  0  0  0  0  0  0
   33.5680   33.0140   39.2190 N   0  0  0  0  0  0  0  0  0  0  0  0
   33.4980   33.6340   40.4190 C   0  0  0  0  0  0  0  0  0  0  0  0
   32.8030   34.7480   40.8450 C   0  0  0  0  0  0  0  0  0  0  0  0
   32.9140   35.1690   42.1370 N   0  0  0  0  0  0  0  0  0  0  0  0
   33.6990   34.5070   43.0150 C   0  0  0  0  0  0  0  0  0  0  0  0
   33.8280   34.7940   44.0550 H   0  0  0  0  0  0  0  0  0  0  0  0
   34.3830   33.4110   42.5920 N   0  0  0  0  0  0  0  0  0  0  0  0
   34.3000   32.9650   41.3280 C   0  0  0  0  0  0  0  0  0  0  0  0
   37.4220   31.0460   46.8650 N   0  0  0  0  0  0  0  0  0  0  0  0
   36.9480   30.6140   45.6610 C   0  0  0  0  0  0  0  0  0  0  0  0
   37.5160   31.0400   44.4640 C   0  0  0  0  0  0  0  0  0  0  0  0
   38.5920   31.9280   44.5320 C   0  0  0  0  0  0  0  0  0  0  0  0
   39.1260   32.3290   43.4780 O   0  0  0  0  0  0  0  0  0  0  0  0
   39.0620   32.3560   45.7470 N   0  0  0  0  0  0  0  0  0  0  0  0
   38.4410   31.8830   46.8240 C   0  0  0  0  0  0  0  0  0  0  0  0
   38.8980   32.2960   47.9130 O   0  0  0  0  0  0  0  0  0  0  0  0
   36.1110   29.9230   45.5910 H   0  0  0  0  0  0  0  0  0  0  0  0
   37.0110   29.4920   50.2190 C   0  0  0  0  0  0  0  0  0  0  0  0
   37.5870   29.9280   49.0160 C   0  0  0  0  0  0  0  0  0  0  0  0
   36.8450   30.6120   48.0650 C   0  0  0  0  0  0  0  0  0  0  0  0
   35.5470   30.8430   48.3440 N   0  0  0  0  0  0  0  0  0  0  0  0
   34.9580   30.4330   49.5050 C   0  0  0  0  0  0  0  0  0  0  0  0
   35.7110   29.7560   50.4320 N   0  0  0  0  0  0  0  0  0  0  0  0
   37.6500   28.9670   50.9090 H   0  0  0  0  0  0  0  0  0  0  0  0
   38.6310   29.7590   48.7580 H   0  0  0  0  0  0  0  0  0  0  0  0
   33.9130   30.6460   49.6730 H   0  0  0  0  0  0  0  0  0  0  0  0
   40.1720   33.2700   45.8060 C   0  0  0  0  0  0  0  0  0  0  0  0
   40.0280   34.2660   44.8900 F   0  0  0  0  0  0  0  0  0  0  0  0
   41.3970   32.6660   45.5420 F   0  0  0  0  0  0  0  0  0  0  0  0
   40.1940   33.8640   47.0710 F   0  0  0  0  0  0  0  0  0  0  0  0
   31.9830   35.4340   39.9200 N   0  0  0  0  0  0  0  0  0  0  0  0
   31.0170   35.5060   40.3140 H   0  0  0  0  0  0  0  0  0  0  0  0
   32.0730   35.8680   38.9900 H   0  0  0  0  0  0  0  0  0  0  0  0
  1 23  1  0  0  0  0
  2  7  1  0  0  0  0
  2  1  1  0  0  0  0
  3  2  2  0  0  0  0
  4  5  2  0  0  0  0
  4  3  1  0  0  0  0
  5  6  1  0  0  0  0
  6  1  2  0  0  0  0
  8  3  1  0  0  0  0
  9  4  1  0  0  0  0
 10  5  1  0  0  0  0
 10 20  1  0  0  0  0
 11 10  1  0  0  0  0
 12 11  1  0  0  0  0
 13 11  2  0  0  0  0
 13 14  1  0  0  0  0
 14 15  2  0  0  0  0
 14 20  1  0  0  0  0
 15 16  1  0  0  0  0
 16 17  2  0  0  0  0
 17 18  1  0  0  0  0
 19 17  1  0  0  0  0
 20 19  2  0  0  0  0
 21 32  1  0  0  0  0
 22 21  1  0  0  0  0
 23 24  1  0  0  0  0
 23 22  2  0  0  0  0
 24 26  1  0  0  0  0
 25 24  2  0  0  0  0
 26 39  1  0  0  0  0
 26 27  1  0  0  0  0
 27 21  1  0  0  0  0
 27 28  2  0  0  0  0
 29 22  1  0  0  0  0
 30 35  1  0  0  0  0
 30 36  1  0  0  0  0
 31 30  2  0  0  0  0
 32 33  2  0  0  0  0
 32 31  1  0  0  0  0
 33 34  1  0  0  0  0
 34 38  1  0  0  0  0
 34 35  2  0  0  0  0
 37 31  1  0  0  0  0
 39 42  1  0  0  0  0
 40 39  1  0  0  0  0
 41 39  1  0  0  0  0
 43 44  1  0  0  0  0
 43 15  1  0  0  0  0
 45 43  1  0  0  0  0
M  END
>  <minimizedAffinity>
-7.13920879

>  <minimizedRMSD>
0.7885288

$$$$
