
 OpenBabel03272506343D

 24 26  0  0  0  0  0  0  0  0999 V2000
   37.2760   29.3760   50.8110 C   0  0  0  0  0  0  0  0  0  0  0  0
   37.6220   30.7320   50.7380 C   0  0  0  0  0  0  0  0  0  0  0  0
   36.8780   31.5810   49.9210 C   0  0  0  0  0  0  0  0  0  0  0  0
   35.8390   31.0480   49.2270 N   0  0  0  0  0  0  0  0  0  0  0  0
   35.5210   29.7250   49.3130 C   0  0  0  0  0  0  0  0  0  0  0  0
   36.2260   28.9100   50.0890 N   0  0  0  0  0  0  0  0  0  0  0  0
   38.4530   31.1780   51.2890 H   0  0  0  0  0  0  0  0  0  0  0  0
   37.0950   32.6300   49.8240 H   0  0  0  0  0  0  0  0  0  0  0  0
   34.4360   29.1540   48.5900 N   0  0  0  0  0  0  0  0  0  0  0  0
   33.4870   28.3620   49.1640 C   0  0  0  0  0  0  0  0  0  0  0  0
   33.3900   28.0420   50.2040 H   0  0  0  0  0  0  0  0  0  0  0  0
   32.5660   27.9520   48.2430 N   0  0  0  0  0  0  0  0  0  0  0  0
   32.9370   28.4960   47.0550 C   0  0  0  0  0  0  0  0  0  0  0  0
   32.4670   28.4920   45.7440 C   0  0  0  0  0  0  0  0  0  0  0  0
   33.1240   29.1710   44.8110 N   0  0  0  0  0  0  0  0  0  0  0  0
   34.2450   29.8760   45.0880 C   0  0  0  0  0  0  0  0  0  0  0  0
   34.7560   30.4210   44.2920 H   0  0  0  0  0  0  0  0  0  0  0  0
   34.7720   29.9320   46.3440 N   0  0  0  0  0  0  0  0  0  0  0  0
   34.0930   29.2360   47.2840 C   0  0  0  0  0  0  0  0  0  0  0  0
   31.3050   27.7610   45.4620 N   0  0  0  0  0  0  0  0  0  0  0  0
   30.8050   27.8460   44.5420 H   0  0  0  0  0  0  0  0  0  0  0  0
   30.8660   27.1000   46.1290 H   0  0  0  0  0  0  0  0  0  0  0  0
   38.1010   28.6610   51.6570 O   0  0  0  0  0  0  0  0  0  0  0  0
   38.0500   27.6640   51.8010 H   0  0  0  0  0  0  0  0  0  0  0  0
  1 23  1  0  0  0  0
  2  1  1  0  0  0  0
  2  7  1  0  0  0  0
  3  2  2  0  0  0  0
  4  5  2  0  0  0  0
  4  3  1  0  0  0  0
  5  6  1  0  0  0  0
  6  1  2  0  0  0  0
  8  3  1  0  0  0  0
  9 10  1  0  0  0  0
  9  5  1  0  0  0  0
 10 11  1  0  0  0  0
 12 10  2  0  0  0  0
 13 19  1  0  0  0  0
 13 12  1  0  0  0  0
 14 13  2  0  0  0  0
 15 16  2  0  0  0  0
 15 14  1  0  0  0  0
 16 18  1  0  0  0  0
 17 16  1  0  0  0  0
 18 19  2  0  0  0  0
 19  9  1  0  0  0  0
 20 14  1  0  0  0  0
 20 22  1  0  0  0  0
 21 20  1  0  0  0  0
 23 24  1  0  0  0  0
M  END
>  <minimizedAffinity>
-4.99347067

>  <minimizedRMSD>
1.59676683

$$$$
