
 OpenBabel03272505293D

 45 49  0  0  0  0  0  0  0  0999 V2000
   36.3660   31.5600   43.3550 C   0  0  0  0  0  0  0  0  0  0  0  0
   36.5170   30.5170   42.4840 C   0  0  0  0  0  0  0  0  0  0  0  0
   35.8500   30.3770   41.2940 C   0  0  0  0  0  0  0  0  0  0  0  0
   34.9410   31.3560   40.9140 C   0  0  0  0  0  0  0  0  0  0  0  0
   34.8080   32.4060   41.8190 C   0  0  0  0  0  0  0  0  0  0  0  0
   35.4830   32.4960   42.9690 N   0  0  0  0  0  0  0  0  0  0  0  0
   37.2140   29.7160   42.7200 H   0  0  0  0  0  0  0  0  0  0  0  0
   35.9860   29.5410   40.6200 H   0  0  0  0  0  0  0  0  0  0  0  0
   34.3590   31.3690   40.0200 H   0  0  0  0  0  0  0  0  0  0  0  0
   33.9130   33.5180   41.6040 N   0  0  0  0  0  0  0  0  0  0  0  0
   34.1960   34.6610   40.9160 C   0  0  0  0  0  0  0  0  0  0  0  0
   35.1800   34.7980   40.4640 H   0  0  0  0  0  0  0  0  0  0  0  0
   33.0810   35.4440   40.9540 N   0  0  0  0  0  0  0  0  0  0  0  0
   32.1390   34.7780   41.6580 C   0  0  0  0  0  0  0  0  0  0  0  0
   30.8410   35.0970   42.0000 C   0  0  0  0  0  0  0  0  0  0  0  0
   30.0920   34.2260   42.7330 N   0  0  0  0  0  0  0  0  0  0  0  0
   30.6050   33.0420   43.1330 C   0  0  0  0  0  0  0  0  0  0  0  0
   30.0590   32.3060   43.7170 H   0  0  0  0  0  0  0  0  0  0  0  0
   31.8840   32.7280   42.7940 N   0  0  0  0  0  0  0  0  0  0  0  0
   32.6520   33.5610   42.0730 C   0  0  0  0  0  0  0  0  0  0  0  0
   37.3760   31.2500   46.9570 N   0  0  0  0  0  0  0  0  0  0  0  0
   36.6600   31.1100   45.8050 C   0  0  0  0  0  0  0  0  0  0  0  0
   37.0900   31.6790   44.6100 C   0  0  0  0  0  0  0  0  0  0  0  0
   38.2840   32.4030   44.6260 C   0  0  0  0  0  0  0  0  0  0  0  0
   38.7000   32.9270   43.5720 O   0  0  0  0  0  0  0  0  0  0  0  0
   38.9970   32.5390   45.7890 N   0  0  0  0  0  0  0  0  0  0  0  0
   38.4890   31.9520   46.8690 C   0  0  0  0  0  0  0  0  0  0  0  0
   39.1680   32.0980   47.9100 O   0  0  0  0  0  0  0  0  0  0  0  0
   35.7280   30.5490   45.7760 H   0  0  0  0  0  0  0  0  0  0  0  0
   37.3870   29.5170   50.2480 C   0  0  0  0  0  0  0  0  0  0  0  0
   37.8260   30.0960   49.0470 C   0  0  0  0  0  0  0  0  0  0  0  0
   36.9350   30.6740   48.1550 C   0  0  0  0  0  0  0  0  0  0  0  0
   35.6300   30.6590   48.4890 N   0  0  0  0  0  0  0  0  0  0  0  0
   35.1720   30.1050   49.6500 C   0  0  0  0  0  0  0  0  0  0  0  0
   36.0720   29.5380   50.5170 N   0  0  0  0  0  0  0  0  0  0  0  0
   38.1370   29.0880   50.8910 H   0  0  0  0  0  0  0  0  0  0  0  0
   38.8720   30.1260   48.7460 H   0  0  0  0  0  0  0  0  0  0  0  0
   34.1140   30.1220   49.8640 H   0  0  0  0  0  0  0  0  0  0  0  0
   40.2270   33.2870   45.7940 C   0  0  0  0  0  0  0  0  0  0  0  0
   40.2270   34.2260   44.8100 F   0  0  0  0  0  0  0  0  0  0  0  0
   41.3520   32.4970   45.5830 F   0  0  0  0  0  0  0  0  0  0  0  0
   40.3350   33.9590   47.0150 F   0  0  0  0  0  0  0  0  0  0  0  0
   30.3130   36.3410   41.5770 N   0  0  0  0  0  0  0  0  0  0  0  0
   29.4230   36.1670   41.0540 H   0  0  0  0  0  0  0  0  0  0  0  0
   30.5570   37.3390   41.6400 H   0  0  0  0  0  0  0  0  0  0  0  0
  1 23  1  0  0  0  0
  2  7  1  0  0  0  0
  2  1  2  0  0  0  0
  3  2  1  0  0  0  0
  4  3  2  0  0  0  0
  4  5  1  0  0  0  0
  5  6  2  0  0  0  0
  6  1  1  0  0  0  0
  8  3  1  0  0  0  0
  9  4  1  0  0  0  0
 10  5  1  0  0  0  0
 10 20  1  0  0  0  0
 11 13  2  0  0  0  0
 11 10  1  0  0  0  0
 12 11  1  0  0  0  0
 13 14  1  0  0  0  0
 14 15  2  0  0  0  0
 14 20  1  0  0  0  0
 15 16  1  0  0  0  0
 16 17  2  0  0  0  0
 17 18  1  0  0  0  0
 19 17  1  0  0  0  0
 20 19  2  0  0  0  0
 21 32  1  0  0  0  0
 22 21  1  0  0  0  0
 23 24  1  0  0  0  0
 23 22  2  0  0  0  0
 24 26  1  0  0  0  0
 25 24  2  0  0  0  0
 26 39  1  0  0  0  0
 26 27  1  0  0  0  0
 27 21  1  0  0  0  0
 27 28  2  0  0  0  0
 29 22  1  0  0  0  0
 30 35  1  0  0  0  0
 30 36  1  0  0  0  0
 31 30  2  0  0  0  0
 32 33  2  0  0  0  0
 32 31  1  0  0  0  0
 33 34  1  0  0  0  0
 34 38  1  0  0  0  0
 34 35  2  0  0  0  0
 37 31  1  0  0  0  0
 39 42  1  0  0  0  0
 40 39  1  0  0  0  0
 41 39  1  0  0  0  0
 43 45  1  0  0  0  0
 43 15  1  0  0  0  0
 44 43  1  0  0  0  0
M  END
>  <minimizedAffinity>
-7.84903383

>  <minimizedRMSD>
0.965712607

$$$$
