
 OpenBabel03272505293D

 45 49  0  0  0  0  0  0  0  0999 V2000
   36.4680   31.2250   43.4250 C   0  0  0  0  0  0  0  0  0  0  0  0
   36.6920   30.1360   42.6280 C   0  0  0  0  0  0  0  0  0  0  0  0
   36.0680   29.8880   41.4320 C   0  0  0  0  0  0  0  0  0  0  0  0
   35.1260   30.7970   40.9650 C   0  0  0  0  0  0  0  0  0  0  0  0
   34.9180   31.8950   41.7970 C   0  0  0  0  0  0  0  0  0  0  0  0
   35.5540   32.0900   42.9550 N   0  0  0  0  0  0  0  0  0  0  0  0
   37.4180   29.3860   42.9350 H   0  0  0  0  0  0  0  0  0  0  0  0
   36.2620   29.0190   40.8190 H   0  0  0  0  0  0  0  0  0  0  0  0
   34.5710   30.7240   40.0570 H   0  0  0  0  0  0  0  0  0  0  0  0
   33.9800   32.9460   41.4860 N   0  0  0  0  0  0  0  0  0  0  0  0
   34.2830   34.1790   40.9850 C   0  0  0  0  0  0  0  0  0  0  0  0
   35.3230   34.4440   40.7820 H   0  0  0  0  0  0  0  0  0  0  0  0
   33.1120   34.8580   40.8390 N   0  0  0  0  0  0  0  0  0  0  0  0
   32.1140   34.0420   41.2480 C   0  0  0  0  0  0  0  0  0  0  0  0
   30.7470   34.2150   41.3160 C   0  0  0  0  0  0  0  0  0  0  0  0
   29.9530   33.2080   41.7780 N   0  0  0  0  0  0  0  0  0  0  0  0
   30.4870   32.0330   42.1750 C   0  0  0  0  0  0  0  0  0  0  0  0
   29.9080   31.1950   42.5520 H   0  0  0  0  0  0  0  0  0  0  0  0
   31.8350   31.8650   42.1080 N   0  0  0  0  0  0  0  0  0  0  0  0
   32.6510   32.8330   41.6590 C   0  0  0  0  0  0  0  0  0  0  0  0
   37.3890   31.1890   47.0640 N   0  0  0  0  0  0  0  0  0  0  0  0
   36.7140   30.9400   45.9040 C   0  0  0  0  0  0  0  0  0  0  0  0
   37.1480   31.4580   44.6880 C   0  0  0  0  0  0  0  0  0  0  0  0
   38.3020   32.2450   44.6890 C   0  0  0  0  0  0  0  0  0  0  0  0
   38.7200   32.7260   43.6160 O   0  0  0  0  0  0  0  0  0  0  0  0
   38.9730   32.4900   45.8600 N   0  0  0  0  0  0  0  0  0  0  0  0
   38.4660   31.9420   46.9610 C   0  0  0  0  0  0  0  0  0  0  0  0
   39.1060   32.1880   48.0070 O   0  0  0  0  0  0  0  0  0  0  0  0
   35.8140   30.3290   45.8860 H   0  0  0  0  0  0  0  0  0  0  0  0
   37.3840   29.5500   50.4030 C   0  0  0  0  0  0  0  0  0  0  0  0
   37.8260   30.0780   49.1800 C   0  0  0  0  0  0  0  0  0  0  0  0
   36.9440   30.6630   48.2830 C   0  0  0  0  0  0  0  0  0  0  0  0
   35.6440   30.7050   48.6350 N   0  0  0  0  0  0  0  0  0  0  0  0
   35.1830   30.2010   49.8170 C   0  0  0  0  0  0  0  0  0  0  0  0
   36.0740   29.6260   50.6890 N   0  0  0  0  0  0  0  0  0  0  0  0
   38.1270   29.1110   51.0470 H   0  0  0  0  0  0  0  0  0  0  0  0
   38.8680   30.0610   48.8640 H   0  0  0  0  0  0  0  0  0  0  0  0
   34.1300   30.2630   50.0440 H   0  0  0  0  0  0  0  0  0  0  0  0
   40.1610   33.3020   45.8490 C   0  0  0  0  0  0  0  0  0  0  0  0
   40.0810   34.2660   44.8930 F   0  0  0  0  0  0  0  0  0  0  0  0
   41.3200   32.5790   45.5830 F   0  0  0  0  0  0  0  0  0  0  0  0
   40.2720   33.9450   47.0850 F   0  0  0  0  0  0  0  0  0  0  0  0
   30.1960   35.4490   40.8970 N   0  0  0  0  0  0  0  0  0  0  0  0
   29.4650   35.2630   40.1730 H   0  0  0  0  0  0  0  0  0  0  0  0
   30.3150   36.4510   41.1040 H   0  0  0  0  0  0  0  0  0  0  0  0
  1 23  1  0  0  0  0
  2  7  1  0  0  0  0
  2  1  2  0  0  0  0
  3  2  1  0  0  0  0
  4  3  2  0  0  0  0
  4  5  1  0  0  0  0
  5  6  2  0  0  0  0
  6  1  1  0  0  0  0
  8  3  1  0  0  0  0
  9  4  1  0  0  0  0
 10 20  1  0  0  0  0
 10  5  1  0  0  0  0
 11 10  1  0  0  0  0
 12 11  1  0  0  0  0
 13 11  2  0  0  0  0
 13 14  1  0  0  0  0
 14 15  2  0  0  0  0
 14 20  1  0  0  0  0
 15 16  1  0  0  0  0
 16 17  2  0  0  0  0
 17 18  1  0  0  0  0
 19 17  1  0  0  0  0
 20 19  2  0  0  0  0
 21 32  1  0  0  0  0
 22 21  1  0  0  0  0
 23 24  1  0  0  0  0
 23 22  2  0  0  0  0
 24 26  1  0  0  0  0
 25 24  2  0  0  0  0
 26 27  1  0  0  0  0
 27 21  1  0  0  0  0
 27 28  2  0  0  0  0
 29 22  1  0  0  0  0
 30 35  1  0  0  0  0
 30 36  1  0  0  0  0
 31 30  2  0  0  0  0
 32 33  2  0  0  0  0
 32 31  1  0  0  0  0
 33 34  1  0  0  0  0
 34 38  1  0  0  0  0
 34 35  2  0  0  0  0
 37 31  1  0  0  0  0
 39 26  1  0  0  0  0
 39 42  1  0  0  0  0
 40 39  1  0  0  0  0
 41 39  1  0  0  0  0
 43 45  1  0  0  0  0
 43 15  1  0  0  0  0
 44 43  1  0  0  0  0
M  END
>  <minimizedAffinity>
-7.18041134

>  <minimizedRMSD>
0.537648141

$$$$
