
 OpenBabel03272506333D

 24 26  0  0  0  0  0  0  0  0999 V2000
   37.3150   29.3390   50.3930 C   0  0  0  0  0  0  0  0  0  0  0  0
   37.3340   30.6610   50.8570 C   0  0  0  0  0  0  0  0  0  0  0  0
   36.4930   31.6020   50.2660 C   0  0  0  0  0  0  0  0  0  0  0  0
   35.6840   31.1890   49.2560 N   0  0  0  0  0  0  0  0  0  0  0  0
   35.6830   29.8960   48.8200 C   0  0  0  0  0  0  0  0  0  0  0  0
   36.4820   28.9940   49.3790 N   0  0  0  0  0  0  0  0  0  0  0  0
   37.9770   31.0110   51.6670 H   0  0  0  0  0  0  0  0  0  0  0  0
   36.4630   32.6310   50.5790 H   0  0  0  0  0  0  0  0  0  0  0  0
   34.8410   29.4500   47.7630 N   0  0  0  0  0  0  0  0  0  0  0  0
   35.1170   29.6570   46.4450 C   0  0  0  0  0  0  0  0  0  0  0  0
   35.9720   30.1640   45.9900 H   0  0  0  0  0  0  0  0  0  0  0  0
   34.1450   29.1260   45.6490 N   0  0  0  0  0  0  0  0  0  0  0  0
   33.2260   28.5670   46.4780 C   0  0  0  0  0  0  0  0  0  0  0  0
   32.0220   27.8800   46.3480 C   0  0  0  0  0  0  0  0  0  0  0  0
   31.3790   27.4710   47.4340 N   0  0  0  0  0  0  0  0  0  0  0  0
   31.8550   27.7000   48.6810 C   0  0  0  0  0  0  0  0  0  0  0  0
   31.2950   27.3480   49.5490 H   0  0  0  0  0  0  0  0  0  0  0  0
   33.0240   28.3650   48.8980 N   0  0  0  0  0  0  0  0  0  0  0  0
   33.6670   28.7750   47.7820 C   0  0  0  0  0  0  0  0  0  0  0  0
   31.5340   27.6470   45.0550 N   0  0  0  0  0  0  0  0  0  0  0  0
   30.7270   26.9980   44.8740 H   0  0  0  0  0  0  0  0  0  0  0  0
   31.9270   28.0870   44.2030 H   0  0  0  0  0  0  0  0  0  0  0  0
   38.1980   28.5230   51.0720 O   0  0  0  0  0  0  0  0  0  0  0  0
   38.3720   27.5550   50.8510 H   0  0  0  0  0  0  0  0  0  0  0  0
  1  2  1  0  0  0  0
  1 23  1  0  0  0  0
  2  7  1  0  0  0  0
  3  8  1  0  0  0  0
  3  2  2  0  0  0  0
  4  3  1  0  0  0  0
  5  4  2  0  0  0  0
  5  6  1  0  0  0  0
  6  1  2  0  0  0  0
  9 19  1  0  0  0  0
  9  5  1  0  0  0  0
 10  9  1  0  0  0  0
 11 10  1  0  0  0  0
 12 10  2  0  0  0  0
 12 13  1  0  0  0  0
 13 19  1  0  0  0  0
 14 13  2  0  0  0  0
 14 15  1  0  0  0  0
 15 16  2  0  0  0  0
 16 18  1  0  0  0  0
 16 17  1  0  0  0  0
 19 18  2  0  0  0  0
 20 14  1  0  0  0  0
 21 20  1  0  0  0  0
 22 20  1  0  0  0  0
 24 23  1  0  0  0  0
M  END
>  <minimizedAffinity>
-4.64428473

>  <minimizedRMSD>
2.94560003

$$$$
