
 OpenBabel03272503363D

 24 26  0  0  0  0  0  0  0  0999 V2000
   37.1550   29.8310   51.2680 C   0  0  0  0  0  0  0  0  0  0  0  0
   37.8920   30.5080   50.2870 C   0  0  0  0  0  0  0  0  0  0  0  0
   37.2400   30.8070   49.0890 C   0  0  0  0  0  0  0  0  0  0  0  0
   35.9430   30.4370   48.9290 N   0  0  0  0  0  0  0  0  0  0  0  0
   35.2550   29.7750   49.9140 C   0  0  0  0  0  0  0  0  0  0  0  0
   35.8690   29.4830   51.0640 N   0  0  0  0  0  0  0  0  0  0  0  0
   38.9160   30.8170   50.3740 H   0  0  0  0  0  0  0  0  0  0  0  0
   34.2240   29.4830   49.7810 H   0  0  0  0  0  0  0  0  0  0  0  0
   37.8760   31.4900   48.0150 N   0  0  0  0  0  0  0  0  0  0  0  0
   38.8500   32.3860   48.2790 C   0  0  0  0  0  0  0  0  0  0  0  0
   39.2770   32.7120   49.2380 H   0  0  0  0  0  0  0  0  0  0  0  0
   39.3060   32.9060   47.1060 N   0  0  0  0  0  0  0  0  0  0  0  0
   38.5960   32.3150   46.1390 C   0  0  0  0  0  0  0  0  0  0  0  0
   38.5560   32.3870   44.7550 C   0  0  0  0  0  0  0  0  0  0  0  0
   37.6990   31.6370   44.0290 N   0  0  0  0  0  0  0  0  0  0  0  0
   36.8320   30.7760   44.6240 C   0  0  0  0  0  0  0  0  0  0  0  0
   36.1500   30.1780   44.0690 H   0  0  0  0  0  0  0  0  0  0  0  0
   36.8440   30.6800   45.9750 N   0  0  0  0  0  0  0  0  0  0  0  0
   37.6970   31.4260   46.6940 C   0  0  0  0  0  0  0  0  0  0  0  0
   39.4270   33.2590   44.0760 N   0  0  0  0  0  0  0  0  0  0  0  0
   39.4290   34.2040   43.5950 H   0  0  0  0  0  0  0  0  0  0  0  0
   40.3680   32.7720   44.0680 H   0  0  0  0  0  0  0  0  0  0  0  0
   37.9250   29.5970   52.4050 O   0  0  0  0  0  0  0  0  0  0  0  0
   37.5250   28.9760   53.1120 H   0  0  0  0  0  0  0  0  0  0  0  0
  1 23  1  0  0  0  0
  2  7  1  0  0  0  0
  2  1  2  0  0  0  0
  3  2  1  0  0  0  0
  4  3  2  0  0  0  0
  4  5  1  0  0  0  0
  5  6  2  0  0  0  0
  6  1  1  0  0  0  0
  8  5  1  0  0  0  0
  9 10  1  0  0  0  0
  9  3  1  0  0  0  0
 10 11  1  0  0  0  0
 12 10  2  0  0  0  0
 13 19  1  0  0  0  0
 13 12  1  0  0  0  0
 14 13  2  0  0  0  0
 15 16  2  0  0  0  0
 15 14  1  0  0  0  0
 16 18  1  0  0  0  0
 17 16  1  0  0  0  0
 18 19  2  0  0  0  0
 19  9  1  0  0  0  0
 20 14  1  0  0  0  0
 21 20  1  0  0  0  0
 22 20  1  0  0  0  0
 23 24  1  0  0  0  0
M  END
>  <minimizedAffinity>
-6.08897209

>  <minimizedRMSD>
1.0865252

$$$$
