
 OpenBabel03272506333D

 24 26  0  0  0  0  0  0  0  0999 V2000
   37.4290   30.0130   51.0110 C   0  0  0  0  0  0  0  0  0  0  0  0
   38.0510   31.1130   50.4060 C   0  0  0  0  0  0  0  0  0  0  0  0
   37.5250   31.6240   49.2210 C   0  0  0  0  0  0  0  0  0  0  0  0
   36.4200   31.0260   48.7030 N   0  0  0  0  0  0  0  0  0  0  0  0
   35.8320   29.9560   49.3110 C   0  0  0  0  0  0  0  0  0  0  0  0
   36.3280   29.4630   50.4400 N   0  0  0  0  0  0  0  0  0  0  0  0
   38.9380   31.6070   50.8070 H   0  0  0  0  0  0  0  0  0  0  0  0
   37.9580   32.4660   48.7090 H   0  0  0  0  0  0  0  0  0  0  0  0
   34.6750   29.3200   48.7790 N   0  0  0  0  0  0  0  0  0  0  0  0
   33.8490   28.5260   49.5170 C   0  0  0  0  0  0  0  0  0  0  0  0
   33.9160   28.2510   50.5740 H   0  0  0  0  0  0  0  0  0  0  0  0
   32.8210   28.0470   48.7600 N   0  0  0  0  0  0  0  0  0  0  0  0
   32.9940   28.5460   47.5090 C   0  0  0  0  0  0  0  0  0  0  0  0
   32.3400   28.4680   46.2820 C   0  0  0  0  0  0  0  0  0  0  0  0
   32.8290   29.1220   45.2360 N   0  0  0  0  0  0  0  0  0  0  0  0
   33.9520   29.8730   45.3170 C   0  0  0  0  0  0  0  0  0  0  0  0
   34.3210   30.3960   44.4320 H   0  0  0  0  0  0  0  0  0  0  0  0
   34.6520   30.0040   46.4770 N   0  0  0  0  0  0  0  0  0  0  0  0
   34.1440   29.3310   47.5350 C   0  0  0  0  0  0  0  0  0  0  0  0
   31.1780   27.6900   46.2040 N   0  0  0  0  0  0  0  0  0  0  0  0
   30.5470   27.7160   45.3640 H   0  0  0  0  0  0  0  0  0  0  0  0
   30.8640   27.0460   46.9550 H   0  0  0  0  0  0  0  0  0  0  0  0
   38.0610   29.6190   52.1750 O   0  0  0  0  0  0  0  0  0  0  0  0
   37.8000   28.8160   52.7260 H   0  0  0  0  0  0  0  0  0  0  0  0
  1 23  1  0  0  0  0
  2  7  1  0  0  0  0
  2  1  2  0  0  0  0
  3  2  1  0  0  0  0
  4  3  2  0  0  0  0
  4  5  1  0  0  0  0
  5  6  2  0  0  0  0
  6  1  1  0  0  0  0
  8  3  1  0  0  0  0
  9  5  1  0  0  0  0
  9 10  1  0  0  0  0
 10 11  1  0  0  0  0
 12 10  2  0  0  0  0
 13 19  1  0  0  0  0
 13 12  1  0  0  0  0
 14 13  2  0  0  0  0
 15 16  2  0  0  0  0
 15 14  1  0  0  0  0
 16 18  1  0  0  0  0
 17 16  1  0  0  0  0
 18 19  2  0  0  0  0
 19  9  1  0  0  0  0
 20 14  1  0  0  0  0
 20 22  1  0  0  0  0
 21 20  1  0  0  0  0
 23 24  1  0  0  0  0
M  END
>  <minimizedAffinity>
-5.25394106

>  <minimizedRMSD>
1.21284401

$$$$
