
 OpenBabel03272503383D

 24 26  0  0  0  0  0  0  0  0999 V2000
   38.7890   27.2110   31.9570 C   0  0  0  0  0  0  0  0  0  0  0  0
   39.4680   26.2570   32.7260 C   0  0  0  0  0  0  0  0  0  0  0  0
   38.7440   25.6120   33.7310 C   0  0  0  0  0  0  0  0  0  0  0  0
   37.4370   25.9310   33.9160 N   0  0  0  0  0  0  0  0  0  0  0  0
   36.8080   26.8710   33.1420 C   0  0  0  0  0  0  0  0  0  0  0  0
   37.4910   27.4950   32.1770 N   0  0  0  0  0  0  0  0  0  0  0  0
   40.4980   25.9770   32.6120 H   0  0  0  0  0  0  0  0  0  0  0  0
   35.7680   27.1210   33.2930 H   0  0  0  0  0  0  0  0  0  0  0  0
   39.3160   24.6240   34.5810 N   0  0  0  0  0  0  0  0  0  0  0  0
   40.3120   23.8410   34.1150 C   0  0  0  0  0  0  0  0  0  0  0  0
   40.8010   23.8200   33.1310 H   0  0  0  0  0  0  0  0  0  0  0  0
   40.6970   22.9800   35.0980 N   0  0  0  0  0  0  0  0  0  0  0  0
   39.9230   23.2540   36.1530 C   0  0  0  0  0  0  0  0  0  0  0  0
   39.7970   22.7610   37.4430 C   0  0  0  0  0  0  0  0  0  0  0  0
   38.8900   23.2620   38.3090 N   0  0  0  0  0  0  0  0  0  0  0  0
   38.0560   24.2750   37.9550 C   0  0  0  0  0  0  0  0  0  0  0  0
   37.3360   24.6820   38.6240 H   0  0  0  0  0  0  0  0  0  0  0  0
   38.1520   24.7810   36.7030 N   0  0  0  0  0  0  0  0  0  0  0  0
   39.0540   24.2820   35.8430 C   0  0  0  0  0  0  0  0  0  0  0  0
   40.6290   21.7120   37.8740 N   0  0  0  0  0  0  0  0  0  0  0  0
   40.6080   20.6650   38.0400 H   0  0  0  0  0  0  0  0  0  0  0  0
   41.5650   22.1620   38.0900 H   0  0  0  0  0  0  0  0  0  0  0  0
   39.6280   27.7730   30.9960 O   0  0  0  0  0  0  0  0  0  0  0  0
   39.2690   28.5870   30.4920 H   0  0  0  0  0  0  0  0  0  0  0  0
  1  6  2  0  0  0  0
  1  2  1  0  0  0  0
  2  3  2  0  0  0  0
  3  4  1  0  0  0  0
  3  9  1  0  0  0  0
  5  8  1  0  0  0  0
  5  4  2  0  0  0  0
  6  5  1  0  0  0  0
  7  2  1  0  0  0  0
  9 19  1  0  0  0  0
 10  9  1  0  0  0  0
 10 12  2  0  0  0  0
 11 10  1  0  0  0  0
 12 13  1  0  0  0  0
 13 14  1  0  0  0  0
 14 20  1  0  0  0  0
 14 15  2  0  0  0  0
 16 15  1  0  0  0  0
 16 17  1  0  0  0  0
 18 16  2  0  0  0  0
 19 13  2  0  0  0  0
 19 18  1  0  0  0  0
 20 21  1  0  0  0  0
 20 22  1  0  0  0  0
 23  1  1  0  0  0  0
 24 23  1  0  0  0  0
M  END
>  <minimizedAffinity>
-5.11165905

$$$$

 OpenBabel03272503383D

 24 26  0  0  0  0  0  0  0  0999 V2000
   35.1630   19.6720   32.0000 C   0  0  0  0  0  0  0  0  0  0  0  0
   35.5060   19.9620   33.3280 C   0  0  0  0  0  0  0  0  0  0  0  0
   36.2750   21.1050   33.5550 C   0  0  0  0  0  0  0  0  0  0  0  0
   36.6500   21.8730   32.4990 N   0  0  0  0  0  0  0  0  0  0  0  0
   36.2930   21.5560   31.2140 C   0  0  0  0  0  0  0  0  0  0  0  0
   35.5580   20.4640   30.9850 N   0  0  0  0  0  0  0  0  0  0  0  0
   35.2310   19.3810   34.1880 H   0  0  0  0  0  0  0  0  0  0  0  0
   36.5940   22.1710   30.3780 H   0  0  0  0  0  0  0  0  0  0  0  0
   36.6900   21.5090   34.8550 N   0  0  0  0  0  0  0  0  0  0  0  0
   35.9140   21.2200   35.9210 C   0  0  0  0  0  0  0  0  0  0  0  0
   34.9520   20.6940   35.9800 H   0  0  0  0  0  0  0  0  0  0  0  0
   36.5100   21.7020   37.0470 N   0  0  0  0  0  0  0  0  0  0  0  0
   37.6470   22.2800   36.6460 C   0  0  0  0  0  0  0  0  0  0  0  0
   38.6930   22.9440   37.2670 C   0  0  0  0  0  0  0  0  0  0  0  0
   39.7410   23.4330   36.5670 N   0  0  0  0  0  0  0  0  0  0  0  0
   39.8160   23.2950   35.2180 C   0  0  0  0  0  0  0  0  0  0  0  0
   40.6330   23.6730   34.6510 H   0  0  0  0  0  0  0  0  0  0  0  0
   38.8120   22.6510   34.5780 N   0  0  0  0  0  0  0  0  0  0  0  0
   37.7720   22.1670   35.2750 C   0  0  0  0  0  0  0  0  0  0  0  0
   38.6770   23.1210   38.6630 N   0  0  0  0  0  0  0  0  0  0  0  0
   38.4730   23.8640   39.3920 H   0  0  0  0  0  0  0  0  0  0  0  0
   38.9690   22.1880   39.0710 H   0  0  0  0  0  0  0  0  0  0  0  0
   34.3990   18.5100   31.9200 O   0  0  0  0  0  0  0  0  0  0  0  0
   34.2320   18.1330   30.9840 H   0  0  0  0  0  0  0  0  0  0  0  0
  1  2  1  0  0  0  0
  2  3  2  0  0  0  0
  2  7  1  0  0  0  0
  3  9  1  0  0  0  0
  4  3  1  0  0  0  0
  5  4  2  0  0  0  0
  6  5  1  0  0  0  0
  6  1  2  0  0  0  0
  8  5  1  0  0  0  0
  9 19  1  0  0  0  0
  9 10  1  0  0  0  0
 10 11  1  0  0  0  0
 10 12  2  0  0  0  0
 13 12  1  0  0  0  0
 13 14  1  0  0  0  0
 14 20  1  0  0  0  0
 15 14  2  0  0  0  0
 16 15  1  0  0  0  0
 17 16  1  0  0  0  0
 18 16  2  0  0  0  0
 18 19  1  0  0  0  0
 19 13  2  0  0  0  0
 20 22  1  0  0  0  0
 20 21  1  0  0  0  0
 23  1  1  0  0  0  0
 24 23  1  0  0  0  0
M  END
>  <minimizedAffinity>
-5.03055763

$$$$

 OpenBabel03272503383D

 24 26  0  0  0  0  0  0  0  0999 V2000
   39.6830   22.7810   37.6000 C   0  0  0  0  0  0  0  0  0  0  0  0
   40.0570   23.3860   36.3920 C   0  0  0  0  0  0  0  0  0  0  0  0
   39.2930   24.4710   35.9560 C   0  0  0  0  0  0  0  0  0  0  0  0
   38.2400   24.8850   36.7070 N   0  0  0  0  0  0  0  0  0  0  0  0
   37.9060   24.2660   37.8840 C   0  0  0  0  0  0  0  0  0  0  0  0
   38.6300   23.2270   38.3110 N   0  0  0  0  0  0  0  0  0  0  0  0
   40.8810   23.0890   35.7710 H   0  0  0  0  0  0  0  0  0  0  0  0
   37.0670   24.6000   38.4770 H   0  0  0  0  0  0  0  0  0  0  0  0
   39.5680   25.1710   34.7480 N   0  0  0  0  0  0  0  0  0  0  0  0
   40.8390   25.2560   34.3030 C   0  0  0  0  0  0  0  0  0  0  0  0
   41.7710   24.8580   34.7270 H   0  0  0  0  0  0  0  0  0  0  0  0
   40.8550   25.9670   33.1400 N   0  0  0  0  0  0  0  0  0  0  0  0
   39.5850   26.3050   32.8950 C   0  0  0  0  0  0  0  0  0  0  0  0
   38.9220   27.0110   31.9040 C   0  0  0  0  0  0  0  0  0  0  0  0
   37.5830   27.1900   31.9330 N   0  0  0  0  0  0  0  0  0  0  0  0
   36.8240   26.6860   32.9400 C   0  0  0  0  0  0  0  0  0  0  0  0
   35.7690   26.8170   32.9790 H   0  0  0  0  0  0  0  0  0  0  0  0
   37.4380   25.9900   33.9260 N   0  0  0  0  0  0  0  0  0  0  0  0
   38.7690   25.8130   33.8940 C   0  0  0  0  0  0  0  0  0  0  0  0
   39.6500   27.5600   30.8320 N   0  0  0  0  0  0  0  0  0  0  0  0
   40.0370   28.4890   30.4960 H   0  0  0  0  0  0  0  0  0  0  0  0
   39.8530   26.7490   30.1810 H   0  0  0  0  0  0  0  0  0  0  0  0
   40.5280   21.7180   37.9130 O   0  0  0  0  0  0  0  0  0  0  0  0
   40.2430   21.1190   38.6910 H   0  0  0  0  0  0  0  0  0  0  0  0
  1 23  1  0  0  0  0
  1  6  1  0  0  0  0
  2  1  2  0  0  0  0
  3  2  1  0  0  0  0
  3  4  2  0  0  0  0
  4  5  1  0  0  0  0
  5  6  2  0  0  0  0
  5  8  1  0  0  0  0
  7  2  1  0  0  0  0
  9  3  1  0  0  0  0
 10 11  1  0  0  0  0
 10  9  1  0  0  0  0
 12 10  2  0  0  0  0
 13 12  1  0  0  0  0
 13 19  1  0  0  0  0
 14 15  1  0  0  0  0
 14 13  2  0  0  0  0
 15 16  2  0  0  0  0
 16 17  1  0  0  0  0
 16 18  1  0  0  0  0
 19 18  2  0  0  0  0
 19  9  1  0  0  0  0
 20 14  1  0  0  0  0
 21 20  1  0  0  0  0
 22 20  1  0  0  0  0
 23 24  1  0  0  0  0
M  END
>  <minimizedAffinity>
-4.972157

$$$$

 OpenBabel03272503383D

 24 26  0  0  0  0  0  0  0  0999 V2000
   42.3110   20.9390   37.2720 C   0  0  0  0  0  0  0  0  0  0  0  0
   41.1740   21.7550   37.2010 C   0  0  0  0  0  0  0  0  0  0  0  0
   41.0970   22.6550   36.1360 C   0  0  0  0  0  0  0  0  0  0  0  0
   42.1090   22.7000   35.2310 N   0  0  0  0  0  0  0  0  0  0  0  0
   43.2070   21.8850   35.3360 C   0  0  0  0  0  0  0  0  0  0  0  0
   43.2910   21.0200   36.3510 N   0  0  0  0  0  0  0  0  0  0  0  0
   40.3540   21.7490   37.8940 H   0  0  0  0  0  0  0  0  0  0  0  0
   44.0090   21.9250   34.6140 H   0  0  0  0  0  0  0  0  0  0  0  0
   39.9960   23.5360   35.9500 N   0  0  0  0  0  0  0  0  0  0  0  0
   38.7670   23.1650   36.3670 C   0  0  0  0  0  0  0  0  0  0  0  0
   38.4310   22.2420   36.8590 H   0  0  0  0  0  0  0  0  0  0  0  0
   37.8820   24.1610   36.0850 N   0  0  0  0  0  0  0  0  0  0  0  0
   38.5910   25.1300   35.4970 C   0  0  0  0  0  0  0  0  0  0  0  0
   38.3120   26.3840   34.9750 C   0  0  0  0  0  0  0  0  0  0  0  0
   39.2760   27.1560   34.4270 N   0  0  0  0  0  0  0  0  0  0  0  0
   40.5660   26.7370   34.3610 C   0  0  0  0  0  0  0  0  0  0  0  0
   41.3380   27.3320   33.9330 H   0  0  0  0  0  0  0  0  0  0  0  0
   40.8750   25.5170   34.8610 N   0  0  0  0  0  0  0  0  0  0  0  0
   39.9160   24.7520   35.4060 C   0  0  0  0  0  0  0  0  0  0  0  0
   36.9950   26.8780   35.0120 N   0  0  0  0  0  0  0  0  0  0  0  0
   36.1530   27.0130   34.3810 H   0  0  0  0  0  0  0  0  0  0  0  0
   36.8430   27.2090   36.0070 H   0  0  0  0  0  0  0  0  0  0  0  0
   42.2570   20.0940   38.3790 O   0  0  0  0  0  0  0  0  0  0  0  0
   43.1080   19.5740   38.6030 H   0  0  0  0  0  0  0  0  0  0  0  0
  1 23  1  0  0  0  0
  2  1  1  0  0  0  0
  2  7  1  0  0  0  0
  3  2  2  0  0  0  0
  4  5  2  0  0  0  0
  4  3  1  0  0  0  0
  5  6  1  0  0  0  0
  6  1  2  0  0  0  0
  8  5  1  0  0  0  0
  9  3  1  0  0  0  0
  9 10  1  0  0  0  0
 10 11  1  0  0  0  0
 12 10  2  0  0  0  0
 13 12  1  0  0  0  0
 14 20  1  0  0  0  0
 14 13  2  0  0  0  0
 15 14  1  0  0  0  0
 16 15  2  0  0  0  0
 16 18  1  0  0  0  0
 17 16  1  0  0  0  0
 18 19  2  0  0  0  0
 19 13  1  0  0  0  0
 19  9  1  0  0  0  0
 20 22  1  0  0  0  0
 21 20  1  0  0  0  0
 23 24  1  0  0  0  0
M  END
>  <minimizedAffinity>
-4.89219999

$$$$

 OpenBabel03272503383D

 24 26  0  0  0  0  0  0  0  0999 V2000
   38.2810   23.2500   35.9540 C   0  0  0  0  0  0  0  0  0  0  0  0
   38.1110   23.6690   34.6270 C   0  0  0  0  0  0  0  0  0  0  0  0
   37.9900   25.0410   34.3990 C   0  0  0  0  0  0  0  0  0  0  0  0
   38.0410   25.8960   35.4530 N   0  0  0  0  0  0  0  0  0  0  0  0
   38.2090   25.4470   36.7380 C   0  0  0  0  0  0  0  0  0  0  0  0
   38.3260   24.1360   36.9680 N   0  0  0  0  0  0  0  0  0  0  0  0
   38.0660   23.0260   33.7680 H   0  0  0  0  0  0  0  0  0  0  0  0
   38.2490   26.1310   37.5730 H   0  0  0  0  0  0  0  0  0  0  0  0
   37.8130   25.5940   33.1000 N   0  0  0  0  0  0  0  0  0  0  0  0
   38.3450   24.9650   32.0310 C   0  0  0  0  0  0  0  0  0  0  0  0
   38.9320   24.0380   31.9680 H   0  0  0  0  0  0  0  0  0  0  0  0
   38.0480   25.6730   30.9060 N   0  0  0  0  0  0  0  0  0  0  0  0
   37.3360   26.7300   31.3110 C   0  0  0  0  0  0  0  0  0  0  0  0
   36.7370   27.8170   30.6920 C   0  0  0  0  0  0  0  0  0  0  0  0
   36.0620   28.7510   31.3960 N   0  0  0  0  0  0  0  0  0  0  0  0
   35.9390   28.6690   32.7470 C   0  0  0  0  0  0  0  0  0  0  0  0
   35.4110   29.3960   33.3170 H   0  0  0  0  0  0  0  0  0  0  0  0
   36.5110   27.6200   33.3840 N   0  0  0  0  0  0  0  0  0  0  0  0
   37.1820   26.6920   32.6830 C   0  0  0  0  0  0  0  0  0  0  0  0
   36.8270   27.9620   29.2960 N   0  0  0  0  0  0  0  0  0  0  0  0
   37.3600   28.5120   28.5620 H   0  0  0  0  0  0  0  0  0  0  0  0
   36.1170   27.2860   28.8940 H   0  0  0  0  0  0  0  0  0  0  0  0
   38.3880   21.8630   36.0350 O   0  0  0  0  0  0  0  0  0  0  0  0
   38.3590   21.4540   36.9710 H   0  0  0  0  0  0  0  0  0  0  0  0
  1 23  1  0  0  0  0
  1  6  1  0  0  0  0
  2  1  2  0  0  0  0
  3  2  1  0  0  0  0
  3  4  2  0  0  0  0
  4  5  1  0  0  0  0
  5  6  2  0  0  0  0
  5  8  1  0  0  0  0
  7  2  1  0  0  0  0
  9  3  1  0  0  0  0
 10  9  1  0  0  0  0
 11 10  1  0  0  0  0
 12 13  1  0  0  0  0
 12 10  2  0  0  0  0
 13 19  1  0  0  0  0
 14 13  2  0  0  0  0
 14 15  1  0  0  0  0
 15 16  2  0  0  0  0
 16 17  1  0  0  0  0
 16 18  1  0  0  0  0
 19  9  1  0  0  0  0
 19 18  2  0  0  0  0
 20 14  1  0  0  0  0
 21 20  1  0  0  0  0
 22 20  1  0  0  0  0
 23 24  1  0  0  0  0
M  END
>  <minimizedAffinity>
-4.86195898

$$$$

 OpenBabel03272503383D

 24 26  0  0  0  0  0  0  0  0999 V2000
   37.8820   25.7550   31.2090 C   0  0  0  0  0  0  0  0  0  0  0  0
   37.6730   25.4150   32.5520 C   0  0  0  0  0  0  0  0  0  0  0  0
   38.7820   24.9780   33.2810 C   0  0  0  0  0  0  0  0  0  0  0  0
   39.9910   24.9030   32.6680 N   0  0  0  0  0  0  0  0  0  0  0  0
   40.1540   25.2450   31.3500 C   0  0  0  0  0  0  0  0  0  0  0  0
   39.1010   25.6640   30.6430 N   0  0  0  0  0  0  0  0  0  0  0  0
   36.7360   25.4610   33.0730 H   0  0  0  0  0  0  0  0  0  0  0  0
   41.1180   25.1830   30.8680 H   0  0  0  0  0  0  0  0  0  0  0  0
   38.7040   24.6040   34.6520 N   0  0  0  0  0  0  0  0  0  0  0  0
   37.7930   25.1950   35.4530 C   0  0  0  0  0  0  0  0  0  0  0  0
   37.0440   25.9680   35.2310 H   0  0  0  0  0  0  0  0  0  0  0  0
   37.9050   24.6800   36.7090 N   0  0  0  0  0  0  0  0  0  0  0  0
   38.8890   23.7770   36.6520 C   0  0  0  0  0  0  0  0  0  0  0  0
   39.4950   22.9150   37.5530 C   0  0  0  0  0  0  0  0  0  0  0  0
   40.5020   22.0930   37.1820 N   0  0  0  0  0  0  0  0  0  0  0  0
   40.9680   22.0740   35.9060 C   0  0  0  0  0  0  0  0  0  0  0  0
   41.7590   21.4340   35.5970 H   0  0  0  0  0  0  0  0  0  0  0  0
   40.3980   22.9030   34.9990 N   0  0  0  0  0  0  0  0  0  0  0  0
   39.3980   23.7190   35.3700 C   0  0  0  0  0  0  0  0  0  0  0  0
   39.0610   22.8840   38.8900 N   0  0  0  0  0  0  0  0  0  0  0  0
   39.3420   23.2360   39.8510 H   0  0  0  0  0  0  0  0  0  0  0  0
   38.1650   22.3190   38.8850 H   0  0  0  0  0  0  0  0  0  0  0  0
   36.6970   26.1720   30.6060 O   0  0  0  0  0  0  0  0  0  0  0  0
   36.7150   26.2920   29.5900 H   0  0  0  0  0  0  0  0  0  0  0  0
  1  2  1  0  0  0  0
  2  7  1  0  0  0  0
  2  3  2  0  0  0  0
  3  9  1  0  0  0  0
  4  3  1  0  0  0  0
  5  4  2  0  0  0  0
  6  1  2  0  0  0  0
  6  5  1  0  0  0  0
  8  5  1  0  0  0  0
  9 19  1  0  0  0  0
  9 10  1  0  0  0  0
 10 12  2  0  0  0  0
 11 10  1  0  0  0  0
 13 12  1  0  0  0  0
 13 14  1  0  0  0  0
 14 20  1  0  0  0  0
 15 14  2  0  0  0  0
 16 15  1  0  0  0  0
 17 16  1  0  0  0  0
 18 19  1  0  0  0  0
 18 16  2  0  0  0  0
 19 13  2  0  0  0  0
 20 21  1  0  0  0  0
 22 20  1  0  0  0  0
 23  1  1  0  0  0  0
 24 23  1  0  0  0  0
M  END
>  <minimizedAffinity>
-4.83911657

$$$$

 OpenBabel03272503383D

 24 26  0  0  0  0  0  0  0  0999 V2000
   36.6870   28.1650   30.2170 C   0  0  0  0  0  0  0  0  0  0  0  0
   37.1390   26.9630   30.7770 C   0  0  0  0  0  0  0  0  0  0  0  0
   36.9270   26.7740   32.1450 C   0  0  0  0  0  0  0  0  0  0  0  0
   36.3030   27.7460   32.8590 N   0  0  0  0  0  0  0  0  0  0  0  0
   35.8760   28.9100   32.2740 C   0  0  0  0  0  0  0  0  0  0  0  0
   36.0740   29.1010   30.9660 N   0  0  0  0  0  0  0  0  0  0  0  0
   37.6360   26.1720   30.2470 H   0  0  0  0  0  0  0  0  0  0  0  0
   35.3800   29.6790   32.8470 H   0  0  0  0  0  0  0  0  0  0  0  0
   37.3380   25.5980   32.8330 N   0  0  0  0  0  0  0  0  0  0  0  0
   37.3740   24.4200   32.1760 C   0  0  0  0  0  0  0  0  0  0  0  0
   37.1290   24.1780   31.1330 H   0  0  0  0  0  0  0  0  0  0  0  0
   37.7940   23.4470   33.0320 N   0  0  0  0  0  0  0  0  0  0  0  0
   38.0070   24.0530   34.2040 C   0  0  0  0  0  0  0  0  0  0  0  0
   38.4320   23.6530   35.4620 C   0  0  0  0  0  0  0  0  0  0  0  0
   38.5530   24.5300   36.4830 N   0  0  0  0  0  0  0  0  0  0  0  0
   38.2620   25.8480   36.3230 C   0  0  0  0  0  0  0  0  0  0  0  0
   38.3520   26.5520   37.1150 H   0  0  0  0  0  0  0  0  0  0  0  0
   37.8450   26.2730   35.1070 N   0  0  0  0  0  0  0  0  0  0  0  0
   37.7250   25.4000   34.0940 C   0  0  0  0  0  0  0  0  0  0  0  0
   38.7490   22.3030   35.6960 N   0  0  0  0  0  0  0  0  0  0  0  0
   38.3400   21.4300   36.1400 H   0  0  0  0  0  0  0  0  0  0  0  0
   39.7120   22.1600   35.2770 H   0  0  0  0  0  0  0  0  0  0  0  0
   36.9630   28.2200   28.8520 O   0  0  0  0  0  0  0  0  0  0  0  0
   36.8120   29.1180   28.3880 H   0  0  0  0  0  0  0  0  0  0  0  0
  1  2  2  0  0  0  0
  1  6  1  0  0  0  0
  2  3  1  0  0  0  0
  3  9  1  0  0  0  0
  3  4  2  0  0  0  0
  5  8  1  0  0  0  0
  5  4  1  0  0  0  0
  6  5  2  0  0  0  0
  7  2  1  0  0  0  0
  9 19  1  0  0  0  0
 10  9  1  0  0  0  0
 10 12  2  0  0  0  0
 11 10  1  0  0  0  0
 12 13  1  0  0  0  0
 13 14  1  0  0  0  0
 14 20  1  0  0  0  0
 14 15  2  0  0  0  0
 16 15  1  0  0  0  0
 16 17  1  0  0  0  0
 18 16  2  0  0  0  0
 19 13  2  0  0  0  0
 19 18  1  0  0  0  0
 20 21  1  0  0  0  0
 22 20  1  0  0  0  0
 23  1  1  0  0  0  0
 24 23  1  0  0  0  0
M  END
>  <minimizedAffinity>
-4.77240372

$$$$

 OpenBabel03272503383D

 24 26  0  0  0  0  0  0  0  0999 V2000
   35.2500   19.8870   31.9360 C   0  0  0  0  0  0  0  0  0  0  0  0
   35.1290   21.2830   31.8960 C   0  0  0  0  0  0  0  0  0  0  0  0
   36.3090   22.0290   31.9350 C   0  0  0  0  0  0  0  0  0  0  0  0
   37.5010   21.3820   32.0080 N   0  0  0  0  0  0  0  0  0  0  0  0
   37.5780   20.0140   32.0450 C   0  0  0  0  0  0  0  0  0  0  0  0
   36.4550   19.2890   32.0090 N   0  0  0  0  0  0  0  0  0  0  0  0
   34.2080   21.8310   31.8390 H   0  0  0  0  0  0  0  0  0  0  0  0
   38.5290   19.5050   32.1040 H   0  0  0  0  0  0  0  0  0  0  0  0
   36.3230   23.4520   31.9010 N   0  0  0  0  0  0  0  0  0  0  0  0
   35.3470   24.1110   31.2420 C   0  0  0  0  0  0  0  0  0  0  0  0
   34.4800   23.7300   30.6850 H   0  0  0  0  0  0  0  0  0  0  0  0
   35.5680   25.4510   31.3470 N   0  0  0  0  0  0  0  0  0  0  0  0
   36.6820   25.5870   32.0730 C   0  0  0  0  0  0  0  0  0  0  0  0
   37.4380   26.6520   32.5370 C   0  0  0  0  0  0  0  0  0  0  0  0
   38.5540   26.4630   33.2750 N   0  0  0  0  0  0  0  0  0  0  0  0
   38.9880   25.2170   33.5960 C   0  0  0  0  0  0  0  0  0  0  0  0
   39.8640   25.0500   34.1760 H   0  0  0  0  0  0  0  0  0  0  0  0
   38.2740   24.1520   33.1600 N   0  0  0  0  0  0  0  0  0  0  0  0
   37.1650   24.3420   32.4270 C   0  0  0  0  0  0  0  0  0  0  0  0
   37.0450   27.9700   32.2400 N   0  0  0  0  0  0  0  0  0  0  0  0
   37.2880   28.7690   31.5870 H   0  0  0  0  0  0  0  0  0  0  0  0
   36.2500   28.1860   32.9060 H   0  0  0  0  0  0  0  0  0  0  0  0
   34.0010   19.2720   31.8900 O   0  0  0  0  0  0  0  0  0  0  0  0
   33.9770   18.2660   32.0700 H   0  0  0  0  0  0  0  0  0  0  0  0
  1  6  1  0  0  0  0
  2  3  1  0  0  0  0
  2  1  2  0  0  0  0
  3  4  2  0  0  0  0
  4  5  1  0  0  0  0
  5  8  1  0  0  0  0
  6  5  2  0  0  0  0
  7  2  1  0  0  0  0
  9  3  1  0  0  0  0
  9 19  1  0  0  0  0
 10 12  2  0  0  0  0
 10  9  1  0  0  0  0
 11 10  1  0  0  0  0
 12 13  1  0  0  0  0
 13 19  2  0  0  0  0
 13 14  1  0  0  0  0
 14 15  2  0  0  0  0
 15 16  1  0  0  0  0
 16 17  1  0  0  0  0
 18 16  2  0  0  0  0
 19 18  1  0  0  0  0
 20 14  1  0  0  0  0
 20 22  1  0  0  0  0
 21 20  1  0  0  0  0
 23  1  1  0  0  0  0
 23 24  1  0  0  0  0
M  END
>  <minimizedAffinity>
-4.74960375

$$$$

 OpenBabel03272503383D

 24 26  0  0  0  0  0  0  0  0999 V2000
   36.8790   28.2760   31.9330 C   0  0  0  0  0  0  0  0  0  0  0  0
   37.0190   27.6790   33.1940 C   0  0  0  0  0  0  0  0  0  0  0  0
   37.7310   26.4790   33.2580 C   0  0  0  0  0  0  0  0  0  0  0  0
   38.2460   25.9520   32.1180 N   0  0  0  0  0  0  0  0  0  0  0  0
   38.0870   26.5660   30.9030 C   0  0  0  0  0  0  0  0  0  0  0  0
   37.4080   27.7140   30.8290 N   0  0  0  0  0  0  0  0  0  0  0  0
   36.6280   28.0630   34.1170 H   0  0  0  0  0  0  0  0  0  0  0  0
   38.4990   26.1420   29.9990 H   0  0  0  0  0  0  0  0  0  0  0  0
   37.9440   25.7740   34.4760 N   0  0  0  0  0  0  0  0  0  0  0  0
   38.0330   26.4590   35.6350 C   0  0  0  0  0  0  0  0  0  0  0  0
   37.9670   27.5380   35.8320 H   0  0  0  0  0  0  0  0  0  0  0  0
   38.2360   25.5800   36.6560 N   0  0  0  0  0  0  0  0  0  0  0  0
   38.2680   24.3660   36.0980 C   0  0  0  0  0  0  0  0  0  0  0  0
   38.4350   23.0690   36.5580 C   0  0  0  0  0  0  0  0  0  0  0  0
   38.4180   22.0100   35.7190 N   0  0  0  0  0  0  0  0  0  0  0  0
   38.2360   22.1680   34.3820 C   0  0  0  0  0  0  0  0  0  0  0  0
   38.2190   21.3460   33.7070 H   0  0  0  0  0  0  0  0  0  0  0  0
   38.0690   23.4220   33.8980 N   0  0  0  0  0  0  0  0  0  0  0  0
   38.0860   24.4730   34.7330 C   0  0  0  0  0  0  0  0  0  0  0  0
   38.6280   22.8350   37.9310 N   0  0  0  0  0  0  0  0  0  0  0  0
   39.4010   22.6150   38.6240 H   0  0  0  0  0  0  0  0  0  0  0  0
   37.6680   22.9140   38.3710 H   0  0  0  0  0  0  0  0  0  0  0  0
   36.1510   29.4610   32.0160 O   0  0  0  0  0  0  0  0  0  0  0  0
   35.8630   29.8860   31.1320 H   0  0  0  0  0  0  0  0  0  0  0  0
  1 23  1  0  0  0  0
  1  2  1  0  0  0  0
  2  3  2  0  0  0  0
  2  7  1  0  0  0  0
  3  9  1  0  0  0  0
  4  3  1  0  0  0  0
  5  4  2  0  0  0  0
  6  5  1  0  0  0  0
  6  1  2  0  0  0  0
  8  5  1  0  0  0  0
  9 19  1  0  0  0  0
  9 10  1  0  0  0  0
 10 11  1  0  0  0  0
 10 12  2  0  0  0  0
 13 14  1  0  0  0  0
 13 12  1  0  0  0  0
 14 20  1  0  0  0  0
 15 14  2  0  0  0  0
 16 15  1  0  0  0  0
 17 16  1  0  0  0  0
 18 16  2  0  0  0  0
 18 19  1  0  0  0  0
 19 13  2  0  0  0  0
 20 22  1  0  0  0  0
 20 21  1  0  0  0  0
 24 23  1  0  0  0  0
M  END
>  <minimizedAffinity>
-4.73749065

$$$$
