
 OpenBabel03272501213D

 45 49  0  0  0  0  0  0  0  0999 V2000
   37.2340   32.5440   43.2370 Cl  0  0  0  0  0  0  0  0  0  0  0  0
   38.7150   31.7330   43.6430 C   0  0  0  0  0  0  0  0  0  0  0  0
   39.2130   31.9870   44.9270 C   0  0  0  0  0  0  0  0  0  0  0  0
   40.3990   31.3500   45.2750 C   0  0  0  0  0  0  0  0  0  0  0  0
   41.0780   30.5080   44.4350 C   0  0  0  0  0  0  0  0  0  0  0  0
   40.5750   30.2660   43.1690 C   0  0  0  0  0  0  0  0  0  0  0  0
   39.4000   30.8900   42.8060 C   0  0  0  0  0  0  0  0  0  0  0  0
   40.8650   31.4820   46.2460 H   0  0  0  0  0  0  0  0  0  0  0  0
   42.0040   30.0130   44.7140 H   0  0  0  0  0  0  0  0  0  0  0  0
   41.0560   29.6220   42.4700 H   0  0  0  0  0  0  0  0  0  0  0  0
   38.8640   30.6530   41.5030 N   0  0  0  0  0  0  0  0  0  0  0  0
   37.5850   30.3630   41.1520 C   0  0  0  0  0  0  0  0  0  0  0  0
   36.7630   30.2660   41.8200 H   0  0  0  0  0  0  0  0  0  0  0  0
   37.5550   30.2210   39.7950 N   0  0  0  0  0  0  0  0  0  0  0  0
   38.8010   30.4240   39.3420 C   0  0  0  0  0  0  0  0  0  0  0  0
   39.3860   30.4140   38.0880 C   0  0  0  0  0  0  0  0  0  0  0  0
   40.7140   30.6610   37.9090 N   0  0  0  0  0  0  0  0  0  0  0  0
   41.5100   30.9270   38.9790 C   0  0  0  0  0  0  0  0  0  0  0  0
   42.5690   31.1310   38.9200 H   0  0  0  0  0  0  0  0  0  0  0  0
   40.9600   30.9400   40.2080 N   0  0  0  0  0  0  0  0  0  0  0  0
   39.6550   30.6980   40.3910 C   0  0  0  0  0  0  0  0  0  0  0  0
   38.5970   30.1420   36.9350 N   0  0  0  0  0  0  0  0  0  0  0  0
   38.3760   29.4310   36.2270 H   0  0  0  0  0  0  0  0  0  0  0  0
   37.9610   30.9280   36.6190 H   0  0  0  0  0  0  0  0  0  0  0  0
   38.6640   32.7990   45.8940 O   0  0  0  0  0  0  0  0  0  0  0  0
   37.3040   31.4700   47.3840 C   0  0  0  0  0  0  0  0  0  0  0  0
   36.8770   31.0190   48.6270 C   0  0  0  0  0  0  0  0  0  0  0  0
   37.5390   31.5830   49.7080 C   0  0  0  0  0  0  0  0  0  0  0  0
   38.5510   32.5300   49.5280 C   0  0  0  0  0  0  0  0  0  0  0  0
   38.9210   32.9290   48.2600 C   0  0  0  0  0  0  0  0  0  0  0  0
   38.2860   32.3900   47.1710 C   0  0  0  0  0  0  0  0  0  0  0  0
   37.2080   31.2320   50.6870 H   0  0  0  0  0  0  0  0  0  0  0  0
   39.0030   32.9070   50.4360 H   0  0  0  0  0  0  0  0  0  0  0  0
   39.7070   33.6600   48.2050 H   0  0  0  0  0  0  0  0  0  0  0  0
   34.6380   30.1580   48.0940 C   0  0  0  0  0  0  0  0  0  0  0  0
   35.8400   30.0490   48.7930 C   0  0  0  0  0  0  0  0  0  0  0  0
   35.9810   28.9530   49.6580 C   0  0  0  0  0  0  0  0  0  0  0  0
   34.9380   28.0660   49.7620 N   0  0  0  0  0  0  0  0  0  0  0  0
   33.8070   28.2300   49.0600 C   0  0  0  0  0  0  0  0  0  0  0  0
   33.6430   29.2690   48.2240 N   0  0  0  0  0  0  0  0  0  0  0  0
   34.5190   31.0070   47.4190 H   0  0  0  0  0  0  0  0  0  0  0  0
   36.9150   28.8710   50.1990 H   0  0  0  0  0  0  0  0  0  0  0  0
   33.0020   27.5140   49.1620 H   0  0  0  0  0  0  0  0  0  0  0  0
   36.6950   30.9590   46.2210 O   0  0  0  0  0  0  0  0  0  0  0  0
   36.1720   30.0920   46.2270 H   0  0  0  0  0  0  0  0  0  0  0  0
  1  2  1  0  0  0  0
  2  3  1  0  0  0  0
  3  4  2  0  0  0  0
  3 25  1  0  0  0  0
  4  8  1  0  0  0  0
  5  9  1  0  0  0  0
  5  4  1  0  0  0  0
  6  5  2  0  0  0  0
  7  6  1  0  0  0  0
  7  2  2  0  0  0  0
 10  6  1  0  0  0  0
 11  7  1  0  0  0  0
 12 11  1  0  0  0  0
 12 13  1  0  0  0  0
 14 12  2  0  0  0  0
 15 14  1  0  0  0  0
 15 21  1  0  0  0  0
 16 15  2  0  0  0  0
 17 16  1  0  0  0  0
 17 18  2  0  0  0  0
 18 20  1  0  0  0  0
 19 18  1  0  0  0  0
 20 21  2  0  0  0  0
 21 11  1  0  0  0  0
 22 16  1  0  0  0  0
 23 22  1  0  0  0  0
 24 22  1  0  0  0  0
 25 31  1  0  0  0  0
 26 27  1  0  0  0  0
 27 36  1  0  0  0  0
 27 28  2  0  0  0  0
 28 32  1  0  0  0  0
 29 28  1  0  0  0  0
 29 33  1  0  0  0  0
 30 29  2  0  0  0  0
 31 26  2  0  0  0  0
 31 30  1  0  0  0  0
 34 30  1  0  0  0  0
 35 40  2  0  0  0  0
 35 36  1  0  0  0  0
 36 37  2  0  0  0  0
 37 38  1  0  0  0  0
 37 42  1  0  0  0  0
 39 43  1  0  0  0  0
 39 38  2  0  0  0  0
 40 39  1  0  0  0  0
 41 35  1  0  0  0  0
 44 45  1  0  0  0  0
 44 26  1  0  0  0  0
M  END
>  <minimizedAffinity>
-6.31159973

>  <minimizedRMSD>
2.1532166

$$$$
