
 OpenBabel03272502003D

 47 52  0  0  0  0  0  0  0  0999 V2000
   34.0400   29.0880   49.5660 C   0  0  0  0  0  0  0  0  0  0  0  0
   33.3960   30.0040   49.4640 H   0  0  0  0  0  0  0  0  0  0  0  0
   33.4910   28.4310   50.2560 H   0  0  0  0  0  0  0  0  0  0  0  0
   36.9510   29.6150   51.7860 C   0  0  0  0  0  0  0  0  0  0  0  0
   37.7340   30.5320   51.0400 C   0  0  0  0  0  0  0  0  0  0  0  0
   37.2380   30.9520   49.7790 C   0  0  0  0  0  0  0  0  0  0  0  0
   36.0550   30.4510   49.3750 N   0  0  0  0  0  0  0  0  0  0  0  0
   35.3380   29.5750   50.1190 C   0  0  0  0  0  0  0  0  0  0  0  0
   35.7860   29.1750   51.2920 N   0  0  0  0  0  0  0  0  0  0  0  0
   37.3370   29.2920   52.7580 H   0  0  0  0  0  0  0  0  0  0  0  0
   38.6780   30.9170   51.3910 H   0  0  0  0  0  0  0  0  0  0  0  0
   37.9870   31.8730   48.9930 N   0  0  0  0  0  0  0  0  0  0  0  0
   38.5210   33.0750   49.3280 C   0  0  0  0  0  0  0  0  0  0  0  0
   38.4350   33.5180   50.3120 H   0  0  0  0  0  0  0  0  0  0  0  0
   39.1510   33.5820   48.2290 N   0  0  0  0  0  0  0  0  0  0  0  0
   39.0000   32.6890   47.2270 C   0  0  0  0  0  0  0  0  0  0  0  0
   39.4100   32.6470   45.9090 C   0  0  0  0  0  0  0  0  0  0  0  0
   39.1050   31.5890   45.1110 N   0  0  0  0  0  0  0  0  0  0  0  0
   38.3920   30.5440   45.5810 C   0  0  0  0  0  0  0  0  0  0  0  0
   38.1140   29.6720   45.0030 H   0  0  0  0  0  0  0  0  0  0  0  0
   38.0020   30.6020   46.8670 N   0  0  0  0  0  0  0  0  0  0  0  0
   38.2770   31.6230   47.6990 C   0  0  0  0  0  0  0  0  0  0  0  0
   40.1640   33.7230   45.3600 N   0  0  0  0  0  0  0  0  0  0  0  0
   39.4760   34.4410   45.0310 H   0  0  0  0  0  0  0  0  0  0  0  0
   41.0940   34.1120   45.1430 H   0  0  0  0  0  0  0  0  0  0  0  0
   34.2700   28.4360   48.2120 C   0  0  0  0  0  0  0  0  0  0  0  0
   34.1130   27.3470   48.2980 H   0  0  0  0  0  0  0  0  0  0  0  0
   35.2300   28.7400   47.7910 H   0  0  0  0  0  0  0  0  0  0  0  0
   33.1750   28.9590   47.3200 C   0  0  0  0  0  0  0  0  0  0  0  0
   31.9660   28.3400   47.0480 C   0  0  0  0  0  0  0  0  0  0  0  0
   31.2420   29.1450   46.1850 C   0  0  0  0  0  0  0  0  0  0  0  0
   32.0270   30.2220   45.9590 N   0  0  0  0  0  0  0  0  0  0  0  0
   33.1520   30.0980   46.6290 N   0  0  0  0  0  0  0  0  0  0  0  0
   30.3330   31.3640   44.5040 N   0  0  0  0  0  0  0  0  0  0  0  0
   31.5400   31.2440   45.0910 C   0  0  0  0  0  0  0  0  0  0  0  0
   32.2780   32.3240   44.7040 N   0  0  0  0  0  0  0  0  0  0  0  0
   31.5470   33.0980   43.8950 C   0  0  0  0  0  0  0  0  0  0  0  0
   31.8540   34.2770   43.2630 C   0  0  0  0  0  0  0  0  0  0  0  0
   30.9230   34.8670   42.4860 N   0  0  0  0  0  0  0  0  0  0  0  0
   29.7050   34.2790   42.3520 C   0  0  0  0  0  0  0  0  0  0  0  0
   29.3960   33.1150   42.9740 N   0  0  0  0  0  0  0  0  0  0  0  0
   30.3040   32.5040   43.7530 C   0  0  0  0  0  0  0  0  0  0  0  0
   31.7010   27.3880   47.4760 H   0  0  0  0  0  0  0  0  0  0  0  0
   30.2590   28.8340   45.8500 H   0  0  0  0  0  0  0  0  0  0  0  0
   29.5450   30.6940   44.6040 H   0  0  0  0  0  0  0  0  0  0  0  0
   32.8320   34.7170   43.3900 H   0  0  0  0  0  0  0  0  0  0  0  0
   28.9300   34.7180   41.7410 H   0  0  0  0  0  0  0  0  0  0  0  0
  1  8  1  0  0  0  0
  1  3  1  0  0  0  0
  2  1  1  0  0  0  0
  4 10  1  0  0  0  0
  5 11  1  0  0  0  0
  5  4  2  0  0  0  0
  6  5  1  0  0  0  0
  7  6  2  0  0  0  0
  7  8  1  0  0  0  0
  8  9  2  0  0  0  0
  9  4  1  0  0  0  0
 12 13  1  0  0  0  0
 12  6  1  0  0  0  0
 13 14  1  0  0  0  0
 15 13  2  0  0  0  0
 16 22  1  0  0  0  0
 16 15  1  0  0  0  0
 17 16  2  0  0  0  0
 18 19  2  0  0  0  0
 18 17  1  0  0  0  0
 19 21  1  0  0  0  0
 20 19  1  0  0  0  0
 21 22  2  0  0  0  0
 22 12  1  0  0  0  0
 23 17  1  0  0  0  0
 24 23  1  0  0  0  0
 25 23  1  0  0  0  0
 26 27  1  0  0  0  0
 26  1  1  0  0  0  0
 28 26  1  0  0  0  0
 29 26  1  0  0  0  0
 30 29  1  0  0  0  0
 30 43  1  0  0  0  0
 31 30  2  0  0  0  0
 32 31  1  0  0  0  0
 32 33  1  0  0  0  0
 33 29  2  0  0  0  0
 34 45  1  0  0  0  0
 34 35  1  0  0  0  0
 35 32  1  0  0  0  0
 36 35  2  0  0  0  0
 37 36  1  0  0  0  0
 38 46  1  0  0  0  0
 38 37  2  0  0  0  0
 39 38  1  0  0  0  0
 40 39  2  0  0  0  0
 40 41  1  0  0  0  0
 41 42  2  0  0  0  0
 42 37  1  0  0  0  0
 42 34  1  0  0  0  0
 44 31  1  0  0  0  0
 47 40  1  0  0  0  0
M  END
>  <minimizedAffinity>
-7.8515563

>  <minimizedRMSD>
2.5583508

$$$$
