
 OpenBabel03272505163D

 47 51  0  0  1  0  0  0  0  0999 V2000
   38.6620   31.3410   44.5680 N   0  0  0  0  0  0  0  0  0  0  0  0
   38.6700   31.3990   46.0040 C   0  0  0  0  0  0  0  0  0  0  0  0
   39.8320   32.3000   46.3980 C   0  0  0  0  0  0  0  0  0  0  0  0
   39.6710   33.5200   45.6820 N   0  0  0  0  0  0  0  0  0  0  0  0
   39.8930   33.3710   44.2840 C   0  0  0  0  0  0  0  0  0  0  0  0
   39.8270   31.9080   43.8890 C   0  0  2  0  0  0  0  0  0  0  0  0
   37.7420   31.9010   46.3390 H   0  0  0  0  0  0  0  0  0  0  0  0
   38.7790   30.3860   46.4250 H   0  0  0  0  0  0  0  0  0  0  0  0
   40.8070   31.8240   46.3390 H   0  0  0  0  0  0  0  0  0  0  0  0
   39.6670   32.5260   47.4910 H   0  0  0  0  0  0  0  0  0  0  0  0
   40.2340   34.3070   46.0870 H   0  0  0  0  0  0  0  0  0  0  0  0
   40.8310   33.8210   43.8980 H   0  0  0  0  0  0  0  0  0  0  0  0
   39.0710   33.8730   43.6930 H   0  0  0  0  0  0  0  0  0  0  0  0
   40.7030   31.3750   44.3470 H   0  0  0  0  0  0  0  0  0  0  0  0
   39.7810   31.7370   42.4600 N   0  0  0  0  0  0  0  0  0  0  0  0
   40.4150   30.7520   41.8030 C   0  0  0  0  0  0  0  0  0  0  0  0
   41.0460   29.9370   42.1320 H   0  0  0  0  0  0  0  0  0  0  0  0
   40.1800   30.8610   40.4810 N   0  0  0  0  0  0  0  0  0  0  0  0
   39.3950   31.9110   40.2690 C   0  0  0  0  0  0  0  0  0  0  0  0
   38.8100   32.5410   39.1890 C   0  0  0  0  0  0  0  0  0  0  0  0
   38.0380   33.6340   39.3490 N   0  0  0  0  0  0  0  0  0  0  0  0
   37.8000   34.1620   40.5750 C   0  0  0  0  0  0  0  0  0  0  0  0
   37.1740   35.0400   40.6660 H   0  0  0  0  0  0  0  0  0  0  0  0
   38.3640   33.5560   41.6370 N   0  0  0  0  0  0  0  0  0  0  0  0
   39.1380   32.4680   41.5060 C   0  0  0  0  0  0  0  0  0  0  0  0
   39.0470   32.0010   37.8930 N   0  0  0  0  0  0  0  0  0  0  0  0
   39.7340   31.9630   37.1220 H   0  0  0  0  0  0  0  0  0  0  0  0
   38.6390   31.4060   37.1480 H   0  0  0  0  0  0  0  0  0  0  0  0
   39.0740   28.5040   43.8430 Cl  0  0  0  0  0  0  0  0  0  0  0  0
   37.7030   29.4500   43.3340 C   0  0  0  0  0  0  0  0  0  0  0  0
   36.7470   28.8820   42.5650 C   0  0  0  0  0  0  0  0  0  0  0  0
   35.6740   29.7030   42.2220 C   0  0  0  0  0  0  0  0  0  0  0  0
   35.5330   30.9990   42.6020 C   0  0  0  0  0  0  0  0  0  0  0  0
   36.5280   31.5430   43.3840 C   0  0  0  0  0  0  0  0  0  0  0  0
   37.6200   30.7800   43.7590 C   0  0  0  0  0  0  0  0  0  0  0  0
   34.8870   29.2620   41.5990 H   0  0  0  0  0  0  0  0  0  0  0  0
   34.6630   31.5590   42.2870 H   0  0  0  0  0  0  0  0  0  0  0  0
   36.4660   32.5570   43.7100 H   0  0  0  0  0  0  0  0  0  0  0  0
   37.6060   25.8300   40.5400 C   0  0  0  0  0  0  0  0  0  0  0  0
   37.4850   27.1720   40.9270 C   0  0  0  0  0  0  0  0  0  0  0  0
   36.8720   27.5060   42.1420 C   0  0  0  0  0  0  0  0  0  0  0  0
   36.4060   26.4790   42.9140 N   0  0  0  0  0  0  0  0  0  0  0  0
   36.5300   25.1910   42.5280 C   0  0  0  0  0  0  0  0  0  0  0  0
   37.1250   24.8590   41.3500 N   0  0  0  0  0  0  0  0  0  0  0  0
   38.0560   25.4730   39.6400 H   0  0  0  0  0  0  0  0  0  0  0  0
   37.8850   27.8040   40.1600 H   0  0  0  0  0  0  0  0  0  0  0  0
   36.1050   24.5240   43.2630 H   0  0  0  0  0  0  0  0  0  0  0  0
  1  2  1  0  0  0  0
  2  7  1  0  0  0  0
  2  3  1  0  0  0  0
  2  8  1  0  0  0  0
  3 10  1  0  0  0  0
  4 11  1  0  0  0  0
  4  3  1  0  0  0  0
  5  4  1  0  0  0  0
  6  5  1  0  0  0  0
  6 14  1  1  0  0  0
  6  1  1  0  0  0  0
  9  3  1  0  0  0  0
 12  5  1  0  0  0  0
 13  5  1  0  0  0  0
 15  6  1  0  0  0  0
 16 17  1  0  0  0  0
 16 15  1  0  0  0  0
 18 16  2  0  0  0  0
 19 18  1  0  0  0  0
 19 25  1  0  0  0  0
 20 21  1  0  0  0  0
 20 19  2  0  0  0  0
 21 22  2  0  0  0  0
 22 23  1  0  0  0  0
 22 24  1  0  0  0  0
 25 24  2  0  0  0  0
 25 15  1  0  0  0  0
 26 20  1  0  0  0  0
 27 26  1  0  0  0  0
 28 26  1  0  0  0  0
 30 35  1  0  0  0  0
 30 29  1  0  0  0  0
 31 30  2  0  0  0  0
 32 31  1  0  0  0  0
 32 33  2  0  0  0  0
 33 34  1  0  0  0  0
 34 38  1  0  0  0  0
 34 35  2  0  0  0  0
 35  1  1  0  0  0  0
 36 32  1  0  0  0  0
 37 33  1  0  0  0  0
 39 40  2  0  0  0  0
 39 44  1  0  0  0  0
 40 41  1  0  0  0  0
 41 31  1  0  0  0  0
 41 42  2  0  0  0  0
 43 42  1  0  0  0  0
 43 47  1  0  0  0  0
 44 43  2  0  0  0  0
 45 39  1  0  0  0  0
 46 40  1  0  0  0  0
M  END
>  <minimizedAffinity>
-4.48634052

>  <minimizedRMSD>
6.06665039

$$$$
