
 OpenBabel03272506013D

 51 55  0  0  1  0  0  0  0  0999 V2000
   35.2950   30.0300   49.4150 C   0  0  2  0  0  0  0  0  0  0  0  0
   36.2040   31.1100   49.0660 C   0  0  0  0  0  0  0  0  0  0  0  0
   37.7090   30.7060   49.2140 C   0  0  2  0  0  0  0  0  0  0  0  0
   38.0550   30.2820   50.5510 C   0  0  0  0  0  0  0  0  0  0  0  0
   36.9710   29.4380   51.2290 C   0  0  0  0  0  0  0  0  0  0  0  0
   35.9850   28.9230   50.2250 C   0  0  0  0  0  0  0  0  0  0  0  0
   34.4910   30.3890   50.1240 H   0  0  0  0  0  0  0  0  0  0  0  0
   36.1750   31.6390   48.1410 H   0  0  0  0  0  0  0  0  0  0  0  0
   36.1340   31.9210   49.8700 H   0  0  0  0  0  0  0  0  0  0  0  0
   37.9260   29.9740   48.4380 H   0  0  0  0  0  0  0  0  0  0  0  0
   39.0080   29.6980   50.5060 H   0  0  0  0  0  0  0  0  0  0  0  0
   38.2680   31.0870   51.2860 H   0  0  0  0  0  0  0  0  0  0  0  0
   36.4450   29.9880   52.0290 H   0  0  0  0  0  0  0  0  0  0  0  0
   37.4570   28.5570   51.6710 H   0  0  0  0  0  0  0  0  0  0  0  0
   35.2490   28.3220   50.7650 H   0  0  0  0  0  0  0  0  0  0  0  0
   36.5230   28.2480   49.5280 H   0  0  0  0  0  0  0  0  0  0  0  0
   34.6140   29.3680   48.3050 C   0  0  0  0  0  0  0  0  0  0  0  0
   34.5690   30.1140   47.1340 C   0  0  0  0  0  0  0  0  0  0  0  0
   33.9670   29.5580   46.0090 C   0  0  0  0  0  0  0  0  0  0  0  0
   33.4400   28.2850   46.1090 N   0  0  0  0  0  0  0  0  0  0  0  0
   33.4950   27.5770   47.2630 C   0  0  0  0  0  0  0  0  0  0  0  0
   34.0850   28.1570   48.3160 N   0  0  0  0  0  0  0  0  0  0  0  0
   34.8830   31.0900   46.7890 H   0  0  0  0  0  0  0  0  0  0  0  0
   33.8160   29.9350   45.0100 H   0  0  0  0  0  0  0  0  0  0  0  0
   32.9360   26.2640   47.3180 N   0  0  0  0  0  0  0  0  0  0  0  0
   31.8080   25.7540   47.8480 C   0  0  0  0  0  0  0  0  0  0  0  0
   31.1030   26.3880   48.3660 H   0  0  0  0  0  0  0  0  0  0  0  0
   31.7650   24.4260   47.6120 N   0  0  0  0  0  0  0  0  0  0  0  0
   32.8800   24.0810   46.9220 C   0  0  0  0  0  0  0  0  0  0  0  0
   33.3250   22.8580   46.4350 C   0  0  0  0  0  0  0  0  0  0  0  0
   34.4990   22.8720   45.7830 N   0  0  0  0  0  0  0  0  0  0  0  0
   35.2370   23.9550   45.5820 C   0  0  0  0  0  0  0  0  0  0  0  0
   36.1940   23.9410   45.0450 H   0  0  0  0  0  0  0  0  0  0  0  0
   34.7950   25.1260   46.0570 N   0  0  0  0  0  0  0  0  0  0  0  0
   33.6210   25.2430   46.7350 C   0  0  0  0  0  0  0  0  0  0  0  0
   32.5890   21.6540   46.6100 N   0  0  0  0  0  0  0  0  0  0  0  0
   33.0800   20.7380   46.5780 H   0  0  0  0  0  0  0  0  0  0  0  0
   31.5560   21.6720   46.7730 H   0  0  0  0  0  0  0  0  0  0  0  0
   38.5530   30.9130   46.4030 Cl  0  0  0  0  0  0  0  0  0  0  0  0
   38.9030   32.1610   47.5770 C   0  0  0  0  0  0  0  0  0  0  0  0
   38.4220   31.9760   48.8500 C   0  0  0  0  0  0  0  0  0  0  0  0
   38.7100   33.0280   49.7090 C   0  0  0  0  0  0  0  0  0  0  0  0
   39.4160   34.1470   49.3090 C   0  0  0  0  0  0  0  0  0  0  0  0
   39.8710   34.2550   47.9970 C   0  0  0  0  0  0  0  0  0  0  0  0
   39.6050   33.2340   47.1130 C   0  0  0  0  0  0  0  0  0  0  0  0
   38.3370   32.9100   50.7380 H   0  0  0  0  0  0  0  0  0  0  0  0
   39.5840   34.9060   50.0670 H   0  0  0  0  0  0  0  0  0  0  0  0
   40.4210   35.1420   47.7130 H   0  0  0  0  0  0  0  0  0  0  0  0
   40.0670   33.3380   45.7730 N   0  0  0  0  0  0  0  0  0  0  0  0
   40.9440   32.8790   45.4310 H   0  0  0  0  0  0  0  0  0  0  0  0
   39.5340   33.8890   45.0670 H   0  0  0  0  0  0  0  0  0  0  0  0
  1  7  1  1  0  0  0
  1  6  1  0  0  0  0
  2  3  1  0  0  0  0
  2  1  1  0  0  0  0
  2  9  1  0  0  0  0
  3 10  1  6  0  0  0
  3  4  1  0  0  0  0
  4  5  1  0  0  0  0
  4 12  1  0  0  0  0
  5 14  1  0  0  0  0
  5 13  1  0  0  0  0
  6 15  1  0  0  0  0
  6  5  1  0  0  0  0
  8  2  1  0  0  0  0
 11  4  1  0  0  0  0
 16  6  1  0  0  0  0
 17 22  1  0  0  0  0
 17  1  1  0  0  0  0
 18 17  2  0  0  0  0
 19 20  2  0  0  0  0
 19 18  1  0  0  0  0
 20 21  1  0  0  0  0
 21 25  1  0  0  0  0
 21 22  2  0  0  0  0
 23 18  1  0  0  0  0
 24 19  1  0  0  0  0
 25 26  1  0  0  0  0
 26 27  1  0  0  0  0
 28 26  2  0  0  0  0
 29 28  1  0  0  0  0
 30 36  1  0  0  0  0
 30 29  2  0  0  0  0
 31 30  1  0  0  0  0
 32 31  2  0  0  0  0
 32 34  1  0  0  0  0
 33 32  1  0  0  0  0
 34 35  2  0  0  0  0
 35 29  1  0  0  0  0
 35 25  1  0  0  0  0
 36 38  1  0  0  0  0
 37 36  1  0  0  0  0
 39 40  1  0  0  0  0
 40 41  1  0  0  0  0
 41  3  1  0  0  0  0
 41 42  2  0  0  0  0
 42 46  1  0  0  0  0
 43 42  1  0  0  0  0
 43 47  1  0  0  0  0
 44 43  2  0  0  0  0
 45 40  2  0  0  0  0
 45 44  1  0  0  0  0
 48 44  1  0  0  0  0
 49 45  1  0  0  0  0
 50 49  1  0  0  0  0
 51 49  1  0  0  0  0
M  END
>  <minimizedAffinity>
-7.9798398

>  <minimizedRMSD>
1.30973423

$$$$
