
 OpenBabel03272510043D

 42 45  0  0  0  0  0  0  0  0999 V2000
   36.1510   29.1620   43.2540 C   0  0  0  0  0  0  0  0  0  0  0  0
   34.9580   28.7280   43.7500 C   0  0  0  0  0  0  0  0  0  0  0  0
   34.1920   27.8370   43.0080 C   0  0  0  0  0  0  0  0  0  0  0  0
   34.5790   27.3650   41.7710 C   0  0  0  0  0  0  0  0  0  0  0  0
   35.7730   27.7890   41.2450 C   0  0  0  0  0  0  0  0  0  0  0  0
   36.5130   28.6680   42.0010 C   0  0  0  0  0  0  0  0  0  0  0  0
   33.2360   27.5010   43.4330 H   0  0  0  0  0  0  0  0  0  0  0  0
   33.9190   26.6850   41.2850 H   0  0  0  0  0  0  0  0  0  0  0  0
   36.0270   27.3990   40.2900 H   0  0  0  0  0  0  0  0  0  0  0  0
   37.4370   28.9310   41.4700 H   0  0  0  0  0  0  0  0  0  0  0  0
   33.1580   30.7840   46.2080 C   0  0  0  0  0  0  0  0  0  0  0  0
   33.6580   30.2940   45.0070 C   0  0  0  0  0  0  0  0  0  0  0  0
   34.4540   29.1930   44.9960 C   0  0  0  0  0  0  0  0  0  0  0  0
   34.7240   28.6050   46.1970 N   0  0  0  0  0  0  0  0  0  0  0  0
   34.2400   29.0720   47.3540 C   0  0  0  0  0  0  0  0  0  0  0  0
   33.4640   30.1610   47.3480 N   0  0  0  0  0  0  0  0  0  0  0  0
   32.5230   31.6390   46.3920 H   0  0  0  0  0  0  0  0  0  0  0  0
   33.2410   30.9390   44.2720 H   0  0  0  0  0  0  0  0  0  0  0  0
   34.5550   28.2890   48.5780 C   0  0  0  0  0  0  0  0  0  0  0  0
   35.8530   28.5080   49.0090 F   0  0  0  0  0  0  0  0  0  0  0  0
   33.7650   28.8120   49.6720 F   0  0  0  0  0  0  0  0  0  0  0  0
   34.2570   27.0100   48.5660 F   0  0  0  0  0  0  0  0  0  0  0  0
   37.2050   30.2350   44.1030 S   0  0  0  0  0  0  0  0  0  0  0  0
   36.6400   31.6020   44.1370 O   0  0  0  0  0  0  0  0  0  0  0  0
   38.1810   30.4910   42.9720 O   0  0  0  0  0  0  0  0  0  0  0  0
   38.5430   29.8560   45.0530 C   0  0  0  0  0  0  0  0  0  0  0  0
   38.1490   29.1420   45.8570 H   0  0  0  0  0  0  0  0  0  0  0  0
   39.4750   29.4140   44.7840 H   0  0  0  0  0  0  0  0  0  0  0  0
   38.8830   31.0280   45.8570 N   0  0  0  0  0  0  0  0  0  0  0  0
   39.8300   31.9280   45.4920 C   0  0  0  0  0  0  0  0  0  0  0  0
   40.4290   31.8750   44.5780 H   0  0  0  0  0  0  0  0  0  0  0  0
   39.9240   32.8980   46.4280 N   0  0  0  0  0  0  0  0  0  0  0  0
   39.0460   32.6380   47.3970 C   0  0  0  0  0  0  0  0  0  0  0  0
   38.6500   33.2090   48.5920 C   0  0  0  0  0  0  0  0  0  0  0  0
   37.6880   32.6290   49.3300 N   0  0  0  0  0  0  0  0  0  0  0  0
   37.0560   31.4840   48.9730 C   0  0  0  0  0  0  0  0  0  0  0  0
   36.2880   31.0050   49.5450 H   0  0  0  0  0  0  0  0  0  0  0  0
   37.4410   30.9280   47.8080 N   0  0  0  0  0  0  0  0  0  0  0  0
   38.4030   31.4770   47.0390 C   0  0  0  0  0  0  0  0  0  0  0  0
   39.2950   34.4170   48.9990 N   0  0  0  0  0  0  0  0  0  0  0  0
   40.3440   34.5750   49.0640 H   0  0  0  0  0  0  0  0  0  0  0  0
   38.6820   35.2260   49.2590 H   0  0  0  0  0  0  0  0  0  0  0  0
  1  2  1  0  0  0  0
  1 23  1  0  0  0  0
  2 13  1  0  0  0  0
  3  7  1  0  0  0  0
  3  2  2  0  0  0  0
  4  3  1  0  0  0  0
  5  4  2  0  0  0  0
  5  6  1  0  0  0  0
  6  1  2  0  0  0  0
  8  4  1  0  0  0  0
  9  5  1  0  0  0  0
 10  6  1  0  0  0  0
 11 17  1  0  0  0  0
 11 16  1  0  0  0  0
 12 11  2  0  0  0  0
 13 12  1  0  0  0  0
 13 14  2  0  0  0  0
 14 15  1  0  0  0  0
 15 19  1  0  0  0  0
 16 15  2  0  0  0  0
 18 12  1  0  0  0  0
 19 20  1  0  0  0  0
 19 21  1  0  0  0  0
 22 19  1  0  0  0  0
 23 24  2  0  0  0  0
 23 26  1  0  0  0  0
 25 23  2  0  0  0  0
 26 29  1  0  0  0  0
 26 27  1  0  0  0  0
 28 26  1  0  0  0  0
 29 39  1  0  0  0  0
 30 29  1  0  0  0  0
 30 32  2  0  0  0  0
 31 30  1  0  0  0  0
 32 33  1  0  0  0  0
 33 34  1  0  0  0  0
 34 40  1  0  0  0  0
 34 35  2  0  0  0  0
 36 35  1  0  0  0  0
 36 37  1  0  0  0  0
 38 36  2  0  0  0  0
 39 33  2  0  0  0  0
 39 38  1  0  0  0  0
 40 41  1  0  0  0  0
 40 42  1  0  0  0  0
M  END
>  <minimizedAffinity>
-5.42542744

>  <minimizedRMSD>
4.55351877

$$$$
