
 OpenBabel03272506013D

 51 55  0  0  1  0  0  0  0  0999 V2000
   35.3860   30.4100   49.8810 C   0  0  2  0  0  0  0  0  0  0  0  0
   36.3120   31.4010   49.3600 C   0  0  0  0  0  0  0  0  0  0  0  0
   37.8020   30.9280   49.4190 C   0  0  2  0  0  0  0  0  0  0  0  0
   38.2440   30.6050   50.7560 C   0  0  0  0  0  0  0  0  0  0  0  0
   37.1840   29.8870   51.5970 C   0  0  0  0  0  0  0  0  0  0  0  0
   36.0890   29.3420   50.7310 C   0  0  0  0  0  0  0  0  0  0  0  0
   34.6650   30.8740   50.6190 H   0  0  0  0  0  0  0  0  0  0  0  0
   36.2270   31.8480   48.3950 H   0  0  0  0  0  0  0  0  0  0  0  0
   36.3520   32.2830   50.0880 H   0  0  0  0  0  0  0  0  0  0  0  0
   37.9140   30.1200   48.6990 H   0  0  0  0  0  0  0  0  0  0  0  0
   39.1600   29.9670   50.6860 H   0  0  0  0  0  0  0  0  0  0  0  0
   38.5600   31.4590   51.3930 H   0  0  0  0  0  0  0  0  0  0  0  0
   36.7580   30.5340   52.3840 H   0  0  0  0  0  0  0  0  0  0  0  0
   37.6640   29.0220   52.0770 H   0  0  0  0  0  0  0  0  0  0  0  0
   35.3750   28.8330   51.3830 H   0  0  0  0  0  0  0  0  0  0  0  0
   36.5310   28.5780   50.0560 H   0  0  0  0  0  0  0  0  0  0  0  0
   34.5780   29.6920   48.8980 C   0  0  0  0  0  0  0  0  0  0  0  0
   33.7780   28.6920   49.4360 C   0  0  0  0  0  0  0  0  0  0  0  0
   32.9470   27.9700   48.5830 C   0  0  0  0  0  0  0  0  0  0  0  0
   32.9580   28.2810   47.2380 N   0  0  0  0  0  0  0  0  0  0  0  0
   33.7490   29.2610   46.7370 C   0  0  0  0  0  0  0  0  0  0  0  0
   34.5290   29.9260   47.5980 N   0  0  0  0  0  0  0  0  0  0  0  0
   33.5800   28.2520   50.4030 H   0  0  0  0  0  0  0  0  0  0  0  0
   32.2520   27.1660   48.7640 H   0  0  0  0  0  0  0  0  0  0  0  0
   33.7260   29.5460   45.3380 N   0  0  0  0  0  0  0  0  0  0  0  0
   34.4150   29.0770   44.2800 C   0  0  0  0  0  0  0  0  0  0  0  0
   35.1730   28.3170   44.4060 H   0  0  0  0  0  0  0  0  0  0  0  0
   33.9910   29.7000   43.1600 N   0  0  0  0  0  0  0  0  0  0  0  0
   33.0190   30.5790   43.5050 C   0  0  0  0  0  0  0  0  0  0  0  0
   32.2580   31.4620   42.7470 C   0  0  0  0  0  0  0  0  0  0  0  0
   31.3650   32.2030   43.4210 N   0  0  0  0  0  0  0  0  0  0  0  0
   31.1720   32.1440   44.7320 C   0  0  0  0  0  0  0  0  0  0  0  0
   30.4350   32.7600   45.2610 H   0  0  0  0  0  0  0  0  0  0  0  0
   31.9120   31.2900   45.4490 N   0  0  0  0  0  0  0  0  0  0  0  0
   32.8510   30.4830   44.8830 C   0  0  0  0  0  0  0  0  0  0  0  0
   32.4090   31.5820   41.3380 N   0  0  0  0  0  0  0  0  0  0  0  0
   32.1230   32.4600   40.8610 H   0  0  0  0  0  0  0  0  0  0  0  0
   32.8040   30.7990   40.7690 H   0  0  0  0  0  0  0  0  0  0  0  0
   38.6600   30.7130   46.6120 Cl  0  0  0  0  0  0  0  0  0  0  0  0
   39.0300   32.1110   47.5970 C   0  0  0  0  0  0  0  0  0  0  0  0
   38.5410   32.1190   48.8800 C   0  0  0  0  0  0  0  0  0  0  0  0
   38.8470   33.2780   49.5810 C   0  0  0  0  0  0  0  0  0  0  0  0
   39.5760   34.3150   49.0290 C   0  0  0  0  0  0  0  0  0  0  0  0
   40.0380   34.2240   47.7180 C   0  0  0  0  0  0  0  0  0  0  0  0
   39.7550   33.0920   46.9890 C   0  0  0  0  0  0  0  0  0  0  0  0
   38.4680   33.3160   50.6140 H   0  0  0  0  0  0  0  0  0  0  0  0
   39.7560   35.1710   49.6710 H   0  0  0  0  0  0  0  0  0  0  0  0
   40.6060   35.0510   47.3130 H   0  0  0  0  0  0  0  0  0  0  0  0
   40.2230   32.9930   45.6500 N   0  0  0  0  0  0  0  0  0  0  0  0
   41.0930   32.4730   45.3830 H   0  0  0  0  0  0  0  0  0  0  0  0
   39.7040   33.4470   44.8680 H   0  0  0  0  0  0  0  0  0  0  0  0
  1  7  1  1  0  0  0
  1  6  1  0  0  0  0
  2  3  1  0  0  0  0
  2  1  1  0  0  0  0
  2  9  1  0  0  0  0
  3 10  1  6  0  0  0
  3  4  1  0  0  0  0
  4 12  1  0  0  0  0
  4  5  1  0  0  0  0
  5 14  1  0  0  0  0
  5 13  1  0  0  0  0
  6 15  1  0  0  0  0
  6  5  1  0  0  0  0
  8  2  1  0  0  0  0
 11  4  1  0  0  0  0
 16  6  1  0  0  0  0
 17 18  1  0  0  0  0
 17  1  1  0  0  0  0
 18 23  1  0  0  0  0
 19 24  1  0  0  0  0
 19 18  2  0  0  0  0
 20 19  1  0  0  0  0
 21 20  2  0  0  0  0
 21 22  1  0  0  0  0
 22 17  2  0  0  0  0
 25 21  1  0  0  0  0
 26 27  1  0  0  0  0
 26 25  1  0  0  0  0
 28 29  1  0  0  0  0
 28 26  2  0  0  0  0
 29 35  1  0  0  0  0
 30 31  1  0  0  0  0
 30 29  2  0  0  0  0
 31 32  2  0  0  0  0
 32 33  1  0  0  0  0
 32 34  1  0  0  0  0
 35 25  1  0  0  0  0
 35 34  2  0  0  0  0
 36 30  1  0  0  0  0
 37 36  1  0  0  0  0
 38 36  1  0  0  0  0
 39 40  1  0  0  0  0
 40 41  1  0  0  0  0
 41  3  1  0  0  0  0
 41 42  2  0  0  0  0
 42 46  1  0  0  0  0
 43 42  1  0  0  0  0
 43 47  1  0  0  0  0
 44 43  2  0  0  0  0
 45 40  2  0  0  0  0
 45 44  1  0  0  0  0
 48 44  1  0  0  0  0
 49 45  1  0  0  0  0
 50 49  1  0  0  0  0
 51 49  1  0  0  0  0
M  END
>  <minimizedAffinity>
-8.63527966

>  <minimizedRMSD>
5.05428886

$$$$
