
 OpenBabel03272501453D

 39 43  0  0  0  0  0  0  0  0999 V2000
   37.8430   27.3020   35.6240 C   0  0  0  0  0  0  0  0  0  0  0  0
   37.8740   26.0640   34.9150 C   0  0  0  0  0  0  0  0  0  0  0  0
   37.2310   26.0120   33.6840 C   0  0  0  0  0  0  0  0  0  0  0  0
   36.6170   27.1340   33.2350 N   0  0  0  0  0  0  0  0  0  0  0  0
   36.5970   28.2910   33.9140 C   0  0  0  0  0  0  0  0  0  0  0  0
   37.2120   28.3660   35.1090 N   0  0  0  0  0  0  0  0  0  0  0  0
   38.2720   27.5460   36.5800 H   0  0  0  0  0  0  0  0  0  0  0  0
   37.2860   25.0720   33.2040 H   0  0  0  0  0  0  0  0  0  0  0  0
   38.0470   24.4760   36.7460 C   0  0  0  0  0  0  0  0  0  0  0  0
   38.5940   25.0110   35.6020 C   0  0  0  0  0  0  0  0  0  0  0  0
   39.8140   24.4980   35.1730 C   0  0  0  0  0  0  0  0  0  0  0  0
   40.4180   23.4800   35.9130 C   0  0  0  0  0  0  0  0  0  0  0  0
   41.5690   22.8000   35.7560 N   0  0  0  0  0  0  0  0  0  0  0  0
   41.7060   21.9050   36.7490 C   0  0  0  0  0  0  0  0  0  0  0  0
   40.6220   22.0110   37.5650 N   0  0  0  0  0  0  0  0  0  0  0  0
   39.8460   22.9710   37.0480 C   0  0  0  0  0  0  0  0  0  0  0  0
   38.6510   23.4700   37.4700 C   0  0  0  0  0  0  0  0  0  0  0  0
   37.0890   24.7950   37.1910 H   0  0  0  0  0  0  0  0  0  0  0  0
   40.2530   24.8980   34.2920 H   0  0  0  0  0  0  0  0  0  0  0  0
   42.2140   22.9870   34.9590 H   0  0  0  0  0  0  0  0  0  0  0  0
   42.5640   21.2380   36.8310 H   0  0  0  0  0  0  0  0  0  0  0  0
   38.2060   23.0480   38.3860 H   0  0  0  0  0  0  0  0  0  0  0  0
   35.8850   29.4560   33.3090 C   0  0  0  0  0  0  0  0  0  0  0  0
   36.5510   30.3360   33.4880 H   0  0  0  0  0  0  0  0  0  0  0  0
   35.7950   29.3750   32.2220 H   0  0  0  0  0  0  0  0  0  0  0  0
   34.6310   29.6640   33.9840 N   0  0  0  0  0  0  0  0  0  0  0  0
   33.3980   29.1640   33.7740 C   0  0  0  0  0  0  0  0  0  0  0  0
   33.2260   28.4660   32.9630 H   0  0  0  0  0  0  0  0  0  0  0  0
   32.5650   29.6900   34.7040 N   0  0  0  0  0  0  0  0  0  0  0  0
   33.2490   30.5090   35.4930 C   0  0  0  0  0  0  0  0  0  0  0  0
   32.8350   31.2750   36.5830 C   0  0  0  0  0  0  0  0  0  0  0  0
   33.7710   32.0270   37.2070 N   0  0  0  0  0  0  0  0  0  0  0  0
   35.0580   32.0120   36.7610 C   0  0  0  0  0  0  0  0  0  0  0  0
   35.8330   32.6000   37.2330 H   0  0  0  0  0  0  0  0  0  0  0  0
   35.4680   31.2780   35.7110 N   0  0  0  0  0  0  0  0  0  0  0  0
   34.5620   30.5030   35.0510 C   0  0  0  0  0  0  0  0  0  0  0  0
   31.4770   31.2720   37.0300 N   0  0  0  0  0  0  0  0  0  0  0  0
   31.5000   30.9920   38.0530 H   0  0  0  0  0  0  0  0  0  0  0  0
   30.6930   31.5160   36.3770 H   0  0  0  0  0  0  0  0  0  0  0  0
  1  7  1  0  0  0  0
  2 10  1  0  0  0  0
  2  1  2  0  0  0  0
  3  2  1  0  0  0  0
  4  3  2  0  0  0  0
  4  5  1  0  0  0  0
  5  6  2  0  0  0  0
  6  1  1  0  0  0  0
  8  3  1  0  0  0  0
  9 18  1  0  0  0  0
  9 17  1  0  0  0  0
 10  9  2  0  0  0  0
 11 10  1  0  0  0  0
 11 12  2  0  0  0  0
 12 16  1  0  0  0  0
 13 12  1  0  0  0  0
 13 14  1  0  0  0  0
 14 21  1  0  0  0  0
 14 15  2  0  0  0  0
 16 17  2  0  0  0  0
 16 15  1  0  0  0  0
 17 22  1  0  0  0  0
 19 11  1  0  0  0  0
 20 13  1  0  0  0  0
 23 24  1  0  0  0  0
 23  5  1  0  0  0  0
 23 26  1  0  0  0  0
 25 23  1  0  0  0  0
 26 36  1  0  0  0  0
 27 26  1  0  0  0  0
 27 29  2  0  0  0  0
 28 27  1  0  0  0  0
 29 30  1  0  0  0  0
 30 31  1  0  0  0  0
 31 37  1  0  0  0  0
 31 32  2  0  0  0  0
 33 32  1  0  0  0  0
 33 34  1  0  0  0  0
 35 33  2  0  0  0  0
 36 30  2  0  0  0  0
 36 35  1  0  0  0  0
 37 38  1  0  0  0  0
 39 37  1  0  0  0  0
M  END
>  <minimizedAffinity>
-6.21952391

$$$$

 OpenBabel03272501453D

 39 43  0  0  0  0  0  0  0  0999 V2000
   37.3830   27.7260   34.9550 C   0  0  0  0  0  0  0  0  0  0  0  0
   36.4750   28.2430   33.9840 C   0  0  0  0  0  0  0  0  0  0  0  0
   36.4280   27.6120   32.7460 C   0  0  0  0  0  0  0  0  0  0  0  0
   37.2440   26.5490   32.5400 N   0  0  0  0  0  0  0  0  0  0  0  0
   38.0930   26.0730   33.4630 C   0  0  0  0  0  0  0  0  0  0  0  0
   38.1560   26.6690   34.6700 N   0  0  0  0  0  0  0  0  0  0  0  0
   37.5700   28.0670   35.9580 H   0  0  0  0  0  0  0  0  0  0  0  0
   35.7390   28.0360   32.0670 H   0  0  0  0  0  0  0  0  0  0  0  0
   34.5110   29.6650   33.8290 C   0  0  0  0  0  0  0  0  0  0  0  0
   35.7100   29.3850   34.4440 C   0  0  0  0  0  0  0  0  0  0  0  0
   36.1130   30.2230   35.4780 C   0  0  0  0  0  0  0  0  0  0  0  0
   35.2940   31.2940   35.8400 C   0  0  0  0  0  0  0  0  0  0  0  0
   35.4110   32.2540   36.7750 N   0  0  0  0  0  0  0  0  0  0  0  0
   34.3410   33.0670   36.7270 C   0  0  0  0  0  0  0  0  0  0  0  0
   33.5170   32.6210   35.7390 N   0  0  0  0  0  0  0  0  0  0  0  0
   34.1070   31.5440   35.2060 C   0  0  0  0  0  0  0  0  0  0  0  0
   33.7080   30.7250   34.1940 C   0  0  0  0  0  0  0  0  0  0  0  0
   34.0810   29.0810   32.9980 H   0  0  0  0  0  0  0  0  0  0  0  0
   37.0360   30.0230   35.9650 H   0  0  0  0  0  0  0  0  0  0  0  0
   36.2340   32.3040   37.4120 H   0  0  0  0  0  0  0  0  0  0  0  0
   34.2140   33.9200   37.3930 H   0  0  0  0  0  0  0  0  0  0  0  0
   32.7490   30.9420   33.6950 H   0  0  0  0  0  0  0  0  0  0  0  0
   38.9380   24.8950   33.1100 C   0  0  0  0  0  0  0  0  0  0  0  0
   38.4050   24.3890   32.2680 H   0  0  0  0  0  0  0  0  0  0  0  0
   39.9140   25.1840   32.7080 H   0  0  0  0  0  0  0  0  0  0  0  0
   39.0140   23.9970   34.2330 N   0  0  0  0  0  0  0  0  0  0  0  0
   38.0970   23.2030   34.8190 C   0  0  0  0  0  0  0  0  0  0  0  0
   37.0840   23.1710   34.4360 H   0  0  0  0  0  0  0  0  0  0  0  0
   38.6940   22.5590   35.8500 N   0  0  0  0  0  0  0  0  0  0  0  0
   39.9650   22.9330   35.9250 C   0  0  0  0  0  0  0  0  0  0  0  0
   40.9720   22.5490   36.8110 C   0  0  0  0  0  0  0  0  0  0  0  0
   42.1950   23.1060   36.6410 N   0  0  0  0  0  0  0  0  0  0  0  0
   42.3970   24.0010   35.6350 C   0  0  0  0  0  0  0  0  0  0  0  0
   43.3580   24.4670   35.4690 H   0  0  0  0  0  0  0  0  0  0  0  0
   41.4320   24.3780   34.7770 N   0  0  0  0  0  0  0  0  0  0  0  0
   40.1850   23.8450   34.9060 C   0  0  0  0  0  0  0  0  0  0  0  0
   40.7330   21.6070   37.8580 N   0  0  0  0  0  0  0  0  0  0  0  0
   41.4380   20.8250   37.7250 H   0  0  0  0  0  0  0  0  0  0  0  0
   39.9740   21.7660   38.5650 H   0  0  0  0  0  0  0  0  0  0  0  0
  1  7  1  0  0  0  0
  2 10  1  0  0  0  0
  2  1  2  0  0  0  0
  3  2  1  0  0  0  0
  4  3  2  0  0  0  0
  4  5  1  0  0  0  0
  5  6  2  0  0  0  0
  6  1  1  0  0  0  0
  8  3  1  0  0  0  0
  9 17  2  0  0  0  0
  9 10  1  0  0  0  0
 10 11  2  0  0  0  0
 11 12  1  0  0  0  0
 11 19  1  0  0  0  0
 12 13  1  0  0  0  0
 13 20  1  0  0  0  0
 14 13  1  0  0  0  0
 14 21  1  0  0  0  0
 15 14  2  0  0  0  0
 16 15  1  0  0  0  0
 16 12  2  0  0  0  0
 17 16  1  0  0  0  0
 18  9  1  0  0  0  0
 22 17  1  0  0  0  0
 23  5  1  0  0  0  0
 23 26  1  0  0  0  0
 24 23  1  0  0  0  0
 25 23  1  0  0  0  0
 26 27  1  0  0  0  0
 26 36  1  0  0  0  0
 27 29  2  0  0  0  0
 28 27  1  0  0  0  0
 29 30  1  0  0  0  0
 30 31  1  0  0  0  0
 31 37  1  0  0  0  0
 32 31  2  0  0  0  0
 33 32  1  0  0  0  0
 34 33  1  0  0  0  0
 35 36  1  0  0  0  0
 35 33  2  0  0  0  0
 36 30  2  0  0  0  0
 37 39  1  0  0  0  0
 38 37  1  0  0  0  0
M  END
>  <minimizedAffinity>
-6.09801435

$$$$

 OpenBabel03272501453D

 39 43  0  0  0  0  0  0  0  0999 V2000
   37.2230   27.3810   34.6760 C   0  0  0  0  0  0  0  0  0  0  0  0
   37.2370   27.4000   33.2500 C   0  0  0  0  0  0  0  0  0  0  0  0
   37.9340   26.3880   32.5990 C   0  0  0  0  0  0  0  0  0  0  0  0
   38.5530   25.4500   33.3560 N   0  0  0  0  0  0  0  0  0  0  0  0
   38.5300   25.4440   34.6980 C   0  0  0  0  0  0  0  0  0  0  0  0
   37.8620   26.4150   35.3500 N   0  0  0  0  0  0  0  0  0  0  0  0
   36.7500   28.0650   35.3590 H   0  0  0  0  0  0  0  0  0  0  0  0
   37.9110   26.4530   31.5450 H   0  0  0  0  0  0  0  0  0  0  0  0
   36.7430   28.8410   31.3560 C   0  0  0  0  0  0  0  0  0  0  0  0
   36.5010   28.5050   32.6690 C   0  0  0  0  0  0  0  0  0  0  0  0
   35.5540   29.2540   33.3600 C   0  0  0  0  0  0  0  0  0  0  0  0
   34.9030   30.2980   32.6990 C   0  0  0  0  0  0  0  0  0  0  0  0
   33.9630   31.1780   33.0910 N   0  0  0  0  0  0  0  0  0  0  0  0
   33.6560   31.9970   32.0700 C   0  0  0  0  0  0  0  0  0  0  0  0
   34.4140   31.6380   30.9980 N   0  0  0  0  0  0  0  0  0  0  0  0
   35.1680   30.6040   31.3920 C   0  0  0  0  0  0  0  0  0  0  0  0
   36.0940   29.8720   30.7120 C   0  0  0  0  0  0  0  0  0  0  0  0
   37.4680   28.3290   30.7020 H   0  0  0  0  0  0  0  0  0  0  0  0
   35.3530   29.0110   34.3750 H   0  0  0  0  0  0  0  0  0  0  0  0
   33.5720   31.1710   34.0570 H   0  0  0  0  0  0  0  0  0  0  0  0
   32.9180   32.7940   32.1520 H   0  0  0  0  0  0  0  0  0  0  0  0
   36.2940   30.1350   29.6600 H   0  0  0  0  0  0  0  0  0  0  0  0
   39.2530   24.3530   35.4160 C   0  0  0  0  0  0  0  0  0  0  0  0
   39.6390   23.6760   34.6140 H   0  0  0  0  0  0  0  0  0  0  0  0
   40.1390   24.7140   35.9460 H   0  0  0  0  0  0  0  0  0  0  0  0
   38.3310   23.6260   36.2500 N   0  0  0  0  0  0  0  0  0  0  0  0
   38.0630   23.6890   37.5680 C   0  0  0  0  0  0  0  0  0  0  0  0
   38.5950   24.3930   38.1970 H   0  0  0  0  0  0  0  0  0  0  0  0
   37.1000   22.7780   37.8460 N   0  0  0  0  0  0  0  0  0  0  0  0
   36.7590   22.1440   36.7310 C   0  0  0  0  0  0  0  0  0  0  0  0
   35.8240   21.1330   36.5120 C   0  0  0  0  0  0  0  0  0  0  0  0
   35.6890   20.6730   35.2460 N   0  0  0  0  0  0  0  0  0  0  0  0
   36.4540   21.2000   34.2500 C   0  0  0  0  0  0  0  0  0  0  0  0
   36.3760   20.8580   33.2270 H   0  0  0  0  0  0  0  0  0  0  0  0
   37.3600   22.1740   34.4510 N   0  0  0  0  0  0  0  0  0  0  0  0
   37.5310   22.6710   35.7080 C   0  0  0  0  0  0  0  0  0  0  0  0
   35.0330   20.5980   37.5760 N   0  0  0  0  0  0  0  0  0  0  0  0
   34.0200   20.7170   37.2850 H   0  0  0  0  0  0  0  0  0  0  0  0
   35.4840   20.1930   38.4320 H   0  0  0  0  0  0  0  0  0  0  0  0
  1  6  1  0  0  0  0
  1  7  1  0  0  0  0
  2  1  2  0  0  0  0
  3  2  1  0  0  0  0
  3  4  2  0  0  0  0
  4  5  1  0  0  0  0
  5  6  2  0  0  0  0
  5 23  1  0  0  0  0
  8  3  1  0  0  0  0
  9 10  1  0  0  0  0
 10  2  1  0  0  0  0
 10 11  2  0  0  0  0
 11 19  1  0  0  0  0
 12 13  1  0  0  0  0
 12 11  1  0  0  0  0
 13 20  1  0  0  0  0
 14 21  1  0  0  0  0
 14 13  1  0  0  0  0
 15 16  1  0  0  0  0
 15 14  2  0  0  0  0
 16 12  2  0  0  0  0
 17  9  2  0  0  0  0
 17 16  1  0  0  0  0
 18  9  1  0  0  0  0
 22 17  1  0  0  0  0
 23 25  1  0  0  0  0
 23 26  1  0  0  0  0
 24 23  1  0  0  0  0
 26 27  1  0  0  0  0
 27 29  2  0  0  0  0
 27 28  1  0  0  0  0
 30 29  1  0  0  0  0
 31 30  1  0  0  0  0
 31 37  1  0  0  0  0
 32 31  2  0  0  0  0
 33 35  2  0  0  0  0
 33 32  1  0  0  0  0
 34 33  1  0  0  0  0
 35 36  1  0  0  0  0
 36 26  1  0  0  0  0
 36 30  2  0  0  0  0
 37 39  1  0  0  0  0
 38 37  1  0  0  0  0
M  END
>  <minimizedAffinity>
-6.04808187

$$$$

 OpenBabel03272501453D

 39 43  0  0  0  0  0  0  0  0999 V2000
   37.4860   25.7820   33.9680 C   0  0  0  0  0  0  0  0  0  0  0  0
   38.0940   26.0930   35.2200 C   0  0  0  0  0  0  0  0  0  0  0  0
   37.9560   27.3920   35.6970 C   0  0  0  0  0  0  0  0  0  0  0  0
   37.2550   28.2770   34.9470 N   0  0  0  0  0  0  0  0  0  0  0  0
   36.6880   27.9690   33.7710 C   0  0  0  0  0  0  0  0  0  0  0  0
   36.8090   26.7170   33.2880 N   0  0  0  0  0  0  0  0  0  0  0  0
   37.4790   24.8490   33.4310 H   0  0  0  0  0  0  0  0  0  0  0  0
   38.4260   27.5660   36.6270 H   0  0  0  0  0  0  0  0  0  0  0  0
   38.2620   24.4210   36.9740 C   0  0  0  0  0  0  0  0  0  0  0  0
   38.7880   24.9780   35.8310 C   0  0  0  0  0  0  0  0  0  0  0  0
   39.9620   24.4260   35.3290 C   0  0  0  0  0  0  0  0  0  0  0  0
   40.5440   23.3480   36.0000 C   0  0  0  0  0  0  0  0  0  0  0  0
   41.6520   22.6210   35.7650 N   0  0  0  0  0  0  0  0  0  0  0  0
   41.7840   21.6780   36.7140 C   0  0  0  0  0  0  0  0  0  0  0  0
   40.7410   21.8010   37.5790 N   0  0  0  0  0  0  0  0  0  0  0  0
   39.9940   22.8190   37.1360 C   0  0  0  0  0  0  0  0  0  0  0  0
   38.8440   23.3570   37.6290 C   0  0  0  0  0  0  0  0  0  0  0  0
   37.3410   24.7660   37.4720 H   0  0  0  0  0  0  0  0  0  0  0  0
   40.3840   24.8410   34.4470 H   0  0  0  0  0  0  0  0  0  0  0  0
   42.2720   22.8110   34.9490 H   0  0  0  0  0  0  0  0  0  0  0  0
   42.6100   20.9670   36.7310 H   0  0  0  0  0  0  0  0  0  0  0  0
   38.4160   22.9170   38.5450 H   0  0  0  0  0  0  0  0  0  0  0  0
   35.9410   29.0360   33.0410 C   0  0  0  0  0  0  0  0  0  0  0  0
   36.7240   29.7300   32.6480 H   0  0  0  0  0  0  0  0  0  0  0  0
   35.4180   28.6540   32.1590 H   0  0  0  0  0  0  0  0  0  0  0  0
   35.0910   29.7490   33.9590 N   0  0  0  0  0  0  0  0  0  0  0  0
   35.3630   30.6090   34.9590 C   0  0  0  0  0  0  0  0  0  0  0  0
   36.3890   30.8730   35.1850 H   0  0  0  0  0  0  0  0  0  0  0  0
   34.1880   30.9940   35.5150 N   0  0  0  0  0  0  0  0  0  0  0  0
   33.1860   30.3920   34.8860 C   0  0  0  0  0  0  0  0  0  0  0  0
   31.8090   30.4680   35.0930 C   0  0  0  0  0  0  0  0  0  0  0  0
   31.0160   29.7300   34.2820 N   0  0  0  0  0  0  0  0  0  0  0  0
   31.5760   28.9540   33.3120 C   0  0  0  0  0  0  0  0  0  0  0  0
   30.9750   28.3500   32.6460 H   0  0  0  0  0  0  0  0  0  0  0  0
   32.9030   28.8730   33.1050 N   0  0  0  0  0  0  0  0  0  0  0  0
   33.7420   29.5990   33.8950 C   0  0  0  0  0  0  0  0  0  0  0  0
   31.2480   31.2910   36.1180 N   0  0  0  0  0  0  0  0  0  0  0  0
   30.5650   31.9450   35.6370 H   0  0  0  0  0  0  0  0  0  0  0  0
   31.5380   31.1780   37.1200 H   0  0  0  0  0  0  0  0  0  0  0  0
  1  2  1  0  0  0  0
  2  3  2  0  0  0  0
  2 10  1  0  0  0  0
  3  8  1  0  0  0  0
  4  3  1  0  0  0  0
  5  4  2  0  0  0  0
  6  5  1  0  0  0  0
  6  1  2  0  0  0  0
  7  1  1  0  0  0  0
  9 18  1  0  0  0  0
  9 17  1  0  0  0  0
 10  9  2  0  0  0  0
 11 10  1  0  0  0  0
 11 12  2  0  0  0  0
 12 16  1  0  0  0  0
 13 12  1  0  0  0  0
 13 14  1  0  0  0  0
 14 21  1  0  0  0  0
 14 15  2  0  0  0  0
 16 15  1  0  0  0  0
 16 17  2  0  0  0  0
 17 22  1  0  0  0  0
 19 11  1  0  0  0  0
 20 13  1  0  0  0  0
 23  5  1  0  0  0  0
 23 26  1  0  0  0  0
 24 23  1  0  0  0  0
 25 23  1  0  0  0  0
 26 27  1  0  0  0  0
 27 28  1  0  0  0  0
 27 29  2  0  0  0  0
 30 31  1  0  0  0  0
 30 29  1  0  0  0  0
 31 37  1  0  0  0  0
 32 31  2  0  0  0  0
 33 32  1  0  0  0  0
 34 33  1  0  0  0  0
 35 33  2  0  0  0  0
 35 36  1  0  0  0  0
 36 26  1  0  0  0  0
 36 30  2  0  0  0  0
 37 39  1  0  0  0  0
 38 37  1  0  0  0  0
M  END
>  <minimizedAffinity>
-6.00220299

$$$$

 OpenBabel03272501453D

 39 43  0  0  0  0  0  0  0  0999 V2000
   37.0060   25.7870   32.3400 C   0  0  0  0  0  0  0  0  0  0  0  0
   36.9860   26.6550   33.4710 C   0  0  0  0  0  0  0  0  0  0  0  0
   37.4780   26.1580   34.6730 C   0  0  0  0  0  0  0  0  0  0  0  0
   37.9440   24.8850   34.6950 N   0  0  0  0  0  0  0  0  0  0  0  0
   37.9570   24.0800   33.6210 C   0  0  0  0  0  0  0  0  0  0  0  0
   37.4840   24.5400   32.4470 N   0  0  0  0  0  0  0  0  0  0  0  0
   36.6730   25.9760   31.3340 H   0  0  0  0  0  0  0  0  0  0  0  0
   37.4380   26.8430   35.4760 H   0  0  0  0  0  0  0  0  0  0  0  0
   36.1090   28.7810   34.2560 C   0  0  0  0  0  0  0  0  0  0  0  0
   36.4400   27.9690   33.1950 C   0  0  0  0  0  0  0  0  0  0  0  0
   36.2290   28.4670   31.9140 C   0  0  0  0  0  0  0  0  0  0  0  0
   35.6990   29.7500   31.7650 C   0  0  0  0  0  0  0  0  0  0  0  0
   35.3890   30.4880   30.6830 N   0  0  0  0  0  0  0  0  0  0  0  0
   34.9000   31.6790   31.0710 C   0  0  0  0  0  0  0  0  0  0  0  0
   34.8930   31.7090   32.4320 N   0  0  0  0  0  0  0  0  0  0  0  0
   35.3800   30.5310   32.8430 C   0  0  0  0  0  0  0  0  0  0  0  0
   35.5860   30.0470   34.0990 C   0  0  0  0  0  0  0  0  0  0  0  0
   36.2250   28.5040   35.3170 H   0  0  0  0  0  0  0  0  0  0  0  0
   36.4780   27.8550   31.0810 H   0  0  0  0  0  0  0  0  0  0  0  0
   35.5330   30.1310   29.7150 H   0  0  0  0  0  0  0  0  0  0  0  0
   34.5800   32.4450   30.3660 H   0  0  0  0  0  0  0  0  0  0  0  0
   35.3230   30.6910   34.9540 H   0  0  0  0  0  0  0  0  0  0  0  0
   38.4980   22.6970   33.7770 C   0  0  0  0  0  0  0  0  0  0  0  0
   39.1960   22.5540   32.9160 H   0  0  0  0  0  0  0  0  0  0  0  0
   39.1130   22.5860   34.6750 H   0  0  0  0  0  0  0  0  0  0  0  0
   37.4240   21.7420   33.6850 N   0  0  0  0  0  0  0  0  0  0  0  0
   36.5040   21.3280   34.5760 C   0  0  0  0  0  0  0  0  0  0  0  0
   36.4950   21.7400   35.5780 H   0  0  0  0  0  0  0  0  0  0  0  0
   35.7180   20.4040   33.9730 N   0  0  0  0  0  0  0  0  0  0  0  0
   36.1260   20.2290   32.7220 C   0  0  0  0  0  0  0  0  0  0  0  0
   35.6390   19.3930   31.7180 C   0  0  0  0  0  0  0  0  0  0  0  0
   36.2680   19.4290   30.5190 N   0  0  0  0  0  0  0  0  0  0  0  0
   37.3300   20.2610   30.3370 C   0  0  0  0  0  0  0  0  0  0  0  0
   37.8570   20.3170   29.3950 H   0  0  0  0  0  0  0  0  0  0  0  0
   37.8080   21.0710   31.2990 N   0  0  0  0  0  0  0  0  0  0  0  0
   37.2090   21.0720   32.5220 C   0  0  0  0  0  0  0  0  0  0  0  0
   34.5220   18.5290   31.9360 N   0  0  0  0  0  0  0  0  0  0  0  0
   33.8050   18.7730   31.1920 H   0  0  0  0  0  0  0  0  0  0  0  0
   34.5260   17.8280   32.7160 H   0  0  0  0  0  0  0  0  0  0  0  0
  1  6  2  0  0  0  0
  1  2  1  0  0  0  0
  2  3  2  0  0  0  0
  3  4  1  0  0  0  0
  3  8  1  0  0  0  0
  5 23  1  0  0  0  0
  5  4  2  0  0  0  0
  6  5  1  0  0  0  0
  7  1  1  0  0  0  0
  9 18  1  0  0  0  0
 10  2  1  0  0  0  0
 10  9  2  0  0  0  0
 11 10  1  0  0  0  0
 12 11  2  0  0  0  0
 12 16  1  0  0  0  0
 13 14  1  0  0  0  0
 13 12  1  0  0  0  0
 14 15  2  0  0  0  0
 15 16  1  0  0  0  0
 16 17  2  0  0  0  0
 17  9  1  0  0  0  0
 17 22  1  0  0  0  0
 19 11  1  0  0  0  0
 20 13  1  0  0  0  0
 21 14  1  0  0  0  0
 23 25  1  0  0  0  0
 24 23  1  0  0  0  0
 26 23  1  0  0  0  0
 26 27  1  0  0  0  0
 27 28  1  0  0  0  0
 29 27  2  0  0  0  0
 30 29  1  0  0  0  0
 31 37  1  0  0  0  0
 31 30  2  0  0  0  0
 32 31  1  0  0  0  0
 33 32  2  0  0  0  0
 33 35  1  0  0  0  0
 34 33  1  0  0  0  0
 35 36  2  0  0  0  0
 36 30  1  0  0  0  0
 36 26  1  0  0  0  0
 37 39  1  0  0  0  0
 38 37  1  0  0  0  0
M  END
>  <minimizedAffinity>
-5.99619293

$$$$

 OpenBabel03272501453D

 39 43  0  0  0  0  0  0  0  0999 V2000
   36.9160   27.2190   34.8250 C   0  0  0  0  0  0  0  0  0  0  0  0
   36.4900   28.1500   33.8330 C   0  0  0  0  0  0  0  0  0  0  0  0
   36.8430   27.8920   32.5130 C   0  0  0  0  0  0  0  0  0  0  0  0
   37.5680   26.7770   32.2530 N   0  0  0  0  0  0  0  0  0  0  0  0
   37.9620   25.9090   33.1970 C   0  0  0  0  0  0  0  0  0  0  0  0
   37.6320   26.1390   34.4830 N   0  0  0  0  0  0  0  0  0  0  0  0
   36.7510   27.2380   35.8880 H   0  0  0  0  0  0  0  0  0  0  0  0
   36.5010   28.6140   31.8220 H   0  0  0  0  0  0  0  0  0  0  0  0
   34.4450   29.4620   33.8970 C   0  0  0  0  0  0  0  0  0  0  0  0
   35.7260   29.2630   34.3600 C   0  0  0  0  0  0  0  0  0  0  0  0
   36.2080   30.1510   35.3160 C   0  0  0  0  0  0  0  0  0  0  0  0
   35.3820   31.1880   35.7550 C   0  0  0  0  0  0  0  0  0  0  0  0
   35.5610   32.1800   36.6460 N   0  0  0  0  0  0  0  0  0  0  0  0
   34.4500   32.9330   36.7160 C   0  0  0  0  0  0  0  0  0  0  0  0
   33.5350   32.4160   35.8510 N   0  0  0  0  0  0  0  0  0  0  0  0
   34.1120   31.3560   35.2720 C   0  0  0  0  0  0  0  0  0  0  0  0
   33.6370   30.4880   34.3360 C   0  0  0  0  0  0  0  0  0  0  0  0
   33.9480   28.8320   33.1400 H   0  0  0  0  0  0  0  0  0  0  0  0
   37.1950   30.0150   35.6860 H   0  0  0  0  0  0  0  0  0  0  0  0
   36.4540   32.2920   37.1720 H   0  0  0  0  0  0  0  0  0  0  0  0
   34.3610   33.7980   37.3740 H   0  0  0  0  0  0  0  0  0  0  0  0
   32.6120   30.6400   33.9590 H   0  0  0  0  0  0  0  0  0  0  0  0
   38.7570   24.7170   32.7790 C   0  0  0  0  0  0  0  0  0  0  0  0
   38.6610   24.6720   31.6660 H   0  0  0  0  0  0  0  0  0  0  0  0
   39.8270   24.8360   32.9760 H   0  0  0  0  0  0  0  0  0  0  0  0
   38.1880   23.5270   33.3550 N   0  0  0  0  0  0  0  0  0  0  0  0
   38.4480   22.8610   34.4960 C   0  0  0  0  0  0  0  0  0  0  0  0
   39.2170   23.2190   35.1700 H   0  0  0  0  0  0  0  0  0  0  0  0
   37.6170   21.7920   34.5600 N   0  0  0  0  0  0  0  0  0  0  0  0
   36.8420   21.7730   33.4830 C   0  0  0  0  0  0  0  0  0  0  0  0
   35.8420   20.8800   33.1010 C   0  0  0  0  0  0  0  0  0  0  0  0
   35.2090   21.1180   31.9290 N   0  0  0  0  0  0  0  0  0  0  0  0
   35.5610   22.1970   31.1760 C   0  0  0  0  0  0  0  0  0  0  0  0
   35.0790   22.4190   30.2350 H   0  0  0  0  0  0  0  0  0  0  0  0
   36.5260   23.0640   31.5350 N   0  0  0  0  0  0  0  0  0  0  0  0
   37.1910   22.8670   32.7070 C   0  0  0  0  0  0  0  0  0  0  0  0
   35.4910   19.7550   33.9110 N   0  0  0  0  0  0  0  0  0  0  0  0
   34.4510   19.8380   34.1050 H   0  0  0  0  0  0  0  0  0  0  0  0
   36.2130   19.0480   34.1950 H   0  0  0  0  0  0  0  0  0  0  0  0
  1  7  1  0  0  0  0
  2 10  1  0  0  0  0
  2  1  2  0  0  0  0
  3  2  1  0  0  0  0
  4  3  2  0  0  0  0
  4  5  1  0  0  0  0
  5  6  2  0  0  0  0
  6  1  1  0  0  0  0
  8  3  1  0  0  0  0
  9 17  2  0  0  0  0
  9 10  1  0  0  0  0
 10 11  2  0  0  0  0
 11 19  1  0  0  0  0
 11 12  1  0  0  0  0
 12 13  1  0  0  0  0
 13 14  1  0  0  0  0
 13 20  1  0  0  0  0
 14 21  1  0  0  0  0
 15 14  2  0  0  0  0
 16 12  2  0  0  0  0
 16 15  1  0  0  0  0
 17 16  1  0  0  0  0
 18  9  1  0  0  0  0
 22 17  1  0  0  0  0
 23 25  1  0  0  0  0
 23  5  1  0  0  0  0
 23 26  1  0  0  0  0
 24 23  1  0  0  0  0
 26 27  1  0  0  0  0
 27 29  2  0  0  0  0
 27 28  1  0  0  0  0
 30 29  1  0  0  0  0
 31 30  1  0  0  0  0
 31 37  1  0  0  0  0
 32 31  2  0  0  0  0
 33 35  2  0  0  0  0
 33 32  1  0  0  0  0
 34 33  1  0  0  0  0
 35 36  1  0  0  0  0
 36 26  1  0  0  0  0
 36 30  2  0  0  0  0
 37 38  1  0  0  0  0
 37 39  1  0  0  0  0
M  END
>  <minimizedAffinity>
-5.99085999

$$$$

 OpenBabel03272501453D

 39 43  0  0  0  0  0  0  0  0999 V2000
   36.5650   28.0410   34.4650 C   0  0  0  0  0  0  0  0  0  0  0  0
   35.6600   28.9170   33.7970 C   0  0  0  0  0  0  0  0  0  0  0  0
   35.5100   28.7630   32.4230 C   0  0  0  0  0  0  0  0  0  0  0  0
   36.2310   27.7940   31.8070 N   0  0  0  0  0  0  0  0  0  0  0  0
   37.0790   26.9770   32.4490 C   0  0  0  0  0  0  0  0  0  0  0  0
   37.2410   27.1080   33.7800 N   0  0  0  0  0  0  0  0  0  0  0  0
   36.8220   27.9990   35.5090 H   0  0  0  0  0  0  0  0  0  0  0  0
   34.8270   29.4380   31.9810 H   0  0  0  0  0  0  0  0  0  0  0  0
   33.6460   29.7690   34.8580 C   0  0  0  0  0  0  0  0  0  0  0  0
   35.0070   29.8680   34.6740 C   0  0  0  0  0  0  0  0  0  0  0  0
   35.6740   30.8840   35.3500 C   0  0  0  0  0  0  0  0  0  0  0  0
   34.9430   31.7440   36.1720 C   0  0  0  0  0  0  0  0  0  0  0  0
   35.2970   32.7950   36.9340 N   0  0  0  0  0  0  0  0  0  0  0  0
   34.2110   33.2990   37.5450 C   0  0  0  0  0  0  0  0  0  0  0  0
   33.1330   32.5580   37.1670 N   0  0  0  0  0  0  0  0  0  0  0  0
   33.5900   31.6170   36.3320 C   0  0  0  0  0  0  0  0  0  0  0  0
   32.9330   30.6220   35.6720 C   0  0  0  0  0  0  0  0  0  0  0  0
   33.0030   29.0110   34.3790 H   0  0  0  0  0  0  0  0  0  0  0  0
   36.7250   30.9780   35.2200 H   0  0  0  0  0  0  0  0  0  0  0  0
   36.2860   33.1180   37.0000 H   0  0  0  0  0  0  0  0  0  0  0  0
   34.2530   34.1570   38.2150 H   0  0  0  0  0  0  0  0  0  0  0  0
   31.8440   30.5350   35.8140 H   0  0  0  0  0  0  0  0  0  0  0  0
   37.8140   25.9490   31.6540 C   0  0  0  0  0  0  0  0  0  0  0  0
   37.8810   26.3670   30.6190 H   0  0  0  0  0  0  0  0  0  0  0  0
   38.8490   25.8220   31.9860 H   0  0  0  0  0  0  0  0  0  0  0  0
   37.0570   24.7250   31.6240 N   0  0  0  0  0  0  0  0  0  0  0  0
   36.0950   24.2770   30.7950 C   0  0  0  0  0  0  0  0  0  0  0  0
   35.7670   24.8890   29.9640 H   0  0  0  0  0  0  0  0  0  0  0  0
   35.7130   23.0470   31.2170 N   0  0  0  0  0  0  0  0  0  0  0  0
   36.4140   22.7150   32.2950 C   0  0  0  0  0  0  0  0  0  0  0  0
   36.3800   21.5630   33.0790 C   0  0  0  0  0  0  0  0  0  0  0  0
   37.2260   21.5030   34.1340 N   0  0  0  0  0  0  0  0  0  0  0  0
   38.0640   22.5450   34.3890 C   0  0  0  0  0  0  0  0  0  0  0  0
   38.7530   22.5340   35.2220 H   0  0  0  0  0  0  0  0  0  0  0  0
   38.1040   23.6610   33.6390 N   0  0  0  0  0  0  0  0  0  0  0  0
   37.2720   23.7690   32.5660 C   0  0  0  0  0  0  0  0  0  0  0  0
   35.4900   20.4830   32.7880 N   0  0  0  0  0  0  0  0  0  0  0  0
   36.0940   19.6170   32.6800 H   0  0  0  0  0  0  0  0  0  0  0  0
   34.4550   20.6390   32.7190 H   0  0  0  0  0  0  0  0  0  0  0  0
  1  7  1  0  0  0  0
  2  1  1  0  0  0  0
  2 10  1  0  0  0  0
  3  2  2  0  0  0  0
  4  3  1  0  0  0  0
  4  5  2  0  0  0  0
  5  6  1  0  0  0  0
  6  1  2  0  0  0  0
  8  3  1  0  0  0  0
  9 17  1  0  0  0  0
 10  9  2  0  0  0  0
 10 11  1  0  0  0  0
 11 12  2  0  0  0  0
 12 16  1  0  0  0  0
 12 13  1  0  0  0  0
 13 20  1  0  0  0  0
 13 14  1  0  0  0  0
 14 21  1  0  0  0  0
 15 14  2  0  0  0  0
 16 15  1  0  0  0  0
 17 22  1  0  0  0  0
 17 16  2  0  0  0  0
 18  9  1  0  0  0  0
 19 11  1  0  0  0  0
 23 25  1  0  0  0  0
 23  5  1  0  0  0  0
 24 23  1  0  0  0  0
 26 23  1  0  0  0  0
 26 36  1  0  0  0  0
 27 29  2  0  0  0  0
 27 26  1  0  0  0  0
 28 27  1  0  0  0  0
 29 30  1  0  0  0  0
 30 36  2  0  0  0  0
 30 31  1  0  0  0  0
 31 32  2  0  0  0  0
 32 33  1  0  0  0  0
 33 34  1  0  0  0  0
 35 33  2  0  0  0  0
 36 35  1  0  0  0  0
 37 31  1  0  0  0  0
 38 37  1  0  0  0  0
 39 37  1  0  0  0  0
M  END
>  <minimizedAffinity>
-5.98966169

$$$$

 OpenBabel03272501453D

 39 43  0  0  0  0  0  0  0  0999 V2000
   35.9970   26.5190   31.1320 C   0  0  0  0  0  0  0  0  0  0  0  0
   36.6740   25.7250   32.1040 C   0  0  0  0  0  0  0  0  0  0  0  0
   37.0270   26.3360   33.3020 C   0  0  0  0  0  0  0  0  0  0  0  0
   36.7070   27.6430   33.4710 N   0  0  0  0  0  0  0  0  0  0  0  0
   36.0690   28.3770   32.5470 C   0  0  0  0  0  0  0  0  0  0  0  0
   35.7180   27.8070   31.3780 N   0  0  0  0  0  0  0  0  0  0  0  0
   35.6450   26.2400   30.1540 H   0  0  0  0  0  0  0  0  0  0  0  0
   37.5250   25.7010   33.9840 H   0  0  0  0  0  0  0  0  0  0  0  0
   38.1690   23.9860   31.3000 C   0  0  0  0  0  0  0  0  0  0  0  0
   36.9010   24.3550   31.6900 C   0  0  0  0  0  0  0  0  0  0  0  0
   35.9110   23.3780   31.6630 C   0  0  0  0  0  0  0  0  0  0  0  0
   36.2440   22.0880   31.2470 C   0  0  0  0  0  0  0  0  0  0  0  0
   35.5240   20.9590   31.1160 N   0  0  0  0  0  0  0  0  0  0  0  0
   36.3140   19.9650   30.6740 C   0  0  0  0  0  0  0  0  0  0  0  0
   37.5700   20.4650   30.5150 N   0  0  0  0  0  0  0  0  0  0  0  0
   37.5160   21.7560   30.8650 C   0  0  0  0  0  0  0  0  0  0  0  0
   38.4880   22.7090   30.8910 C   0  0  0  0  0  0  0  0  0  0  0  0
   39.0380   24.6640   31.2740 H   0  0  0  0  0  0  0  0  0  0  0  0
   34.9260   23.6430   31.9600 H   0  0  0  0  0  0  0  0  0  0  0  0
   34.5070   20.9260   31.3430 H   0  0  0  0  0  0  0  0  0  0  0  0
   35.9490   18.9550   30.4930 H   0  0  0  0  0  0  0  0  0  0  0  0
   39.5060   22.4220   30.5800 H   0  0  0  0  0  0  0  0  0  0  0  0
   35.7750   29.8070   32.8570 C   0  0  0  0  0  0  0  0  0  0  0  0
   36.6440   30.1650   33.4610 H   0  0  0  0  0  0  0  0  0  0  0  0
   35.7620   30.4370   31.9610 H   0  0  0  0  0  0  0  0  0  0  0  0
   34.5750   29.8960   33.6480 N   0  0  0  0  0  0  0  0  0  0  0  0
   33.3390   29.3910   33.4760 C   0  0  0  0  0  0  0  0  0  0  0  0
   33.1160   28.7900   32.6030 H   0  0  0  0  0  0  0  0  0  0  0  0
   32.5750   29.7770   34.5260 N   0  0  0  0  0  0  0  0  0  0  0  0
   33.3050   30.5160   35.3520 C   0  0  0  0  0  0  0  0  0  0  0  0
   32.9660   31.1330   36.5560 C   0  0  0  0  0  0  0  0  0  0  0  0
   33.9360   31.8320   37.1910 N   0  0  0  0  0  0  0  0  0  0  0  0
   35.1830   31.9080   36.6480 C   0  0  0  0  0  0  0  0  0  0  0  0
   35.9820   32.4560   37.1250 H   0  0  0  0  0  0  0  0  0  0  0  0
   35.5190   31.3160   35.4870 N   0  0  0  0  0  0  0  0  0  0  0  0
   34.5780   30.6000   34.8110 C   0  0  0  0  0  0  0  0  0  0  0  0
   31.6500   31.0380   37.1050 N   0  0  0  0  0  0  0  0  0  0  0  0
   31.7610   30.6390   38.0810 H   0  0  0  0  0  0  0  0  0  0  0  0
   30.8110   31.3360   36.5500 H   0  0  0  0  0  0  0  0  0  0  0  0
  1  6  2  0  0  0  0
  1  2  1  0  0  0  0
  2  3  2  0  0  0  0
  3  4  1  0  0  0  0
  3  8  1  0  0  0  0
  5 23  1  0  0  0  0
  5  4  2  0  0  0  0
  6  5  1  0  0  0  0
  7  1  1  0  0  0  0
  9 10  1  0  0  0  0
 10  2  1  0  0  0  0
 11 10  2  0  0  0  0
 11 19  1  0  0  0  0
 12 11  1  0  0  0  0
 13 12  1  0  0  0  0
 13 20  1  0  0  0  0
 14 13  1  0  0  0  0
 15 14  2  0  0  0  0
 15 16  1  0  0  0  0
 16 17  1  0  0  0  0
 16 12  2  0  0  0  0
 17  9  2  0  0  0  0
 18  9  1  0  0  0  0
 21 14  1  0  0  0  0
 22 17  1  0  0  0  0
 23 24  1  0  0  0  0
 23 26  1  0  0  0  0
 25 23  1  0  0  0  0
 26 36  1  0  0  0  0
 27 26  1  0  0  0  0
 27 29  2  0  0  0  0
 28 27  1  0  0  0  0
 29 30  1  0  0  0  0
 30 31  1  0  0  0  0
 31 37  1  0  0  0  0
 31 32  2  0  0  0  0
 33 34  1  0  0  0  0
 33 32  1  0  0  0  0
 35 33  2  0  0  0  0
 36 30  2  0  0  0  0
 36 35  1  0  0  0  0
 37 38  1  0  0  0  0
 39 37  1  0  0  0  0
M  END
>  <minimizedAffinity>
-5.94078398

$$$$

 OpenBabel03272501453D

 39 43  0  0  0  0  0  0  0  0999 V2000
   36.6310   28.0410   34.7480 C   0  0  0  0  0  0  0  0  0  0  0  0
   36.0800   28.9290   33.7770 C   0  0  0  0  0  0  0  0  0  0  0  0
   36.1280   28.5350   32.4450 C   0  0  0  0  0  0  0  0  0  0  0  0
   36.6920   27.3380   32.1520 N   0  0  0  0  0  0  0  0  0  0  0  0
   37.2060   26.5130   33.0780 C   0  0  0  0  0  0  0  0  0  0  0  0
   37.1710   26.8740   34.3750 N   0  0  0  0  0  0  0  0  0  0  0  0
   36.6940   28.1590   35.8160 H   0  0  0  0  0  0  0  0  0  0  0  0
   35.7070   29.2310   31.7700 H   0  0  0  0  0  0  0  0  0  0  0  0
   34.8350   30.9990   33.5110 C   0  0  0  0  0  0  0  0  0  0  0  0
   35.5330   30.1490   34.3380 C   0  0  0  0  0  0  0  0  0  0  0  0
   35.6680   30.5170   35.6730 C   0  0  0  0  0  0  0  0  0  0  0  0
   35.0980   31.7160   36.1050 C   0  0  0  0  0  0  0  0  0  0  0  0
   35.0610   32.3270   37.3030 N   0  0  0  0  0  0  0  0  0  0  0  0
   34.3780   33.4800   37.2030 C   0  0  0  0  0  0  0  0  0  0  0  0
   33.9660   33.6160   35.9130 N   0  0  0  0  0  0  0  0  0  0  0  0
   34.4100   32.5390   35.2540 C   0  0  0  0  0  0  0  0  0  0  0  0
   34.2750   32.1800   33.9470 C   0  0  0  0  0  0  0  0  0  0  0  0
   34.6600   30.8240   32.4360 H   0  0  0  0  0  0  0  0  0  0  0  0
   36.2040   29.8740   36.3270 H   0  0  0  0  0  0  0  0  0  0  0  0
   35.5140   31.9130   38.1450 H   0  0  0  0  0  0  0  0  0  0  0  0
   34.2160   34.1480   38.0490 H   0  0  0  0  0  0  0  0  0  0  0  0
   33.7170   32.8560   33.2780 H   0  0  0  0  0  0  0  0  0  0  0  0
   37.8000   25.2200   32.6250 C   0  0  0  0  0  0  0  0  0  0  0  0
   37.0300   24.4430   32.8570 H   0  0  0  0  0  0  0  0  0  0  0  0
   37.9390   25.1790   31.5400 H   0  0  0  0  0  0  0  0  0  0  0  0
   38.9960   24.9450   33.3770 N   0  0  0  0  0  0  0  0  0  0  0  0
   40.2300   25.4830   33.3400 C   0  0  0  0  0  0  0  0  0  0  0  0
   40.4530   26.2820   32.6420 H   0  0  0  0  0  0  0  0  0  0  0  0
   40.9930   24.8540   34.2670 N   0  0  0  0  0  0  0  0  0  0  0  0
   40.2630   23.9320   34.8830 C   0  0  0  0  0  0  0  0  0  0  0  0
   40.6010   23.0390   35.9000 C   0  0  0  0  0  0  0  0  0  0  0  0
   39.6330   22.2010   36.3390 N   0  0  0  0  0  0  0  0  0  0  0  0
   38.3890   22.2560   35.7860 C   0  0  0  0  0  0  0  0  0  0  0  0
   37.5910   21.6030   36.1110 H   0  0  0  0  0  0  0  0  0  0  0  0
   38.0540   23.1130   34.8050 N   0  0  0  0  0  0  0  0  0  0  0  0
   38.9930   23.9770   34.3300 C   0  0  0  0  0  0  0  0  0  0  0  0
   41.9150   23.0030   36.4620 N   0  0  0  0  0  0  0  0  0  0  0  0
   41.7980   23.1490   37.5060 H   0  0  0  0  0  0  0  0  0  0  0  0
   42.7580   22.8550   35.8550 H   0  0  0  0  0  0  0  0  0  0  0  0
  1  7  1  0  0  0  0
  2 10  1  0  0  0  0
  2  1  2  0  0  0  0
  3  2  1  0  0  0  0
  4  3  2  0  0  0  0
  4  5  1  0  0  0  0
  5  6  2  0  0  0  0
  6  1  1  0  0  0  0
  8  3  1  0  0  0  0
  9 17  2  0  0  0  0
  9 10  1  0  0  0  0
 10 11  2  0  0  0  0
 11 12  1  0  0  0  0
 11 19  1  0  0  0  0
 12 13  1  0  0  0  0
 13 20  1  0  0  0  0
 14 13  1  0  0  0  0
 14 21  1  0  0  0  0
 15 14  2  0  0  0  0
 16 15  1  0  0  0  0
 16 12  2  0  0  0  0
 17 16  1  0  0  0  0
 18  9  1  0  0  0  0
 22 17  1  0  0  0  0
 23 24  1  0  0  0  0
 23  5  1  0  0  0  0
 23 26  1  0  0  0  0
 25 23  1  0  0  0  0
 26 36  1  0  0  0  0
 27 26  1  0  0  0  0
 27 29  2  0  0  0  0
 28 27  1  0  0  0  0
 29 30  1  0  0  0  0
 30 31  1  0  0  0  0
 31 32  2  0  0  0  0
 31 37  1  0  0  0  0
 33 34  1  0  0  0  0
 33 32  1  0  0  0  0
 35 33  2  0  0  0  0
 36 35  1  0  0  0  0
 36 30  2  0  0  0  0
 37 38  1  0  0  0  0
 39 37  1  0  0  0  0
M  END
>  <minimizedAffinity>
-5.75853777

$$$$
