
 OpenBabel03272509023D

 46 50  0  0  0  0  0  0  0  0999 V2000
   37.2220   27.0700   50.1270 F   0  0  0  0  0  0  0  0  0  0  0  0
   37.5980   27.8650   51.1880 C   0  0  0  0  0  0  0  0  0  0  0  0
   36.8830   29.0150   51.5410 C   0  0  0  0  0  0  0  0  0  0  0  0
   37.3120   29.7390   52.6250 C   0  0  0  0  0  0  0  0  0  0  0  0
   38.4240   29.3530   53.3580 C   0  0  0  0  0  0  0  0  0  0  0  0
   39.1270   28.1910   52.9830 C   0  0  0  0  0  0  0  0  0  0  0  0
   38.7120   27.4300   51.8810 C   0  0  0  0  0  0  0  0  0  0  0  0
   36.7970   30.5940   53.0310 H   0  0  0  0  0  0  0  0  0  0  0  0
   38.8090   29.8790   54.2140 H   0  0  0  0  0  0  0  0  0  0  0  0
   39.9850   27.8760   53.5320 H   0  0  0  0  0  0  0  0  0  0  0  0
   39.4260   26.2580   51.5120 N   0  0  0  0  0  0  0  0  0  0  0  0
   39.9250   26.0000   50.2700 C   0  0  0  0  0  0  0  0  0  0  0  0
   39.8240   26.6680   49.4330 H   0  0  0  0  0  0  0  0  0  0  0  0
   40.5370   24.7840   50.3270 N   0  0  0  0  0  0  0  0  0  0  0  0
   40.4180   24.3090   51.5750 C   0  0  0  0  0  0  0  0  0  0  0  0
   40.8030   23.1760   52.2620 C   0  0  0  0  0  0  0  0  0  0  0  0
   40.5200   22.9770   53.5780 N   0  0  0  0  0  0  0  0  0  0  0  0
   39.8270   23.9250   54.2680 C   0  0  0  0  0  0  0  0  0  0  0  0
   39.6720   23.6490   55.2870 H   0  0  0  0  0  0  0  0  0  0  0  0
   39.4260   25.0510   53.6490 N   0  0  0  0  0  0  0  0  0  0  0  0
   39.7140   25.2280   52.3530 C   0  0  0  0  0  0  0  0  0  0  0  0
   41.5270   22.1830   51.5460 N   0  0  0  0  0  0  0  0  0  0  0  0
   42.5330   21.9030   51.3490 H   0  0  0  0  0  0  0  0  0  0  0  0
   40.8130   21.5450   51.0810 H   0  0  0  0  0  0  0  0  0  0  0  0
   35.7170   29.3820   50.7150 C   0  0  0  0  0  0  0  0  0  0  0  0
   34.9880   28.5640   50.6180 H   0  0  0  0  0  0  0  0  0  0  0  0
   35.2350   30.2730   51.2040 H   0  0  0  0  0  0  0  0  0  0  0  0
   37.7130   31.6430   50.7210 Cl  0  0  0  0  0  0  0  0  0  0  0  0
   37.0580   30.8800   49.3220 C   0  0  0  0  0  0  0  0  0  0  0  0
   37.4550   31.3120   48.0640 C   0  0  0  0  0  0  0  0  0  0  0  0
   36.9570   30.7390   46.9200 C   0  0  0  0  0  0  0  0  0  0  0  0
   36.0410   29.7140   46.9930 C   0  0  0  0  0  0  0  0  0  0  0  0
   35.6210   29.2570   48.2260 C   0  0  0  0  0  0  0  0  0  0  0  0
   34.4570   27.9660   48.4580 Cl  0  0  0  0  0  0  0  0  0  0  0  0
   36.1470   29.8610   49.3550 C   0  0  0  0  0  0  0  0  0  0  0  0
   37.2980   31.1110   45.9680 H   0  0  0  0  0  0  0  0  0  0  0  0
   35.6230   29.2360   46.1290 H   0  0  0  0  0  0  0  0  0  0  0  0
   39.4890   34.2580   48.8520 C   0  0  0  0  0  0  0  0  0  0  0  0
   40.2900   34.4100   47.7230 C   0  0  0  0  0  0  0  0  0  0  0  0
   40.1160   33.4700   46.6720 C   0  0  0  0  0  0  0  0  0  0  0  0
   39.1870   32.5000   46.8460 N   0  0  0  0  0  0  0  0  0  0  0  0
   38.4220   32.3900   47.9730 C   0  0  0  0  0  0  0  0  0  0  0  0
   38.5880   33.2740   48.9570 N   0  0  0  0  0  0  0  0  0  0  0  0
   39.6030   34.9630   49.6660 H   0  0  0  0  0  0  0  0  0  0  0  0
   41.0240   35.1950   47.6110 H   0  0  0  0  0  0  0  0  0  0  0  0
   40.7010   33.5210   45.7640 H   0  0  0  0  0  0  0  0  0  0  0  0
  1  2  1  0  0  0  0
  2  3  2  0  0  0  0
  2  7  1  0  0  0  0
  3  4  1  0  0  0  0
  4  8  1  0  0  0  0
  4  5  2  0  0  0  0
  5  9  1  0  0  0  0
  6  5  1  0  0  0  0
  6 10  1  0  0  0  0
  7  6  2  0  0  0  0
 11  7  1  0  0  0  0
 11 21  1  0  0  0  0
 12 14  2  0  0  0  0
 12 11  1  0  0  0  0
 13 12  1  0  0  0  0
 14 15  1  0  0  0  0
 15 16  2  0  0  0  0
 15 21  1  0  0  0  0
 16 17  1  0  0  0  0
 17 18  2  0  0  0  0
 18 19  1  0  0  0  0
 20 18  1  0  0  0  0
 21 20  2  0  0  0  0
 22 16  1  0  0  0  0
 23 22  1  0  0  0  0
 24 22  1  0  0  0  0
 25 27  1  0  0  0  0
 25  3  1  0  0  0  0
 26 25  1  0  0  0  0
 29 35  1  0  0  0  0
 29 28  1  0  0  0  0
 30 29  2  0  0  0  0
 31 32  2  0  0  0  0
 31 30  1  0  0  0  0
 32 33  1  0  0  0  0
 33 34  1  0  0  0  0
 33 35  2  0  0  0  0
 35 25  1  0  0  0  0
 36 31  1  0  0  0  0
 37 32  1  0  0  0  0
 38 43  1  0  0  0  0
 38 44  1  0  0  0  0
 39 38  2  0  0  0  0
 40 41  2  0  0  0  0
 40 39  1  0  0  0  0
 41 42  1  0  0  0  0
 42 30  1  0  0  0  0
 42 43  2  0  0  0  0
 45 39  1  0  0  0  0
 46 40  1  0  0  0  0
M  END
>  <minimizedAffinity>
2.01706958

>  <minimizedRMSD>
3.55157471

$$$$
