
 OpenBabel03272507133D

 41 45  0  0  0  0  0  0  0  0999 V2000
   35.8100   29.1540   49.8360 C   0  0  0  0  0  0  0  0  0  0  0  0
   34.7690   29.6220   50.5770 C   0  0  0  0  0  0  0  0  0  0  0  0
   33.6110   29.0210   50.0710 C   0  0  0  0  0  0  0  0  0  0  0  0
   34.0400   28.1990   49.0180 C   0  0  0  0  0  0  0  0  0  0  0  0
   35.3310   28.3270   48.9400 O   0  0  0  0  0  0  0  0  0  0  0  0
   34.7910   30.3200   51.4020 H   0  0  0  0  0  0  0  0  0  0  0  0
   32.6330   29.2210   50.4830 H   0  0  0  0  0  0  0  0  0  0  0  0
   33.5360   26.4210   47.3540 C   0  0  0  0  0  0  0  0  0  0  0  0
   33.1080   27.4020   48.2380 C   0  0  0  0  0  0  0  0  0  0  0  0
   31.7740   27.6600   48.4160 C   0  0  0  0  0  0  0  0  0  0  0  0
   30.8490   26.9290   47.7030 C   0  0  0  0  0  0  0  0  0  0  0  0
   29.5090   26.9580   47.6730 N   0  0  0  0  0  0  0  0  0  0  0  0
   29.0890   26.0370   46.8080 N   0  0  0  0  0  0  0  0  0  0  0  0
   30.1760   25.4200   46.2860 C   0  0  0  0  0  0  0  0  0  0  0  0
   31.3140   25.9610   46.8320 C   0  0  0  0  0  0  0  0  0  0  0  0
   32.6560   25.6800   46.6310 C   0  0  0  0  0  0  0  0  0  0  0  0
   34.6140   26.2630   47.2550 H   0  0  0  0  0  0  0  0  0  0  0  0
   31.3550   28.4190   49.0970 H   0  0  0  0  0  0  0  0  0  0  0  0
   28.8850   27.5820   48.2220 H   0  0  0  0  0  0  0  0  0  0  0  0
   30.1110   24.6170   45.5440 H   0  0  0  0  0  0  0  0  0  0  0  0
   32.9800   24.9200   45.9440 H   0  0  0  0  0  0  0  0  0  0  0  0
   37.1770   29.5680   50.0840 C   0  0  0  0  0  0  0  0  0  0  0  0
   37.8370   28.9810   50.9840 O   0  0  0  0  0  0  0  0  0  0  0  0
   37.7060   30.6350   49.2790 C   0  0  0  0  0  0  0  0  0  0  0  0
   37.7520   31.8980   49.8540 C   0  0  0  0  0  0  0  0  0  0  0  0
   38.2570   32.9630   49.1060 C   0  0  0  0  0  0  0  0  0  0  0  0
   38.6770   32.6910   47.8480 N   0  0  0  0  0  0  0  0  0  0  0  0
   38.6270   31.4730   47.3100 C   0  0  0  0  0  0  0  0  0  0  0  0
   38.1410   30.4670   48.0370 N   0  0  0  0  0  0  0  0  0  0  0  0
   37.4070   32.0590   50.8530 H   0  0  0  0  0  0  0  0  0  0  0  0
   38.3220   33.9630   49.4870 H   0  0  0  0  0  0  0  0  0  0  0  0
   40.3440   33.5970   46.2110 Cl  0  0  0  0  0  0  0  0  0  0  0  0
   39.9050   32.1580   45.3210 C   0  0  0  0  0  0  0  0  0  0  0  0
   39.0910   31.2340   45.9490 C   0  0  0  0  0  0  0  0  0  0  0  0
   38.7320   30.0910   45.2640 C   0  0  0  0  0  0  0  0  0  0  0  0
   38.0910   29.3320   45.7160 H   0  0  0  0  0  0  0  0  0  0  0  0
   39.1890   29.8810   43.9590 C   0  0  0  0  0  0  0  0  0  0  0  0
   40.0010   30.8380   43.3840 C   0  0  0  0  0  0  0  0  0  0  0  0
   40.6230   30.6530   41.7380 Cl  0  0  0  0  0  0  0  0  0  0  0  0
   40.3830   31.9950   44.0320 C   0  0  0  0  0  0  0  0  0  0  0  0
   41.0220   32.7480   43.5740 H   0  0  0  0  0  0  0  0  0  0  0  0
  1 22  1  0  0  0  0
  1  2  2  0  0  0  0
  2  6  1  0  0  0  0
  3  7  1  0  0  0  0
  3  2  1  0  0  0  0
  4  3  2  0  0  0  0
  5  4  1  0  0  0  0
  5  1  1  0  0  0  0
  8  9  1  0  0  0  0
  9 10  2  0  0  0  0
  9  4  1  0  0  0  0
 10 18  1  0  0  0  0
 11 10  1  0  0  0  0
 12 11  1  0  0  0  0
 12 19  1  0  0  0  0
 13 12  1  0  0  0  0
 14 13  2  0  0  0  0
 14 15  1  0  0  0  0
 15 11  2  0  0  0  0
 16 15  1  0  0  0  0
 16  8  2  0  0  0  0
 17  8  1  0  0  0  0
 20 14  1  0  0  0  0
 21 16  1  0  0  0  0
 22 23  2  0  0  0  0
 24 25  1  0  0  0  0
 24 22  1  0  0  0  0
 25 30  1  0  0  0  0
 26 31  1  0  0  0  0
 26 25  2  0  0  0  0
 27 26  1  0  0  0  0
 28 27  2  0  0  0  0
 28 29  1  0  0  0  0
 29 24  2  0  0  0  0
 33 34  1  0  0  0  0
 33 32  1  0  0  0  0
 34 28  1  0  0  0  0
 35 36  1  0  0  0  0
 35 34  2  0  0  0  0
 37 35  1  0  0  0  0
 38 37  2  0  0  0  0
 38 40  1  0  0  0  0
 39 38  1  0  0  0  0
 40 33  2  0  0  0  0
 41 40  1  0  0  0  0
M  END
>  <minimizedAffinity>
-7.66584063

>  <minimizedRMSD>
0.476062059

$$$$
