
 OpenBabel03272504203D

 28 29  0  0  0  0  0  0  0  0999 V2000
   35.3210   28.3170   49.5690 O   0  0  0  0  0  0  0  0  0  0  0  0
   34.2230   29.2840   49.1790 P   0  0  2  0  0  0  0  0  0  0  0  0
   33.3740   29.6700   50.6150 O   0  0  0  0  0  0  0  0  0  0  0  0
   33.9430   30.2980   51.1330 H   0  0  0  0  0  0  0  0  0  0  0  0
   33.1540   28.5550   48.0810 O   0  0  0  0  0  0  0  0  0  0  0  0
   33.3790   27.2000   48.1110 C   0  0  0  0  0  0  0  0  0  0  0  0
   32.4080   26.6880   48.3620 H   0  0  0  0  0  0  0  0  0  0  0  0
   34.1200   26.8990   48.9050 H   0  0  0  0  0  0  0  0  0  0  0  0
   33.8090   26.6480   46.8060 C   0  0  0  0  0  0  0  0  0  0  0  0
   33.8330   27.5160   45.7100 C   0  0  0  0  0  0  0  0  0  0  0  0
   34.2350   27.0250   44.4600 C   0  0  0  0  0  0  0  0  0  0  0  0
   34.5870   25.6970   44.3930 N   0  0  0  0  0  0  0  0  0  0  0  0
   34.5490   24.8960   45.4690 C   0  0  0  0  0  0  0  0  0  0  0  0
   34.1680   25.3520   46.6660 N   0  0  0  0  0  0  0  0  0  0  0  0
   33.5430   28.5380   45.8460 H   0  0  0  0  0  0  0  0  0  0  0  0
   34.2580   27.6810   43.6090 H   0  0  0  0  0  0  0  0  0  0  0  0
   34.8390   23.8600   45.3470 H   0  0  0  0  0  0  0  0  0  0  0  0
   34.9170   30.6630   48.5150 O   0  0  0  0  0  0  0  0  0  0  0  0
   37.0380   31.6120   50.2640 Cl  0  0  0  0  0  0  0  0  0  0  0  0
   37.1480   31.1720   48.5570 C   0  0  0  0  0  0  0  0  0  0  0  0
   36.0790   30.7210   47.7740 C   0  0  0  0  0  0  0  0  0  0  0  0
   36.3160   30.4150   46.4530 C   0  0  0  0  0  0  0  0  0  0  0  0
   35.4350   30.0810   45.9430 H   0  0  0  0  0  0  0  0  0  0  0  0
   37.5720   30.5510   45.9190 C   0  0  0  0  0  3  0  0  0  0  0  0
   38.6530   30.9990   46.6810 C   0  0  0  0  0  0  0  0  0  0  0  0
   40.2350   31.1570   45.9610 Cl  0  0  0  0  0  0  0  0  0  0  0  0
   38.4200   31.3080   48.0090 C   0  0  0  0  0  0  0  0  0  0  0  0
   39.2770   31.6520   48.5700 H   0  0  0  0  0  0  0  0  0  0  0  0
  2  1  2  1  0  0  0
  2  3  1  0  0  0  0
  3  4  1  0  0  0  0
  5  6  1  0  0  0  0
  5  2  1  0  0  0  0
  6  7  1  0  0  0  0
  6  8  1  0  0  0  0
  9  6  1  0  0  0  0
 10 15  1  0  0  0  0
 10  9  2  0  0  0  0
 11 10  1  0  0  0  0
 12 11  2  0  0  0  0
 12 13  1  0  0  0  0
 13 14  2  0  0  0  0
 14  9  1  0  0  0  0
 16 11  1  0  0  0  0
 17 13  1  0  0  0  0
 18  2  1  0  0  0  0
 20 19  1  0  0  0  0
 21 18  1  0  0  0  0
 21 20  2  0  0  0  0
 22 21  1  0  0  0  0
 23 22  1  0  0  0  0
 24 22  2  0  0  0  0
 24 25  1  0  0  0  0
 25 27  2  0  0  0  0
 26 25  1  0  0  0  0
 27 20  1  0  0  0  0
 27 28  1  0  0  0  0
M  END
>  <minimizedAffinity>
-4.546556

>  <minimizedRMSD>
4.6871953

$$$$
