
 OpenBabel03272503413D

 42 45  0  0  1  0  0  0  0  0999 V2000
   39.7770   31.5250   41.7070 C   0  0  2  0  0  0  0  0  0  0  0  0
   39.3800   32.6160   42.7290 C   0  0  1  0  0  0  0  0  0  0  0  0
   38.1270   33.1020   42.0760 C   0  0  0  0  0  0  0  0  0  0  0  0
   38.3260   33.0560   40.7180 O   0  0  0  0  0  0  0  0  0  0  0  0
   39.4480   32.3410   40.4380 C   0  0  0  0  0  0  0  0  0  0  0  0
   40.8420   31.3130   41.7660 H   0  0  0  0  0  0  0  0  0  0  0  0
   40.1220   33.4140   42.7790 H   0  0  0  0  0  0  0  0  0  0  0  0
   37.2710   32.4480   42.3670 H   0  0  0  0  0  0  0  0  0  0  0  0
   37.8820   34.1070   42.4400 H   0  0  0  0  0  0  0  0  0  0  0  0
   39.2450   31.6430   39.5990 H   0  0  0  0  0  0  0  0  0  0  0  0
   40.2960   33.0200   40.1870 H   0  0  0  0  0  0  0  0  0  0  0  0
   38.2490   31.2530   45.8610 C   0  0  0  0  0  0  0  0  0  0  0  0
   39.5950   31.0730   45.9910 C   0  0  0  0  0  0  0  0  0  0  0  0
   40.1400   31.5750   44.8110 C   0  0  0  0  0  0  0  0  0  0  0  0
   39.1540   32.0300   44.0250 N   0  0  0  0  0  0  0  0  0  0  0  0
   38.0010   31.8350   44.6640 N   0  0  0  0  0  0  0  0  0  0  0  0
   40.1130   30.6270   46.8430 H   0  0  0  0  0  0  0  0  0  0  0  0
   41.2320   31.5380   44.6790 H   0  0  0  0  0  0  0  0  0  0  0  0
   36.4470   30.6050   49.0810 C   0  0  0  0  0  0  0  0  0  0  0  0
   37.4420   30.9720   48.1970 C   0  0  0  0  0  0  0  0  0  0  0  0
   37.2490   30.8860   46.8370 C   0  0  0  0  0  0  0  0  0  0  0  0
   36.0460   30.4300   46.4230 N   0  0  0  0  0  0  0  0  0  0  0  0
   35.0720   30.0710   47.3090 C   0  0  0  0  0  0  0  0  0  0  0  0
   35.2550   30.1530   48.6070 N   0  0  0  0  0  0  0  0  0  0  0  0
   38.4280   31.3450   48.4900 H   0  0  0  0  0  0  0  0  0  0  0  0
   34.1090   29.7060   46.9500 H   0  0  0  0  0  0  0  0  0  0  0  0
   36.8330   30.7620   50.4180 O   0  0  0  0  0  0  0  0  0  0  0  0
   36.8820   29.6920   51.3340 C   0  0  0  0  0  0  0  0  0  0  0  0
   35.6190   29.2270   51.6700 F   0  0  0  0  0  0  0  0  0  0  0  0
   37.5700   30.0930   52.4450 F   0  0  0  0  0  0  0  0  0  0  0  0
   37.6050   28.6650   50.7540 F   0  0  0  0  0  0  0  0  0  0  0  0
   38.8710   30.5230   41.8440 O   0  0  0  0  0  0  0  0  0  0  0  0
   41.5150   28.8940   41.9860 Cl  0  0  0  0  0  0  0  0  0  0  0  0
   39.9190   28.2750   42.2970 C   0  0  0  0  0  0  0  0  0  0  0  0
   38.9240   29.2160   42.1620 C   0  0  0  0  0  0  0  0  0  0  0  0
   37.6300   28.7290   42.4100 C   0  0  0  0  0  0  0  0  0  0  0  0
   36.6840   29.2950   42.3640 H   0  0  0  0  0  0  0  0  0  0  0  0
   37.3690   27.4190   42.7600 C   0  0  0  0  0  3  0  0  0  0  0  0
   38.4280   26.5400   42.8730 C   0  0  0  0  0  0  0  0  0  0  0  0
   38.2080   24.8620   43.3090 Cl  0  0  0  0  0  0  0  0  0  0  0  0
   39.7130   26.9710   42.6400 C   0  0  0  0  0  0  0  0  0  0  0  0
   40.5820   26.3410   42.7100 H   0  0  0  0  0  0  0  0  0  0  0  0
  1  6  1  1  0  0  0
  1 32  1  0  0  0  0
  1  2  1  0  0  0  0
  2  7  1  1  0  0  0
  2 15  1  0  0  0  0
  3  8  1  0  0  0  0
  3  9  1  0  0  0  0
  3  2  1  0  0  0  0
  4  3  1  0  0  0  0
  5  4  1  0  0  0  0
  5  1  1  0  0  0  0
 10  5  1  0  0  0  0
 11  5  1  0  0  0  0
 12 13  1  0  0  0  0
 12 21  1  0  0  0  0
 13 17  1  0  0  0  0
 14 13  2  0  0  0  0
 15 16  1  0  0  0  0
 15 14  1  0  0  0  0
 16 12  2  0  0  0  0
 18 14  1  0  0  0  0
 19 27  1  0  0  0  0
 20 25  1  0  0  0  0
 20 19  2  0  0  0  0
 21 20  1  0  0  0  0
 22 21  2  0  0  0  0
 22 23  1  0  0  0  0
 23 24  2  0  0  0  0
 24 19  1  0  0  0  0
 26 23  1  0  0  0  0
 27 28  1  0  0  0  0
 28 29  1  0  0  0  0
 28 30  1  0  0  0  0
 31 28  1  0  0  0  0
 32 35  1  0  0  0  0
 33 34  1  0  0  0  0
 34 41  1  0  0  0  0
 35 34  2  0  0  0  0
 35 36  1  0  0  0  0
 36 38  2  0  0  0  0
 37 36  1  0  0  0  0
 38 39  1  0  0  0  0
 39 40  1  0  0  0  0
 41 42  1  0  0  0  0
 41 39  2  0  0  0  0
M  END
>  <minimizedAffinity>
-6.59310293

>  <minimizedRMSD>
0.809347749

$$$$
