
 OpenBabel03272509103D

 41 44  0  0  0  0  0  0  0  0999 V2000
   35.5550   28.5100   32.2270 C   0  0  0  0  0  0  0  0  0  0  0  0
   35.0090   28.0170   31.3870 H   0  0  0  0  0  0  0  0  0  0  0  0
   34.8000   28.6970   32.9970 H   0  0  0  0  0  0  0  0  0  0  0  0
   36.0930   29.7700   31.6620 C   0  0  0  0  0  0  0  0  0  0  0  0
   36.8750   29.8570   30.5320 C   0  0  0  0  0  0  0  0  0  0  0  0
   37.3420   31.0600   30.0580 C   0  0  0  0  0  0  0  0  0  0  0  0
   37.0330   32.2530   30.7220 C   0  0  0  0  0  0  0  0  0  0  0  0
   36.2560   32.1860   31.8500 C   0  0  0  0  0  0  0  0  0  0  0  0
   35.8040   30.9610   32.2950 C   0  0  0  0  0  0  0  0  0  0  0  0
   37.0960   28.9100   30.0390 H   0  0  0  0  0  0  0  0  0  0  0  0
   37.9420   30.9870   29.1660 H   0  0  0  0  0  0  0  0  0  0  0  0
   37.4760   33.1040   30.2230 H   0  0  0  0  0  0  0  0  0  0  0  0
   36.0590   33.1260   32.3060 H   0  0  0  0  0  0  0  0  0  0  0  0
   32.7620   30.8630   32.0700 Cl  0  0  0  0  0  0  0  0  0  0  0  0
   33.5980   31.0190   33.5900 C   0  0  0  0  0  0  0  0  0  0  0  0
   34.9800   31.0480   33.5180 C   0  0  0  0  0  0  0  0  0  0  0  0
   35.7660   31.1700   34.6690 C   0  0  0  0  0  0  0  0  0  0  0  0
   36.8450   31.1980   34.6750 H   0  0  0  0  0  0  0  0  0  0  0  0
   35.0930   31.2590   35.8780 C   0  0  0  0  0  3  0  0  0  0  0  0
   33.7260   31.2340   35.9980 C   0  0  0  0  0  0  0  0  0  0  0  0
   32.8990   31.3490   37.5370 Cl  0  0  0  0  0  0  0  0  0  0  0  0
   33.0070   31.1130   34.8340 C   0  0  0  0  0  0  0  0  0  0  0  0
   31.9070   31.0840   34.8380 H   0  0  0  0  0  0  0  0  0  0  0  0
   37.1590   27.4890   33.8280 C   0  0  0  0  0  3  0  0  0  0  0  0
   36.6040   27.5740   32.6620 C   0  0  0  0  0  3  0  0  0  0  0  0
   40.0790   25.3390   33.3840 C   0  0  0  0  0  0  0  0  0  0  0  0
   40.0400   24.5530   34.5460 C   0  0  0  0  0  0  0  0  0  0  0  0
   38.9900   24.7840   35.4710 C   0  0  0  0  0  0  0  0  0  0  0  0
   38.0690   25.7670   35.1780 N   0  0  0  0  0  0  0  0  0  0  0  0
   38.1840   26.4790   34.0340 C   0  0  0  0  0  0  0  0  0  0  0  0
   39.1700   26.2670   33.1570 N   0  0  0  0  0  0  0  0  0  0  0  0
   40.9110   25.0940   32.7390 H   0  0  0  0  0  0  0  0  0  0  0  0
   40.7110   23.7650   34.8600 H   0  0  0  0  0  0  0  0  0  0  0  0
   38.8430   24.0270   36.7200 C   0  0  0  0  0  0  0  0  0  0  0  0
   37.8220   24.2570   37.6060 C   0  0  0  0  0  0  0  0  0  0  0  0
   37.9930   23.3640   38.6700 C   0  0  0  0  0  0  0  0  0  0  0  0
   39.1020   22.6340   38.3840 N   0  0  0  0  0  0  0  0  0  0  0  0
   39.6120   23.0320   37.2110 N   0  0  0  0  0  0  0  0  0  0  0  0
   37.0100   24.9810   37.5490 H   0  0  0  0  0  0  0  0  0  0  0  0
   37.4160   23.2200   39.5590 H   0  0  0  0  0  0  0  0  0  0  0  0
   39.5950   21.8630   38.8890 H   0  0  0  0  0  0  0  0  0  0  0  0
  1 25  1  0  0  0  0
  1  3  1  0  0  0  0
  2  1  1  0  0  0  0
  4  1  1  0  0  0  0
  4  9  1  0  0  0  0
  5  4  2  0  0  0  0
  6  5  1  0  0  0  0
  6  7  2  0  0  0  0
  7  8  1  0  0  0  0
  8  9  2  0  0  0  0
  8 13  1  0  0  0  0
  9 16  1  0  0  0  0
 10  5  1  0  0  0  0
 11  6  1  0  0  0  0
 12  7  1  0  0  0  0
 14 15  1  0  0  0  0
 15 22  1  0  0  0  0
 16 15  2  0  0  0  0
 16 17  1  0  0  0  0
 17 18  1  0  0  0  0
 17 19  2  0  0  0  0
 19 20  1  0  0  0  0
 20 21  1  0  0  0  0
 22 23  1  0  0  0  0
 22 20  2  0  0  0  0
 24 30  1  0  0  0  0
 25 24  2  0  0  0  0
 26 27  1  0  0  0  0
 27 33  1  0  0  0  0
 27 28  2  0  0  0  0
 28 34  1  0  0  0  0
 29 28  1  0  0  0  0
 30 29  2  0  0  0  0
 31 26  2  0  0  0  0
 31 30  1  0  0  0  0
 32 26  1  0  0  0  0
 34 38  2  0  0  0  0
 34 35  1  0  0  0  0
 35 36  2  0  0  0  0
 36 40  1  0  0  0  0
 37 36  1  0  0  0  0
 37 41  1  0  0  0  0
 38 37  1  0  0  0  0
 39 35  1  0  0  0  0
M  END
>  <minimizedAffinity>
-6.55066442

$$$$

 OpenBabel03272509103D

 41 44  0  0  0  0  0  0  0  0999 V2000
   38.4070   26.4520   31.9130 C   0  0  0  0  0  0  0  0  0  0  0  0
   38.2290   25.7160   32.7340 H   0  0  0  0  0  0  0  0  0  0  0  0
   38.2730   25.8910   30.9820 H   0  0  0  0  0  0  0  0  0  0  0  0
   39.8070   26.9060   32.0880 C   0  0  0  0  0  0  0  0  0  0  0  0
   40.5560   27.5460   31.1260 C   0  0  0  0  0  0  0  0  0  0  0  0
   41.8510   27.9430   31.3530 C   0  0  0  0  0  0  0  0  0  0  0  0
   42.4600   27.7050   32.5920 C   0  0  0  0  0  0  0  0  0  0  0  0
   41.7300   27.0680   33.5630 C   0  0  0  0  0  0  0  0  0  0  0  0
   40.4320   26.6850   33.2980 C   0  0  0  0  0  0  0  0  0  0  0  0
   40.0510   27.7160   30.1740 H   0  0  0  0  0  0  0  0  0  0  0  0
   42.3230   28.4320   30.5170 H   0  0  0  0  0  0  0  0  0  0  0  0
   43.4760   28.0770   32.6050 H   0  0  0  0  0  0  0  0  0  0  0  0
   42.2510   26.9180   34.4770 H   0  0  0  0  0  0  0  0  0  0  0  0
   40.5010   23.6400   33.4930 Cl  0  0  0  0  0  0  0  0  0  0  0  0
   39.7150   24.6500   34.6740 C   0  0  0  0  0  0  0  0  0  0  0  0
   39.7750   26.0130   34.4380 C   0  0  0  0  0  0  0  0  0  0  0  0
   39.1830   26.9300   35.3130 C   0  0  0  0  0  0  0  0  0  0  0  0
   39.1960   28.0010   35.1810 H   0  0  0  0  0  0  0  0  0  0  0  0
   38.5360   26.4060   36.4220 C   0  0  0  0  0  3  0  0  0  0  0  0
   38.4510   25.0640   36.6970 C   0  0  0  0  0  0  0  0  0  0  0  0
   37.6290   24.4270   38.1050 Cl  0  0  0  0  0  0  0  0  0  0  0  0
   39.0520   24.2120   35.8030 C   0  0  0  0  0  0  0  0  0  0  0  0
   39.0330   23.1220   35.9460 H   0  0  0  0  0  0  0  0  0  0  0  0
   36.6470   27.7430   33.1020 C   0  0  0  0  0  3  0  0  0  0  0  0
   37.4200   27.5300   32.0860 C   0  0  0  0  0  3  0  0  0  0  0  0
   34.3380   30.3190   31.9300 C   0  0  0  0  0  0  0  0  0  0  0  0
   34.0650   31.0240   33.1130 C   0  0  0  0  0  0  0  0  0  0  0  0
   34.6940   30.5880   34.3070 C   0  0  0  0  0  0  0  0  0  0  0  0
   35.5360   29.4990   34.2400 N   0  0  0  0  0  0  0  0  0  0  0  0
   35.7420   28.8780   33.0570 C   0  0  0  0  0  0  0  0  0  0  0  0
   35.1540   29.2830   31.9260 N   0  0  0  0  0  0  0  0  0  0  0  0
   33.8180   30.7210   31.0720 H   0  0  0  0  0  0  0  0  0  0  0  0
   33.4250   31.8830   33.2640 H   0  0  0  0  0  0  0  0  0  0  0  0
   34.4870   31.2430   35.6050 C   0  0  0  0  0  0  0  0  0  0  0  0
   33.2390   31.4530   36.1350 C   0  0  0  0  0  0  0  0  0  0  0  0
   33.4180   32.0920   37.3660 C   0  0  0  0  0  0  0  0  0  0  0  0
   34.7580   32.2420   37.5300 N   0  0  0  0  0  0  0  0  0  0  0  0
   35.4000   31.7310   36.4710 N   0  0  0  0  0  0  0  0  0  0  0  0
   32.2640   31.1950   35.7240 H   0  0  0  0  0  0  0  0  0  0  0  0
   32.7040   32.4270   38.0890 H   0  0  0  0  0  0  0  0  0  0  0  0
   35.3390   32.6600   38.2920 H   0  0  0  0  0  0  0  0  0  0  0  0
  1 25  1  0  0  0  0
  1  4  1  0  0  0  0
  1  2  1  0  0  0  0
  3  1  1  0  0  0  0
  4  9  1  0  0  0  0
  5  6  1  0  0  0  0
  5  4  2  0  0  0  0
  6  7  2  0  0  0  0
  7 12  1  0  0  0  0
  7  8  1  0  0  0  0
  8 13  1  0  0  0  0
  9  8  2  0  0  0  0
  9 16  1  0  0  0  0
 10  5  1  0  0  0  0
 11  6  1  0  0  0  0
 14 15  1  0  0  0  0
 15 22  1  0  0  0  0
 16 15  2  0  0  0  0
 16 17  1  0  0  0  0
 17 19  2  0  0  0  0
 18 17  1  0  0  0  0
 19 20  1  0  0  0  0
 20 21  1  0  0  0  0
 22 23  1  0  0  0  0
 22 20  2  0  0  0  0
 25 24  2  0  0  0  0
 26 27  1  0  0  0  0
 27 33  1  0  0  0  0
 27 28  2  0  0  0  0
 28 34  1  0  0  0  0
 29 28  1  0  0  0  0
 30 24  1  0  0  0  0
 30 29  2  0  0  0  0
 31 26  2  0  0  0  0
 31 30  1  0  0  0  0
 32 26  1  0  0  0  0
 34 35  1  0  0  0  0
 34 38  2  0  0  0  0
 35 36  2  0  0  0  0
 36 37  1  0  0  0  0
 36 40  1  0  0  0  0
 37 41  1  0  0  0  0
 38 37  1  0  0  0  0
 39 35  1  0  0  0  0
M  END
>  <minimizedAffinity>
-6.37791681

$$$$

 OpenBabel03272509103D

 41 44  0  0  0  0  0  0  0  0999 V2000
   37.8300   25.8690   35.3630 C   0  0  0  0  0  0  0  0  0  0  0  0
   38.0240   26.0260   36.4520 H   0  0  0  0  0  0  0  0  0  0  0  0
   37.2670   24.9330   35.2970 H   0  0  0  0  0  0  0  0  0  0  0  0
   39.1690   25.7550   34.7370 C   0  0  0  0  0  0  0  0  0  0  0  0
   40.2120   26.6310   34.9390 C   0  0  0  0  0  0  0  0  0  0  0  0
   41.4320   26.4670   34.3270 C   0  0  0  0  0  0  0  0  0  0  0  0
   41.6540   25.3860   33.4660 C   0  0  0  0  0  0  0  0  0  0  0  0
   40.6280   24.5040   33.2520 C   0  0  0  0  0  0  0  0  0  0  0  0
   39.4170   24.7000   33.8840 C   0  0  0  0  0  0  0  0  0  0  0  0
   40.0050   27.4600   35.6160 H   0  0  0  0  0  0  0  0  0  0  0  0
   42.1600   27.2230   34.5710 H   0  0  0  0  0  0  0  0  0  0  0  0
   42.6610   25.4040   33.0690 H   0  0  0  0  0  0  0  0  0  0  0  0
   40.8620   23.7070   32.5880 H   0  0  0  0  0  0  0  0  0  0  0  0
   39.1340   22.2490   35.6810 Cl  0  0  0  0  0  0  0  0  0  0  0  0
   38.1560   22.5060   34.2630 C   0  0  0  0  0  0  0  0  0  0  0  0
   38.4110   23.6690   33.5570 C   0  0  0  0  0  0  0  0  0  0  0  0
   37.6920   23.9910   32.4000 C   0  0  0  0  0  0  0  0  0  0  0  0
   37.8460   24.8810   31.8100 H   0  0  0  0  0  0  0  0  0  0  0  0
   36.7170   23.0890   32.0010 C   0  0  0  0  0  3  0  0  0  0  0  0
   36.4290   21.9250   32.6680 C   0  0  0  0  0  0  0  0  0  0  0  0
   35.1930   20.8020   32.1430 Cl  0  0  0  0  0  0  0  0  0  0  0  0
   37.1670   21.6630   33.7970 C   0  0  0  0  0  0  0  0  0  0  0  0
   37.0030   20.7530   34.3920 H   0  0  0  0  0  0  0  0  0  0  0  0
   36.8760   27.4220   33.6730 C   0  0  0  0  0  3  0  0  0  0  0  0
   37.0680   27.0370   34.8940 C   0  0  0  0  0  3  0  0  0  0  0  0
   34.9810   30.0900   32.0510 C   0  0  0  0  0  0  0  0  0  0  0  0
   34.5960   30.8790   33.1460 C   0  0  0  0  0  0  0  0  0  0  0  0
   35.0050   30.4670   34.4390 C   0  0  0  0  0  0  0  0  0  0  0  0
   35.7570   29.3170   34.5490 N   0  0  0  0  0  0  0  0  0  0  0  0
   36.0830   28.6160   33.4400 C   0  0  0  0  0  0  0  0  0  0  0  0
   35.7010   28.9980   32.2160 N   0  0  0  0  0  0  0  0  0  0  0  0
   34.6250   30.4790   31.1070 H   0  0  0  0  0  0  0  0  0  0  0  0
   34.0120   31.7900   33.1590 H   0  0  0  0  0  0  0  0  0  0  0  0
   34.6640   31.2090   35.6600 C   0  0  0  0  0  0  0  0  0  0  0  0
   33.3750   31.3440   36.1060 C   0  0  0  0  0  0  0  0  0  0  0  0
   33.4230   32.1010   37.2810 C   0  0  0  0  0  0  0  0  0  0  0  0
   34.7320   32.3910   37.4970 N   0  0  0  0  0  0  0  0  0  0  0  0
   35.4780   31.8540   36.5230 N   0  0  0  0  0  0  0  0  0  0  0  0
   32.4520   30.9600   35.6710 H   0  0  0  0  0  0  0  0  0  0  0  0
   32.6400   32.4270   37.9340 H   0  0  0  0  0  0  0  0  0  0  0  0
   35.2270   32.9260   38.2460 H   0  0  0  0  0  0  0  0  0  0  0  0
  1  2  1  0  0  0  0
  3  1  1  0  0  0  0
  4  5  1  0  0  0  0
  4  1  1  0  0  0  0
  5 10  1  0  0  0  0
  6 11  1  0  0  0  0
  6  5  2  0  0  0  0
  7  6  1  0  0  0  0
  8  7  2  0  0  0  0
  8  9  1  0  0  0  0
  9  4  2  0  0  0  0
 12  7  1  0  0  0  0
 13  8  1  0  0  0  0
 15 14  1  0  0  0  0
 16  9  1  0  0  0  0
 16 15  2  0  0  0  0
 17 16  1  0  0  0  0
 18 17  1  0  0  0  0
 19 17  2  0  0  0  0
 19 20  1  0  0  0  0
 20 22  2  0  0  0  0
 21 20  1  0  0  0  0
 22 15  1  0  0  0  0
 22 23  1  0  0  0  0
 24 25  2  0  0  0  0
 25  1  1  0  0  0  0
 26 31  2  0  0  0  0
 26 27  1  0  0  0  0
 27 33  1  0  0  0  0
 27 28  2  0  0  0  0
 28 29  1  0  0  0  0
 28 34  1  0  0  0  0
 30 24  1  0  0  0  0
 30 29  2  0  0  0  0
 31 30  1  0  0  0  0
 32 26  1  0  0  0  0
 34 35  1  0  0  0  0
 34 38  2  0  0  0  0
 35 36  2  0  0  0  0
 36 37  1  0  0  0  0
 36 40  1  0  0  0  0
 37 41  1  0  0  0  0
 38 37  1  0  0  0  0
 39 35  1  0  0  0  0
M  END
>  <minimizedAffinity>
-6.37559128

$$$$

 OpenBabel03272509103D

 41 44  0  0  0  0  0  0  0  0999 V2000
   35.9120   29.4250   34.5900 C   0  0  0  0  0  0  0  0  0  0  0  0
   35.9130   29.6970   35.6740 H   0  0  0  0  0  0  0  0  0  0  0  0
   36.6000   30.1290   34.1110 H   0  0  0  0  0  0  0  0  0  0  0  0
   34.5140   29.6220   34.1370 C   0  0  0  0  0  0  0  0  0  0  0  0
   33.3940   29.3020   34.8710 C   0  0  0  0  0  0  0  0  0  0  0  0
   32.1230   29.5100   34.3920 C   0  0  0  0  0  0  0  0  0  0  0  0
   31.9250   30.0630   33.1210 C   0  0  0  0  0  0  0  0  0  0  0  0
   33.0280   30.3880   32.3750 C   0  0  0  0  0  0  0  0  0  0  0  0
   34.2890   30.1640   32.8890 C   0  0  0  0  0  0  0  0  0  0  0  0
   33.5840   28.8740   35.8560 H   0  0  0  0  0  0  0  0  0  0  0  0
   31.3360   29.2160   35.0670 H   0  0  0  0  0  0  0  0  0  0  0  0
   30.8710   30.1600   32.8970 H   0  0  0  0  0  0  0  0  0  0  0  0
   32.8090   30.8020   31.4210 H   0  0  0  0  0  0  0  0  0  0  0  0
   35.4910   32.9610   33.1080 Cl  0  0  0  0  0  0  0  0  0  0  0  0
   36.0250   31.7860   31.9390 C   0  0  0  0  0  0  0  0  0  0  0  0
   35.3760   30.5640   31.9720 C   0  0  0  0  0  0  0  0  0  0  0  0
   35.7140   29.5360   31.0850 C   0  0  0  0  0  0  0  0  0  0  0  0
   35.2440   28.5650   31.0630 H   0  0  0  0  0  0  0  0  0  0  0  0
   36.7270   29.8040   30.1770 C   0  0  0  0  0  3  0  0  0  0  0  0
   37.3990   30.9990   30.1070 C   0  0  0  0  0  0  0  0  0  0  0  0
   38.6750   31.3130   28.9500 Cl  0  0  0  0  0  0  0  0  0  0  0  0
   37.0240   31.9700   31.0030 C   0  0  0  0  0  0  0  0  0  0  0  0
   37.5090   32.9570   31.0180 H   0  0  0  0  0  0  0  0  0  0  0  0
   37.2740   27.5330   33.7290 C   0  0  0  0  0  3  0  0  0  0  0  0
   36.3600   28.0260   34.5010 C   0  0  0  0  0  3  0  0  0  0  0  0
   37.7710   24.0200   32.8620 C   0  0  0  0  0  0  0  0  0  0  0  0
   38.1030   23.4590   34.1050 C   0  0  0  0  0  0  0  0  0  0  0  0
   38.1490   24.3170   35.2320 C   0  0  0  0  0  0  0  0  0  0  0  0
   37.8650   25.6530   35.0450 N   0  0  0  0  0  0  0  0  0  0  0  0
   37.5550   26.1100   33.8100 C   0  0  0  0  0  0  0  0  0  0  0  0
   37.5080   25.3060   32.7430 N   0  0  0  0  0  0  0  0  0  0  0  0
   37.7600   23.2930   32.0620 H   0  0  0  0  0  0  0  0  0  0  0  0
   38.3400   22.4310   34.3480 H   0  0  0  0  0  0  0  0  0  0  0  0
   38.4850   23.8480   36.5820 C   0  0  0  0  0  0  0  0  0  0  0  0
   38.0060   24.4560   37.7140 C   0  0  0  0  0  0  0  0  0  0  0  0
   38.5230   23.7530   38.8080 C   0  0  0  0  0  0  0  0  0  0  0  0
   39.2870   22.7540   38.2950 N   0  0  0  0  0  0  0  0  0  0  0  0
   39.2630   22.8110   36.9560 N   0  0  0  0  0  0  0  0  0  0  0  0
   37.3500   25.3210   37.8070 H   0  0  0  0  0  0  0  0  0  0  0  0
   38.3920   23.9030   39.8590 H   0  0  0  0  0  0  0  0  0  0  0  0
   39.8540   21.9940   38.7360 H   0  0  0  0  0  0  0  0  0  0  0  0
  1  2  1  0  0  0  0
  3  1  1  0  0  0  0
  4  1  1  0  0  0  0
  4  5  1  0  0  0  0
  5 10  1  0  0  0  0
  6  5  2  0  0  0  0
  6 11  1  0  0  0  0
  7  6  1  0  0  0  0
  8  9  1  0  0  0  0
  8  7  2  0  0  0  0
  9  4  2  0  0  0  0
 12  7  1  0  0  0  0
 13  8  1  0  0  0  0
 15 16  1  0  0  0  0
 15 14  1  0  0  0  0
 16  9  1  0  0  0  0
 17 16  2  0  0  0  0
 18 17  1  0  0  0  0
 19 17  1  0  0  0  0
 20 19  2  0  0  0  0
 20 22  1  0  0  0  0
 21 20  1  0  0  0  0
 22 23  1  0  0  0  0
 22 15  2  0  0  0  0
 24 30  1  0  0  0  0
 24 25  2  0  0  0  0
 25  1  1  0  0  0  0
 26 27  1  0  0  0  0
 27 33  1  0  0  0  0
 27 28  2  0  0  0  0
 28 34  1  0  0  0  0
 29 28  1  0  0  0  0
 30 29  2  0  0  0  0
 31 26  2  0  0  0  0
 31 30  1  0  0  0  0
 32 26  1  0  0  0  0
 34 38  2  0  0  0  0
 34 35  1  0  0  0  0
 35 39  1  0  0  0  0
 35 36  2  0  0  0  0
 36 40  1  0  0  0  0
 37 41  1  0  0  0  0
 37 36  1  0  0  0  0
 38 37  1  0  0  0  0
M  END
>  <minimizedAffinity>
-6.34117508

$$$$

 OpenBabel03272509103D

 41 44  0  0  0  0  0  0  0  0999 V2000
   36.2890   29.5340   34.8660 C   0  0  0  0  0  0  0  0  0  0  0  0
   36.2150   29.7180   35.9650 H   0  0  0  0  0  0  0  0  0  0  0  0
   37.0760   30.2050   34.5090 H   0  0  0  0  0  0  0  0  0  0  0  0
   34.9610   29.8950   34.3160 C   0  0  0  0  0  0  0  0  0  0  0  0
   33.9340   29.0070   34.0850 C   0  0  0  0  0  0  0  0  0  0  0  0
   32.7240   29.4070   33.5720 C   0  0  0  0  0  0  0  0  0  0  0  0
   32.4950   30.7530   33.2620 C   0  0  0  0  0  0  0  0  0  0  0  0
   33.5060   31.6520   33.4840 C   0  0  0  0  0  0  0  0  0  0  0  0
   34.7070   31.2140   34.0010 C   0  0  0  0  0  0  0  0  0  0  0  0
   34.1460   27.9670   34.3380 H   0  0  0  0  0  0  0  0  0  0  0  0
   32.0080   28.6130   33.4410 H   0  0  0  0  0  0  0  0  0  0  0  0
   31.4970   30.8990   32.8690 H   0  0  0  0  0  0  0  0  0  0  0  0
   33.2670   32.6560   33.2280 H   0  0  0  0  0  0  0  0  0  0  0  0
   35.1800   32.3620   36.7890 Cl  0  0  0  0  0  0  0  0  0  0  0  0
   36.0290   32.9210   35.3750 C   0  0  0  0  0  0  0  0  0  0  0  0
   35.6970   32.2950   34.1850 C   0  0  0  0  0  0  0  0  0  0  0  0
   36.3080   32.6530   32.9790 C   0  0  0  0  0  0  0  0  0  0  0  0
   36.0910   32.2020   32.0230 H   0  0  0  0  0  0  0  0  0  0  0  0
   37.2580   33.6620   33.0360 C   0  0  0  0  0  3  0  0  0  0  0  0
   37.6190   34.3100   34.1900 C   0  0  0  0  0  0  0  0  0  0  0  0
   38.8220   35.5820   34.2370 Cl  0  0  0  0  0  0  0  0  0  0  0  0
   36.9850   33.9160   35.3440 C   0  0  0  0  0  0  0  0  0  0  0  0
   37.2140   34.3810   36.3130 H   0  0  0  0  0  0  0  0  0  0  0  0
   37.2920   27.5610   33.7330 C   0  0  0  0  0  3  0  0  0  0  0  0
   36.6220   28.1100   34.6950 C   0  0  0  0  0  3  0  0  0  0  0  0
   37.5440   24.0480   32.7670 C   0  0  0  0  0  0  0  0  0  0  0  0
   37.9270   23.4420   33.9740 C   0  0  0  0  0  0  0  0  0  0  0  0
   38.0930   24.2710   35.1110 C   0  0  0  0  0  0  0  0  0  0  0  0
   37.8680   25.6240   34.9700 N   0  0  0  0  0  0  0  0  0  0  0  0
   37.5010   26.1240   33.7680 C   0  0  0  0  0  0  0  0  0  0  0  0
   37.3420   25.3490   32.6910 N   0  0  0  0  0  0  0  0  0  0  0  0
   37.4410   23.3410   31.9550 H   0  0  0  0  0  0  0  0  0  0  0  0
   38.1240   22.3980   34.1810 H   0  0  0  0  0  0  0  0  0  0  0  0
   38.4910   23.7550   36.4270 C   0  0  0  0  0  0  0  0  0  0  0  0
   37.9650   24.2350   37.5990 C   0  0  0  0  0  0  0  0  0  0  0  0
   38.5650   23.5220   38.6420 C   0  0  0  0  0  0  0  0  0  0  0  0
   39.4230   22.6440   38.0620 N   0  0  0  0  0  0  0  0  0  0  0  0
   39.3780   22.7830   36.7300 N   0  0  0  0  0  0  0  0  0  0  0  0
   37.2240   25.0190   37.7500 H   0  0  0  0  0  0  0  0  0  0  0  0
   38.4320   23.5910   39.7010 H   0  0  0  0  0  0  0  0  0  0  0  0
   40.0720   21.9210   38.4500 H   0  0  0  0  0  0  0  0  0  0  0  0
  1  2  1  0  0  0  0
  3  1  1  0  0  0  0
  4  1  1  0  0  0  0
  5  4  1  0  0  0  0
  5 10  1  0  0  0  0
  6  5  2  0  0  0  0
  7  8  2  0  0  0  0
  7  6  1  0  0  0  0
  8  9  1  0  0  0  0
  9 16  1  0  0  0  0
  9  4  2  0  0  0  0
 11  6  1  0  0  0  0
 12  7  1  0  0  0  0
 13  8  1  0  0  0  0
 15 14  1  0  0  0  0
 16 15  2  0  0  0  0
 17 19  2  0  0  0  0
 17 16  1  0  0  0  0
 18 17  1  0  0  0  0
 19 20  1  0  0  0  0
 20 21  1  0  0  0  0
 20 22  2  0  0  0  0
 22 15  1  0  0  0  0
 22 23  1  0  0  0  0
 24 30  1  0  0  0  0
 24 25  2  0  0  0  0
 25  1  1  0  0  0  0
 26 27  1  0  0  0  0
 27 33  1  0  0  0  0
 27 28  2  0  0  0  0
 28 34  1  0  0  0  0
 29 28  1  0  0  0  0
 30 29  2  0  0  0  0
 31 26  2  0  0  0  0
 31 30  1  0  0  0  0
 32 26  1  0  0  0  0
 34 38  2  0  0  0  0
 34 35  1  0  0  0  0
 35 39  1  0  0  0  0
 35 36  2  0  0  0  0
 36 40  1  0  0  0  0
 37 41  1  0  0  0  0
 37 36  1  0  0  0  0
 38 37  1  0  0  0  0
M  END
>  <minimizedAffinity>
-6.31796217

$$$$

 OpenBabel03272509103D

 41 44  0  0  0  0  0  0  0  0999 V2000
   34.1700   30.0540   33.4970 C   0  0  0  0  0  0  0  0  0  0  0  0
   34.7070   31.0300   33.4100 H   0  0  0  0  0  0  0  0  0  0  0  0
   33.4720   30.0270   32.6550 H   0  0  0  0  0  0  0  0  0  0  0  0
   33.4640   30.1080   34.7990 C   0  0  0  0  0  0  0  0  0  0  0  0
   32.5850   29.1540   35.2600 C   0  0  0  0  0  0  0  0  0  0  0  0
   31.9620   29.2640   36.4810 C   0  0  0  0  0  0  0  0  0  0  0  0
   32.2080   30.3680   37.3060 C   0  0  0  0  0  0  0  0  0  0  0  0
   33.0810   31.3280   36.8640 C   0  0  0  0  0  0  0  0  0  0  0  0
   33.6870   31.1840   35.6330 C   0  0  0  0  0  0  0  0  0  0  0  0
   32.4160   28.3080   34.5930 H   0  0  0  0  0  0  0  0  0  0  0  0
   31.2990   28.4490   36.7200 H   0  0  0  0  0  0  0  0  0  0  0  0
   31.6410   30.3010   38.2260 H   0  0  0  0  0  0  0  0  0  0  0  0
   33.2220   32.1390   37.5380 H   0  0  0  0  0  0  0  0  0  0  0  0
   32.6510   33.5300   33.9790 Cl  0  0  0  0  0  0  0  0  0  0  0  0
   34.2900   33.4260   34.5580 C   0  0  0  0  0  0  0  0  0  0  0  0
   34.5990   32.2960   35.2950 C   0  0  0  0  0  0  0  0  0  0  0  0
   35.8820   32.0950   35.8170 C   0  0  0  0  0  0  0  0  0  0  0  0
   36.1810   31.2350   36.3970 H   0  0  0  0  0  0  0  0  0  0  0  0
   36.8210   33.0810   35.5590 C   0  0  0  0  0  3  0  0  0  0  0  0
   36.5620   34.2180   34.8350 C   0  0  0  0  0  0  0  0  0  0  0  0
   37.7670   35.4490   34.5220 Cl  0  0  0  0  0  0  0  0  0  0  0  0
   35.2850   34.3600   34.3480 C   0  0  0  0  0  0  0  0  0  0  0  0
   34.9900   35.2400   33.7580 H   0  0  0  0  0  0  0  0  0  0  0  0
   36.0520   28.6690   34.3460 C   0  0  0  0  0  3  0  0  0  0  0  0
   35.1940   28.9980   33.4340 C   0  0  0  0  0  3  0  0  0  0  0  0
   38.5260   26.5250   32.7260 C   0  0  0  0  0  0  0  0  0  0  0  0
   38.6760   25.4940   33.6660 C   0  0  0  0  0  0  0  0  0  0  0  0
   37.9080   25.5610   34.8560 C   0  0  0  0  0  0  0  0  0  0  0  0
   37.0590   26.6340   35.0230 N   0  0  0  0  0  0  0  0  0  0  0  0
   36.9770   27.5850   34.0650 C   0  0  0  0  0  0  0  0  0  0  0  0
   37.6970   27.5280   32.9400 N   0  0  0  0  0  0  0  0  0  0  0  0
   39.1490   26.3920   31.8520 H   0  0  0  0  0  0  0  0  0  0  0  0
   39.3120   24.6190   33.6240 H   0  0  0  0  0  0  0  0  0  0  0  0
   37.9780   24.5430   35.9120 C   0  0  0  0  0  0  0  0  0  0  0  0
   37.9680   24.8620   37.2460 C   0  0  0  0  0  0  0  0  0  0  0  0
   38.0470   23.6600   37.9570 C   0  0  0  0  0  0  0  0  0  0  0  0
   38.1000   22.6690   37.0290 N   0  0  0  0  0  0  0  0  0  0  0  0
   38.0580   23.2010   35.8000 N   0  0  0  0  0  0  0  0  0  0  0  0
   37.9130   25.8420   37.7200 H   0  0  0  0  0  0  0  0  0  0  0  0
   38.0650   23.4720   39.0100 H   0  0  0  0  0  0  0  0  0  0  0  0
   38.1630   21.6280   37.1040 H   0  0  0  0  0  0  0  0  0  0  0  0
  1  4  1  0  0  0  0
  2  1  1  0  0  0  0
  3  1  1  0  0  0  0
  4  5  2  0  0  0  0
  4  9  1  0  0  0  0
  5  6  1  0  0  0  0
  6 11  1  0  0  0  0
  6  7  2  0  0  0  0
  7 12  1  0  0  0  0
  8  7  1  0  0  0  0
  8 13  1  0  0  0  0
  9  8  2  0  0  0  0
 10  5  1  0  0  0  0
 14 15  1  0  0  0  0
 15 16  1  0  0  0  0
 16  9  1  0  0  0  0
 16 17  2  0  0  0  0
 17 18  1  0  0  0  0
 19 17  1  0  0  0  0
 20 19  2  0  0  0  0
 21 20  1  0  0  0  0
 22 15  2  0  0  0  0
 22 20  1  0  0  0  0
 23 22  1  0  0  0  0
 25  1  1  0  0  0  0
 25 24  2  0  0  0  0
 26 31  2  0  0  0  0
 26 27  1  0  0  0  0
 27 28  2  0  0  0  0
 28 29  1  0  0  0  0
 28 34  1  0  0  0  0
 30 24  1  0  0  0  0
 30 29  2  0  0  0  0
 31 30  1  0  0  0  0
 32 26  1  0  0  0  0
 33 27  1  0  0  0  0
 34 35  1  0  0  0  0
 35 39  1  0  0  0  0
 35 36  2  0  0  0  0
 36 40  1  0  0  0  0
 37 41  1  0  0  0  0
 37 36  1  0  0  0  0
 38 34  2  0  0  0  0
 38 37  1  0  0  0  0
M  END
>  <minimizedAffinity>
-6.22094297

$$$$

 OpenBabel03272509103D

 41 44  0  0  0  0  0  0  0  0999 V2000
   38.8680   26.6410   35.1780 C   0  0  0  0  0  0  0  0  0  0  0  0
   39.3500   26.3240   34.2220 H   0  0  0  0  0  0  0  0  0  0  0  0
   39.6420   27.1790   35.7330 H   0  0  0  0  0  0  0  0  0  0  0  0
   38.4740   25.3830   35.8560 C   0  0  0  0  0  0  0  0  0  0  0  0
   38.1590   25.2720   37.1920 C   0  0  0  0  0  0  0  0  0  0  0  0
   37.8010   24.0730   37.7600 C   0  0  0  0  0  0  0  0  0  0  0  0
   37.7450   22.9090   36.9850 C   0  0  0  0  0  0  0  0  0  0  0  0
   38.0560   22.9990   35.6530 C   0  0  0  0  0  0  0  0  0  0  0  0
   38.4110   24.2200   35.1180 C   0  0  0  0  0  0  0  0  0  0  0  0
   38.2120   26.1980   37.7660 H   0  0  0  0  0  0  0  0  0  0  0  0
   37.5790   24.1260   38.8140 H   0  0  0  0  0  0  0  0  0  0  0  0
   37.4480   22.0560   37.5820 H   0  0  0  0  0  0  0  0  0  0  0  0
   37.9950   22.0800   35.1230 H   0  0  0  0  0  0  0  0  0  0  0  0
   41.3180   24.0660   34.2010 Cl  0  0  0  0  0  0  0  0  0  0  0  0
   39.9730   24.0870   33.0950 C   0  0  0  0  0  0  0  0  0  0  0  0
   38.7170   24.1600   33.6730 C   0  0  0  0  0  0  0  0  0  0  0  0
   37.5570   24.1840   32.8930 C   0  0  0  0  0  0  0  0  0  0  0  0
   36.5530   24.2390   33.2870 H   0  0  0  0  0  0  0  0  0  0  0  0
   37.7290   24.1310   31.5180 C   0  0  0  0  0  3  0  0  0  0  0  0
   38.9510   24.0580   30.9000 C   0  0  0  0  0  0  0  0  0  0  0  0
   39.1420   23.9930   29.1610 Cl  0  0  0  0  0  0  0  0  0  0  0  0
   40.0550   24.0380   31.7180 C   0  0  0  0  0  0  0  0  0  0  0  0
   41.0740   23.9810   31.3070 H   0  0  0  0  0  0  0  0  0  0  0  0
   37.1930   27.6530   33.6440 C   0  0  0  0  0  3  0  0  0  0  0  0
   37.7210   27.4890   34.8150 C   0  0  0  0  0  3  0  0  0  0  0  0
   34.2630   29.4070   32.3510 C   0  0  0  0  0  0  0  0  0  0  0  0
   33.9500   30.2710   33.4110 C   0  0  0  0  0  0  0  0  0  0  0  0
   34.7700   30.2290   34.5670 C   0  0  0  0  0  0  0  0  0  0  0  0
   35.8260   29.3440   34.5850 N   0  0  0  0  0  0  0  0  0  0  0  0
   36.0550   28.5460   33.5170 C   0  0  0  0  0  0  0  0  0  0  0  0
   35.2870   28.5800   32.4230 N   0  0  0  0  0  0  0  0  0  0  0  0
   33.5860   29.5070   31.5130 H   0  0  0  0  0  0  0  0  0  0  0  0
   33.1490   30.9940   33.4890 H   0  0  0  0  0  0  0  0  0  0  0  0
   34.5430   31.0830   35.7400 C   0  0  0  0  0  0  0  0  0  0  0  0
   33.2900   31.3430   36.2320 C   0  0  0  0  0  0  0  0  0  0  0  0
   33.4500   32.1820   37.3410 C   0  0  0  0  0  0  0  0  0  0  0  0
   34.7850   32.3920   37.4730 N   0  0  0  0  0  0  0  0  0  0  0  0
   35.4420   31.7310   36.5110 N   0  0  0  0  0  0  0  0  0  0  0  0
   32.3220   30.9950   35.8720 H   0  0  0  0  0  0  0  0  0  0  0  0
   32.7250   32.6110   38.0010 H   0  0  0  0  0  0  0  0  0  0  0  0
   35.3530   32.9450   38.1550 H   0  0  0  0  0  0  0  0  0  0  0  0
  1  3  1  0  0  0  0
  1  4  1  0  0  0  0
  2  1  1  0  0  0  0
  4  5  1  0  0  0  0
  5  6  2  0  0  0  0
  5 10  1  0  0  0  0
  6 11  1  0  0  0  0
  7 12  1  0  0  0  0
  7  6  1  0  0  0  0
  8  7  2  0  0  0  0
  9  8  1  0  0  0  0
  9  4  2  0  0  0  0
 13  8  1  0  0  0  0
 15 16  1  0  0  0  0
 15 14  1  0  0  0  0
 16  9  1  0  0  0  0
 17 18  1  0  0  0  0
 17 16  2  0  0  0  0
 19 17  1  0  0  0  0
 20 19  2  0  0  0  0
 20 22  1  0  0  0  0
 21 20  1  0  0  0  0
 22 15  2  0  0  0  0
 23 22  1  0  0  0  0
 24 25  2  0  0  0  0
 25  1  1  0  0  0  0
 26 31  2  0  0  0  0
 26 27  1  0  0  0  0
 27 33  1  0  0  0  0
 27 28  2  0  0  0  0
 28 29  1  0  0  0  0
 28 34  1  0  0  0  0
 30 24  1  0  0  0  0
 30 29  2  0  0  0  0
 31 30  1  0  0  0  0
 32 26  1  0  0  0  0
 34 35  1  0  0  0  0
 34 38  2  0  0  0  0
 35 36  2  0  0  0  0
 36 37  1  0  0  0  0
 36 40  1  0  0  0  0
 37 41  1  0  0  0  0
 38 37  1  0  0  0  0
 39 35  1  0  0  0  0
M  END
>  <minimizedAffinity>
-6.20567226

$$$$

 OpenBabel03272509103D

 41 44  0  0  0  0  0  0  0  0999 V2000
   36.6040   28.0420   34.6830 C   0  0  0  0  0  0  0  0  0  0  0  0
   35.5570   27.9210   35.0510 H   0  0  0  0  0  0  0  0  0  0  0  0
   37.0550   28.8040   35.3250 H   0  0  0  0  0  0  0  0  0  0  0  0
   36.4760   28.5060   33.2800 C   0  0  0  0  0  0  0  0  0  0  0  0
   37.2900   28.1130   32.2420 C   0  0  0  0  0  0  0  0  0  0  0  0
   37.1170   28.5810   30.9610 C   0  0  0  0  0  0  0  0  0  0  0  0
   36.0910   29.4870   30.6690 C   0  0  0  0  0  0  0  0  0  0  0  0
   35.2710   29.8910   31.6910 C   0  0  0  0  0  0  0  0  0  0  0  0
   35.4740   29.4000   32.9630 C   0  0  0  0  0  0  0  0  0  0  0  0
   38.0780   27.4060   32.5040 H   0  0  0  0  0  0  0  0  0  0  0  0
   37.8220   28.1940   30.2440 H   0  0  0  0  0  0  0  0  0  0  0  0
   36.0930   29.7550   29.6200 H   0  0  0  0  0  0  0  0  0  0  0  0
   34.5130   30.5800   31.4020 H   0  0  0  0  0  0  0  0  0  0  0  0
   36.2360   31.8160   34.6650 Cl  0  0  0  0  0  0  0  0  0  0  0  0
   34.7010   31.0050   34.8000 C   0  0  0  0  0  0  0  0  0  0  0  0
   34.5130   29.9240   33.9550 C   0  0  0  0  0  0  0  0  0  0  0  0
   33.3220   29.1890   33.9670 C   0  0  0  0  0  0  0  0  0  0  0  0
   33.1190   28.3400   33.3330 H   0  0  0  0  0  0  0  0  0  0  0  0
   32.3470   29.5970   34.8630 C   0  0  0  0  0  3  0  0  0  0  0  0
   32.4870   30.6600   35.7190 C   0  0  0  0  0  0  0  0  0  0  0  0
   31.2400   31.1560   36.8430 Cl  0  0  0  0  0  0  0  0  0  0  0  0
   33.6780   31.3440   35.6630 C   0  0  0  0  0  0  0  0  0  0  0  0
   33.8750   32.2090   36.3130 H   0  0  0  0  0  0  0  0  0  0  0  0
   38.4920   26.4740   35.0740 C   0  0  0  0  0  3  0  0  0  0  0  0
   37.2520   26.7260   34.8020 C   0  0  0  0  0  3  0  0  0  0  0  0
   40.5370   23.4610   35.3610 C   0  0  0  0  0  0  0  0  0  0  0  0
   39.5740   22.4460   35.2550 C   0  0  0  0  0  0  0  0  0  0  0  0
   38.2200   22.8280   35.0840 C   0  0  0  0  0  0  0  0  0  0  0  0
   37.9250   24.1740   35.0320 N   0  0  0  0  0  0  0  0  0  0  0  0
   38.9160   25.0860   35.1430 C   0  0  0  0  0  0  0  0  0  0  0  0
   40.1960   24.7340   35.3030 N   0  0  0  0  0  0  0  0  0  0  0  0
   41.5400   23.0780   35.4880 H   0  0  0  0  0  0  0  0  0  0  0  0
   39.7080   21.3720   35.2840 H   0  0  0  0  0  0  0  0  0  0  0  0
   37.1240   21.8580   34.9610 C   0  0  0  0  0  0  0  0  0  0  0  0
   36.7050   21.3680   33.7520 C   0  0  0  0  0  0  0  0  0  0  0  0
   35.6570   20.4780   34.0100 C   0  0  0  0  0  0  0  0  0  0  0  0
   35.4860   20.4670   35.3570 N   0  0  0  0  0  0  0  0  0  0  0  0
   36.3690   21.2960   35.9290 N   0  0  0  0  0  0  0  0  0  0  0  0
   37.0760   21.5910   32.7520 H   0  0  0  0  0  0  0  0  0  0  0  0
   35.0610   19.8890   33.3440 H   0  0  0  0  0  0  0  0  0  0  0  0
   34.8270   19.9540   35.9860 H   0  0  0  0  0  0  0  0  0  0  0  0
  1 25  1  0  0  0  0
  1  2  1  0  0  0  0
  1  3  1  0  0  0  0
  4  1  1  0  0  0  0
  5 10  1  0  0  0  0
  5  4  2  0  0  0  0
  6  5  1  0  0  0  0
  7  6  2  0  0  0  0
  7  8  1  0  0  0  0
  8  9  2  0  0  0  0
  9  4  1  0  0  0  0
  9 16  1  0  0  0  0
 11  6  1  0  0  0  0
 12  7  1  0  0  0  0
 13  8  1  0  0  0  0
 14 15  1  0  0  0  0
 15 22  1  0  0  0  0
 16 17  1  0  0  0  0
 16 15  2  0  0  0  0
 17 19  2  0  0  0  0
 18 17  1  0  0  0  0
 19 20  1  0  0  0  0
 20 21  1  0  0  0  0
 22 20  2  0  0  0  0
 22 23  1  0  0  0  0
 24 30  1  0  0  0  0
 25 24  2  0  0  0  0
 26 32  1  0  0  0  0
 27 33  1  0  0  0  0
 27 26  2  0  0  0  0
 28 27  1  0  0  0  0
 29 28  2  0  0  0  0
 29 30  1  0  0  0  0
 30 31  2  0  0  0  0
 31 26  1  0  0  0  0
 34 28  1  0  0  0  0
 34 38  2  0  0  0  0
 35 36  2  0  0  0  0
 35 34  1  0  0  0  0
 36 37  1  0  0  0  0
 37 38  1  0  0  0  0
 37 41  1  0  0  0  0
 39 35  1  0  0  0  0
 40 36  1  0  0  0  0
M  END
>  <minimizedAffinity>
-6.16988897

$$$$

 OpenBabel03272509103D

 41 44  0  0  0  0  0  0  0  0999 V2000
   38.4950   26.3620   32.1870 C   0  0  0  0  0  0  0  0  0  0  0  0
   38.1090   25.5940   32.8990 H   0  0  0  0  0  0  0  0  0  0  0  0
   38.4890   25.8810   31.2040 H   0  0  0  0  0  0  0  0  0  0  0  0
   39.8720   26.6670   32.6450 C   0  0  0  0  0  0  0  0  0  0  0  0
   40.7920   27.4090   31.9400 C   0  0  0  0  0  0  0  0  0  0  0  0
   42.0550   27.6560   32.4220 C   0  0  0  0  0  0  0  0  0  0  0  0
   42.4510   27.1510   33.6670 C   0  0  0  0  0  0  0  0  0  0  0  0
   41.5480   26.4090   34.3830 C   0  0  0  0  0  0  0  0  0  0  0  0
   40.2890   26.1820   33.8670 C   0  0  0  0  0  0  0  0  0  0  0  0
   40.4520   27.7880   30.9750 H   0  0  0  0  0  0  0  0  0  0  0  0
   42.6750   28.2500   31.7710 H   0  0  0  0  0  0  0  0  0  0  0  0
   43.4700   27.4340   33.8970 H   0  0  0  0  0  0  0  0  0  0  0  0
   41.9120   26.0550   35.3180 H   0  0  0  0  0  0  0  0  0  0  0  0
   38.5560   27.5620   35.9660 Cl  0  0  0  0  0  0  0  0  0  0  0  0
   38.5890   25.8350   35.7480 C   0  0  0  0  0  0  0  0  0  0  0  0
   39.4300   25.3680   34.7510 C   0  0  0  0  0  0  0  0  0  0  0  0
   39.5460   24.0010   34.4770 C   0  0  0  0  0  0  0  0  0  0  0  0
   40.1830   23.5800   33.7150 H   0  0  0  0  0  0  0  0  0  0  0  0
   38.7800   23.1430   35.2510 C   0  0  0  0  0  3  0  0  0  0  0  0
   37.9330   23.5580   36.2480 C   0  0  0  0  0  0  0  0  0  0  0  0
   36.9760   22.4540   37.2120 Cl  0  0  0  0  0  0  0  0  0  0  0  0
   37.8610   24.9120   36.4710 C   0  0  0  0  0  0  0  0  0  0  0  0
   37.2080   25.3310   37.2510 H   0  0  0  0  0  0  0  0  0  0  0  0
   36.6160   27.7040   33.1070 C   0  0  0  0  0  3  0  0  0  0  0  0
   37.5870   27.5170   32.2710 C   0  0  0  0  0  3  0  0  0  0  0  0
   34.7500   30.5530   31.7870 C   0  0  0  0  0  0  0  0  0  0  0  0
   34.3950   31.2360   32.9610 C   0  0  0  0  0  0  0  0  0  0  0  0
   34.8140   30.6900   34.2010 C   0  0  0  0  0  0  0  0  0  0  0  0
   35.5450   29.5220   34.1850 N   0  0  0  0  0  0  0  0  0  0  0  0
   35.8420   28.9290   33.0060 C   0  0  0  0  0  0  0  0  0  0  0  0
   35.4520   29.4380   31.8330 N   0  0  0  0  0  0  0  0  0  0  0  0
   34.3900   31.0400   30.8920 H   0  0  0  0  0  0  0  0  0  0  0  0
   33.8290   32.1510   33.0730 H   0  0  0  0  0  0  0  0  0  0  0  0
   34.5030   31.3130   35.4940 C   0  0  0  0  0  0  0  0  0  0  0  0
   35.2690   32.3140   36.0330 C   0  0  0  0  0  0  0  0  0  0  0  0
   34.6870   32.6640   37.2560 C   0  0  0  0  0  0  0  0  0  0  0  0
   33.5990   31.8640   37.4050 N   0  0  0  0  0  0  0  0  0  0  0  0
   33.4890   31.0520   36.3450 N   0  0  0  0  0  0  0  0  0  0  0  0
   36.1670   32.7860   35.6340 H   0  0  0  0  0  0  0  0  0  0  0  0
   34.9740   33.3960   37.9820 H   0  0  0  0  0  0  0  0  0  0  0  0
   32.8770   31.7790   38.1570 H   0  0  0  0  0  0  0  0  0  0  0  0
  1 25  1  0  0  0  0
  1  4  1  0  0  0  0
  1  2  1  0  0  0  0
  3  1  1  0  0  0  0
  4  9  1  0  0  0  0
  5  6  1  0  0  0  0
  5  4  2  0  0  0  0
  6  7  2  0  0  0  0
  7 12  1  0  0  0  0
  7  8  1  0  0  0  0
  8 13  1  0  0  0  0
  9  8  2  0  0  0  0
  9 16  1  0  0  0  0
 10  5  1  0  0  0  0
 11  6  1  0  0  0  0
 15 14  1  0  0  0  0
 15 22  1  0  0  0  0
 16 15  2  0  0  0  0
 17 16  1  0  0  0  0
 17 19  2  0  0  0  0
 18 17  1  0  0  0  0
 19 20  1  0  0  0  0
 20 22  2  0  0  0  0
 20 21  1  0  0  0  0
 22 23  1  0  0  0  0
 25 24  2  0  0  0  0
 26 31  2  0  0  0  0
 26 27  1  0  0  0  0
 27 33  1  0  0  0  0
 27 28  2  0  0  0  0
 28 34  1  0  0  0  0
 29 28  1  0  0  0  0
 30 24  1  0  0  0  0
 30 29  2  0  0  0  0
 31 30  1  0  0  0  0
 32 26  1  0  0  0  0
 34 35  1  0  0  0  0
 34 38  2  0  0  0  0
 35 36  2  0  0  0  0
 36 37  1  0  0  0  0
 36 40  1  0  0  0  0
 37 41  1  0  0  0  0
 38 37  1  0  0  0  0
 39 35  1  0  0  0  0
M  END
>  <minimizedAffinity>
-6.08001041

$$$$
