
 OpenBabel03272504573D

 34 36  0  0  1  0  0  0  0  0999 V2000
   35.5780   30.3770   49.5370 C   0  0  1  0  0  0  0  0  0  0  0  0
   34.2080   30.8130   49.4090 C   0  0  0  0  0  0  0  0  0  0  0  0
   34.6900   29.6140   48.6620 C   0  0  2  0  0  0  0  0  0  0  0  0
   35.9520   29.7900   50.4460 H   0  0  0  0  0  0  0  0  0  0  0  0
   34.0400   31.7280   48.8020 H   0  0  0  0  0  0  0  0  0  0  0  0
   33.8080   30.9250   50.3980 H   0  0  0  0  0  0  0  0  0  0  0  0
   34.4860   29.7240   47.6120 H   0  0  0  0  0  0  0  0  0  0  0  0
   36.6980   31.1300   48.8740 C   0  0  0  0  0  0  0  0  0  0  0  0
   37.4570   31.9660   49.7190 C   0  0  0  0  0  0  0  0  0  0  0  0
   38.4770   32.6430   49.0900 C   0  0  0  0  0  0  0  0  0  0  0  0
   38.6900   32.4800   47.7560 N   0  0  0  0  0  0  0  0  0  0  0  0
   37.9310   31.6600   46.9770 C   0  0  0  0  0  0  0  0  0  0  0  0
   36.9050   30.9700   47.5710 N   0  0  0  0  0  0  0  0  0  0  0  0
   38.1420   31.4770   45.6030 N   0  0  0  0  0  0  0  0  0  0  0  0
   37.3000   32.1000   50.7580 H   0  0  0  0  0  0  0  0  0  0  0  0
   39.1090   33.3030   49.6480 H   0  0  0  0  0  0  0  0  0  0  0  0
   38.2740   32.3440   45.0520 H   0  0  0  0  0  0  0  0  0  0  0  0
   38.1520   30.4850   45.2530 H   0  0  0  0  0  0  0  0  0  0  0  0
   34.2630   28.3780   49.1730 O   0  0  0  0  0  0  0  0  0  0  0  0
   33.8850   26.1660   47.9190 O   0  0  0  0  0  0  0  0  0  0  0  0
   33.3540   27.5620   48.0390 P   0  0  1  0  0  0  0  0  0  0  0  0
   31.7360   27.3800   48.6470 O   0  0  0  0  0  0  0  0  0  0  0  0
   31.7400   27.4580   49.6250 H   0  0  0  0  0  0  0  0  0  0  0  0
   33.3270   28.4260   46.6130 O   0  0  0  0  0  0  0  0  0  0  0  0
   32.2740   31.0220   45.8390 Cl  0  0  0  0  0  0  0  0  0  0  0  0
   31.9840   29.4550   45.0730 C   0  0  0  0  0  0  0  0  0  0  0  0
   32.5390   28.2500   45.5200 C   0  0  0  0  0  0  0  0  0  0  0  0
   32.2110   27.1100   44.8090 C   0  0  0  0  0  0  0  0  0  0  0  0
   32.6790   26.2230   45.2170 H   0  0  0  0  0  0  0  0  0  0  0  0
   31.3830   27.1440   43.7140 C   0  0  0  0  0  3  0  0  0  0  0  0
   30.8550   28.3460   43.3010 C   0  0  0  0  0  0  0  0  0  0  0  0
   29.8050   28.3610   41.9070 Cl  0  0  0  0  0  0  0  0  0  0  0  0
   31.1420   29.5030   43.9650 C   0  0  0  0  0  0  0  0  0  0  0  0
   30.7050   30.4250   43.6050 H   0  0  0  0  0  0  0  0  0  0  0  0
  1  4  1  1  0  0  0
  2  1  1  0  0  0  0
  2  6  1  0  0  0  0
  3  7  1  6  0  0  0
  3 19  1  0  0  0  0
  3  2  1  0  0  0  0
  3  1  1  0  0  0  0
  5  2  1  0  0  0  0
  8  1  1  0  0  0  0
  8  9  1  0  0  0  0
  9 15  1  0  0  0  0
 10 16  1  0  0  0  0
 10  9  2  0  0  0  0
 11 10  1  0  0  0  0
 12 13  1  0  0  0  0
 12 11  2  0  0  0  0
 13  8  2  0  0  0  0
 14 12  1  0  0  0  0
 17 14  1  0  0  0  0
 18 14  1  0  0  0  0
 21 20  2  6  0  0  0
 21 22  1  0  0  0  0
 21 19  1  0  0  0  0
 22 23  1  0  0  0  0
 24 21  1  0  0  0  0
 26 27  1  0  0  0  0
 26 25  1  0  0  0  0
 27 24  1  0  0  0  0
 28 29  1  0  0  0  0
 28 27  2  0  0  0  0
 30 28  1  0  0  0  0
 31 30  2  0  0  0  0
 31 33  1  0  0  0  0
 32 31  1  0  0  0  0
 33 26  2  0  0  0  0
 34 33  1  0  0  0  0
M  END
>  <minimizedAffinity>
-4.23302269

>  <minimizedRMSD>
3.99413204

$$$$
