
 OpenBabel03272510273D

 46 50  0  0  1  0  0  0  0  0999 V2000
   39.5570   33.5890   43.4540 O   0  0  0  0  0  0  0  0  0  0  0  0
   36.2250   30.2430   46.9820 C   0  0  0  0  0  0  0  0  0  0  0  0
   37.0610   30.7560   47.9580 C   0  0  0  0  0  0  0  0  0  0  0  0
   38.0790   31.6530   47.6160 C   0  0  0  0  0  0  0  0  0  0  0  0
   38.1790   31.9760   46.2670 C   0  0  0  0  0  0  0  0  0  0  0  0
   39.0950   32.8250   45.6850 N   0  0  0  0  0  0  0  0  0  0  0  0
   38.8240   32.8320   44.3730 C   0  0  0  0  0  0  0  0  0  0  0  0
   37.8020   32.0420   44.1330 N   0  0  0  0  0  0  0  0  0  0  0  0
   37.3700   31.4890   45.2780 C   0  0  0  0  0  0  0  0  0  0  0  0
   36.3640   30.5980   45.6460 C   0  0  0  0  0  0  0  0  0  0  0  0
   35.4170   29.5430   47.1870 H   0  0  0  0  0  0  0  0  0  0  0  0
   38.7400   32.0620   48.3680 H   0  0  0  0  0  0  0  0  0  0  0  0
   39.8480   33.3470   46.1990 H   0  0  0  0  0  0  0  0  0  0  0  0
   35.7190   30.2070   44.8680 H   0  0  0  0  0  0  0  0  0  0  0  0
   37.4040   30.0840   51.6310 C   0  0  0  0  0  0  0  0  0  0  0  0
   37.7420   30.5480   50.3670 C   0  0  0  0  0  0  0  0  0  0  0  0
   36.8540   30.3390   49.3280 C   0  0  0  0  0  0  0  0  0  0  0  0
   35.6840   29.6810   49.6150 N   0  0  0  0  0  0  0  0  0  0  0  0
   35.3780   29.2390   50.8500 C   0  0  0  0  0  0  0  0  0  0  0  0
   36.2360   29.4430   51.8410 N   0  0  0  0  0  0  0  0  0  0  0  0
   38.1140   30.2550   52.4400 H   0  0  0  0  0  0  0  0  0  0  0  0
   38.6610   31.0630   50.1480 H   0  0  0  0  0  0  0  0  0  0  0  0
   34.4270   28.7340   50.9560 H   0  0  0  0  0  0  0  0  0  0  0  0
   39.6220   31.6990   42.1330 N   0  0  0  0  0  0  0  0  0  0  0  0
   39.5170   33.1610   42.1010 C   0  0  1  0  0  0  0  0  0  0  0  0
   38.2410   33.5140   41.4900 C   0  0  0  0  0  0  0  0  0  0  0  0
   38.2530   33.1060   40.1510 O   0  0  0  0  0  0  0  0  0  0  0  0
   38.4870   31.7580   39.9670 C   0  0  0  0  0  0  0  0  0  0  0  0
   39.7000   31.2900   40.7650 C   0  0  2  0  0  0  0  0  0  0  0  0
   38.7520   31.2650   42.4880 H   0  0  0  0  0  0  0  0  0  0  0  0
   40.3590   33.4970   41.5010 H   0  0  0  0  0  0  0  0  0  0  0  0
   37.2930   33.1900   41.8300 H   0  0  0  0  0  0  0  0  0  0  0  0
   38.1940   34.6450   41.4280 H   0  0  0  0  0  0  0  0  0  0  0  0
   37.6100   31.1490   40.2420 H   0  0  0  0  0  0  0  0  0  0  0  0
   38.7000   31.6130   38.8960 H   0  0  0  0  0  0  0  0  0  0  0  0
   40.6300   31.7510   40.3040 H   0  0  0  0  0  0  0  0  0  0  0  0
   37.9800   28.9720   42.3390 Cl  0  0  0  0  0  0  0  0  0  0  0  0
   39.2090   28.7060   41.1310 C   0  0  0  0  0  0  0  0  0  0  0  0
   39.7950   29.8400   40.6320 C   0  0  0  0  0  0  0  0  0  0  0  0
   40.7790   29.4990   39.6790 C   0  0  0  0  0  0  0  0  0  0  0  0
   41.3960   30.2260   39.1290 H   0  0  0  0  0  0  0  0  0  0  0  0
   41.1250   28.2050   39.2830 C   0  0  0  0  0  3  0  0  0  0  0  0
   40.4670   27.1590   39.8550 C   0  0  0  0  0  0  0  0  0  0  0  0
   40.8130   25.4990   39.4390 Cl  0  0  0  0  0  0  0  0  0  0  0  0
   39.5040   27.4160   40.7850 C   0  0  0  0  0  0  0  0  0  0  0  0
   38.9660   26.6260   41.2550 H   0  0  0  0  0  0  0  0  0  0  0  0
  1  7  1  0  0  0  0
  2 11  1  0  0  0  0
  2  3  1  0  0  0  0
  3 17  1  0  0  0  0
  4  3  2  0  0  0  0
  4 12  1  0  0  0  0
  5  4  1  0  0  0  0
  6 13  1  0  0  0  0
  6  5  1  0  0  0  0
  7  6  1  0  0  0  0
  8  7  2  0  0  0  0
  8  9  1  0  0  0  0
  9 10  1  0  0  0  0
  9  5  2  0  0  0  0
 10  2  2  0  0  0  0
 14 10  1  0  0  0  0
 15 20  1  0  0  0  0
 15 21  1  0  0  0  0
 16 15  2  0  0  0  0
 17 18  2  0  0  0  0
 17 16  1  0  0  0  0
 18 19  1  0  0  0  0
 19 23  1  0  0  0  0
 19 20  2  0  0  0  0
 22 16  1  0  0  0  0
 24 30  1  0  0  0  0
 25 31  1  6  0  0  0
 25 24  1  0  0  0  0
 25  1  1  0  0  0  0
 26 32  1  0  0  0  0
 26 25  1  0  0  0  0
 27 26  1  0  0  0  0
 28 27  1  0  0  0  0
 28 34  1  0  0  0  0
 28 29  1  0  0  0  0
 29 36  1  6  0  0  0
 29 24  1  0  0  0  0
 33 26  1  0  0  0  0
 35 28  1  0  0  0  0
 38 37  1  0  0  0  0
 39 29  1  0  0  0  0
 39 38  2  0  0  0  0
 40 39  1  0  0  0  0
 41 40  1  0  0  0  0
 42 40  2  0  0  0  0
 42 43  1  0  0  0  0
 43 45  2  0  0  0  0
 44 43  1  0  0  0  0
 45 38  1  0  0  0  0
 45 46  1  0  0  0  0
M  END
>  <minimizedAffinity>
-6.17742348

>  <minimizedRMSD>
0.80097121

$$$$
