
 OpenBabel03272507163D

 27 29  0  0  1  0  0  0  0  0999 V2000
   37.0740   30.7860   50.4700 C   0  0  1  0  0  0  0  0  0  0  0  0
   36.1030   29.7410   50.2420 C   0  0  2  0  0  0  0  0  0  0  0  0
   37.4780   29.3310   50.7320 C   0  0  0  0  0  0  0  0  0  0  0  0
   37.0830   31.4420   51.3900 H   0  0  0  0  0  0  0  0  0  0  0  0
   35.2340   29.7130   50.9390 H   0  0  0  0  0  0  0  0  0  0  0  0
   37.4670   29.0390   51.8000 H   0  0  0  0  0  0  0  0  0  0  0  0
   38.1540   28.8310   50.0200 H   0  0  0  0  0  0  0  0  0  0  0  0
   37.8560   31.3990   49.3270 C   0  0  0  0  0  0  0  0  0  0  0  0
   38.2690   32.7190   49.4990 C   0  0  0  0  0  0  0  0  0  0  0  0
   38.9610   33.2690   48.4320 C   0  0  0  0  0  0  0  0  0  0  0  0
   39.2040   32.5290   47.3010 N   0  0  0  0  0  0  0  0  0  0  0  0
   38.7820   31.2450   47.1790 C   0  0  0  0  0  0  0  0  0  0  0  0
   38.0970   30.6650   48.2080 N   0  0  0  0  0  0  0  0  0  0  0  0
   38.0460   33.2480   50.4150 H   0  0  0  0  0  0  0  0  0  0  0  0
   39.2960   34.2900   48.5300 H   0  0  0  0  0  0  0  0  0  0  0  0
   39.0040   30.7140   46.2620 H   0  0  0  0  0  0  0  0  0  0  0  0
   35.7990   29.3640   48.9250 O   0  0  0  0  0  0  0  0  0  0  0  0
   35.4700   30.1100   46.0740 Cl  0  0  0  0  0  0  0  0  0  0  0  0
   34.3700   29.2230   47.1140 C   0  0  0  0  0  0  0  0  0  0  0  0
   34.6000   28.9120   48.4490 C   0  0  0  0  0  0  0  0  0  0  0  0
   33.6370   28.2070   49.1320 C   0  0  0  0  0  0  0  0  0  0  0  0
   33.8570   27.9870   50.1710 H   0  0  0  0  0  0  0  0  0  0  0  0
   32.4510   27.7900   48.5700 C   0  0  0  0  0  3  0  0  0  0  0  0
   32.2280   28.1030   47.2380 C   0  0  0  0  0  0  0  0  0  0  0  0
   30.7350   27.5920   46.4830 Cl  0  0  0  0  0  0  0  0  0  0  0  0
   33.1760   28.8100   46.5220 C   0  0  0  0  0  0  0  0  0  0  0  0
   32.9410   29.0190   45.4980 H   0  0  0  0  0  0  0  0  0  0  0  0
  1  3  1  0  0  0  0
  1  4  1  1  0  0  0
  2  1  1  0  0  0  0
  2  3  1  0  0  0  0
  2  5  1  1  0  0  0
  3  6  1  0  0  0  0
  7  3  1  0  0  0  0
  8  9  1  0  0  0  0
  8  1  1  0  0  0  0
  9 14  1  0  0  0  0
 10 15  1  0  0  0  0
 10  9  2  0  0  0  0
 11 10  1  0  0  0  0
 12 11  2  0  0  0  0
 12 13  1  0  0  0  0
 13  8  2  0  0  0  0
 16 12  1  0  0  0  0
 17  2  1  0  0  0  0
 18 19  1  0  0  0  0
 19 20  1  0  0  0  0
 20 17  1  0  0  0  0
 20 21  2  0  0  0  0
 21 22  1  0  0  0  0
 23 21  1  0  0  0  0
 24 23  2  0  0  0  0
 25 24  1  0  0  0  0
 26 19  2  0  0  0  0
 26 24  1  0  0  0  0
 27 26  1  0  0  0  0
M  END
>  <minimizedAffinity>
-5.5352726

>  <minimizedRMSD>
1.9117713

$$$$
