
 OpenBabel03272510263D

 46 50  0  0  1  0  0  0  0  0999 V2000
   39.4990   33.5520   43.3110 O   0  0  0  0  0  0  0  0  0  0  0  0
   36.2280   30.2260   46.9150 C   0  0  0  0  0  0  0  0  0  0  0  0
   37.0710   30.7580   47.8770 C   0  0  0  0  0  0  0  0  0  0  0  0
   38.0780   31.6580   47.5120 C   0  0  0  0  0  0  0  0  0  0  0  0
   38.1610   31.9640   46.1580 C   0  0  0  0  0  0  0  0  0  0  0  0
   39.0660   32.8120   45.5560 N   0  0  0  0  0  0  0  0  0  0  0  0
   38.7810   32.8010   44.2470 C   0  0  0  0  0  0  0  0  0  0  0  0
   37.7630   32.0000   44.0280 N   0  0  0  0  0  0  0  0  0  0  0  0
   37.3470   31.4580   45.1840 C   0  0  0  0  0  0  0  0  0  0  0  0
   36.3510   30.5640   45.5730 C   0  0  0  0  0  0  0  0  0  0  0  0
   35.4280   29.5220   47.1370 H   0  0  0  0  0  0  0  0  0  0  0  0
   38.7430   32.0810   48.2520 H   0  0  0  0  0  0  0  0  0  0  0  0
   39.8190   33.3470   46.0560 H   0  0  0  0  0  0  0  0  0  0  0  0
   35.7020   30.1590   44.8070 H   0  0  0  0  0  0  0  0  0  0  0  0
   37.4540   30.1380   51.5540 C   0  0  0  0  0  0  0  0  0  0  0  0
   37.7750   30.5900   50.2810 C   0  0  0  0  0  0  0  0  0  0  0  0
   36.8810   30.3560   49.2540 C   0  0  0  0  0  0  0  0  0  0  0  0
   35.7210   29.6890   49.5590 N   0  0  0  0  0  0  0  0  0  0  0  0
   35.4310   29.2600   50.8030 C   0  0  0  0  0  0  0  0  0  0  0  0
   36.2950   29.4870   51.7840 N   0  0  0  0  0  0  0  0  0  0  0  0
   38.1690   30.3290   52.3550 H   0  0  0  0  0  0  0  0  0  0  0  0
   38.6860   31.1130   50.0480 H   0  0  0  0  0  0  0  0  0  0  0  0
   34.4870   28.7450   50.9240 H   0  0  0  0  0  0  0  0  0  0  0  0
   39.6030   31.6660   41.9870 N   0  0  0  0  0  0  0  0  0  0  0  0
   39.4280   33.1210   41.9600 C   0  0  1  0  0  0  0  0  0  0  0  0
   38.1150   33.4130   41.3990 C   0  0  0  0  0  0  0  0  0  0  0  0
   38.0960   33.0040   40.0600 O   0  0  0  0  0  0  0  0  0  0  0  0
   38.3860   31.6690   39.8660 C   0  0  0  0  0  0  0  0  0  0  0  0
   39.6490   31.2600   40.6170 C   0  0  2  0  0  0  0  0  0  0  0  0
   38.7690   31.1910   42.3750 H   0  0  0  0  0  0  0  0  0  0  0  0
   40.2300   33.4950   41.3290 H   0  0  0  0  0  0  0  0  0  0  0  0
   37.1960   33.0440   41.7730 H   0  0  0  0  0  0  0  0  0  0  0  0
   38.0120   34.5400   41.3390 H   0  0  0  0  0  0  0  0  0  0  0  0
   37.5500   31.0200   40.1740 H   0  0  0  0  0  0  0  0  0  0  0  0
   38.5650   31.5330   38.7870 H   0  0  0  0  0  0  0  0  0  0  0  0
   40.5380   31.7630   40.1210 H   0  0  0  0  0  0  0  0  0  0  0  0
   38.0580   28.8640   42.2110 Cl  0  0  0  0  0  0  0  0  0  0  0  0
   39.2810   28.6560   40.9850 C   0  0  0  0  0  0  0  0  0  0  0  0
   39.8070   29.8150   40.4800 C   0  0  0  0  0  0  0  0  0  0  0  0
   40.7920   29.5210   39.5110 C   0  0  0  0  0  0  0  0  0  0  0  0
   41.3680   30.2750   38.9550 H   0  0  0  0  0  0  0  0  0  0  0  0
   41.1890   28.2440   39.1090 C   0  0  0  0  0  3  0  0  0  0  0  0
   40.5880   27.1690   39.6880 C   0  0  0  0  0  0  0  0  0  0  0  0
   41.0030   25.5270   39.2640 Cl  0  0  0  0  0  0  0  0  0  0  0  0
   39.6280   27.3800   40.6310 C   0  0  0  0  0  0  0  0  0  0  0  0
   39.1340   26.5670   41.1070 H   0  0  0  0  0  0  0  0  0  0  0  0
  1  7  1  0  0  0  0
  2 11  1  0  0  0  0
  2  3  1  0  0  0  0
  3 17  1  0  0  0  0
  4  3  2  0  0  0  0
  4 12  1  0  0  0  0
  5  4  1  0  0  0  0
  6 13  1  0  0  0  0
  6  5  1  0  0  0  0
  7  6  1  0  0  0  0
  8  7  2  0  0  0  0
  8  9  1  0  0  0  0
  9 10  1  0  0  0  0
  9  5  2  0  0  0  0
 10  2  2  0  0  0  0
 14 10  1  0  0  0  0
 15 20  1  0  0  0  0
 15 21  1  0  0  0  0
 16 15  2  0  0  0  0
 17 18  2  0  0  0  0
 17 16  1  0  0  0  0
 18 19  1  0  0  0  0
 19 23  1  0  0  0  0
 19 20  2  0  0  0  0
 22 16  1  0  0  0  0
 24 30  1  0  0  0  0
 25 31  1  6  0  0  0
 25 24  1  0  0  0  0
 25  1  1  0  0  0  0
 26 32  1  0  0  0  0
 26 25  1  0  0  0  0
 27 26  1  0  0  0  0
 28 27  1  0  0  0  0
 28 34  1  0  0  0  0
 28 29  1  0  0  0  0
 29 36  1  6  0  0  0
 29 24  1  0  0  0  0
 33 26  1  0  0  0  0
 35 28  1  0  0  0  0
 38 37  1  0  0  0  0
 39 29  1  0  0  0  0
 39 38  2  0  0  0  0
 40 39  1  0  0  0  0
 41 40  1  0  0  0  0
 42 40  2  0  0  0  0
 42 43  1  0  0  0  0
 43 45  2  0  0  0  0
 44 43  1  0  0  0  0
 45 38  1  0  0  0  0
 45 46  1  0  0  0  0
M  END
>  <minimizedAffinity>
-6.17394829

>  <minimizedRMSD>
0.627307594

$$$$
