
 OpenBabel03272507153D

 41 45  0  0  0  0  0  0  0  0999 V2000
   38.1080   26.1420   33.6500 C   0  0  0  0  0  0  0  0  0  0  0  0
   38.7690   27.0990   34.3550 C   0  0  0  0  0  0  0  0  0  0  0  0
   39.8120   26.4540   35.0300 C   0  0  0  0  0  0  0  0  0  0  0  0
   39.7110   25.1000   34.6800 C   0  0  0  0  0  0  0  0  0  0  0  0
   38.6970   24.9930   33.8730 O   0  0  0  0  0  0  0  0  0  0  0  0
   38.5620   28.1590   34.4080 H   0  0  0  0  0  0  0  0  0  0  0  0
   40.4990   26.9890   35.6690 H   0  0  0  0  0  0  0  0  0  0  0  0
   41.9080   23.9360   34.6640 C   0  0  0  0  0  0  0  0  0  0  0  0
   40.6360   24.1030   35.1930 C   0  0  0  0  0  0  0  0  0  0  0  0
   40.1950   23.3290   36.2330 C   0  0  0  0  0  0  0  0  0  0  0  0
   41.0360   22.3710   36.7580 C   0  0  0  0  0  0  0  0  0  0  0  0
   40.8820   21.4890   37.7560 N   0  0  0  0  0  0  0  0  0  0  0  0
   42.0040   20.7820   37.8680 N   0  0  0  0  0  0  0  0  0  0  0  0
   42.8770   21.2230   36.9300 C   0  0  0  0  0  0  0  0  0  0  0  0
   42.2950   22.2340   36.2050 C   0  0  0  0  0  0  0  0  0  0  0  0
   42.7660   23.0020   35.1520 C   0  0  0  0  0  0  0  0  0  0  0  0
   42.2020   24.5840   33.8330 H   0  0  0  0  0  0  0  0  0  0  0  0
   39.2020   23.4000   36.7080 H   0  0  0  0  0  0  0  0  0  0  0  0
   40.0400   21.3610   38.3540 H   0  0  0  0  0  0  0  0  0  0  0  0
   43.8820   20.8080   36.8040 H   0  0  0  0  0  0  0  0  0  0  0  0
   43.7520   22.8670   34.7470 H   0  0  0  0  0  0  0  0  0  0  0  0
   36.9580   26.4520   32.8230 C   0  0  0  0  0  0  0  0  0  0  0  0
   36.3050   25.5050   32.3090 O   0  0  0  0  0  0  0  0  0  0  0  0
   36.6270   27.8390   32.6380 C   0  0  0  0  0  0  0  0  0  0  0  0
   36.9050   28.3950   31.3970 C   0  0  0  0  0  0  0  0  0  0  0  0
   36.6000   29.7390   31.1750 C   0  0  0  0  0  0  0  0  0  0  0  0
   36.0440   30.4250   32.2000 N   0  0  0  0  0  0  0  0  0  0  0  0
   35.7830   29.8770   33.3860 C   0  0  0  0  0  0  0  0  0  0  0  0
   36.0800   28.5930   33.5830 N   0  0  0  0  0  0  0  0  0  0  0  0
   37.3460   27.8090   30.6190 H   0  0  0  0  0  0  0  0  0  0  0  0
   36.7880   30.2330   30.2410 H   0  0  0  0  0  0  0  0  0  0  0  0
   32.8490   30.0830   33.2580 Cl  0  0  0  0  0  0  0  0  0  0  0  0
   33.8120   30.8320   34.5110 C   0  0  0  0  0  0  0  0  0  0  0  0
   35.1830   30.6610   34.4600 C   0  0  0  0  0  0  0  0  0  0  0  0
   35.9610   31.2430   35.4380 C   0  0  0  0  0  0  0  0  0  0  0  0
   37.0490   31.1380   35.4410 H   0  0  0  0  0  0  0  0  0  0  0  0
   35.3660   31.9910   36.4580 C   0  0  0  0  0  3  0  0  0  0  0  0
   33.9920   32.1270   36.4590 C   0  0  0  0  0  0  0  0  0  0  0  0
   33.1560   33.0550   37.7120 Cl  0  0  0  0  0  0  0  0  0  0  0  0
   33.1750   31.5620   35.5000 C   0  0  0  0  0  0  0  0  0  0  0  0
   32.0920   31.6720   35.5030 H   0  0  0  0  0  0  0  0  0  0  0  0
  1  5  1  0  0  0  0
  1  2  2  0  0  0  0
  2  6  1  0  0  0  0
  2  3  1  0  0  0  0
  3  7  1  0  0  0  0
  4  3  2  0  0  0  0
  4  9  1  0  0  0  0
  5  4  1  0  0  0  0
  8 16  2  0  0  0  0
  8  9  1  0  0  0  0
  9 10  2  0  0  0  0
 10 18  1  0  0  0  0
 10 11  1  0  0  0  0
 11 12  1  0  0  0  0
 12 13  1  0  0  0  0
 12 19  1  0  0  0  0
 14 13  2  0  0  0  0
 15 11  2  0  0  0  0
 15 14  1  0  0  0  0
 16 15  1  0  0  0  0
 17  8  1  0  0  0  0
 20 14  1  0  0  0  0
 21 16  1  0  0  0  0
 22  1  1  0  0  0  0
 23 22  2  0  0  0  0
 24 22  1  0  0  0  0
 24 29  1  0  0  0  0
 25 24  2  0  0  0  0
 26 25  1  0  0  0  0
 26 27  2  0  0  0  0
 27 28  1  0  0  0  0
 28 29  2  0  0  0  0
 28 34  1  0  0  0  0
 30 25  1  0  0  0  0
 31 26  1  0  0  0  0
 32 33  1  0  0  0  0
 33 40  1  0  0  0  0
 34 33  2  0  0  0  0
 34 35  1  0  0  0  0
 35 36  1  0  0  0  0
 35 37  2  0  0  0  0
 37 38  1  0  0  0  0
 38 39  1  0  0  0  0
 40 41  1  0  0  0  0
 40 38  2  0  0  0  0
M  END
>  <minimizedAffinity>
-6.91736221

$$$$

 OpenBabel03272507153D

 41 45  0  0  0  0  0  0  0  0999 V2000
   36.9430   25.8770   31.4260 C   0  0  0  0  0  0  0  0  0  0  0  0
   35.6140   25.9390   31.1410 C   0  0  0  0  0  0  0  0  0  0  0  0
   35.1420   24.6210   31.1320 C   0  0  0  0  0  0  0  0  0  0  0  0
   36.2550   23.8180   31.4210 C   0  0  0  0  0  0  0  0  0  0  0  0
   37.2670   24.6170   31.5810 O   0  0  0  0  0  0  0  0  0  0  0  0
   35.0060   26.8130   30.9530 H   0  0  0  0  0  0  0  0  0  0  0  0
   34.1080   24.3830   30.9310 H   0  0  0  0  0  0  0  0  0  0  0  0
   35.1330   21.7360   32.1910 C   0  0  0  0  0  0  0  0  0  0  0  0
   36.1560   22.3690   31.5000 C   0  0  0  0  0  0  0  0  0  0  0  0
   37.1250   21.6480   30.8540 C   0  0  0  0  0  0  0  0  0  0  0  0
   37.0750   20.2710   30.8960 C   0  0  0  0  0  0  0  0  0  0  0  0
   37.8660   19.3260   30.3680 N   0  0  0  0  0  0  0  0  0  0  0  0
   37.3760   18.1340   30.7030 N   0  0  0  0  0  0  0  0  0  0  0  0
   36.2630   18.3290   31.4510 C   0  0  0  0  0  0  0  0  0  0  0  0
   36.0410   19.6770   31.5950 C   0  0  0  0  0  0  0  0  0  0  0  0
   35.0490   20.3820   32.2570 C   0  0  0  0  0  0  0  0  0  0  0  0
   34.3890   22.3670   32.6870 H   0  0  0  0  0  0  0  0  0  0  0  0
   37.9680   22.0750   30.2850 H   0  0  0  0  0  0  0  0  0  0  0  0
   38.7190   19.4750   29.7920 H   0  0  0  0  0  0  0  0  0  0  0  0
   35.6630   17.5100   31.8590 H   0  0  0  0  0  0  0  0  0  0  0  0
   34.2590   19.8850   32.7910 H   0  0  0  0  0  0  0  0  0  0  0  0
   37.7650   27.0670   31.5180 C   0  0  0  0  0  0  0  0  0  0  0  0
   39.0190   26.9400   31.5500 O   0  0  0  0  0  0  0  0  0  0  0  0
   37.0940   28.3380   31.5680 C   0  0  0  0  0  0  0  0  0  0  0  0
   37.1380   29.1220   30.4240 C   0  0  0  0  0  0  0  0  0  0  0  0
   36.4990   30.3630   30.4290 C   0  0  0  0  0  0  0  0  0  0  0  0
   35.8670   30.7280   31.5690 N   0  0  0  0  0  0  0  0  0  0  0  0
   35.8330   29.9640   32.6600 C   0  0  0  0  0  0  0  0  0  0  0  0
   36.4490   28.7820   32.6390 N   0  0  0  0  0  0  0  0  0  0  0  0
   37.6520   28.7860   29.5480 H   0  0  0  0  0  0  0  0  0  0  0  0
   36.4930   31.0190   29.5810 H   0  0  0  0  0  0  0  0  0  0  0  0
   33.0080   29.1490   32.8110 Cl  0  0  0  0  0  0  0  0  0  0  0  0
   33.8070   30.0850   34.0530 C   0  0  0  0  0  0  0  0  0  0  0  0
   35.1390   30.4050   33.8640 C   0  0  0  0  0  0  0  0  0  0  0  0
   35.7880   31.1430   34.8320 C   0  0  0  0  0  0  0  0  0  0  0  0
   36.8390   31.4220   34.7280 H   0  0  0  0  0  0  0  0  0  0  0  0
   35.1030   31.5560   35.9790 C   0  0  0  0  0  3  0  0  0  0  0  0
   33.7740   31.2060   36.1140 C   0  0  0  0  0  0  0  0  0  0  0  0
   32.8320   31.6860   37.5330 Cl  0  0  0  0  0  0  0  0  0  0  0  0
   33.0860   30.4700   35.1710 C   0  0  0  0  0  0  0  0  0  0  0  0
   32.0380   30.1970   35.2800 H   0  0  0  0  0  0  0  0  0  0  0  0
  1 22  1  0  0  0  0
  1  5  1  0  0  0  0
  2  1  2  0  0  0  0
  3  2  1  0  0  0  0
  3  4  2  0  0  0  0
  4  9  1  0  0  0  0
  4  5  1  0  0  0  0
  6  2  1  0  0  0  0
  7  3  1  0  0  0  0
  8 16  1  0  0  0  0
  8 17  1  0  0  0  0
  9  8  2  0  0  0  0
 10 11  2  0  0  0  0
 10  9  1  0  0  0  0
 11 15  1  0  0  0  0
 12 13  1  0  0  0  0
 12 11  1  0  0  0  0
 13 14  2  0  0  0  0
 14 15  1  0  0  0  0
 14 20  1  0  0  0  0
 15 16  2  0  0  0  0
 16 21  1  0  0  0  0
 18 10  1  0  0  0  0
 19 12  1  0  0  0  0
 22 23  2  0  0  0  0
 22 24  1  0  0  0  0
 24 29  1  0  0  0  0
 25 26  1  0  0  0  0
 25 24  2  0  0  0  0
 26 27  2  0  0  0  0
 27 28  1  0  0  0  0
 28 34  1  0  0  0  0
 29 28  2  0  0  0  0
 30 25  1  0  0  0  0
 31 26  1  0  0  0  0
 32 33  1  0  0  0  0
 33 40  1  0  0  0  0
 34 33  2  0  0  0  0
 34 35  1  0  0  0  0
 35 37  2  0  0  0  0
 36 35  1  0  0  0  0
 37 38  1  0  0  0  0
 38 39  1  0  0  0  0
 40 41  1  0  0  0  0
 40 38  2  0  0  0  0
M  END
>  <minimizedAffinity>
-6.84105349

$$$$

 OpenBabel03272507153D

 41 45  0  0  0  0  0  0  0  0999 V2000
   36.7120   25.1950   31.8400 C   0  0  0  0  0  0  0  0  0  0  0  0
   37.4300   24.2800   31.1370 C   0  0  0  0  0  0  0  0  0  0  0  0
   38.2390   23.6060   32.0600 C   0  0  0  0  0  0  0  0  0  0  0  0
   37.9480   24.1780   33.3070 C   0  0  0  0  0  0  0  0  0  0  0  0
   37.0500   25.0960   33.1020 O   0  0  0  0  0  0  0  0  0  0  0  0
   37.4100   24.0800   30.0740 H   0  0  0  0  0  0  0  0  0  0  0  0
   38.9160   22.8190   31.7630 H   0  0  0  0  0  0  0  0  0  0  0  0
   38.1410   24.0960   35.7850 C   0  0  0  0  0  0  0  0  0  0  0  0
   38.6010   23.7330   34.5270 C   0  0  0  0  0  0  0  0  0  0  0  0
   39.7010   22.9290   34.3810 C   0  0  0  0  0  0  0  0  0  0  0  0
   40.3540   22.4770   35.5070 C   0  0  0  0  0  0  0  0  0  0  0  0
   41.4300   21.6940   35.6690 N   0  0  0  0  0  0  0  0  0  0  0  0
   41.6560   21.5560   36.9740 N   0  0  0  0  0  0  0  0  0  0  0  0
   40.7120   22.2600   37.6430 C   0  0  0  0  0  0  0  0  0  0  0  0
   39.8660   22.8600   36.7420 C   0  0  0  0  0  0  0  0  0  0  0  0
   38.7570   23.6720   36.9190 C   0  0  0  0  0  0  0  0  0  0  0  0
   37.2580   24.7400   35.8360 H   0  0  0  0  0  0  0  0  0  0  0  0
   40.1280   22.5970   33.4200 H   0  0  0  0  0  0  0  0  0  0  0  0
   42.0050   21.2570   34.9200 H   0  0  0  0  0  0  0  0  0  0  0  0
   40.6670   22.3160   38.7360 H   0  0  0  0  0  0  0  0  0  0  0  0
   38.4060   23.9490   37.8960 H   0  0  0  0  0  0  0  0  0  0  0  0
   35.7590   26.0810   31.2000 C   0  0  0  0  0  0  0  0  0  0  0  0
   34.8320   25.5800   30.5080 O   0  0  0  0  0  0  0  0  0  0  0  0
   35.9300   27.4950   31.3960 C   0  0  0  0  0  0  0  0  0  0  0  0
   36.6160   28.1920   30.4100 C   0  0  0  0  0  0  0  0  0  0  0  0
   36.8050   29.5660   30.5610 C   0  0  0  0  0  0  0  0  0  0  0  0
   36.2990   30.1420   31.6760 N   0  0  0  0  0  0  0  0  0  0  0  0
   35.6420   29.4600   32.6140 C   0  0  0  0  0  0  0  0  0  0  0  0
   35.4700   28.1480   32.4550 N   0  0  0  0  0  0  0  0  0  0  0  0
   36.9970   27.6890   29.5470 H   0  0  0  0  0  0  0  0  0  0  0  0
   37.3260   30.1660   29.8390 H   0  0  0  0  0  0  0  0  0  0  0  0
   32.7110   29.7450   32.6590 Cl  0  0  0  0  0  0  0  0  0  0  0  0
   33.7540   30.3230   33.9380 C   0  0  0  0  0  0  0  0  0  0  0  0
   35.1160   30.1280   33.7980 C   0  0  0  0  0  0  0  0  0  0  0  0
   35.9560   30.5770   34.7960 C   0  0  0  0  0  0  0  0  0  0  0  0
   37.0390   30.4470   34.7320 H   0  0  0  0  0  0  0  0  0  0  0  0
   35.4310   31.2150   35.9240 C   0  0  0  0  0  3  0  0  0  0  0  0
   34.0630   31.3800   36.0090 C   0  0  0  0  0  0  0  0  0  0  0  0
   33.3140   32.1760   37.4010 Cl  0  0  0  0  0  0  0  0  0  0  0  0
   33.1860   30.9480   35.0350 C   0  0  0  0  0  0  0  0  0  0  0  0
   32.1080   31.0810   35.1060 H   0  0  0  0  0  0  0  0  0  0  0  0
  1  5  1  0  0  0  0
  2  1  2  0  0  0  0
  2  3  1  0  0  0  0
  3  4  2  0  0  0  0
  4  9  1  0  0  0  0
  5  4  1  0  0  0  0
  6  2  1  0  0  0  0
  7  3  1  0  0  0  0
  8 17  1  0  0  0  0
  8 16  1  0  0  0  0
  9  8  2  0  0  0  0
 10  9  1  0  0  0  0
 10 11  2  0  0  0  0
 11 12  1  0  0  0  0
 11 15  1  0  0  0  0
 12 13  1  0  0  0  0
 13 14  2  0  0  0  0
 14 20  1  0  0  0  0
 15 16  2  0  0  0  0
 15 14  1  0  0  0  0
 16 21  1  0  0  0  0
 18 10  1  0  0  0  0
 19 12  1  0  0  0  0
 22 24  1  0  0  0  0
 22  1  1  0  0  0  0
 23 22  2  0  0  0  0
 24 29  1  0  0  0  0
 25 26  1  0  0  0  0
 25 24  2  0  0  0  0
 26 27  2  0  0  0  0
 27 28  1  0  0  0  0
 28 34  1  0  0  0  0
 29 28  2  0  0  0  0
 30 25  1  0  0  0  0
 31 26  1  0  0  0  0
 32 33  1  0  0  0  0
 33 40  1  0  0  0  0
 34 33  2  0  0  0  0
 34 35  1  0  0  0  0
 35 37  2  0  0  0  0
 36 35  1  0  0  0  0
 37 38  1  0  0  0  0
 38 39  1  0  0  0  0
 40 41  1  0  0  0  0
 40 38  2  0  0  0  0
M  END
>  <minimizedAffinity>
-6.74630117

$$$$

 OpenBabel03272507153D

 41 45  0  0  0  0  0  0  0  0999 V2000
   38.2350   26.6760   33.6350 C   0  0  0  0  0  0  0  0  0  0  0  0
   38.3730   27.3610   34.8020 C   0  0  0  0  0  0  0  0  0  0  0  0
   39.2890   26.6470   35.5830 C   0  0  0  0  0  0  0  0  0  0  0  0
   39.6590   25.5360   34.8120 C   0  0  0  0  0  0  0  0  0  0  0  0
   39.0070   25.6190   33.6910 O   0  0  0  0  0  0  0  0  0  0  0  0
   37.8890   28.2800   35.1050 H   0  0  0  0  0  0  0  0  0  0  0  0
   39.5820   26.9760   36.5690 H   0  0  0  0  0  0  0  0  0  0  0  0
   41.9610   24.6100   34.9850 C   0  0  0  0  0  0  0  0  0  0  0  0
   40.6100   24.5480   35.2960 C   0  0  0  0  0  0  0  0  0  0  0  0
   40.1100   23.5440   36.0820 C   0  0  0  0  0  0  0  0  0  0  0  0
   40.9710   22.5830   36.5690 C   0  0  0  0  0  0  0  0  0  0  0  0
   40.7740   21.5090   37.3460 N   0  0  0  0  0  0  0  0  0  0  0  0
   41.9450   20.9030   37.5300 N   0  0  0  0  0  0  0  0  0  0  0  0
   42.8930   21.6030   36.8610 C   0  0  0  0  0  0  0  0  0  0  0  0
   42.3100   22.6790   36.2370 C   0  0  0  0  0  0  0  0  0  0  0  0
   42.8410   23.6830   35.4440 C   0  0  0  0  0  0  0  0  0  0  0  0
   42.2980   25.4360   34.3510 H   0  0  0  0  0  0  0  0  0  0  0  0
   39.0540   23.4240   36.3740 H   0  0  0  0  0  0  0  0  0  0  0  0
   39.8710   21.1860   37.7490 H   0  0  0  0  0  0  0  0  0  0  0  0
   43.9490   21.3190   36.8460 H   0  0  0  0  0  0  0  0  0  0  0  0
   43.8890   23.7250   35.2060 H   0  0  0  0  0  0  0  0  0  0  0  0
   37.3550   27.1310   32.5760 C   0  0  0  0  0  0  0  0  0  0  0  0
   37.3930   28.3430   32.2320 O   0  0  0  0  0  0  0  0  0  0  0  0
   36.4810   26.1610   31.9750 C   0  0  0  0  0  0  0  0  0  0  0  0
   35.3860   26.6450   31.2720 C   0  0  0  0  0  0  0  0  0  0  0  0
   34.5110   25.7370   30.6730 C   0  0  0  0  0  0  0  0  0  0  0  0
   34.7910   24.4210   30.8190 N   0  0  0  0  0  0  0  0  0  0  0  0
   35.8470   23.9710   31.4970 C   0  0  0  0  0  0  0  0  0  0  0  0
   36.6720   24.8510   32.0630 N   0  0  0  0  0  0  0  0  0  0  0  0
   35.2090   27.6960   31.1870 H   0  0  0  0  0  0  0  0  0  0  0  0
   33.6470   26.0410   30.1160 H   0  0  0  0  0  0  0  0  0  0  0  0
   38.3390   23.0560   30.2240 Cl  0  0  0  0  0  0  0  0  0  0  0  0
   37.2420   21.9890   31.0690 C   0  0  0  0  0  0  0  0  0  0  0  0
   36.1030   22.5410   31.6240 C   0  0  0  0  0  0  0  0  0  0  0  0
   35.2240   21.7160   32.2950 C   0  0  0  0  0  0  0  0  0  0  0  0
   34.3110   22.1050   32.7500 H   0  0  0  0  0  0  0  0  0  0  0  0
   35.4890   20.3480   32.4060 C   0  0  0  0  0  3  0  0  0  0  0  0
   36.6440   19.8520   31.8320 C   0  0  0  0  0  0  0  0  0  0  0  0
   37.0570   18.1340   31.9240 Cl  0  0  0  0  0  0  0  0  0  0  0  0
   37.5490   20.6410   31.1520 C   0  0  0  0  0  0  0  0  0  0  0  0
   38.4570   20.2460   30.7000 H   0  0  0  0  0  0  0  0  0  0  0  0
  1  5  1  0  0  0  0
  1  2  2  0  0  0  0
  2  6  1  0  0  0  0
  2  3  1  0  0  0  0
  3  7  1  0  0  0  0
  4  9  1  0  0  0  0
  4  3  2  0  0  0  0
  5  4  1  0  0  0  0
  8  9  2  0  0  0  0
  8 16  1  0  0  0  0
  9 10  1  0  0  0  0
 10 18  1  0  0  0  0
 10 11  2  0  0  0  0
 11 12  1  0  0  0  0
 12 13  1  0  0  0  0
 12 19  1  0  0  0  0
 14 13  2  0  0  0  0
 15 11  1  0  0  0  0
 15 14  1  0  0  0  0
 16 15  2  0  0  0  0
 17  8  1  0  0  0  0
 20 14  1  0  0  0  0
 21 16  1  0  0  0  0
 22  1  1  0  0  0  0
 23 22  2  0  0  0  0
 24 29  1  0  0  0  0
 24 22  1  0  0  0  0
 25 24  2  0  0  0  0
 26 27  2  0  0  0  0
 26 25  1  0  0  0  0
 27 28  1  0  0  0  0
 28 34  1  0  0  0  0
 28 29  2  0  0  0  0
 30 25  1  0  0  0  0
 31 26  1  0  0  0  0
 32 33  1  0  0  0  0
 33 40  2  0  0  0  0
 33 34  1  0  0  0  0
 34 35  2  0  0  0  0
 35 37  1  0  0  0  0
 35 36  1  0  0  0  0
 38 39  1  0  0  0  0
 38 37  2  0  0  0  0
 40 38  1  0  0  0  0
 41 40  1  0  0  0  0
M  END
>  <minimizedAffinity>
-6.70193911

$$$$

 OpenBabel03272507153D

 41 45  0  0  0  0  0  0  0  0999 V2000
   38.2110   24.7360   35.6690 C   0  0  0  0  0  0  0  0  0  0  0  0
   38.4520   25.7560   36.5350 C   0  0  0  0  0  0  0  0  0  0  0  0
   38.1080   26.9390   35.8700 C   0  0  0  0  0  0  0  0  0  0  0  0
   37.6670   26.5450   34.5980 C   0  0  0  0  0  0  0  0  0  0  0  0
   37.7540   25.2480   34.5530 O   0  0  0  0  0  0  0  0  0  0  0  0
   38.8320   25.7060   37.5460 H   0  0  0  0  0  0  0  0  0  0  0  0
   38.2040   27.9090   36.3360 H   0  0  0  0  0  0  0  0  0  0  0  0
   36.2110   28.4250   33.8720 C   0  0  0  0  0  0  0  0  0  0  0  0
   37.2190   27.5090   33.6070 C   0  0  0  0  0  0  0  0  0  0  0  0
   37.8440   27.4780   32.3890 C   0  0  0  0  0  0  0  0  0  0  0  0
   37.4580   28.3740   31.4150 C   0  0  0  0  0  0  0  0  0  0  0  0
   37.8810   28.5750   30.1590 N   0  0  0  0  0  0  0  0  0  0  0  0
   37.1780   29.5760   29.6340 N   0  0  0  0  0  0  0  0  0  0  0  0
   36.3000   30.0120   30.5700 C   0  0  0  0  0  0  0  0  0  0  0  0
   36.4500   29.2700   31.7160 C   0  0  0  0  0  0  0  0  0  0  0  0
   35.8010   29.3240   32.9390 C   0  0  0  0  0  0  0  0  0  0  0  0
   35.7500   28.4000   34.8640 H   0  0  0  0  0  0  0  0  0  0  0  0
   38.6510   26.7840   32.1010 H   0  0  0  0  0  0  0  0  0  0  0  0
   38.6290   28.0520   29.6600 H   0  0  0  0  0  0  0  0  0  0  0  0
   35.5970   30.8330   30.3960 H   0  0  0  0  0  0  0  0  0  0  0  0
   35.0200   30.0350   33.1380 H   0  0  0  0  0  0  0  0  0  0  0  0
   38.4550   23.3510   36.0260 C   0  0  0  0  0  0  0  0  0  0  0  0
   39.4990   23.0640   36.6700 O   0  0  0  0  0  0  0  0  0  0  0  0
   37.4780   22.3780   35.6180 C   0  0  0  0  0  0  0  0  0  0  0  0
   36.5400   21.9880   36.5640 C   0  0  0  0  0  0  0  0  0  0  0  0
   35.5750   21.0440   36.2110 C   0  0  0  0  0  0  0  0  0  0  0  0
   35.6150   20.5620   34.9470 N   0  0  0  0  0  0  0  0  0  0  0  0
   36.5220   20.9460   34.0490 C   0  0  0  0  0  0  0  0  0  0  0  0
   37.4380   21.8480   34.4030 N   0  0  0  0  0  0  0  0  0  0  0  0
   36.5520   22.4000   37.5510 H   0  0  0  0  0  0  0  0  0  0  0  0
   34.8210   20.6980   36.8910 H   0  0  0  0  0  0  0  0  0  0  0  0
   35.9740   22.9090   31.9240 Cl  0  0  0  0  0  0  0  0  0  0  0  0
   36.2790   21.2150   31.6140 C   0  0  0  0  0  0  0  0  0  0  0  0
   36.5230   20.3940   32.6990 C   0  0  0  0  0  0  0  0  0  0  0  0
   36.7650   19.0550   32.4770 C   0  0  0  0  0  0  0  0  0  0  0  0
   36.9630   18.3650   33.3010 H   0  0  0  0  0  0  0  0  0  0  0  0
   36.7610   18.5460   31.1750 C   0  0  0  0  0  3  0  0  0  0  0  0
   36.5120   19.4140   30.1300 C   0  0  0  0  0  0  0  0  0  0  0  0
   36.4890   18.8550   28.4510 Cl  0  0  0  0  0  0  0  0  0  0  0  0
   36.2650   20.7600   30.3070 C   0  0  0  0  0  0  0  0  0  0  0  0
   36.0680   21.4400   29.4810 H   0  0  0  0  0  0  0  0  0  0  0  0
  1 22  1  0  0  0  0
  1  2  2  0  0  0  0
  2  6  1  0  0  0  0
  3  7  1  0  0  0  0
  3  2  1  0  0  0  0
  4  3  2  0  0  0  0
  5  4  1  0  0  0  0
  5  1  1  0  0  0  0
  8 17  1  0  0  0  0
  9  8  1  0  0  0  0
  9  4  1  0  0  0  0
 10  9  2  0  0  0  0
 11 15  2  0  0  0  0
 11 10  1  0  0  0  0
 12 11  1  0  0  0  0
 13 12  1  0  0  0  0
 13 14  2  0  0  0  0
 14 15  1  0  0  0  0
 15 16  1  0  0  0  0
 16 21  1  0  0  0  0
 16  8  2  0  0  0  0
 18 10  1  0  0  0  0
 19 12  1  0  0  0  0
 20 14  1  0  0  0  0
 22 23  2  0  0  0  0
 24 22  1  0  0  0  0
 24 25  1  0  0  0  0
 25 30  1  0  0  0  0
 26 25  2  0  0  0  0
 26 31  1  0  0  0  0
 27 26  1  0  0  0  0
 28 29  1  0  0  0  0
 28 27  2  0  0  0  0
 29 24  2  0  0  0  0
 33 32  1  0  0  0  0
 33 34  1  0  0  0  0
 34 28  1  0  0  0  0
 35 34  2  0  0  0  0
 35 36  1  0  0  0  0
 37 35  1  0  0  0  0
 38 40  1  0  0  0  0
 38 37  2  0  0  0  0
 39 38  1  0  0  0  0
 40 33  2  0  0  0  0
 41 40  1  0  0  0  0
M  END
>  <minimizedAffinity>
-6.67244864

$$$$

 OpenBabel03272507153D

 41 45  0  0  0  0  0  0  0  0999 V2000
   36.7750   27.9540   31.5320 C   0  0  0  0  0  0  0  0  0  0  0  0
   36.4690   29.0350   30.7650 C   0  0  0  0  0  0  0  0  0  0  0  0
   35.7130   29.8970   31.5680 C   0  0  0  0  0  0  0  0  0  0  0  0
   35.6050   29.2590   32.8120 C   0  0  0  0  0  0  0  0  0  0  0  0
   36.2490   28.1340   32.7180 O   0  0  0  0  0  0  0  0  0  0  0  0
   36.7370   29.2280   29.7360 H   0  0  0  0  0  0  0  0  0  0  0  0
   35.3360   30.8400   31.2010 H   0  0  0  0  0  0  0  0  0  0  0  0
   33.5460   29.5710   34.1720 C   0  0  0  0  0  0  0  0  0  0  0  0
   34.8810   29.8580   33.9210 C   0  0  0  0  0  0  0  0  0  0  0  0
   35.5800   30.7250   34.7190 C   0  0  0  0  0  0  0  0  0  0  0  0
   34.9390   31.3170   35.7870 C   0  0  0  0  0  0  0  0  0  0  0  0
   35.3580   32.1840   36.7190 N   0  0  0  0  0  0  0  0  0  0  0  0
   34.3410   32.4460   37.5370 N   0  0  0  0  0  0  0  0  0  0  0  0
   33.2660   31.7360   37.1150 C   0  0  0  0  0  0  0  0  0  0  0  0
   33.6100   31.0060   36.0040 C   0  0  0  0  0  0  0  0  0  0  0  0
   32.8790   30.1340   35.2130 C   0  0  0  0  0  0  0  0  0  0  0  0
   33.0430   28.8710   33.4980 H   0  0  0  0  0  0  0  0  0  0  0  0
   36.6380   31.0040   34.5880 H   0  0  0  0  0  0  0  0  0  0  0  0
   36.3100   32.5940   36.8090 H   0  0  0  0  0  0  0  0  0  0  0  0
   32.2920   31.7700   37.6140 H   0  0  0  0  0  0  0  0  0  0  0  0
   31.8450   29.9170   35.4120 H   0  0  0  0  0  0  0  0  0  0  0  0
   37.5600   26.8460   31.0200 C   0  0  0  0  0  0  0  0  0  0  0  0
   38.4090   27.0690   30.1170 O   0  0  0  0  0  0  0  0  0  0  0  0
   37.3180   25.5450   31.5820 C   0  0  0  0  0  0  0  0  0  0  0  0
   36.3060   24.7870   31.0080 C   0  0  0  0  0  0  0  0  0  0  0  0
   36.0370   23.5180   31.5230 C   0  0  0  0  0  0  0  0  0  0  0  0
   36.7940   23.1010   32.5650 N   0  0  0  0  0  0  0  0  0  0  0  0
   37.7620   23.8400   33.1050 C   0  0  0  0  0  0  0  0  0  0  0  0
   38.0060   25.0500   32.6020 N   0  0  0  0  0  0  0  0  0  0  0  0
   35.7360   25.1640   30.1850 H   0  0  0  0  0  0  0  0  0  0  0  0
   35.2710   22.8790   31.1300 H   0  0  0  0  0  0  0  0  0  0  0  0
   40.1850   22.3510   32.3400 Cl  0  0  0  0  0  0  0  0  0  0  0  0
   39.7100   22.6290   34.0000 C   0  0  0  0  0  0  0  0  0  0  0  0
   38.5490   23.3440   34.2280 C   0  0  0  0  0  0  0  0  0  0  0  0
   38.1550   23.5730   35.5300 C   0  0  0  0  0  0  0  0  0  0  0  0
   37.2460   24.1320   35.7620 H   0  0  0  0  0  0  0  0  0  0  0  0
   38.9240   23.0890   36.5930 C   0  0  0  0  0  3  0  0  0  0  0  0
   40.0750   22.3820   36.3040 C   0  0  0  0  0  0  0  0  0  0  0  0
   41.1060   21.7330   37.5870 Cl  0  0  0  0  0  0  0  0  0  0  0  0
   40.5040   22.1290   35.0180 C   0  0  0  0  0  0  0  0  0  0  0  0
   41.4120   21.5700   34.7940 H   0  0  0  0  0  0  0  0  0  0  0  0
  1  5  1  0  0  0  0
  2  1  2  0  0  0  0
  2  3  1  0  0  0  0
  3  4  2  0  0  0  0
  4  9  1  0  0  0  0
  5  4  1  0  0  0  0
  6  2  1  0  0  0  0
  7  3  1  0  0  0  0
  8 16  1  0  0  0  0
  9  8  2  0  0  0  0
  9 10  1  0  0  0  0
 10 11  2  0  0  0  0
 11 15  1  0  0  0  0
 11 12  1  0  0  0  0
 12 19  1  0  0  0  0
 12 13  1  0  0  0  0
 14 13  2  0  0  0  0
 14 20  1  0  0  0  0
 15 14  1  0  0  0  0
 16 21  1  0  0  0  0
 16 15  2  0  0  0  0
 17  8  1  0  0  0  0
 18 10  1  0  0  0  0
 22  1  1  0  0  0  0
 22 24  1  0  0  0  0
 23 22  2  0  0  0  0
 24 29  1  0  0  0  0
 25 26  1  0  0  0  0
 25 24  2  0  0  0  0
 26 27  2  0  0  0  0
 27 28  1  0  0  0  0
 28 34  1  0  0  0  0
 29 28  2  0  0  0  0
 30 25  1  0  0  0  0
 31 26  1  0  0  0  0
 32 33  1  0  0  0  0
 33 34  2  0  0  0  0
 33 40  1  0  0  0  0
 34 35  1  0  0  0  0
 35 36  1  0  0  0  0
 35 37  2  0  0  0  0
 38 37  1  0  0  0  0
 38 39  1  0  0  0  0
 40 38  2  0  0  0  0
 41 40  1  0  0  0  0
M  END
>  <minimizedAffinity>
-6.66963863

$$$$

 OpenBabel03272507153D

 41 45  0  0  0  0  0  0  0  0999 V2000
   36.8770   27.1410   33.3420 C   0  0  0  0  0  0  0  0  0  0  0  0
   36.5120   27.8350   32.2300 C   0  0  0  0  0  0  0  0  0  0  0  0
   35.8600   28.9910   32.6730 C   0  0  0  0  0  0  0  0  0  0  0  0
   35.8710   28.9200   34.0740 C   0  0  0  0  0  0  0  0  0  0  0  0
   36.4800   27.8160   34.3920 O   0  0  0  0  0  0  0  0  0  0  0  0
   36.6760   27.5790   31.1930 H   0  0  0  0  0  0  0  0  0  0  0  0
   35.4650   29.7260   31.9870 H   0  0  0  0  0  0  0  0  0  0  0  0
   36.0460   30.9150   35.5480 C   0  0  0  0  0  0  0  0  0  0  0  0
   35.2770   29.9580   34.9000 C   0  0  0  0  0  0  0  0  0  0  0  0
   33.9120   29.9530   35.0120 C   0  0  0  0  0  0  0  0  0  0  0  0
   33.2990   30.9180   35.7820 C   0  0  0  0  0  0  0  0  0  0  0  0
   32.0120   31.1590   36.0660 N   0  0  0  0  0  0  0  0  0  0  0  0
   31.9490   32.2230   36.8620 N   0  0  0  0  0  0  0  0  0  0  0  0
   33.2120   32.6610   37.0830 C   0  0  0  0  0  0  0  0  0  0  0  0
   34.0980   31.8540   36.4110 C   0  0  0  0  0  0  0  0  0  0  0  0
   35.4800   31.8820   36.3160 C   0  0  0  0  0  0  0  0  0  0  0  0
   37.1310   30.8660   35.4200 H   0  0  0  0  0  0  0  0  0  0  0  0
   33.2330   29.2290   34.5310 H   0  0  0  0  0  0  0  0  0  0  0  0
   31.1860   30.6200   35.7330 H   0  0  0  0  0  0  0  0  0  0  0  0
   33.4460   33.5280   37.7090 H   0  0  0  0  0  0  0  0  0  0  0  0
   36.0690   32.6260   36.8210 H   0  0  0  0  0  0  0  0  0  0  0  0
   37.5830   25.8760   33.2610 C   0  0  0  0  0  0  0  0  0  0  0  0
   37.0160   24.8970   32.7060 O   0  0  0  0  0  0  0  0  0  0  0  0
   38.9040   25.8150   33.8260 C   0  0  0  0  0  0  0  0  0  0  0  0
   39.6660   26.9740   33.7790 C   0  0  0  0  0  0  0  0  0  0  0  0
   40.9550   26.9580   34.3150 C   0  0  0  0  0  0  0  0  0  0  0  0
   41.3850   25.7940   34.8560 N   0  0  0  0  0  0  0  0  0  0  0  0
   40.6410   24.6900   34.8950 C   0  0  0  0  0  0  0  0  0  0  0  0
   39.4130   24.7210   34.3780 N   0  0  0  0  0  0  0  0  0  0  0  0
   39.2790   27.8690   33.3390 H   0  0  0  0  0  0  0  0  0  0  0  0
   41.5980   27.8160   34.3120 H   0  0  0  0  0  0  0  0  0  0  0  0
   42.6050   23.2530   33.2370 Cl  0  0  0  0  0  0  0  0  0  0  0  0
   42.0810   22.6950   34.8090 C   0  0  0  0  0  0  0  0  0  0  0  0
   41.1520   23.4600   35.4890 C   0  0  0  0  0  0  0  0  0  0  0  0
   40.7240   23.0380   36.7310 C   0  0  0  0  0  0  0  0  0  0  0  0
   39.9920   23.6070   37.3070 H   0  0  0  0  0  0  0  0  0  0  0  0
   41.2270   21.8550   37.2830 C   0  0  0  0  0  3  0  0  0  0  0  0
   42.1540   21.1330   36.5580 C   0  0  0  0  0  0  0  0  0  0  0  0
   42.8420   19.6260   37.1810 Cl  0  0  0  0  0  0  0  0  0  0  0  0
   42.6080   21.5180   35.3130 C   0  0  0  0  0  0  0  0  0  0  0  0
   43.3380   20.9450   34.7440 H   0  0  0  0  0  0  0  0  0  0  0  0
  1  5  1  0  0  0  0
  2  3  1  0  0  0  0
  2  1  2  0  0  0  0
  3  4  2  0  0  0  0
  4  5  1  0  0  0  0
  4  9  1  0  0  0  0
  6  2  1  0  0  0  0
  7  3  1  0  0  0  0
  8 16  1  0  0  0  0
  9 10  1  0  0  0  0
  9  8  2  0  0  0  0
 10 11  2  0  0  0  0
 11 12  1  0  0  0  0
 11 15  1  0  0  0  0
 12 13  1  0  0  0  0
 13 14  2  0  0  0  0
 14 20  1  0  0  0  0
 15 14  1  0  0  0  0
 16 15  2  0  0  0  0
 16 21  1  0  0  0  0
 17  8  1  0  0  0  0
 18 10  1  0  0  0  0
 19 12  1  0  0  0  0
 22  1  1  0  0  0  0
 22 24  1  0  0  0  0
 23 22  2  0  0  0  0
 24 29  1  0  0  0  0
 25 24  2  0  0  0  0
 25 26  1  0  0  0  0
 26 27  2  0  0  0  0
 27 28  1  0  0  0  0
 28 34  1  0  0  0  0
 29 28  2  0  0  0  0
 30 25  1  0  0  0  0
 31 26  1  0  0  0  0
 32 33  1  0  0  0  0
 33 40  2  0  0  0  0
 33 34  1  0  0  0  0
 34 35  2  0  0  0  0
 35 37  1  0  0  0  0
 35 36  1  0  0  0  0
 38 39  1  0  0  0  0
 38 37  2  0  0  0  0
 40 38  1  0  0  0  0
 41 40  1  0  0  0  0
M  END
>  <minimizedAffinity>
-6.64245319

$$$$

 OpenBabel03272507153D

 41 45  0  0  0  0  0  0  0  0999 V2000
   37.1380   26.3570   33.2780 C   0  0  0  0  0  0  0  0  0  0  0  0
   37.1780   27.2320   34.3180 C   0  0  0  0  0  0  0  0  0  0  0  0
   37.8510   26.5870   35.3630 C   0  0  0  0  0  0  0  0  0  0  0  0
   38.1860   25.3170   34.8710 C   0  0  0  0  0  0  0  0  0  0  0  0
   37.7400   25.2540   33.6520 O   0  0  0  0  0  0  0  0  0  0  0  0
   36.7820   28.2370   34.3680 H   0  0  0  0  0  0  0  0  0  0  0  0
   38.0240   27.0650   36.3160 H   0  0  0  0  0  0  0  0  0  0  0  0
   38.5160   24.0360   36.9760 C   0  0  0  0  0  0  0  0  0  0  0  0
   38.9030   24.3450   35.6800 C   0  0  0  0  0  0  0  0  0  0  0  0
   39.9870   23.7400   35.1010 C   0  0  0  0  0  0  0  0  0  0  0  0
   40.6990   22.8080   35.8250 C   0  0  0  0  0  0  0  0  0  0  0  0
   41.7770   22.0690   35.5260 N   0  0  0  0  0  0  0  0  0  0  0  0
   42.0750   21.3150   36.5810 N   0  0  0  0  0  0  0  0  0  0  0  0
   41.1740   21.5800   37.5590 C   0  0  0  0  0  0  0  0  0  0  0  0
   40.2840   22.5260   37.1130 C   0  0  0  0  0  0  0  0  0  0  0  0
   39.1930   23.1240   37.7230 C   0  0  0  0  0  0  0  0  0  0  0  0
   37.6430   24.5540   37.3830 H   0  0  0  0  0  0  0  0  0  0  0  0
   40.3570   23.9300   34.0800 H   0  0  0  0  0  0  0  0  0  0  0  0
   42.3050   22.0680   34.6300 H   0  0  0  0  0  0  0  0  0  0  0  0
   41.1920   21.0930   38.5390 H   0  0  0  0  0  0  0  0  0  0  0  0
   38.8990   22.8800   38.7280 H   0  0  0  0  0  0  0  0  0  0  0  0
   36.5100   26.6920   32.0150 C   0  0  0  0  0  0  0  0  0  0  0  0
   36.5060   25.8350   31.0910 O   0  0  0  0  0  0  0  0  0  0  0  0
   35.9210   27.9980   31.8910 C   0  0  0  0  0  0  0  0  0  0  0  0
   36.4170   28.8220   30.8900 C   0  0  0  0  0  0  0  0  0  0  0  0
   35.8740   30.0990   30.7360 C   0  0  0  0  0  0  0  0  0  0  0  0
   34.8820   30.4560   31.5850 N   0  0  0  0  0  0  0  0  0  0  0  0
   34.4160   29.6530   32.5400 C   0  0  0  0  0  0  0  0  0  0  0  0
   34.9460   28.4370   32.6760 N   0  0  0  0  0  0  0  0  0  0  0  0
   37.2030   28.4910   30.2450 H   0  0  0  0  0  0  0  0  0  0  0  0
   36.2090   30.7870   29.9840 H   0  0  0  0  0  0  0  0  0  0  0  0
   35.3350   30.7730   35.1040 Cl  0  0  0  0  0  0  0  0  0  0  0  0
   33.6480   30.6310   34.6650 C   0  0  0  0  0  0  0  0  0  0  0  0
   33.3460   30.0870   33.4300 C   0  0  0  0  0  0  0  0  0  0  0  0
   32.0220   29.9650   33.0640 C   0  0  0  0  0  0  0  0  0  0  0  0
   31.7320   29.5420   32.1000 H   0  0  0  0  0  0  0  0  0  0  0  0
   31.0100   30.3880   33.9330 C   0  0  0  0  0  3  0  0  0  0  0  0
   31.3720   30.9250   35.1530 C   0  0  0  0  0  0  0  0  0  0  0  0
   30.1580   31.4840   36.3120 Cl  0  0  0  0  0  0  0  0  0  0  0  0
   32.6830   31.0640   35.5590 C   0  0  0  0  0  0  0  0  0  0  0  0
   32.9650   31.4870   36.5220 H   0  0  0  0  0  0  0  0  0  0  0  0
  1  5  1  0  0  0  0
  1  2  2  0  0  0  0
  2  6  1  0  0  0  0
  2  3  1  0  0  0  0
  3  7  1  0  0  0  0
  4  3  2  0  0  0  0
  4  9  1  0  0  0  0
  5  4  1  0  0  0  0
  8 17  1  0  0  0  0
  8 16  1  0  0  0  0
  9  8  2  0  0  0  0
 10  9  1  0  0  0  0
 10 11  2  0  0  0  0
 11 15  1  0  0  0  0
 12 11  1  0  0  0  0
 12 13  1  0  0  0  0
 13 14  2  0  0  0  0
 14 20  1  0  0  0  0
 15 14  1  0  0  0  0
 15 16  2  0  0  0  0
 16 21  1  0  0  0  0
 18 10  1  0  0  0  0
 19 12  1  0  0  0  0
 22  1  1  0  0  0  0
 23 22  2  0  0  0  0
 24 22  1  0  0  0  0
 24 29  1  0  0  0  0
 25 24  2  0  0  0  0
 26 25  1  0  0  0  0
 26 27  2  0  0  0  0
 27 28  1  0  0  0  0
 28 29  2  0  0  0  0
 28 34  1  0  0  0  0
 30 25  1  0  0  0  0
 31 26  1  0  0  0  0
 33 32  1  0  0  0  0
 33 40  1  0  0  0  0
 34 33  2  0  0  0  0
 35 34  1  0  0  0  0
 35 37  2  0  0  0  0
 36 35  1  0  0  0  0
 37 38  1  0  0  0  0
 38 40  2  0  0  0  0
 38 39  1  0  0  0  0
 40 41  1  0  0  0  0
M  END
>  <minimizedAffinity>
-6.59529305

$$$$

 OpenBabel03272507153D

 41 45  0  0  0  0  0  0  0  0999 V2000
   37.2730   28.6410   31.4450 C   0  0  0  0  0  0  0  0  0  0  0  0
   36.8320   29.7030   30.7200 C   0  0  0  0  0  0  0  0  0  0  0  0
   35.8980   30.3760   31.5170 C   0  0  0  0  0  0  0  0  0  0  0  0
   35.8300   29.6500   32.7150 C   0  0  0  0  0  0  0  0  0  0  0  0
   36.6580   28.6540   32.6020 O   0  0  0  0  0  0  0  0  0  0  0  0
   37.1220   30.0050   29.7230 H   0  0  0  0  0  0  0  0  0  0  0  0
   35.3890   31.2660   31.1780 H   0  0  0  0  0  0  0  0  0  0  0  0
   33.6650   29.5510   33.9340 C   0  0  0  0  0  0  0  0  0  0  0  0
   34.9540   30.0480   33.8050 C   0  0  0  0  0  0  0  0  0  0  0  0
   35.4620   30.9420   34.7100 C   0  0  0  0  0  0  0  0  0  0  0  0
   34.6720   31.3490   35.7640 C   0  0  0  0  0  0  0  0  0  0  0  0
   34.8960   32.1920   36.7820 N   0  0  0  0  0  0  0  0  0  0  0  0
   33.8000   32.2390   37.5370 N   0  0  0  0  0  0  0  0  0  0  0  0
   32.8740   31.4160   36.9890 C   0  0  0  0  0  0  0  0  0  0  0  0
   33.3940   30.8330   35.8590 C   0  0  0  0  0  0  0  0  0  0  0  0
   32.8550   29.9290   34.9570 C   0  0  0  0  0  0  0  0  0  0  0  0
   33.3170   28.8410   33.1780 H   0  0  0  0  0  0  0  0  0  0  0  0
   36.4730   31.3810   34.6780 H   0  0  0  0  0  0  0  0  0  0  0  0
   35.7680   32.7270   36.9710 H   0  0  0  0  0  0  0  0  0  0  0  0
   31.8760   31.2680   37.4140 H   0  0  0  0  0  0  0  0  0  0  0  0
   31.8550   29.5480   35.0630 H   0  0  0  0  0  0  0  0  0  0  0  0
   38.2600   27.7130   30.9270 C   0  0  0  0  0  0  0  0  0  0  0  0
   38.2690   27.4610   29.6920 O   0  0  0  0  0  0  0  0  0  0  0  0
   39.1800   27.1290   31.8640 C   0  0  0  0  0  0  0  0  0  0  0  0
   40.5340   27.3170   31.6220 C   0  0  0  0  0  0  0  0  0  0  0  0
   41.4620   26.7660   32.5070 C   0  0  0  0  0  0  0  0  0  0  0  0
   40.9750   26.0720   33.5630 N   0  0  0  0  0  0  0  0  0  0  0  0
   39.6720   25.9010   33.7820 C   0  0  0  0  0  0  0  0  0  0  0  0
   38.7980   26.4330   32.9270 N   0  0  0  0  0  0  0  0  0  0  0  0
   40.8680   27.8730   30.7720 H   0  0  0  0  0  0  0  0  0  0  0  0
   42.5220   26.8710   32.3810 H   0  0  0  0  0  0  0  0  0  0  0  0
   38.2860   27.5130   35.8190 Cl  0  0  0  0  0  0  0  0  0  0  0  0
   38.5310   25.7870   35.9600 C   0  0  0  0  0  0  0  0  0  0  0  0
   39.1980   25.1440   34.9350 C   0  0  0  0  0  0  0  0  0  0  0  0
   39.4020   23.7830   35.0270 C   0  0  0  0  0  0  0  0  0  0  0  0
   39.9240   23.2290   34.2430 H   0  0  0  0  0  0  0  0  0  0  0  0
   38.9400   23.0760   36.1410 C   0  0  0  0  0  3  0  0  0  0  0  0
   38.2790   23.7720   37.1340 C   0  0  0  0  0  0  0  0  0  0  0  0
   37.6600   22.9570   38.5780 Cl  0  0  0  0  0  0  0  0  0  0  0  0
   38.0540   25.1320   37.0830 C   0  0  0  0  0  0  0  0  0  0  0  0
   37.5330   25.6780   37.8690 H   0  0  0  0  0  0  0  0  0  0  0  0
  1  5  1  0  0  0  0
  2  1  2  0  0  0  0
  2  3  1  0  0  0  0
  3  4  2  0  0  0  0
  4  9  1  0  0  0  0
  5  4  1  0  0  0  0
  6  2  1  0  0  0  0
  7  3  1  0  0  0  0
  8 16  1  0  0  0  0
  9  8  2  0  0  0  0
  9 10  1  0  0  0  0
 10 11  2  0  0  0  0
 11 15  1  0  0  0  0
 11 12  1  0  0  0  0
 12 19  1  0  0  0  0
 12 13  1  0  0  0  0
 14 20  1  0  0  0  0
 14 13  2  0  0  0  0
 15 14  1  0  0  0  0
 16 21  1  0  0  0  0
 16 15  2  0  0  0  0
 17  8  1  0  0  0  0
 18 10  1  0  0  0  0
 22  1  1  0  0  0  0
 22 24  1  0  0  0  0
 23 22  2  0  0  0  0
 24 29  1  0  0  0  0
 25 24  2  0  0  0  0
 25 26  1  0  0  0  0
 26 27  2  0  0  0  0
 27 28  1  0  0  0  0
 28 34  1  0  0  0  0
 29 28  2  0  0  0  0
 30 25  1  0  0  0  0
 31 26  1  0  0  0  0
 32 33  1  0  0  0  0
 33 40  1  0  0  0  0
 34 35  1  0  0  0  0
 34 33  2  0  0  0  0
 35 37  2  0  0  0  0
 36 35  1  0  0  0  0
 37 38  1  0  0  0  0
 38 39  1  0  0  0  0
 40 38  2  0  0  0  0
 40 41  1  0  0  0  0
M  END
>  <minimizedAffinity>
-6.59406614

$$$$
