
 OpenBabel03262521213D

 34 35  0  0  0  0  0  0  0  0999 V2000
   38.4040   32.8710   48.9720 C   0  0  0  0  0  0  0  0  0  0  0  0
   37.8890   33.7460   48.5220 H   0  0  0  0  0  0  0  0  0  0  0  0
   39.2000   33.3370   49.6260 H   0  0  0  0  0  0  0  0  0  0  0  0
   37.6270   31.9690   49.6380 C   0  0  0  0  0  0  0  0  0  0  0  0
   37.2030   32.4630   50.5670 H   0  0  0  0  0  0  0  0  0  0  0  0
   36.7030   31.6180   49.1260 H   0  0  0  0  0  0  0  0  0  0  0  0
   38.3330   30.7620   50.1460 C   0  0  0  0  0  0  0  0  0  0  0  0
   38.7350   31.0210   51.1690 H   0  0  0  0  0  0  0  0  0  0  0  0
   39.2790   30.5820   49.5540 H   0  0  0  0  0  0  0  0  0  0  0  0
   37.3480   29.3130   50.2970 S   0  0  0  0  0  0  0  0  0  0  0  0
   37.7480   29.5970   53.3400 Cl  0  0  0  0  0  0  0  0  0  0  0  0
   38.3870   28.2310   52.4440 C   0  0  0  0  0  0  0  0  0  0  0  0
   38.2700   28.0020   51.0680 C   0  0  0  0  0  0  0  0  0  0  0  0
   38.8550   26.8550   50.5780 C   0  0  0  0  0  0  0  0  0  0  0  0
   38.7060   26.7900   49.5160 H   0  0  0  0  0  0  0  0  0  0  0  0
   39.5210   25.9740   51.3830 C   0  0  0  0  0  3  0  0  0  0  0  0
   39.6450   26.1900   52.7520 C   0  0  0  0  0  0  0  0  0  0  0  0
   40.5160   24.9910   53.6610 Cl  0  0  0  0  0  0  0  0  0  0  0  0
   39.0700   27.3280   53.2680 C   0  0  0  0  0  0  0  0  0  0  0  0
   39.2010   27.4340   54.3290 H   0  0  0  0  0  0  0  0  0  0  0  0
   39.0230   32.0420   48.0930 O   0  0  0  0  0  0  0  0  0  0  0  0
   38.9570   32.3330   46.7580 C   0  0  0  0  0  0  0  0  0  0  0  0
   40.1680   32.7600   46.2550 C   0  0  0  0  0  0  0  0  0  0  0  0
   40.2850   33.1060   44.8840 C   0  0  0  0  0  0  0  0  0  0  0  0
   39.1410   32.9850   44.1330 N   0  0  0  0  0  0  0  0  0  0  0  0
   37.9610   32.5580   44.6700 C   0  0  0  0  0  0  0  0  0  0  0  0
   37.8880   32.2420   45.9560 N   0  0  0  0  0  0  0  0  0  0  0  0
   37.0830   32.8510   42.4620 C   0  0  0  0  0  0  0  0  0  0  0  0
   38.2070   33.2560   41.9890 O   0  0  0  0  0  0  0  0  0  0  0  0
   36.8180   32.4620   43.8150 N   0  0  0  0  0  0  0  0  0  0  0  0
   41.0930   32.8680   46.8180 H   0  0  0  0  0  0  0  0  0  0  0  0
   41.2120   33.4400   44.4670 H   0  0  0  0  0  0  0  0  0  0  0  0
   36.2810   32.8150   41.7320 H   0  0  0  0  0  0  0  0  0  0  0  0
   35.9120   32.1440   44.1600 H   0  0  0  0  0  0  0  0  0  0  0  0
  1  3  1  0  0  0  0
  1  4  1  0  0  0  0
  2  1  1  0  0  0  0
  4  7  1  0  0  0  0
  4  5  1  0  0  0  0
  6  4  1  0  0  0  0
  7 10  1  0  0  0  0
  7  8  1  0  0  0  0
  9  7  1  0  0  0  0
 10 13  1  0  0  0  0
 12 19  1  0  0  0  0
 12 11  1  0  0  0  0
 13 12  2  0  0  0  0
 14 13  1  0  0  0  0
 14 16  2  0  0  0  0
 15 14  1  0  0  0  0
 16 17  1  0  0  0  0
 17 19  2  0  0  0  0
 17 18  1  0  0  0  0
 19 20  1  0  0  0  0
 21  1  1  0  0  0  0
 22 21  1  0  0  0  0
 23 22  1  0  0  0  0
 23 31  1  0  0  0  0
 24 23  2  0  0  0  0
 25 26  2  0  0  0  0
 25 24  1  0  0  0  0
 26 27  1  0  0  0  0
 27 22  2  0  0  0  0
 28 30  1  0  0  0  0
 29 28  2  0  0  0  0
 30 34  1  0  0  0  0
 30 26  1  0  0  0  0
 32 24  1  0  0  0  0
 33 28  1  0  0  0  0
M  END
>  <minimizedAffinity>
-0.128728241

>  <minimizedRMSD>
1.01863718

$$$$
