
 OpenBabel03272503333D

 42 45  0  0  1  0  0  0  0  0999 V2000
   35.4980   29.4240   47.7930 C   0  0  0  0  0  0  0  0  0  0  0  0
   35.4330   30.0370   46.5410 C   0  0  0  0  0  0  0  0  0  0  0  0
   34.4050   29.6360   45.6800 C   0  0  0  0  0  0  0  0  0  0  0  0
   33.5370   28.6660   46.1350 N   0  0  0  0  0  0  0  0  0  0  0  0
   33.6390   28.1070   47.3420 C   0  0  0  0  0  0  0  0  0  0  0  0
   34.6210   28.4890   48.1680 N   0  0  0  0  0  0  0  0  0  0  0  0
   36.1130   30.7960   46.1830 H   0  0  0  0  0  0  0  0  0  0  0  0
   34.2720   30.0450   44.7020 H   0  0  0  0  0  0  0  0  0  0  0  0
   36.5550   29.8430   48.6680 N   0  0  0  0  0  0  0  0  0  0  0  0
   37.7280   30.5850   48.3160 C   0  0  0  0  0  0  0  0  0  0  0  0
   38.0590   31.3070   49.6150 C   0  0  2  0  0  0  0  0  0  0  0  0
   36.9150   30.9990   50.5790 C   0  0  0  0  0  0  0  0  0  0  0  0
   36.6300   29.5830   50.1030 C   0  0  0  0  0  0  0  0  0  0  0  0
   37.5350   31.3390   47.5060 H   0  0  0  0  0  0  0  0  0  0  0  0
   38.5910   29.9290   48.0500 H   0  0  0  0  0  0  0  0  0  0  0  0
   38.9730   30.8750   50.0920 H   0  0  0  0  0  0  0  0  0  0  0  0
   36.0690   31.6500   50.3520 H   0  0  0  0  0  0  0  0  0  0  0  0
   37.2380   31.0350   51.6250 H   0  0  0  0  0  0  0  0  0  0  0  0
   35.6490   29.2600   50.4840 H   0  0  0  0  0  0  0  0  0  0  0  0
   37.4670   28.9290   50.3640 H   0  0  0  0  0  0  0  0  0  0  0  0
   38.2280   32.7870   49.4120 C   0  0  0  0  0  0  0  0  0  0  0  0
   37.0830   33.3880   49.8970 F   0  0  0  0  0  0  0  0  0  0  0  0
   38.2440   33.0080   48.0600 F   0  0  0  0  0  0  0  0  0  0  0  0
   39.3580   33.2890   50.0010 F   0  0  0  0  0  0  0  0  0  0  0  0
   32.4850   26.8590   47.8750 S   0  0  0  0  0  0  0  0  0  0  0  0
   30.9990   27.3690   48.4900 C   0  0  0  0  0  0  0  0  0  0  0  0
   30.1490   27.1380   49.5300 C   0  0  0  0  0  0  0  0  0  0  0  0
   28.9650   27.7610   49.7300 C   0  0  0  0  0  0  0  0  0  0  0  0
   28.6500   28.7580   48.6810 C   0  0  0  0  0  0  0  0  0  0  0  0
   30.0680   28.6890   47.5460 S   0  0  0  0  0  0  0  0  0  0  0  0
   30.5480   26.3820   50.1880 H   0  0  0  0  0  0  0  0  0  0  0  0
   28.3000   27.5760   50.5490 H   0  0  0  0  0  0  0  0  0  0  0  0
   26.5240   28.0120   50.6150 Cl  0  0  0  0  0  0  0  0  0  0  0  0
   26.4680   29.3070   49.4400 C   0  0  0  0  0  0  0  0  0  0  0  0
   27.5110   29.5760   48.5810 C   0  0  0  0  0  0  0  0  0  0  0  0
   27.5270   30.5780   47.6380 C   0  0  0  0  0  0  0  0  0  0  0  0
   28.3690   30.7450   46.9910 H   0  0  0  0  0  0  0  0  0  0  0  0
   26.3870   31.3850   47.5490 C   0  0  0  0  0  0  0  0  0  0  0  0
   25.2980   31.1550   48.3980 C   0  0  0  0  0  0  0  0  0  0  0  0
   23.8560   32.1460   48.3150 Cl  0  0  0  0  0  0  0  0  0  0  0  0
   25.3320   30.1220   49.3430 C   0  0  0  0  0  0  0  0  0  0  0  0
   24.4830   29.9580   49.9910 H   0  0  0  0  0  0  0  0  0  0  0  0
  1  6  1  0  0  0  0
  1  9  1  0  0  0  0
  2  1  2  0  0  0  0
  3  4  2  0  0  0  0
  3  2  1  0  0  0  0
  4  5  1  0  0  0  0
  5 25  1  0  0  0  0
  5  6  2  0  0  0  0
  7  2  1  0  0  0  0
  8  3  1  0  0  0  0
  9 13  1  0  0  0  0
 10  9  1  0  0  0  0
 10 11  1  0  0  0  0
 11 16  1  1  0  0  0
 11 12  1  0  0  0  0
 12 18  1  0  0  0  0
 13 20  1  0  0  0  0
 13 19  1  0  0  0  0
 13 12  1  0  0  0  0
 14 10  1  0  0  0  0
 15 10  1  0  0  0  0
 17 12  1  0  0  0  0
 21 11  1  0  0  0  0
 21 22  1  0  0  0  0
 21 24  1  0  0  0  0
 23 21  1  0  0  0  0
 25 26  1  0  0  0  0
 26 27  2  0  0  0  0
 27 28  1  0  0  0  0
 27 31  1  0  0  0  0
 28 32  1  0  0  0  0
 29 28  2  0  0  0  0
 30 26  1  0  0  0  0
 30 29  1  0  0  0  0
 34 33  1  0  0  0  0
 35 29  1  0  0  0  0
 35 34  2  0  0  0  0
 36 35  1  0  0  0  0
 37 36  1  0  0  0  0
 38 36  2  0  0  0  0
 38 39  1  0  0  0  0
 39 41  2  0  0  0  0
 40 39  1  0  0  0  0
 41 34  1  0  0  0  0
 41 42  1  0  0  0  0
M  END
>  <minimizedAffinity>
-7.0638938

>  <minimizedRMSD>
0.792119861

$$$$
