
 OpenBabel03272500453D

 26 28  0  0  0  0  0  0  0  0999 V2000
   33.8430   28.2120   46.6420 C   0  0  0  0  0  0  0  0  0  0  0  0
   33.1390   29.4160   46.6740 C   0  0  0  0  0  0  0  0  0  0  0  0
   34.0170   30.4590   46.4400 C   0  0  0  0  0  0  0  0  0  0  0  0
   35.2380   29.8720   46.2710 N   0  0  0  0  0  0  0  0  0  0  0  0
   35.1090   28.5590   46.3940 N   0  0  0  0  0  0  0  0  0  0  0  0
   32.0660   29.5280   46.8550 H   0  0  0  0  0  0  0  0  0  0  0  0
   33.7360   31.5050   46.4100 H   0  0  0  0  0  0  0  0  0  0  0  0
   36.8250   30.4510   48.7100 Cl  0  0  0  0  0  0  0  0  0  0  0  0
   37.1910   30.9970   47.0820 C   0  0  0  0  0  0  0  0  0  0  0  0
   36.3850   30.6720   46.0080 C   0  0  0  0  0  0  0  0  0  0  0  0
   36.6830   31.1110   44.7130 C   0  0  0  0  0  0  0  0  0  0  0  0
   36.0060   30.8220   43.8960 H   0  0  0  0  0  0  0  0  0  0  0  0
   37.8170   31.8970   44.4830 C   0  0  0  0  0  3  0  0  0  0  0  0
   38.6150   32.2110   45.5870 C   0  0  0  0  0  0  0  0  0  0  0  0
   40.0460   33.2030   45.2890 Cl  0  0  0  0  0  0  0  0  0  0  0  0
   38.3120   31.7720   46.8660 C   0  0  0  0  0  0  0  0  0  0  0  0
   38.9780   32.0550   47.6720 H   0  0  0  0  0  0  0  0  0  0  0  0
   33.8320   25.7170   46.5210 C   0  0  0  0  0  0  0  0  0  0  0  0
   33.2260   26.9270   46.8480 C   0  0  0  0  0  0  0  0  0  0  0  0
   31.9470   26.8730   47.4070 C   0  0  0  0  0  0  0  0  0  0  0  0
   31.3760   25.6450   47.5950 N   0  0  0  0  0  0  0  0  0  0  0  0
   32.0080   24.5020   47.2610 C   0  0  0  0  0  0  0  0  0  0  0  0
   33.2500   24.5270   46.7160 N   0  0  0  0  0  0  0  0  0  0  0  0
   34.8410   25.7380   46.0810 H   0  0  0  0  0  0  0  0  0  0  0  0
   31.3940   27.7580   47.6930 H   0  0  0  0  0  0  0  0  0  0  0  0
   31.4290   23.6120   47.4690 H   0  0  0  0  0  0  0  0  0  0  0  0
  1  2  1  0  0  0  0
  1 19  1  0  0  0  0
  2  6  1  0  0  0  0
  3  2  2  0  0  0  0
  4  5  1  0  0  0  0
  4  3  1  0  0  0  0
  5  1  2  0  0  0  0
  7  3  1  0  0  0  0
  9  8  1  0  0  0  0
 10  4  1  0  0  0  0
 10  9  2  0  0  0  0
 11 10  1  0  0  0  0
 12 11  1  0  0  0  0
 13 11  2  0  0  0  0
 13 14  1  0  0  0  0
 14 16  2  0  0  0  0
 15 14  1  0  0  0  0
 16  9  1  0  0  0  0
 16 17  1  0  0  0  0
 18 23  2  0  0  0  0
 18 19  1  0  0  0  0
 19 20  2  0  0  0  0
 20 21  1  0  0  0  0
 20 25  1  0  0  0  0
 22 26  1  0  0  0  0
 22 21  2  0  0  0  0
 23 22  1  0  0  0  0
 24 18  1  0  0  0  0
M  END
>  <minimizedAffinity>
-3.21951842

>  <minimizedRMSD>
6.36356068

$$$$
