
 OpenBabel03272508073D

 36 39  0  0  0  0  0  0  0  0999 V2000
   37.5740   23.9920   31.3220 C   0  0  0  0  0  0  0  0  0  0  0  0
   38.5240   24.7370   30.6360 C   0  0  0  0  0  0  0  0  0  0  0  0
   38.3520   26.0950   30.8970 C   0  0  0  0  0  0  0  0  0  0  0  0
   37.2900   26.1110   31.7410 N   0  0  0  0  0  0  0  0  0  0  0  0
   36.8260   24.8990   31.9990 N   0  0  0  0  0  0  0  0  0  0  0  0
   39.3020   24.3520   29.9830 H   0  0  0  0  0  0  0  0  0  0  0  0
   38.8950   26.9590   30.5440 H   0  0  0  0  0  0  0  0  0  0  0  0
   37.4440   22.5550   31.3020 C   0  0  0  0  0  0  0  0  0  0  0  0
   36.4570   21.9400   32.1110 C   0  0  0  0  0  0  0  0  0  0  0  0
   36.3570   20.5520   32.0640 C   0  0  0  0  0  0  0  0  0  0  0  0
   37.2100   19.8660   31.2480 N   0  0  0  0  0  0  0  0  0  0  0  0
   38.1450   20.4760   30.4850 C   0  0  0  0  0  0  0  0  0  0  0  0
   38.2530   21.8200   30.5210 N   0  0  0  0  0  0  0  0  0  0  0  0
   35.8290   22.5680   32.7220 H   0  0  0  0  0  0  0  0  0  0  0  0
   38.7970   19.8980   29.8560 H   0  0  0  0  0  0  0  0  0  0  0  0
   35.3290   19.8820   32.9030 C   0  0  0  0  0  0  0  0  0  0  0  0
   34.1360   20.0670   32.2430 F   0  0  0  0  0  0  0  0  0  0  0  0
   35.5610   18.5210   33.0540 F   0  0  0  0  0  0  0  0  0  0  0  0
   35.2270   20.4760   34.1590 F   0  0  0  0  0  0  0  0  0  0  0  0
   36.6650   27.2700   32.3600 C   0  0  0  0  0  0  0  0  0  0  0  0
   35.9330   28.2040   31.6210 C   0  0  0  0  0  0  0  0  0  0  0  0
   35.3540   29.2650   32.2270 C   0  0  0  0  0  0  0  0  0  0  0  0
   35.5020   29.4160   33.6240 C   0  0  0  0  0  0  0  0  0  0  0  0
   36.5300   27.9350   34.0350 S   0  0  0  0  0  0  0  0  0  0  0  0
   35.8310   28.0680   30.5290 H   0  0  0  0  0  0  0  0  0  0  0  0
   34.7950   29.9840   31.6960 H   0  0  0  0  0  0  0  0  0  0  0  0
   32.6380   29.3280   34.6890 Cl  0  0  0  0  0  0  0  0  0  0  0  0
   33.8490   30.4420   35.2150 C   0  0  0  0  0  0  0  0  0  0  0  0
   35.0800   30.3420   34.6320 C   0  0  0  0  0  0  0  0  0  0  0  0
   36.0120   31.2580   35.0890 C   0  0  0  0  0  0  0  0  0  0  0  0
   37.0540   31.3300   34.7370 H   0  0  0  0  0  0  0  0  0  0  0  0
   35.7300   32.1980   36.0540 C   0  0  0  0  0  3  0  0  0  0  0  0
   34.4640   32.2290   36.5880 C   0  0  0  0  0  0  0  0  0  0  0  0
   34.0660   33.4030   37.8100 Cl  0  0  0  0  0  0  0  0  0  0  0  0
   33.4860   31.3490   36.1820 C   0  0  0  0  0  0  0  0  0  0  0  0
   32.5000   31.3610   36.5860 H   0  0  0  0  0  0  0  0  0  0  0  0
  1  5  2  0  0  0  0
  2  3  2  0  0  0  0
  2  1  1  0  0  0  0
  3  4  1  0  0  0  0
  4  5  1  0  0  0  0
  4 20  1  0  0  0  0
  6  2  1  0  0  0  0
  7  3  1  0  0  0  0
  8  1  1  0  0  0  0
  8  9  1  0  0  0  0
  9 14  1  0  0  0  0
 10  9  2  0  0  0  0
 10 16  1  0  0  0  0
 11 10  1  0  0  0  0
 12 13  1  0  0  0  0
 12 11  2  0  0  0  0
 13  8  2  0  0  0  0
 15 12  1  0  0  0  0
 16 18  1  0  0  0  0
 16 19  1  0  0  0  0
 17 16  1  0  0  0  0
 20 24  1  0  0  0  0
 21 22  1  0  0  0  0
 21 20  2  0  0  0  0
 22 23  2  0  0  0  0
 23 24  1  0  0  0  0
 23 29  1  0  0  0  0
 25 21  1  0  0  0  0
 26 22  1  0  0  0  0
 27 28  1  0  0  0  0
 28 35  1  0  0  0  0
 29 30  1  0  0  0  0
 29 28  2  0  0  0  0
 30 32  2  0  0  0  0
 31 30  1  0  0  0  0
 32 33  1  0  0  0  0
 33 34  1  0  0  0  0
 35 36  1  0  0  0  0
 35 33  2  0  0  0  0
M  END
>  <minimizedAffinity>
-6.45558929

$$$$

 OpenBabel03272508073D

 36 39  0  0  0  0  0  0  0  0999 V2000
   35.4810   28.9640   33.4880 C   0  0  0  0  0  0  0  0  0  0  0  0
   35.6650   28.4600   32.2080 C   0  0  0  0  0  0  0  0  0  0  0  0
   36.6600   27.4850   32.2120 C   0  0  0  0  0  0  0  0  0  0  0  0
   37.0380   27.4400   33.5140 N   0  0  0  0  0  0  0  0  0  0  0  0
   36.3640   28.2930   34.2690 N   0  0  0  0  0  0  0  0  0  0  0  0
   35.1310   28.7590   31.3100 H   0  0  0  0  0  0  0  0  0  0  0  0
   37.0670   26.8830   31.4120 H   0  0  0  0  0  0  0  0  0  0  0  0
   34.5330   29.9820   33.8730 C   0  0  0  0  0  0  0  0  0  0  0  0
   34.5640   30.4880   35.1960 C   0  0  0  0  0  0  0  0  0  0  0  0
   33.6380   31.4720   35.5310 C   0  0  0  0  0  0  0  0  0  0  0  0
   32.7590   31.8920   34.5750 N   0  0  0  0  0  0  0  0  0  0  0  0
   32.7480   31.3920   33.3180 C   0  0  0  0  0  0  0  0  0  0  0  0
   33.6400   30.4380   32.9790 N   0  0  0  0  0  0  0  0  0  0  0  0
   35.2970   30.0940   35.8800 H   0  0  0  0  0  0  0  0  0  0  0  0
   32.0390   31.7500   32.5950 H   0  0  0  0  0  0  0  0  0  0  0  0
   33.6490   32.0220   36.9130 C   0  0  0  0  0  0  0  0  0  0  0  0
   33.0200   33.2410   36.8300 F   0  0  0  0  0  0  0  0  0  0  0  0
   32.9700   31.2160   37.8180 F   0  0  0  0  0  0  0  0  0  0  0  0
   34.9490   32.2330   37.3680 F   0  0  0  0  0  0  0  0  0  0  0  0
   38.0470   26.5840   34.1170 C   0  0  0  0  0  0  0  0  0  0  0  0
   39.2670   27.0840   34.5820 C   0  0  0  0  0  0  0  0  0  0  0  0
   40.1810   26.2630   35.1490 C   0  0  0  0  0  0  0  0  0  0  0  0
   39.8820   24.8870   35.2620 C   0  0  0  0  0  0  0  0  0  0  0  0
   38.1960   24.8240   34.5030 S   0  0  0  0  0  0  0  0  0  0  0  0
   39.4810   28.1640   34.4830 H   0  0  0  0  0  0  0  0  0  0  0  0
   41.1070   26.6120   35.5100 H   0  0  0  0  0  0  0  0  0  0  0  0
   38.8350   23.5390   37.7980 Cl  0  0  0  0  0  0  0  0  0  0  0  0
   40.1890   22.9870   36.8780 C   0  0  0  0  0  0  0  0  0  0  0  0
   40.5230   23.7100   35.7680 C   0  0  0  0  0  0  0  0  0  0  0  0
   41.6140   23.2240   35.0690 C   0  0  0  0  0  0  0  0  0  0  0  0
   42.0290   23.6740   34.1520 H   0  0  0  0  0  0  0  0  0  0  0  0
   42.3140   22.1040   35.4530 C   0  0  0  0  0  3  0  0  0  0  0  0
   41.9100   21.4350   36.5840 C   0  0  0  0  0  0  0  0  0  0  0  0
   42.7690   20.0130   37.1050 Cl  0  0  0  0  0  0  0  0  0  0  0  0
   40.8340   21.8590   37.3300 C   0  0  0  0  0  0  0  0  0  0  0  0
   40.5090   21.3520   38.2090 H   0  0  0  0  0  0  0  0  0  0  0  0
  1  8  1  0  0  0  0
  1  5  2  0  0  0  0
  2  3  2  0  0  0  0
  2  1  1  0  0  0  0
  3  4  1  0  0  0  0
  4 20  1  0  0  0  0
  4  5  1  0  0  0  0
  6  2  1  0  0  0  0
  7  3  1  0  0  0  0
  8  9  1  0  0  0  0
  9 10  2  0  0  0  0
  9 14  1  0  0  0  0
 10 16  1  0  0  0  0
 11 10  1  0  0  0  0
 12 11  2  0  0  0  0
 13 12  1  0  0  0  0
 13  8  2  0  0  0  0
 15 12  1  0  0  0  0
 16 19  1  0  0  0  0
 16 18  1  0  0  0  0
 17 16  1  0  0  0  0
 20 24  1  0  0  0  0
 20 21  2  0  0  0  0
 21 22  1  0  0  0  0
 22 23  2  0  0  0  0
 22 26  1  0  0  0  0
 23 29  1  0  0  0  0
 24 23  1  0  0  0  0
 25 21  1  0  0  0  0
 28 35  1  0  0  0  0
 28 27  1  0  0  0  0
 29 28  2  0  0  0  0
 30 32  2  0  0  0  0
 30 29  1  0  0  0  0
 31 30  1  0  0  0  0
 32 33  1  0  0  0  0
 33 34  1  0  0  0  0
 33 35  2  0  0  0  0
 35 36  1  0  0  0  0
M  END
>  <minimizedAffinity>
-6.40358925

$$$$

 OpenBabel03272508073D

 36 39  0  0  0  0  0  0  0  0999 V2000
   35.4260   29.1780   32.1510 C   0  0  0  0  0  0  0  0  0  0  0  0
   36.3920   29.0610   31.1610 C   0  0  0  0  0  0  0  0  0  0  0  0
   37.4340   28.2460   31.5980 C   0  0  0  0  0  0  0  0  0  0  0  0
   37.0460   27.9000   32.8510 N   0  0  0  0  0  0  0  0  0  0  0  0
   35.8820   28.4330   33.1890 N   0  0  0  0  0  0  0  0  0  0  0  0
   36.3730   29.5240   30.1780 H   0  0  0  0  0  0  0  0  0  0  0  0
   38.3440   27.9340   31.1070 H   0  0  0  0  0  0  0  0  0  0  0  0
   34.2010   29.9360   32.0590 C   0  0  0  0  0  0  0  0  0  0  0  0
   33.0950   29.5590   32.8590 C   0  0  0  0  0  0  0  0  0  0  0  0
   31.9310   30.3150   32.7470 C   0  0  0  0  0  0  0  0  0  0  0  0
   31.9200   31.3690   31.8790 N   0  0  0  0  0  0  0  0  0  0  0  0
   32.9900   31.7080   31.1240 C   0  0  0  0  0  0  0  0  0  0  0  0
   34.1240   30.9850   31.2230 N   0  0  0  0  0  0  0  0  0  0  0  0
   33.2010   28.7120   33.5160 H   0  0  0  0  0  0  0  0  0  0  0  0
   32.9390   32.5460   30.4530 H   0  0  0  0  0  0  0  0  0  0  0  0
   30.7550   29.9410   33.5770 C   0  0  0  0  0  0  0  0  0  0  0  0
   29.6530   30.2960   32.8350 F   0  0  0  0  0  0  0  0  0  0  0  0
   30.7020   28.5810   33.8540 F   0  0  0  0  0  0  0  0  0  0  0  0
   30.7240   30.6580   34.7710 F   0  0  0  0  0  0  0  0  0  0  0  0
   37.7460   27.0400   33.7920 C   0  0  0  0  0  0  0  0  0  0  0  0
   37.8920   27.3750   35.1410 C   0  0  0  0  0  0  0  0  0  0  0  0
   38.5380   26.5490   35.9940 C   0  0  0  0  0  0  0  0  0  0  0  0
   39.0680   25.3370   35.4970 C   0  0  0  0  0  0  0  0  0  0  0  0
   38.5850   25.4410   33.7150 S   0  0  0  0  0  0  0  0  0  0  0  0
   37.4710   28.3290   35.5090 H   0  0  0  0  0  0  0  0  0  0  0  0
   38.6620   26.7740   37.0160 H   0  0  0  0  0  0  0  0  0  0  0  0
   37.8300   23.5810   37.6710 Cl  0  0  0  0  0  0  0  0  0  0  0  0
   39.3930   23.3340   36.9790 C   0  0  0  0  0  0  0  0  0  0  0  0
   39.7930   24.2150   36.0160 C   0  0  0  0  0  0  0  0  0  0  0  0
   41.0520   23.9710   35.4960 C   0  0  0  0  0  0  0  0  0  0  0  0
   41.5410   24.5740   34.7130 H   0  0  0  0  0  0  0  0  0  0  0  0
   41.8460   22.9270   35.9100 C   0  0  0  0  0  3  0  0  0  0  0  0
   41.3660   22.0860   36.8860 C   0  0  0  0  0  0  0  0  0  0  0  0
   42.3390   20.7530   37.4390 Cl  0  0  0  0  0  0  0  0  0  0  0  0
   40.1230   22.2670   37.4490 C   0  0  0  0  0  0  0  0  0  0  0  0
   39.7370   21.6250   38.2070 H   0  0  0  0  0  0  0  0  0  0  0  0
  1  5  2  0  0  0  0
  2  3  2  0  0  0  0
  2  1  1  0  0  0  0
  3  4  1  0  0  0  0
  4  5  1  0  0  0  0
  4 20  1  0  0  0  0
  6  2  1  0  0  0  0
  7  3  1  0  0  0  0
  8  1  1  0  0  0  0
  8  9  1  0  0  0  0
  9 14  1  0  0  0  0
 10  9  2  0  0  0  0
 10 16  1  0  0  0  0
 11 10  1  0  0  0  0
 12 13  1  0  0  0  0
 12 11  2  0  0  0  0
 13  8  2  0  0  0  0
 15 12  1  0  0  0  0
 16 18  1  0  0  0  0
 16 19  1  0  0  0  0
 17 16  1  0  0  0  0
 20 21  2  0  0  0  0
 21 25  1  0  0  0  0
 21 22  1  0  0  0  0
 22 26  1  0  0  0  0
 23 22  2  0  0  0  0
 23 29  1  0  0  0  0
 24 20  1  0  0  0  0
 24 23  1  0  0  0  0
 28 35  1  0  0  0  0
 28 27  1  0  0  0  0
 29 28  2  0  0  0  0
 30 32  2  0  0  0  0
 30 29  1  0  0  0  0
 31 30  1  0  0  0  0
 32 33  1  0  0  0  0
 33 34  1  0  0  0  0
 33 35  2  0  0  0  0
 35 36  1  0  0  0  0
M  END
>  <minimizedAffinity>
-6.26766014

$$$$

 OpenBabel03272508073D

 36 39  0  0  0  0  0  0  0  0999 V2000
   37.6780   25.3480   33.8240 C   0  0  0  0  0  0  0  0  0  0  0  0
   37.5790   25.2270   32.4450 C   0  0  0  0  0  0  0  0  0  0  0  0
   37.0360   26.3870   31.8970 C   0  0  0  0  0  0  0  0  0  0  0  0
   36.8290   27.1700   32.9850 N   0  0  0  0  0  0  0  0  0  0  0  0
   37.1950   26.5820   34.1130 N   0  0  0  0  0  0  0  0  0  0  0  0
   37.8710   24.3680   31.8470 H   0  0  0  0  0  0  0  0  0  0  0  0
   36.8150   26.6520   30.8730 H   0  0  0  0  0  0  0  0  0  0  0  0
   38.1970   24.3510   34.7300 C   0  0  0  0  0  0  0  0  0  0  0  0
   38.0020   24.5170   36.1230 C   0  0  0  0  0  0  0  0  0  0  0  0
   38.5130   23.5350   36.9670 C   0  0  0  0  0  0  0  0  0  0  0  0
   39.1700   22.4750   36.4100 N   0  0  0  0  0  0  0  0  0  0  0  0
   39.3450   22.3400   35.0760 C   0  0  0  0  0  0  0  0  0  0  0  0
   38.8540   23.2840   34.2460 N   0  0  0  0  0  0  0  0  0  0  0  0
   37.4690   25.3880   36.4680 H   0  0  0  0  0  0  0  0  0  0  0  0
   39.8680   21.4900   34.6780 H   0  0  0  0  0  0  0  0  0  0  0  0
   38.3220   23.6840   38.4340 C   0  0  0  0  0  0  0  0  0  0  0  0
   39.5430   23.3930   38.9970 F   0  0  0  0  0  0  0  0  0  0  0  0
   37.9430   24.9690   38.8000 F   0  0  0  0  0  0  0  0  0  0  0  0
   37.3890   22.7710   38.9230 F   0  0  0  0  0  0  0  0  0  0  0  0
   36.2840   28.5190   33.0180 C   0  0  0  0  0  0  0  0  0  0  0  0
   36.4290   29.4070   31.9480 C   0  0  0  0  0  0  0  0  0  0  0  0
   35.9020   30.6510   32.0050 C   0  0  0  0  0  0  0  0  0  0  0  0
   35.2010   31.0410   33.1680 C   0  0  0  0  0  0  0  0  0  0  0  0
   35.3360   29.5090   34.1960 S   0  0  0  0  0  0  0  0  0  0  0  0
   36.9820   29.0820   31.0480 H   0  0  0  0  0  0  0  0  0  0  0  0
   35.9930   31.3400   31.2130 H   0  0  0  0  0  0  0  0  0  0  0  0
   36.6990   33.1670   34.7730 Cl  0  0  0  0  0  0  0  0  0  0  0  0
   35.0230   33.2430   34.3640 C   0  0  0  0  0  0  0  0  0  0  0  0
   34.5120   32.2040   33.6400 C   0  0  0  0  0  0  0  0  0  0  0  0
   33.1650   32.3170   33.3400 C   0  0  0  0  0  0  0  0  0  0  0  0
   32.5810   31.5780   32.7660 H   0  0  0  0  0  0  0  0  0  0  0  0
   32.3940   33.3850   33.7360 C   0  0  0  0  0  3  0  0  0  0  0  0
   32.9890   34.3880   34.4630 C   0  0  0  0  0  0  0  0  0  0  0  0
   32.0480   35.7570   34.9840 Cl  0  0  0  0  0  0  0  0  0  0  0  0
   34.3230   34.3450   34.7980 C   0  0  0  0  0  0  0  0  0  0  0  0
   34.7980   35.1140   35.3620 H   0  0  0  0  0  0  0  0  0  0  0  0
  1  5  2  0  0  0  0
  1  8  1  0  0  0  0
  2  1  1  0  0  0  0
  3  2  2  0  0  0  0
  3  4  1  0  0  0  0
  4 20  1  0  0  0  0
  4  5  1  0  0  0  0
  6  2  1  0  0  0  0
  7  3  1  0  0  0  0
  8  9  1  0  0  0  0
  9 14  1  0  0  0  0
  9 10  2  0  0  0  0
 10 16  1  0  0  0  0
 11 10  1  0  0  0  0
 12 11  2  0  0  0  0
 13  8  2  0  0  0  0
 13 12  1  0  0  0  0
 15 12  1  0  0  0  0
 16 18  1  0  0  0  0
 16 19  1  0  0  0  0
 16 17  1  0  0  0  0
 20 24  1  0  0  0  0
 21 22  1  0  0  0  0
 21 20  2  0  0  0  0
 22 23  2  0  0  0  0
 23 29  1  0  0  0  0
 23 24  1  0  0  0  0
 25 21  1  0  0  0  0
 26 22  1  0  0  0  0
 28 27  1  0  0  0  0
 28 35  1  0  0  0  0
 29 28  2  0  0  0  0
 30 29  1  0  0  0  0
 30 32  2  0  0  0  0
 31 30  1  0  0  0  0
 32 33  1  0  0  0  0
 33 35  2  0  0  0  0
 33 34  1  0  0  0  0
 35 36  1  0  0  0  0
M  END
>  <minimizedAffinity>
-6.08836603

$$$$

 OpenBabel03272508073D

 36 39  0  0  0  0  0  0  0  0999 V2000
   38.0270   25.0150   34.8960 C   0  0  0  0  0  0  0  0  0  0  0  0
   38.1260   24.5890   33.5780 C   0  0  0  0  0  0  0  0  0  0  0  0
   37.5500   25.5270   32.7240 C   0  0  0  0  0  0  0  0  0  0  0  0
   37.1230   26.4930   33.5740 N   0  0  0  0  0  0  0  0  0  0  0  0
   37.3910   26.2120   34.8400 N   0  0  0  0  0  0  0  0  0  0  0  0
   38.5780   23.6650   33.2280 H   0  0  0  0  0  0  0  0  0  0  0  0
   37.4440   25.5350   31.6490 H   0  0  0  0  0  0  0  0  0  0  0  0
   38.5150   24.3100   36.0570 C   0  0  0  0  0  0  0  0  0  0  0  0
   39.7120   23.5610   35.9560 C   0  0  0  0  0  0  0  0  0  0  0  0
   40.1560   22.8970   37.0970 C   0  0  0  0  0  0  0  0  0  0  0  0
   39.4170   23.0040   38.2400 N   0  0  0  0  0  0  0  0  0  0  0  0
   38.2750   23.7250   38.3110 C   0  0  0  0  0  0  0  0  0  0  0  0
   37.8340   24.3740   37.2130 N   0  0  0  0  0  0  0  0  0  0  0  0
   40.2260   23.5390   35.0100 H   0  0  0  0  0  0  0  0  0  0  0  0
   37.7230   23.7820   39.2310 H   0  0  0  0  0  0  0  0  0  0  0  0
   41.4110   22.1040   37.0190 C   0  0  0  0  0  0  0  0  0  0  0  0
   41.3270   21.3960   35.8430 F   0  0  0  0  0  0  0  0  0  0  0  0
   42.5500   22.8990   36.9950 F   0  0  0  0  0  0  0  0  0  0  0  0
   41.5060   21.1930   38.0690 F   0  0  0  0  0  0  0  0  0  0  0  0
   36.4500   27.7380   33.2380 C   0  0  0  0  0  0  0  0  0  0  0  0
   36.0850   28.6730   34.2110 C   0  0  0  0  0  0  0  0  0  0  0  0
   35.4700   29.8280   33.8660 C   0  0  0  0  0  0  0  0  0  0  0  0
   35.2000   30.0730   32.5010 C   0  0  0  0  0  0  0  0  0  0  0  0
   35.8840   28.5410   31.7210 S   0  0  0  0  0  0  0  0  0  0  0  0
   36.3040   28.4610   35.2740 H   0  0  0  0  0  0  0  0  0  0  0  0
   35.1850   30.5510   34.5770 H   0  0  0  0  0  0  0  0  0  0  0  0
   36.9150   32.3360   31.3690 Cl  0  0  0  0  0  0  0  0  0  0  0  0
   35.2090   32.1860   31.1410 C   0  0  0  0  0  0  0  0  0  0  0  0
   34.5970   31.1100   31.7190 C   0  0  0  0  0  0  0  0  0  0  0  0
   33.2310   31.0390   31.5050 C   0  0  0  0  0  0  0  0  0  0  0  0
   32.5710   30.2450   31.8920 H   0  0  0  0  0  0  0  0  0  0  0  0
   32.5360   31.9730   30.7720 C   0  0  0  0  0  3  0  0  0  0  0  0
   33.2300   33.0250   30.2260 C   0  0  0  0  0  0  0  0  0  0  0  0
   32.3880   34.2290   29.2920 Cl  0  0  0  0  0  0  0  0  0  0  0  0
   34.5900   33.1620   30.3960 C   0  0  0  0  0  0  0  0  0  0  0  0
   35.1410   33.9720   29.9790 H   0  0  0  0  0  0  0  0  0  0  0  0
  1  8  1  0  0  0  0
  2  1  1  0  0  0  0
  3  4  1  0  0  0  0
  3  2  2  0  0  0  0
  4  5  1  0  0  0  0
  5  1  2  0  0  0  0
  6  2  1  0  0  0  0
  7  3  1  0  0  0  0
  8 13  1  0  0  0  0
  9  8  2  0  0  0  0
  9 10  1  0  0  0  0
 10 11  2  0  0  0  0
 11 12  1  0  0  0  0
 12 15  1  0  0  0  0
 13 12  2  0  0  0  0
 14  9  1  0  0  0  0
 16 10  1  0  0  0  0
 16 19  1  0  0  0  0
 17 16  1  0  0  0  0
 18 16  1  0  0  0  0
 20  4  1  0  0  0  0
 20 21  2  0  0  0  0
 21 25  1  0  0  0  0
 22 21  1  0  0  0  0
 22 26  1  0  0  0  0
 23 22  2  0  0  0  0
 24 23  1  0  0  0  0
 24 20  1  0  0  0  0
 28 27  1  0  0  0  0
 28 29  1  0  0  0  0
 29 23  1  0  0  0  0
 30 29  2  0  0  0  0
 30 31  1  0  0  0  0
 32 30  1  0  0  0  0
 33 35  1  0  0  0  0
 33 32  2  0  0  0  0
 34 33  1  0  0  0  0
 35 28  2  0  0  0  0
 36 35  1  0  0  0  0
M  END
>  <minimizedAffinity>
-6.08069849

$$$$

 OpenBabel03272508073D

 36 39  0  0  0  0  0  0  0  0999 V2000
   37.2470   24.9060   32.0820 C   0  0  0  0  0  0  0  0  0  0  0  0
   37.5330   25.4880   30.8540 C   0  0  0  0  0  0  0  0  0  0  0  0
   37.2290   26.8470   30.8830 C   0  0  0  0  0  0  0  0  0  0  0  0
   36.7670   27.0300   32.1450 N   0  0  0  0  0  0  0  0  0  0  0  0
   36.7700   25.9130   32.8560 N   0  0  0  0  0  0  0  0  0  0  0  0
   37.9340   24.9880   29.9770 H   0  0  0  0  0  0  0  0  0  0  0  0
   37.3190   27.6100   30.1240 H   0  0  0  0  0  0  0  0  0  0  0  0
   37.4370   23.5180   32.4290 C   0  0  0  0  0  0  0  0  0  0  0  0
   36.3760   22.6030   32.2220 C   0  0  0  0  0  0  0  0  0  0  0  0
   36.5950   21.2720   32.5650 C   0  0  0  0  0  0  0  0  0  0  0  0
   37.8120   20.9250   33.0790 N   0  0  0  0  0  0  0  0  0  0  0  0
   38.8100   21.8170   33.2700 C   0  0  0  0  0  0  0  0  0  0  0  0
   38.6100   23.1110   32.9410 N   0  0  0  0  0  0  0  0  0  0  0  0
   35.4520   22.9730   31.8090 H   0  0  0  0  0  0  0  0  0  0  0  0
   39.7520   21.5020   33.6770 H   0  0  0  0  0  0  0  0  0  0  0  0
   35.4980   20.2910   32.3560 C   0  0  0  0  0  0  0  0  0  0  0  0
   34.3500   21.0400   32.2440 F   0  0  0  0  0  0  0  0  0  0  0  0
   35.6650   19.5330   31.2040 F   0  0  0  0  0  0  0  0  0  0  0  0
   35.3570   19.4410   33.4520 F   0  0  0  0  0  0  0  0  0  0  0  0
   36.3090   28.2690   32.7530 C   0  0  0  0  0  0  0  0  0  0  0  0
   35.7930   29.3250   31.9950 C   0  0  0  0  0  0  0  0  0  0  0  0
   35.3640   30.4610   32.5910 C   0  0  0  0  0  0  0  0  0  0  0  0
   35.4490   30.5650   33.9970 C   0  0  0  0  0  0  0  0  0  0  0  0
   36.1850   28.9250   34.4330 S   0  0  0  0  0  0  0  0  0  0  0  0
   35.7370   29.2220   30.8960 H   0  0  0  0  0  0  0  0  0  0  0  0
   34.9690   31.2710   32.0450 H   0  0  0  0  0  0  0  0  0  0  0  0
   36.8640   33.2740   34.0210 Cl  0  0  0  0  0  0  0  0  0  0  0  0
   35.6590   32.7840   35.1570 C   0  0  0  0  0  0  0  0  0  0  0  0
   35.1280   31.5360   35.0000 C   0  0  0  0  0  0  0  0  0  0  0  0
   34.1670   31.1950   35.9370 C   0  0  0  0  0  0  0  0  0  0  0  0
   33.6300   30.2320   35.9710 H   0  0  0  0  0  0  0  0  0  0  0  0
   33.7720   32.0390   36.9490 C   0  0  0  0  0  3  0  0  0  0  0  0
   34.3590   33.2790   37.0340 C   0  0  0  0  0  0  0  0  0  0  0  0
   33.8880   34.3770   38.3000 Cl  0  0  0  0  0  0  0  0  0  0  0  0
   35.3210   33.6870   36.1380 C   0  0  0  0  0  0  0  0  0  0  0  0
   35.7850   34.6450   36.1910 H   0  0  0  0  0  0  0  0  0  0  0  0
  1  8  1  0  0  0  0
  1  5  2  0  0  0  0
  2  3  2  0  0  0  0
  2  1  1  0  0  0  0
  3  4  1  0  0  0  0
  4 20  1  0  0  0  0
  4  5  1  0  0  0  0
  6  2  1  0  0  0  0
  7  3  1  0  0  0  0
  8 13  1  0  0  0  0
  9  8  2  0  0  0  0
  9 10  1  0  0  0  0
 10 11  2  0  0  0  0
 11 12  1  0  0  0  0
 12 15  1  0  0  0  0
 13 12  2  0  0  0  0
 14  9  1  0  0  0  0
 16 10  1  0  0  0  0
 16 19  1  0  0  0  0
 17 16  1  0  0  0  0
 18 16  1  0  0  0  0
 20 24  1  0  0  0  0
 21 22  1  0  0  0  0
 21 20  2  0  0  0  0
 22 23  2  0  0  0  0
 23 24  1  0  0  0  0
 23 29  1  0  0  0  0
 25 21  1  0  0  0  0
 26 22  1  0  0  0  0
 27 28  1  0  0  0  0
 28 35  1  0  0  0  0
 29 28  2  0  0  0  0
 29 30  1  0  0  0  0
 30 31  1  0  0  0  0
 30 32  2  0  0  0  0
 32 33  1  0  0  0  0
 33 34  1  0  0  0  0
 35 36  1  0  0  0  0
 35 33  2  0  0  0  0
M  END
>  <minimizedAffinity>
-6.009624

$$$$

 OpenBabel03272508073D

 36 39  0  0  0  0  0  0  0  0999 V2000
   37.9980   24.9640   34.8610 C   0  0  0  0  0  0  0  0  0  0  0  0
   38.0170   24.4780   33.5610 C   0  0  0  0  0  0  0  0  0  0  0  0
   37.4590   25.4100   32.6890 C   0  0  0  0  0  0  0  0  0  0  0  0
   37.1240   26.4350   33.5120 N   0  0  0  0  0  0  0  0  0  0  0  0
   37.4290   26.1930   34.7770 N   0  0  0  0  0  0  0  0  0  0  0  0
   38.4010   23.5160   33.2340 H   0  0  0  0  0  0  0  0  0  0  0  0
   37.3080   25.3800   31.6200 H   0  0  0  0  0  0  0  0  0  0  0  0
   38.4950   24.2820   36.0320 C   0  0  0  0  0  0  0  0  0  0  0  0
   39.6780   23.5100   35.9300 C   0  0  0  0  0  0  0  0  0  0  0  0
   40.1300   22.8680   37.0800 C   0  0  0  0  0  0  0  0  0  0  0  0
   39.4140   23.0170   38.2330 N   0  0  0  0  0  0  0  0  0  0  0  0
   38.2850   23.7590   38.3040 C   0  0  0  0  0  0  0  0  0  0  0  0
   37.8360   24.3870   37.1970 N   0  0  0  0  0  0  0  0  0  0  0  0
   40.1750   23.4530   34.9750 H   0  0  0  0  0  0  0  0  0  0  0  0
   37.7510   23.8510   39.2320 H   0  0  0  0  0  0  0  0  0  0  0  0
   41.3700   22.0520   37.0010 C   0  0  0  0  0  0  0  0  0  0  0  0
   42.4090   22.9490   37.0940 F   0  0  0  0  0  0  0  0  0  0  0  0
   41.4720   21.1260   38.0310 F   0  0  0  0  0  0  0  0  0  0  0  0
   41.4720   21.3940   35.7770 F   0  0  0  0  0  0  0  0  0  0  0  0
   36.5080   27.7010   33.1480 C   0  0  0  0  0  0  0  0  0  0  0  0
   36.1340   28.6500   34.1050 C   0  0  0  0  0  0  0  0  0  0  0  0
   35.5740   29.8240   33.7350 C   0  0  0  0  0  0  0  0  0  0  0  0
   35.3690   30.0760   32.3600 C   0  0  0  0  0  0  0  0  0  0  0  0
   36.0320   28.5210   31.6090 S   0  0  0  0  0  0  0  0  0  0  0  0
   36.3030   28.4320   35.1760 H   0  0  0  0  0  0  0  0  0  0  0  0
   35.2850   30.5570   34.4330 H   0  0  0  0  0  0  0  0  0  0  0  0
   32.3470   30.5070   32.2010 Cl  0  0  0  0  0  0  0  0  0  0  0  0
   33.5220   31.4630   31.3700 C   0  0  0  0  0  0  0  0  0  0  0  0
   34.8340   31.1320   31.5530 C   0  0  0  0  0  0  0  0  0  0  0  0
   35.7320   31.9290   30.8650 C   0  0  0  0  0  0  0  0  0  0  0  0
   36.8280   31.8140   30.8890 H   0  0  0  0  0  0  0  0  0  0  0  0
   35.3440   32.9740   30.0580 C   0  0  0  0  0  3  0  0  0  0  0  0
   34.0010   33.2380   29.9290 C   0  0  0  0  0  0  0  0  0  0  0  0
   33.4670   34.5500   28.9180 Cl  0  0  0  0  0  0  0  0  0  0  0  0
   33.0500   32.4870   30.5840 C   0  0  0  0  0  0  0  0  0  0  0  0
   32.0060   32.6790   30.4940 H   0  0  0  0  0  0  0  0  0  0  0  0
  1  8  1  0  0  0  0
  2  1  1  0  0  0  0
  3  4  1  0  0  0  0
  3  2  2  0  0  0  0
  4  5  1  0  0  0  0
  5  1  2  0  0  0  0
  6  2  1  0  0  0  0
  7  3  1  0  0  0  0
  8 13  1  0  0  0  0
  9  8  2  0  0  0  0
  9 10  1  0  0  0  0
 10 11  2  0  0  0  0
 11 12  1  0  0  0  0
 12 15  1  0  0  0  0
 13 12  2  0  0  0  0
 14  9  1  0  0  0  0
 16 10  1  0  0  0  0
 16 17  1  0  0  0  0
 16 18  1  0  0  0  0
 19 16  1  0  0  0  0
 20  4  1  0  0  0  0
 20 21  2  0  0  0  0
 21 25  1  0  0  0  0
 22 21  1  0  0  0  0
 22 26  1  0  0  0  0
 23 22  2  0  0  0  0
 24 23  1  0  0  0  0
 24 20  1  0  0  0  0
 28 29  1  0  0  0  0
 28 27  1  0  0  0  0
 29 23  1  0  0  0  0
 30 31  1  0  0  0  0
 30 29  2  0  0  0  0
 32 30  1  0  0  0  0
 33 32  2  0  0  0  0
 33 35  1  0  0  0  0
 34 33  1  0  0  0  0
 35 28  2  0  0  0  0
 36 35  1  0  0  0  0
M  END
>  <minimizedAffinity>
-6.00709724

$$$$

 OpenBabel03272508073D

 36 39  0  0  0  0  0  0  0  0999 V2000
   38.2650   25.0210   33.8090 C   0  0  0  0  0  0  0  0  0  0  0  0
   38.4830   24.8460   32.4490 C   0  0  0  0  0  0  0  0  0  0  0  0
   37.9010   25.8880   31.7300 C   0  0  0  0  0  0  0  0  0  0  0  0
   37.3510   26.6590   32.7000 N   0  0  0  0  0  0  0  0  0  0  0  0
   37.5520   26.1710   33.9140 N   0  0  0  0  0  0  0  0  0  0  0  0
   39.0210   24.0280   31.9790 H   0  0  0  0  0  0  0  0  0  0  0  0
   37.8670   26.0830   30.6680 H   0  0  0  0  0  0  0  0  0  0  0  0
   38.7230   24.1480   34.8630 C   0  0  0  0  0  0  0  0  0  0  0  0
   38.2860   24.3810   36.1900 C   0  0  0  0  0  0  0  0  0  0  0  0
   38.7440   23.5170   37.1810 C   0  0  0  0  0  0  0  0  0  0  0  0
   39.5830   22.5010   36.8210 N   0  0  0  0  0  0  0  0  0  0  0  0
   39.9880   22.3000   35.5470 C   0  0  0  0  0  0  0  0  0  0  0  0
   39.5510   23.1300   34.5770 N   0  0  0  0  0  0  0  0  0  0  0  0
   37.6220   25.2090   36.3750 H   0  0  0  0  0  0  0  0  0  0  0  0
   40.6490   21.4880   35.3070 H   0  0  0  0  0  0  0  0  0  0  0  0
   38.3000   23.7380   38.5830 C   0  0  0  0  0  0  0  0  0  0  0  0
   39.4180   23.5400   39.3590 F   0  0  0  0  0  0  0  0  0  0  0  0
   37.8150   25.0220   38.7970 F   0  0  0  0  0  0  0  0  0  0  0  0
   37.3350   22.8090   38.9650 F   0  0  0  0  0  0  0  0  0  0  0  0
   36.6170   27.9040   32.5360 C   0  0  0  0  0  0  0  0  0  0  0  0
   36.0720   28.5960   33.6220 C   0  0  0  0  0  0  0  0  0  0  0  0
   35.4040   29.7570   33.4380 C   0  0  0  0  0  0  0  0  0  0  0  0
   35.2620   30.2610   32.1250 C   0  0  0  0  0  0  0  0  0  0  0  0
   36.1510   28.9650   31.1490 S   0  0  0  0  0  0  0  0  0  0  0  0
   36.1930   28.1840   34.6400 H   0  0  0  0  0  0  0  0  0  0  0  0
   34.9850   30.3010   34.2370 H   0  0  0  0  0  0  0  0  0  0  0  0
   36.9520   32.7220   31.4690 Cl  0  0  0  0  0  0  0  0  0  0  0  0
   35.2640   32.5700   31.1330 C   0  0  0  0  0  0  0  0  0  0  0  0
   34.6620   31.3980   31.4940 C   0  0  0  0  0  0  0  0  0  0  0  0
   33.3110   31.3290   31.2030 C   0  0  0  0  0  0  0  0  0  0  0  0
   32.6600   30.4660   31.4200 H   0  0  0  0  0  0  0  0  0  0  0  0
   32.6200   32.3540   30.5990 C   0  0  0  0  0  3  0  0  0  0  0  0
   33.3030   33.5000   30.2690 C   0  0  0  0  0  0  0  0  0  0  0  0
   32.4660   34.8200   29.5040 Cl  0  0  0  0  0  0  0  0  0  0  0  0
   34.6480   33.6400   30.5280 C   0  0  0  0  0  0  0  0  0  0  0  0
   35.1910   34.5210   30.2790 H   0  0  0  0  0  0  0  0  0  0  0  0
  1  5  2  0  0  0  0
  1  8  1  0  0  0  0
  2  1  1  0  0  0  0
  3  2  2  0  0  0  0
  3  4  1  0  0  0  0
  4  5  1  0  0  0  0
  6  2  1  0  0  0  0
  7  3  1  0  0  0  0
  8  9  1  0  0  0  0
  9 14  1  0  0  0  0
  9 10  2  0  0  0  0
 10 16  1  0  0  0  0
 11 10  1  0  0  0  0
 12 11  2  0  0  0  0
 13  8  2  0  0  0  0
 13 12  1  0  0  0  0
 15 12  1  0  0  0  0
 16 18  1  0  0  0  0
 16 19  1  0  0  0  0
 16 17  1  0  0  0  0
 20  4  1  0  0  0  0
 20 21  2  0  0  0  0
 21 25  1  0  0  0  0
 22 21  1  0  0  0  0
 22 26  1  0  0  0  0
 23 22  2  0  0  0  0
 24 23  1  0  0  0  0
 24 20  1  0  0  0  0
 28 27  1  0  0  0  0
 28 29  1  0  0  0  0
 29 23  1  0  0  0  0
 30 31  1  0  0  0  0
 30 29  2  0  0  0  0
 32 30  1  0  0  0  0
 33 35  1  0  0  0  0
 33 32  2  0  0  0  0
 34 33  1  0  0  0  0
 35 28  2  0  0  0  0
 36 35  1  0  0  0  0
M  END
>  <minimizedAffinity>
-6.00149727

$$$$

 OpenBabel03272508073D

 36 39  0  0  0  0  0  0  0  0999 V2000
   37.8130   25.8450   34.0880 C   0  0  0  0  0  0  0  0  0  0  0  0
   37.0350   26.9310   34.4660 C   0  0  0  0  0  0  0  0  0  0  0  0
   36.9790   27.8650   33.4340 C   0  0  0  0  0  0  0  0  0  0  0  0
   37.7350   27.2940   32.4630 N   0  0  0  0  0  0  0  0  0  0  0  0
   38.2280   26.1200   32.8260 N   0  0  0  0  0  0  0  0  0  0  0  0
   36.5310   27.0680   35.4180 H   0  0  0  0  0  0  0  0  0  0  0  0
   36.4750   28.8190   33.3670 H   0  0  0  0  0  0  0  0  0  0  0  0
   38.0940   24.6800   34.8920 C   0  0  0  0  0  0  0  0  0  0  0  0
   38.0380   24.7860   36.3030 C   0  0  0  0  0  0  0  0  0  0  0  0
   38.3120   23.6410   37.0470 C   0  0  0  0  0  0  0  0  0  0  0  0
   38.6170   22.4890   36.3810 N   0  0  0  0  0  0  0  0  0  0  0  0
   38.6660   22.4130   35.0310 C   0  0  0  0  0  0  0  0  0  0  0  0
   38.4030   23.5150   34.2980 N   0  0  0  0  0  0  0  0  0  0  0  0
   37.7860   25.7390   36.7380 H   0  0  0  0  0  0  0  0  0  0  0  0
   38.9110   21.4870   34.5460 H   0  0  0  0  0  0  0  0  0  0  0  0
   38.2580   23.7240   38.5310 C   0  0  0  0  0  0  0  0  0  0  0  0
   39.5320   23.4350   38.9620 F   0  0  0  0  0  0  0  0  0  0  0  0
   37.8960   24.9850   38.9870 F   0  0  0  0  0  0  0  0  0  0  0  0
   37.3910   22.7730   39.0650 F   0  0  0  0  0  0  0  0  0  0  0  0
   38.0230   27.8190   31.1380 C   0  0  0  0  0  0  0  0  0  0  0  0
   37.0610   28.4880   30.3750 C   0  0  0  0  0  0  0  0  0  0  0  0
   37.3630   28.9740   29.1500 C   0  0  0  0  0  0  0  0  0  0  0  0
   38.6720   28.7930   28.6500 C   0  0  0  0  0  0  0  0  0  0  0  0
   39.4640   27.8750   30.0470 S   0  0  0  0  0  0  0  0  0  0  0  0
   36.0430   28.6170   30.7850 H   0  0  0  0  0  0  0  0  0  0  0  0
   36.6590   29.4840   28.5550 H   0  0  0  0  0  0  0  0  0  0  0  0
   38.8500   31.7010   27.7230 Cl  0  0  0  0  0  0  0  0  0  0  0  0
   39.5780   30.3630   26.9090 C   0  0  0  0  0  0  0  0  0  0  0  0
   39.3990   29.1260   27.4620 C   0  0  0  0  0  0  0  0  0  0  0  0
   40.0040   28.0910   26.7700 C   0  0  0  0  0  0  0  0  0  0  0  0
   39.9680   27.0290   27.0630 H   0  0  0  0  0  0  0  0  0  0  0  0
   40.7280   28.2820   25.6160 C   0  0  0  0  0  3  0  0  0  0  0  0
   40.8590   29.5600   25.1280 C   0  0  0  0  0  0  0  0  0  0  0  0
   41.7670   29.8440   23.6710 Cl  0  0  0  0  0  0  0  0  0  0  0  0
   40.2860   30.6390   25.7630 C   0  0  0  0  0  0  0  0  0  0  0  0
   40.3770   31.6350   25.3970 H   0  0  0  0  0  0  0  0  0  0  0  0
  1  2  1  0  0  0  0
  1  8  1  0  0  0  0
  2  6  1  0  0  0  0
  3  2  2  0  0  0  0
  4  5  1  0  0  0  0
  4  3  1  0  0  0  0
  5  1  2  0  0  0  0
  7  3  1  0  0  0  0
  8  9  1  0  0  0  0
  9 14  1  0  0  0  0
  9 10  2  0  0  0  0
 10 16  1  0  0  0  0
 11 10  1  0  0  0  0
 12 11  2  0  0  0  0
 13  8  2  0  0  0  0
 13 12  1  0  0  0  0
 15 12  1  0  0  0  0
 16 17  1  0  0  0  0
 16 18  1  0  0  0  0
 16 19  1  0  0  0  0
 20  4  1  0  0  0  0
 21 25  1  0  0  0  0
 21 20  2  0  0  0  0
 22 21  1  0  0  0  0
 23 22  2  0  0  0  0
 23 24  1  0  0  0  0
 24 20  1  0  0  0  0
 26 22  1  0  0  0  0
 28 29  1  0  0  0  0
 28 27  1  0  0  0  0
 29 23  1  0  0  0  0
 30 31  1  0  0  0  0
 30 29  2  0  0  0  0
 32 30  1  0  0  0  0
 33 32  2  0  0  0  0
 33 35  1  0  0  0  0
 34 33  1  0  0  0  0
 35 28  2  0  0  0  0
 36 35  1  0  0  0  0
M  END
>  <minimizedAffinity>
-5.98774147

$$$$
