
 OpenBabel03272508023D

 29 31  0  0  0  0  0  0  0  0999 V2000
   38.8060   30.8120   45.7110 C   0  0  0  0  0  0  0  0  0  0  0  0
   40.0280   31.3900   45.9220 C   0  0  0  0  0  0  0  0  0  0  0  0
   40.8020   31.2860   44.7660 C   0  0  0  0  0  0  0  0  0  0  0  0
   39.9850   30.6270   43.8790 N   0  0  0  0  0  0  0  0  0  0  0  0
   38.8360   30.3610   44.4420 N   0  0  0  0  0  0  0  0  0  0  0  0
   40.2910   31.8430   46.8710 H   0  0  0  0  0  0  0  0  0  0  0  0
   41.8070   31.6800   44.7170 H   0  0  0  0  0  0  0  0  0  0  0  0
   39.1850   32.6280   41.7930 Cl  0  0  0  0  0  0  0  0  0  0  0  0
   40.1740   31.2120   41.5360 C   0  0  0  0  0  0  0  0  0  0  0  0
   40.4810   30.3560   42.5730 C   0  0  0  0  0  0  0  0  0  0  0  0
   41.2680   29.2480   42.3160 C   0  0  0  0  0  0  0  0  0  0  0  0
   41.4650   28.6250   43.1750 H   0  0  0  0  0  0  0  0  0  0  0  0
   41.7810   28.9320   41.0580 C   0  0  0  0  0  0  0  0  0  0  0  0
   41.4680   29.7900   40.0410 C   0  0  0  0  0  0  0  0  0  0  0  0
   42.0880   29.4340   38.4510 Cl  0  0  0  0  0  0  0  0  0  0  0  0
   40.6840   30.9010   40.2750 C   0  0  0  0  0  0  0  0  0  0  0  0
   40.4820   31.5270   39.4280 H   0  0  0  0  0  0  0  0  0  0  0  0
   37.6930   30.7010   46.6570 C   0  0  0  0  0  0  0  0  0  0  0  0
   37.9620   30.9530   48.0280 C   0  0  0  0  0  0  0  0  0  0  0  0
   36.9160   30.8520   48.9420 C   0  0  0  0  0  0  0  0  0  0  0  0
   35.6980   30.5170   48.4600 N   0  0  0  0  0  0  0  0  0  0  0  0
   35.4550   30.2790   47.1510 C   0  0  0  0  0  0  0  0  0  0  0  0
   36.4680   30.3780   46.2710 N   0  0  0  0  0  0  0  0  0  0  0  0
   38.9780   31.2150   48.3070 H   0  0  0  0  0  0  0  0  0  0  0  0
   34.4510   30.0170   46.8510 H   0  0  0  0  0  0  0  0  0  0  0  0
   37.1910   31.1140   50.3810 C   0  0  0  0  0  0  0  0  0  0  0  0
   36.6810   32.3790   50.6360 F   0  0  0  0  0  0  0  0  0  0  0  0
   36.5560   30.2060   51.2090 F   0  0  0  0  0  0  0  0  0  0  0  0
   38.5500   31.1460   50.6590 F   0  0  0  0  0  0  0  0  0  0  0  0
  1  2  1  0  0  0  0
  1 18  1  0  0  0  0
  2  6  1  0  0  0  0
  3  2  2  0  0  0  0
  4  5  1  0  0  0  0
  4  3  1  0  0  0  0
  5  1  2  0  0  0  0
  7  3  1  0  0  0  0
  9  8  1  0  0  0  0
  9 10  1  0  0  0  0
 10  4  1  0  0  0  0
 11 10  2  0  0  0  0
 11 12  1  0  0  0  0
 13 11  1  0  0  0  0
 14 16  1  0  0  0  0
 14 13  2  0  0  0  0
 15 14  1  0  0  0  0
 16  9  2  0  0  0  0
 17 16  1  0  0  0  0
 18 19  1  0  0  0  0
 19 24  1  0  0  0  0
 19 20  2  0  0  0  0
 20 26  1  0  0  0  0
 21 20  1  0  0  0  0
 22 21  2  0  0  0  0
 23 18  2  0  0  0  0
 23 22  1  0  0  0  0
 25 22  1  0  0  0  0
 26 27  1  0  0  0  0
 26 29  1  0  0  0  0
 26 28  1  0  0  0  0
M  END
>  <minimizedAffinity>
-6.45774269

>  <minimizedRMSD>
1.30445731

$$$$
