
 OpenBabel03272510303D

 29 31  0  0  0  0  0  0  0  0999 V2000
   37.4510   31.4190   49.4890 C   0  0  0  0  0  0  0  0  0  0  0  0
   37.8440   32.7180   49.8150 C   0  0  0  0  0  0  0  0  0  0  0  0
   38.6550   33.3450   48.8970 C   0  0  0  0  0  0  0  0  0  0  0  0
   39.0260   32.6880   47.7470 N   0  0  0  0  0  0  0  0  0  0  0  0
   38.6150   31.4190   47.4760 C   0  0  0  0  0  0  0  0  0  0  0  0
   37.8070   30.7680   48.3690 N   0  0  0  0  0  0  0  0  0  0  0  0
   37.5120   33.1720   50.7410 H   0  0  0  0  0  0  0  0  0  0  0  0
   38.9990   34.3550   49.0860 H   0  0  0  0  0  0  0  0  0  0  0  0
   36.5340   30.7100   50.4560 C   0  0  0  0  0  0  0  0  0  0  0  0
   36.4350   29.2760   50.5380 C   0  0  0  0  0  0  0  0  0  0  0  0
   37.2960   29.9800   51.5710 C   0  0  0  0  0  0  0  0  0  0  0  0
   35.6810   31.3500   50.8100 H   0  0  0  0  0  0  0  0  0  0  0  0
   35.4950   28.8080   50.8530 H   0  0  0  0  0  0  0  0  0  0  0  0
   36.9850   28.6900   49.7490 H   0  0  0  0  0  0  0  0  0  0  0  0
   36.8400   30.0960   52.5610 H   0  0  0  0  0  0  0  0  0  0  0  0
   38.3940   29.9140   51.5180 H   0  0  0  0  0  0  0  0  0  0  0  0
   38.9870   30.7140   46.2520 C   0  0  0  0  0  0  0  0  0  0  0  0
   38.5480   29.6750   46.2600 H   0  0  0  0  0  0  0  0  0  0  0  0
   40.0800   30.6190   46.1310 H   0  0  0  0  0  0  0  0  0  0  0  0
   40.9040   32.5880   44.7760 Cl  0  0  0  0  0  0  0  0  0  0  0  0
   39.2430   32.2250   44.3570 C   0  0  0  0  0  0  0  0  0  0  0  0
   38.3940   31.3750   45.0360 C   0  0  0  0  0  0  0  0  0  0  0  0
   37.1090   31.2000   44.5710 C   0  0  0  0  0  0  0  0  0  0  0  0
   36.4860   30.5210   45.1450 H   0  0  0  0  0  0  0  0  0  0  0  0
   36.6630   31.8490   43.4540 C   0  0  0  0  0  3  0  0  0  0  0  0
   37.5110   32.7120   42.7570 C   0  0  0  0  0  0  0  0  0  0  0  0
   36.8930   33.5200   41.3330 Cl  0  0  0  0  0  0  0  0  0  0  0  0
   38.8070   32.9000   43.2120 C   0  0  0  0  0  0  0  0  0  0  0  0
   39.4040   33.5790   42.6240 H   0  0  0  0  0  0  0  0  0  0  0  0
  1  2  1  0  0  0  0
  1  9  1  0  0  0  0
  2  7  1  0  0  0  0
  3  8  1  0  0  0  0
  3  2  2  0  0  0  0
  4  3  1  0  0  0  0
  5  4  2  0  0  0  0
  5  6  1  0  0  0  0
  6  1  2  0  0  0  0
  9 10  1  0  0  0  0
  9 12  1  0  0  0  0
  9 11  1  0  0  0  0
 10 13  1  0  0  0  0
 10 11  1  0  0  0  0
 11 15  1  0  0  0  0
 14 10  1  0  0  0  0
 16 11  1  0  0  0  0
 17 18  1  0  0  0  0
 17  5  1  0  0  0  0
 19 17  1  0  0  0  0
 21 20  1  0  0  0  0
 21 22  1  0  0  0  0
 22 17  1  0  0  0  0
 23 22  2  0  0  0  0
 23 24  1  0  0  0  0
 25 23  1  0  0  0  0
 26 28  1  0  0  0  0
 26 25  2  0  0  0  0
 27 26  1  0  0  0  0
 28 21  2  0  0  0  0
 29 28  1  0  0  0  0
M  END
>  <minimizedAffinity>
-5.73290253

>  <minimizedRMSD>
0.804854929

$$$$
