
 OpenBabel03262522133D

 34 36  0  0  0  0  0  0  0  0999 V2000
   37.6870   31.6380   47.6470 C   0  0  0  0  0  0  0  0  0  0  0  0
   37.8200   32.5030   48.7450 C   0  0  0  0  0  0  0  0  0  0  0  0
   38.8460   33.4130   48.7790 C   0  0  0  0  0  0  0  0  0  0  0  0
   39.7080   33.4210   47.7000 C   0  0  0  0  0  0  0  0  0  0  0  0
   39.5530   32.5730   46.6560 C   0  0  0  0  0  0  0  0  0  0  0  0
   38.5420   31.6470   46.5770 N   0  0  0  0  0  0  0  0  0  0  0  0
   37.1110   32.4440   49.5540 H   0  0  0  0  0  0  0  0  0  0  0  0
   38.9480   34.0690   49.6120 H   0  0  0  0  0  0  0  0  0  0  0  0
   40.5160   34.1390   47.7300 H   0  0  0  0  0  0  0  0  0  0  0  0
   36.5770   30.7050   47.6780 C   0  0  0  0  0  0  0  0  0  0  0  0
   36.0410   30.3260   46.6340 O   0  0  0  0  0  0  0  0  0  0  0  0
   36.9250   29.5930   49.8600 C   0  0  0  0  0  0  0  0  0  0  0  0
   36.0430   30.1720   48.9400 C   0  0  0  0  0  0  0  0  0  0  0  0
   34.6610   30.2390   49.2270 C   0  0  0  0  0  0  0  0  0  0  0  0
   34.2610   29.7100   50.4390 N   0  0  0  0  0  0  0  0  0  0  0  0
   35.1390   29.1610   51.3010 C   0  0  0  0  0  0  0  0  0  0  0  0
   36.4230   29.1070   51.0170 N   0  0  0  0  0  0  0  0  0  0  0  0
   37.9830   29.5240   49.6760 H   0  0  0  0  0  0  0  0  0  0  0  0
   34.0490   30.6900   48.4880 H   0  0  0  0  0  0  0  0  0  0  0  0
   34.5830   28.8250   52.1650 H   0  0  0  0  0  0  0  0  0  0  0  0
   40.6860   32.5950   45.2440 S   0  0  0  0  0  0  0  0  0  0  0  0
   39.7170   33.1560   43.8290 C   0  0  0  0  0  0  0  0  0  0  0  0
   39.2950   34.1810   43.9790 H   0  0  0  0  0  0  0  0  0  0  0  0
   40.4050   33.2870   42.9410 H   0  0  0  0  0  0  0  0  0  0  0  0
   40.5820   30.5550   42.4720 Cl  0  0  0  0  0  0  0  0  0  0  0  0
   38.9180   31.0000   42.7910 C   0  0  0  0  0  0  0  0  0  0  0  0
   38.6460   32.2170   43.4250 C   0  0  0  0  0  0  0  0  0  0  0  0
   37.3090   32.4630   43.6250 C   0  0  0  0  0  0  0  0  0  0  0  0
   37.1090   33.4230   44.1270 H   0  0  0  0  0  0  0  0  0  0  0  0
   36.2200   31.6900   43.2910 C   0  0  0  0  0  3  0  0  0  0  0  0
   36.5430   30.4840   42.6590 C   0  0  0  0  0  0  0  0  0  0  0  0
   35.2070   29.4460   42.2020 Cl  0  0  0  0  0  0  0  0  0  0  0  0
   37.8790   30.1440   42.4130 C   0  0  0  0  0  0  0  0  0  0  0  0
   38.0690   29.1980   41.9200 H   0  0  0  0  0  0  0  0  0  0  0  0
  1 10  1  0  0  0  0
  1  2  1  0  0  0  0
  2  3  2  0  0  0  0
  2  7  1  0  0  0  0
  3  8  1  0  0  0  0
  4  9  1  0  0  0  0
  4  3  1  0  0  0  0
  5  4  2  0  0  0  0
  6  5  1  0  0  0  0
  6  1  2  0  0  0  0
 10 13  1  0  0  0  0
 11 10  2  0  0  0  0
 12 17  1  0  0  0  0
 13 14  1  0  0  0  0
 13 12  2  0  0  0  0
 14 15  2  0  0  0  0
 15 16  1  0  0  0  0
 16 20  1  0  0  0  0
 17 16  2  0  0  0  0
 18 12  1  0  0  0  0
 19 14  1  0  0  0  0
 21  5  1  0  0  0  0
 22 23  1  0  0  0  0
 22 21  1  0  0  0  0
 24 22  1  0  0  0  0
 25 26  1  0  0  0  0
 26 27  1  0  0  0  0
 27 28  2  0  0  0  0
 27 22  1  0  0  0  0
 28 29  1  0  0  0  0
 30 28  1  0  0  0  0
 31 30  2  0  0  0  0
 32 31  1  0  0  0  0
 33 31  1  0  0  0  0
 33 26  2  0  0  0  0
 34 33  1  0  0  0  0
M  END
>  <minimizedAffinity>
-5.42267179

>  <minimizedRMSD>
0.398281813

$$$$
