
 OpenBabel03272510303D

 29 31  0  0  0  0  0  0  0  0999 V2000
   37.3650   31.3740   49.2340 C   0  0  0  0  0  0  0  0  0  0  0  0
   37.7020   32.6780   49.6000 C   0  0  0  0  0  0  0  0  0  0  0  0
   38.5750   33.3290   48.7570 C   0  0  0  0  0  0  0  0  0  0  0  0
   39.0540   32.6880   47.6380 N   0  0  0  0  0  0  0  0  0  0  0  0
   38.6930   31.4130   47.3250 C   0  0  0  0  0  0  0  0  0  0  0  0
   37.8280   30.7390   48.1430 N   0  0  0  0  0  0  0  0  0  0  0  0
   37.2840   33.1180   50.4970 H   0  0  0  0  0  0  0  0  0  0  0  0
   38.8800   34.3440   48.9800 H   0  0  0  0  0  0  0  0  0  0  0  0
   36.3850   30.6390   50.1150 C   0  0  0  0  0  0  0  0  0  0  0  0
   36.2580   29.2040   50.1250 C   0  0  0  0  0  0  0  0  0  0  0  0
   37.0730   29.8440   51.2350 C   0  0  0  0  0  0  0  0  0  0  0  0
   35.5250   31.2770   50.4520 H   0  0  0  0  0  0  0  0  0  0  0  0
   35.2950   28.7400   50.3660 H   0  0  0  0  0  0  0  0  0  0  0  0
   36.8420   28.6450   49.3400 H   0  0  0  0  0  0  0  0  0  0  0  0
   36.5660   29.9230   52.2020 H   0  0  0  0  0  0  0  0  0  0  0  0
   38.1710   29.7600   51.2380 H   0  0  0  0  0  0  0  0  0  0  0  0
   39.1820   30.7260   46.1320 C   0  0  0  0  0  0  0  0  0  0  0  0
   38.5890   29.7810   45.9650 H   0  0  0  0  0  0  0  0  0  0  0  0
   40.2480   30.4500   46.2070 H   0  0  0  0  0  0  0  0  0  0  0  0
   36.3730   30.4670   44.9440 Cl  0  0  0  0  0  0  0  0  0  0  0  0
   37.6930   31.4480   44.3420 C   0  0  0  0  0  0  0  0  0  0  0  0
   38.9530   31.5510   44.8930 C   0  0  0  0  0  0  0  0  0  0  0  0
   39.8810   32.3720   44.2910 C   0  0  0  0  0  0  0  0  0  0  0  0
   40.8560   32.4150   44.7680 H   0  0  0  0  0  0  0  0  0  0  0  0
   39.5770   33.0820   43.1640 C   0  0  0  0  0  3  0  0  0  0  0  0
   38.3050   32.9870   42.5960 C   0  0  0  0  0  0  0  0  0  0  0  0
   37.9640   33.9170   41.1530 Cl  0  0  0  0  0  0  0  0  0  0  0  0
   37.3610   32.1650   43.1890 C   0  0  0  0  0  0  0  0  0  0  0  0
   36.4000   32.1410   42.6960 H   0  0  0  0  0  0  0  0  0  0  0  0
  1  2  1  0  0  0  0
  1  9  1  0  0  0  0
  2  7  1  0  0  0  0
  3  8  1  0  0  0  0
  3  2  2  0  0  0  0
  4  3  1  0  0  0  0
  5  4  2  0  0  0  0
  5  6  1  0  0  0  0
  6  1  2  0  0  0  0
  9 10  1  0  0  0  0
  9 12  1  0  0  0  0
  9 11  1  0  0  0  0
 10 13  1  0  0  0  0
 10 11  1  0  0  0  0
 11 16  1  0  0  0  0
 11 15  1  0  0  0  0
 14 10  1  0  0  0  0
 17 19  1  0  0  0  0
 17  5  1  0  0  0  0
 18 17  1  0  0  0  0
 21 22  1  0  0  0  0
 21 20  1  0  0  0  0
 22 17  1  0  0  0  0
 23 24  1  0  0  0  0
 23 22  2  0  0  0  0
 25 23  1  0  0  0  0
 26 25  2  0  0  0  0
 26 28  1  0  0  0  0
 27 26  1  0  0  0  0
 28 21  2  0  0  0  0
 29 28  1  0  0  0  0
M  END
>  <minimizedAffinity>
-5.68187332

>  <minimizedRMSD>
1.40981817

$$$$
