
 OpenBabel03272500203D

 35 37  0  0  0  0  0  0  0  0999 V2000
   37.0330   29.1220   31.1420 C   0  0  0  0  0  0  0  0  0  0  0  0
   36.2300   29.9510   31.9710 C   0  0  0  0  0  0  0  0  0  0  0  0
   35.8160   29.4440   33.1920 C   0  0  0  0  0  0  0  0  0  0  0  0
   36.1840   28.1960   33.5580 N   0  0  0  0  0  0  0  0  0  0  0  0
   36.9410   27.4280   32.7640 C   0  0  0  0  0  0  0  0  0  0  0  0
   37.3610   27.8760   31.5800 N   0  0  0  0  0  0  0  0  0  0  0  0
   37.3520   29.5160   30.1890 H   0  0  0  0  0  0  0  0  0  0  0  0
   37.9830   27.1970   35.5840 Cl  0  0  0  0  0  0  0  0  0  0  0  0
   37.7910   25.8370   34.4750 C   0  0  0  0  0  0  0  0  0  0  0  0
   37.2960   26.0720   33.2030 C   0  0  0  0  0  0  0  0  0  0  0  0
   37.1120   25.0290   32.2890 C   0  0  0  0  0  0  0  0  0  0  0  0
   37.4570   23.7530   32.7360 C   0  0  0  0  0  0  0  0  0  0  0  0
   37.9460   23.5100   33.9840 C   0  0  0  0  0  0  0  0  0  0  0  0
   38.3490   21.8640   34.4170 Cl  0  0  0  0  0  0  0  0  0  0  0  0
   38.1130   24.5690   34.8580 C   0  0  0  0  0  0  0  0  0  0  0  0
   36.7300   25.2470   31.3170 H   0  0  0  0  0  0  0  0  0  0  0  0
   37.2830   22.9940   31.9540 H   0  0  0  0  0  0  0  0  0  0  0  0
   38.6400   24.3260   36.2180 C   0  0  0  0  0  0  0  0  0  0  0  0
   40.0250   24.1210   36.1710 F   0  0  0  0  0  0  0  0  0  0  0  0
   38.0230   23.3000   36.8440 F   0  0  0  0  0  0  0  0  0  0  0  0
   38.4570   25.4600   36.9970 F   0  0  0  0  0  0  0  0  0  0  0  0
   32.7340   29.4530   33.1440 Cl  0  0  0  0  0  0  0  0  0  0  0  0
   33.6630   30.3310   34.3730 C   0  0  0  0  0  0  0  0  0  0  0  0
   35.0010   30.1000   34.1870 C   0  0  0  0  0  0  0  0  0  0  0  0
   35.9030   30.7070   35.0780 C   0  0  0  0  0  0  0  0  0  0  0  0
   36.9980   30.7270   35.1730 H   0  0  0  0  0  0  0  0  0  0  0  0
   35.4650   31.5260   36.1290 C   0  0  0  0  0  3  0  0  0  0  0  0
   34.0910   31.7320   36.2780 C   0  0  0  0  0  0  0  0  0  0  0  0
   33.3690   32.7350   37.5290 Cl  0  0  0  0  0  0  0  0  0  0  0  0
   33.1910   31.1280   35.3920 C   0  0  0  0  0  0  0  0  0  0  0  0
   32.1270   31.2090   35.3760 H   0  0  0  0  0  0  0  0  0  0  0  0
   35.8880   31.3270   31.5100 C   0  0  0  0  0  0  0  0  0  0  0  0
   34.5240   31.5320   31.4940 F   0  0  0  0  0  0  0  0  0  0  0  0
   36.4450   32.2450   32.3830 F   0  0  0  0  0  0  0  0  0  0  0  0
   36.3950   31.5890   30.2520 F   0  0  0  0  0  0  0  0  0  0  0  0
  1  6  2  0  0  0  0
  1  2  1  0  0  0  0
  2  3  2  0  0  0  0
  3  4  1  0  0  0  0
  3 24  1  0  0  0  0
  5 10  1  0  0  0  0
  5  4  2  0  0  0  0
  6  5  1  0  0  0  0
  7  1  1  0  0  0  0
  9 15  1  0  0  0  0
  9  8  1  0  0  0  0
 10  9  2  0  0  0  0
 11 12  2  0  0  0  0
 11 10  1  0  0  0  0
 12 13  1  0  0  0  0
 13 14  1  0  0  0  0
 13 15  2  0  0  0  0
 15 18  1  0  0  0  0
 16 11  1  0  0  0  0
 17 12  1  0  0  0  0
 18 20  1  0  0  0  0
 18 21  1  0  0  0  0
 19 18  1  0  0  0  0
 22 23  1  0  0  0  0
 23 30  1  0  0  0  0
 24 23  2  0  0  0  0
 24 25  1  0  0  0  0
 25 26  1  0  0  0  0
 25 27  2  0  0  0  0
 27 28  1  0  0  0  0
 28 29  1  0  0  0  0
 30 28  2  0  0  0  0
 31 30  1  0  0  0  0
 32  2  1  0  0  0  0
 32 34  1  0  0  0  0
 33 32  1  0  0  0  0
 35 32  1  0  0  0  0
M  END
>  <minimizedAffinity>
-6.67065382

$$$$

 OpenBabel03272500203D

 35 37  0  0  0  0  0  0  0  0999 V2000
   36.5500   29.4690   31.0350 C   0  0  0  0  0  0  0  0  0  0  0  0
   37.3340   28.3600   31.4530 C   0  0  0  0  0  0  0  0  0  0  0  0
   36.9990   27.7400   32.6450 C   0  0  0  0  0  0  0  0  0  0  0  0
   35.9510   28.1970   33.3660 N   0  0  0  0  0  0  0  0  0  0  0  0
   35.2240   29.2430   32.9570 C   0  0  0  0  0  0  0  0  0  0  0  0
   35.5120   29.8710   31.8160 N   0  0  0  0  0  0  0  0  0  0  0  0
   36.8150   29.9560   30.1080 H   0  0  0  0  0  0  0  0  0  0  0  0
   35.9870   30.8460   35.3940 Cl  0  0  0  0  0  0  0  0  0  0  0  0
   34.3290   30.4510   34.9380 C   0  0  0  0  0  0  0  0  0  0  0  0
   34.1060   29.7100   33.7890 C   0  0  0  0  0  0  0  0  0  0  0  0
   32.8110   29.3800   33.3750 C   0  0  0  0  0  0  0  0  0  0  0  0
   31.7720   29.8390   34.1840 C   0  0  0  0  0  0  0  0  0  0  0  0
   31.9780   30.5680   35.3160 C   0  0  0  0  0  0  0  0  0  0  0  0
   30.5880   31.0750   36.2480 Cl  0  0  0  0  0  0  0  0  0  0  0  0
   33.2740   30.8730   35.6920 C   0  0  0  0  0  0  0  0  0  0  0  0
   32.6770   28.8070   32.4850 H   0  0  0  0  0  0  0  0  0  0  0  0
   30.7890   29.5340   33.7860 H   0  0  0  0  0  0  0  0  0  0  0  0
   33.5200   31.6650   36.9170 C   0  0  0  0  0  0  0  0  0  0  0  0
   32.9290   32.9290   36.8020 F   0  0  0  0  0  0  0  0  0  0  0  0
   34.8320   31.7720   37.2170 F   0  0  0  0  0  0  0  0  0  0  0  0
   32.8940   31.0560   37.9960 F   0  0  0  0  0  0  0  0  0  0  0  0
   36.3850   24.8090   31.9140 Cl  0  0  0  0  0  0  0  0  0  0  0  0
   37.5290   25.2430   33.1980 C   0  0  0  0  0  0  0  0  0  0  0  0
   37.6490   26.6080   33.2610 C   0  0  0  0  0  0  0  0  0  0  0  0
   38.5270   27.1460   34.2180 C   0  0  0  0  0  0  0  0  0  0  0  0
   38.8140   28.1650   34.5150 H   0  0  0  0  0  0  0  0  0  0  0  0
   39.2630   26.3290   35.0880 C   0  0  0  0  0  3  0  0  0  0  0  0
   39.1060   24.9440   34.9860 C   0  0  0  0  0  0  0  0  0  0  0  0
   39.9390   23.7740   36.0020 Cl  0  0  0  0  0  0  0  0  0  0  0  0
   38.2330   24.4060   34.0330 C   0  0  0  0  0  0  0  0  0  0  0  0
   38.0040   23.3780   33.8550 H   0  0  0  0  0  0  0  0  0  0  0  0
   38.4580   27.8980   30.5900 C   0  0  0  0  0  0  0  0  0  0  0  0
   38.2280   26.6330   30.0900 F   0  0  0  0  0  0  0  0  0  0  0  0
   38.5860   28.7610   29.5170 F   0  0  0  0  0  0  0  0  0  0  0  0
   39.6620   27.8970   31.2680 F   0  0  0  0  0  0  0  0  0  0  0  0
  1  2  2  0  0  0  0
  1  6  1  0  0  0  0
  2  3  1  0  0  0  0
  3 24  1  0  0  0  0
  3  4  2  0  0  0  0
  5  4  1  0  0  0  0
  5 10  1  0  0  0  0
  6  5  2  0  0  0  0
  7  1  1  0  0  0  0
  9  8  1  0  0  0  0
  9 15  1  0  0  0  0
 10  9  2  0  0  0  0
 11 10  1  0  0  0  0
 11 12  2  0  0  0  0
 12 13  1  0  0  0  0
 13 15  2  0  0  0  0
 13 14  1  0  0  0  0
 15 18  1  0  0  0  0
 16 11  1  0  0  0  0
 17 12  1  0  0  0  0
 18 20  1  0  0  0  0
 18 21  1  0  0  0  0
 19 18  1  0  0  0  0
 22 23  1  0  0  0  0
 23 24  2  0  0  0  0
 23 30  1  0  0  0  0
 24 25  1  0  0  0  0
 25 26  1  0  0  0  0
 25 27  2  0  0  0  0
 28 27  1  0  0  0  0
 28 29  1  0  0  0  0
 30 28  2  0  0  0  0
 31 30  1  0  0  0  0
 32 35  1  0  0  0  0
 32  2  1  0  0  0  0
 33 32  1  0  0  0  0
 34 32  1  0  0  0  0
M  END
>  <minimizedAffinity>
-6.6563282

$$$$

 OpenBabel03272500203D

 35 37  0  0  0  0  0  0  0  0999 V2000
   36.7220   28.9390   30.5110 C   0  0  0  0  0  0  0  0  0  0  0  0
   35.9890   29.7270   31.4390 C   0  0  0  0  0  0  0  0  0  0  0  0
   35.6490   29.1530   32.6520 C   0  0  0  0  0  0  0  0  0  0  0  0
   36.0190   27.8810   32.9190 N   0  0  0  0  0  0  0  0  0  0  0  0
   36.7090   27.1530   32.0320 C   0  0  0  0  0  0  0  0  0  0  0  0
   37.0580   27.6660   30.8510 N   0  0  0  0  0  0  0  0  0  0  0  0
   36.9840   29.3860   29.5630 H   0  0  0  0  0  0  0  0  0  0  0  0
   34.9530   25.0180   30.8300 Cl  0  0  0  0  0  0  0  0  0  0  0  0
   36.3370   24.7000   31.8790 C   0  0  0  0  0  0  0  0  0  0  0  0
   37.0710   25.7690   32.3660 C   0  0  0  0  0  0  0  0  0  0  0  0
   38.1840   25.5720   33.1910 C   0  0  0  0  0  0  0  0  0  0  0  0
   38.5010   24.2470   33.4870 C   0  0  0  0  0  0  0  0  0  0  0  0
   37.7870   23.1880   33.0150 C   0  0  0  0  0  0  0  0  0  0  0  0
   38.2870   21.5740   33.4700 Cl  0  0  0  0  0  0  0  0  0  0  0  0
   36.6930   23.4240   32.2020 C   0  0  0  0  0  0  0  0  0  0  0  0
   38.7250   26.4200   33.5480 H   0  0  0  0  0  0  0  0  0  0  0  0
   39.3880   24.1850   34.1410 H   0  0  0  0  0  0  0  0  0  0  0  0
   35.9050   22.2880   31.6780 C   0  0  0  0  0  0  0  0  0  0  0  0
   34.9620   21.8740   32.6270 F   0  0  0  0  0  0  0  0  0  0  0  0
   36.6780   21.2520   31.2830 F   0  0  0  0  0  0  0  0  0  0  0  0
   35.1690   22.7020   30.5770 F   0  0  0  0  0  0  0  0  0  0  0  0
   32.5720   29.1530   32.8400 Cl  0  0  0  0  0  0  0  0  0  0  0  0
   33.5910   29.9760   34.0350 C   0  0  0  0  0  0  0  0  0  0  0  0
   34.9120   29.7590   33.7360 C   0  0  0  0  0  0  0  0  0  0  0  0
   35.8790   30.3260   34.5840 C   0  0  0  0  0  0  0  0  0  0  0  0
   36.9780   30.3460   34.5960 H   0  0  0  0  0  0  0  0  0  0  0  0
   35.5220   31.0930   35.7030 C   0  0  0  0  0  3  0  0  0  0  0  0
   34.1630   31.2870   35.9660 C   0  0  0  0  0  0  0  0  0  0  0  0
   33.5390   32.2270   37.3140 Cl  0  0  0  0  0  0  0  0  0  0  0  0
   33.1990   30.7210   35.1230 C   0  0  0  0  0  0  0  0  0  0  0  0
   32.1360   30.7990   35.1920 H   0  0  0  0  0  0  0  0  0  0  0  0
   35.6400   31.1320   31.0840 C   0  0  0  0  0  0  0  0  0  0  0  0
   36.2240   32.0340   31.9490 F   0  0  0  0  0  0  0  0  0  0  0  0
   36.1060   31.4030   29.8100 F   0  0  0  0  0  0  0  0  0  0  0  0
   34.2740   31.3390   31.0790 F   0  0  0  0  0  0  0  0  0  0  0  0
  1  6  2  0  0  0  0
  1  2  1  0  0  0  0
  2  3  2  0  0  0  0
  3  4  1  0  0  0  0
  3 24  1  0  0  0  0
  5 10  1  0  0  0  0
  5  4  2  0  0  0  0
  6  5  1  0  0  0  0
  7  1  1  0  0  0  0
  8  9  1  0  0  0  0
  9 15  2  0  0  0  0
  9 10  1  0  0  0  0
 10 11  2  0  0  0  0
 11 12  1  0  0  0  0
 11 16  1  0  0  0  0
 12 17  1  0  0  0  0
 13 14  1  0  0  0  0
 13 12  2  0  0  0  0
 15 13  1  0  0  0  0
 18 15  1  0  0  0  0
 18 19  1  0  0  0  0
 20 18  1  0  0  0  0
 21 18  1  0  0  0  0
 22 23  1  0  0  0  0
 23 30  1  0  0  0  0
 24 23  2  0  0  0  0
 24 25  1  0  0  0  0
 25 26  1  0  0  0  0
 25 27  2  0  0  0  0
 27 28  1  0  0  0  0
 28 29  1  0  0  0  0
 30 31  1  0  0  0  0
 30 28  2  0  0  0  0
 32  2  1  0  0  0  0
 32 33  1  0  0  0  0
 34 32  1  0  0  0  0
 35 32  1  0  0  0  0
M  END
>  <minimizedAffinity>
-6.62685776

$$$$

 OpenBabel03272500203D

 35 37  0  0  0  0  0  0  0  0999 V2000
   35.5120   28.0480   32.0400 C   0  0  0  0  0  0  0  0  0  0  0  0
   36.4800   27.1080   32.4870 C   0  0  0  0  0  0  0  0  0  0  0  0
   37.0080   27.2730   33.7570 C   0  0  0  0  0  0  0  0  0  0  0  0
   36.5950   28.3040   34.5260 N   0  0  0  0  0  0  0  0  0  0  0  0
   35.6820   29.1800   34.0890 C   0  0  0  0  0  0  0  0  0  0  0  0
   35.1470   29.0600   32.8720 N   0  0  0  0  0  0  0  0  0  0  0  0
   35.1040   27.9220   31.0490 H   0  0  0  0  0  0  0  0  0  0  0  0
   32.7920   29.1950   34.9470 Cl  0  0  0  0  0  0  0  0  0  0  0  0
   33.9790   30.4140   35.4150 C   0  0  0  0  0  0  0  0  0  0  0  0
   35.2810   30.2940   34.9590 C   0  0  0  0  0  0  0  0  0  0  0  0
   36.2640   31.2260   35.3100 C   0  0  0  0  0  0  0  0  0  0  0  0
   35.8530   32.2700   36.1380 C   0  0  0  0  0  0  0  0  0  0  0  0
   34.5750   32.3990   36.5920 C   0  0  0  0  0  0  0  0  0  0  0  0
   34.1870   33.7610   37.6180 Cl  0  0  0  0  0  0  0  0  0  0  0  0
   33.6320   31.4570   36.2220 C   0  0  0  0  0  0  0  0  0  0  0  0
   37.2570   31.1030   34.9390 H   0  0  0  0  0  0  0  0  0  0  0  0
   36.6880   32.9560   36.3620 H   0  0  0  0  0  0  0  0  0  0  0  0
   32.2400   31.5780   36.7060 C   0  0  0  0  0  0  0  0  0  0  0  0
   31.9520   30.5500   37.6130 F   0  0  0  0  0  0  0  0  0  0  0  0
   31.3370   31.6010   35.7020 F   0  0  0  0  0  0  0  0  0  0  0  0
   32.0980   32.7580   37.4220 F   0  0  0  0  0  0  0  0  0  0  0  0
   40.0120   27.3230   33.0650 Cl  0  0  0  0  0  0  0  0  0  0  0  0
   39.3380   26.2070   34.2670 C   0  0  0  0  0  0  0  0  0  0  0  0
   37.9960   26.4480   34.4130 C   0  0  0  0  0  0  0  0  0  0  0  0
   37.2840   25.6650   35.3380 C   0  0  0  0  0  0  0  0  0  0  0  0
   36.2330   25.6080   35.6530 H   0  0  0  0  0  0  0  0  0  0  0  0
   37.9110   24.6640   36.0950 C   0  0  0  0  0  3  0  0  0  0  0  0
   39.2800   24.4550   35.9100 C   0  0  0  0  0  0  0  0  0  0  0  0
   40.2210   23.2390   36.7640 Cl  0  0  0  0  0  0  0  0  0  0  0  0
   39.9910   25.2350   34.9900 C   0  0  0  0  0  0  0  0  0  0  0  0
   41.0260   25.1760   34.7370 H   0  0  0  0  0  0  0  0  0  0  0  0
   36.8660   25.9810   31.5920 C   0  0  0  0  0  0  0  0  0  0  0  0
   36.8290   24.7710   32.2530 F   0  0  0  0  0  0  0  0  0  0  0  0
   35.9720   25.9160   30.5380 F   0  0  0  0  0  0  0  0  0  0  0  0
   38.1270   26.1570   31.0550 F   0  0  0  0  0  0  0  0  0  0  0  0
  1  2  2  0  0  0  0
  1  6  1  0  0  0  0
  2  3  1  0  0  0  0
  3 24  1  0  0  0  0
  3  4  2  0  0  0  0
  5  4  1  0  0  0  0
  5 10  1  0  0  0  0
  6  5  2  0  0  0  0
  7  1  1  0  0  0  0
  8  9  1  0  0  0  0
  9 15  1  0  0  0  0
 10 11  1  0  0  0  0
 10  9  2  0  0  0  0
 11 12  2  0  0  0  0
 12 17  1  0  0  0  0
 12 13  1  0  0  0  0
 13 14  1  0  0  0  0
 15 13  2  0  0  0  0
 15 18  1  0  0  0  0
 16 11  1  0  0  0  0
 18 21  1  0  0  0  0
 18 19  1  0  0  0  0
 20 18  1  0  0  0  0
 22 23  1  0  0  0  0
 23 24  2  0  0  0  0
 23 30  1  0  0  0  0
 24 25  1  0  0  0  0
 25 26  1  0  0  0  0
 25 27  2  0  0  0  0
 28 27  1  0  0  0  0
 28 29  1  0  0  0  0
 30 28  2  0  0  0  0
 31 30  1  0  0  0  0
 32 33  1  0  0  0  0
 32  2  1  0  0  0  0
 34 32  1  0  0  0  0
 35 32  1  0  0  0  0
M  END
>  <minimizedAffinity>
-6.50576496

$$$$

 OpenBabel03272500203D

 35 37  0  0  0  0  0  0  0  0999 V2000
   36.5620   30.5160   31.2360 C   0  0  0  0  0  0  0  0  0  0  0  0
   36.9200   29.1420   31.1780 C   0  0  0  0  0  0  0  0  0  0  0  0
   36.2140   28.2520   31.9710 C   0  0  0  0  0  0  0  0  0  0  0  0
   35.2190   28.7070   32.7640 N   0  0  0  0  0  0  0  0  0  0  0  0
   34.8950   30.0050   32.8060 C   0  0  0  0  0  0  0  0  0  0  0  0
   35.5490   30.8960   32.0600 N   0  0  0  0  0  0  0  0  0  0  0  0
   37.1160   31.2100   30.6210 H   0  0  0  0  0  0  0  0  0  0  0  0
   35.7600   30.9400   35.5390 Cl  0  0  0  0  0  0  0  0  0  0  0  0
   34.0860   30.8940   34.9830 C   0  0  0  0  0  0  0  0  0  0  0  0
   33.8160   30.4470   33.7000 C   0  0  0  0  0  0  0  0  0  0  0  0
   32.5080   30.4030   33.2040 C   0  0  0  0  0  0  0  0  0  0  0  0
   31.5070   30.8310   34.0750 C   0  0  0  0  0  0  0  0  0  0  0  0
   31.7590   31.2710   35.3390 C   0  0  0  0  0  0  0  0  0  0  0  0
   30.4110   31.7720   36.3350 Cl  0  0  0  0  0  0  0  0  0  0  0  0
   33.0660   31.3000   35.7920 C   0  0  0  0  0  0  0  0  0  0  0  0
   32.3370   30.0520   32.2110 H   0  0  0  0  0  0  0  0  0  0  0  0
   30.5100   30.7610   33.6060 H   0  0  0  0  0  0  0  0  0  0  0  0
   33.3620   31.7770   37.1600 C   0  0  0  0  0  0  0  0  0  0  0  0
   32.7400   33.0100   37.3880 F   0  0  0  0  0  0  0  0  0  0  0  0
   34.6870   31.8510   37.4140 F   0  0  0  0  0  0  0  0  0  0  0  0
   32.8090   30.9030   38.0860 F   0  0  0  0  0  0  0  0  0  0  0  0
   38.3360   26.9340   33.7770 Cl  0  0  0  0  0  0  0  0  0  0  0  0
   37.2840   25.9870   32.7090 C   0  0  0  0  0  0  0  0  0  0  0  0
   36.4030   26.8250   32.0750 C   0  0  0  0  0  0  0  0  0  0  0  0
   35.4740   26.2520   31.1890 C   0  0  0  0  0  0  0  0  0  0  0  0
   34.6810   26.6500   30.5400 H   0  0  0  0  0  0  0  0  0  0  0  0
   35.4360   24.8710   30.9490 C   0  0  0  0  0  3  0  0  0  0  0  0
   36.3550   24.0580   31.6180 C   0  0  0  0  0  0  0  0  0  0  0  0
   36.4560   22.3120   31.4280 Cl  0  0  0  0  0  0  0  0  0  0  0  0
   37.2800   24.6260   32.5020 C   0  0  0  0  0  0  0  0  0  0  0  0
   38.0430   24.1340   33.0630 H   0  0  0  0  0  0  0  0  0  0  0  0
   38.0120   28.7130   30.2590 C   0  0  0  0  0  0  0  0  0  0  0  0
   37.5420   27.8790   29.2660 F   0  0  0  0  0  0  0  0  0  0  0  0
   38.5550   29.8320   29.6520 F   0  0  0  0  0  0  0  0  0  0  0  0
   39.0330   28.0720   30.9340 F   0  0  0  0  0  0  0  0  0  0  0  0
  1  6  1  0  0  0  0
  2  1  2  0  0  0  0
  2  3  1  0  0  0  0
  3 24  1  0  0  0  0
  3  4  2  0  0  0  0
  4  5  1  0  0  0  0
  5 10  1  0  0  0  0
  6  5  2  0  0  0  0
  7  1  1  0  0  0  0
  9  8  1  0  0  0  0
  9 15  1  0  0  0  0
 10  9  2  0  0  0  0
 11 10  1  0  0  0  0
 11 12  2  0  0  0  0
 12 13  1  0  0  0  0
 13 15  2  0  0  0  0
 13 14  1  0  0  0  0
 15 18  1  0  0  0  0
 16 11  1  0  0  0  0
 17 12  1  0  0  0  0
 18 19  1  0  0  0  0
 18 20  1  0  0  0  0
 18 21  1  0  0  0  0
 23 22  1  0  0  0  0
 24 23  2  0  0  0  0
 25 24  1  0  0  0  0
 26 25  1  0  0  0  0
 27 25  2  0  0  0  0
 27 28  1  0  0  0  0
 28 30  2  0  0  0  0
 29 28  1  0  0  0  0
 30 23  1  0  0  0  0
 30 31  1  0  0  0  0
 32 35  1  0  0  0  0
 32  2  1  0  0  0  0
 33 32  1  0  0  0  0
 34 32  1  0  0  0  0
M  END
>  <minimizedAffinity>
-6.48822784

$$$$

 OpenBabel03272500203D

 35 37  0  0  0  0  0  0  0  0999 V2000
   36.9960   28.8540   31.7660 C   0  0  0  0  0  0  0  0  0  0  0  0
   35.9930   29.6780   32.3440 C   0  0  0  0  0  0  0  0  0  0  0  0
   35.5660   29.3800   33.6270 C   0  0  0  0  0  0  0  0  0  0  0  0
   36.1080   28.3320   34.2860 N   0  0  0  0  0  0  0  0  0  0  0  0
   37.0530   27.5660   33.7270 C   0  0  0  0  0  0  0  0  0  0  0  0
   37.4920   27.8170   32.4920 N   0  0  0  0  0  0  0  0  0  0  0  0
   37.3250   29.0830   30.7630 H   0  0  0  0  0  0  0  0  0  0  0  0
   37.0810   24.9260   32.2720 Cl  0  0  0  0  0  0  0  0  0  0  0  0
   37.6570   25.1620   33.9230 C   0  0  0  0  0  0  0  0  0  0  0  0
   37.5950   26.4280   34.4820 C   0  0  0  0  0  0  0  0  0  0  0  0
   38.0490   26.6740   35.7820 C   0  0  0  0  0  0  0  0  0  0  0  0
   38.5600   25.5740   36.4720 C   0  0  0  0  0  0  0  0  0  0  0  0
   38.6240   24.3240   35.9340 C   0  0  0  0  0  0  0  0  0  0  0  0
   39.2800   23.0280   36.9090 Cl  0  0  0  0  0  0  0  0  0  0  0  0
   38.1650   24.1230   34.6440 C   0  0  0  0  0  0  0  0  0  0  0  0
   37.9850   27.6620   36.1800 H   0  0  0  0  0  0  0  0  0  0  0  0
   38.8920   25.8560   37.4850 H   0  0  0  0  0  0  0  0  0  0  0  0
   38.2280   22.7740   34.0420 C   0  0  0  0  0  0  0  0  0  0  0  0
   39.1160   22.7690   32.9590 F   0  0  0  0  0  0  0  0  0  0  0  0
   37.0150   22.3080   33.6720 F   0  0  0  0  0  0  0  0  0  0  0  0
   38.7560   21.8790   34.9610 F   0  0  0  0  0  0  0  0  0  0  0  0
   36.2070   31.6750   35.5830 Cl  0  0  0  0  0  0  0  0  0  0  0  0
   34.5640   31.0400   35.3770 C   0  0  0  0  0  0  0  0  0  0  0  0
   34.5670   30.0720   34.4050 C   0  0  0  0  0  0  0  0  0  0  0  0
   33.3440   29.4550   34.0900 C   0  0  0  0  0  0  0  0  0  0  0  0
   33.0370   28.6600   33.3960 H   0  0  0  0  0  0  0  0  0  0  0  0
   32.1510   29.8050   34.7390 C   0  0  0  0  0  3  0  0  0  0  0  0
   32.1990   30.7960   35.7230 C   0  0  0  0  0  0  0  0  0  0  0  0
   30.8060   31.3490   36.6430 Cl  0  0  0  0  0  0  0  0  0  0  0  0
   33.4160   31.4130   36.0380 C   0  0  0  0  0  0  0  0  0  0  0  0
   33.6030   32.1660   36.7710 H   0  0  0  0  0  0  0  0  0  0  0  0
   35.4620   30.8320   31.5630 C   0  0  0  0  0  0  0  0  0  0  0  0
   35.5800   32.0150   32.2630 F   0  0  0  0  0  0  0  0  0  0  0  0
   36.1880   30.9560   30.3930 F   0  0  0  0  0  0  0  0  0  0  0  0
   34.1380   30.6520   31.2130 F   0  0  0  0  0  0  0  0  0  0  0  0
  1  2  2  0  0  0  0
  1  6  1  0  0  0  0
  2  3  1  0  0  0  0
  3  4  2  0  0  0  0
  3 24  1  0  0  0  0
  5  4  1  0  0  0  0
  5 10  1  0  0  0  0
  6  5  2  0  0  0  0
  7  1  1  0  0  0  0
  8  9  1  0  0  0  0
  9 10  2  0  0  0  0
  9 15  1  0  0  0  0
 10 11  1  0  0  0  0
 11 16  1  0  0  0  0
 11 12  2  0  0  0  0
 12 17  1  0  0  0  0
 13 12  1  0  0  0  0
 13 14  1  0  0  0  0
 15 13  2  0  0  0  0
 18 15  1  0  0  0  0
 18 21  1  0  0  0  0
 19 18  1  0  0  0  0
 20 18  1  0  0  0  0
 23 22  1  0  0  0  0
 23 30  1  0  0  0  0
 24 23  2  0  0  0  0
 25 24  1  0  0  0  0
 25 27  2  0  0  0  0
 26 25  1  0  0  0  0
 27 28  1  0  0  0  0
 28 30  2  0  0  0  0
 28 29  1  0  0  0  0
 30 31  1  0  0  0  0
 32 33  1  0  0  0  0
 32  2  1  0  0  0  0
 34 32  1  0  0  0  0
 35 32  1  0  0  0  0
M  END
>  <minimizedAffinity>
-6.31838083

$$$$

 OpenBabel03272500203D

 35 37  0  0  0  0  0  0  0  0999 V2000
   36.7270   29.5010   30.2340 C   0  0  0  0  0  0  0  0  0  0  0  0
   36.1160   30.3000   31.2370 C   0  0  0  0  0  0  0  0  0  0  0  0
   35.5310   29.6560   32.3150 C   0  0  0  0  0  0  0  0  0  0  0  0
   35.5600   28.3070   32.3850 N   0  0  0  0  0  0  0  0  0  0  0  0
   36.1410   27.5700   31.4310 C   0  0  0  0  0  0  0  0  0  0  0  0
   36.7150   28.1480   30.3750 N   0  0  0  0  0  0  0  0  0  0  0  0
   37.1790   30.0030   29.3920 H   0  0  0  0  0  0  0  0  0  0  0  0
   38.3260   26.3740   33.1310 Cl  0  0  0  0  0  0  0  0  0  0  0  0
   37.0830   25.4380   32.2970 C   0  0  0  0  0  0  0  0  0  0  0  0
   36.1280   26.1050   31.5480 C   0  0  0  0  0  0  0  0  0  0  0  0
   35.1140   25.4120   30.8770 C   0  0  0  0  0  0  0  0  0  0  0  0
   35.1280   24.0240   31.0090 C   0  0  0  0  0  0  0  0  0  0  0  0
   36.0620   23.3560   31.7420 C   0  0  0  0  0  0  0  0  0  0  0  0
   35.9730   21.6110   31.8190 Cl  0  0  0  0  0  0  0  0  0  0  0  0
   37.0490   24.0780   32.3900 C   0  0  0  0  0  0  0  0  0  0  0  0
   34.3960   25.9600   30.3090 H   0  0  0  0  0  0  0  0  0  0  0  0
   34.2980   23.5600   30.4490 H   0  0  0  0  0  0  0  0  0  0  0  0
   38.0720   23.3720   33.1920 C   0  0  0  0  0  0  0  0  0  0  0  0
   39.3390   23.5510   32.6250 F   0  0  0  0  0  0  0  0  0  0  0  0
   37.7970   22.0590   33.3530 F   0  0  0  0  0  0  0  0  0  0  0  0
   38.1450   23.9410   34.4560 F   0  0  0  0  0  0  0  0  0  0  0  0
   32.5450   30.4210   32.3130 Cl  0  0  0  0  0  0  0  0  0  0  0  0
   33.6060   30.7620   33.6910 C   0  0  0  0  0  0  0  0  0  0  0  0
   34.8570   30.2600   33.4400 C   0  0  0  0  0  0  0  0  0  0  0  0
   35.8420   30.4240   34.4300 C   0  0  0  0  0  0  0  0  0  0  0  0
   36.9050   30.1580   34.5130 H   0  0  0  0  0  0  0  0  0  0  0  0
   35.5700   31.0780   35.6410 C   0  0  0  0  0  3  0  0  0  0  0  0
   34.2800   31.5730   35.8510 C   0  0  0  0  0  0  0  0  0  0  0  0
   33.7690   32.4270   37.3010 Cl  0  0  0  0  0  0  0  0  0  0  0  0
   33.2980   31.4100   34.8660 C   0  0  0  0  0  0  0  0  0  0  0  0
   32.2850   31.7470   34.8830 H   0  0  0  0  0  0  0  0  0  0  0  0
   36.1470   31.7850   31.1030 C   0  0  0  0  0  0  0  0  0  0  0  0
   36.8390   32.3740   32.1410 F   0  0  0  0  0  0  0  0  0  0  0  0
   36.7890   32.1160   29.9230 F   0  0  0  0  0  0  0  0  0  0  0  0
   34.8770   32.3250   31.0500 F   0  0  0  0  0  0  0  0  0  0  0  0
  1  6  2  0  0  0  0
  1  2  1  0  0  0  0
  2  3  2  0  0  0  0
  3  4  1  0  0  0  0
  3 24  1  0  0  0  0
  5 10  1  0  0  0  0
  5  4  2  0  0  0  0
  6  5  1  0  0  0  0
  7  1  1  0  0  0  0
  9 15  1  0  0  0  0
  9  8  1  0  0  0  0
 10  9  2  0  0  0  0
 11 12  2  0  0  0  0
 11 10  1  0  0  0  0
 12 13  1  0  0  0  0
 13 14  1  0  0  0  0
 13 15  2  0  0  0  0
 15 18  1  0  0  0  0
 16 11  1  0  0  0  0
 17 12  1  0  0  0  0
 18 20  1  0  0  0  0
 18 21  1  0  0  0  0
 19 18  1  0  0  0  0
 22 23  1  0  0  0  0
 23 30  1  0  0  0  0
 24 23  2  0  0  0  0
 24 25  1  0  0  0  0
 25 26  1  0  0  0  0
 25 27  2  0  0  0  0
 27 28  1  0  0  0  0
 28 29  1  0  0  0  0
 30 31  1  0  0  0  0
 30 28  2  0  0  0  0
 32  2  1  0  0  0  0
 32 33  1  0  0  0  0
 34 32  1  0  0  0  0
 35 32  1  0  0  0  0
M  END
>  <minimizedAffinity>
-6.19491577

$$$$

 OpenBabel03272500203D

 35 37  0  0  0  0  0  0  0  0999 V2000
   35.1320   27.7970   32.0160 C   0  0  0  0  0  0  0  0  0  0  0  0
   36.3350   27.0790   32.2540 C   0  0  0  0  0  0  0  0  0  0  0  0
   37.0900   27.4260   33.3620 C   0  0  0  0  0  0  0  0  0  0  0  0
   36.6690   28.4200   34.1750 N   0  0  0  0  0  0  0  0  0  0  0  0
   35.5330   29.0860   33.9350 C   0  0  0  0  0  0  0  0  0  0  0  0
   34.7750   28.7850   32.8790 N   0  0  0  0  0  0  0  0  0  0  0  0
   34.5450   27.5300   31.1490 H   0  0  0  0  0  0  0  0  0  0  0  0
   32.6140   29.1470   34.6880 Cl  0  0  0  0  0  0  0  0  0  0  0  0
   33.8170   30.3080   35.2550 C   0  0  0  0  0  0  0  0  0  0  0  0
   35.1310   30.1710   34.8410 C   0  0  0  0  0  0  0  0  0  0  0  0
   36.1260   31.0560   35.2700 C   0  0  0  0  0  0  0  0  0  0  0  0
   35.7130   32.0730   36.1310 C   0  0  0  0  0  0  0  0  0  0  0  0
   34.4240   32.2190   36.5440 C   0  0  0  0  0  0  0  0  0  0  0  0
   34.0360   33.5440   37.6180 Cl  0  0  0  0  0  0  0  0  0  0  0  0
   33.4690   31.3230   36.0970 C   0  0  0  0  0  0  0  0  0  0  0  0
   37.1280   30.9200   34.9300 H   0  0  0  0  0  0  0  0  0  0  0  0
   36.5580   32.7230   36.4170 H   0  0  0  0  0  0  0  0  0  0  0  0
   32.0640   31.4630   36.5360 C   0  0  0  0  0  0  0  0  0  0  0  0
   31.8780   32.6930   37.1770 F   0  0  0  0  0  0  0  0  0  0  0  0
   31.6570   30.4430   37.3230 F   0  0  0  0  0  0  0  0  0  0  0  0
   31.2320   31.4900   35.4260 F   0  0  0  0  0  0  0  0  0  0  0  0
   37.3220   25.4410   35.7090 Cl  0  0  0  0  0  0  0  0  0  0  0  0
   38.7410   26.0210   34.8180 C   0  0  0  0  0  0  0  0  0  0  0  0
   38.3360   26.8400   33.7960 C   0  0  0  0  0  0  0  0  0  0  0  0
   39.3260   27.3920   32.9650 C   0  0  0  0  0  0  0  0  0  0  0  0
   39.3180   28.0760   32.1050 H   0  0  0  0  0  0  0  0  0  0  0  0
   40.6890   27.1240   33.1610 C   0  0  0  0  0  3  0  0  0  0  0  0
   41.0520   26.2840   34.2170 C   0  0  0  0  0  0  0  0  0  0  0  0
   42.7100   25.8520   34.6150 Cl  0  0  0  0  0  0  0  0  0  0  0  0
   40.0670   25.7330   35.0460 C   0  0  0  0  0  0  0  0  0  0  0  0
   40.1990   25.0940   35.8910 H   0  0  0  0  0  0  0  0  0  0  0  0
   36.7190   25.9770   31.3270 C   0  0  0  0  0  0  0  0  0  0  0  0
   37.7330   26.3620   30.4740 F   0  0  0  0  0  0  0  0  0  0  0  0
   37.1740   24.9020   32.0700 F   0  0  0  0  0  0  0  0  0  0  0  0
   35.6470   25.5380   30.5750 F   0  0  0  0  0  0  0  0  0  0  0  0
  1  2  2  0  0  0  0
  1  6  1  0  0  0  0
  2  3  1  0  0  0  0
  3 24  1  0  0  0  0
  3  4  2  0  0  0  0
  5  4  1  0  0  0  0
  5 10  1  0  0  0  0
  6  5  2  0  0  0  0
  7  1  1  0  0  0  0
  8  9  1  0  0  0  0
  9 15  1  0  0  0  0
 10  9  2  0  0  0  0
 10 11  1  0  0  0  0
 11 12  2  0  0  0  0
 12 17  1  0  0  0  0
 12 13  1  0  0  0  0
 13 14  1  0  0  0  0
 15 18  1  0  0  0  0
 15 13  2  0  0  0  0
 16 11  1  0  0  0  0
 18 19  1  0  0  0  0
 18 20  1  0  0  0  0
 21 18  1  0  0  0  0
 23 30  1  0  0  0  0
 23 22  1  0  0  0  0
 24 23  2  0  0  0  0
 25 27  2  0  0  0  0
 25 24  1  0  0  0  0
 26 25  1  0  0  0  0
 27 28  1  0  0  0  0
 28 29  1  0  0  0  0
 28 30  2  0  0  0  0
 30 31  1  0  0  0  0
 32 34  1  0  0  0  0
 32  2  1  0  0  0  0
 33 32  1  0  0  0  0
 35 32  1  0  0  0  0
M  END
>  <minimizedAffinity>
-6.18366337

$$$$

 OpenBabel03272500203D

 35 37  0  0  0  0  0  0  0  0999 V2000
   36.8520   29.3870   31.0650 C   0  0  0  0  0  0  0  0  0  0  0  0
   37.5790   28.2230   31.4340 C   0  0  0  0  0  0  0  0  0  0  0  0
   37.4000   27.7230   32.7130 C   0  0  0  0  0  0  0  0  0  0  0  0
   36.5490   28.3420   33.5610 N   0  0  0  0  0  0  0  0  0  0  0  0
   35.8710   29.4370   33.1960 C   0  0  0  0  0  0  0  0  0  0  0  0
   36.0150   29.9540   31.9750 N   0  0  0  0  0  0  0  0  0  0  0  0
   36.9960   29.7790   30.0690 H   0  0  0  0  0  0  0  0  0  0  0  0
   32.9320   28.8810   32.8230 Cl  0  0  0  0  0  0  0  0  0  0  0  0
   33.6010   29.9070   34.0940 C   0  0  0  0  0  0  0  0  0  0  0  0
   34.9730   30.0820   34.1640 C   0  0  0  0  0  0  0  0  0  0  0  0
   35.5560   30.8750   35.1580 C   0  0  0  0  0  0  0  0  0  0  0  0
   34.6770   31.4710   36.0620 C   0  0  0  0  0  0  0  0  0  0  0  0
   33.3260   31.3080   36.0030 C   0  0  0  0  0  0  0  0  0  0  0  0
   32.3340   32.1190   37.1930 Cl  0  0  0  0  0  0  0  0  0  0  0  0
   32.7880   30.5150   35.0040 C   0  0  0  0  0  0  0  0  0  0  0  0
   36.6170   30.9880   35.1810 H   0  0  0  0  0  0  0  0  0  0  0  0
   35.2200   32.0770   36.8080 H   0  0  0  0  0  0  0  0  0  0  0  0
   31.3240   30.3240   34.9240 C   0  0  0  0  0  0  0  0  0  0  0  0
   30.8280   30.8840   33.7400 F   0  0  0  0  0  0  0  0  0  0  0  0
   30.6720   30.8150   36.0000 F   0  0  0  0  0  0  0  0  0  0  0  0
   31.0370   28.9680   34.8450 F   0  0  0  0  0  0  0  0  0  0  0  0
   36.4270   24.8330   32.2620 Cl  0  0  0  0  0  0  0  0  0  0  0  0
   37.7800   25.2160   33.3420 C   0  0  0  0  0  0  0  0  0  0  0  0
   38.0290   26.5640   33.3010 C   0  0  0  0  0  0  0  0  0  0  0  0
   39.0820   27.0620   34.0890 C   0  0  0  0  0  0  0  0  0  0  0  0
   39.4980   28.0610   34.2780 H   0  0  0  0  0  0  0  0  0  0  0  0
   39.8620   26.2210   34.8960 C   0  0  0  0  0  3  0  0  0  0  0  0
   39.5690   24.8540   34.9050 C   0  0  0  0  0  0  0  0  0  0  0  0
   40.4340   23.6610   35.8650 Cl  0  0  0  0  0  0  0  0  0  0  0  0
   38.5210   24.3570   34.1200 C   0  0  0  0  0  0  0  0  0  0  0  0
   38.1780   23.3490   34.0410 H   0  0  0  0  0  0  0  0  0  0  0  0
   38.4790   27.5810   30.4340 C   0  0  0  0  0  0  0  0  0  0  0  0
   38.0950   26.2830   30.1660 F   0  0  0  0  0  0  0  0  0  0  0  0
   38.4200   28.2950   29.2510 F   0  0  0  0  0  0  0  0  0  0  0  0
   39.7960   27.5780   30.8520 F   0  0  0  0  0  0  0  0  0  0  0  0
  1  2  2  0  0  0  0
  1  6  1  0  0  0  0
  2  3  1  0  0  0  0
  3 24  1  0  0  0  0
  3  4  2  0  0  0  0
  5  4  1  0  0  0  0
  5 10  1  0  0  0  0
  6  5  2  0  0  0  0
  7  1  1  0  0  0  0
  8  9  1  0  0  0  0
  9 10  2  0  0  0  0
  9 15  1  0  0  0  0
 10 11  1  0  0  0  0
 11 16  1  0  0  0  0
 11 12  2  0  0  0  0
 12 17  1  0  0  0  0
 13 12  1  0  0  0  0
 13 14  1  0  0  0  0
 15 13  2  0  0  0  0
 18 15  1  0  0  0  0
 18 20  1  0  0  0  0
 19 18  1  0  0  0  0
 21 18  1  0  0  0  0
 22 23  1  0  0  0  0
 23 30  1  0  0  0  0
 24 23  2  0  0  0  0
 24 25  1  0  0  0  0
 25 26  1  0  0  0  0
 25 27  2  0  0  0  0
 27 28  1  0  0  0  0
 28 29  1  0  0  0  0
 30 28  2  0  0  0  0
 31 30  1  0  0  0  0
 32 35  1  0  0  0  0
 32  2  1  0  0  0  0
 33 32  1  0  0  0  0
 34 32  1  0  0  0  0
M  END
>  <minimizedAffinity>
-6.05307674

$$$$
