
 OpenBabel03272501573D

 32 34  0  0  0  0  0  0  0  0999 V2000
   32.9640   28.1180   47.7610 C   0  0  0  0  0  0  0  0  0  0  0  0
   32.3520   26.9810   48.2650 C   0  0  0  0  0  0  0  0  0  0  0  0
   31.0190   26.9360   47.9060 C   0  0  0  0  0  0  0  0  0  0  0  0
   30.8620   28.0630   47.1850 N   0  0  0  0  0  0  0  0  0  0  0  0
   31.9800   28.7620   47.0900 N   0  0  0  0  0  0  0  0  0  0  0  0
   32.8060   26.1840   48.8740 H   0  0  0  0  0  0  0  0  0  0  0  0
   30.2160   26.2650   48.0750 H   0  0  0  0  0  0  0  0  0  0  0  0
   30.8790   27.4390   44.3110 Cl  0  0  0  0  0  0  0  0  0  0  0  0
   29.6930   28.4020   45.1520 C   0  0  0  0  0  0  0  0  0  0  0  0
   29.7540   28.6520   46.5110 C   0  0  0  0  0  0  0  0  0  0  0  0
   28.7790   29.4290   47.1400 C   0  0  0  0  0  0  0  0  0  0  0  0
   28.9540   29.5400   48.1990 H   0  0  0  0  0  0  0  0  0  0  0  0
   27.7380   29.9600   46.4030 C   0  0  0  0  0  3  0  0  0  0  0  0
   27.6710   29.7140   45.0390 C   0  0  0  0  0  0  0  0  0  0  0  0
   26.3230   30.4130   44.1430 Cl  0  0  0  0  0  0  0  0  0  0  0  0
   28.6430   28.9380   44.4130 C   0  0  0  0  0  0  0  0  0  0  0  0
   28.5610   28.7650   43.3450 H   0  0  0  0  0  0  0  0  0  0  0  0
   34.4160   28.4800   47.9660 C   0  0  0  0  0  0  0  0  0  0  0  0
   35.0620   27.7800   47.3810 H   0  0  0  0  0  0  0  0  0  0  0  0
   34.5830   29.5140   47.6150 H   0  0  0  0  0  0  0  0  0  0  0  0
   34.6890   28.3270   49.4290 C   0  0  0  0  0  0  0  0  0  0  0  0
   34.9140   27.2820   49.7390 H   0  0  0  0  0  0  0  0  0  0  0  0
   33.8250   28.6500   50.0690 H   0  0  0  0  0  0  0  0  0  0  0  0
   37.2200   30.1470   51.4200 C   0  0  0  0  0  0  0  0  0  0  0  0
   38.0630   30.6930   50.4410 C   0  0  0  0  0  0  0  0  0  0  0  0
   37.7400   30.4220   49.0890 C   0  0  0  0  0  0  0  0  0  0  0  0
   36.6560   29.6640   48.8090 N   0  0  0  0  0  0  0  0  0  0  0  0
   35.8800   29.1630   49.8050 C   0  0  0  0  0  0  0  0  0  0  0  0
   36.1670   29.4070   51.0780 N   0  0  0  0  0  0  0  0  0  0  0  0
   37.5130   30.3850   52.4320 H   0  0  0  0  0  0  0  0  0  0  0  0
   38.9310   31.2980   50.5600 H   0  0  0  0  0  0  0  0  0  0  0  0
   38.2690   30.7560   48.2120 H   0  0  0  0  0  0  0  0  0  0  0  0
  1 18  1  0  0  0  0
  1  2  1  0  0  0  0
  2  6  1  0  0  0  0
  3  7  1  0  0  0  0
  3  2  2  0  0  0  0
  4  3  1  0  0  0  0
  5  4  1  0  0  0  0
  5  1  2  0  0  0  0
  8  9  1  0  0  0  0
  9 10  1  0  0  0  0
 10 11  2  0  0  0  0
 10  4  1  0  0  0  0
 11 12  1  0  0  0  0
 13 11  1  0  0  0  0
 14 13  2  0  0  0  0
 15 14  1  0  0  0  0
 16 14  1  0  0  0  0
 16  9  2  0  0  0  0
 17 16  1  0  0  0  0
 18 21  1  0  0  0  0
 19 18  1  0  0  0  0
 20 18  1  0  0  0  0
 21 22  1  0  0  0  0
 21 28  1  0  0  0  0
 21 23  1  0  0  0  0
 24 30  1  0  0  0  0
 25 31  1  0  0  0  0
 25 24  2  0  0  0  0
 26 25  1  0  0  0  0
 27 26  2  0  0  0  0
 27 28  1  0  0  0  0
 28 29  2  0  0  0  0
 29 24  1  0  0  0  0
 32 26  1  0  0  0  0
M  END
>  <minimizedAffinity>
-4.91698217

>  <minimizedRMSD>
1.07786953

$$$$
