
 OpenBabel03262522153D

 46 49  0  0  1  0  0  0  0  0999 V2000
   39.6050   32.8320   44.1390 C   0  0  0  0  0  0  0  0  0  0  0  0
   39.6150   33.5150   43.2500 H   0  0  0  0  0  0  0  0  0  0  0  0
   38.5670   32.5450   44.3350 H   0  0  0  0  0  0  0  0  0  0  0  0
   39.6730   29.5510   42.8010 C   0  0  1  0  0  0  0  0  0  0  0  0
   39.8530   31.0210   42.4470 C   0  0  0  0  0  0  0  0  0  0  0  0
   40.3430   31.5640   43.7700 C   0  0  2  0  0  0  0  0  0  0  0  0
   40.2220   30.5940   44.7160 O   0  0  0  0  0  0  0  0  0  0  0  0
   39.2940   29.6640   44.2690 C   0  0  0  0  0  0  0  0  0  0  0  0
   40.6320   29.0220   42.6700 H   0  0  0  0  0  0  0  0  0  0  0  0
   40.6600   31.1360   41.6870 H   0  0  0  0  0  0  0  0  0  0  0  0
   38.8980   31.4930   42.1640 H   0  0  0  0  0  0  0  0  0  0  0  0
   41.4230   31.8350   43.6920 H   0  0  0  0  0  0  0  0  0  0  0  0
   38.2630   30.0880   44.2740 H   0  0  0  0  0  0  0  0  0  0  0  0
   39.3760   28.7060   44.7950 H   0  0  0  0  0  0  0  0  0  0  0  0
   38.6600   28.9780   42.0580 O   0  0  0  0  0  0  0  0  0  0  0  0
   40.3490   27.1620   40.5210 Cl  0  0  0  0  0  0  0  0  0  0  0  0
   38.8910   26.7260   41.3840 C   0  0  0  0  0  0  0  0  0  0  0  0
   38.1980   27.6990   42.0680 C   0  0  0  0  0  0  0  0  0  0  0  0
   37.0680   27.2730   42.7150 C   0  0  0  0  0  0  0  0  0  0  0  0
   36.4770   27.9790   43.2680 H   0  0  0  0  0  0  0  0  0  0  0  0
   36.6440   25.9780   42.6960 C   0  0  0  0  0  3  0  0  0  0  0  0
   37.3710   25.0360   41.9980 C   0  0  0  0  0  0  0  0  0  0  0  0
   36.8540   23.3640   41.9520 Cl  0  0  0  0  0  0  0  0  0  0  0  0
   38.5140   25.4150   41.3290 C   0  0  0  0  0  0  0  0  0  0  0  0
   39.0930   24.6750   40.7760 H   0  0  0  0  0  0  0  0  0  0  0  0
   40.4600   33.5750   45.5500 S   0  0  0  0  0  0  0  0  0  0  0  0
   37.7300   31.8690   47.8930 C   0  0  0  0  0  0  0  0  0  0  0  0
   37.8840   32.5380   49.1160 C   0  0  0  0  0  0  0  0  0  0  0  0
   38.8230   33.5360   49.2830 C   0  0  0  0  0  0  0  0  0  0  0  0
   39.5950   33.8320   48.1800 C   0  0  0  0  0  0  0  0  0  0  0  0
   39.4310   33.1740   47.0040 C   0  0  0  0  0  0  0  0  0  0  0  0
   38.5130   32.1940   46.8340 N   0  0  0  0  0  0  0  0  0  0  0  0
   37.2670   32.2900   49.9710 H   0  0  0  0  0  0  0  0  0  0  0  0
   38.9310   34.0440   50.2350 H   0  0  0  0  0  0  0  0  0  0  0  0
   40.3530   34.6030   48.2380 H   0  0  0  0  0  0  0  0  0  0  0  0
   36.7330   30.8480   47.8070 C   0  0  0  0  0  0  0  0  0  0  0  0
   36.3540   30.4140   46.7210 O   0  0  0  0  0  0  0  0  0  0  0  0
   36.9400   29.6080   49.9300 C   0  0  0  0  0  0  0  0  0  0  0  0
   36.1040   30.2600   48.9960 C   0  0  0  0  0  0  0  0  0  0  0  0
   34.7260   30.3190   49.2370 C   0  0  0  0  0  0  0  0  0  0  0  0
   34.2450   29.7360   50.3800 N   0  0  0  0  0  0  0  0  0  0  0  0
   35.0620   29.1210   51.2520 C   0  0  0  0  0  0  0  0  0  0  0  0
   36.3720   29.0610   51.0300 N   0  0  0  0  0  0  0  0  0  0  0  0
   38.0010   29.5810   49.7120 H   0  0  0  0  0  0  0  0  0  0  0  0
   34.1070   30.8120   48.5280 H   0  0  0  0  0  0  0  0  0  0  0  0
   34.7140   28.6520   52.1640 H   0  0  0  0  0  0  0  0  0  0  0  0
  1  3  1  0  0  0  0
  1 26  1  0  0  0  0
  2  1  1  0  0  0  0
  4  9  1  6  0  0  0
  4  8  1  0  0  0  0
  5  4  1  0  0  0  0
  5  6  1  0  0  0  0
  6 12  1  6  0  0  0
  6  1  1  0  0  0  0
  6  7  1  0  0  0  0
  8 13  1  0  0  0  0
  8  7  1  0  0  0  0
  8 14  1  0  0  0  0
 10  5  1  0  0  0  0
 11  5  1  0  0  0  0
 15 18  1  0  0  0  0
 15  4  1  0  0  0  0
 16 17  1  0  0  0  0
 17 18  1  0  0  0  0
 18 19  2  0  0  0  0
 19 20  1  0  0  0  0
 21 19  1  0  0  0  0
 22 21  2  0  0  0  0
 23 22  1  0  0  0  0
 24 17  2  0  0  0  0
 24 22  1  0  0  0  0
 25 24  1  0  0  0  0
 26 31  1  0  0  0  0
 27 28  1  0  0  0  0
 28 29  2  0  0  0  0
 28 33  1  0  0  0  0
 29 34  1  0  0  0  0
 30 35  1  0  0  0  0
 30 29  1  0  0  0  0
 31 30  2  0  0  0  0
 32 31  1  0  0  0  0
 32 27  2  0  0  0  0
 36 27  1  0  0  0  0
 36 39  1  0  0  0  0
 37 36  2  0  0  0  0
 38 43  1  0  0  0  0
 39 40  1  0  0  0  0
 39 38  2  0  0  0  0
 40 41  2  0  0  0  0
 41 42  1  0  0  0  0
 42 46  1  0  0  0  0
 43 42  2  0  0  0  0
 44 38  1  0  0  0  0
 45 40  1  0  0  0  0
M  END
>  <minimizedAffinity>
-5.47250462

>  <minimizedRMSD>
1.33049047

$$$$
