
 OpenBabel03272500453D

 26 28  0  0  0  0  0  0  0  0999 V2000
   33.7820   28.7340   47.3660 C   0  0  0  0  0  0  0  0  0  0  0  0
   34.3110   29.1100   46.1320 C   0  0  0  0  0  0  0  0  0  0  0  0
   35.3430   30.0080   46.3360 C   0  0  0  0  0  0  0  0  0  0  0  0
   35.4240   30.1620   47.6910 N   0  0  0  0  0  0  0  0  0  0  0  0
   34.5010   29.4070   48.2690 N   0  0  0  0  0  0  0  0  0  0  0  0
   33.9710   28.7580   45.1530 H   0  0  0  0  0  0  0  0  0  0  0  0
   35.9300   30.4620   45.5470 H   0  0  0  0  0  0  0  0  0  0  0  0
   37.6900   30.7020   45.8540 Cl  0  0  0  0  0  0  0  0  0  0  0  0
   37.4950   31.3460   47.4750 C   0  0  0  0  0  0  0  0  0  0  0  0
   36.3980   31.0320   48.2540 C   0  0  0  0  0  0  0  0  0  0  0  0
   36.2490   31.5500   49.5460 C   0  0  0  0  0  0  0  0  0  0  0  0
   35.3560   31.2670   50.1210 H   0  0  0  0  0  0  0  0  0  0  0  0
   37.2210   32.4040   50.0750 C   0  0  0  0  0  0  0  0  0  0  0  0
   38.3220   32.7050   49.2650 C   0  0  0  0  0  0  0  0  0  0  0  0
   39.5460   33.7830   49.9410 Cl  0  0  0  0  0  0  0  0  0  0  0  0
   38.4610   32.1880   47.9870 C   0  0  0  0  0  0  0  0  0  0  0  0
   39.3390   32.4640   47.4200 H   0  0  0  0  0  0  0  0  0  0  0  0
   31.8870   27.7290   48.6470 C   0  0  0  0  0  0  0  0  0  0  0  0
   32.6900   27.8060   47.5130 C   0  0  0  0  0  0  0  0  0  0  0  0
   32.4070   26.9260   46.4650 C   0  0  0  0  0  0  0  0  0  0  0  0
   31.3670   26.0510   46.6210 N   0  0  0  0  0  0  0  0  0  0  0  0
   30.6200   26.0180   47.7420 C   0  0  0  0  0  0  0  0  0  0  0  0
   30.8750   26.8620   48.7730 N   0  0  0  0  0  0  0  0  0  0  0  0
   32.0940   28.4150   49.4830 H   0  0  0  0  0  0  0  0  0  0  0  0
   32.9740   26.9080   45.5440 H   0  0  0  0  0  0  0  0  0  0  0  0
   29.8350   25.2730   47.7160 H   0  0  0  0  0  0  0  0  0  0  0  0
  1 19  1  0  0  0  0
  1  5  2  0  0  0  0
  2  3  2  0  0  0  0
  2  1  1  0  0  0  0
  3  4  1  0  0  0  0
  4 10  1  0  0  0  0
  4  5  1  0  0  0  0
  6  2  1  0  0  0  0
  7  3  1  0  0  0  0
  8  9  1  0  0  0  0
  9 16  2  0  0  0  0
  9 10  1  0  0  0  0
 10 11  2  0  0  0  0
 11 13  1  0  0  0  0
 11 12  1  0  0  0  0
 14 15  1  0  0  0  0
 14 13  2  0  0  0  0
 16 14  1  0  0  0  0
 17 16  1  0  0  0  0
 18 23  1  0  0  0  0
 18 24  1  0  0  0  0
 19 18  2  0  0  0  0
 20 21  2  0  0  0  0
 20 19  1  0  0  0  0
 21 22  1  0  0  0  0
 22 23  2  0  0  0  0
 25 20  1  0  0  0  0
 26 22  1  0  0  0  0
M  END
>  <minimizedAffinity>
-5.0463438

>  <minimizedRMSD>
5.74204206

$$$$
