
 OpenBabel03272510303D

 29 31  0  0  0  0  0  0  0  0999 V2000
   37.2160   31.3460   49.3070 C   0  0  0  0  0  0  0  0  0  0  0  0
   37.4170   32.6220   49.8360 C   0  0  0  0  0  0  0  0  0  0  0  0
   38.3190   33.4130   49.1610 C   0  0  0  0  0  0  0  0  0  0  0  0
   38.9560   32.9280   48.0430 N   0  0  0  0  0  0  0  0  0  0  0  0
   38.7250   31.6730   47.5680 C   0  0  0  0  0  0  0  0  0  0  0  0
   37.8330   30.8620   48.2150 N   0  0  0  0  0  0  0  0  0  0  0  0
   36.8780   32.9360   50.7210 H   0  0  0  0  0  0  0  0  0  0  0  0
   38.5240   34.4160   49.5170 H   0  0  0  0  0  0  0  0  0  0  0  0
   36.2090   30.4600   49.9990 C   0  0  0  0  0  0  0  0  0  0  0  0
   36.1890   29.0280   49.8520 C   0  0  0  0  0  0  0  0  0  0  0  0
   36.8370   29.5950   51.1020 C   0  0  0  0  0  0  0  0  0  0  0  0
   35.2740   31.0030   50.3020 H   0  0  0  0  0  0  0  0  0  0  0  0
   35.2430   28.4800   49.9400 H   0  0  0  0  0  0  0  0  0  0  0  0
   36.8880   28.5940   49.0830 H   0  0  0  0  0  0  0  0  0  0  0  0
   36.2290   29.5380   52.0120 H   0  0  0  0  0  0  0  0  0  0  0  0
   37.9320   29.5810   51.2160 H   0  0  0  0  0  0  0  0  0  0  0  0
   39.3820   31.1500   46.3720 C   0  0  0  0  0  0  0  0  0  0  0  0
   39.5030   30.0310   46.4610 H   0  0  0  0  0  0  0  0  0  0  0  0
   40.3820   31.5870   46.2110 H   0  0  0  0  0  0  0  0  0  0  0  0
   40.0670   33.6590   44.7610 Cl  0  0  0  0  0  0  0  0  0  0  0  0
   38.8240   32.4780   44.4050 C   0  0  0  0  0  0  0  0  0  0  0  0
   38.5310   31.3510   45.1460 C   0  0  0  0  0  0  0  0  0  0  0  0
   37.5160   30.5200   44.7260 C   0  0  0  0  0  0  0  0  0  0  0  0
   37.3290   29.6480   45.3470 H   0  0  0  0  0  0  0  0  0  0  0  0
   36.7990   30.7890   43.5940 C   0  0  0  0  0  3  0  0  0  0  0  0
   37.0850   31.9260   42.8350 C   0  0  0  0  0  0  0  0  0  0  0  0
   36.1390   32.2280   41.3960 Cl  0  0  0  0  0  0  0  0  0  0  0  0
   38.1030   32.7730   43.2450 C   0  0  0  0  0  0  0  0  0  0  0  0
   38.2680   33.6300   42.6100 H   0  0  0  0  0  0  0  0  0  0  0  0
  1  2  1  0  0  0  0
  1  9  1  0  0  0  0
  2  7  1  0  0  0  0
  3  8  1  0  0  0  0
  3  2  2  0  0  0  0
  4  3  1  0  0  0  0
  5  4  2  0  0  0  0
  5  6  1  0  0  0  0
  6  1  2  0  0  0  0
  9 12  1  0  0  0  0
  9 11  1  0  0  0  0
 10 13  1  0  0  0  0
 10  9  1  0  0  0  0
 10 11  1  0  0  0  0
 11 16  1  0  0  0  0
 11 15  1  0  0  0  0
 14 10  1  0  0  0  0
 17 18  1  0  0  0  0
 17  5  1  0  0  0  0
 19 17  1  0  0  0  0
 21 20  1  0  0  0  0
 21 22  1  0  0  0  0
 22 17  1  0  0  0  0
 23 22  2  0  0  0  0
 23 24  1  0  0  0  0
 25 23  1  0  0  0  0
 26 28  1  0  0  0  0
 26 25  2  0  0  0  0
 27 26  1  0  0  0  0
 28 21  2  0  0  0  0
 29 28  1  0  0  0  0
M  END
>  <minimizedAffinity>
-5.73243046

>  <minimizedRMSD>
0.924836755

$$$$
