
 OpenBabel03272503333D

 42 45  0  0  1  0  0  0  0  0999 V2000
   35.8370   29.7850   47.6110 C   0  0  0  0  0  0  0  0  0  0  0  0
   35.9020   30.4470   46.3850 C   0  0  0  0  0  0  0  0  0  0  0  0
   35.1020   29.9600   45.3450 C   0  0  0  0  0  0  0  0  0  0  0  0
   34.3120   28.8620   45.6130 N   0  0  0  0  0  0  0  0  0  0  0  0
   34.2830   28.2600   46.8020 C   0  0  0  0  0  0  0  0  0  0  0  0
   35.0470   28.7240   47.7990 N   0  0  0  0  0  0  0  0  0  0  0  0
   36.5210   31.3080   46.1730 H   0  0  0  0  0  0  0  0  0  0  0  0
   35.0820   30.3990   44.3710 H   0  0  0  0  0  0  0  0  0  0  0  0
   36.6610   30.2920   48.6690 N   0  0  0  0  0  0  0  0  0  0  0  0
   38.0210   30.7290   48.5750 C   0  0  0  0  0  0  0  0  0  0  0  0
   38.1160   31.7480   49.7020 C   0  0  2  0  0  0  0  0  0  0  0  0
   36.7030   31.8980   50.2630 C   0  0  0  0  0  0  0  0  0  0  0  0
   36.2570   30.4580   50.0630 C   0  0  0  0  0  0  0  0  0  0  0  0
   38.2470   31.2310   47.5950 H   0  0  0  0  0  0  0  0  0  0  0  0
   38.7530   29.9120   48.7800 H   0  0  0  0  0  0  0  0  0  0  0  0
   38.7300   31.3540   50.5480 H   0  0  0  0  0  0  0  0  0  0  0  0
   36.1280   32.5640   49.6160 H   0  0  0  0  0  0  0  0  0  0  0  0
   36.7080   32.1950   51.3170 H   0  0  0  0  0  0  0  0  0  0  0  0
   35.1600   30.3990   50.1520 H   0  0  0  0  0  0  0  0  0  0  0  0
   36.8120   29.8010   50.7380 H   0  0  0  0  0  0  0  0  0  0  0  0
   38.6650   33.0650   49.2290 C   0  0  0  0  0  0  0  0  0  0  0  0
   37.5820   33.9020   49.0350 F   0  0  0  0  0  0  0  0  0  0  0  0
   39.2190   32.8500   47.9950 F   0  0  0  0  0  0  0  0  0  0  0  0
   39.5830   33.6090   50.0870 F   0  0  0  0  0  0  0  0  0  0  0  0
   33.2390   26.8450   47.0880 S   0  0  0  0  0  0  0  0  0  0  0  0
   31.7590   27.0980   47.8580 C   0  0  0  0  0  0  0  0  0  0  0  0
   30.9980   26.6040   48.8760 C   0  0  0  0  0  0  0  0  0  0  0  0
   29.7840   27.0720   49.2460 C   0  0  0  0  0  0  0  0  0  0  0  0
   29.3250   28.2120   48.4190 C   0  0  0  0  0  0  0  0  0  0  0  0
   30.6680   28.4800   47.2250 S   0  0  0  0  0  0  0  0  0  0  0  0
   31.4970   25.7790   49.3600 H   0  0  0  0  0  0  0  0  0  0  0  0
   29.1890   26.6810   50.0460 H   0  0  0  0  0  0  0  0  0  0  0  0
   27.2570   27.2930   46.4970 Cl  0  0  0  0  0  0  0  0  0  0  0  0
   27.1000   28.5740   47.6770 C   0  0  0  0  0  0  0  0  0  0  0  0
   28.1200   28.9290   48.5300 C   0  0  0  0  0  0  0  0  0  0  0  0
   28.0580   29.9250   49.4770 C   0  0  0  0  0  0  0  0  0  0  0  0
   28.8860   30.1630   50.1190 H   0  0  0  0  0  0  0  0  0  0  0  0
   26.8510   30.6310   49.5770 C   0  0  0  0  0  3  0  0  0  0  0  0
   25.7810   30.3110   48.7340 C   0  0  0  0  0  0  0  0  0  0  0  0
   24.2590   31.1730   48.8310 Cl  0  0  0  0  0  0  0  0  0  0  0  0
   25.8970   29.2870   47.7860 C   0  0  0  0  0  0  0  0  0  0  0  0
   25.0600   29.0520   47.1420 H   0  0  0  0  0  0  0  0  0  0  0  0
  1  6  1  0  0  0  0
  1  9  1  0  0  0  0
  2  1  2  0  0  0  0
  3  4  2  0  0  0  0
  3  2  1  0  0  0  0
  4  5  1  0  0  0  0
  5 25  1  0  0  0  0
  5  6  2  0  0  0  0
  7  2  1  0  0  0  0
  8  3  1  0  0  0  0
  9 13  1  0  0  0  0
 10  9  1  0  0  0  0
 10 15  1  0  0  0  0
 10 11  1  0  0  0  0
 11 12  1  0  0  0  0
 11 16  1  1  0  0  0
 12 18  1  0  0  0  0
 13 19  1  0  0  0  0
 13 12  1  0  0  0  0
 13 20  1  0  0  0  0
 14 10  1  0  0  0  0
 17 12  1  0  0  0  0
 21 11  1  0  0  0  0
 21 24  1  0  0  0  0
 22 21  1  0  0  0  0
 23 21  1  0  0  0  0
 25 26  1  0  0  0  0
 26 27  2  0  0  0  0
 27 28  1  0  0  0  0
 27 31  1  0  0  0  0
 28 32  1  0  0  0  0
 29 35  1  0  0  0  0
 29 28  2  0  0  0  0
 30 26  1  0  0  0  0
 30 29  1  0  0  0  0
 33 34  1  0  0  0  0
 34 41  2  0  0  0  0
 34 35  1  0  0  0  0
 35 36  2  0  0  0  0
 36 38  1  0  0  0  0
 36 37  1  0  0  0  0
 39 40  1  0  0  0  0
 39 38  2  0  0  0  0
 41 39  1  0  0  0  0
 42 41  1  0  0  0  0
M  END
>  <minimizedAffinity>
-6.62763786

>  <minimizedRMSD>
1.66893435

$$$$
