
 OpenBabel03272501303D

 21 22  0  0  0  0  0  0  0  0999 V2000
   37.9890   31.5610   47.4890 C   0  0  0  0  0  0  0  0  0  0  0  0
   38.4280   32.7310   47.5150 O   0  0  0  0  0  0  0  0  0  0  0  0
   40.5550   30.9900   46.0180 Cl  0  0  0  0  0  0  0  0  0  0  0  0
   38.9370   30.6220   45.4320 C   0  0  0  0  0  0  0  0  0  0  0  0
   37.8220   30.9250   46.1870 C   0  0  0  0  0  0  0  0  0  0  0  0
   36.6110   30.5870   45.6170 C   0  0  0  0  0  0  0  0  0  0  0  0
   35.7170   30.8100   46.1780 H   0  0  0  0  0  0  0  0  0  0  0  0
   36.5160   29.9870   44.3800 C   0  0  0  0  0  3  0  0  0  0  0  0
   37.6510   29.6970   43.6510 C   0  0  0  0  0  0  0  0  0  0  0  0
   37.4530   28.9340   42.0870 Cl  0  0  0  0  0  0  0  0  0  0  0  0
   38.8860   30.0160   44.1780 C   0  0  0  0  0  0  0  0  0  0  0  0
   39.7770   29.7900   43.6080 H   0  0  0  0  0  0  0  0  0  0  0  0
   37.7960   30.4190   51.0480 C   0  0  0  0  0  0  0  0  0  0  0  0
   38.1680   31.1680   49.9290 C   0  0  0  0  0  0  0  0  0  0  0  0
   37.6470   30.8280   48.6870 C   0  0  0  0  0  0  0  0  0  0  0  0
   36.7990   29.7760   48.6300 N   0  0  0  0  0  0  0  0  0  0  0  0
   36.4570   29.0680   49.7340 C   0  0  0  0  0  0  0  0  0  0  0  0
   36.9490   29.3820   50.9340 N   0  0  0  0  0  0  0  0  0  0  0  0
   38.2620   30.7730   51.9630 H   0  0  0  0  0  0  0  0  0  0  0  0
   38.8510   32.0130   49.9860 H   0  0  0  0  0  0  0  0  0  0  0  0
   35.7620   28.2180   49.6400 H   0  0  0  0  0  0  0  0  0  0  0  0
  1  2  2  0  0  0  0
  1 15  1  0  0  0  0
  4  3  1  0  0  0  0
  4  5  1  0  0  0  0
  5  1  1  0  0  0  0
  6  7  1  0  0  0  0
  6  5  2  0  0  0  0
  8  6  1  0  0  0  0
  9 11  1  0  0  0  0
  9  8  2  0  0  0  0
 10  9  1  0  0  0  0
 11  4  2  0  0  0  0
 12 11  1  0  0  0  0
 13 19  1  0  0  0  0
 14 20  1  0  0  0  0
 14 13  2  0  0  0  0
 15 14  1  0  0  0  0
 16 15  2  0  0  0  0
 16 17  1  0  0  0  0
 17 18  2  0  0  0  0
 18 13  1  0  0  0  0
 21 17  1  0  0  0  0
M  END
>  <minimizedAffinity>
-4.81399822

>  <minimizedRMSD>
0.747510374

$$$$
