
 OpenBabel03272508023D

 29 31  0  0  0  0  0  0  0  0999 V2000
   39.0510   31.0360   42.6470 C   0  0  0  0  0  0  0  0  0  0  0  0
   38.1600   32.0720   42.5560 C   0  0  0  0  0  0  0  0  0  0  0  0
   37.6530   32.3660   43.8220 C   0  0  0  0  0  0  0  0  0  0  0  0
   38.2790   31.4640   44.6480 N   0  0  0  0  0  0  0  0  0  0  0  0
   39.0830   30.7030   43.9530 N   0  0  0  0  0  0  0  0  0  0  0  0
   37.9310   32.5470   41.6110 H   0  0  0  0  0  0  0  0  0  0  0  0
   36.9300   33.1550   43.9760 H   0  0  0  0  0  0  0  0  0  0  0  0
   40.0650   33.2390   46.2760 Cl  0  0  0  0  0  0  0  0  0  0  0  0
   38.7390   32.2790   46.8820 C   0  0  0  0  0  0  0  0  0  0  0  0
   37.9780   31.4950   46.0380 C   0  0  0  0  0  0  0  0  0  0  0  0
   36.9410   30.7540   46.5700 C   0  0  0  0  0  0  0  0  0  0  0  0
   36.3920   30.1650   45.8510 H   0  0  0  0  0  0  0  0  0  0  0  0
   36.6000   30.7450   47.9220 C   0  0  0  0  0  3  0  0  0  0  0  0
   37.3620   31.5260   48.7450 C   0  0  0  0  0  0  0  0  0  0  0  0
   36.9730   31.5470   50.4450 Cl  0  0  0  0  0  0  0  0  0  0  0  0
   38.4050   32.2760   48.2370 C   0  0  0  0  0  0  0  0  0  0  0  0
   38.9550   32.8640   48.9430 H   0  0  0  0  0  0  0  0  0  0  0  0
   39.8120   30.4130   41.5620 C   0  0  0  0  0  0  0  0  0  0  0  0
   39.6350   29.0210   41.3430 C   0  0  0  0  0  0  0  0  0  0  0  0
   40.3510   28.4120   40.3160 C   0  0  0  0  0  0  0  0  0  0  0  0
   41.1780   29.1920   39.5850 N   0  0  0  0  0  0  0  0  0  0  0  0
   41.3370   30.5170   39.8040 C   0  0  0  0  0  0  0  0  0  0  0  0
   40.6440   31.1030   40.7970 N   0  0  0  0  0  0  0  0  0  0  0  0
   38.9440   28.4890   41.9910 H   0  0  0  0  0  0  0  0  0  0  0  0
   42.0190   31.0670   39.1720 H   0  0  0  0  0  0  0  0  0  0  0  0
   40.1700   26.9530   40.0820 C   0  0  0  0  0  0  0  0  0  0  0  0
   39.0450   26.8390   39.2780 F   0  0  0  0  0  0  0  0  0  0  0  0
   41.2470   26.3930   39.4170 F   0  0  0  0  0  0  0  0  0  0  0  0
   39.9200   26.2580   41.2560 F   0  0  0  0  0  0  0  0  0  0  0  0
  1  5  2  0  0  0  0
  2  1  1  0  0  0  0
  2  3  2  0  0  0  0
  3  7  1  0  0  0  0
  3  4  1  0  0  0  0
  4 10  1  0  0  0  0
  5  4  1  0  0  0  0
  6  2  1  0  0  0  0
  8  9  1  0  0  0  0
  9 16  1  0  0  0  0
 10 11  1  0  0  0  0
 10  9  2  0  0  0  0
 11 13  2  0  0  0  0
 12 11  1  0  0  0  0
 13 14  1  0  0  0  0
 14 15  1  0  0  0  0
 16 14  2  0  0  0  0
 16 17  1  0  0  0  0
 18  1  1  0  0  0  0
 19 18  1  0  0  0  0
 19 24  1  0  0  0  0
 20 19  2  0  0  0  0
 21 22  2  0  0  0  0
 21 20  1  0  0  0  0
 22 23  1  0  0  0  0
 23 18  2  0  0  0  0
 25 22  1  0  0  0  0
 26 20  1  0  0  0  0
 26 29  1  0  0  0  0
 27 26  1  0  0  0  0
 28 26  1  0  0  0  0
M  END
>  <minimizedAffinity>
-5.23797464

>  <minimizedRMSD>
8.31330013

$$$$
