
 OpenBabel03272503353D

 42 45  0  0  1  0  0  0  0  0999 V2000
   38.2800   23.8240   33.3470 C   0  0  0  0  0  0  0  0  0  0  0  0
   37.4270   22.8270   32.8730 C   0  0  0  0  0  0  0  0  0  0  0  0
   36.7250   23.0870   31.6900 C   0  0  0  0  0  0  0  0  0  0  0  0
   36.9320   24.3090   31.0850 N   0  0  0  0  0  0  0  0  0  0  0  0
   37.7590   25.2330   31.5750 C   0  0  0  0  0  0  0  0  0  0  0  0
   38.4320   24.9870   32.7060 N   0  0  0  0  0  0  0  0  0  0  0  0
   37.2630   21.8700   33.3470 H   0  0  0  0  0  0  0  0  0  0  0  0
   36.0480   22.3880   31.2480 H   0  0  0  0  0  0  0  0  0  0  0  0
   38.9940   23.5470   34.5600 N   0  0  0  0  0  0  0  0  0  0  0  0
   39.1690   24.4210   35.6800 C   0  0  0  0  0  0  0  0  0  0  0  0
   39.3330   23.4420   36.8350 C   0  0  2  0  0  0  0  0  0  0  0  0
   39.0860   22.0510   36.2550 C   0  0  0  0  0  0  0  0  0  0  0  0
   39.6850   22.3010   34.8800 C   0  0  0  0  0  0  0  0  0  0  0  0
   38.2730   25.0730   35.8640 H   0  0  0  0  0  0  0  0  0  0  0  0
   40.0980   25.0350   35.6080 H   0  0  0  0  0  0  0  0  0  0  0  0
   40.3880   23.4280   37.2020 H   0  0  0  0  0  0  0  0  0  0  0  0
   38.0110   21.8810   36.1720 H   0  0  0  0  0  0  0  0  0  0  0  0
   39.6200   21.2730   36.8120 H   0  0  0  0  0  0  0  0  0  0  0  0
   39.3680   21.5010   34.1920 H   0  0  0  0  0  0  0  0  0  0  0  0
   40.7670   22.4360   34.9660 H   0  0  0  0  0  0  0  0  0  0  0  0
   38.3920   23.7430   37.9680 C   0  0  0  0  0  0  0  0  0  0  0  0
   38.0380   25.0730   37.8500 F   0  0  0  0  0  0  0  0  0  0  0  0
   39.1120   23.6320   39.1290 F   0  0  0  0  0  0  0  0  0  0  0  0
   37.2960   22.9220   37.9940 F   0  0  0  0  0  0  0  0  0  0  0  0
   37.9860   26.7930   30.7460 S   0  0  0  0  0  0  0  0  0  0  0  0
   37.1790   28.1400   31.3650 C   0  0  0  0  0  0  0  0  0  0  0  0
   36.8070   29.4040   31.0140 C   0  0  0  0  0  0  0  0  0  0  0  0
   36.1300   30.2700   31.8030 C   0  0  0  0  0  0  0  0  0  0  0  0
   35.8120   29.7120   33.1380 C   0  0  0  0  0  0  0  0  0  0  0  0
   36.5090   28.0340   33.1090 S   0  0  0  0  0  0  0  0  0  0  0  0
   37.1250   29.6300   30.0090 H   0  0  0  0  0  0  0  0  0  0  0  0
   35.8390   31.2620   31.5230 H   0  0  0  0  0  0  0  0  0  0  0  0
   32.8750   29.2880   33.0120 Cl  0  0  0  0  0  0  0  0  0  0  0  0
   33.7550   30.1960   34.2200 C   0  0  0  0  0  0  0  0  0  0  0  0
   35.1250   30.3370   34.1930 C   0  0  0  0  0  0  0  0  0  0  0  0
   35.8720   31.0370   35.1120 C   0  0  0  0  0  0  0  0  0  0  0  0
   36.9420   31.1150   35.0440 H   0  0  0  0  0  0  0  0  0  0  0  0
   35.1760   31.6540   36.1590 C   0  0  0  0  0  3  0  0  0  0  0  0
   33.7820   31.5430   36.2340 C   0  0  0  0  0  0  0  0  0  0  0  0
   32.8790   32.3020   37.5290 Cl  0  0  0  0  0  0  0  0  0  0  0  0
   33.0680   30.8180   35.2720 C   0  0  0  0  0  0  0  0  0  0  0  0
   31.9930   30.7420   35.3460 H   0  0  0  0  0  0  0  0  0  0  0  0
  1  9  1  0  0  0  0
  2  1  1  0  0  0  0
  2  7  1  0  0  0  0
  3  2  2  0  0  0  0
  4  5  2  0  0  0  0
  4  3  1  0  0  0  0
  5  6  1  0  0  0  0
  6  1  2  0  0  0  0
  8  3  1  0  0  0  0
  9 13  1  0  0  0  0
  9 10  1  0  0  0  0
 10 14  1  0  0  0  0
 10 11  1  0  0  0  0
 11 16  1  1  0  0  0
 11 21  1  0  0  0  0
 12 18  1  0  0  0  0
 12 11  1  0  0  0  0
 13 20  1  0  0  0  0
 13 12  1  0  0  0  0
 15 10  1  0  0  0  0
 17 12  1  0  0  0  0
 19 13  1  0  0  0  0
 21 24  1  0  0  0  0
 21 23  1  0  0  0  0
 22 21  1  0  0  0  0
 25 26  1  0  0  0  0
 25  5  1  0  0  0  0
 26 30  1  0  0  0  0
 27 26  2  0  0  0  0
 27 28  1  0  0  0  0
 28 29  2  0  0  0  0
 29 35  1  0  0  0  0
 30 29  1  0  0  0  0
 31 27  1  0  0  0  0
 32 28  1  0  0  0  0
 33 34  1  0  0  0  0
 34 41  1  0  0  0  0
 35 34  2  0  0  0  0
 35 36  1  0  0  0  0
 36 38  2  0  0  0  0
 37 36  1  0  0  0  0
 38 39  1  0  0  0  0
 39 40  1  0  0  0  0
 41 42  1  0  0  0  0
 41 39  2  0  0  0  0
M  END
>  <minimizedAffinity>
-6.54174328

$$$$

 OpenBabel03272503353D

 42 45  0  0  1  0  0  0  0  0999 V2000
   34.2830   30.6610   34.3180 C   0  0  0  0  0  0  0  0  0  0  0  0
   33.7180   31.4360   33.3050 C   0  0  0  0  0  0  0  0  0  0  0  0
   33.9760   31.0570   31.9830 C   0  0  0  0  0  0  0  0  0  0  0  0
   34.7680   29.9460   31.7840 N   0  0  0  0  0  0  0  0  0  0  0  0
   35.2880   29.2350   32.7850 C   0  0  0  0  0  0  0  0  0  0  0  0
   35.0430   29.5950   34.0500 N   0  0  0  0  0  0  0  0  0  0  0  0
   33.0980   32.3080   33.4590 H   0  0  0  0  0  0  0  0  0  0  0  0
   33.5890   31.5860   31.1390 H   0  0  0  0  0  0  0  0  0  0  0  0
   34.0130   31.0590   35.6690 N   0  0  0  0  0  0  0  0  0  0  0  0
   34.8610   31.8230   36.5330 C   0  0  0  0  0  0  0  0  0  0  0  0
   33.8600   32.5030   37.4560 C   0  0  2  0  0  0  0  0  0  0  0  0
   32.4740   32.1530   36.9170 C   0  0  0  0  0  0  0  0  0  0  0  0
   32.8010   30.7520   36.4250 C   0  0  0  0  0  0  0  0  0  0  0  0
   35.4520   32.6020   35.9800 H   0  0  0  0  0  0  0  0  0  0  0  0
   35.5320   31.1840   37.1560 H   0  0  0  0  0  0  0  0  0  0  0  0
   33.8970   32.0630   38.4830 H   0  0  0  0  0  0  0  0  0  0  0  0
   32.2420   32.8040   36.0720 H   0  0  0  0  0  0  0  0  0  0  0  0
   31.7130   32.1560   37.7050 H   0  0  0  0  0  0  0  0  0  0  0  0
   32.0050   30.4060   35.7470 H   0  0  0  0  0  0  0  0  0  0  0  0
   32.9990   30.0970   37.2790 H   0  0  0  0  0  0  0  0  0  0  0  0
   34.0680   33.9910   37.5190 C   0  0  0  0  0  0  0  0  0  0  0  0
   33.0280   34.5690   36.8170 F   0  0  0  0  0  0  0  0  0  0  0  0
   35.2130   34.2660   36.8190 F   0  0  0  0  0  0  0  0  0  0  0  0
   34.1510   34.4730   38.7980 F   0  0  0  0  0  0  0  0  0  0  0  0
   36.3040   27.8070   32.4640 S   0  0  0  0  0  0  0  0  0  0  0  0
   37.2540   27.2150   33.7260 C   0  0  0  0  0  0  0  0  0  0  0  0
   37.7430   27.5830   34.9450 C   0  0  0  0  0  0  0  0  0  0  0  0
   38.5250   26.8170   35.7410 C   0  0  0  0  0  0  0  0  0  0  0  0
   38.8220   25.4890   35.1560 C   0  0  0  0  0  0  0  0  0  0  0  0
   37.9590   25.4900   33.5570 S   0  0  0  0  0  0  0  0  0  0  0  0
   37.4200   28.5800   35.2010 H   0  0  0  0  0  0  0  0  0  0  0  0
   38.9060   27.1100   36.6970 H   0  0  0  0  0  0  0  0  0  0  0  0
   37.3640   23.9360   37.2250 Cl  0  0  0  0  0  0  0  0  0  0  0  0
   39.0060   23.6780   36.6810 C   0  0  0  0  0  0  0  0  0  0  0  0
   39.5990   24.4560   35.7100 C   0  0  0  0  0  0  0  0  0  0  0  0
   40.8830   24.3040   35.2410 C   0  0  0  0  0  0  0  0  0  0  0  0
   41.2970   24.9400   34.4810 H   0  0  0  0  0  0  0  0  0  0  0  0
   41.6450   23.2710   35.8020 C   0  0  0  0  0  3  0  0  0  0  0  0
   41.0930   22.4510   36.7920 C   0  0  0  0  0  0  0  0  0  0  0  0
   42.0170   21.1500   37.5150 Cl  0  0  0  0  0  0  0  0  0  0  0  0
   39.7780   22.6480   37.2340 C   0  0  0  0  0  0  0  0  0  0  0  0
   39.3670   22.0050   38.0000 H   0  0  0  0  0  0  0  0  0  0  0  0
  1  9  1  0  0  0  0
  2  7  1  0  0  0  0
  2  1  2  0  0  0  0
  3  2  1  0  0  0  0
  4  3  2  0  0  0  0
  4  5  1  0  0  0  0
  5  6  2  0  0  0  0
  6  1  1  0  0  0  0
  8  3  1  0  0  0  0
  9 13  1  0  0  0  0
  9 10  1  0  0  0  0
 10 15  1  0  0  0  0
 10 11  1  0  0  0  0
 11 21  1  0  0  0  0
 11 16  1  1  0  0  0
 12 11  1  0  0  0  0
 12 18  1  0  0  0  0
 13 12  1  0  0  0  0
 13 20  1  0  0  0  0
 14 10  1  0  0  0  0
 17 12  1  0  0  0  0
 19 13  1  0  0  0  0
 21 24  1  0  0  0  0
 22 21  1  0  0  0  0
 23 21  1  0  0  0  0
 25  5  1  0  0  0  0
 25 26  1  0  0  0  0
 26 27  2  0  0  0  0
 27 31  1  0  0  0  0
 27 28  1  0  0  0  0
 28 32  1  0  0  0  0
 29 35  1  0  0  0  0
 29 28  2  0  0  0  0
 30 26  1  0  0  0  0
 30 29  1  0  0  0  0
 34 33  1  0  0  0  0
 34 41  1  0  0  0  0
 35 34  2  0  0  0  0
 36 35  1  0  0  0  0
 36 38  2  0  0  0  0
 37 36  1  0  0  0  0
 38 39  1  0  0  0  0
 39 41  2  0  0  0  0
 39 40  1  0  0  0  0
 41 42  1  0  0  0  0
M  END
>  <minimizedAffinity>
-6.52799702

$$$$

 OpenBabel03272503353D

 42 45  0  0  1  0  0  0  0  0999 V2000
   39.1420   24.7600   34.0480 C   0  0  0  0  0  0  0  0  0  0  0  0
   40.4050   25.2550   33.7270 C   0  0  0  0  0  0  0  0  0  0  0  0
   40.4780   26.2570   32.7520 C   0  0  0  0  0  0  0  0  0  0  0  0
   39.2940   26.6770   32.1840 N   0  0  0  0  0  0  0  0  0  0  0  0
   38.1060   26.1730   32.5230 C   0  0  0  0  0  0  0  0  0  0  0  0
   38.0340   25.2150   33.4550 N   0  0  0  0  0  0  0  0  0  0  0  0
   41.3350   24.9260   34.1710 H   0  0  0  0  0  0  0  0  0  0  0  0
   41.3980   26.6990   32.4380 H   0  0  0  0  0  0  0  0  0  0  0  0
   39.0790   23.7330   35.0470 N   0  0  0  0  0  0  0  0  0  0  0  0
   39.7020   23.7400   36.3360 C   0  0  0  0  0  0  0  0  0  0  0  0
   38.7760   22.8490   37.1520 C   0  0  2  0  0  0  0  0  0  0  0  0
   37.5910   22.5200   36.2460 C   0  0  0  0  0  0  0  0  0  0  0  0
   38.3550   22.4700   34.9320 C   0  0  0  0  0  0  0  0  0  0  0  0
   39.7360   24.7650   36.7940 H   0  0  0  0  0  0  0  0  0  0  0  0
   40.7170   23.2750   36.3280 H   0  0  0  0  0  0  0  0  0  0  0  0
   39.2590   21.8670   37.3760 H   0  0  0  0  0  0  0  0  0  0  0  0
   36.8950   23.3610   36.2440 H   0  0  0  0  0  0  0  0  0  0  0  0
   37.1310   21.5600   36.5030 H   0  0  0  0  0  0  0  0  0  0  0  0
   37.6430   22.5130   34.0920 H   0  0  0  0  0  0  0  0  0  0  0  0
   39.0250   21.6060   34.9260 H   0  0  0  0  0  0  0  0  0  0  0  0
   38.3290   23.5120   38.4250 C   0  0  0  0  0  0  0  0  0  0  0  0
   37.2590   22.7800   38.9020 F   0  0  0  0  0  0  0  0  0  0  0  0
   37.8390   24.7460   38.0850 F   0  0  0  0  0  0  0  0  0  0  0  0
   39.3270   23.6250   39.3560 F   0  0  0  0  0  0  0  0  0  0  0  0
   36.6090   26.7580   31.7540 S   0  0  0  0  0  0  0  0  0  0  0  0
   36.0120   28.2620   32.2310 C   0  0  0  0  0  0  0  0  0  0  0  0
   35.4510   29.3910   31.7130 C   0  0  0  0  0  0  0  0  0  0  0  0
   35.0710   30.4770   32.4250 C   0  0  0  0  0  0  0  0  0  0  0  0
   35.3250   30.3360   33.8770 C   0  0  0  0  0  0  0  0  0  0  0  0
   36.0680   28.6870   34.0530 S   0  0  0  0  0  0  0  0  0  0  0  0
   35.3460   29.3070   30.6420 H   0  0  0  0  0  0  0  0  0  0  0  0
   34.6300   31.3610   32.0130 H   0  0  0  0  0  0  0  0  0  0  0  0
   32.8220   29.7290   35.3560 Cl  0  0  0  0  0  0  0  0  0  0  0  0
   33.9110   31.0680   35.6380 C   0  0  0  0  0  0  0  0  0  0  0  0
   35.0530   31.2670   34.8950 C   0  0  0  0  0  0  0  0  0  0  0  0
   35.9470   32.2980   35.0680 C   0  0  0  0  0  0  0  0  0  0  0  0
   36.8250   32.4070   34.4590 H   0  0  0  0  0  0  0  0  0  0  0  0
   35.6650   33.2190   36.0860 C   0  0  0  0  0  3  0  0  0  0  0  0
   34.5170   33.0650   36.8710 C   0  0  0  0  0  0  0  0  0  0  0  0
   34.1330   34.1960   38.1520 Cl  0  0  0  0  0  0  0  0  0  0  0  0
   33.6390   31.9950   36.6540 C   0  0  0  0  0  0  0  0  0  0  0  0
   32.7570   31.8910   37.2700 H   0  0  0  0  0  0  0  0  0  0  0  0
  1  9  1  0  0  0  0
  2  1  1  0  0  0  0
  2  7  1  0  0  0  0
  3  2  2  0  0  0  0
  4  5  2  0  0  0  0
  4  3  1  0  0  0  0
  5  6  1  0  0  0  0
  6  1  2  0  0  0  0
  8  3  1  0  0  0  0
  9 10  1  0  0  0  0
 10 14  1  0  0  0  0
 10 11  1  0  0  0  0
 11 16  1  1  0  0  0
 11 21  1  0  0  0  0
 12 18  1  0  0  0  0
 12 11  1  0  0  0  0
 13  9  1  0  0  0  0
 13 12  1  0  0  0  0
 15 10  1  0  0  0  0
 17 12  1  0  0  0  0
 19 13  1  0  0  0  0
 20 13  1  0  0  0  0
 21 22  1  0  0  0  0
 21 24  1  0  0  0  0
 23 21  1  0  0  0  0
 25 26  1  0  0  0  0
 25  5  1  0  0  0  0
 26 30  1  0  0  0  0
 27 26  2  0  0  0  0
 27 28  1  0  0  0  0
 28 29  2  0  0  0  0
 29 30  1  0  0  0  0
 29 35  1  0  0  0  0
 31 27  1  0  0  0  0
 32 28  1  0  0  0  0
 33 34  1  0  0  0  0
 34 41  1  0  0  0  0
 35 36  1  0  0  0  0
 35 34  2  0  0  0  0
 36 38  2  0  0  0  0
 37 36  1  0  0  0  0
 38 39  1  0  0  0  0
 39 40  1  0  0  0  0
 41 39  2  0  0  0  0
 41 42  1  0  0  0  0
M  END
>  <minimizedAffinity>
-6.5127387

$$$$

 OpenBabel03272503353D

 42 45  0  0  1  0  0  0  0  0999 V2000
   37.4920   24.2990   33.0440 C   0  0  0  0  0  0  0  0  0  0  0  0
   37.0250   23.3290   32.1570 C   0  0  0  0  0  0  0  0  0  0  0  0
   36.1620   23.7490   31.1380 C   0  0  0  0  0  0  0  0  0  0  0  0
   35.8420   25.0890   31.0900 N   0  0  0  0  0  0  0  0  0  0  0  0
   36.3140   25.9820   31.9610 C   0  0  0  0  0  0  0  0  0  0  0  0
   37.1390   25.5830   32.9370 N   0  0  0  0  0  0  0  0  0  0  0  0
   37.2740   22.2780   32.1950 H   0  0  0  0  0  0  0  0  0  0  0  0
   35.7510   23.0820   30.4110 H   0  0  0  0  0  0  0  0  0  0  0  0
   38.3750   23.8580   34.0850 N   0  0  0  0  0  0  0  0  0  0  0  0
   38.8090   24.6050   35.2270 C   0  0  0  0  0  0  0  0  0  0  0  0
   39.0840   23.5090   36.2480 C   0  0  2  0  0  0  0  0  0  0  0  0
   38.6280   22.2010   35.6050 C   0  0  0  0  0  0  0  0  0  0  0  0
   39.0050   22.5430   34.1720 C   0  0  0  0  0  0  0  0  0  0  0  0
   38.0130   25.2940   35.6200 H   0  0  0  0  0  0  0  0  0  0  0  0
   39.7600   25.1600   35.0450 H   0  0  0  0  0  0  0  0  0  0  0  0
   40.1810   23.3880   36.4210 H   0  0  0  0  0  0  0  0  0  0  0  0
   37.5450   22.1120   35.6980 H   0  0  0  0  0  0  0  0  0  0  0  0
   39.1820   21.3380   35.9920 H   0  0  0  0  0  0  0  0  0  0  0  0
   38.5120   21.8370   33.4850 H   0  0  0  0  0  0  0  0  0  0  0  0
   40.0940   22.5970   34.0780 H   0  0  0  0  0  0  0  0  0  0  0  0
   38.3750   23.7600   37.5510 C   0  0  0  0  0  0  0  0  0  0  0  0
   37.1520   23.1250   37.4670 F   0  0  0  0  0  0  0  0  0  0  0  0
   38.1150   25.1040   37.6150 F   0  0  0  0  0  0  0  0  0  0  0  0
   39.0910   23.3500   38.6440 F   0  0  0  0  0  0  0  0  0  0  0  0
   35.8640   27.7020   31.8450 S   0  0  0  0  0  0  0  0  0  0  0  0
   35.8960   28.6220   33.2590 C   0  0  0  0  0  0  0  0  0  0  0  0
   36.5260   28.6860   34.4670 C   0  0  0  0  0  0  0  0  0  0  0  0
   36.2930   29.6100   35.4260 C   0  0  0  0  0  0  0  0  0  0  0  0
   35.2510   30.5910   35.0450 C   0  0  0  0  0  0  0  0  0  0  0  0
   34.7330   30.0830   33.3790 S   0  0  0  0  0  0  0  0  0  0  0  0
   37.2500   27.8910   34.5610 H   0  0  0  0  0  0  0  0  0  0  0  0
   36.7910   29.6560   36.3730 H   0  0  0  0  0  0  0  0  0  0  0  0
   36.8650   33.0580   34.6850 Cl  0  0  0  0  0  0  0  0  0  0  0  0
   35.4520   32.8650   35.6990 C   0  0  0  0  0  0  0  0  0  0  0  0
   34.7680   31.6750   35.8000 C   0  0  0  0  0  0  0  0  0  0  0  0
   33.6530   31.4600   36.5780 C   0  0  0  0  0  0  0  0  0  0  0  0
   33.1560   30.5090   36.6210 H   0  0  0  0  0  0  0  0  0  0  0  0
   33.1820   32.5470   37.3250 C   0  0  0  0  0  3  0  0  0  0  0  0
   33.8400   33.7810   37.2590 C   0  0  0  0  0  0  0  0  0  0  0  0
   33.2780   35.1610   38.1790 Cl  0  0  0  0  0  0  0  0  0  0  0  0
   34.9710   33.9460   36.4500 C   0  0  0  0  0  0  0  0  0  0  0  0
   35.4680   34.9060   36.4100 H   0  0  0  0  0  0  0  0  0  0  0  0
  1  9  1  0  0  0  0
  2  7  1  0  0  0  0
  2  1  2  0  0  0  0
  3  2  1  0  0  0  0
  4  3  2  0  0  0  0
  4  5  1  0  0  0  0
  5  6  2  0  0  0  0
  6  1  1  0  0  0  0
  8  3  1  0  0  0  0
  9 13  1  0  0  0  0
  9 10  1  0  0  0  0
 10 14  1  0  0  0  0
 10 11  1  0  0  0  0
 11 16  1  1  0  0  0
 11 21  1  0  0  0  0
 12 17  1  0  0  0  0
 12 18  1  0  0  0  0
 12 11  1  0  0  0  0
 13 12  1  0  0  0  0
 15 10  1  0  0  0  0
 19 13  1  0  0  0  0
 20 13  1  0  0  0  0
 21 23  1  0  0  0  0
 21 24  1  0  0  0  0
 22 21  1  0  0  0  0
 25  5  1  0  0  0  0
 25 26  1  0  0  0  0
 26 30  1  0  0  0  0
 26 27  2  0  0  0  0
 27 31  1  0  0  0  0
 27 28  1  0  0  0  0
 28 32  1  0  0  0  0
 29 28  2  0  0  0  0
 29 35  1  0  0  0  0
 30 29  1  0  0  0  0
 33 34  1  0  0  0  0
 34 35  2  0  0  0  0
 34 41  1  0  0  0  0
 35 36  1  0  0  0  0
 36 37  1  0  0  0  0
 36 38  2  0  0  0  0
 39 38  1  0  0  0  0
 39 40  1  0  0  0  0
 41 39  2  0  0  0  0
 42 41  1  0  0  0  0
M  END
>  <minimizedAffinity>
-6.36950302

$$$$

 OpenBabel03272503353D

 42 45  0  0  1  0  0  0  0  0999 V2000
   36.0600   30.7120   31.9880 C   0  0  0  0  0  0  0  0  0  0  0  0
   36.4510   31.1160   30.7110 C   0  0  0  0  0  0  0  0  0  0  0  0
   36.8750   30.1230   29.8210 C   0  0  0  0  0  0  0  0  0  0  0  0
   36.8730   28.8210   30.2740 N   0  0  0  0  0  0  0  0  0  0  0  0
   36.4900   28.4800   31.5060 C   0  0  0  0  0  0  0  0  0  0  0  0
   36.0850   29.4280   32.3600 N   0  0  0  0  0  0  0  0  0  0  0  0
   36.4540   32.1360   30.3540 H   0  0  0  0  0  0  0  0  0  0  0  0
   37.1930   30.3320   28.8220 H   0  0  0  0  0  0  0  0  0  0  0  0
   35.6290   31.7380   32.8920 N   0  0  0  0  0  0  0  0  0  0  0  0
   34.5770   31.6530   33.8600 C   0  0  0  0  0  0  0  0  0  0  0  0
   35.0250   32.6510   34.9180 C   0  0  2  0  0  0  0  0  0  0  0  0
   36.4150   33.1240   34.4980 C   0  0  0  0  0  0  0  0  0  0  0  0
   36.1930   33.0810   32.9940 C   0  0  0  0  0  0  0  0  0  0  0  0
   34.4930   30.6310   34.3190 H   0  0  0  0  0  0  0  0  0  0  0  0
   33.5920   31.9890   33.4570 H   0  0  0  0  0  0  0  0  0  0  0  0
   34.3840   33.5660   34.9030 H   0  0  0  0  0  0  0  0  0  0  0  0
   37.1540   32.3770   34.7920 H   0  0  0  0  0  0  0  0  0  0  0  0
   36.6330   34.1340   34.8630 H   0  0  0  0  0  0  0  0  0  0  0  0
   37.1660   33.1260   32.4790 H   0  0  0  0  0  0  0  0  0  0  0  0
   35.4790   33.8550   32.7020 H   0  0  0  0  0  0  0  0  0  0  0  0
   35.0400   32.0480   36.2950 C   0  0  0  0  0  0  0  0  0  0  0  0
   36.0600   31.1170   36.3110 F   0  0  0  0  0  0  0  0  0  0  0  0
   33.8700   31.3480   36.4400 F   0  0  0  0  0  0  0  0  0  0  0  0
   35.1780   32.9760   37.2920 F   0  0  0  0  0  0  0  0  0  0  0  0
   36.5080   26.7790   32.0340 S   0  0  0  0  0  0  0  0  0  0  0  0
   37.5160   26.3640   33.3220 C   0  0  0  0  0  0  0  0  0  0  0  0
   38.1320   26.9170   34.4060 C   0  0  0  0  0  0  0  0  0  0  0  0
   38.9190   26.2560   35.2840 C   0  0  0  0  0  0  0  0  0  0  0  0
   39.0690   24.8180   34.9600 C   0  0  0  0  0  0  0  0  0  0  0  0
   38.0770   24.5830   33.4560 S   0  0  0  0  0  0  0  0  0  0  0  0
   37.9040   27.9700   34.4770 H   0  0  0  0  0  0  0  0  0  0  0  0
   39.4000   26.6950   36.1340 H   0  0  0  0  0  0  0  0  0  0  0  0
   37.6540   23.7850   37.3570 Cl  0  0  0  0  0  0  0  0  0  0  0  0
   39.2370   23.3100   36.7860 C   0  0  0  0  0  0  0  0  0  0  0  0
   39.8130   23.8490   35.6570 C   0  0  0  0  0  0  0  0  0  0  0  0
   41.0510   23.5170   35.1580 C   0  0  0  0  0  0  0  0  0  0  0  0
   41.4540   23.9700   34.2710 H   0  0  0  0  0  0  0  0  0  0  0  0
   41.7810   22.5510   35.8620 C   0  0  0  0  0  3  0  0  0  0  0  0
   41.2430   21.9700   37.0160 C   0  0  0  0  0  0  0  0  0  0  0  0
   42.1270   20.7580   37.9200 Cl  0  0  0  0  0  0  0  0  0  0  0  0
   39.9760   22.3430   37.4820 C   0  0  0  0  0  0  0  0  0  0  0  0
   39.5750   21.8840   38.3750 H   0  0  0  0  0  0  0  0  0  0  0  0
  1  6  1  0  0  0  0
  1  9  1  0  0  0  0
  2  1  2  0  0  0  0
  3  4  2  0  0  0  0
  3  2  1  0  0  0  0
  4  5  1  0  0  0  0
  5 25  1  0  0  0  0
  5  6  2  0  0  0  0
  7  2  1  0  0  0  0
  8  3  1  0  0  0  0
  9 13  1  0  0  0  0
  9 10  1  0  0  0  0
 10 14  1  0  0  0  0
 10 11  1  0  0  0  0
 11 16  1  6  0  0  0
 11 21  1  0  0  0  0
 12 17  1  0  0  0  0
 12 18  1  0  0  0  0
 12 11  1  0  0  0  0
 13 12  1  0  0  0  0
 15 10  1  0  0  0  0
 19 13  1  0  0  0  0
 20 13  1  0  0  0  0
 21 22  1  0  0  0  0
 21 23  1  0  0  0  0
 21 24  1  0  0  0  0
 25 26  1  0  0  0  0
 26 30  1  0  0  0  0
 26 27  2  0  0  0  0
 27 31  1  0  0  0  0
 27 28  1  0  0  0  0
 28 32  1  0  0  0  0
 29 28  2  0  0  0  0
 29 35  1  0  0  0  0
 30 29  1  0  0  0  0
 34 33  1  0  0  0  0
 34 41  1  0  0  0  0
 35 34  2  0  0  0  0
 36 35  1  0  0  0  0
 36 38  2  0  0  0  0
 37 36  1  0  0  0  0
 38 39  1  0  0  0  0
 39 41  2  0  0  0  0
 39 40  1  0  0  0  0
 41 42  1  0  0  0  0
M  END
>  <minimizedAffinity>
-6.31006575

$$$$

 OpenBabel03272503353D

 42 45  0  0  1  0  0  0  0  0999 V2000
   33.8740   30.6140   34.0380 C   0  0  0  0  0  0  0  0  0  0  0  0
   34.2330   31.7960   33.3910 C   0  0  0  0  0  0  0  0  0  0  0  0
   35.2930   31.7350   32.4790 C   0  0  0  0  0  0  0  0  0  0  0  0
   35.9000   30.5110   32.2910 N   0  0  0  0  0  0  0  0  0  0  0  0
   35.5220   29.4060   32.9340 C   0  0  0  0  0  0  0  0  0  0  0  0
   34.5080   29.4610   33.8070 N   0  0  0  0  0  0  0  0  0  0  0  0
   33.7590   32.7560   33.5370 H   0  0  0  0  0  0  0  0  0  0  0  0
   35.6430   32.5850   31.9340 H   0  0  0  0  0  0  0  0  0  0  0  0
   32.7860   30.6870   34.9710 N   0  0  0  0  0  0  0  0  0  0  0  0
   31.7150   29.7500   35.1280 C   0  0  0  0  0  0  0  0  0  0  0  0
   31.3380   29.9280   36.5920 C   0  0  2  0  0  0  0  0  0  0  0  0
   32.3660   30.8900   37.1850 C   0  0  0  0  0  0  0  0  0  0  0  0
   32.5680   31.7510   35.9480 C   0  0  0  0  0  0  0  0  0  0  0  0
   32.0400   28.6890   34.9500 H   0  0  0  0  0  0  0  0  0  0  0  0
   30.8250   30.0020   34.5050 H   0  0  0  0  0  0  0  0  0  0  0  0
   30.3540   30.4470   36.6930 H   0  0  0  0  0  0  0  0  0  0  0  0
   33.2810   30.3410   37.4150 H   0  0  0  0  0  0  0  0  0  0  0  0
   31.9600   31.4560   38.0310 H   0  0  0  0  0  0  0  0  0  0  0  0
   33.4820   32.3540   36.0660 H   0  0  0  0  0  0  0  0  0  0  0  0
   31.6590   32.3230   35.7430 H   0  0  0  0  0  0  0  0  0  0  0  0
   31.3150   28.6200   37.3330 C   0  0  0  0  0  0  0  0  0  0  0  0
   29.9940   28.3590   37.6410 F   0  0  0  0  0  0  0  0  0  0  0  0
   31.9620   28.8210   38.5240 F   0  0  0  0  0  0  0  0  0  0  0  0
   31.8900   27.5910   36.6350 F   0  0  0  0  0  0  0  0  0  0  0  0
   36.3450   27.8520   32.6480 S   0  0  0  0  0  0  0  0  0  0  0  0
   37.2930   27.2200   33.8930 C   0  0  0  0  0  0  0  0  0  0  0  0
   37.7950   27.5560   35.1160 C   0  0  0  0  0  0  0  0  0  0  0  0
   38.5680   26.7630   35.8910 C   0  0  0  0  0  0  0  0  0  0  0  0
   38.8400   25.4410   35.2800 C   0  0  0  0  0  0  0  0  0  0  0  0
   37.9680   25.4870   33.6860 S   0  0  0  0  0  0  0  0  0  0  0  0
   37.4900   28.5540   35.3920 H   0  0  0  0  0  0  0  0  0  0  0  0
   38.9600   27.0310   36.8510 H   0  0  0  0  0  0  0  0  0  0  0  0
   41.5500   25.2600   34.0780 Cl  0  0  0  0  0  0  0  0  0  0  0  0
   40.8770   24.2210   35.3140 C   0  0  0  0  0  0  0  0  0  0  0  0
   39.6020   24.3850   35.8100 C   0  0  0  0  0  0  0  0  0  0  0  0
   39.0180   23.6030   36.7790 C   0  0  0  0  0  0  0  0  0  0  0  0
   38.0170   23.7750   37.1310 H   0  0  0  0  0  0  0  0  0  0  0  0
   39.7880   22.5550   37.2980 C   0  0  0  0  0  3  0  0  0  0  0  0
   41.0890   22.3420   36.8290 C   0  0  0  0  0  0  0  0  0  0  0  0
   42.0810   21.0420   37.4570 Cl  0  0  0  0  0  0  0  0  0  0  0  0
   41.6390   23.1690   35.8410 C   0  0  0  0  0  0  0  0  0  0  0  0
   42.6450   22.9920   35.4900 H   0  0  0  0  0  0  0  0  0  0  0  0
  1  9  1  0  0  0  0
  2  7  1  0  0  0  0
  2  1  2  0  0  0  0
  3  2  1  0  0  0  0
  4  3  2  0  0  0  0
  4  5  1  0  0  0  0
  5  6  2  0  0  0  0
  6  1  1  0  0  0  0
  8  3  1  0  0  0  0
  9 10  1  0  0  0  0
  9 13  1  0  0  0  0
 10 11  1  0  0  0  0
 11 16  1  1  0  0  0
 11 12  1  0  0  0  0
 11 21  1  0  0  0  0
 12 17  1  0  0  0  0
 12 18  1  0  0  0  0
 13 19  1  0  0  0  0
 13 12  1  0  0  0  0
 14 10  1  0  0  0  0
 15 10  1  0  0  0  0
 20 13  1  0  0  0  0
 21 22  1  0  0  0  0
 21 23  1  0  0  0  0
 24 21  1  0  0  0  0
 25  5  1  0  0  0  0
 25 26  1  0  0  0  0
 26 27  2  0  0  0  0
 27 31  1  0  0  0  0
 27 28  1  0  0  0  0
 28 32  1  0  0  0  0
 29 35  1  0  0  0  0
 29 28  2  0  0  0  0
 30 26  1  0  0  0  0
 30 29  1  0  0  0  0
 33 34  1  0  0  0  0
 34 35  2  0  0  0  0
 34 41  1  0  0  0  0
 35 36  1  0  0  0  0
 36 37  1  0  0  0  0
 36 38  2  0  0  0  0
 39 38  1  0  0  0  0
 39 40  1  0  0  0  0
 41 39  2  0  0  0  0
 42 41  1  0  0  0  0
M  END
>  <minimizedAffinity>
-6.30961943

$$$$

 OpenBabel03272503353D

 42 45  0  0  1  0  0  0  0  0999 V2000
   37.7750   23.3490   31.5060 C   0  0  0  0  0  0  0  0  0  0  0  0
   38.8690   23.0820   30.6830 C   0  0  0  0  0  0  0  0  0  0  0  0
   39.3560   24.1330   29.8970 C   0  0  0  0  0  0  0  0  0  0  0  0
   38.7160   25.3500   29.9970 N   0  0  0  0  0  0  0  0  0  0  0  0
   37.6710   25.5590   30.7990 C   0  0  0  0  0  0  0  0  0  0  0  0
   37.2030   24.5560   31.5520 N   0  0  0  0  0  0  0  0  0  0  0  0
   39.3710   22.1280   30.6030 H   0  0  0  0  0  0  0  0  0  0  0  0
   40.1890   24.0280   29.2360 H   0  0  0  0  0  0  0  0  0  0  0  0
   37.2830   22.2650   32.3070 N   0  0  0  0  0  0  0  0  0  0  0  0
   35.9160   21.9450   32.5860 C   0  0  0  0  0  0  0  0  0  0  0  0
   35.9740   20.4420   32.8210 C   0  0  2  0  0  0  0  0  0  0  0  0
   37.4050   20.0140   32.5030 C   0  0  0  0  0  0  0  0  0  0  0  0
   38.1020   21.2720   32.9980 C   0  0  0  0  0  0  0  0  0  0  0  0
   35.2350   22.1640   31.7190 H   0  0  0  0  0  0  0  0  0  0  0  0
   35.5390   22.4300   33.5180 H   0  0  0  0  0  0  0  0  0  0  0  0
   35.8250   20.1980   33.9010 H   0  0  0  0  0  0  0  0  0  0  0  0
   37.5210   19.9190   31.4220 H   0  0  0  0  0  0  0  0  0  0  0  0
   37.7010   19.1200   33.0640 H   0  0  0  0  0  0  0  0  0  0  0  0
   39.1340   21.2940   32.6130 H   0  0  0  0  0  0  0  0  0  0  0  0
   38.0120   21.3420   34.0850 H   0  0  0  0  0  0  0  0  0  0  0  0
   34.9760   19.6980   31.9770 C   0  0  0  0  0  0  0  0  0  0  0  0
   34.8670   18.4300   32.5120 F   0  0  0  0  0  0  0  0  0  0  0  0
   35.5310   19.5520   30.7320 F   0  0  0  0  0  0  0  0  0  0  0  0
   33.7610   20.3250   31.8970 F   0  0  0  0  0  0  0  0  0  0  0  0
   36.8870   27.1560   30.8860 S   0  0  0  0  0  0  0  0  0  0  0  0
   36.6070   27.8150   32.4130 C   0  0  0  0  0  0  0  0  0  0  0  0
   36.8350   27.5620   33.7340 C   0  0  0  0  0  0  0  0  0  0  0  0
   36.4470   28.3500   34.7630 C   0  0  0  0  0  0  0  0  0  0  0  0
   35.7200   29.5630   34.3220 C   0  0  0  0  0  0  0  0  0  0  0  0
   35.6780   29.4370   32.5100 S   0  0  0  0  0  0  0  0  0  0  0  0
   37.3760   26.6370   33.8560 H   0  0  0  0  0  0  0  0  0  0  0  0
   36.6290   28.1460   35.7980 H   0  0  0  0  0  0  0  0  0  0  0  0
   32.7920   29.2830   34.7310 Cl  0  0  0  0  0  0  0  0  0  0  0  0
   33.8260   30.5400   35.3700 C   0  0  0  0  0  0  0  0  0  0  0  0
   35.1810   30.5850   35.1240 C   0  0  0  0  0  0  0  0  0  0  0  0
   36.0460   31.5450   35.5970 C   0  0  0  0  0  0  0  0  0  0  0  0
   37.0960   31.5320   35.3730 H   0  0  0  0  0  0  0  0  0  0  0  0
   35.4960   32.5560   36.3940 C   0  0  0  0  0  3  0  0  0  0  0  0
   34.1250   32.5590   36.6760 C   0  0  0  0  0  0  0  0  0  0  0  0
   33.4040   33.8090   37.6690 Cl  0  0  0  0  0  0  0  0  0  0  0  0
   33.2870   31.5570   36.1700 C   0  0  0  0  0  0  0  0  0  0  0  0
   32.2310   31.5740   36.3970 H   0  0  0  0  0  0  0  0  0  0  0  0
  1  6  1  0  0  0  0
  1  9  1  0  0  0  0
  2  1  2  0  0  0  0
  3  4  2  0  0  0  0
  3  2  1  0  0  0  0
  4  5  1  0  0  0  0
  5 25  1  0  0  0  0
  5  6  2  0  0  0  0
  7  2  1  0  0  0  0
  8  3  1  0  0  0  0
  9 10  1  0  0  0  0
  9 13  1  0  0  0  0
 10 11  1  0  0  0  0
 10 15  1  0  0  0  0
 11 16  1  1  0  0  0
 12 11  1  0  0  0  0
 12 13  1  0  0  0  0
 12 18  1  0  0  0  0
 13 20  1  0  0  0  0
 14 10  1  0  0  0  0
 17 12  1  0  0  0  0
 19 13  1  0  0  0  0
 21 22  1  0  0  0  0
 21 11  1  0  0  0  0
 23 21  1  0  0  0  0
 24 21  1  0  0  0  0
 25 26  1  0  0  0  0
 26 30  1  0  0  0  0
 26 27  2  0  0  0  0
 27 31  1  0  0  0  0
 27 28  1  0  0  0  0
 28 32  1  0  0  0  0
 29 28  2  0  0  0  0
 29 35  1  0  0  0  0
 30 29  1  0  0  0  0
 33 34  1  0  0  0  0
 34 41  1  0  0  0  0
 35 34  2  0  0  0  0
 35 36  1  0  0  0  0
 36 38  2  0  0  0  0
 37 36  1  0  0  0  0
 38 39  1  0  0  0  0
 39 40  1  0  0  0  0
 41 42  1  0  0  0  0
 41 39  2  0  0  0  0
M  END
>  <minimizedAffinity>
-6.20283127

$$$$

 OpenBabel03272503353D

 42 45  0  0  1  0  0  0  0  0999 V2000
   36.5640   32.0430   31.5470 C   0  0  0  0  0  0  0  0  0  0  0  0
   37.0030   32.9380   30.5720 C   0  0  0  0  0  0  0  0  0  0  0  0
   37.4840   32.4020   29.3730 C   0  0  0  0  0  0  0  0  0  0  0  0
   37.4860   31.0290   29.2470 N   0  0  0  0  0  0  0  0  0  0  0  0
   37.0560   30.2100   30.2080 C   0  0  0  0  0  0  0  0  0  0  0  0
   36.5950   30.7210   31.3570 N   0  0  0  0  0  0  0  0  0  0  0  0
   37.0030   34.0150   30.6690 H   0  0  0  0  0  0  0  0  0  0  0  0
   37.8430   33.0050   28.5670 H   0  0  0  0  0  0  0  0  0  0  0  0
   36.0730   32.6040   32.7730 N   0  0  0  0  0  0  0  0  0  0  0  0
   34.9690   32.1390   33.5570 C   0  0  0  0  0  0  0  0  0  0  0  0
   35.3490   32.5970   34.9590 C   0  0  2  0  0  0  0  0  0  0  0  0
   36.7560   33.1800   34.8520 C   0  0  0  0  0  0  0  0  0  0  0  0
   36.6200   33.7720   33.4580 C   0  0  0  0  0  0  0  0  0  0  0  0
   34.8690   31.0200   33.5420 H   0  0  0  0  0  0  0  0  0  0  0  0
   34.0060   32.6280   33.2790 H   0  0  0  0  0  0  0  0  0  0  0  0
   34.7020   33.4440   35.2930 H   0  0  0  0  0  0  0  0  0  0  0  0
   37.4840   32.3670   34.8460 H   0  0  0  0  0  0  0  0  0  0  0  0
   36.9450   33.9420   35.6170 H   0  0  0  0  0  0  0  0  0  0  0  0
   37.6200   34.0130   33.0630 H   0  0  0  0  0  0  0  0  0  0  0  0
   35.9160   34.6090   33.4780 H   0  0  0  0  0  0  0  0  0  0  0  0
   35.2920   31.4730   35.9560 C   0  0  0  0  0  0  0  0  0  0  0  0
   35.1600   32.0520   37.2030 F   0  0  0  0  0  0  0  0  0  0  0  0
   36.5150   30.8570   35.9380 F   0  0  0  0  0  0  0  0  0  0  0  0
   34.2900   30.5740   35.7010 F   0  0  0  0  0  0  0  0  0  0  0  0
   37.0820   28.4420   29.9870 S   0  0  0  0  0  0  0  0  0  0  0  0
   37.8680   27.5130   31.1550 C   0  0  0  0  0  0  0  0  0  0  0  0
   39.0950   26.9940   31.4450 C   0  0  0  0  0  0  0  0  0  0  0  0
   39.3940   26.2460   32.5320 C   0  0  0  0  0  0  0  0  0  0  0  0
   38.2300   26.0230   33.4210 C   0  0  0  0  0  0  0  0  0  0  0  0
   36.8610   26.9000   32.6090 S   0  0  0  0  0  0  0  0  0  0  0  0
   39.8120   27.2620   30.6850 H   0  0  0  0  0  0  0  0  0  0  0  0
   40.3590   25.8410   32.7560 H   0  0  0  0  0  0  0  0  0  0  0  0
   38.1670   27.7720   35.8200 Cl  0  0  0  0  0  0  0  0  0  0  0  0
   38.1570   26.0230   35.7940 C   0  0  0  0  0  0  0  0  0  0  0  0
   38.1890   25.2970   34.6240 C   0  0  0  0  0  0  0  0  0  0  0  0
   38.1830   23.9240   34.5380 C   0  0  0  0  0  0  0  0  0  0  0  0
   38.2090   23.4060   33.5960 H   0  0  0  0  0  0  0  0  0  0  0  0
   38.1420   23.2120   35.7430 C   0  0  0  0  0  3  0  0  0  0  0  0
   38.1090   23.9000   36.9620 C   0  0  0  0  0  0  0  0  0  0  0  0
   38.0560   23.0430   38.4890 Cl  0  0  0  0  0  0  0  0  0  0  0  0
   38.1150   25.3000   36.9950 C   0  0  0  0  0  0  0  0  0  0  0  0
   38.0890   25.8160   37.9440 H   0  0  0  0  0  0  0  0  0  0  0  0
  1  9  1  0  0  0  0
  2  7  1  0  0  0  0
  2  1  2  0  0  0  0
  3  2  1  0  0  0  0
  4  3  2  0  0  0  0
  4  5  1  0  0  0  0
  5  6  2  0  0  0  0
  6  1  1  0  0  0  0
  8  3  1  0  0  0  0
  9 13  1  0  0  0  0
  9 10  1  0  0  0  0
 10 11  1  0  0  0  0
 11 16  1  1  0  0  0
 11 21  1  0  0  0  0
 12 11  1  0  0  0  0
 12 18  1  0  0  0  0
 13 20  1  0  0  0  0
 13 12  1  0  0  0  0
 14 10  1  0  0  0  0
 15 10  1  0  0  0  0
 17 12  1  0  0  0  0
 19 13  1  0  0  0  0
 21 22  1  0  0  0  0
 23 21  1  0  0  0  0
 24 21  1  0  0  0  0
 25  5  1  0  0  0  0
 25 26  1  0  0  0  0
 26 27  2  0  0  0  0
 26 30  1  0  0  0  0
 27 28  1  0  0  0  0
 28 32  1  0  0  0  0
 28 29  2  0  0  0  0
 29 35  1  0  0  0  0
 30 29  1  0  0  0  0
 31 27  1  0  0  0  0
 34 33  1  0  0  0  0
 34 41  1  0  0  0  0
 35 34  2  0  0  0  0
 36 35  1  0  0  0  0
 36 38  2  0  0  0  0
 37 36  1  0  0  0  0
 38 39  1  0  0  0  0
 39 41  2  0  0  0  0
 39 40  1  0  0  0  0
 41 42  1  0  0  0  0
M  END
>  <minimizedAffinity>
-6.20164251

$$$$

 OpenBabel03272503353D

 42 45  0  0  1  0  0  0  0  0999 V2000
   33.7730   29.9410   32.7870 C   0  0  0  0  0  0  0  0  0  0  0  0
   34.3280   31.1770   32.4580 C   0  0  0  0  0  0  0  0  0  0  0  0
   35.6450   31.1870   31.9840 C   0  0  0  0  0  0  0  0  0  0  0  0
   36.2920   29.9730   31.8800 N   0  0  0  0  0  0  0  0  0  0  0  0
   35.7190   28.8140   32.2070 C   0  0  0  0  0  0  0  0  0  0  0  0
   34.4600   28.8020   32.6600 N   0  0  0  0  0  0  0  0  0  0  0  0
   33.8230   32.1290   32.5400 H   0  0  0  0  0  0  0  0  0  0  0  0
   36.1580   32.0820   31.7060 H   0  0  0  0  0  0  0  0  0  0  0  0
   32.4230   29.9420   33.2720 N   0  0  0  0  0  0  0  0  0  0  0  0
   31.4900   28.8560   33.2410 C   0  0  0  0  0  0  0  0  0  0  0  0
   30.5940   29.1620   34.4330 C   0  0  2  0  0  0  0  0  0  0  0  0
   31.2140   30.3670   35.1370 C   0  0  0  0  0  0  0  0  0  0  0  0
   31.7390   31.0720   33.8960 C   0  0  0  0  0  0  0  0  0  0  0  0
   31.9850   27.8580   33.3890 H   0  0  0  0  0  0  0  0  0  0  0  0
   30.8590   28.8540   32.3200 H   0  0  0  0  0  0  0  0  0  0  0  0
   29.5840   29.5020   34.0980 H   0  0  0  0  0  0  0  0  0  0  0  0
   32.0450   30.0310   35.7600 H   0  0  0  0  0  0  0  0  0  0  0  0
   30.4650   30.9600   35.6730 H   0  0  0  0  0  0  0  0  0  0  0  0
   32.4690   31.8420   34.1940 H   0  0  0  0  0  0  0  0  0  0  0  0
   30.9020   31.4360   33.2940 H   0  0  0  0  0  0  0  0  0  0  0  0
   30.4670   27.9860   35.3610 C   0  0  0  0  0  0  0  0  0  0  0  0
   29.4420   28.2800   36.2390 F   0  0  0  0  0  0  0  0  0  0  0  0
   31.6170   27.9330   36.1040 F   0  0  0  0  0  0  0  0  0  0  0  0
   30.2550   26.8010   34.7080 F   0  0  0  0  0  0  0  0  0  0  0  0
   36.6060   27.2770   32.0500 S   0  0  0  0  0  0  0  0  0  0  0  0
   37.5780   26.7910   33.3400 C   0  0  0  0  0  0  0  0  0  0  0  0
   38.1320   27.2740   34.4890 C   0  0  0  0  0  0  0  0  0  0  0  0
   38.9090   26.5690   35.3420 C   0  0  0  0  0  0  0  0  0  0  0  0
   39.1210   25.1680   34.9110 C   0  0  0  0  0  0  0  0  0  0  0  0
   38.1960   25.0240   33.3540 S   0  0  0  0  0  0  0  0  0  0  0  0
   37.8660   28.3100   34.6340 H   0  0  0  0  0  0  0  0  0  0  0  0
   39.3420   26.9530   36.2440 H   0  0  0  0  0  0  0  0  0  0  0  0
   37.6090   23.8140   37.0780 Cl  0  0  0  0  0  0  0  0  0  0  0  0
   39.2520   23.4840   36.5800 C   0  0  0  0  0  0  0  0  0  0  0  0
   39.8710   24.1700   35.5580 C   0  0  0  0  0  0  0  0  0  0  0  0
   41.1580   23.9570   35.1210 C   0  0  0  0  0  0  0  0  0  0  0  0
   41.5930   24.5220   34.3170 H   0  0  0  0  0  0  0  0  0  0  0  0
   41.8940   22.9600   35.7730 C   0  0  0  0  0  3  0  0  0  0  0  0
   41.3140   22.2330   36.8190 C   0  0  0  0  0  0  0  0  0  0  0  0
   42.2040   20.9790   37.6570 Cl  0  0  0  0  0  0  0  0  0  0  0  0
   39.9980   22.4880   37.2250 C   0  0  0  0  0  0  0  0  0  0  0  0
   39.5650   21.9170   38.0340 H   0  0  0  0  0  0  0  0  0  0  0  0
  1  9  1  0  0  0  0
  2  7  1  0  0  0  0
  2  1  2  0  0  0  0
  3  2  1  0  0  0  0
  4  3  2  0  0  0  0
  4  5  1  0  0  0  0
  5  6  2  0  0  0  0
  6  1  1  0  0  0  0
  8  3  1  0  0  0  0
  9 13  1  0  0  0  0
 10  9  1  0  0  0  0
 10 14  1  0  0  0  0
 10 11  1  0  0  0  0
 11 16  1  6  0  0  0
 11 12  1  0  0  0  0
 11 21  1  0  0  0  0
 12 18  1  0  0  0  0
 12 17  1  0  0  0  0
 13 19  1  0  0  0  0
 13 12  1  0  0  0  0
 15 10  1  0  0  0  0
 20 13  1  0  0  0  0
 21 23  1  0  0  0  0
 21 22  1  0  0  0  0
 24 21  1  0  0  0  0
 25  5  1  0  0  0  0
 25 26  1  0  0  0  0
 26 30  1  0  0  0  0
 26 27  2  0  0  0  0
 27 31  1  0  0  0  0
 27 28  1  0  0  0  0
 28 32  1  0  0  0  0
 29 28  2  0  0  0  0
 29 35  1  0  0  0  0
 30 29  1  0  0  0  0
 34 33  1  0  0  0  0
 34 41  1  0  0  0  0
 35 34  2  0  0  0  0
 36 35  1  0  0  0  0
 36 38  2  0  0  0  0
 37 36  1  0  0  0  0
 38 39  1  0  0  0  0
 39 41  2  0  0  0  0
 39 40  1  0  0  0  0
 41 42  1  0  0  0  0
M  END
>  <minimizedAffinity>
-6.11026669

$$$$
