
 OpenBabel03262522133D

 34 36  0  0  0  0  0  0  0  0999 V2000
   37.7900   31.7010   47.5670 C   0  0  0  0  0  0  0  0  0  0  0  0
   37.9280   32.5730   48.6600 C   0  0  0  0  0  0  0  0  0  0  0  0
   38.9510   33.4850   48.6830 C   0  0  0  0  0  0  0  0  0  0  0  0
   39.8060   33.4900   47.5980 C   0  0  0  0  0  0  0  0  0  0  0  0
   39.6460   32.6360   46.5580 C   0  0  0  0  0  0  0  0  0  0  0  0
   38.6370   31.7070   46.4910 N   0  0  0  0  0  0  0  0  0  0  0  0
   37.2240   32.5150   49.4740 H   0  0  0  0  0  0  0  0  0  0  0  0
   39.0580   34.1460   49.5110 H   0  0  0  0  0  0  0  0  0  0  0  0
   40.6130   34.2100   47.6180 H   0  0  0  0  0  0  0  0  0  0  0  0
   36.6820   30.7660   47.6110 C   0  0  0  0  0  0  0  0  0  0  0  0
   36.1230   30.4000   46.5740 O   0  0  0  0  0  0  0  0  0  0  0  0
   37.0870   29.6650   49.7890 C   0  0  0  0  0  0  0  0  0  0  0  0
   36.1780   30.2150   48.8770 C   0  0  0  0  0  0  0  0  0  0  0  0
   34.7960   30.2360   49.1760 C   0  0  0  0  0  0  0  0  0  0  0  0
   34.4250   29.6930   50.3920 N   0  0  0  0  0  0  0  0  0  0  0  0
   35.3290   29.1730   51.2450 C   0  0  0  0  0  0  0  0  0  0  0  0
   36.6120   29.1620   50.9500 N   0  0  0  0  0  0  0  0  0  0  0  0
   38.1450   29.6310   49.5940 H   0  0  0  0  0  0  0  0  0  0  0  0
   34.1640   30.6670   48.4430 H   0  0  0  0  0  0  0  0  0  0  0  0
   34.7920   28.8180   52.1140 H   0  0  0  0  0  0  0  0  0  0  0  0
   40.7690   32.6540   45.1390 S   0  0  0  0  0  0  0  0  0  0  0  0
   39.7240   32.5840   43.6690 C   0  0  0  0  0  0  0  0  0  0  0  0
   38.9040   33.3440   43.6900 H   0  0  0  0  0  0  0  0  0  0  0  0
   40.3370   32.8890   42.7680 H   0  0  0  0  0  0  0  0  0  0  0  0
   36.6820   32.3450   43.4810 Cl  0  0  0  0  0  0  0  0  0  0  0  0
   37.7930   31.0060   43.2910 C   0  0  0  0  0  0  0  0  0  0  0  0
   39.1680   31.2400   43.3920 C   0  0  0  0  0  0  0  0  0  0  0  0
   39.9460   30.1180   43.2270 C   0  0  0  0  0  0  0  0  0  0  0  0
   41.0270   30.3180   43.3080 H   0  0  0  0  0  0  0  0  0  0  0  0
   39.5640   28.8190   42.9800 C   0  0  0  0  0  3  0  0  0  0  0  0
   38.1800   28.6360   42.8880 C   0  0  0  0  0  0  0  0  0  0  0  0
   37.6150   27.0060   42.5760 Cl  0  0  0  0  0  0  0  0  0  0  0  0
   37.3060   29.7190   43.0410 C   0  0  0  0  0  0  0  0  0  0  0  0
   36.2440   29.5180   42.9600 H   0  0  0  0  0  0  0  0  0  0  0  0
  1 10  1  0  0  0  0
  1  2  1  0  0  0  0
  2  3  2  0  0  0  0
  2  7  1  0  0  0  0
  3  8  1  0  0  0  0
  4  9  1  0  0  0  0
  4  3  1  0  0  0  0
  5  4  2  0  0  0  0
  6  5  1  0  0  0  0
  6  1  2  0  0  0  0
 10 13  1  0  0  0  0
 11 10  2  0  0  0  0
 12 17  1  0  0  0  0
 13 14  1  0  0  0  0
 13 12  2  0  0  0  0
 14 15  2  0  0  0  0
 15 16  1  0  0  0  0
 16 20  1  0  0  0  0
 17 16  2  0  0  0  0
 18 12  1  0  0  0  0
 19 14  1  0  0  0  0
 21  5  1  0  0  0  0
 22 23  1  0  0  0  0
 22 21  1  0  0  0  0
 24 22  1  0  0  0  0
 26 27  1  0  0  0  0
 26 25  1  0  0  0  0
 27 22  1  0  0  0  0
 28 29  1  0  0  0  0
 28 27  2  0  0  0  0
 30 28  1  0  0  0  0
 31 30  2  0  0  0  0
 31 33  1  0  0  0  0
 32 31  1  0  0  0  0
 33 26  2  0  0  0  0
 34 33  1  0  0  0  0
M  END
>  <minimizedAffinity>
-5.52743816

>  <minimizedRMSD>
0.861904681

$$$$
