
 OpenBabel03272501293D

 21 22  0  0  0  0  0  0  0  0999 V2000
   39.0480   32.2630   46.9670 C   0  0  0  0  0  0  0  0  0  0  0  0
   39.7790   33.2420   47.2290 O   0  0  0  0  0  0  0  0  0  0  0  0
   40.0830   33.9800   44.7190 Cl  0  0  0  0  0  0  0  0  0  0  0  0
   39.7520   32.2550   44.6190 C   0  0  0  0  0  0  0  0  0  0  0  0
   39.2770   31.5580   45.7110 C   0  0  0  0  0  0  0  0  0  0  0  0
   39.0580   30.2100   45.5040 C   0  0  0  0  0  0  0  0  0  0  0  0
   38.6860   29.6320   46.3350 H   0  0  0  0  0  0  0  0  0  0  0  0
   39.2950   29.5990   44.2920 C   0  0  0  0  0  3  0  0  0  0  0  0
   39.7690   30.3260   43.2200 C   0  0  0  0  0  0  0  0  0  0  0  0
   40.0460   29.4810   41.7100 Cl  0  0  0  0  0  0  0  0  0  0  0  0
   40.0040   31.6770   43.3750 C   0  0  0  0  0  0  0  0  0  0  0  0
   40.3770   32.2480   42.5360 H   0  0  0  0  0  0  0  0  0  0  0  0
   36.9630   31.6410   50.0120 C   0  0  0  0  0  0  0  0  0  0  0  0
   38.0080   32.1050   49.2110 C   0  0  0  0  0  0  0  0  0  0  0  0
   37.9980   31.8130   47.8530 C   0  0  0  0  0  0  0  0  0  0  0  0
   36.9620   31.0850   47.3760 N   0  0  0  0  0  0  0  0  0  0  0  0
   35.9610   30.6480   48.1790 C   0  0  0  0  0  0  0  0  0  0  0  0
   35.9570   30.9200   49.4860 N   0  0  0  0  0  0  0  0  0  0  0  0
   37.0730   31.9280   51.0540 H   0  0  0  0  0  0  0  0  0  0  0  0
   38.8370   32.6910   49.6040 H   0  0  0  0  0  0  0  0  0  0  0  0
   35.1370   30.0570   47.7480 H   0  0  0  0  0  0  0  0  0  0  0  0
  1  2  2  0  0  0  0
  1 15  1  0  0  0  0
  4  3  1  0  0  0  0
  4  5  1  0  0  0  0
  5  1  1  0  0  0  0
  6  5  2  0  0  0  0
  6  7  1  0  0  0  0
  8  6  1  0  0  0  0
  9 11  1  0  0  0  0
  9  8  2  0  0  0  0
 10  9  1  0  0  0  0
 11  4  2  0  0  0  0
 12 11  1  0  0  0  0
 13 19  1  0  0  0  0
 14 20  1  0  0  0  0
 14 13  2  0  0  0  0
 15 14  1  0  0  0  0
 16 15  2  0  0  0  0
 16 17  1  0  0  0  0
 17 18  2  0  0  0  0
 18 13  1  0  0  0  0
 21 17  1  0  0  0  0
M  END
>  <minimizedAffinity>
-4.89570093

>  <minimizedRMSD>
2.40961719

$$$$
