
 OpenBabel03272503413D

 42 45  0  0  1  0  0  0  0  0999 V2000
   39.9150   30.8270   41.7640 C   0  0  2  0  0  0  0  0  0  0  0  0
   39.8320   32.0620   42.6930 C   0  0  1  0  0  0  0  0  0  0  0  0
   38.7090   32.7840   42.0220 C   0  0  0  0  0  0  0  0  0  0  0  0
   38.8400   32.5810   40.6700 O   0  0  0  0  0  0  0  0  0  0  0  0
   39.7450   31.5930   40.4340 C   0  0  0  0  0  0  0  0  0  0  0  0
   40.8990   30.3680   41.8230 H   0  0  0  0  0  0  0  0  0  0  0  0
   40.7470   32.6560   42.6600 H   0  0  0  0  0  0  0  0  0  0  0  0
   37.7330   32.3840   42.3840 H   0  0  0  0  0  0  0  0  0  0  0  0
   38.7290   33.8450   42.3000 H   0  0  0  0  0  0  0  0  0  0  0  0
   39.3470   30.9000   39.6630 H   0  0  0  0  0  0  0  0  0  0  0  0
   40.7210   32.0230   40.1100 H   0  0  0  0  0  0  0  0  0  0  0  0
   38.4960   31.0990   45.8920 C   0  0  0  0  0  0  0  0  0  0  0  0
   39.8320   31.0160   46.1530 C   0  0  0  0  0  0  0  0  0  0  0  0
   40.4550   31.3740   44.9590 C   0  0  0  0  0  0  0  0  0  0  0  0
   39.5220   31.6560   44.0390 N   0  0  0  0  0  0  0  0  0  0  0  0
   38.3270   31.4890   44.6070 N   0  0  0  0  0  0  0  0  0  0  0  0
   40.2940   30.7270   47.1000 H   0  0  0  0  0  0  0  0  0  0  0  0
   41.5550   31.3810   44.9210 H   0  0  0  0  0  0  0  0  0  0  0  0
   36.5210   30.6270   49.0410 C   0  0  0  0  0  0  0  0  0  0  0  0
   37.5760   30.9090   48.1950 C   0  0  0  0  0  0  0  0  0  0  0  0
   37.4330   30.8190   46.8290 C   0  0  0  0  0  0  0  0  0  0  0  0
   36.2180   30.4470   46.3700 N   0  0  0  0  0  0  0  0  0  0  0  0
   35.1840   30.1720   47.2180 C   0  0  0  0  0  0  0  0  0  0  0  0
   35.3200   30.2570   48.5220 N   0  0  0  0  0  0  0  0  0  0  0  0
   38.5740   31.2130   48.5250 H   0  0  0  0  0  0  0  0  0  0  0  0
   34.2130   29.8730   46.8230 H   0  0  0  0  0  0  0  0  0  0  0  0
   36.8630   30.7740   50.3900 O   0  0  0  0  0  0  0  0  0  0  0  0
   36.8960   29.6930   51.2950 C   0  0  0  0  0  0  0  0  0  0  0  0
   35.6270   29.2460   51.6310 F   0  0  0  0  0  0  0  0  0  0  0  0
   37.5940   30.0710   52.4080 F   0  0  0  0  0  0  0  0  0  0  0  0
   37.6010   28.6610   50.7030 F   0  0  0  0  0  0  0  0  0  0  0  0
   38.8000   30.0910   42.0050 O   0  0  0  0  0  0  0  0  0  0  0  0
   36.6320   28.7820   40.2010 Cl  0  0  0  0  0  0  0  0  0  0  0  0
   37.6200   27.9560   41.3690 C   0  0  0  0  0  0  0  0  0  0  0  0
   38.5020   28.7790   42.0310 C   0  0  0  0  0  0  0  0  0  0  0  0
   39.3070   28.1230   42.9770 C   0  0  0  0  0  0  0  0  0  0  0  0
   40.0790   28.5750   43.6220 H   0  0  0  0  0  0  0  0  0  0  0  0
   39.2280   26.7670   43.2280 C   0  0  0  0  0  3  0  0  0  0  0  0
   38.3140   26.0140   42.5180 C   0  0  0  0  0  0  0  0  0  0  0  0
   38.1330   24.2940   42.7570 Cl  0  0  0  0  0  0  0  0  0  0  0  0
   37.5040   26.6120   41.5800 C   0  0  0  0  0  0  0  0  0  0  0  0
   36.7720   26.0870   40.9920 H   0  0  0  0  0  0  0  0  0  0  0  0
  1  6  1  1  0  0  0
  1 32  1  0  0  0  0
  1  2  1  0  0  0  0
  2  7  1  6  0  0  0
  2 15  1  0  0  0  0
  3  9  1  0  0  0  0
  3  8  1  0  0  0  0
  3  2  1  0  0  0  0
  4  3  1  0  0  0  0
  5  4  1  0  0  0  0
  5  1  1  0  0  0  0
 10  5  1  0  0  0  0
 11  5  1  0  0  0  0
 12 13  1  0  0  0  0
 12 21  1  0  0  0  0
 13 17  1  0  0  0  0
 14 13  2  0  0  0  0
 15 16  1  0  0  0  0
 15 14  1  0  0  0  0
 16 12  2  0  0  0  0
 18 14  1  0  0  0  0
 19 27  1  0  0  0  0
 20 25  1  0  0  0  0
 20 19  2  0  0  0  0
 21 20  1  0  0  0  0
 22 21  2  0  0  0  0
 22 23  1  0  0  0  0
 23 24  2  0  0  0  0
 24 19  1  0  0  0  0
 26 23  1  0  0  0  0
 27 28  1  0  0  0  0
 28 29  1  0  0  0  0
 28 30  1  0  0  0  0
 31 28  1  0  0  0  0
 32 35  1  0  0  0  0
 33 34  1  0  0  0  0
 34 41  2  0  0  0  0
 34 35  1  0  0  0  0
 35 36  2  0  0  0  0
 36 38  1  0  0  0  0
 36 37  1  0  0  0  0
 39 40  1  0  0  0  0
 39 38  2  0  0  0  0
 41 39  1  0  0  0  0
 42 41  1  0  0  0  0
M  END
>  <minimizedAffinity>
-6.27886391

>  <minimizedRMSD>
0.611860394

$$$$
