
 OpenBabel03272510303D

 29 31  0  0  0  0  0  0  0  0999 V2000
   37.4270   31.2490   49.0100 C   0  0  0  0  0  0  0  0  0  0  0  0
   37.7820   32.5070   49.5000 C   0  0  0  0  0  0  0  0  0  0  0  0
   38.6980   33.2050   48.7470 C   0  0  0  0  0  0  0  0  0  0  0  0
   39.2020   32.6530   47.5930 N   0  0  0  0  0  0  0  0  0  0  0  0
   38.8230   31.4200   47.1570 C   0  0  0  0  0  0  0  0  0  0  0  0
   37.9140   30.6990   47.8830 N   0  0  0  0  0  0  0  0  0  0  0  0
   37.3430   32.8770   50.4190 H   0  0  0  0  0  0  0  0  0  0  0  0
   39.0190   34.1890   49.0690 H   0  0  0  0  0  0  0  0  0  0  0  0
   36.4010   30.4650   49.7900 C   0  0  0  0  0  0  0  0  0  0  0  0
   36.2750   29.0330   49.7090 C   0  0  0  0  0  0  0  0  0  0  0  0
   37.0260   29.6050   50.8980 C   0  0  0  0  0  0  0  0  0  0  0  0
   35.5220   31.0850   50.1150 H   0  0  0  0  0  0  0  0  0  0  0  0
   35.3010   28.5570   49.8680 H   0  0  0  0  0  0  0  0  0  0  0  0
   36.9030   28.5200   48.9270 H   0  0  0  0  0  0  0  0  0  0  0  0
   36.4640   29.6290   51.8390 H   0  0  0  0  0  0  0  0  0  0  0  0
   38.1220   29.5190   50.9580 H   0  0  0  0  0  0  0  0  0  0  0  0
   39.3370   30.8270   45.9250 C   0  0  0  0  0  0  0  0  0  0  0  0
   39.3040   29.7010   45.9990 H   0  0  0  0  0  0  0  0  0  0  0  0
   40.3790   31.1220   45.7140 H   0  0  0  0  0  0  0  0  0  0  0  0
   39.1270   28.6030   43.8330 Cl  0  0  0  0  0  0  0  0  0  0  0  0
   38.3530   30.1740   43.7920 C   0  0  0  0  0  0  0  0  0  0  0  0
   38.4610   31.1630   44.7470 C   0  0  0  0  0  0  0  0  0  0  0  0
   37.7830   32.3490   44.5620 C   0  0  0  0  0  0  0  0  0  0  0  0
   37.9060   33.0910   45.3460 H   0  0  0  0  0  0  0  0  0  0  0  0
   37.0110   32.5600   43.4560 C   0  0  0  0  0  3  0  0  0  0  0  0
   36.8930   31.5680   42.4800 C   0  0  0  0  0  0  0  0  0  0  0  0
   35.8920   31.8850   41.0810 Cl  0  0  0  0  0  0  0  0  0  0  0  0
   37.5680   30.3690   42.6520 C   0  0  0  0  0  0  0  0  0  0  0  0
   37.4300   29.6490   41.8590 H   0  0  0  0  0  0  0  0  0  0  0  0
  1  2  1  0  0  0  0
  1  9  1  0  0  0  0
  2  7  1  0  0  0  0
  3  8  1  0  0  0  0
  3  2  2  0  0  0  0
  4  3  1  0  0  0  0
  5  4  2  0  0  0  0
  5  6  1  0  0  0  0
  6  1  2  0  0  0  0
  9 12  1  0  0  0  0
  9 11  1  0  0  0  0
 10  9  1  0  0  0  0
 10 13  1  0  0  0  0
 10 11  1  0  0  0  0
 11 16  1  0  0  0  0
 11 15  1  0  0  0  0
 14 10  1  0  0  0  0
 17 18  1  0  0  0  0
 17  5  1  0  0  0  0
 19 17  1  0  0  0  0
 21 20  1  0  0  0  0
 21 22  1  0  0  0  0
 22 17  1  0  0  0  0
 23 22  2  0  0  0  0
 23 24  1  0  0  0  0
 25 23  1  0  0  0  0
 26 28  1  0  0  0  0
 26 25  2  0  0  0  0
 27 26  1  0  0  0  0
 28 21  2  0  0  0  0
 29 28  1  0  0  0  0
M  END
>  <minimizedAffinity>
-5.43681145

>  <minimizedRMSD>
0.400616825

$$$$
