
 OpenBabel03272500083D

 40 43  0  0  0  0  0  0  0  0999 V2000
   32.4700   27.0560   48.0790 O   0  0  0  0  0  0  0  0  0  0  0  0
   31.1470   27.4540   48.2760 C   0  0  0  0  0  0  0  0  0  0  0  0
   30.8300   27.7640   49.5800 C   0  0  0  0  0  0  0  0  0  0  0  0
   29.5570   28.1720   49.9120 C   0  0  0  0  0  0  0  0  0  0  0  0
   28.5900   28.2650   48.8970 C   0  0  0  0  0  0  0  0  0  0  0  0
   28.9220   27.9520   47.6010 C   0  0  0  0  0  0  0  0  0  0  0  0
   30.1880   27.5510   47.3000 C   0  0  0  0  0  0  0  0  0  0  0  0
   31.5450   27.7050   50.3870 H   0  0  0  0  0  0  0  0  0  0  0  0
   29.3220   28.4150   50.9540 H   0  0  0  0  0  0  0  0  0  0  0  0
   27.6060   28.5860   49.1900 H   0  0  0  0  0  0  0  0  0  0  0  0
   28.1360   28.0450   46.8740 H   0  0  0  0  0  0  0  0  0  0  0  0
   30.5430   30.0340   45.7820 Cl  0  0  0  0  0  0  0  0  0  0  0  0
   30.7190   28.3890   45.1900 C   0  0  0  0  0  0  0  0  0  0  0  0
   30.5430   27.2130   45.9270 C   0  0  0  0  0  0  0  0  0  0  0  0
   30.7240   26.0040   45.2900 C   0  0  0  0  0  0  0  0  0  0  0  0
   30.5600   25.1850   45.9740 H   0  0  0  0  0  0  0  0  0  0  0  0
   31.0700   25.9780   43.9560 C   0  0  0  0  0  0  0  0  0  0  0  0
   31.2460   27.1190   43.2190 C   0  0  0  0  0  0  0  0  0  0  0  0
   31.6840   26.9120   41.5340 Cl  0  0  0  0  0  0  0  0  0  0  0  0
   31.0690   28.3340   43.8380 C   0  0  0  0  0  0  0  0  0  0  0  0
   31.2210   29.1980   43.2050 H   0  0  0  0  0  0  0  0  0  0  0  0
   35.4000   28.8450   49.1500 C   0  0  0  0  0  0  0  0  0  0  0  0
   35.3350   30.0280   48.4100 C   0  0  0  0  0  0  0  0  0  0  0  0
   34.2610   30.1860   47.5410 C   0  0  0  0  0  0  0  0  0  0  0  0
   33.3380   29.1850   47.4610 N   0  0  0  0  0  0  0  0  0  0  0  0
   33.4240   28.0660   48.1780 C   0  0  0  0  0  0  0  0  0  0  0  0
   34.4670   27.8830   49.0390 N   0  0  0  0  0  0  0  0  0  0  0  0
   36.2100   28.6540   49.8480 H   0  0  0  0  0  0  0  0  0  0  0  0
   34.2180   31.0960   46.9780 H   0  0  0  0  0  0  0  0  0  0  0  0
   36.3630   30.9940   48.5840 N   0  0  0  0  0  0  0  0  0  0  0  0
   36.5220   31.6680   49.7190 C   0  0  0  0  0  0  0  0  0  0  0  0
   37.5520   32.5970   49.8130 C   0  0  0  0  0  0  0  0  0  0  0  0
   38.3310   32.7440   48.7120 C   0  0  0  0  0  0  0  0  0  0  0  0
   39.2690   33.5900   48.7980 O   0  0  0  0  0  0  0  0  0  0  0  0
   38.2020   32.0880   47.5610 N   0  0  0  0  0  0  0  0  0  0  0  0
   37.1860   31.1860   47.4980 C   0  0  0  0  0  0  0  0  0  0  0  0
   37.0490   30.5500   46.4060 O   0  0  0  0  0  0  0  0  0  0  0  0
   35.8690   31.5080   50.5660 H   0  0  0  0  0  0  0  0  0  0  0  0
   37.7220   33.1740   50.7220 H   0  0  0  0  0  0  0  0  0  0  0  0
   38.8300   32.2380   46.7390 H   0  0  0  0  0  0  0  0  0  0  0  0
  1 26  1  0  0  0  0
  1  2  1  0  0  0  0
  2  3  1  0  0  0  0
  3  4  2  0  0  0  0
  3  8  1  0  0  0  0
  4  9  1  0  0  0  0
  5 10  1  0  0  0  0
  5  4  1  0  0  0  0
  6  5  2  0  0  0  0
  7  6  1  0  0  0  0
  7  2  2  0  0  0  0
 11  6  1  0  0  0  0
 13 12  1  0  0  0  0
 13 14  1  0  0  0  0
 14  7  1  0  0  0  0
 15 14  2  0  0  0  0
 15 16  1  0  0  0  0
 17 15  1  0  0  0  0
 18 20  1  0  0  0  0
 18 17  2  0  0  0  0
 19 18  1  0  0  0  0
 20 13  2  0  0  0  0
 21 20  1  0  0  0  0
 22 28  1  0  0  0  0
 23 30  1  0  0  0  0
 23 22  2  0  0  0  0
 24 23  1  0  0  0  0
 25 24  2  0  0  0  0
 25 26  1  0  0  0  0
 26 27  2  0  0  0  0
 27 22  1  0  0  0  0
 29 24  1  0  0  0  0
 30 31  1  0  0  0  0
 31 32  2  0  0  0  0
 31 38  1  0  0  0  0
 32 39  1  0  0  0  0
 33 34  2  0  0  0  0
 33 32  1  0  0  0  0
 35 33  1  0  0  0  0
 36 35  1  0  0  0  0
 36 30  1  0  0  0  0
 37 36  2  0  0  0  0
 40 35  1  0  0  0  0
M  END
>  <minimizedAffinity>
-5.9170928

>  <minimizedRMSD>
0.465705305

$$$$
