
 OpenBabel03262522133D

 34 36  0  0  0  0  0  0  0  0999 V2000
   35.8520   28.7720   33.5190 C   0  0  0  0  0  0  0  0  0  0  0  0
   36.2160   28.6100   32.1730 C   0  0  0  0  0  0  0  0  0  0  0  0
   37.3180   27.8610   31.8470 C   0  0  0  0  0  0  0  0  0  0  0  0
   38.0200   27.2970   32.8950 C   0  0  0  0  0  0  0  0  0  0  0  0
   37.6420   27.4720   34.1840 C   0  0  0  0  0  0  0  0  0  0  0  0
   36.5470   28.2130   34.5570 N   0  0  0  0  0  0  0  0  0  0  0  0
   35.6230   29.0780   31.4040 H   0  0  0  0  0  0  0  0  0  0  0  0
   37.5970   27.7380   30.8270 H   0  0  0  0  0  0  0  0  0  0  0  0
   38.8890   26.7070   32.6360 H   0  0  0  0  0  0  0  0  0  0  0  0
   34.6740   29.5740   33.7870 C   0  0  0  0  0  0  0  0  0  0  0  0
   33.6850   29.5100   33.0510 O   0  0  0  0  0  0  0  0  0  0  0  0
   33.4180   30.5550   35.6780 C   0  0  0  0  0  0  0  0  0  0  0  0
   34.6000   30.4930   34.9320 C   0  0  0  0  0  0  0  0  0  0  0  0
   35.7040   31.3050   35.2810 C   0  0  0  0  0  0  0  0  0  0  0  0
   35.5330   32.1330   36.3740 N   0  0  0  0  0  0  0  0  0  0  0  0
   34.3790   32.1660   37.0690 C   0  0  0  0  0  0  0  0  0  0  0  0
   33.3610   31.4020   36.7300 N   0  0  0  0  0  0  0  0  0  0  0  0
   32.5580   29.9530   35.4420 H   0  0  0  0  0  0  0  0  0  0  0  0
   36.5680   31.2080   34.6750 H   0  0  0  0  0  0  0  0  0  0  0  0
   34.4980   32.8850   37.8670 H   0  0  0  0  0  0  0  0  0  0  0  0
   38.5660   26.7250   35.5500 S   0  0  0  0  0  0  0  0  0  0  0  0
   37.9070   25.0570   35.7500 C   0  0  0  0  0  0  0  0  0  0  0  0
   37.0150   25.0280   36.4250 H   0  0  0  0  0  0  0  0  0  0  0  0
   37.4930   24.7040   34.7590 H   0  0  0  0  0  0  0  0  0  0  0  0
   37.8960   24.2730   38.7060 Cl  0  0  0  0  0  0  0  0  0  0  0  0
   39.0100   23.6330   37.5160 C   0  0  0  0  0  0  0  0  0  0  0  0
   38.9140   24.0630   36.1890 C   0  0  0  0  0  0  0  0  0  0  0  0
   39.8370   23.4970   35.3420 C   0  0  0  0  0  0  0  0  0  0  0  0
   39.7490   23.8440   34.3010 H   0  0  0  0  0  0  0  0  0  0  0  0
   40.8260   22.5800   35.6180 C   0  0  0  0  0  3  0  0  0  0  0  0
   40.8820   22.1810   36.9580 C   0  0  0  0  0  0  0  0  0  0  0  0
   42.1190   21.0150   37.3860 Cl  0  0  0  0  0  0  0  0  0  0  0  0
   39.9830   22.7030   37.8950 C   0  0  0  0  0  0  0  0  0  0  0  0
   40.0740   22.3570   38.9180 H   0  0  0  0  0  0  0  0  0  0  0  0
  1 10  1  0  0  0  0
  1  6  1  0  0  0  0
  2  1  2  0  0  0  0
  3  2  1  0  0  0  0
  3  4  2  0  0  0  0
  4  5  1  0  0  0  0
  5  6  2  0  0  0  0
  5 21  1  0  0  0  0
  7  2  1  0  0  0  0
  8  3  1  0  0  0  0
  9  4  1  0  0  0  0
 10 13  1  0  0  0  0
 11 10  2  0  0  0  0
 12 17  1  0  0  0  0
 13 14  1  0  0  0  0
 13 12  2  0  0  0  0
 14 15  2  0  0  0  0
 15 16  1  0  0  0  0
 16 20  1  0  0  0  0
 17 16  2  0  0  0  0
 18 12  1  0  0  0  0
 19 14  1  0  0  0  0
 21 22  1  0  0  0  0
 22 27  1  0  0  0  0
 22 23  1  0  0  0  0
 24 22  1  0  0  0  0
 26 33  1  0  0  0  0
 26 25  1  0  0  0  0
 27 26  2  0  0  0  0
 28 30  2  0  0  0  0
 28 27  1  0  0  0  0
 29 28  1  0  0  0  0
 30 31  1  0  0  0  0
 31 32  1  0  0  0  0
 31 33  2  0  0  0  0
 33 34  1  0  0  0  0
M  END
>  <minimizedAffinity>
-5.93551159

$$$$

 OpenBabel03262522133D

 34 36  0  0  0  0  0  0  0  0999 V2000
   39.6240   22.9590   36.3290 C   0  0  0  0  0  0  0  0  0  0  0  0
   40.4740   22.1060   37.0510 C   0  0  0  0  0  0  0  0  0  0  0  0
   41.8330   22.1960   36.8890 C   0  0  0  0  0  0  0  0  0  0  0  0
   42.2920   23.1470   36.0000 C   0  0  0  0  0  0  0  0  0  0  0  0
   41.4460   23.9550   35.3170 C   0  0  0  0  0  0  0  0  0  0  0  0
   40.0800   23.9020   35.4480 N   0  0  0  0  0  0  0  0  0  0  0  0
   40.0480   21.3850   37.7300 H   0  0  0  0  0  0  0  0  0  0  0  0
   42.4780   21.5490   37.4360 H   0  0  0  0  0  0  0  0  0  0  0  0
   43.3650   23.2160   35.8730 H   0  0  0  0  0  0  0  0  0  0  0  0
   38.1990   22.8080   36.5540 C   0  0  0  0  0  0  0  0  0  0  0  0
   37.6540   23.3390   37.5250 O   0  0  0  0  0  0  0  0  0  0  0  0
   37.6600   21.9840   34.2850 C   0  0  0  0  0  0  0  0  0  0  0  0
   37.3450   22.0260   35.6480 C   0  0  0  0  0  0  0  0  0  0  0  0
   36.2220   21.3230   36.1400 C   0  0  0  0  0  0  0  0  0  0  0  0
   35.4850   20.6180   35.2080 N   0  0  0  0  0  0  0  0  0  0  0  0
   35.8180   20.6000   33.9020 C   0  0  0  0  0  0  0  0  0  0  0  0
   36.8690   21.2610   33.4620 N   0  0  0  0  0  0  0  0  0  0  0  0
   38.5070   22.5070   33.8760 H   0  0  0  0  0  0  0  0  0  0  0  0
   36.0410   21.3960   37.1820 H   0  0  0  0  0  0  0  0  0  0  0  0
   35.0930   19.9850   33.3870 H   0  0  0  0  0  0  0  0  0  0  0  0
   42.0600   25.2020   34.1570 S   0  0  0  0  0  0  0  0  0  0  0  0
   41.2080   26.7390   34.5740 C   0  0  0  0  0  0  0  0  0  0  0  0
   40.9590   26.8090   35.6620 H   0  0  0  0  0  0  0  0  0  0  0  0
   41.9170   27.6060   34.4140 H   0  0  0  0  0  0  0  0  0  0  0  0
   38.5510   27.0280   36.0590 Cl  0  0  0  0  0  0  0  0  0  0  0  0
   38.7310   27.1390   34.3210 C   0  0  0  0  0  0  0  0  0  0  0  0
   40.0020   26.9960   33.7550 C   0  0  0  0  0  0  0  0  0  0  0  0
   40.0250   27.1010   32.3840 C   0  0  0  0  0  0  0  0  0  0  0  0
   41.0320   26.9880   31.9520 H   0  0  0  0  0  0  0  0  0  0  0  0
   38.9870   27.3240   31.5090 C   0  0  0  0  0  3  0  0  0  0  0  0
   37.7370   27.4600   32.1220 C   0  0  0  0  0  0  0  0  0  0  0  0
   36.3650   27.7440   31.0700 Cl  0  0  0  0  0  0  0  0  0  0  0  0
   37.6120   27.3690   33.5130 C   0  0  0  0  0  0  0  0  0  0  0  0
   36.6200   27.4820   33.9320 H   0  0  0  0  0  0  0  0  0  0  0  0
  1 10  1  0  0  0  0
  1  2  1  0  0  0  0
  2  7  1  0  0  0  0
  3  2  2  0  0  0  0
  3  8  1  0  0  0  0
  4  3  1  0  0  0  0
  5  6  1  0  0  0  0
  5  4  2  0  0  0  0
  6  1  2  0  0  0  0
  9  4  1  0  0  0  0
 10 11  2  0  0  0  0
 12 13  1  0  0  0  0
 13 14  2  0  0  0  0
 13 10  1  0  0  0  0
 14 19  1  0  0  0  0
 15 14  1  0  0  0  0
 16 15  2  0  0  0  0
 17 16  1  0  0  0  0
 17 12  2  0  0  0  0
 18 12  1  0  0  0  0
 20 16  1  0  0  0  0
 21 22  1  0  0  0  0
 21  5  1  0  0  0  0
 22 23  1  0  0  0  0
 24 22  1  0  0  0  0
 26 25  1  0  0  0  0
 27 26  1  0  0  0  0
 27 22  1  0  0  0  0
 28 27  2  0  0  0  0
 29 28  1  0  0  0  0
 30 31  2  0  0  0  0
 30 28  1  0  0  0  0
 31 33  1  0  0  0  0
 32 31  1  0  0  0  0
 33 34  1  0  0  0  0
 33 26  2  0  0  0  0
M  END
>  <minimizedAffinity>
-5.61911678

$$$$

 OpenBabel03262522133D

 34 36  0  0  0  0  0  0  0  0999 V2000
   38.1150   25.1420   35.5380 C   0  0  0  0  0  0  0  0  0  0  0  0
   38.3920   26.4270   36.0310 C   0  0  0  0  0  0  0  0  0  0  0  0
   38.1240   27.5290   35.2600 C   0  0  0  0  0  0  0  0  0  0  0  0
   37.5820   27.2980   34.0110 C   0  0  0  0  0  0  0  0  0  0  0  0
   37.3260   26.0460   33.5640 C   0  0  0  0  0  0  0  0  0  0  0  0
   37.5770   24.9140   34.3000 N   0  0  0  0  0  0  0  0  0  0  0  0
   38.8160   26.5360   37.0170 H   0  0  0  0  0  0  0  0  0  0  0  0
   38.3360   28.5040   35.6330 H   0  0  0  0  0  0  0  0  0  0  0  0
   37.3720   28.1690   33.4050 H   0  0  0  0  0  0  0  0  0  0  0  0
   38.4220   24.0250   36.4110 C   0  0  0  0  0  0  0  0  0  0  0  0
   37.5680   23.5660   37.1730 O   0  0  0  0  0  0  0  0  0  0  0  0
   40.0650   22.5090   37.4670 C   0  0  0  0  0  0  0  0  0  0  0  0
   39.7490   23.3930   36.4300 C   0  0  0  0  0  0  0  0  0  0  0  0
   40.6970   23.6690   35.4180 C   0  0  0  0  0  0  0  0  0  0  0  0
   41.9140   23.0240   35.5270 N   0  0  0  0  0  0  0  0  0  0  0  0
   42.1840   22.1780   36.5410 C   0  0  0  0  0  0  0  0  0  0  0  0
   41.2880   21.9330   37.4750 N   0  0  0  0  0  0  0  0  0  0  0  0
   39.3700   22.2750   38.2550 H   0  0  0  0  0  0  0  0  0  0  0  0
   40.3920   24.3470   34.6620 H   0  0  0  0  0  0  0  0  0  0  0  0
   43.1890   21.8090   36.4000 H   0  0  0  0  0  0  0  0  0  0  0  0
   36.6110   25.7550   31.9270 S   0  0  0  0  0  0  0  0  0  0  0  0
   37.5860   24.4320   31.1790 C   0  0  0  0  0  0  0  0  0  0  0  0
   37.8020   24.6190   30.0980 H   0  0  0  0  0  0  0  0  0  0  0  0
   38.6130   24.4220   31.6510 H   0  0  0  0  0  0  0  0  0  0  0  0
   39.2370   22.0560   30.1910 Cl  0  0  0  0  0  0  0  0  0  0  0  0
   37.6600   21.9220   30.9400 C   0  0  0  0  0  0  0  0  0  0  0  0
   37.0020   23.0830   31.3580 C   0  0  0  0  0  0  0  0  0  0  0  0
   35.7720   22.8600   31.9310 C   0  0  0  0  0  0  0  0  0  0  0  0
   35.2660   23.7830   32.2570 H   0  0  0  0  0  0  0  0  0  0  0  0
   35.1120   21.6720   32.1450 C   0  0  0  0  0  3  0  0  0  0  0  0
   35.8090   20.5400   31.7100 C   0  0  0  0  0  0  0  0  0  0  0  0
   35.0300   18.9890   31.9480 Cl  0  0  0  0  0  0  0  0  0  0  0  0
   37.0700   20.6660   31.1140 C   0  0  0  0  0  0  0  0  0  0  0  0
   37.5630   19.7550   30.7970 H   0  0  0  0  0  0  0  0  0  0  0  0
  1  2  1  0  0  0  0
  1 10  1  0  0  0  0
  2  7  1  0  0  0  0
  3  8  1  0  0  0  0
  3  2  2  0  0  0  0
  4  3  1  0  0  0  0
  5  4  2  0  0  0  0
  5  6  1  0  0  0  0
  6  1  2  0  0  0  0
  9  4  1  0  0  0  0
 10 13  1  0  0  0  0
 10 11  2  0  0  0  0
 12 17  1  0  0  0  0
 12 18  1  0  0  0  0
 13 12  2  0  0  0  0
 14 15  2  0  0  0  0
 14 13  1  0  0  0  0
 15 16  1  0  0  0  0
 16 17  2  0  0  0  0
 19 14  1  0  0  0  0
 20 16  1  0  0  0  0
 21  5  1  0  0  0  0
 22 27  1  0  0  0  0
 22 24  1  0  0  0  0
 22 21  1  0  0  0  0
 23 22  1  0  0  0  0
 25 26  1  0  0  0  0
 26 33  2  0  0  0  0
 26 27  1  0  0  0  0
 27 28  2  0  0  0  0
 28 30  1  0  0  0  0
 28 29  1  0  0  0  0
 31 32  1  0  0  0  0
 31 30  2  0  0  0  0
 33 31  1  0  0  0  0
 34 33  1  0  0  0  0
M  END
>  <minimizedAffinity>
-5.57835007

$$$$

 OpenBabel03262522133D

 34 36  0  0  0  0  0  0  0  0999 V2000
   37.6720   22.0690   35.1760 C   0  0  0  0  0  0  0  0  0  0  0  0
   36.7100   21.4900   36.0190 C   0  0  0  0  0  0  0  0  0  0  0  0
   35.6670   20.7780   35.4820 C   0  0  0  0  0  0  0  0  0  0  0  0
   35.6290   20.6740   34.1060 C   0  0  0  0  0  0  0  0  0  0  0  0
   36.5730   21.2440   33.3190 C   0  0  0  0  0  0  0  0  0  0  0  0
   37.6340   21.9640   33.8120 N   0  0  0  0  0  0  0  0  0  0  0  0
   36.8010   21.6100   37.0870 H   0  0  0  0  0  0  0  0  0  0  0  0
   34.9370   20.3400   36.1210 H   0  0  0  0  0  0  0  0  0  0  0  0
   34.8050   20.1130   33.6850 H   0  0  0  0  0  0  0  0  0  0  0  0
   38.7470   22.8030   35.8150 C   0  0  0  0  0  0  0  0  0  0  0  0
   39.5770   22.2230   36.5190 O   0  0  0  0  0  0  0  0  0  0  0  0
   40.0760   24.7610   35.0960 C   0  0  0  0  0  0  0  0  0  0  0  0
   38.8980   24.2570   35.6590 C   0  0  0  0  0  0  0  0  0  0  0  0
   37.8720   25.1400   36.0680 C   0  0  0  0  0  0  0  0  0  0  0  0
   38.1120   26.4870   35.8780 N   0  0  0  0  0  0  0  0  0  0  0  0
   39.2590   26.9360   35.3320 C   0  0  0  0  0  0  0  0  0  0  0  0
   40.2040   26.0990   34.9560 N   0  0  0  0  0  0  0  0  0  0  0  0
   40.8780   24.1200   34.7740 H   0  0  0  0  0  0  0  0  0  0  0  0
   37.0060   24.6920   36.4860 H   0  0  0  0  0  0  0  0  0  0  0  0
   39.2020   28.0150   35.2920 H   0  0  0  0  0  0  0  0  0  0  0  0
   36.5150   21.0960   31.5160 S   0  0  0  0  0  0  0  0  0  0  0  0
   37.6330   22.3590   30.8710 C   0  0  0  0  0  0  0  0  0  0  0  0
   38.6780   22.2380   31.2510 H   0  0  0  0  0  0  0  0  0  0  0  0
   37.7450   22.2150   29.7550 H   0  0  0  0  0  0  0  0  0  0  0  0
   39.7470   24.4460   31.5970 Cl  0  0  0  0  0  0  0  0  0  0  0  0
   38.0360   24.7830   31.4380 C   0  0  0  0  0  0  0  0  0  0  0  0
   37.1640   23.7450   31.0950 C   0  0  0  0  0  0  0  0  0  0  0  0
   35.8460   24.1230   30.9990 C   0  0  0  0  0  0  0  0  0  0  0  0
   35.1710   23.2960   30.7270 H   0  0  0  0  0  0  0  0  0  0  0  0
   35.2770   25.3610   31.1910 C   0  0  0  0  0  3  0  0  0  0  0  0
   36.1890   26.3660   31.5330 C   0  0  0  0  0  0  0  0  0  0  0  0
   35.5380   27.9710   31.7950 Cl  0  0  0  0  0  0  0  0  0  0  0  0
   37.5530   26.0780   31.6540 C   0  0  0  0  0  0  0  0  0  0  0  0
   38.2120   26.8950   31.9210 H   0  0  0  0  0  0  0  0  0  0  0  0
  1 10  1  0  0  0  0
  1  2  1  0  0  0  0
  2  7  1  0  0  0  0
  3  2  2  0  0  0  0
  3  8  1  0  0  0  0
  4  3  1  0  0  0  0
  5  6  1  0  0  0  0
  5  4  2  0  0  0  0
  6  1  2  0  0  0  0
  9  4  1  0  0  0  0
 10 11  2  0  0  0  0
 12 13  1  0  0  0  0
 13 10  1  0  0  0  0
 13 14  2  0  0  0  0
 14 19  1  0  0  0  0
 15 14  1  0  0  0  0
 16 15  2  0  0  0  0
 17 12  2  0  0  0  0
 17 16  1  0  0  0  0
 18 12  1  0  0  0  0
 20 16  1  0  0  0  0
 21  5  1  0  0  0  0
 22 27  1  0  0  0  0
 22 23  1  0  0  0  0
 22 21  1  0  0  0  0
 24 22  1  0  0  0  0
 26 25  1  0  0  0  0
 26 33  1  0  0  0  0
 27 26  2  0  0  0  0
 28 27  1  0  0  0  0
 28 30  2  0  0  0  0
 29 28  1  0  0  0  0
 30 31  1  0  0  0  0
 31 33  2  0  0  0  0
 31 32  1  0  0  0  0
 33 34  1  0  0  0  0
M  END
>  <minimizedAffinity>
-5.56796598

$$$$

 OpenBabel03262522133D

 34 36  0  0  0  0  0  0  0  0999 V2000
   37.4340   26.3760   33.4770 C   0  0  0  0  0  0  0  0  0  0  0  0
   37.3570   27.5040   34.3100 C   0  0  0  0  0  0  0  0  0  0  0  0
   37.8640   27.4510   35.5830 C   0  0  0  0  0  0  0  0  0  0  0  0
   38.4340   26.2560   35.9760 C   0  0  0  0  0  0  0  0  0  0  0  0
   38.4930   25.1850   35.1490 C   0  0  0  0  0  0  0  0  0  0  0  0
   38.0000   25.1930   33.8670 N   0  0  0  0  0  0  0  0  0  0  0  0
   36.8980   28.4060   33.9390 H   0  0  0  0  0  0  0  0  0  0  0  0
   37.8050   28.3050   36.2160 H   0  0  0  0  0  0  0  0  0  0  0  0
   38.8330   26.2160   36.9810 H   0  0  0  0  0  0  0  0  0  0  0  0
   36.8800   26.5080   32.1430 C   0  0  0  0  0  0  0  0  0  0  0  0
   35.8860   25.8610   31.8050 O   0  0  0  0  0  0  0  0  0  0  0  0
   36.6210   28.2060   30.3630 C   0  0  0  0  0  0  0  0  0  0  0  0
   37.4680   27.4090   31.1400 C   0  0  0  0  0  0  0  0  0  0  0  0
   38.8690   27.4740   30.9590 C   0  0  0  0  0  0  0  0  0  0  0  0
   39.3200   28.3510   29.9920 N   0  0  0  0  0  0  0  0  0  0  0  0
   38.4740   29.1040   29.2610 C   0  0  0  0  0  0  0  0  0  0  0  0
   37.1720   29.0300   29.4440 N   0  0  0  0  0  0  0  0  0  0  0  0
   35.5500   28.1820   30.4720 H   0  0  0  0  0  0  0  0  0  0  0  0
   39.4520   26.8440   31.5810 H   0  0  0  0  0  0  0  0  0  0  0  0
   39.0680   29.6990   28.5830 H   0  0  0  0  0  0  0  0  0  0  0  0
   39.2470   23.6250   35.6730 S   0  0  0  0  0  0  0  0  0  0  0  0
   37.8850   22.5470   36.1620 C   0  0  0  0  0  0  0  0  0  0  0  0
   38.1680   21.8480   36.9880 H   0  0  0  0  0  0  0  0  0  0  0  0
   37.0660   23.1750   36.6230 H   0  0  0  0  0  0  0  0  0  0  0  0
   35.2720   21.0590   36.7170 Cl  0  0  0  0  0  0  0  0  0  0  0  0
   36.0960   21.0690   35.1730 C   0  0  0  0  0  0  0  0  0  0  0  0
   37.2850   21.7930   35.0380 C   0  0  0  0  0  0  0  0  0  0  0  0
   37.8450   21.7300   33.7830 C   0  0  0  0  0  0  0  0  0  0  0  0
   38.7800   22.3060   33.6910 H   0  0  0  0  0  0  0  0  0  0  0  0
   37.4050   21.0630   32.6630 C   0  0  0  0  0  3  0  0  0  0  0  0
   36.2130   20.3540   32.8490 C   0  0  0  0  0  0  0  0  0  0  0  0
   35.5890   19.4770   31.4650 Cl  0  0  0  0  0  0  0  0  0  0  0  0
   35.5670   20.3580   34.0900 C   0  0  0  0  0  0  0  0  0  0  0  0
   34.6480   19.7910   34.1750 H   0  0  0  0  0  0  0  0  0  0  0  0
  1  6  2  0  0  0  0
  1  2  1  0  0  0  0
  2  3  2  0  0  0  0
  3  4  1  0  0  0  0
  3  8  1  0  0  0  0
  4  9  1  0  0  0  0
  5 21  1  0  0  0  0
  5  4  2  0  0  0  0
  6  5  1  0  0  0  0
  7  2  1  0  0  0  0
 10  1  1  0  0  0  0
 11 10  2  0  0  0  0
 12 18  1  0  0  0  0
 12 13  1  0  0  0  0
 13 10  1  0  0  0  0
 14 13  2  0  0  0  0
 14 19  1  0  0  0  0
 15 14  1  0  0  0  0
 16 17  1  0  0  0  0
 16 15  2  0  0  0  0
 17 12  2  0  0  0  0
 20 16  1  0  0  0  0
 21 22  1  0  0  0  0
 22 24  1  0  0  0  0
 22 23  1  0  0  0  0
 26 25  1  0  0  0  0
 27 26  1  0  0  0  0
 27 22  1  0  0  0  0
 28 27  2  0  0  0  0
 29 28  1  0  0  0  0
 30 31  2  0  0  0  0
 30 28  1  0  0  0  0
 31 33  1  0  0  0  0
 32 31  1  0  0  0  0
 33 34  1  0  0  0  0
 33 26  2  0  0  0  0
M  END
>  <minimizedAffinity>
-5.55181456

$$$$

 OpenBabel03262522133D

 34 36  0  0  0  0  0  0  0  0999 V2000
   38.9480   24.3990   35.7520 C   0  0  0  0  0  0  0  0  0  0  0  0
   38.1720   25.2520   36.5540 C   0  0  0  0  0  0  0  0  0  0  0  0
   38.2300   26.6090   36.3660 C   0  0  0  0  0  0  0  0  0  0  0  0
   39.0720   27.0640   35.3700 C   0  0  0  0  0  0  0  0  0  0  0  0
   39.8080   26.2160   34.6130 C   0  0  0  0  0  0  0  0  0  0  0  0
   39.7820   24.8510   34.7650 N   0  0  0  0  0  0  0  0  0  0  0  0
   37.5350   24.8290   37.3140 H   0  0  0  0  0  0  0  0  0  0  0  0
   37.6420   27.2560   36.9740 H   0  0  0  0  0  0  0  0  0  0  0  0
   39.1160   28.1360   35.2240 H   0  0  0  0  0  0  0  0  0  0  0  0
   38.8330   22.9760   36.0060 C   0  0  0  0  0  0  0  0  0  0  0  0
   39.6680   22.3890   36.7000 O   0  0  0  0  0  0  0  0  0  0  0  0
   37.6890   21.9300   34.0800 C   0  0  0  0  0  0  0  0  0  0  0  0
   37.7310   22.1730   35.4570 C   0  0  0  0  0  0  0  0  0  0  0  0
   36.7260   21.6500   36.3020 C   0  0  0  0  0  0  0  0  0  0  0  0
   35.7350   20.9090   35.6880 N   0  0  0  0  0  0  0  0  0  0  0  0
   35.7260   20.6950   34.3570 C   0  0  0  0  0  0  0  0  0  0  0  0
   36.6710   21.1900   33.5860 N   0  0  0  0  0  0  0  0  0  0  0  0
   38.4360   22.3120   33.4060 H   0  0  0  0  0  0  0  0  0  0  0  0
   36.8180   21.8710   37.3350 H   0  0  0  0  0  0  0  0  0  0  0  0
   34.8580   20.0940   34.1280 H   0  0  0  0  0  0  0  0  0  0  0  0
   40.9050   26.8240   33.3080 S   0  0  0  0  0  0  0  0  0  0  0  0
   39.8450   27.2110   31.8990 C   0  0  0  0  0  0  0  0  0  0  0  0
   39.4340   28.2500   31.9460 H   0  0  0  0  0  0  0  0  0  0  0  0
   40.4730   27.2240   30.9590 H   0  0  0  0  0  0  0  0  0  0  0  0
   37.0150   28.1150   32.6240 Cl  0  0  0  0  0  0  0  0  0  0  0  0
   37.4170   26.5340   31.9880 C   0  0  0  0  0  0  0  0  0  0  0  0
   38.7500   26.2370   31.6870 C   0  0  0  0  0  0  0  0  0  0  0  0
   38.9500   24.9690   31.1960 C   0  0  0  0  0  0  0  0  0  0  0  0
   40.0040   24.7490   30.9620 H   0  0  0  0  0  0  0  0  0  0  0  0
   38.0340   23.9690   30.9640 C   0  0  0  0  0  3  0  0  0  0  0  0
   36.7150   24.3130   31.2810 C   0  0  0  0  0  0  0  0  0  0  0  0
   35.4900   23.0880   31.0130 Cl  0  0  0  0  0  0  0  0  0  0  0  0
   36.4120   25.5820   31.7870 C   0  0  0  0  0  0  0  0  0  0  0  0
   35.3730   25.7920   32.0140 H   0  0  0  0  0  0  0  0  0  0  0  0
  1 10  1  0  0  0  0
  1  2  1  0  0  0  0
  2  7  1  0  0  0  0
  3  2  2  0  0  0  0
  3  8  1  0  0  0  0
  4  3  1  0  0  0  0
  5  6  1  0  0  0  0
  5  4  2  0  0  0  0
  6  1  2  0  0  0  0
  9  4  1  0  0  0  0
 10 11  2  0  0  0  0
 12 13  1  0  0  0  0
 13 10  1  0  0  0  0
 13 14  2  0  0  0  0
 14 19  1  0  0  0  0
 15 14  1  0  0  0  0
 16 15  2  0  0  0  0
 17 12  2  0  0  0  0
 17 16  1  0  0  0  0
 18 12  1  0  0  0  0
 20 16  1  0  0  0  0
 21  5  1  0  0  0  0
 22 23  1  0  0  0  0
 22 21  1  0  0  0  0
 24 22  1  0  0  0  0
 26 25  1  0  0  0  0
 27 22  1  0  0  0  0
 27 26  2  0  0  0  0
 28 27  1  0  0  0  0
 29 28  1  0  0  0  0
 30 28  2  0  0  0  0
 30 31  1  0  0  0  0
 31 33  2  0  0  0  0
 32 31  1  0  0  0  0
 33 26  1  0  0  0  0
 33 34  1  0  0  0  0
M  END
>  <minimizedAffinity>
-5.40672779

$$$$

 OpenBabel03262522133D

 34 36  0  0  0  0  0  0  0  0999 V2000
   37.3620   22.7810   32.8410 C   0  0  0  0  0  0  0  0  0  0  0  0
   36.4350   21.9880   32.1440 C   0  0  0  0  0  0  0  0  0  0  0  0
   35.5040   22.5800   31.3290 C   0  0  0  0  0  0  0  0  0  0  0  0
   35.5360   23.9580   31.2450 C   0  0  0  0  0  0  0  0  0  0  0  0
   36.4430   24.6950   31.9300 C   0  0  0  0  0  0  0  0  0  0  0  0
   37.3940   24.1470   32.7550 N   0  0  0  0  0  0  0  0  0  0  0  0
   36.4660   20.9160   32.2560 H   0  0  0  0  0  0  0  0  0  0  0  0
   34.8000   21.9790   30.8010 H   0  0  0  0  0  0  0  0  0  0  0  0
   34.8000   24.4220   30.6020 H   0  0  0  0  0  0  0  0  0  0  0  0
   38.3190   22.0850   33.6800 C   0  0  0  0  0  0  0  0  0  0  0  0
   38.9600   21.1260   33.2440 O   0  0  0  0  0  0  0  0  0  0  0  0
   39.8620   22.8620   35.4490 C   0  0  0  0  0  0  0  0  0  0  0  0
   38.5680   22.4850   35.0720 C   0  0  0  0  0  0  0  0  0  0  0  0
   37.5220   22.4900   36.0230 C   0  0  0  0  0  0  0  0  0  0  0  0
   37.8600   22.8810   37.3040 N   0  0  0  0  0  0  0  0  0  0  0  0
   39.1180   23.2380   37.6310 C   0  0  0  0  0  0  0  0  0  0  0  0
   40.0810   23.2270   36.7320 N   0  0  0  0  0  0  0  0  0  0  0  0
   40.6830   22.8690   34.7530 H   0  0  0  0  0  0  0  0  0  0  0  0
   36.5670   22.1940   35.6710 H   0  0  0  0  0  0  0  0  0  0  0  0
   39.1230   23.4990   38.6790 H   0  0  0  0  0  0  0  0  0  0  0  0
   36.4800   26.5000   31.8070 S   0  0  0  0  0  0  0  0  0  0  0  0
   37.1010   27.1000   33.3930 C   0  0  0  0  0  0  0  0  0  0  0  0
   36.7330   28.1280   33.6340 H   0  0  0  0  0  0  0  0  0  0  0  0
   36.6640   26.4670   34.2210 H   0  0  0  0  0  0  0  0  0  0  0  0
   38.2380   26.4470   36.1550 Cl  0  0  0  0  0  0  0  0  0  0  0  0
   39.2100   26.7580   34.7330 C   0  0  0  0  0  0  0  0  0  0  0  0
   38.5750   27.0410   33.5200 C   0  0  0  0  0  0  0  0  0  0  0  0
   39.4350   27.2690   32.4710 C   0  0  0  0  0  0  0  0  0  0  0  0
   38.9210   27.4900   31.5220 H   0  0  0  0  0  0  0  0  0  0  0  0
   40.8110   27.2580   32.4530 C   0  0  0  0  0  3  0  0  0  0  0  0
   41.3990   26.9710   33.6900 C   0  0  0  0  0  0  0  0  0  0  0  0
   43.1500   26.9410   33.7460 Cl  0  0  0  0  0  0  0  0  0  0  0  0
   40.6060   26.7240   34.8160 C   0  0  0  0  0  0  0  0  0  0  0  0
   41.1170   26.5070   35.7470 H   0  0  0  0  0  0  0  0  0  0  0  0
  1 10  1  0  0  0  0
  2  7  1  0  0  0  0
  2  1  2  0  0  0  0
  3  2  1  0  0  0  0
  4  3  2  0  0  0  0
  4  5  1  0  0  0  0
  5  6  2  0  0  0  0
  6  1  1  0  0  0  0
  8  3  1  0  0  0  0
  9  4  1  0  0  0  0
 10 13  1  0  0  0  0
 11 10  2  0  0  0  0
 12 17  1  0  0  0  0
 13 12  2  0  0  0  0
 13 14  1  0  0  0  0
 14 15  2  0  0  0  0
 15 16  1  0  0  0  0
 16 20  1  0  0  0  0
 17 16  2  0  0  0  0
 18 12  1  0  0  0  0
 19 14  1  0  0  0  0
 21  5  1  0  0  0  0
 21 22  1  0  0  0  0
 22 27  1  0  0  0  0
 22 23  1  0  0  0  0
 22 24  1  0  0  0  0
 26 33  1  0  0  0  0
 26 25  1  0  0  0  0
 27 26  2  0  0  0  0
 28 27  1  0  0  0  0
 29 28  1  0  0  0  0
 30 28  2  0  0  0  0
 30 31  1  0  0  0  0
 31 32  1  0  0  0  0
 31 33  2  0  0  0  0
 33 34  1  0  0  0  0
M  END
>  <minimizedAffinity>
-5.38539505

$$$$

 OpenBabel03262522133D

 34 36  0  0  0  0  0  0  0  0999 V2000
   38.2660   23.0840   35.1020 C   0  0  0  0  0  0  0  0  0  0  0  0
   38.0440   22.5370   36.3760 C   0  0  0  0  0  0  0  0  0  0  0  0
   37.9170   23.3630   37.4630 C   0  0  0  0  0  0  0  0  0  0  0  0
   38.0190   24.7200   37.2290 C   0  0  0  0  0  0  0  0  0  0  0  0
   38.2330   25.2170   35.9870 C   0  0  0  0  0  0  0  0  0  0  0  0
   38.3660   24.4300   34.8700 N   0  0  0  0  0  0  0  0  0  0  0  0
   37.9760   21.4670   36.4880 H   0  0  0  0  0  0  0  0  0  0  0  0
   37.7500   22.9490   38.4300 H   0  0  0  0  0  0  0  0  0  0  0  0
   37.9180   25.3700   38.0890 H   0  0  0  0  0  0  0  0  0  0  0  0
   38.3870   22.1490   34.0000 C   0  0  0  0  0  0  0  0  0  0  0  0
   39.4790   21.6540   33.7090 O   0  0  0  0  0  0  0  0  0  0  0  0
   36.2300   20.9620   33.7640 C   0  0  0  0  0  0  0  0  0  0  0  0
   37.2300   21.7520   33.1840 C   0  0  0  0  0  0  0  0  0  0  0  0
   37.1220   22.1580   31.8350 C   0  0  0  0  0  0  0  0  0  0  0  0
   35.9960   21.7310   31.1560 N   0  0  0  0  0  0  0  0  0  0  0  0
   35.0530   20.9710   31.7470 C   0  0  0  0  0  0  0  0  0  0  0  0
   35.1710   20.6030   33.0060 N   0  0  0  0  0  0  0  0  0  0  0  0
   36.2800   20.6340   34.7880 H   0  0  0  0  0  0  0  0  0  0  0  0
   37.9130   22.7540   31.4590 H   0  0  0  0  0  0  0  0  0  0  0  0
   34.2840   20.7740   31.0130 H   0  0  0  0  0  0  0  0  0  0  0  0
   38.3590   26.9990   35.6910 S   0  0  0  0  0  0  0  0  0  0  0  0
   38.2730   27.2190   33.9020 C   0  0  0  0  0  0  0  0  0  0  0  0
   39.2040   27.6750   33.4820 H   0  0  0  0  0  0  0  0  0  0  0  0
   38.2370   26.2020   33.4080 H   0  0  0  0  0  0  0  0  0  0  0  0
   37.8980   27.5500   30.8850 Cl  0  0  0  0  0  0  0  0  0  0  0  0
   36.8100   28.1970   32.0940 C   0  0  0  0  0  0  0  0  0  0  0  0
   37.0830   27.9750   33.4480 C   0  0  0  0  0  0  0  0  0  0  0  0
   36.1640   28.5280   34.3080 C   0  0  0  0  0  0  0  0  0  0  0  0
   36.3910   28.3440   35.3700 H   0  0  0  0  0  0  0  0  0  0  0  0
   35.0330   29.2580   34.0240 C   0  0  0  0  0  3  0  0  0  0  0  0
   34.8030   29.4540   32.6580 C   0  0  0  0  0  0  0  0  0  0  0  0
   33.3800   30.3760   32.2180 Cl  0  0  0  0  0  0  0  0  0  0  0  0
   35.6830   28.9280   31.7050 C   0  0  0  0  0  0  0  0  0  0  0  0
   35.4540   29.1110   30.6620 H   0  0  0  0  0  0  0  0  0  0  0  0
  1  2  1  0  0  0  0
  2  7  1  0  0  0  0
  2  3  2  0  0  0  0
  3  8  1  0  0  0  0
  4  3  1  0  0  0  0
  4  9  1  0  0  0  0
  5  4  2  0  0  0  0
  6  1  2  0  0  0  0
  6  5  1  0  0  0  0
 10  1  1  0  0  0  0
 11 10  2  0  0  0  0
 12 18  1  0  0  0  0
 13 12  1  0  0  0  0
 13 10  1  0  0  0  0
 14 13  2  0  0  0  0
 15 16  2  0  0  0  0
 15 14  1  0  0  0  0
 16 17  1  0  0  0  0
 17 12  2  0  0  0  0
 19 14  1  0  0  0  0
 20 16  1  0  0  0  0
 21  5  1  0  0  0  0
 22 21  1  0  0  0  0
 23 22  1  0  0  0  0
 24 22  1  0  0  0  0
 25 26  1  0  0  0  0
 26 27  1  0  0  0  0
 27 22  1  0  0  0  0
 27 28  2  0  0  0  0
 28 29  1  0  0  0  0
 30 28  1  0  0  0  0
 31 30  2  0  0  0  0
 32 31  1  0  0  0  0
 33 26  2  0  0  0  0
 33 31  1  0  0  0  0
 34 33  1  0  0  0  0
M  END
>  <minimizedAffinity>
-5.37108612

$$$$

 OpenBabel03262522133D

 34 36  0  0  0  0  0  0  0  0999 V2000
   37.4550   26.9150   34.6750 C   0  0  0  0  0  0  0  0  0  0  0  0
   37.4460   26.2790   33.4230 C   0  0  0  0  0  0  0  0  0  0  0  0
   36.7680   26.8440   32.3730 C   0  0  0  0  0  0  0  0  0  0  0  0
   36.1180   28.0370   32.6210 C   0  0  0  0  0  0  0  0  0  0  0  0
   36.1460   28.6260   33.8410 C   0  0  0  0  0  0  0  0  0  0  0  0
   36.8110   28.0980   34.9200 N   0  0  0  0  0  0  0  0  0  0  0  0
   37.9750   25.3480   33.2980 H   0  0  0  0  0  0  0  0  0  0  0  0
   36.7590   26.3620   31.4230 H   0  0  0  0  0  0  0  0  0  0  0  0
   35.5830   28.4800   31.7910 H   0  0  0  0  0  0  0  0  0  0  0  0
   38.1950   26.2610   35.7360 C   0  0  0  0  0  0  0  0  0  0  0  0
   38.4350   26.8480   36.7940 O   0  0  0  0  0  0  0  0  0  0  0  0
   37.8780   23.8260   36.0300 C   0  0  0  0  0  0  0  0  0  0  0  0
   38.6910   24.8830   35.6060 C   0  0  0  0  0  0  0  0  0  0  0  0
   39.9690   24.6210   35.0610 C   0  0  0  0  0  0  0  0  0  0  0  0
   40.3400   23.2930   34.9810 N   0  0  0  0  0  0  0  0  0  0  0  0
   39.5310   22.3000   35.4000 C   0  0  0  0  0  0  0  0  0  0  0  0
   38.3430   22.5630   35.9050 N   0  0  0  0  0  0  0  0  0  0  0  0
   36.9000   23.9870   36.4510 H   0  0  0  0  0  0  0  0  0  0  0  0
   40.5320   25.4670   34.7590 H   0  0  0  0  0  0  0  0  0  0  0  0
   40.0450   21.3650   35.2330 H   0  0  0  0  0  0  0  0  0  0  0  0
   35.2940   30.1920   34.1530 S   0  0  0  0  0  0  0  0  0  0  0  0
   36.0400   30.8810   35.6460 C   0  0  0  0  0  0  0  0  0  0  0  0
   36.1330   30.1250   36.4650 H   0  0  0  0  0  0  0  0  0  0  0  0
   37.1140   31.1570   35.4260 H   0  0  0  0  0  0  0  0  0  0  0  0
   37.2130   33.5770   34.8040 Cl  0  0  0  0  0  0  0  0  0  0  0  0
   35.8110   33.3860   35.8350 C   0  0  0  0  0  0  0  0  0  0  0  0
   35.3620   32.0980   36.1470 C   0  0  0  0  0  0  0  0  0  0  0  0
   34.2560   32.0670   36.9630 C   0  0  0  0  0  0  0  0  0  0  0  0
   33.9130   31.0470   37.1990 H   0  0  0  0  0  0  0  0  0  0  0  0
   33.5430   33.1120   37.5060 C   0  0  0  0  0  3  0  0  0  0  0  0
   34.0300   34.3780   37.1650 C   0  0  0  0  0  0  0  0  0  0  0  0
   33.1730   35.7590   37.8210 Cl  0  0  0  0  0  0  0  0  0  0  0  0
   35.1520   34.5120   36.3390 C   0  0  0  0  0  0  0  0  0  0  0  0
   35.4830   35.5170   36.1090 H   0  0  0  0  0  0  0  0  0  0  0  0
  1  6  1  0  0  0  0
  1 10  1  0  0  0  0
  2  1  2  0  0  0  0
  3  4  2  0  0  0  0
  3  2  1  0  0  0  0
  4  5  1  0  0  0  0
  5 21  1  0  0  0  0
  5  6  2  0  0  0  0
  7  2  1  0  0  0  0
  8  3  1  0  0  0  0
  9  4  1  0  0  0  0
 10 11  2  0  0  0  0
 12 18  1  0  0  0  0
 13 10  1  0  0  0  0
 13 12  2  0  0  0  0
 14 13  1  0  0  0  0
 15 14  2  0  0  0  0
 15 16  1  0  0  0  0
 16 17  2  0  0  0  0
 17 12  1  0  0  0  0
 19 14  1  0  0  0  0
 20 16  1  0  0  0  0
 21 22  1  0  0  0  0
 22 27  1  0  0  0  0
 22 23  1  0  0  0  0
 24 22  1  0  0  0  0
 25 26  1  0  0  0  0
 26 27  2  0  0  0  0
 26 33  1  0  0  0  0
 27 28  1  0  0  0  0
 28 29  1  0  0  0  0
 28 30  2  0  0  0  0
 31 30  1  0  0  0  0
 31 32  1  0  0  0  0
 33 31  2  0  0  0  0
 34 33  1  0  0  0  0
M  END
>  <minimizedAffinity>
-5.36939001

$$$$
