
 OpenBabel03272501393D

 46 50  0  0  1  0  0  0  0  0999 V2000
   37.7330   30.9010   50.6680 C   0  0  0  0  0  0  0  0  0  0  0  0
   38.4530   31.5510   49.6910 C   0  0  0  0  0  0  0  0  0  0  0  0
   38.1160   31.4820   48.3300 C   0  0  0  0  0  0  0  0  0  0  0  0
   37.0680   30.7680   48.0120 N   0  0  0  0  0  0  0  0  0  0  0  0
   36.3580   30.1270   48.9960 C   0  0  0  0  0  0  0  0  0  0  0  0
   36.6800   30.1890   50.2790 N   0  0  0  0  0  0  0  0  0  0  0  0
   37.9910   30.9530   51.7090 H   0  0  0  0  0  0  0  0  0  0  0  0
   39.3120   32.1270   50.0500 H   0  0  0  0  0  0  0  0  0  0  0  0
   35.1720   29.3380   48.6600 C   0  0  0  0  0  0  0  0  0  0  0  0
   34.7490   28.1090   49.1010 C   0  0  0  0  0  0  0  0  0  0  0  0
   33.5960   27.5950   48.6400 C   0  0  0  0  0  0  0  0  0  0  0  0
   32.8850   28.3630   47.7210 C   0  0  0  0  0  0  0  0  0  0  0  0
   33.9180   29.8640   47.5230 S   0  0  0  0  0  0  0  0  0  0  0  0
   35.3880   27.6050   49.8170 H   0  0  0  0  0  0  0  0  0  0  0  0
   33.1680   26.6520   48.9090 H   0  0  0  0  0  0  0  0  0  0  0  0
   30.5130   27.8540   49.5080 Cl  0  0  0  0  0  0  0  0  0  0  0  0
   30.5020   27.9220   47.7590 C   0  0  0  0  0  0  0  0  0  0  0  0
   31.6360   28.1610   47.0140 C   0  0  0  0  0  0  0  0  0  0  0  0
   31.7370   28.2330   45.6670 C   0  0  0  0  0  0  0  0  0  0  0  0
   32.6440   28.4220   45.1240 H   0  0  0  0  0  0  0  0  0  0  0  0
   30.5590   28.0450   44.9290 C   0  0  0  0  0  0  0  0  0  0  0  0
   29.3650   27.7970   45.6150 C   0  0  0  0  0  0  0  0  0  0  0  0
   27.8680   27.5560   44.7230 Cl  0  0  0  0  0  0  0  0  0  0  0  0
   29.3450   27.7380   47.0100 C   0  0  0  0  0  0  0  0  0  0  0  0
   28.4270   27.5460   47.5620 H   0  0  0  0  0  0  0  0  0  0  0  0
   39.0320   32.1350   47.4400 C   0  0  1  0  0  0  0  0  0  0  0  0
   40.0240   31.8120   47.9610 H   0  0  0  0  0  0  0  0  0  0  0  0
   39.1230   31.5760   46.0360 C   0  0  2  0  0  0  0  0  0  0  0  0
   40.5870   31.2140   45.7970 C   0  0  0  0  0  0  0  0  0  0  0  0
   39.8770   32.2720   45.0230 C   0  0  1  0  0  0  0  0  0  0  0  0
   38.4240   30.7220   45.8680 H   0  0  0  0  0  0  0  0  0  0  0  0
   41.4160   31.6020   46.4000 H   0  0  0  0  0  0  0  0  0  0  0  0
   40.8150   30.2470   45.3330 H   0  0  0  0  0  0  0  0  0  0  0  0
   40.0080   33.3550   45.2240 H   0  0  0  0  0  0  0  0  0  0  0  0
   39.8170   32.0070   43.5780 C   0  0  0  0  0  0  0  0  0  0  0  0
   39.1140   32.8870   42.7980 C   0  0  0  0  0  0  0  0  0  0  0  0
   39.0980   32.6290   41.4490 C   0  0  0  0  0  0  0  0  0  0  0  0
   39.7420   31.5540   40.8700 C   0  0  0  0  0  0  0  0  0  0  0  0
   40.4390   30.6930   41.6910 C   0  0  0  0  0  0  0  0  0  0  0  0
   40.4650   30.9300   43.0160 N   0  0  0  0  0  0  0  0  0  0  0  0
   38.5970   33.7390   43.2090 H   0  0  0  0  0  0  0  0  0  0  0  0
   38.5460   33.3100   40.7910 H   0  0  0  0  0  0  0  0  0  0  0  0
   39.6810   31.4240   39.8130 H   0  0  0  0  0  0  0  0  0  0  0  0
   40.9530   29.8410   41.2710 H   0  0  0  0  0  0  0  0  0  0  0  0
   39.2800   33.4160   47.5140 O   0  0  0  0  0  0  0  0  0  0  0  0
   38.5080   33.9380   47.8460 H   0  0  0  0  0  0  0  0  0  0  0  0
  1  7  1  0  0  0  0
  2  8  1  0  0  0  0
  2  1  2  0  0  0  0
  3  2  1  0  0  0  0
  4  3  2  0  0  0  0
  4  5  1  0  0  0  0
  5  6  2  0  0  0  0
  6  1  1  0  0  0  0
  9  5  1  0  0  0  0
  9 10  2  0  0  0  0
 10 14  1  0  0  0  0
 11 15  1  0  0  0  0
 11 10  1  0  0  0  0
 12 11  2  0  0  0  0
 13 12  1  0  0  0  0
 13  9  1  0  0  0  0
 17 16  1  0  0  0  0
 18 12  1  0  0  0  0
 18 17  1  0  0  0  0
 19 18  2  0  0  0  0
 20 19  1  0  0  0  0
 21 22  2  0  0  0  0
 21 19  1  0  0  0  0
 22 24  1  0  0  0  0
 23 22  1  0  0  0  0
 24 25  1  0  0  0  0
 24 17  2  0  0  0  0
 26 45  1  0  0  0  0
 26 27  1  1  0  0  0
 26  3  1  0  0  0  0
 28 31  1  6  0  0  0
 28 26  1  0  0  0  0
 29 28  1  0  0  0  0
 29 32  1  0  0  0  0
 30 34  1  1  0  0  0
 30 29  1  0  0  0  0
 30 28  1  0  0  0  0
 33 29  1  0  0  0  0
 35 30  1  0  0  0  0
 36 41  1  0  0  0  0
 36 35  2  0  0  0  0
 37 36  1  0  0  0  0
 38 37  2  0  0  0  0
 38 39  1  0  0  0  0
 39 40  2  0  0  0  0
 40 35  1  0  0  0  0
 42 37  1  0  0  0  0
 43 38  1  0  0  0  0
 44 39  1  0  0  0  0
 45 46  1  0  0  0  0
M  END
>  <minimizedAffinity>
-7.07743025

>  <minimizedRMSD>
0.408545434

$$$$
