
 OpenBabel03272510243D

 33 36  0  0  0  0  0  0  0  0999 V2000
   36.0290   30.2250   46.9490 C   0  0  0  0  0  0  0  0  0  0  0  0
   37.0610   30.4610   47.8420 C   0  0  0  0  0  0  0  0  0  0  0  0
   38.2670   30.9810   47.4160 C   0  0  0  0  0  0  0  0  0  0  0  0
   38.3870   31.2520   46.0510 C   0  0  0  0  0  0  0  0  0  0  0  0
   39.4540   31.7610   45.3790 N   0  0  0  0  0  0  0  0  0  0  0  0
   39.0950   31.8400   44.0990 C   0  0  0  0  0  0  0  0  0  0  0  0
   37.8560   31.4090   43.9190 N   0  0  0  0  0  0  0  0  0  0  0  0
   37.3720   31.0270   45.1270 C   0  0  0  0  0  0  0  0  0  0  0  0
   36.1770   30.5050   45.5910 C   0  0  0  0  0  0  0  0  0  0  0  0
   35.0550   29.8180   47.2150 H   0  0  0  0  0  0  0  0  0  0  0  0
   39.0760   31.1710   48.0860 H   0  0  0  0  0  0  0  0  0  0  0  0
   40.3710   32.0300   45.8140 H   0  0  0  0  0  0  0  0  0  0  0  0
   35.3790   30.3270   44.8810 H   0  0  0  0  0  0  0  0  0  0  0  0
   37.3680   30.0550   51.5730 C   0  0  0  0  0  0  0  0  0  0  0  0
   37.7240   30.4170   50.2770 C   0  0  0  0  0  0  0  0  0  0  0  0
   36.8320   30.1430   49.2460 C   0  0  0  0  0  0  0  0  0  0  0  0
   35.6430   29.5260   49.5590 N   0  0  0  0  0  0  0  0  0  0  0  0
   35.3390   29.1910   50.8290 C   0  0  0  0  0  0  0  0  0  0  0  0
   36.1950   29.4540   51.8210 N   0  0  0  0  0  0  0  0  0  0  0  0
   38.0880   30.2860   52.3450 H   0  0  0  0  0  0  0  0  0  0  0  0
   38.6550   30.9030   50.0130 H   0  0  0  0  0  0  0  0  0  0  0  0
   34.3820   28.7070   50.9970 H   0  0  0  0  0  0  0  0  0  0  0  0
   39.9580   32.3250   43.1160 O   0  0  0  0  0  0  0  0  0  0  0  0
   38.3850   33.8600   41.0560 Cl  0  0  0  0  0  0  0  0  0  0  0  0
   39.1660   32.3120   40.7890 C   0  0  0  0  0  0  0  0  0  0  0  0
   39.8460   31.7560   41.8540 C   0  0  0  0  0  0  0  0  0  0  0  0
   40.4670   30.5300   41.6490 C   0  0  0  0  0  0  0  0  0  0  0  0
   41.0240   30.0300   42.4490 H   0  0  0  0  0  0  0  0  0  0  0  0
   40.4110   29.8850   40.4240 C   0  0  0  0  0  3  0  0  0  0  0  0
   39.7210   30.4760   39.3870 C   0  0  0  0  0  0  0  0  0  0  0  0
   39.6070   29.7190   37.8070 Cl  0  0  0  0  0  0  0  0  0  0  0  0
   39.0930   31.6930   39.5570 C   0  0  0  0  0  0  0  0  0  0  0  0
   38.5590   32.1410   38.7370 H   0  0  0  0  0  0  0  0  0  0  0  0
  1 10  1  0  0  0  0
  1  2  1  0  0  0  0
  2 16  1  0  0  0  0
  3  2  2  0  0  0  0
  3 11  1  0  0  0  0
  4  3  1  0  0  0  0
  5 12  1  0  0  0  0
  5  4  1  0  0  0  0
  6  5  1  0  0  0  0
  7  6  2  0  0  0  0
  7  8  1  0  0  0  0
  8  9  1  0  0  0  0
  8  4  2  0  0  0  0
  9  1  2  0  0  0  0
 13  9  1  0  0  0  0
 14 19  1  0  0  0  0
 14 20  1  0  0  0  0
 15 14  2  0  0  0  0
 16 17  2  0  0  0  0
 16 15  1  0  0  0  0
 17 18  1  0  0  0  0
 18 22  1  0  0  0  0
 18 19  2  0  0  0  0
 21 15  1  0  0  0  0
 23  6  1  0  0  0  0
 25 24  1  0  0  0  0
 25 26  1  0  0  0  0
 26 23  1  0  0  0  0
 27 26  2  0  0  0  0
 27 28  1  0  0  0  0
 29 27  1  0  0  0  0
 30 32  1  0  0  0  0
 30 29  2  0  0  0  0
 31 30  1  0  0  0  0
 32 25  2  0  0  0  0
 33 32  1  0  0  0  0
M  END
>  <minimizedAffinity>
-5.58308983

>  <minimizedRMSD>
2.35770941

$$$$
