
 OpenBabel03272503333D

 42 45  0  0  1  0  0  0  0  0999 V2000
   35.7470   29.5010   47.7770 C   0  0  0  0  0  0  0  0  0  0  0  0
   35.6490   30.1520   46.5480 C   0  0  0  0  0  0  0  0  0  0  0  0
   34.6580   29.7140   45.6620 C   0  0  0  0  0  0  0  0  0  0  0  0
   33.8540   28.6720   46.0740 N   0  0  0  0  0  0  0  0  0  0  0  0
   33.9840   28.0790   47.2620 C   0  0  0  0  0  0  0  0  0  0  0  0
   34.9320   28.4960   48.1100 N   0  0  0  0  0  0  0  0  0  0  0  0
   36.2790   30.9680   46.2230 H   0  0  0  0  0  0  0  0  0  0  0  0
   34.5040   30.1480   44.6980 H   0  0  0  0  0  0  0  0  0  0  0  0
   36.7660   29.9570   48.6770 N   0  0  0  0  0  0  0  0  0  0  0  0
   37.9390   30.7090   48.3470 C   0  0  0  0  0  0  0  0  0  0  0  0
   38.2150   31.4680   49.6380 C   0  0  2  0  0  0  0  0  0  0  0  0
   37.0420   31.1670   50.5690 C   0  0  0  0  0  0  0  0  0  0  0  0
   36.7950   29.7350   50.1200 C   0  0  0  0  0  0  0  0  0  0  0  0
   37.7640   31.4390   47.5120 H   0  0  0  0  0  0  0  0  0  0  0  0
   38.8210   30.0610   48.1280 H   0  0  0  0  0  0  0  0  0  0  0  0
   39.1170   31.0630   50.1570 H   0  0  0  0  0  0  0  0  0  0  0  0
   36.1950   31.7980   50.2980 H   0  0  0  0  0  0  0  0  0  0  0  0
   37.3280   31.2340   51.6250 H   0  0  0  0  0  0  0  0  0  0  0  0
   35.8060   29.4050   50.4760 H   0  0  0  0  0  0  0  0  0  0  0  0
   37.6320   29.1010   50.4270 H   0  0  0  0  0  0  0  0  0  0  0  0
   38.3680   32.9450   49.4030 C   0  0  0  0  0  0  0  0  0  0  0  0
   37.1820   33.5360   49.7950 F   0  0  0  0  0  0  0  0  0  0  0  0
   38.4680   33.1290   48.0490 F   0  0  0  0  0  0  0  0  0  0  0  0
   39.4470   33.4870   50.0490 F   0  0  0  0  0  0  0  0  0  0  0  0
   32.9130   26.7370   47.7380 S   0  0  0  0  0  0  0  0  0  0  0  0
   31.4070   27.1240   48.3920 C   0  0  0  0  0  0  0  0  0  0  0  0
   30.5600   26.7490   49.3930 C   0  0  0  0  0  0  0  0  0  0  0  0
   29.3540   27.3050   49.6490 C   0  0  0  0  0  0  0  0  0  0  0  0
   29.0090   28.4010   48.7130 C   0  0  0  0  0  0  0  0  0  0  0  0
   30.4340   28.5070   47.5910 S   0  0  0  0  0  0  0  0  0  0  0  0
   30.9820   25.9390   49.9670 H   0  0  0  0  0  0  0  0  0  0  0  0
   28.6920   27.0080   50.4370 H   0  0  0  0  0  0  0  0  0  0  0  0
   26.9770   27.3950   46.7960 Cl  0  0  0  0  0  0  0  0  0  0  0  0
   26.8390   28.7960   47.8340 C   0  0  0  0  0  0  0  0  0  0  0  0
   27.8420   29.1850   48.6940 C   0  0  0  0  0  0  0  0  0  0  0  0
   27.7940   30.2750   49.5330 C   0  0  0  0  0  0  0  0  0  0  0  0
   28.6060   30.5330   50.1860 H   0  0  0  0  0  0  0  0  0  0  0  0
   26.6260   31.0470   49.5040 C   0  0  0  0  0  3  0  0  0  0  0  0
   25.5760   30.6960   48.6470 C   0  0  0  0  0  0  0  0  0  0  0  0
   24.1010   31.6400   48.5850 Cl  0  0  0  0  0  0  0  0  0  0  0  0
   25.6760   29.5770   47.8130 C   0  0  0  0  0  0  0  0  0  0  0  0
   24.8550   29.3200   47.1570 H   0  0  0  0  0  0  0  0  0  0  0  0
  1  6  1  0  0  0  0
  1  9  1  0  0  0  0
  2  1  2  0  0  0  0
  3  4  2  0  0  0  0
  3  2  1  0  0  0  0
  4  5  1  0  0  0  0
  5 25  1  0  0  0  0
  5  6  2  0  0  0  0
  7  2  1  0  0  0  0
  8  3  1  0  0  0  0
  9 13  1  0  0  0  0
 10  9  1  0  0  0  0
 10 11  1  0  0  0  0
 11 16  1  1  0  0  0
 11 12  1  0  0  0  0
 12 18  1  0  0  0  0
 13 20  1  0  0  0  0
 13 19  1  0  0  0  0
 13 12  1  0  0  0  0
 14 10  1  0  0  0  0
 15 10  1  0  0  0  0
 17 12  1  0  0  0  0
 21 11  1  0  0  0  0
 21 22  1  0  0  0  0
 21 24  1  0  0  0  0
 23 21  1  0  0  0  0
 25 26  1  0  0  0  0
 26 27  2  0  0  0  0
 27 28  1  0  0  0  0
 27 31  1  0  0  0  0
 28 32  1  0  0  0  0
 29 28  2  0  0  0  0
 30 26  1  0  0  0  0
 30 29  1  0  0  0  0
 33 34  1  0  0  0  0
 34 35  1  0  0  0  0
 35 29  1  0  0  0  0
 35 36  2  0  0  0  0
 36 37  1  0  0  0  0
 38 36  1  0  0  0  0
 39 38  2  0  0  0  0
 40 39  1  0  0  0  0
 41 34  2  0  0  0  0
 41 39  1  0  0  0  0
 42 41  1  0  0  0  0
M  END
>  <minimizedAffinity>
-6.63622284

>  <minimizedRMSD>
0.950252593

$$$$
