
 OpenBabel03272501133D

 29 31  0  0  1  0  0  0  0  0999 V2000
   37.1000   27.0230   34.9440 C   0  0  1  0  0  0  0  0  0  0  0  0
   38.1750   26.0810   35.1680 C   0  0  1  0  0  0  0  0  0  0  0  0
   38.3320   27.4510   35.7430 C   0  0  0  0  0  0  0  0  0  0  0  0
   36.1350   27.0860   35.5100 H   0  0  0  0  0  0  0  0  0  0  0  0
   38.8580   25.9170   34.2790 H   0  0  0  0  0  0  0  0  0  0  0  0
   39.0270   28.1780   35.2970 H   0  0  0  0  0  0  0  0  0  0  0  0
   38.1490   27.6040   36.8220 H   0  0  0  0  0  0  0  0  0  0  0  0
   36.9870   27.7740   33.6270 C   0  0  0  0  0  0  0  0  0  0  0  0
   36.0150   28.7770   33.5930 C   0  0  0  0  0  0  0  0  0  0  0  0
   35.9090   29.4480   32.3720 C   0  0  0  0  0  0  0  0  0  0  0  0
   36.7180   29.1100   31.3230 N   0  0  0  0  0  0  0  0  0  0  0  0
   37.6470   28.1200   31.4180 C   0  0  0  0  0  0  0  0  0  0  0  0
   37.7810   27.4420   32.5950 N   0  0  0  0  0  0  0  0  0  0  0  0
   35.4140   28.9930   34.4530 H   0  0  0  0  0  0  0  0  0  0  0  0
   35.1720   30.2370   32.2900 H   0  0  0  0  0  0  0  0  0  0  0  0
   38.2630   27.8880   30.5630 H   0  0  0  0  0  0  0  0  0  0  0  0
   37.8970   24.8880   36.0480 C   0  0  0  0  0  0  0  0  0  0  0  0
   37.5790   25.2800   37.0360 H   0  0  0  0  0  0  0  0  0  0  0  0
   37.0510   24.3000   35.6250 H   0  0  0  0  0  0  0  0  0  0  0  0
   37.9420   23.2700   38.5670 Cl  0  0  0  0  0  0  0  0  0  0  0  0
   39.2080   23.2740   37.3520 C   0  0  0  0  0  0  0  0  0  0  0  0
   39.1100   24.0490   36.2180 C   0  0  0  0  0  0  0  0  0  0  0  0
   40.1160   24.0400   35.2680 C   0  0  0  0  0  0  0  0  0  0  0  0
   40.0490   24.6390   34.3840 H   0  0  0  0  0  0  0  0  0  0  0  0
   41.2190   23.2210   35.5120 C   0  0  0  0  0  3  0  0  0  0  0  0
   41.3400   22.4300   36.6500 C   0  0  0  0  0  0  0  0  0  0  0  0
   42.7420   21.4180   36.9170 Cl  0  0  0  0  0  0  0  0  0  0  0  0
   40.3010   22.4760   37.5710 C   0  0  0  0  0  0  0  0  0  0  0  0
   40.4050   21.8480   38.4690 H   0  0  0  0  0  0  0  0  0  0  0  0
  1  2  1  0  0  0  0
  1  4  1  1  0  0  0
  1  3  1  0  0  0  0
  2  5  1  6  0  0  0
  2  3  1  0  0  0  0
  2 17  1  0  0  0  0
  3  7  1  0  0  0  0
  6  3  1  0  0  0  0
  8  1  1  0  0  0  0
  9  8  1  0  0  0  0
  9 14  1  0  0  0  0
 10  9  2  0  0  0  0
 11 12  2  0  0  0  0
 11 10  1  0  0  0  0
 12 13  1  0  0  0  0
 13  8  2  0  0  0  0
 15 10  1  0  0  0  0
 16 12  1  0  0  0  0
 17 22  1  0  0  0  0
 17 18  1  0  0  0  0
 19 17  1  0  0  0  0
 21 28  1  0  0  0  0
 21 20  1  0  0  0  0
 22 21  2  0  0  0  0
 23 25  2  0  0  0  0
 23 22  1  0  0  0  0
 24 23  1  0  0  0  0
 25 26  1  0  0  0  0
 26 27  1  0  0  0  0
 26 28  2  0  0  0  0
 28 29  1  0  0  0  0
M  END
>  <minimizedAffinity>
-5.24924517

$$$$

 OpenBabel03272501133D

 29 31  0  0  1  0  0  0  0  0999 V2000
   38.9110   25.1330   34.5970 C   0  0  1  0  0  0  0  0  0  0  0  0
   38.1770   26.3740   34.4840 C   0  0  1  0  0  0  0  0  0  0  0  0
   39.6580   26.4670   34.6550 C   0  0  0  0  0  0  0  0  0  0  0  0
   39.2260   24.4610   33.7580 H   0  0  0  0  0  0  0  0  0  0  0  0
   37.6240   26.6890   35.4210 H   0  0  0  0  0  0  0  0  0  0  0  0
   40.1000   26.7860   35.6110 H   0  0  0  0  0  0  0  0  0  0  0  0
   40.2880   26.6790   33.7730 H   0  0  0  0  0  0  0  0  0  0  0  0
   38.9760   24.3870   35.9200 C   0  0  0  0  0  0  0  0  0  0  0  0
   37.9610   24.6930   36.8290 C   0  0  0  0  0  0  0  0  0  0  0  0
   38.0420   24.0140   38.0480 C   0  0  0  0  0  0  0  0  0  0  0  0
   39.0570   23.1290   38.2820 N   0  0  0  0  0  0  0  0  0  0  0  0
   40.0200   22.8730   37.3540 C   0  0  0  0  0  0  0  0  0  0  0  0
   39.9740   23.5170   36.1510 N   0  0  0  0  0  0  0  0  0  0  0  0
   37.1930   25.3980   36.5820 H   0  0  0  0  0  0  0  0  0  0  0  0
   37.2790   24.2130   38.7900 H   0  0  0  0  0  0  0  0  0  0  0  0
   40.8020   22.1670   37.5840 H   0  0  0  0  0  0  0  0  0  0  0  0
   37.5180   26.6880   33.1630 C   0  0  0  0  0  0  0  0  0  0  0  0
   38.3250   26.7490   32.4040 H   0  0  0  0  0  0  0  0  0  0  0  0
   36.8420   25.8520   32.8740 H   0  0  0  0  0  0  0  0  0  0  0  0
   37.3730   28.1360   30.5460 Cl  0  0  0  0  0  0  0  0  0  0  0  0
   36.6810   28.7100   32.0530 C   0  0  0  0  0  0  0  0  0  0  0  0
   36.7920   27.9820   33.2160 C   0  0  0  0  0  0  0  0  0  0  0  0
   36.2400   28.4480   34.3960 C   0  0  0  0  0  0  0  0  0  0  0  0
   36.3220   27.8890   35.3040 H   0  0  0  0  0  0  0  0  0  0  0  0
   35.5760   29.6740   34.3510 C   0  0  0  0  0  3  0  0  0  0  0  0
   35.4510   30.4270   33.1870 C   0  0  0  0  0  0  0  0  0  0  0  0
   34.6100   31.9620   33.1770 Cl  0  0  0  0  0  0  0  0  0  0  0  0
   36.0240   29.9130   32.0310 C   0  0  0  0  0  0  0  0  0  0  0  0
   35.9210   30.5150   31.1160 H   0  0  0  0  0  0  0  0  0  0  0  0
  1  4  1  6  0  0  0
  1  3  1  0  0  0  0
  1  8  1  0  0  0  0
  2  1  1  0  0  0  0
  2  3  1  0  0  0  0
  2  5  1  1  0  0  0
  3  6  1  0  0  0  0
  7  3  1  0  0  0  0
  8 13  2  0  0  0  0
  8  9  1  0  0  0  0
  9 10  2  0  0  0  0
 10 11  1  0  0  0  0
 10 15  1  0  0  0  0
 12 16  1  0  0  0  0
 12 11  2  0  0  0  0
 13 12  1  0  0  0  0
 14  9  1  0  0  0  0
 17 22  1  0  0  0  0
 17  2  1  0  0  0  0
 18 17  1  0  0  0  0
 19 17  1  0  0  0  0
 20 21  1  0  0  0  0
 21 22  1  0  0  0  0
 22 23  2  0  0  0  0
 23 24  1  0  0  0  0
 25 23  1  0  0  0  0
 26 25  2  0  0  0  0
 27 26  1  0  0  0  0
 28 21  2  0  0  0  0
 28 26  1  0  0  0  0
 29 28  1  0  0  0  0
M  END
>  <minimizedAffinity>
-4.89010143

$$$$

 OpenBabel03272501133D

 29 31  0  0  1  0  0  0  0  0999 V2000
   37.1400   26.6620   34.8860 C   0  0  1  0  0  0  0  0  0  0  0  0
   38.1670   25.7740   35.3860 C   0  0  1  0  0  0  0  0  0  0  0  0
   38.1660   27.1780   35.8970 C   0  0  0  0  0  0  0  0  0  0  0  0
   36.0770   26.7200   35.2340 H   0  0  0  0  0  0  0  0  0  0  0  0
   39.0250   25.5870   34.6700 H   0  0  0  0  0  0  0  0  0  0  0  0
   38.9220   27.9040   35.5620 H   0  0  0  0  0  0  0  0  0  0  0  0
   37.7570   27.3820   36.9030 H   0  0  0  0  0  0  0  0  0  0  0  0
   37.2880   27.3370   33.5320 C   0  0  0  0  0  0  0  0  0  0  0  0
   38.3150   26.8400   32.7260 C   0  0  0  0  0  0  0  0  0  0  0  0
   38.4530   27.4800   31.4920 C   0  0  0  0  0  0  0  0  0  0  0  0
   37.6190   28.5080   31.1470 N   0  0  0  0  0  0  0  0  0  0  0  0
   36.6340   28.9480   31.9780 C   0  0  0  0  0  0  0  0  0  0  0  0
   36.4690   28.3470   33.1930 N   0  0  0  0  0  0  0  0  0  0  0  0
   38.9340   26.0300   33.0570 H   0  0  0  0  0  0  0  0  0  0  0  0
   39.2330   27.1350   30.8260 H   0  0  0  0  0  0  0  0  0  0  0  0
   36.0010   29.7620   31.6640 H   0  0  0  0  0  0  0  0  0  0  0  0
   37.7400   24.6200   36.2600 C   0  0  0  0  0  0  0  0  0  0  0  0
   37.4010   25.0510   37.2240 H   0  0  0  0  0  0  0  0  0  0  0  0
   36.8710   24.1010   35.7950 H   0  0  0  0  0  0  0  0  0  0  0  0
   38.8110   23.2970   33.7970 Cl  0  0  0  0  0  0  0  0  0  0  0  0
   39.4150   23.0340   35.4240 C   0  0  0  0  0  0  0  0  0  0  0  0
   38.8650   23.6840   36.5050 C   0  0  0  0  0  0  0  0  0  0  0  0
   39.3540   23.4670   37.7820 C   0  0  0  0  0  0  0  0  0  0  0  0
   38.9330   23.9680   38.6280 H   0  0  0  0  0  0  0  0  0  0  0  0
   40.4140   22.5700   37.9170 C   0  0  0  0  0  3  0  0  0  0  0  0
   40.9840   21.9020   36.8380 C   0  0  0  0  0  0  0  0  0  0  0  0
   42.3120   20.7830   37.0540 Cl  0  0  0  0  0  0  0  0  0  0  0  0
   40.4560   22.1560   35.5790 C   0  0  0  0  0  0  0  0  0  0  0  0
   40.9130   21.6230   34.7320 H   0  0  0  0  0  0  0  0  0  0  0  0
  1  4  1  1  0  0  0
  1  2  1  0  0  0  0
  1  3  1  0  0  0  0
  2  5  1  6  0  0  0
  2  3  1  0  0  0  0
  2 17  1  0  0  0  0
  3  7  1  0  0  0  0
  6  3  1  0  0  0  0
  8  1  1  0  0  0  0
  9 14  1  0  0  0  0
  9  8  2  0  0  0  0
 10  9  1  0  0  0  0
 11 10  2  0  0  0  0
 11 12  1  0  0  0  0
 12 13  2  0  0  0  0
 13  8  1  0  0  0  0
 15 10  1  0  0  0  0
 16 12  1  0  0  0  0
 17 22  1  0  0  0  0
 17 18  1  0  0  0  0
 19 17  1  0  0  0  0
 20 21  1  0  0  0  0
 21 28  2  0  0  0  0
 21 22  1  0  0  0  0
 22 23  2  0  0  0  0
 23 25  1  0  0  0  0
 23 24  1  0  0  0  0
 26 27  1  0  0  0  0
 26 25  2  0  0  0  0
 28 26  1  0  0  0  0
 29 28  1  0  0  0  0
M  END
>  <minimizedAffinity>
-4.84155655

$$$$

 OpenBabel03272501133D

 29 31  0  0  1  0  0  0  0  0999 V2000
   37.7390   26.4640   35.0970 C   0  0  1  0  0  0  0  0  0  0  0  0
   39.0700   26.0110   34.7580 C   0  0  1  0  0  0  0  0  0  0  0  0
   38.9580   27.2240   35.6230 C   0  0  0  0  0  0  0  0  0  0  0  0
   37.0720   26.0480   35.8950 H   0  0  0  0  0  0  0  0  0  0  0  0
   39.4100   26.2720   33.7090 H   0  0  0  0  0  0  0  0  0  0  0  0
   39.1710   28.2270   35.2240 H   0  0  0  0  0  0  0  0  0  0  0  0
   39.1270   27.1250   36.7100 H   0  0  0  0  0  0  0  0  0  0  0  0
   36.9290   27.2980   34.1170 C   0  0  0  0  0  0  0  0  0  0  0  0
   36.9290   26.8370   32.7980 C   0  0  0  0  0  0  0  0  0  0  0  0
   36.1960   27.6210   31.9040 C   0  0  0  0  0  0  0  0  0  0  0  0
   35.5480   28.7450   32.3370 N   0  0  0  0  0  0  0  0  0  0  0  0
   35.5870   29.1440   33.6380 C   0  0  0  0  0  0  0  0  0  0  0  0
   36.2930   28.4020   34.5420 N   0  0  0  0  0  0  0  0  0  0  0  0
   37.4580   25.9460   32.5250 H   0  0  0  0  0  0  0  0  0  0  0  0
   36.1600   27.3090   30.8680 H   0  0  0  0  0  0  0  0  0  0  0  0
   35.0600   30.0370   33.9340 H   0  0  0  0  0  0  0  0  0  0  0  0
   39.5310   24.6880   35.3180 C   0  0  0  0  0  0  0  0  0  0  0  0
   40.5280   24.4780   34.8790 H   0  0  0  0  0  0  0  0  0  0  0  0
   39.6550   24.7720   36.4220 H   0  0  0  0  0  0  0  0  0  0  0  0
   38.3320   23.2620   37.6620 Cl  0  0  0  0  0  0  0  0  0  0  0  0
   37.9990   22.8890   35.9800 C   0  0  0  0  0  0  0  0  0  0  0  0
   38.5930   23.5940   34.9580 C   0  0  0  0  0  0  0  0  0  0  0  0
   38.3200   23.2880   33.6370 C   0  0  0  0  0  0  0  0  0  0  0  0
   38.7770   23.8310   32.8370 H   0  0  0  0  0  0  0  0  0  0  0  0
   37.4260   22.2440   33.3940 C   0  0  0  0  0  3  0  0  0  0  0  0
   36.8140   21.5180   34.4100 C   0  0  0  0  0  0  0  0  0  0  0  0
   35.7000   20.2140   34.0600 Cl  0  0  0  0  0  0  0  0  0  0  0  0
   37.1240   21.8670   35.7190 C   0  0  0  0  0  0  0  0  0  0  0  0
   36.6360   21.2860   36.5160 H   0  0  0  0  0  0  0  0  0  0  0  0
  1  3  1  0  0  0  0
  1  4  1  1  0  0  0
  2  5  1  6  0  0  0
  2  1  1  0  0  0  0
  2 17  1  0  0  0  0
  2  3  1  0  0  0  0
  3  7  1  0  0  0  0
  6  3  1  0  0  0  0
  8 13  1  0  0  0  0
  8  1  1  0  0  0  0
  9  8  2  0  0  0  0
 10 11  2  0  0  0  0
 10  9  1  0  0  0  0
 11 12  1  0  0  0  0
 12 16  1  0  0  0  0
 12 13  2  0  0  0  0
 14  9  1  0  0  0  0
 15 10  1  0  0  0  0
 17 19  1  0  0  0  0
 18 17  1  0  0  0  0
 21 20  1  0  0  0  0
 22 17  1  0  0  0  0
 22 21  2  0  0  0  0
 23 22  1  0  0  0  0
 24 23  1  0  0  0  0
 25 23  2  0  0  0  0
 25 26  1  0  0  0  0
 26 28  2  0  0  0  0
 27 26  1  0  0  0  0
 28 21  1  0  0  0  0
 28 29  1  0  0  0  0
M  END
>  <minimizedAffinity>
-4.7267518

$$$$

 OpenBabel03272501133D

 29 31  0  0  1  0  0  0  0  0999 V2000
   36.8730   27.7250   32.7460 C   0  0  1  0  0  0  0  0  0  0  0  0
   35.8590   28.5630   33.3480 C   0  0  1  0  0  0  0  0  0  0  0  0
   36.7600   27.8070   34.2700 C   0  0  0  0  0  0  0  0  0  0  0  0
   37.8610   28.0580   32.3360 H   0  0  0  0  0  0  0  0  0  0  0  0
   34.8130   28.1300   33.3330 H   0  0  0  0  0  0  0  0  0  0  0  0
   36.3970   26.9270   34.8230 H   0  0  0  0  0  0  0  0  0  0  0  0
   37.5920   28.3400   34.7630 H   0  0  0  0  0  0  0  0  0  0  0  0
   36.5270   26.3400   32.2240 C   0  0  0  0  0  0  0  0  0  0  0  0
   35.4400   26.2860   31.3480 C   0  0  0  0  0  0  0  0  0  0  0  0
   35.1200   25.0060   30.8890 C   0  0  0  0  0  0  0  0  0  0  0  0
   35.8480   23.9220   31.2970 N   0  0  0  0  0  0  0  0  0  0  0  0
   36.8970   24.0390   32.1560 C   0  0  0  0  0  0  0  0  0  0  0  0
   37.2400   25.2740   32.6250 N   0  0  0  0  0  0  0  0  0  0  0  0
   34.9130   27.1760   31.0670 H   0  0  0  0  0  0  0  0  0  0  0  0
   34.2870   24.9060   30.2060 H   0  0  0  0  0  0  0  0  0  0  0  0
   37.4420   23.1550   32.4500 H   0  0  0  0  0  0  0  0  0  0  0  0
   35.9850   30.0570   33.1790 C   0  0  0  0  0  0  0  0  0  0  0  0
   37.0690   30.2940   33.1820 H   0  0  0  0  0  0  0  0  0  0  0  0
   35.5740   30.3570   32.1880 H   0  0  0  0  0  0  0  0  0  0  0  0
   33.1040   30.7010   32.6810 Cl  0  0  0  0  0  0  0  0  0  0  0  0
   33.9910   31.1180   34.1370 C   0  0  0  0  0  0  0  0  0  0  0  0
   35.3180   30.7840   34.2880 C   0  0  0  0  0  0  0  0  0  0  0  0
   36.0030   31.1180   35.4430 C   0  0  0  0  0  0  0  0  0  0  0  0
   37.0340   30.8630   35.5680 H   0  0  0  0  0  0  0  0  0  0  0  0
   35.2940   31.8010   36.4310 C   0  0  0  0  0  3  0  0  0  0  0  0
   33.9530   32.1490   36.3010 C   0  0  0  0  0  0  0  0  0  0  0  0
   33.1030   33.0080   37.5660 Cl  0  0  0  0  0  0  0  0  0  0  0  0
   33.3130   31.7890   35.1210 C   0  0  0  0  0  0  0  0  0  0  0  0
   32.2530   32.0680   35.0260 H   0  0  0  0  0  0  0  0  0  0  0  0
  1  4  1  6  0  0  0
  1  2  1  0  0  0  0
  1  3  1  0  0  0  0
  2  5  1  6  0  0  0
  2  3  1  0  0  0  0
  3  7  1  0  0  0  0
  3  6  1  0  0  0  0
  8 13  1  0  0  0  0
  8  1  1  0  0  0  0
  9  8  2  0  0  0  0
 10 11  2  0  0  0  0
 10  9  1  0  0  0  0
 11 12  1  0  0  0  0
 12 16  1  0  0  0  0
 12 13  2  0  0  0  0
 14  9  1  0  0  0  0
 15 10  1  0  0  0  0
 17 18  1  0  0  0  0
 17  2  1  0  0  0  0
 17 22  1  0  0  0  0
 19 17  1  0  0  0  0
 20 21  1  0  0  0  0
 21 22  2  0  0  0  0
 21 28  1  0  0  0  0
 22 23  1  0  0  0  0
 23 24  1  0  0  0  0
 23 25  2  0  0  0  0
 26 25  1  0  0  0  0
 26 27  1  0  0  0  0
 28 26  2  0  0  0  0
 29 28  1  0  0  0  0
M  END
>  <minimizedAffinity>
-4.68576479

$$$$

 OpenBabel03272501133D

 29 31  0  0  1  0  0  0  0  0999 V2000
   36.7200   28.9330   31.7090 C   0  0  1  0  0  0  0  0  0  0  0  0
   36.9800   27.5840   32.1610 C   0  0  1  0  0  0  0  0  0  0  0  0
   36.7290   27.7820   30.7020 C   0  0  0  0  0  0  0  0  0  0  0  0
   37.4800   29.7320   31.5080 H   0  0  0  0  0  0  0  0  0  0  0  0
   36.1070   27.0760   32.6740 H   0  0  0  0  0  0  0  0  0  0  0  0
   35.7780   27.4710   30.2420 H   0  0  0  0  0  0  0  0  0  0  0  0
   37.5870   27.7880   30.0060 H   0  0  0  0  0  0  0  0  0  0  0  0
   35.3370   29.5490   31.8560 C   0  0  0  0  0  0  0  0  0  0  0  0
   35.1270   30.7250   31.1330 C   0  0  0  0  0  0  0  0  0  0  0  0
   33.8590   31.2900   31.2900 C   0  0  0  0  0  0  0  0  0  0  0  0
   32.9320   30.6980   32.1030 N   0  0  0  0  0  0  0  0  0  0  0  0
   33.1980   29.5500   32.7840 C   0  0  0  0  0  0  0  0  0  0  0  0
   34.4260   28.9680   32.6550 N   0  0  0  0  0  0  0  0  0  0  0  0
   35.8970   31.1370   30.5130 H   0  0  0  0  0  0  0  0  0  0  0  0
   33.6400   32.2030   30.7510 H   0  0  0  0  0  0  0  0  0  0  0  0
   32.4350   29.1190   33.4140 H   0  0  0  0  0  0  0  0  0  0  0  0
   38.3600   27.2680   32.6840 C   0  0  0  0  0  0  0  0  0  0  0  0
   38.8310   26.5730   31.9590 H   0  0  0  0  0  0  0  0  0  0  0  0
   38.9710   28.1990   32.7120 H   0  0  0  0  0  0  0  0  0  0  0  0
   38.1410   24.2830   32.6010 Cl  0  0  0  0  0  0  0  0  0  0  0  0
   38.1940   25.2480   34.0660 C   0  0  0  0  0  0  0  0  0  0  0  0
   38.2960   26.6190   34.0180 C   0  0  0  0  0  0  0  0  0  0  0  0
   38.3380   27.3660   35.1820 C   0  0  0  0  0  0  0  0  0  0  0  0
   38.4170   28.4320   35.1540 H   0  0  0  0  0  0  0  0  0  0  0  0
   38.2720   26.6700   36.3900 C   0  0  0  0  0  3  0  0  0  0  0  0
   38.1680   25.2850   36.4640 C   0  0  0  0  0  0  0  0  0  0  0  0
   38.0860   24.4540   38.0010 Cl  0  0  0  0  0  0  0  0  0  0  0  0
   38.1300   24.5850   35.2650 C   0  0  0  0  0  0  0  0  0  0  0  0
   38.0470   23.4900   35.3320 H   0  0  0  0  0  0  0  0  0  0  0  0
  1  4  1  6  0  0  0
  1  8  1  0  0  0  0
  1  2  1  0  0  0  0
  2  5  1  1  0  0  0
  2 17  1  0  0  0  0
  3  1  1  0  0  0  0
  3  2  1  0  0  0  0
  6  3  1  0  0  0  0
  7  3  1  0  0  0  0
  8 13  1  0  0  0  0
  9 10  1  0  0  0  0
  9  8  2  0  0  0  0
 10 11  2  0  0  0  0
 11 12  1  0  0  0  0
 12 16  1  0  0  0  0
 13 12  2  0  0  0  0
 14  9  1  0  0  0  0
 15 10  1  0  0  0  0
 17 19  1  0  0  0  0
 17 22  1  0  0  0  0
 18 17  1  0  0  0  0
 20 21  1  0  0  0  0
 21 28  1  0  0  0  0
 22 21  2  0  0  0  0
 22 23  1  0  0  0  0
 23 25  2  0  0  0  0
 24 23  1  0  0  0  0
 25 26  1  0  0  0  0
 26 27  1  0  0  0  0
 28 29  1  0  0  0  0
 28 26  2  0  0  0  0
M  END
>  <minimizedAffinity>
-4.64332151

$$$$

 OpenBabel03272501133D

 29 31  0  0  1  0  0  0  0  0999 V2000
   37.2070   27.6670   32.1470 C   0  0  1  0  0  0  0  0  0  0  0  0
   37.1230   26.4210   32.8770 C   0  0  1  0  0  0  0  0  0  0  0  0
   36.6310   26.4240   31.4660 C   0  0  0  0  0  0  0  0  0  0  0  0
   38.1150   28.0910   31.6470 H   0  0  0  0  0  0  0  0  0  0  0  0
   36.2700   26.3600   33.6200 H   0  0  0  0  0  0  0  0  0  0  0  0
   35.5550   26.3930   31.2400 H   0  0  0  0  0  0  0  0  0  0  0  0
   37.2720   25.9960   30.6750 H   0  0  0  0  0  0  0  0  0  0  0  0
   36.1560   28.7500   32.3360 C   0  0  0  0  0  0  0  0  0  0  0  0
   35.6710   28.8910   33.6380 C   0  0  0  0  0  0  0  0  0  0  0  0
   34.6930   29.8770   33.7940 C   0  0  0  0  0  0  0  0  0  0  0  0
   34.2790   30.6190   32.7220 N   0  0  0  0  0  0  0  0  0  0  0  0
   34.7900   30.4320   31.4750 C   0  0  0  0  0  0  0  0  0  0  0  0
   35.7480   29.4780   31.2820 N   0  0  0  0  0  0  0  0  0  0  0  0
   36.0400   28.2770   34.4340 H   0  0  0  0  0  0  0  0  0  0  0  0
   34.2820   30.0310   34.7830 H   0  0  0  0  0  0  0  0  0  0  0  0
   34.4320   31.0410   30.6590 H   0  0  0  0  0  0  0  0  0  0  0  0
   38.4130   25.7360   33.2570 C   0  0  0  0  0  0  0  0  0  0  0  0
   38.6350   24.9980   32.4600 H   0  0  0  0  0  0  0  0  0  0  0  0
   39.2400   26.4810   33.2740 H   0  0  0  0  0  0  0  0  0  0  0  0
   38.5650   27.5280   35.6510 Cl  0  0  0  0  0  0  0  0  0  0  0  0
   38.3470   25.7870   35.7090 C   0  0  0  0  0  0  0  0  0  0  0  0
   38.2870   25.0340   34.5590 C   0  0  0  0  0  0  0  0  0  0  0  0
   38.1140   23.6620   34.6220 C   0  0  0  0  0  0  0  0  0  0  0  0
   38.0660   23.0690   33.7330 H   0  0  0  0  0  0  0  0  0  0  0  0
   38.0060   23.0890   35.8890 C   0  0  0  0  0  3  0  0  0  0  0  0
   38.0640   23.8300   37.0650 C   0  0  0  0  0  0  0  0  0  0  0  0
   37.9250   23.0690   38.6350 Cl  0  0  0  0  0  0  0  0  0  0  0  0
   38.2380   25.2030   36.9450 C   0  0  0  0  0  0  0  0  0  0  0  0
   38.2840   25.7810   37.8800 H   0  0  0  0  0  0  0  0  0  0  0  0
  1  4  1  6  0  0  0
  1  8  1  0  0  0  0
  1  2  1  0  0  0  0
  2 17  1  0  0  0  0
  2  5  1  1  0  0  0
  3  1  1  0  0  0  0
  3  2  1  0  0  0  0
  6  3  1  0  0  0  0
  7  3  1  0  0  0  0
  8  9  1  0  0  0  0
  9 10  2  0  0  0  0
  9 14  1  0  0  0  0
 10 15  1  0  0  0  0
 11 10  1  0  0  0  0
 12 11  2  0  0  0  0
 13 12  1  0  0  0  0
 13  8  2  0  0  0  0
 16 12  1  0  0  0  0
 17 19  1  0  0  0  0
 17 22  1  0  0  0  0
 18 17  1  0  0  0  0
 20 21  1  0  0  0  0
 21 28  1  0  0  0  0
 22 23  1  0  0  0  0
 22 21  2  0  0  0  0
 23 25  2  0  0  0  0
 24 23  1  0  0  0  0
 25 26  1  0  0  0  0
 26 27  1  0  0  0  0
 28 26  2  0  0  0  0
 28 29  1  0  0  0  0
M  END
>  <minimizedAffinity>
-4.56274796

$$$$

 OpenBabel03272501133D

 29 31  0  0  1  0  0  0  0  0999 V2000
   36.5330   23.5350   32.0210 C   0  0  1  0  0  0  0  0  0  0  0  0
   37.1430   24.4060   31.0410 C   0  0  1  0  0  0  0  0  0  0  0  0
   35.6630   24.5050   31.2200 C   0  0  0  0  0  0  0  0  0  0  0  0
   36.5020   23.6920   33.1300 H   0  0  0  0  0  0  0  0  0  0  0  0
   37.4170   23.9050   30.0620 H   0  0  0  0  0  0  0  0  0  0  0  0
   34.9720   24.0990   30.4660 H   0  0  0  0  0  0  0  0  0  0  0  0
   35.2490   25.3430   31.8080 H   0  0  0  0  0  0  0  0  0  0  0  0
   36.2240   22.0840   31.6870 C   0  0  0  0  0  0  0  0  0  0  0  0
   35.1350   21.5330   32.3660 C   0  0  0  0  0  0  0  0  0  0  0  0
   34.8720   20.1950   32.0630 C   0  0  0  0  0  0  0  0  0  0  0  0
   35.6520   19.5220   31.1630 N   0  0  0  0  0  0  0  0  0  0  0  0
   36.7030   20.1150   30.5340 C   0  0  0  0  0  0  0  0  0  0  0  0
   36.9910   21.4220   30.8040 N   0  0  0  0  0  0  0  0  0  0  0  0
   34.5640   22.1170   33.0590 H   0  0  0  0  0  0  0  0  0  0  0  0
   34.0380   19.7170   32.5600 H   0  0  0  0  0  0  0  0  0  0  0  0
   37.2900   19.5440   29.8320 H   0  0  0  0  0  0  0  0  0  0  0  0
   38.0680   25.4910   31.5370 C   0  0  0  0  0  0  0  0  0  0  0  0
   38.4360   25.1730   32.5330 H   0  0  0  0  0  0  0  0  0  0  0  0
   38.9470   25.5710   30.8580 H   0  0  0  0  0  0  0  0  0  0  0  0
   37.2990   26.2140   34.3380 Cl  0  0  0  0  0  0  0  0  0  0  0  0
   36.9700   27.1940   32.9200 C   0  0  0  0  0  0  0  0  0  0  0  0
   37.3580   26.7880   31.6630 C   0  0  0  0  0  0  0  0  0  0  0  0
   37.0930   27.5730   30.5550 C   0  0  0  0  0  0  0  0  0  0  0  0
   37.3910   27.2650   29.5740 H   0  0  0  0  0  0  0  0  0  0  0  0
   36.4210   28.7770   30.7700 C   0  0  0  0  0  3  0  0  0  0  0  0
   36.0180   29.2070   32.0300 C   0  0  0  0  0  0  0  0  0  0  0  0
   35.1760   30.7240   32.2530 Cl  0  0  0  0  0  0  0  0  0  0  0  0
   36.3110   28.3810   33.1080 C   0  0  0  0  0  0  0  0  0  0  0  0
   35.9880   28.7290   34.1010 H   0  0  0  0  0  0  0  0  0  0  0  0
  1  4  1  1  0  0  0
  2  5  1  6  0  0  0
  2  3  1  0  0  0  0
  2 17  1  0  0  0  0
  2  1  1  0  0  0  0
  3  7  1  0  0  0  0
  3  1  1  0  0  0  0
  6  3  1  0  0  0  0
  8  1  1  0  0  0  0
  8  9  1  0  0  0  0
  9 14  1  0  0  0  0
 10  9  2  0  0  0  0
 10 15  1  0  0  0  0
 11 10  1  0  0  0  0
 12 13  1  0  0  0  0
 12 11  2  0  0  0  0
 13  8  2  0  0  0  0
 16 12  1  0  0  0  0
 17 22  1  0  0  0  0
 17 18  1  0  0  0  0
 19 17  1  0  0  0  0
 21 28  1  0  0  0  0
 21 20  1  0  0  0  0
 22 21  2  0  0  0  0
 23 25  2  0  0  0  0
 23 22  1  0  0  0  0
 24 23  1  0  0  0  0
 25 26  1  0  0  0  0
 26 27  1  0  0  0  0
 26 28  2  0  0  0  0
 28 29  1  0  0  0  0
M  END
>  <minimizedAffinity>
-4.54479647

$$$$

 OpenBabel03272501133D

 29 31  0  0  1  0  0  0  0  0999 V2000
   36.9680   27.6940   32.8840 C   0  0  1  0  0  0  0  0  0  0  0  0
   35.9360   28.2680   33.7200 C   0  0  1  0  0  0  0  0  0  0  0  0
   37.0640   27.5670   34.4060 C   0  0  0  0  0  0  0  0  0  0  0  0
   37.8250   28.2380   32.4090 H   0  0  0  0  0  0  0  0  0  0  0  0
   34.9760   27.6690   33.7700 H   0  0  0  0  0  0  0  0  0  0  0  0
   36.9220   26.5770   34.8650 H   0  0  0  0  0  0  0  0  0  0  0  0
   37.8670   28.1680   34.8670 H   0  0  0  0  0  0  0  0  0  0  0  0
   36.7640   26.3460   32.2120 C   0  0  0  0  0  0  0  0  0  0  0  0
   35.5620   26.2020   31.5140 C   0  0  0  0  0  0  0  0  0  0  0  0
   35.3780   24.9520   30.9170 C   0  0  0  0  0  0  0  0  0  0  0  0
   36.3330   23.9800   31.0360 N   0  0  0  0  0  0  0  0  0  0  0  0
   37.4850   24.1810   31.7320 C   0  0  0  0  0  0  0  0  0  0  0  0
   37.7000   25.3890   32.3300 N   0  0  0  0  0  0  0  0  0  0  0  0
   34.8560   27.0060   31.4590 H   0  0  0  0  0  0  0  0  0  0  0  0
   34.4640   24.7860   30.3620 H   0  0  0  0  0  0  0  0  0  0  0  0
   38.2090   23.3840   31.7990 H   0  0  0  0  0  0  0  0  0  0  0  0
   35.8090   29.7710   33.7560 C   0  0  0  0  0  0  0  0  0  0  0  0
   36.6780   30.1570   34.3270 H   0  0  0  0  0  0  0  0  0  0  0  0
   35.8750   30.1760   32.7200 H   0  0  0  0  0  0  0  0  0  0  0  0
   36.1910   31.7180   35.9970 Cl  0  0  0  0  0  0  0  0  0  0  0  0
   34.6420   31.0850   35.4670 C   0  0  0  0  0  0  0  0  0  0  0  0
   34.5520   30.1900   34.4250 C   0  0  0  0  0  0  0  0  0  0  0  0
   33.3240   29.7010   34.0180 C   0  0  0  0  0  0  0  0  0  0  0  0
   33.2450   29.0060   33.2090 H   0  0  0  0  0  0  0  0  0  0  0  0
   32.1970   30.1510   34.7070 C   0  0  0  0  0  3  0  0  0  0  0  0
   32.2630   31.0550   35.7630 C   0  0  0  0  0  0  0  0  0  0  0  0
   30.8230   31.5910   36.5990 Cl  0  0  0  0  0  0  0  0  0  0  0  0
   33.5210   31.5140   36.1300 C   0  0  0  0  0  0  0  0  0  0  0  0
   33.5640   32.2280   36.9670 H   0  0  0  0  0  0  0  0  0  0  0  0
  1  4  1  6  0  0  0
  1  2  1  0  0  0  0
  1  3  1  0  0  0  0
  2 17  1  0  0  0  0
  2  5  1  6  0  0  0
  2  3  1  0  0  0  0
  3  6  1  0  0  0  0
  3  7  1  0  0  0  0
  8 13  1  0  0  0  0
  8  1  1  0  0  0  0
  9  8  2  0  0  0  0
 10 11  2  0  0  0  0
 10  9  1  0  0  0  0
 11 12  1  0  0  0  0
 12 16  1  0  0  0  0
 12 13  2  0  0  0  0
 14  9  1  0  0  0  0
 15 10  1  0  0  0  0
 17 18  1  0  0  0  0
 17 22  1  0  0  0  0
 19 17  1  0  0  0  0
 21 20  1  0  0  0  0
 21 28  1  0  0  0  0
 22 21  2  0  0  0  0
 23 22  1  0  0  0  0
 23 25  2  0  0  0  0
 24 23  1  0  0  0  0
 25 26  1  0  0  0  0
 26 28  2  0  0  0  0
 26 27  1  0  0  0  0
 28 29  1  0  0  0  0
M  END
>  <minimizedAffinity>
-4.52190351

$$$$
