
 OpenBabel03272510303D

 29 31  0  0  0  0  0  0  0  0999 V2000
   37.3510   31.3720   49.2300 C   0  0  0  0  0  0  0  0  0  0  0  0
   37.6520   32.6830   49.6020 C   0  0  0  0  0  0  0  0  0  0  0  0
   38.5350   33.3500   48.7830 C   0  0  0  0  0  0  0  0  0  0  0  0
   39.0590   32.7160   47.6800 N   0  0  0  0  0  0  0  0  0  0  0  0
   38.7330   31.4340   47.3600 C   0  0  0  0  0  0  0  0  0  0  0  0
   37.8570   30.7440   48.1550 N   0  0  0  0  0  0  0  0  0  0  0  0
   37.2000   33.1160   50.4860 H   0  0  0  0  0  0  0  0  0  0  0  0
   38.8140   34.3710   49.0120 H   0  0  0  0  0  0  0  0  0  0  0  0
   36.3610   30.6190   50.0850 C   0  0  0  0  0  0  0  0  0  0  0  0
   36.2520   29.1840   50.0830 C   0  0  0  0  0  0  0  0  0  0  0  0
   37.0330   29.8260   51.2140 C   0  0  0  0  0  0  0  0  0  0  0  0
   35.4850   31.2450   50.4060 H   0  0  0  0  0  0  0  0  0  0  0  0
   35.2890   28.7060   50.3000 H   0  0  0  0  0  0  0  0  0  0  0  0
   36.8590   28.6370   49.3080 H   0  0  0  0  0  0  0  0  0  0  0  0
   36.5030   29.8930   52.1710 H   0  0  0  0  0  0  0  0  0  0  0  0
   38.1320   29.7550   51.2420 H   0  0  0  0  0  0  0  0  0  0  0  0
   39.2690   30.7540   46.1830 C   0  0  0  0  0  0  0  0  0  0  0  0
   38.7010   29.7960   46.0030 H   0  0  0  0  0  0  0  0  0  0  0  0
   40.3380   30.5000   46.2890 H   0  0  0  0  0  0  0  0  0  0  0  0
   36.5490   30.3310   44.8460 Cl  0  0  0  0  0  0  0  0  0  0  0  0
   37.8370   31.3940   44.3170 C   0  0  0  0  0  0  0  0  0  0  0  0
   39.0580   31.5700   44.9350 C   0  0  0  0  0  0  0  0  0  0  0  0
   39.9650   32.4500   44.3870 C   0  0  0  0  0  0  0  0  0  0  0  0
   40.9090   32.5490   44.9160 H   0  0  0  0  0  0  0  0  0  0  0  0
   39.6780   33.1470   43.2470 C   0  0  0  0  0  3  0  0  0  0  0  0
   38.4460   32.9780   42.6110 C   0  0  0  0  0  0  0  0  0  0  0  0
   38.1270   33.8930   41.1530 Cl  0  0  0  0  0  0  0  0  0  0  0  0
   37.5230   32.0970   43.1500 C   0  0  0  0  0  0  0  0  0  0  0  0
   36.5940   32.0180   42.6060 H   0  0  0  0  0  0  0  0  0  0  0  0
  1  2  1  0  0  0  0
  1  9  1  0  0  0  0
  2  7  1  0  0  0  0
  3  8  1  0  0  0  0
  3  2  2  0  0  0  0
  4  3  1  0  0  0  0
  5  4  2  0  0  0  0
  5  6  1  0  0  0  0
  6  1  2  0  0  0  0
  9 12  1  0  0  0  0
  9 11  1  0  0  0  0
 10  9  1  0  0  0  0
 10 13  1  0  0  0  0
 10 11  1  0  0  0  0
 11 16  1  0  0  0  0
 11 15  1  0  0  0  0
 14 10  1  0  0  0  0
 17 19  1  0  0  0  0
 17  5  1  0  0  0  0
 18 17  1  0  0  0  0
 21 20  1  0  0  0  0
 21 22  1  0  0  0  0
 22 17  1  0  0  0  0
 23 24  1  0  0  0  0
 23 22  2  0  0  0  0
 25 23  1  0  0  0  0
 26 28  1  0  0  0  0
 26 25  2  0  0  0  0
 27 26  1  0  0  0  0
 28 21  2  0  0  0  0
 29 28  1  0  0  0  0
M  END
>  <minimizedAffinity>
-5.67662764

>  <minimizedRMSD>
1.5142715

$$$$
