
 OpenBabel03272504573D

 34 36  0  0  1  0  0  0  0  0999 V2000
   36.2150   30.2660   49.7280 C   0  0  1  0  0  0  0  0  0  0  0  0
   34.8510   30.6990   49.9200 C   0  0  0  0  0  0  0  0  0  0  0  0
   35.1910   29.7420   48.8260 C   0  0  2  0  0  0  0  0  0  0  0  0
   36.7040   29.4700   50.3900 H   0  0  0  0  0  0  0  0  0  0  0  0
   34.6170   31.7370   49.6010 H   0  0  0  0  0  0  0  0  0  0  0  0
   34.6030   30.5440   50.9520 H   0  0  0  0  0  0  0  0  0  0  0  0
   34.8380   30.1160   47.8820 H   0  0  0  0  0  0  0  0  0  0  0  0
   37.2430   31.1830   49.1250 C   0  0  0  0  0  0  0  0  0  0  0  0
   37.3320   32.4660   49.7040 C   0  0  0  0  0  0  0  0  0  0  0  0
   38.2810   33.2860   49.1350 C   0  0  0  0  0  0  0  0  0  0  0  0
   39.0440   32.8410   48.1000 N   0  0  0  0  0  0  0  0  0  0  0  0
   38.9230   31.5910   47.5730 C   0  0  0  0  0  0  0  0  0  0  0  0
   37.9870   30.7470   48.1140 N   0  0  0  0  0  0  0  0  0  0  0  0
   39.7060   31.1160   46.5110 N   0  0  0  0  0  0  0  0  0  0  0  0
   36.7430   32.8230   50.5090 H   0  0  0  0  0  0  0  0  0  0  0  0
   38.4230   34.2810   49.5070 H   0  0  0  0  0  0  0  0  0  0  0  0
   39.7940   31.7560   45.7010 H   0  0  0  0  0  0  0  0  0  0  0  0
   40.1350   30.1630   46.6280 H   0  0  0  0  0  0  0  0  0  0  0  0
   34.8160   28.4090   49.0570 O   0  0  0  0  0  0  0  0  0  0  0  0
   33.5210   26.5840   47.7910 O   0  0  0  0  0  0  0  0  0  0  0  0
   33.4490   28.0280   48.1820 P   0  0  1  0  0  0  0  0  0  0  0  0
   32.0660   28.1460   49.2280 O   0  0  0  0  0  0  0  0  0  0  0  0
   32.3520   28.0630   50.1630 H   0  0  0  0  0  0  0  0  0  0  0  0
   33.2840   29.0920   46.9080 O   0  0  0  0  0  0  0  0  0  0  0  0
   30.5930   29.7150   46.0080 Cl  0  0  0  0  0  0  0  0  0  0  0  0
   31.9480   29.1000   45.0510 C   0  0  0  0  0  0  0  0  0  0  0  0
   33.2160   28.8280   45.5770 C   0  0  0  0  0  0  0  0  0  0  0  0
   34.1670   28.3510   44.6940 C   0  0  0  0  0  0  0  0  0  0  0  0
   35.1190   28.1650   45.1760 H   0  0  0  0  0  0  0  0  0  0  0  0
   33.8940   28.1490   43.3640 C   0  0  0  0  0  0  0  0  0  0  0  0
   32.6350   28.4280   42.8790 C   0  0  0  0  0  0  0  0  0  0  0  0
   32.3150   28.1630   41.1850 Cl  0  0  0  0  0  0  0  0  0  0  0  0
   31.6570   28.9000   43.7050 C   0  0  0  0  0  0  0  0  0  0  0  0
   30.6830   29.1050   43.2830 H   0  0  0  0  0  0  0  0  0  0  0  0
  1  2  1  0  0  0  0
  1  4  1  1  0  0  0
  2  6  1  0  0  0  0
  3  7  1  6  0  0  0
  3 19  1  0  0  0  0
  3  1  1  0  0  0  0
  3  2  1  0  0  0  0
  5  2  1  0  0  0  0
  8  9  1  0  0  0  0
  8  1  1  0  0  0  0
  9 15  1  0  0  0  0
 10 16  1  0  0  0  0
 10  9  2  0  0  0  0
 11 10  1  0  0  0  0
 12 11  2  0  0  0  0
 12 13  1  0  0  0  0
 13  8  2  0  0  0  0
 14 18  1  0  0  0  0
 14 12  1  0  0  0  0
 17 14  1  0  0  0  0
 21 20  2  6  0  0  0
 21 19  1  0  0  0  0
 21 22  1  0  0  0  0
 22 23  1  0  0  0  0
 24 21  1  0  0  0  0
 26 27  1  0  0  0  0
 26 25  1  0  0  0  0
 27 24  1  0  0  0  0
 28 29  1  0  0  0  0
 28 27  2  0  0  0  0
 30 28  1  0  0  0  0
 31 30  2  0  0  0  0
 31 33  1  0  0  0  0
 32 31  1  0  0  0  0
 33 26  2  0  0  0  0
 34 33  1  0  0  0  0
M  END
>  <minimizedAffinity>
-5.06411123

>  <minimizedRMSD>
3.02370954

$$$$
