
 OpenBabel03262522133D

 34 36  0  0  0  0  0  0  0  0999 V2000
   37.7340   31.7460   47.6940 C   0  0  0  0  0  0  0  0  0  0  0  0
   37.9070   32.4960   48.8680 C   0  0  0  0  0  0  0  0  0  0  0  0
   38.8980   33.4420   48.9380 C   0  0  0  0  0  0  0  0  0  0  0  0
   39.6870   33.6010   47.8150 C   0  0  0  0  0  0  0  0  0  0  0  0
   39.4950   32.8610   46.6960 C   0  0  0  0  0  0  0  0  0  0  0  0
   38.5160   31.9050   46.5810 N   0  0  0  0  0  0  0  0  0  0  0  0
   37.2550   32.3210   49.7090 H   0  0  0  0  0  0  0  0  0  0  0  0
   39.0310   34.0100   49.8290 H   0  0  0  0  0  0  0  0  0  0  0  0
   40.4680   34.3470   47.8730 H   0  0  0  0  0  0  0  0  0  0  0  0
   36.6640   30.7680   47.6930 C   0  0  0  0  0  0  0  0  0  0  0  0
   36.1760   30.3670   46.6330 O   0  0  0  0  0  0  0  0  0  0  0  0
   36.9850   29.6050   49.8520 C   0  0  0  0  0  0  0  0  0  0  0  0
   36.1160   30.2120   48.9380 C   0  0  0  0  0  0  0  0  0  0  0  0
   34.7320   30.2850   49.2160 C   0  0  0  0  0  0  0  0  0  0  0  0
   34.3170   29.7330   50.4130 N   0  0  0  0  0  0  0  0  0  0  0  0
   35.1840   29.1570   51.2690 C   0  0  0  0  0  0  0  0  0  0  0  0
   36.4700   29.0980   50.9940 N   0  0  0  0  0  0  0  0  0  0  0  0
   38.0440   29.5310   49.6740 H   0  0  0  0  0  0  0  0  0  0  0  0
   34.1300   30.7570   48.4820 H   0  0  0  0  0  0  0  0  0  0  0  0
   34.6180   28.8060   52.1210 H   0  0  0  0  0  0  0  0  0  0  0  0
   40.5320   33.0820   45.2290 S   0  0  0  0  0  0  0  0  0  0  0  0
   39.4430   32.8600   43.8060 C   0  0  0  0  0  0  0  0  0  0  0  0
   38.4080   33.2410   43.9960 H   0  0  0  0  0  0  0  0  0  0  0  0
   39.8080   33.5150   42.9590 H   0  0  0  0  0  0  0  0  0  0  0  0
   36.6790   31.5890   43.4990 Cl  0  0  0  0  0  0  0  0  0  0  0  0
   38.1870   30.7820   43.1250 C   0  0  0  0  0  0  0  0  0  0  0  0
   39.3920   31.4690   43.3010 C   0  0  0  0  0  0  0  0  0  0  0  0
   40.5110   30.7400   42.9790 C   0  0  0  0  0  0  0  0  0  0  0  0
   41.4530   31.2950   43.1200 H   0  0  0  0  0  0  0  0  0  0  0  0
   40.6070   29.4480   42.5150 C   0  0  0  0  0  3  0  0  0  0  0  0
   39.3760   28.8020   42.3560 C   0  0  0  0  0  0  0  0  0  0  0  0
   39.4180   27.1500   41.7710 Cl  0  0  0  0  0  0  0  0  0  0  0  0
   38.1800   29.4630   42.6590 C   0  0  0  0  0  0  0  0  0  0  0  0
   37.2570   28.9130   42.5160 H   0  0  0  0  0  0  0  0  0  0  0  0
  1  2  1  0  0  0  0
  2  3  2  0  0  0  0
  2  7  1  0  0  0  0
  3  8  1  0  0  0  0
  4  9  1  0  0  0  0
  4  3  1  0  0  0  0
  5  4  2  0  0  0  0
  6  5  1  0  0  0  0
  6  1  2  0  0  0  0
 10  1  1  0  0  0  0
 10 13  1  0  0  0  0
 11 10  2  0  0  0  0
 12 17  1  0  0  0  0
 13 14  1  0  0  0  0
 13 12  2  0  0  0  0
 14 15  2  0  0  0  0
 15 16  1  0  0  0  0
 16 20  1  0  0  0  0
 17 16  2  0  0  0  0
 18 12  1  0  0  0  0
 19 14  1  0  0  0  0
 21  5  1  0  0  0  0
 22 23  1  0  0  0  0
 22 21  1  0  0  0  0
 24 22  1  0  0  0  0
 26 27  1  0  0  0  0
 26 25  1  0  0  0  0
 27 22  1  0  0  0  0
 28 29  1  0  0  0  0
 28 27  2  0  0  0  0
 30 28  1  0  0  0  0
 31 30  2  0  0  0  0
 31 33  1  0  0  0  0
 32 31  1  0  0  0  0
 33 26  2  0  0  0  0
 34 33  1  0  0  0  0
M  END
>  <minimizedAffinity>
-5.58129549

>  <minimizedRMSD>
1.46641088

$$$$
