
 OpenBabel03272510273D

 46 50  0  0  1  0  0  0  0  0999 V2000
   39.4990   33.5530   43.3110 O   0  0  0  0  0  0  0  0  0  0  0  0
   36.2300   30.2250   46.9150 C   0  0  0  0  0  0  0  0  0  0  0  0
   37.0710   30.7570   47.8760 C   0  0  0  0  0  0  0  0  0  0  0  0
   38.0780   31.6590   47.5120 C   0  0  0  0  0  0  0  0  0  0  0  0
   38.1620   31.9650   46.1580 C   0  0  0  0  0  0  0  0  0  0  0  0
   39.0650   32.8140   45.5560 N   0  0  0  0  0  0  0  0  0  0  0  0
   38.7810   32.8010   44.2470 C   0  0  0  0  0  0  0  0  0  0  0  0
   37.7630   32.0000   44.0270 N   0  0  0  0  0  0  0  0  0  0  0  0
   37.3470   31.4580   45.1830 C   0  0  0  0  0  0  0  0  0  0  0  0
   36.3530   30.5630   45.5730 C   0  0  0  0  0  0  0  0  0  0  0  0
   35.4300   29.5210   47.1370 H   0  0  0  0  0  0  0  0  0  0  0  0
   38.7430   32.0830   48.2520 H   0  0  0  0  0  0  0  0  0  0  0  0
   39.8180   33.3490   46.0560 H   0  0  0  0  0  0  0  0  0  0  0  0
   35.7040   30.1570   44.8070 H   0  0  0  0  0  0  0  0  0  0  0  0
   37.4550   30.1380   51.5540 C   0  0  0  0  0  0  0  0  0  0  0  0
   37.7760   30.5890   50.2810 C   0  0  0  0  0  0  0  0  0  0  0  0
   36.8820   30.3560   49.2530 C   0  0  0  0  0  0  0  0  0  0  0  0
   35.7220   29.6890   49.5590 N   0  0  0  0  0  0  0  0  0  0  0  0
   35.4310   29.2610   50.8030 C   0  0  0  0  0  0  0  0  0  0  0  0
   36.2960   29.4870   51.7830 N   0  0  0  0  0  0  0  0  0  0  0  0
   38.1700   30.3290   52.3540 H   0  0  0  0  0  0  0  0  0  0  0  0
   38.6870   31.1120   50.0470 H   0  0  0  0  0  0  0  0  0  0  0  0
   34.4880   28.7460   50.9240 H   0  0  0  0  0  0  0  0  0  0  0  0
   39.6030   31.6670   41.9860 N   0  0  0  0  0  0  0  0  0  0  0  0
   39.4270   33.1220   41.9600 C   0  0  1  0  0  0  0  0  0  0  0  0
   38.1140   33.4140   41.3980 C   0  0  0  0  0  0  0  0  0  0  0  0
   38.0950   33.0050   40.0590 O   0  0  0  0  0  0  0  0  0  0  0  0
   38.3850   31.6700   39.8650 C   0  0  0  0  0  0  0  0  0  0  0  0
   39.6490   31.2610   40.6160 C   0  0  2  0  0  0  0  0  0  0  0  0
   38.7690   31.1920   42.3740 H   0  0  0  0  0  0  0  0  0  0  0  0
   40.2290   33.4970   41.3280 H   0  0  0  0  0  0  0  0  0  0  0  0
   37.1960   33.0450   41.7730 H   0  0  0  0  0  0  0  0  0  0  0  0
   38.0100   34.5410   41.3390 H   0  0  0  0  0  0  0  0  0  0  0  0
   37.5490   31.0210   40.1730 H   0  0  0  0  0  0  0  0  0  0  0  0
   38.5650   31.5350   38.7860 H   0  0  0  0  0  0  0  0  0  0  0  0
   40.5370   31.7650   40.1200 H   0  0  0  0  0  0  0  0  0  0  0  0
   38.0580   28.8650   42.2100 Cl  0  0  0  0  0  0  0  0  0  0  0  0
   39.2800   28.6570   40.9840 C   0  0  0  0  0  0  0  0  0  0  0  0
   39.8070   29.8170   40.4780 C   0  0  0  0  0  0  0  0  0  0  0  0
   40.7930   29.5220   39.5100 C   0  0  0  0  0  0  0  0  0  0  0  0
   41.3670   30.2770   38.9540 H   0  0  0  0  0  0  0  0  0  0  0  0
   41.1890   28.2460   39.1080 C   0  0  0  0  0  3  0  0  0  0  0  0
   40.5880   27.1710   39.6860 C   0  0  0  0  0  0  0  0  0  0  0  0
   41.0040   25.5280   39.2620 Cl  0  0  0  0  0  0  0  0  0  0  0  0
   39.6280   27.3820   40.6310 C   0  0  0  0  0  0  0  0  0  0  0  0
   39.1340   26.5690   41.1060 H   0  0  0  0  0  0  0  0  0  0  0  0
  1  7  1  0  0  0  0
  2 11  1  0  0  0  0
  2  3  1  0  0  0  0
  3 17  1  0  0  0  0
  4  3  2  0  0  0  0
  4 12  1  0  0  0  0
  5  4  1  0  0  0  0
  6 13  1  0  0  0  0
  6  5  1  0  0  0  0
  7  6  1  0  0  0  0
  8  7  2  0  0  0  0
  8  9  1  0  0  0  0
  9 10  1  0  0  0  0
  9  5  2  0  0  0  0
 10  2  2  0  0  0  0
 14 10  1  0  0  0  0
 15 20  1  0  0  0  0
 15 21  1  0  0  0  0
 16 15  2  0  0  0  0
 17 18  2  0  0  0  0
 17 16  1  0  0  0  0
 18 19  1  0  0  0  0
 19 23  1  0  0  0  0
 19 20  2  0  0  0  0
 22 16  1  0  0  0  0
 24 30  1  0  0  0  0
 25 31  1  6  0  0  0
 25 24  1  0  0  0  0
 25  1  1  0  0  0  0
 26 32  1  0  0  0  0
 26 25  1  0  0  0  0
 27 26  1  0  0  0  0
 28 27  1  0  0  0  0
 28 34  1  0  0  0  0
 28 29  1  0  0  0  0
 29 36  1  6  0  0  0
 29 24  1  0  0  0  0
 33 26  1  0  0  0  0
 35 28  1  0  0  0  0
 38 37  1  0  0  0  0
 39 29  1  0  0  0  0
 39 38  2  0  0  0  0
 40 39  1  0  0  0  0
 41 40  1  0  0  0  0
 42 40  2  0  0  0  0
 42 43  1  0  0  0  0
 43 45  2  0  0  0  0
 44 43  1  0  0  0  0
 45 38  1  0  0  0  0
 45 46  1  0  0  0  0
M  END
>  <minimizedAffinity>
-6.17212009

>  <minimizedRMSD>
0.463860005

$$$$
