
 OpenBabel03272503413D

 42 45  0  0  1  0  0  0  0  0999 V2000
   39.6860   30.8980   41.7360 C   0  0  2  0  0  0  0  0  0  0  0  0
   39.8010   32.1010   42.7010 C   0  0  1  0  0  0  0  0  0  0  0  0
   38.7410   32.9750   42.1110 C   0  0  0  0  0  0  0  0  0  0  0  0
   38.7770   32.8030   40.7490 O   0  0  0  0  0  0  0  0  0  0  0  0
   39.5420   31.7220   40.4380 C   0  0  0  0  0  0  0  0  0  0  0  0
   40.6090   30.3220   41.7290 H   0  0  0  0  0  0  0  0  0  0  0  0
   40.7780   32.5830   42.6340 H   0  0  0  0  0  0  0  0  0  0  0  0
   37.7440   32.6830   42.5150 H   0  0  0  0  0  0  0  0  0  0  0  0
   38.9040   34.0160   42.4170 H   0  0  0  0  0  0  0  0  0  0  0  0
   39.0250   31.1080   39.6720 H   0  0  0  0  0  0  0  0  0  0  0  0
   40.5460   32.0420   40.0730 H   0  0  0  0  0  0  0  0  0  0  0  0
   38.5170   31.1290   45.9180 C   0  0  0  0  0  0  0  0  0  0  0  0
   39.8570   31.0440   46.1570 C   0  0  0  0  0  0  0  0  0  0  0  0
   40.4600   31.4050   44.9540 C   0  0  0  0  0  0  0  0  0  0  0  0
   39.5120   31.6910   44.0500 N   0  0  0  0  0  0  0  0  0  0  0  0
   38.3270   31.5240   44.6370 N   0  0  0  0  0  0  0  0  0  0  0  0
   40.3340   30.7510   47.0950 H   0  0  0  0  0  0  0  0  0  0  0  0
   41.5590   31.4110   44.8980 H   0  0  0  0  0  0  0  0  0  0  0  0
   36.5960   30.6420   49.0980 C   0  0  0  0  0  0  0  0  0  0  0  0
   37.6370   30.9250   48.2350 C   0  0  0  0  0  0  0  0  0  0  0  0
   37.4700   30.8480   46.8720 C   0  0  0  0  0  0  0  0  0  0  0  0
   36.2440   30.4850   46.4320 N   0  0  0  0  0  0  0  0  0  0  0  0
   35.2240   30.2090   47.2950 C   0  0  0  0  0  0  0  0  0  0  0  0
   35.3840   30.2830   48.5980 N   0  0  0  0  0  0  0  0  0  0  0  0
   38.6420   31.2210   48.5500 H   0  0  0  0  0  0  0  0  0  0  0  0
   34.2440   29.9180   46.9150 H   0  0  0  0  0  0  0  0  0  0  0  0
   36.9620   30.7760   50.4420 O   0  0  0  0  0  0  0  0  0  0  0  0
   36.9500   29.6990   51.3520 C   0  0  0  0  0  0  0  0  0  0  0  0
   35.6640   29.2620   51.6340 F   0  0  0  0  0  0  0  0  0  0  0  0
   37.6010   30.0780   52.4930 F   0  0  0  0  0  0  0  0  0  0  0  0
   37.6730   28.6600   50.7950 F   0  0  0  0  0  0  0  0  0  0  0  0
   38.5030   30.2930   42.0170 O   0  0  0  0  0  0  0  0  0  0  0  0
   40.1460   27.6890   42.4470 Cl  0  0  0  0  0  0  0  0  0  0  0  0
   38.4720   27.7720   41.9760 C   0  0  0  0  0  0  0  0  0  0  0  0
   37.9940   29.0570   41.8580 C   0  0  0  0  0  0  0  0  0  0  0  0
   36.6430   29.1390   41.4790 C   0  0  0  0  0  0  0  0  0  0  0  0
   36.0500   30.0550   41.3240 H   0  0  0  0  0  0  0  0  0  0  0  0
   35.8550   28.0290   41.2440 C   0  0  0  0  0  3  0  0  0  0  0  0
   36.4170   26.7760   41.3850 C   0  0  0  0  0  0  0  0  0  0  0  0
   35.5100   25.3080   41.1120 Cl  0  0  0  0  0  0  0  0  0  0  0  0
   37.7360   26.6460   41.7550 C   0  0  0  0  0  0  0  0  0  0  0  0
   38.2360   25.7010   41.8840 H   0  0  0  0  0  0  0  0  0  0  0  0
  1  6  1  1  0  0  0
  1 32  1  0  0  0  0
  1  2  1  0  0  0  0
  2  7  1  6  0  0  0
  2 15  1  0  0  0  0
  3  9  1  0  0  0  0
  3  8  1  0  0  0  0
  3  2  1  0  0  0  0
  4  3  1  0  0  0  0
  5  4  1  0  0  0  0
  5  1  1  0  0  0  0
 10  5  1  0  0  0  0
 11  5  1  0  0  0  0
 12 13  1  0  0  0  0
 12 21  1  0  0  0  0
 13 17  1  0  0  0  0
 14 13  2  0  0  0  0
 15 16  1  0  0  0  0
 15 14  1  0  0  0  0
 16 12  2  0  0  0  0
 18 14  1  0  0  0  0
 19 27  1  0  0  0  0
 20 25  1  0  0  0  0
 20 19  2  0  0  0  0
 21 20  1  0  0  0  0
 22 21  2  0  0  0  0
 22 23  1  0  0  0  0
 23 24  2  0  0  0  0
 24 19  1  0  0  0  0
 26 23  1  0  0  0  0
 27 28  1  0  0  0  0
 28 29  1  0  0  0  0
 28 30  1  0  0  0  0
 31 28  1  0  0  0  0
 34 33  1  0  0  0  0
 35 34  1  0  0  0  0
 35 32  1  0  0  0  0
 36 35  2  0  0  0  0
 37 36  1  0  0  0  0
 38 39  2  0  0  0  0
 38 36  1  0  0  0  0
 39 41  1  0  0  0  0
 40 39  1  0  0  0  0
 41 42  1  0  0  0  0
 41 34  2  0  0  0  0
M  END
>  <minimizedAffinity>
-6.10676622

>  <minimizedRMSD>
0.903044403

$$$$
