
 OpenBabel03262522583D

 26 28  0  0  0  0  0  0  0  0999 V2000
   37.9130   27.1100   33.9810 C   0  0  0  0  0  0  0  0  0  0  0  0
   37.8790   27.5530   35.2960 C   0  0  0  0  0  0  0  0  0  0  0  0
   38.5290   26.6510   36.0810 C   0  0  0  0  0  0  0  0  0  0  0  0
   38.9580   25.6630   35.2560 N   0  0  0  0  0  0  0  0  0  0  0  0
   38.5740   25.9640   33.9960 N   0  0  0  0  0  0  0  0  0  0  0  0
   37.4080   28.4610   35.6010 H   0  0  0  0  0  0  0  0  0  0  0  0
   38.6680   26.7220   37.1490 H   0  0  0  0  0  0  0  0  0  0  0  0
   37.4420   23.7650   37.0830 Cl  0  0  0  0  0  0  0  0  0  0  0  0
   39.1080   23.5920   36.5500 C   0  0  0  0  0  0  0  0  0  0  0  0
   39.6870   24.5290   35.7140 C   0  0  0  0  0  0  0  0  0  0  0  0
   41.0170   24.3500   35.3160 C   0  0  0  0  0  0  0  0  0  0  0  0
   41.4900   25.0860   34.6520 H   0  0  0  0  0  0  0  0  0  0  0  0
   41.7750   23.2660   35.7280 C   0  0  0  0  0  3  0  0  0  0  0  0
   41.1650   22.3460   36.5650 C   0  0  0  0  0  0  0  0  0  0  0  0
   42.1040   20.9490   37.1130 Cl  0  0  0  0  0  0  0  0  0  0  0  0
   39.8480   22.4870   36.9840 C   0  0  0  0  0  0  0  0  0  0  0  0
   39.4420   21.7210   37.6420 H   0  0  0  0  0  0  0  0  0  0  0  0
   35.5850   28.9620   31.8420 C   0  0  0  0  0  0  0  0  0  0  0  0
   36.3010   29.0530   30.6270 C   0  0  0  0  0  0  0  0  0  0  0  0
   37.5700   28.4790   30.5600 C   0  0  0  0  0  0  0  0  0  0  0  0
   38.0380   27.8650   31.6720 N   0  0  0  0  0  0  0  0  0  0  0  0
   37.3270   27.7920   32.8310 C   0  0  0  0  0  0  0  0  0  0  0  0
   36.1060   28.3380   32.9140 N   0  0  0  0  0  0  0  0  0  0  0  0
   34.5790   29.3960   31.9530 H   0  0  0  0  0  0  0  0  0  0  0  0
   35.8300   29.5690   29.7940 H   0  0  0  0  0  0  0  0  0  0  0  0
   38.1240   28.5410   29.6430 H   0  0  0  0  0  0  0  0  0  0  0  0
  1  5  2  0  0  0  0
  1  2  1  0  0  0  0
  2  6  1  0  0  0  0
  2  3  2  0  0  0  0
  3  7  1  0  0  0  0
  4 10  1  0  0  0  0
  4  3  1  0  0  0  0
  5  4  1  0  0  0  0
  9 16  1  0  0  0  0
  9  8  1  0  0  0  0
 10  9  2  0  0  0  0
 11 10  1  0  0  0  0
 11 13  2  0  0  0  0
 12 11  1  0  0  0  0
 13 14  1  0  0  0  0
 14 16  2  0  0  0  0
 14 15  1  0  0  0  0
 16 17  1  0  0  0  0
 18 24  1  0  0  0  0
 18 23  1  0  0  0  0
 19 18  2  0  0  0  0
 20 19  1  0  0  0  0
 20 21  2  0  0  0  0
 21 22  1  0  0  0  0
 22 23  2  0  0  0  0
 22  1  1  0  0  0  0
 25 19  1  0  0  0  0
 26 20  1  0  0  0  0
M  END
>  <minimizedAffinity>
-4.89380884

$$$$

 OpenBabel03262522583D

 26 28  0  0  0  0  0  0  0  0999 V2000
   36.5180   27.7900   33.3660 C   0  0  0  0  0  0  0  0  0  0  0  0
   36.2540   28.6560   32.3150 C   0  0  0  0  0  0  0  0  0  0  0  0
   35.7300   29.8090   32.8150 C   0  0  0  0  0  0  0  0  0  0  0  0
   35.6720   29.6510   34.1610 N   0  0  0  0  0  0  0  0  0  0  0  0
   36.1530   28.4260   34.4670 N   0  0  0  0  0  0  0  0  0  0  0  0
   36.4470   28.4190   31.2920 H   0  0  0  0  0  0  0  0  0  0  0  0
   35.4260   30.6690   32.2400 H   0  0  0  0  0  0  0  0  0  0  0  0
   32.7400   29.4090   34.9210 Cl  0  0  0  0  0  0  0  0  0  0  0  0
   33.8570   30.6530   35.4600 C   0  0  0  0  0  0  0  0  0  0  0  0
   35.1750   30.6540   35.0410 C   0  0  0  0  0  0  0  0  0  0  0  0
   36.0290   31.6650   35.4960 C   0  0  0  0  0  0  0  0  0  0  0  0
   37.0780   31.6790   35.1710 H   0  0  0  0  0  0  0  0  0  0  0  0
   35.6020   32.6660   36.3530 C   0  0  0  0  0  3  0  0  0  0  0  0
   34.2770   32.6360   36.7540 C   0  0  0  0  0  0  0  0  0  0  0  0
   33.6950   33.9000   37.8490 Cl  0  0  0  0  0  0  0  0  0  0  0  0
   33.3970   31.6510   36.3250 C   0  0  0  0  0  0  0  0  0  0  0  0
   32.3700   31.6980   36.6860 H   0  0  0  0  0  0  0  0  0  0  0  0
   38.4560   24.7550   34.0490 C   0  0  0  0  0  0  0  0  0  0  0  0
   38.1050   23.9240   32.9620 C   0  0  0  0  0  0  0  0  0  0  0  0
   37.2100   24.4160   32.0120 C   0  0  0  0  0  0  0  0  0  0  0  0
   36.7310   25.6690   32.1940 N   0  0  0  0  0  0  0  0  0  0  0  0
   37.0860   26.4500   33.2520 C   0  0  0  0  0  0  0  0  0  0  0  0
   37.9450   25.9940   34.1740 N   0  0  0  0  0  0  0  0  0  0  0  0
   39.1580   24.4210   34.8280 H   0  0  0  0  0  0  0  0  0  0  0  0
   38.5490   22.9330   32.9120 H   0  0  0  0  0  0  0  0  0  0  0  0
   36.9340   23.7940   31.1810 H   0  0  0  0  0  0  0  0  0  0  0  0
  1  5  2  0  0  0  0
  2  3  2  0  0  0  0
  2  1  1  0  0  0  0
  3  4  1  0  0  0  0
  4  5  1  0  0  0  0
  4 10  1  0  0  0  0
  6  2  1  0  0  0  0
  7  3  1  0  0  0  0
  8  9  1  0  0  0  0
  9 16  1  0  0  0  0
 10  9  2  0  0  0  0
 10 11  1  0  0  0  0
 11 13  2  0  0  0  0
 12 11  1  0  0  0  0
 13 14  1  0  0  0  0
 14 15  1  0  0  0  0
 16 17  1  0  0  0  0
 16 14  2  0  0  0  0
 18 23  1  0  0  0  0
 18 24  1  0  0  0  0
 19 18  2  0  0  0  0
 20 21  2  0  0  0  0
 20 19  1  0  0  0  0
 21 22  1  0  0  0  0
 22  1  1  0  0  0  0
 22 23  2  0  0  0  0
 25 19  1  0  0  0  0
 26 20  1  0  0  0  0
M  END
>  <minimizedAffinity>
-4.78513098

$$$$

 OpenBabel03262522583D

 26 28  0  0  0  0  0  0  0  0999 V2000
   37.3360   26.3230   33.5080 C   0  0  0  0  0  0  0  0  0  0  0  0
   37.1650   25.2370   32.6610 C   0  0  0  0  0  0  0  0  0  0  0  0
   37.8650   24.1790   33.1560 C   0  0  0  0  0  0  0  0  0  0  0  0
   38.4600   24.6130   34.2950 N   0  0  0  0  0  0  0  0  0  0  0  0
   38.1260   25.9080   34.4840 N   0  0  0  0  0  0  0  0  0  0  0  0
   36.5710   25.2670   31.7750 H   0  0  0  0  0  0  0  0  0  0  0  0
   37.9240   23.1960   32.7160 H   0  0  0  0  0  0  0  0  0  0  0  0
   37.4490   24.0870   37.1120 Cl  0  0  0  0  0  0  0  0  0  0  0  0
   38.9360   23.4700   36.4060 C   0  0  0  0  0  0  0  0  0  0  0  0
   39.2870   23.7840   35.1050 C   0  0  0  0  0  0  0  0  0  0  0  0
   40.4800   23.2710   34.5840 C   0  0  0  0  0  0  0  0  0  0  0  0
   40.7720   23.5110   33.5530 H   0  0  0  0  0  0  0  0  0  0  0  0
   41.3240   22.4590   35.3250 C   0  0  0  0  0  3  0  0  0  0  0  0
   40.9430   22.1640   36.6240 C   0  0  0  0  0  0  0  0  0  0  0  0
   41.9970   21.1300   37.6000 Cl  0  0  0  0  0  0  0  0  0  0  0  0
   39.7670   22.6530   37.1780 C   0  0  0  0  0  0  0  0  0  0  0  0
   39.5400   22.3760   38.2060 H   0  0  0  0  0  0  0  0  0  0  0  0
   36.1490   29.4330   31.9730 C   0  0  0  0  0  0  0  0  0  0  0  0
   35.6350   30.1380   33.0840 C   0  0  0  0  0  0  0  0  0  0  0  0
   35.7030   29.5380   34.3410 C   0  0  0  0  0  0  0  0  0  0  0  0
   36.2620   28.3080   34.4170 N   0  0  0  0  0  0  0  0  0  0  0  0
   36.7490   27.6490   33.3300 C   0  0  0  0  0  0  0  0  0  0  0  0
   36.6930   28.2100   32.1140 N   0  0  0  0  0  0  0  0  0  0  0  0
   36.1220   29.8560   30.9580 H   0  0  0  0  0  0  0  0  0  0  0  0
   35.2070   31.1230   32.9110 H   0  0  0  0  0  0  0  0  0  0  0  0
   35.3160   30.0640   35.1940 H   0  0  0  0  0  0  0  0  0  0  0  0
  1  5  2  0  0  0  0
  2  3  2  0  0  0  0
  2  1  1  0  0  0  0
  3  4  1  0  0  0  0
  4  5  1  0  0  0  0
  4 10  1  0  0  0  0
  6  2  1  0  0  0  0
  7  3  1  0  0  0  0
  9  8  1  0  0  0  0
  9 16  1  0  0  0  0
 10  9  2  0  0  0  0
 11 10  1  0  0  0  0
 11 13  2  0  0  0  0
 12 11  1  0  0  0  0
 13 14  1  0  0  0  0
 14 16  2  0  0  0  0
 14 15  1  0  0  0  0
 16 17  1  0  0  0  0
 18 23  2  0  0  0  0
 18 19  1  0  0  0  0
 19 20  2  0  0  0  0
 20 21  1  0  0  0  0
 20 26  1  0  0  0  0
 22  1  1  0  0  0  0
 22 21  2  0  0  0  0
 23 22  1  0  0  0  0
 24 18  1  0  0  0  0
 25 19  1  0  0  0  0
M  END
>  <minimizedAffinity>
-4.73361731

$$$$

 OpenBabel03262522583D

 26 28  0  0  0  0  0  0  0  0999 V2000
   38.1370   24.6000   34.6060 C   0  0  0  0  0  0  0  0  0  0  0  0
   37.8450   23.7950   33.5140 C   0  0  0  0  0  0  0  0  0  0  0  0
   37.6210   24.5870   32.4300 C   0  0  0  0  0  0  0  0  0  0  0  0
   37.7730   25.8670   32.8520 N   0  0  0  0  0  0  0  0  0  0  0  0
   38.0840   25.8480   34.1670 N   0  0  0  0  0  0  0  0  0  0  0  0
   37.8120   22.7290   33.5590 H   0  0  0  0  0  0  0  0  0  0  0  0
   37.3720   24.2480   31.4360 H   0  0  0  0  0  0  0  0  0  0  0  0
   40.1100   26.4540   31.0010 Cl  0  0  0  0  0  0  0  0  0  0  0  0
   38.6100   27.3630   31.1070 C   0  0  0  0  0  0  0  0  0  0  0  0
   37.6170   26.9930   31.9950 C   0  0  0  0  0  0  0  0  0  0  0  0
   36.4390   27.7470   32.0460 C   0  0  0  0  0  0  0  0  0  0  0  0
   35.6420   27.4650   32.7470 H   0  0  0  0  0  0  0  0  0  0  0  0
   36.2310   28.8520   31.2360 C   0  0  0  0  0  3  0  0  0  0  0  0
   37.2450   29.1950   30.3580 C   0  0  0  0  0  0  0  0  0  0  0  0
   37.0140   30.6030   29.3080 Cl  0  0  0  0  0  0  0  0  0  0  0  0
   38.4290   28.4740   30.2770 C   0  0  0  0  0  0  0  0  0  0  0  0
   39.1770   28.8100   29.5600 H   0  0  0  0  0  0  0  0  0  0  0  0
   37.9720   24.0830   38.2300 C   0  0  0  0  0  0  0  0  0  0  0  0
   39.0700   23.2240   38.4610 C   0  0  0  0  0  0  0  0  0  0  0  0
   39.8500   22.8360   37.3710 C   0  0  0  0  0  0  0  0  0  0  0  0
   39.5020   23.3110   36.1530 N   0  0  0  0  0  0  0  0  0  0  0  0
   38.4380   24.1370   35.9570 C   0  0  0  0  0  0  0  0  0  0  0  0
   37.6770   24.5210   36.9930 N   0  0  0  0  0  0  0  0  0  0  0  0
   37.3220   24.4220   39.0510 H   0  0  0  0  0  0  0  0  0  0  0  0
   39.2610   22.9010   39.4810 H   0  0  0  0  0  0  0  0  0  0  0  0
   40.6870   22.1830   37.5330 H   0  0  0  0  0  0  0  0  0  0  0  0
  1 22  1  0  0  0  0
  2  6  1  0  0  0  0
  2  1  1  0  0  0  0
  3  4  1  0  0  0  0
  3  2  2  0  0  0  0
  4  5  1  0  0  0  0
  5  1  2  0  0  0  0
  7  3  1  0  0  0  0
  8  9  1  0  0  0  0
  9 10  1  0  0  0  0
 10 11  2  0  0  0  0
 10  4  1  0  0  0  0
 11 12  1  0  0  0  0
 13 11  1  0  0  0  0
 14 13  2  0  0  0  0
 15 14  1  0  0  0  0
 16 14  1  0  0  0  0
 16  9  2  0  0  0  0
 17 16  1  0  0  0  0
 18 19  1  0  0  0  0
 18 24  1  0  0  0  0
 19 25  1  0  0  0  0
 20 26  1  0  0  0  0
 20 19  2  0  0  0  0
 21 20  1  0  0  0  0
 22 21  2  0  0  0  0
 22 23  1  0  0  0  0
 23 18  2  0  0  0  0
M  END
>  <minimizedAffinity>
-4.72794533

$$$$

 OpenBabel03262522583D

 26 28  0  0  0  0  0  0  0  0999 V2000
   37.9020   25.9400   35.1760 C   0  0  0  0  0  0  0  0  0  0  0  0
   38.2880   27.0580   35.9030 C   0  0  0  0  0  0  0  0  0  0  0  0
   37.6630   28.1530   35.3890 C   0  0  0  0  0  0  0  0  0  0  0  0
   36.9020   27.7120   34.3570 N   0  0  0  0  0  0  0  0  0  0  0  0
   37.0630   26.3750   34.2490 N   0  0  0  0  0  0  0  0  0  0  0  0
   38.9660   27.0220   36.7250 H   0  0  0  0  0  0  0  0  0  0  0  0
   37.7640   29.1660   35.7460 H   0  0  0  0  0  0  0  0  0  0  0  0
   37.8130   28.1100   31.4850 Cl  0  0  0  0  0  0  0  0  0  0  0  0
   36.4020   28.8340   32.2410 C   0  0  0  0  0  0  0  0  0  0  0  0
   36.0920   28.5730   33.5640 C   0  0  0  0  0  0  0  0  0  0  0  0
   34.9580   29.1730   34.1240 C   0  0  0  0  0  0  0  0  0  0  0  0
   34.7000   28.9750   35.1730 H   0  0  0  0  0  0  0  0  0  0  0  0
   34.1330   30.0190   33.4010 C   0  0  0  0  0  3  0  0  0  0  0  0
   34.4710   30.2590   32.0800 C   0  0  0  0  0  0  0  0  0  0  0  0
   33.4400   31.3360   31.1250 Cl  0  0  0  0  0  0  0  0  0  0  0  0
   35.5880   29.6840   31.4860 C   0  0  0  0  0  0  0  0  0  0  0  0
   35.7850   29.9240   30.4420 H   0  0  0  0  0  0  0  0  0  0  0  0
   38.7710   22.4190   34.6450 C   0  0  0  0  0  0  0  0  0  0  0  0
   39.2010   22.0190   35.9300 C   0  0  0  0  0  0  0  0  0  0  0  0
   39.1870   22.9620   36.9580 C   0  0  0  0  0  0  0  0  0  0  0  0
   38.7580   24.2090   36.6560 N   0  0  0  0  0  0  0  0  0  0  0  0
   38.3490   24.5700   35.4090 C   0  0  0  0  0  0  0  0  0  0  0  0
   38.3550   23.6770   34.4080 N   0  0  0  0  0  0  0  0  0  0  0  0
   38.7600   21.7200   33.7950 H   0  0  0  0  0  0  0  0  0  0  0  0
   39.5260   20.9900   36.0620 H   0  0  0  0  0  0  0  0  0  0  0  0
   39.5120   22.6700   37.9390 H   0  0  0  0  0  0  0  0  0  0  0  0
  1 22  1  0  0  0  0
  1  2  1  0  0  0  0
  2  6  1  0  0  0  0
  3  7  1  0  0  0  0
  3  2  2  0  0  0  0
  4  3  1  0  0  0  0
  5  4  1  0  0  0  0
  5  1  2  0  0  0  0
  8  9  1  0  0  0  0
  9 10  1  0  0  0  0
 10 11  2  0  0  0  0
 10  4  1  0  0  0  0
 11 12  1  0  0  0  0
 13 11  1  0  0  0  0
 14 13  2  0  0  0  0
 15 14  1  0  0  0  0
 16 14  1  0  0  0  0
 16  9  2  0  0  0  0
 17 16  1  0  0  0  0
 18 19  1  0  0  0  0
 19 25  1  0  0  0  0
 19 20  2  0  0  0  0
 20 26  1  0  0  0  0
 21 20  1  0  0  0  0
 22 21  2  0  0  0  0
 23 18  2  0  0  0  0
 23 22  1  0  0  0  0
 24 18  1  0  0  0  0
M  END
>  <minimizedAffinity>
-4.71911335

$$$$

 OpenBabel03262522583D

 26 28  0  0  0  0  0  0  0  0999 V2000
   36.3170   27.6460   31.9110 C   0  0  0  0  0  0  0  0  0  0  0  0
   36.4070   28.8030   31.1480 C   0  0  0  0  0  0  0  0  0  0  0  0
   35.9600   29.8530   31.8890 C   0  0  0  0  0  0  0  0  0  0  0  0
   35.5970   29.3480   33.0930 N   0  0  0  0  0  0  0  0  0  0  0  0
   35.8220   28.0150   33.0810 N   0  0  0  0  0  0  0  0  0  0  0  0
   36.7760   28.8220   30.1470 H   0  0  0  0  0  0  0  0  0  0  0  0
   35.9090   30.8820   31.5650 H   0  0  0  0  0  0  0  0  0  0  0  0
   32.5660   29.5050   33.2560 Cl  0  0  0  0  0  0  0  0  0  0  0  0
   33.7100   30.2990   34.3280 C   0  0  0  0  0  0  0  0  0  0  0  0
   35.0740   30.1480   34.1480 C   0  0  0  0  0  0  0  0  0  0  0  0
   35.9470   30.8000   35.0260 C   0  0  0  0  0  0  0  0  0  0  0  0
   37.0330   30.6890   34.8950 H   0  0  0  0  0  0  0  0  0  0  0  0
   35.4970   31.5910   36.0700 C   0  0  0  0  0  3  0  0  0  0  0  0
   34.1260   31.7210   36.2220 C   0  0  0  0  0  0  0  0  0  0  0  0
   33.5130   32.7250   37.5450 Cl  0  0  0  0  0  0  0  0  0  0  0  0
   33.2250   31.0910   35.3730 C   0  0  0  0  0  0  0  0  0  0  0  0
   32.1630   31.2450   35.5590 H   0  0  0  0  0  0  0  0  0  0  0  0
   38.2910   24.7960   30.7230 C   0  0  0  0  0  0  0  0  0  0  0  0
   37.3310   23.7600   30.6870 C   0  0  0  0  0  0  0  0  0  0  0  0
   36.0220   24.0540   31.0710 C   0  0  0  0  0  0  0  0  0  0  0  0
   35.7540   25.3240   31.4550 N   0  0  0  0  0  0  0  0  0  0  0  0
   36.6980   26.3040   31.4810 C   0  0  0  0  0  0  0  0  0  0  0  0
   37.9610   26.0400   31.1160 N   0  0  0  0  0  0  0  0  0  0  0  0
   39.3380   24.6230   30.4320 H   0  0  0  0  0  0  0  0  0  0  0  0
   37.6540   22.7750   30.3610 H   0  0  0  0  0  0  0  0  0  0  0  0
   35.2830   23.2760   31.0480 H   0  0  0  0  0  0  0  0  0  0  0  0
  1  5  2  0  0  0  0
  2  3  2  0  0  0  0
  2  1  1  0  0  0  0
  3  4  1  0  0  0  0
  4 10  1  0  0  0  0
  5  4  1  0  0  0  0
  6  2  1  0  0  0  0
  7  3  1  0  0  0  0
  8  9  1  0  0  0  0
  9 16  1  0  0  0  0
 10  9  2  0  0  0  0
 10 11  1  0  0  0  0
 11 13  2  0  0  0  0
 12 11  1  0  0  0  0
 13 14  1  0  0  0  0
 14 15  1  0  0  0  0
 16 17  1  0  0  0  0
 16 14  2  0  0  0  0
 18 23  1  0  0  0  0
 19 18  2  0  0  0  0
 19 20  1  0  0  0  0
 20 21  2  0  0  0  0
 21 22  1  0  0  0  0
 22  1  1  0  0  0  0
 23 22  2  0  0  0  0
 24 18  1  0  0  0  0
 25 19  1  0  0  0  0
 26 20  1  0  0  0  0
M  END
>  <minimizedAffinity>
-4.67353296

$$$$

 OpenBabel03262522583D

 26 28  0  0  0  0  0  0  0  0999 V2000
   37.9170   27.0980   33.9710 C   0  0  0  0  0  0  0  0  0  0  0  0
   37.8500   27.5090   35.2950 C   0  0  0  0  0  0  0  0  0  0  0  0
   38.5230   26.6140   36.0680 C   0  0  0  0  0  0  0  0  0  0  0  0
   38.9970   25.6610   35.2280 N   0  0  0  0  0  0  0  0  0  0  0  0
   38.6180   25.9760   33.9700 N   0  0  0  0  0  0  0  0  0  0  0  0
   37.3440   28.3930   35.6140 H   0  0  0  0  0  0  0  0  0  0  0  0
   38.6460   26.6660   37.1390 H   0  0  0  0  0  0  0  0  0  0  0  0
   41.9500   25.7090   34.5080 Cl  0  0  0  0  0  0  0  0  0  0  0  0
   41.1160   24.4490   35.4040 C   0  0  0  0  0  0  0  0  0  0  0  0
   39.7610   24.5440   35.6690 C   0  0  0  0  0  0  0  0  0  0  0  0
   39.1390   23.5150   36.3860 C   0  0  0  0  0  0  0  0  0  0  0  0
   38.0640   23.5770   36.6040 H   0  0  0  0  0  0  0  0  0  0  0  0
   39.8310   22.4050   36.8410 C   0  0  0  0  0  3  0  0  0  0  0  0
   41.1850   22.3410   36.5600 C   0  0  0  0  0  0  0  0  0  0  0  0
   42.1020   20.9350   37.1250 Cl  0  0  0  0  0  0  0  0  0  0  0  0
   41.8410   23.3400   35.8510 C   0  0  0  0  0  0  0  0  0  0  0  0
   42.9070   23.2140   35.6700 H   0  0  0  0  0  0  0  0  0  0  0  0
   35.5850   28.9890   31.8700 C   0  0  0  0  0  0  0  0  0  0  0  0
   36.2740   29.0510   30.6380 C   0  0  0  0  0  0  0  0  0  0  0  0
   37.5260   28.4450   30.5460 C   0  0  0  0  0  0  0  0  0  0  0  0
   38.0050   27.8300   31.6530 N   0  0  0  0  0  0  0  0  0  0  0  0
   37.3210   27.7840   32.8290 C   0  0  0  0  0  0  0  0  0  0  0  0
   36.1160   28.3620   32.9350 N   0  0  0  0  0  0  0  0  0  0  0  0
   34.5940   29.4490   32.0020 H   0  0  0  0  0  0  0  0  0  0  0  0
   35.7960   29.5720   29.8110 H   0  0  0  0  0  0  0  0  0  0  0  0
   38.0600   28.4850   29.6160 H   0  0  0  0  0  0  0  0  0  0  0  0
  1  2  1  0  0  0  0
  2  6  1  0  0  0  0
  2  3  2  0  0  0  0
  3  7  1  0  0  0  0
  4 10  1  0  0  0  0
  4  3  1  0  0  0  0
  5  1  2  0  0  0  0
  5  4  1  0  0  0  0
  8  9  1  0  0  0  0
  9 10  2  0  0  0  0
  9 16  1  0  0  0  0
 10 11  1  0  0  0  0
 11 12  1  0  0  0  0
 11 13  2  0  0  0  0
 14 13  1  0  0  0  0
 14 15  1  0  0  0  0
 16 14  2  0  0  0  0
 17 16  1  0  0  0  0
 18 24  1  0  0  0  0
 18 23  1  0  0  0  0
 19 18  2  0  0  0  0
 20 19  1  0  0  0  0
 20 21  2  0  0  0  0
 21 22  1  0  0  0  0
 22 23  2  0  0  0  0
 22  1  1  0  0  0  0
 25 19  1  0  0  0  0
 26 20  1  0  0  0  0
M  END
>  <minimizedAffinity>
-4.65079832

$$$$

 OpenBabel03262522583D

 26 28  0  0  0  0  0  0  0  0999 V2000
   37.0750   28.5540   31.9030 C   0  0  0  0  0  0  0  0  0  0  0  0
   37.0600   27.5780   32.8900 C   0  0  0  0  0  0  0  0  0  0  0  0
   36.3840   28.0560   33.9710 C   0  0  0  0  0  0  0  0  0  0  0  0
   35.9900   29.3140   33.6510 N   0  0  0  0  0  0  0  0  0  0  0  0
   36.4180   29.5900   32.4000 N   0  0  0  0  0  0  0  0  0  0  0  0
   37.5150   26.6190   32.7790 H   0  0  0  0  0  0  0  0  0  0  0  0
   36.2070   27.5260   34.8940 H   0  0  0  0  0  0  0  0  0  0  0  0
   32.9700   29.2470   33.3150 Cl  0  0  0  0  0  0  0  0  0  0  0  0
   33.8680   30.2030   34.4840 C   0  0  0  0  0  0  0  0  0  0  0  0
   35.2490   30.1460   34.5380 C   0  0  0  0  0  0  0  0  0  0  0  0
   35.9220   30.9250   35.4860 C   0  0  0  0  0  0  0  0  0  0  0  0
   37.0190   30.8900   35.5400 H   0  0  0  0  0  0  0  0  0  0  0  0
   35.2550   31.7530   36.3740 C   0  0  0  0  0  3  0  0  0  0  0  0
   33.8730   31.7870   36.2940 C   0  0  0  0  0  0  0  0  0  0  0  0
   32.9860   32.8340   37.4140 Cl  0  0  0  0  0  0  0  0  0  0  0  0
   33.1670   31.0290   35.3680 C   0  0  0  0  0  0  0  0  0  0  0  0
   32.0810   31.1130   35.3700 H   0  0  0  0  0  0  0  0  0  0  0  0
   39.2100   27.4210   29.1490 C   0  0  0  0  0  0  0  0  0  0  0  0
   38.8210   28.2770   28.0950 C   0  0  0  0  0  0  0  0  0  0  0  0
   37.8320   29.2290   28.3440 C   0  0  0  0  0  0  0  0  0  0  0  0
   37.3060   29.2730   29.5900 N   0  0  0  0  0  0  0  0  0  0  0  0
   37.6990   28.4350   30.5890 C   0  0  0  0  0  0  0  0  0  0  0  0
   38.6480   27.5140   30.3670 N   0  0  0  0  0  0  0  0  0  0  0  0
   39.9850   26.6510   29.0110 H   0  0  0  0  0  0  0  0  0  0  0  0
   39.3090   28.1570   27.1310 H   0  0  0  0  0  0  0  0  0  0  0  0
   37.5270   29.8860   27.5510 H   0  0  0  0  0  0  0  0  0  0  0  0
  1  5  2  0  0  0  0
  1  2  1  0  0  0  0
  2  3  2  0  0  0  0
  3  7  1  0  0  0  0
  4  3  1  0  0  0  0
  4 10  1  0  0  0  0
  5  4  1  0  0  0  0
  6  2  1  0  0  0  0
  8  9  1  0  0  0  0
  9 10  2  0  0  0  0
  9 16  1  0  0  0  0
 10 11  1  0  0  0  0
 11 12  1  0  0  0  0
 11 13  2  0  0  0  0
 14 13  1  0  0  0  0
 14 15  1  0  0  0  0
 16 17  1  0  0  0  0
 16 14  2  0  0  0  0
 18 23  1  0  0  0  0
 19 20  1  0  0  0  0
 19 18  2  0  0  0  0
 20 21  2  0  0  0  0
 21 22  1  0  0  0  0
 22  1  1  0  0  0  0
 23 22  2  0  0  0  0
 24 18  1  0  0  0  0
 25 19  1  0  0  0  0
 26 20  1  0  0  0  0
M  END
>  <minimizedAffinity>
-4.57284546

$$$$

 OpenBabel03262522583D

 26 28  0  0  0  0  0  0  0  0999 V2000
   37.0950   23.1030   31.3140 C   0  0  0  0  0  0  0  0  0  0  0  0
   38.1330   23.7850   30.6950 C   0  0  0  0  0  0  0  0  0  0  0  0
   38.1110   25.0840   31.1020 C   0  0  0  0  0  0  0  0  0  0  0  0
   37.0680   25.1980   31.9620 N   0  0  0  0  0  0  0  0  0  0  0  0
   36.4730   23.9900   32.0730 N   0  0  0  0  0  0  0  0  0  0  0  0
   38.8170   23.3280   30.0160 H   0  0  0  0  0  0  0  0  0  0  0  0
   38.7950   25.8580   30.7910 H   0  0  0  0  0  0  0  0  0  0  0  0
   38.0490   25.5150   34.8210 Cl  0  0  0  0  0  0  0  0  0  0  0  0
   37.1080   26.6830   33.9070 C   0  0  0  0  0  0  0  0  0  0  0  0
   36.7200   26.4200   32.6050 C   0  0  0  0  0  0  0  0  0  0  0  0
   35.9710   27.3790   31.9150 C   0  0  0  0  0  0  0  0  0  0  0  0
   35.6560   27.1840   30.8810 H   0  0  0  0  0  0  0  0  0  0  0  0
   35.6030   28.5860   32.4890 C   0  0  0  0  0  3  0  0  0  0  0  0
   36.0070   28.8180   33.7930 C   0  0  0  0  0  0  0  0  0  0  0  0
   35.5540   30.3490   34.5580 Cl  0  0  0  0  0  0  0  0  0  0  0  0
   36.7510   27.8920   34.5120 C   0  0  0  0  0  0  0  0  0  0  0  0
   37.0290   28.1510   35.5330 H   0  0  0  0  0  0  0  0  0  0  0  0
   35.4250   19.8510   31.5700 C   0  0  0  0  0  0  0  0  0  0  0  0
   36.2500   19.0260   30.7730 C   0  0  0  0  0  0  0  0  0  0  0  0
   37.3650   19.5970   30.1600 C   0  0  0  0  0  0  0  0  0  0  0  0
   37.5880   20.9150   30.3710 N   0  0  0  0  0  0  0  0  0  0  0  0
   36.7770   21.6880   31.1430 C   0  0  0  0  0  0  0  0  0  0  0  0
   35.7000   21.1570   31.7400 N   0  0  0  0  0  0  0  0  0  0  0  0
   34.5320   19.4560   32.0780 H   0  0  0  0  0  0  0  0  0  0  0  0
   35.9790   17.9780   30.6710 H   0  0  0  0  0  0  0  0  0  0  0  0
   38.0010   18.9810   29.5520 H   0  0  0  0  0  0  0  0  0  0  0  0
  1  5  2  0  0  0  0
  2  3  2  0  0  0  0
  2  1  1  0  0  0  0
  3  4  1  0  0  0  0
  4  5  1  0  0  0  0
  4 10  1  0  0  0  0
  6  2  1  0  0  0  0
  7  3  1  0  0  0  0
  9 16  1  0  0  0  0
  9  8  1  0  0  0  0
 10  9  2  0  0  0  0
 11 13  2  0  0  0  0
 11 10  1  0  0  0  0
 12 11  1  0  0  0  0
 13 14  1  0  0  0  0
 14 16  2  0  0  0  0
 14 15  1  0  0  0  0
 16 17  1  0  0  0  0
 18 23  1  0  0  0  0
 18 24  1  0  0  0  0
 19 18  2  0  0  0  0
 20 21  2  0  0  0  0
 20 19  1  0  0  0  0
 21 22  1  0  0  0  0
 22  1  1  0  0  0  0
 22 23  2  0  0  0  0
 25 19  1  0  0  0  0
 26 20  1  0  0  0  0
M  END
>  <minimizedAffinity>
-4.55628633

$$$$
