
 OpenBabel03272503333D

 42 45  0  0  1  0  0  0  0  0999 V2000
   35.4210   29.4110   47.8150 C   0  0  0  0  0  0  0  0  0  0  0  0
   35.3610   29.9790   46.5420 C   0  0  0  0  0  0  0  0  0  0  0  0
   34.2980   29.5970   45.7150 C   0  0  0  0  0  0  0  0  0  0  0  0
   33.3930   28.6890   46.2220 N   0  0  0  0  0  0  0  0  0  0  0  0
   33.4920   28.1710   47.4470 C   0  0  0  0  0  0  0  0  0  0  0  0
   34.5070   28.5350   48.2410 N   0  0  0  0  0  0  0  0  0  0  0  0
   36.0690   30.6910   46.1430 H   0  0  0  0  0  0  0  0  0  0  0  0
   34.1650   29.9760   44.7250 H   0  0  0  0  0  0  0  0  0  0  0  0
   36.5140   29.8090   48.6540 N   0  0  0  0  0  0  0  0  0  0  0  0
   37.6670   30.5670   48.2730 C   0  0  0  0  0  0  0  0  0  0  0  0
   38.0530   31.2520   49.5770 C   0  0  2  0  0  0  0  0  0  0  0  0
   36.9540   30.9110   50.5810 C   0  0  0  0  0  0  0  0  0  0  0  0
   36.6540   29.5080   50.0770 C   0  0  0  0  0  0  0  0  0  0  0  0
   37.4360   31.3440   47.4950 H   0  0  0  0  0  0  0  0  0  0  0  0
   38.5200   29.9240   47.9510 H   0  0  0  0  0  0  0  0  0  0  0  0
   38.9880   30.8120   50.0000 H   0  0  0  0  0  0  0  0  0  0  0  0
   36.0960   31.5640   50.4110 H   0  0  0  0  0  0  0  0  0  0  0  0
   37.3230   30.9180   51.6130 H   0  0  0  0  0  0  0  0  0  0  0  0
   35.6910   29.1680   50.4910 H   0  0  0  0  0  0  0  0  0  0  0  0
   37.5040   28.8510   50.2810 H   0  0  0  0  0  0  0  0  0  0  0  0
   38.2060   32.7390   49.4110 C   0  0  0  0  0  0  0  0  0  0  0  0
   37.0610   33.3170   49.9210 F   0  0  0  0  0  0  0  0  0  0  0  0
   38.2080   32.9950   48.0650 F   0  0  0  0  0  0  0  0  0  0  0  0
   39.3370   33.2360   50.0020 F   0  0  0  0  0  0  0  0  0  0  0  0
   32.2900   27.0010   48.0480 S   0  0  0  0  0  0  0  0  0  0  0  0
   30.8500   27.6070   48.6850 C   0  0  0  0  0  0  0  0  0  0  0  0
   30.0890   27.5570   49.8160 C   0  0  0  0  0  0  0  0  0  0  0  0
   28.9160   28.2030   50.0020 C   0  0  0  0  0  0  0  0  0  0  0  0
   28.5010   29.0020   48.8260 C   0  0  0  0  0  0  0  0  0  0  0  0
   29.8240   28.7420   47.6070 S   0  0  0  0  0  0  0  0  0  0  0  0
   30.5530   26.9270   50.5600 H   0  0  0  0  0  0  0  0  0  0  0  0
   28.3220   28.1610   50.8920 H   0  0  0  0  0  0  0  0  0  0  0  0
   26.2390   28.0420   50.4910 Cl  0  0  0  0  0  0  0  0  0  0  0  0
   26.2400   29.4210   49.4150 C   0  0  0  0  0  0  0  0  0  0  0  0
   27.3440   29.7890   48.6810 C   0  0  0  0  0  0  0  0  0  0  0  0
   27.4080   30.8590   47.8190 C   0  0  0  0  0  0  0  0  0  0  0  0
   28.2970   31.1040   47.2690 H   0  0  0  0  0  0  0  0  0  0  0  0
   26.2480   31.6340   47.6840 C   0  0  0  0  0  3  0  0  0  0  0  0
   25.0970   31.3040   48.4070 C   0  0  0  0  0  0  0  0  0  0  0  0
   23.6310   32.2510   48.2620 Cl  0  0  0  0  0  0  0  0  0  0  0  0
   25.0860   30.2030   49.2720 C   0  0  0  0  0  0  0  0  0  0  0  0
   24.1870   29.9610   49.8230 H   0  0  0  0  0  0  0  0  0  0  0  0
  1  6  1  0  0  0  0
  1  9  1  0  0  0  0
  2  1  2  0  0  0  0
  3  4  2  0  0  0  0
  3  2  1  0  0  0  0
  4  5  1  0  0  0  0
  5 25  1  0  0  0  0
  5  6  2  0  0  0  0
  7  2  1  0  0  0  0
  8  3  1  0  0  0  0
  9 13  1  0  0  0  0
 10  9  1  0  0  0  0
 10 11  1  0  0  0  0
 11 16  1  1  0  0  0
 11 12  1  0  0  0  0
 12 18  1  0  0  0  0
 13 20  1  0  0  0  0
 13 19  1  0  0  0  0
 13 12  1  0  0  0  0
 14 10  1  0  0  0  0
 15 10  1  0  0  0  0
 17 12  1  0  0  0  0
 21 11  1  0  0  0  0
 21 22  1  0  0  0  0
 21 24  1  0  0  0  0
 23 21  1  0  0  0  0
 25 26  1  0  0  0  0
 26 27  2  0  0  0  0
 27 28  1  0  0  0  0
 27 31  1  0  0  0  0
 28 32  1  0  0  0  0
 29 28  2  0  0  0  0
 30 26  1  0  0  0  0
 30 29  1  0  0  0  0
 34 33  1  0  0  0  0
 35 29  1  0  0  0  0
 35 34  2  0  0  0  0
 36 35  1  0  0  0  0
 37 36  1  0  0  0  0
 38 36  2  0  0  0  0
 38 39  1  0  0  0  0
 39 41  2  0  0  0  0
 40 39  1  0  0  0  0
 41 34  1  0  0  0  0
 41 42  1  0  0  0  0
M  END
>  <minimizedAffinity>
-6.99531889

>  <minimizedRMSD>
0.536845386

$$$$
