
 OpenBabel03262523493D

 22 23  0  0  0  0  0  0  0  0999 V2000
   36.8240   30.7150   45.9470 C   0  0  0  0  0  0  0  0  0  0  0  0
   35.9880   31.3840   45.6840 H   0  0  0  0  0  0  0  0  0  0  0  0
   36.7000   29.6930   45.5130 H   0  0  0  0  0  0  0  0  0  0  0  0
   34.1690   30.2730   47.3910 Cl  0  0  0  0  0  0  0  0  0  0  0  0
   35.7120   30.3440   48.2220 C   0  0  0  0  0  0  0  0  0  0  0  0
   36.8400   30.5540   47.4210 C   0  0  0  0  0  0  0  0  0  0  0  0
   38.0330   30.6040   48.1130 C   0  0  0  0  0  0  0  0  0  0  0  0
   38.9360   30.7670   47.5150 H   0  0  0  0  0  0  0  0  0  0  0  0
   38.2250   30.4740   49.4690 C   0  0  0  0  0  0  0  0  0  0  0  0
   37.0870   30.2710   50.2130 C   0  0  0  0  0  0  0  0  0  0  0  0
   37.2350   30.0930   51.9540 Cl  0  0  0  0  0  0  0  0  0  0  0  0
   35.8590   30.2090   49.5870 C   0  0  0  0  0  0  0  0  0  0  0  0
   34.9450   30.0440   50.1800 H   0  0  0  0  0  0  0  0  0  0  0  0
   38.1440   31.1790   45.4680 C   0  0  0  0  0  0  0  0  0  0  0  0
   38.3470   32.5600   45.4220 C   0  0  0  0  0  0  0  0  0  0  0  0
   39.5920   33.0450   44.9730 C   0  0  0  0  0  0  0  0  0  0  0  0
   40.5380   32.1200   44.6060 N   0  0  0  0  0  0  0  0  0  0  0  0
   40.2890   30.7970   44.6710 C   0  0  0  0  0  0  0  0  0  0  0  0
   39.1120   30.3200   45.0940 N   0  0  0  0  0  0  0  0  0  0  0  0
   37.6460   33.3260   45.6940 H   0  0  0  0  0  0  0  0  0  0  0  0
   39.8260   34.1060   44.9090 H   0  0  0  0  0  0  0  0  0  0  0  0
   41.0120   30.0430   44.3900 H   0  0  0  0  0  0  0  0  0  0  0  0
  1  6  1  0  0  0  0
  2  1  1  0  0  0  0
  3  1  1  0  0  0  0
  4  5  1  0  0  0  0
  5 12  1  0  0  0  0
  6  7  1  0  0  0  0
  6  5  2  0  0  0  0
  7  9  2  0  0  0  0
  8  7  1  0  0  0  0
  9 10  1  0  0  0  0
 10 11  1  0  0  0  0
 12 13  1  0  0  0  0
 12 10  2  0  0  0  0
 14  1  1  0  0  0  0
 15 14  1  0  0  0  0
 15 20  1  0  0  0  0
 16 15  2  0  0  0  0
 17 18  2  0  0  0  0
 17 16  1  0  0  0  0
 18 19  1  0  0  0  0
 19 14  2  0  0  0  0
 21 16  1  0  0  0  0
 22 18  1  0  0  0  0
M  END
>  <minimizedAffinity>
-5.2777977

>  <minimizedRMSD>
5.30357981

$$$$
