
 OpenBabel03272510303D

 29 31  0  0  0  0  0  0  0  0999 V2000
   37.2760   31.3720   49.3170 C   0  0  0  0  0  0  0  0  0  0  0  0
   37.4770   32.6550   49.8300 C   0  0  0  0  0  0  0  0  0  0  0  0
   38.3660   33.4440   49.1360 C   0  0  0  0  0  0  0  0  0  0  0  0
   38.9900   32.9500   48.0150 N   0  0  0  0  0  0  0  0  0  0  0  0
   38.7600   31.6890   47.5550 C   0  0  0  0  0  0  0  0  0  0  0  0
   37.8820   30.8800   48.2230 N   0  0  0  0  0  0  0  0  0  0  0  0
   36.9480   32.9750   50.7200 H   0  0  0  0  0  0  0  0  0  0  0  0
   38.5690   34.4510   49.4780 H   0  0  0  0  0  0  0  0  0  0  0  0
   36.2840   30.4880   50.0320 C   0  0  0  0  0  0  0  0  0  0  0  0
   36.2780   29.0530   49.9110 C   0  0  0  0  0  0  0  0  0  0  0  0
   36.9280   29.6500   51.1460 C   0  0  0  0  0  0  0  0  0  0  0  0
   35.3450   31.0260   50.3320 H   0  0  0  0  0  0  0  0  0  0  0  0
   35.3400   28.4960   50.0150 H   0  0  0  0  0  0  0  0  0  0  0  0
   36.9780   28.6130   49.1460 H   0  0  0  0  0  0  0  0  0  0  0  0
   36.3270   29.6030   52.0610 H   0  0  0  0  0  0  0  0  0  0  0  0
   38.0240   29.6500   51.2530 H   0  0  0  0  0  0  0  0  0  0  0  0
   39.4040   31.1570   46.3570 C   0  0  0  0  0  0  0  0  0  0  0  0
   39.5240   30.0390   46.4510 H   0  0  0  0  0  0  0  0  0  0  0  0
   40.4040   31.5910   46.1830 H   0  0  0  0  0  0  0  0  0  0  0  0
   40.0720   33.6630   44.7330 Cl  0  0  0  0  0  0  0  0  0  0  0  0
   38.8270   32.4780   44.3910 C   0  0  0  0  0  0  0  0  0  0  0  0
   38.5420   31.3530   45.1380 C   0  0  0  0  0  0  0  0  0  0  0  0
   37.5240   30.5190   44.7290 C   0  0  0  0  0  0  0  0  0  0  0  0
   37.3440   29.6500   45.3540 H   0  0  0  0  0  0  0  0  0  0  0  0
   36.7970   30.7850   43.6040 C   0  0  0  0  0  3  0  0  0  0  0  0
   37.0740   31.9200   42.8390 C   0  0  0  0  0  0  0  0  0  0  0  0
   36.1140   32.2180   41.4070 Cl  0  0  0  0  0  0  0  0  0  0  0  0
   38.0950   32.7700   43.2370 C   0  0  0  0  0  0  0  0  0  0  0  0
   38.2530   33.6260   42.5980 H   0  0  0  0  0  0  0  0  0  0  0  0
  1  2  1  0  0  0  0
  1  9  1  0  0  0  0
  2  7  1  0  0  0  0
  3  8  1  0  0  0  0
  3  2  2  0  0  0  0
  4  3  1  0  0  0  0
  5  4  2  0  0  0  0
  5  6  1  0  0  0  0
  6  1  2  0  0  0  0
  9 12  1  0  0  0  0
  9 11  1  0  0  0  0
 10 13  1  0  0  0  0
 10  9  1  0  0  0  0
 10 11  1  0  0  0  0
 11 16  1  0  0  0  0
 11 15  1  0  0  0  0
 14 10  1  0  0  0  0
 17 18  1  0  0  0  0
 17  5  1  0  0  0  0
 19 17  1  0  0  0  0
 21 20  1  0  0  0  0
 21 22  1  0  0  0  0
 22 17  1  0  0  0  0
 23 22  2  0  0  0  0
 23 24  1  0  0  0  0
 25 23  1  0  0  0  0
 26 28  1  0  0  0  0
 26 25  2  0  0  0  0
 27 26  1  0  0  0  0
 28 21  2  0  0  0  0
 29 28  1  0  0  0  0
M  END
>  <minimizedAffinity>
-5.7283988

>  <minimizedRMSD>
0.541884303

$$$$
