
 OpenBabel03272503413D

 42 45  0  0  1  0  0  0  0  0999 V2000
   39.9770   31.0380   41.7330 C   0  0  2  0  0  0  0  0  0  0  0  0
   39.6480   32.2240   42.6700 C   0  0  1  0  0  0  0  0  0  0  0  0
   38.4390   32.7490   41.9660 C   0  0  0  0  0  0  0  0  0  0  0  0
   38.6480   32.5940   40.6180 O   0  0  0  0  0  0  0  0  0  0  0  0
   39.7190   31.7830   40.4050 C   0  0  0  0  0  0  0  0  0  0  0  0
   41.0240   30.7560   41.8220 H   0  0  0  0  0  0  0  0  0  0  0  0
   40.4450   32.9700   42.6750 H   0  0  0  0  0  0  0  0  0  0  0  0
   37.5370   32.1790   42.2900 H   0  0  0  0  0  0  0  0  0  0  0  0
   38.2630   33.7930   42.2560 H   0  0  0  0  0  0  0  0  0  0  0  0
   39.4740   31.0430   39.6140 H   0  0  0  0  0  0  0  0  0  0  0  0
   40.6150   32.3810   40.1200 H   0  0  0  0  0  0  0  0  0  0  0  0
   38.3880   31.1180   45.8530 C   0  0  0  0  0  0  0  0  0  0  0  0
   39.7290   30.9740   46.0610 C   0  0  0  0  0  0  0  0  0  0  0  0
   40.3230   31.3820   44.8680 C   0  0  0  0  0  0  0  0  0  0  0  0
   39.3700   31.7490   44.0000 N   0  0  0  0  0  0  0  0  0  0  0  0
   38.1890   31.5890   44.6000 N   0  0  0  0  0  0  0  0  0  0  0  0
   40.2120   30.6140   46.9720 H   0  0  0  0  0  0  0  0  0  0  0  0
   41.4200   31.3540   44.7910 H   0  0  0  0  0  0  0  0  0  0  0  0
   36.4820   30.6120   49.0390 C   0  0  0  0  0  0  0  0  0  0  0  0
   37.5150   30.9120   48.1730 C   0  0  0  0  0  0  0  0  0  0  0  0
   37.3490   30.8190   46.8110 C   0  0  0  0  0  0  0  0  0  0  0  0
   36.1320   30.4240   46.3740 N   0  0  0  0  0  0  0  0  0  0  0  0
   35.1200   30.1300   47.2410 C   0  0  0  0  0  0  0  0  0  0  0  0
   35.2780   30.2190   48.5430 N   0  0  0  0  0  0  0  0  0  0  0  0
   38.5130   31.2350   48.4840 H   0  0  0  0  0  0  0  0  0  0  0  0
   34.1470   29.8130   46.8650 H   0  0  0  0  0  0  0  0  0  0  0  0
   36.8460   30.7660   50.3820 O   0  0  0  0  0  0  0  0  0  0  0  0
   36.8910   29.6910   51.2930 C   0  0  0  0  0  0  0  0  0  0  0  0
   35.6270   29.2400   51.6410 F   0  0  0  0  0  0  0  0  0  0  0  0
   37.5960   30.0790   52.3980 F   0  0  0  0  0  0  0  0  0  0  0  0
   37.5970   28.6590   50.7010 F   0  0  0  0  0  0  0  0  0  0  0  0
   39.0000   30.1150   41.9270 O   0  0  0  0  0  0  0  0  0  0  0  0
   38.2020   28.7030   39.2740 Cl  0  0  0  0  0  0  0  0  0  0  0  0
   38.5800   27.9100   40.7760 C   0  0  0  0  0  0  0  0  0  0  0  0
   38.9010   28.7780   41.7950 C   0  0  0  0  0  0  0  0  0  0  0  0
   39.2080   28.1520   43.0140 C   0  0  0  0  0  0  0  0  0  0  0  0
   39.4920   28.6400   43.9610 H   0  0  0  0  0  0  0  0  0  0  0  0
   39.1910   26.7820   43.1860 C   0  0  0  0  0  3  0  0  0  0  0  0
   38.8560   25.9830   42.1090 C   0  0  0  0  0  0  0  0  0  0  0  0
   38.8050   24.2400   42.2190 Cl  0  0  0  0  0  0  0  0  0  0  0  0
   38.5480   26.5510   40.8950 C   0  0  0  0  0  0  0  0  0  0  0  0
   38.2800   25.9910   40.0180 H   0  0  0  0  0  0  0  0  0  0  0  0
  1  6  1  1  0  0  0
  1 32  1  0  0  0  0
  1  2  1  0  0  0  0
  2  7  1  1  0  0  0
  2 15  1  0  0  0  0
  3  9  1  0  0  0  0
  3  8  1  0  0  0  0
  3  2  1  0  0  0  0
  4  3  1  0  0  0  0
  5  4  1  0  0  0  0
  5  1  1  0  0  0  0
 10  5  1  0  0  0  0
 11  5  1  0  0  0  0
 12 13  1  0  0  0  0
 12 21  1  0  0  0  0
 13 17  1  0  0  0  0
 14 13  2  0  0  0  0
 15 16  1  0  0  0  0
 15 14  1  0  0  0  0
 16 12  2  0  0  0  0
 18 14  1  0  0  0  0
 19 27  1  0  0  0  0
 20 25  1  0  0  0  0
 20 19  2  0  0  0  0
 21 20  1  0  0  0  0
 22 21  2  0  0  0  0
 22 23  1  0  0  0  0
 23 24  2  0  0  0  0
 24 19  1  0  0  0  0
 26 23  1  0  0  0  0
 27 28  1  0  0  0  0
 28 29  1  0  0  0  0
 28 30  1  0  0  0  0
 31 28  1  0  0  0  0
 33 34  1  0  0  0  0
 34 41  2  0  0  0  0
 34 35  1  0  0  0  0
 35 32  1  0  0  0  0
 35 36  2  0  0  0  0
 36 38  1  0  0  0  0
 36 37  1  0  0  0  0
 39 40  1  0  0  0  0
 39 38  2  0  0  0  0
 41 39  1  0  0  0  0
 42 41  1  0  0  0  0
M  END
>  <minimizedAffinity>
-6.3078599

>  <minimizedRMSD>
0.944805741

$$$$
