
 OpenBabel03272500073D

 40 43  0  0  0  0  0  0  0  0999 V2000
   32.4080   27.1750   47.7740 O   0  0  0  0  0  0  0  0  0  0  0  0
   31.1010   27.5660   48.0700 C   0  0  0  0  0  0  0  0  0  0  0  0
   30.8180   27.6460   49.4160 C   0  0  0  0  0  0  0  0  0  0  0  0
   29.5650   28.0210   49.8460 C   0  0  0  0  0  0  0  0  0  0  0  0
   28.5820   28.3180   48.8880 C   0  0  0  0  0  0  0  0  0  0  0  0
   28.8790   28.2340   47.5480 C   0  0  0  0  0  0  0  0  0  0  0  0
   30.1270   27.8610   47.1500 C   0  0  0  0  0  0  0  0  0  0  0  0
   31.5470   27.4250   50.1820 H   0  0  0  0  0  0  0  0  0  0  0  0
   29.3570   28.0790   50.9200 H   0  0  0  0  0  0  0  0  0  0  0  0
   27.6140   28.6080   49.2560 H   0  0  0  0  0  0  0  0  0  0  0  0
   28.0830   28.4750   46.8690 H   0  0  0  0  0  0  0  0  0  0  0  0
   29.4070   25.1810   46.2040 Cl  0  0  0  0  0  0  0  0  0  0  0  0
   30.1040   26.4910   45.2640 C   0  0  0  0  0  0  0  0  0  0  0  0
   30.4460   27.7650   45.7310 C   0  0  0  0  0  0  0  0  0  0  0  0
   30.9860   28.6690   44.8420 C   0  0  0  0  0  0  0  0  0  0  0  0
   31.1990   29.6060   45.3340 H   0  0  0  0  0  0  0  0  0  0  0  0
   31.1770   28.3060   43.5270 C   0  0  0  0  0  3  0  0  0  0  0  0
   30.8500   27.0630   43.0520 C   0  0  0  0  0  0  0  0  0  0  0  0
   31.1580   26.7600   41.3520 Cl  0  0  0  0  0  0  0  0  0  0  0  0
   30.3100   26.1490   43.9240 C   0  0  0  0  0  0  0  0  0  0  0  0
   30.0720   25.1860   43.4920 H   0  0  0  0  0  0  0  0  0  0  0  0
   35.3750   28.8460   48.9300 C   0  0  0  0  0  0  0  0  0  0  0  0
   35.3280   30.0720   48.2620 C   0  0  0  0  0  0  0  0  0  0  0  0
   34.2510   30.3010   47.4110 C   0  0  0  0  0  0  0  0  0  0  0  0
   33.3110   29.3220   47.2780 N   0  0  0  0  0  0  0  0  0  0  0  0
   33.3810   28.1610   47.9260 C   0  0  0  0  0  0  0  0  0  0  0  0
   34.4240   27.9090   48.7680 N   0  0  0  0  0  0  0  0  0  0  0  0
   36.1850   28.6000   49.6100 H   0  0  0  0  0  0  0  0  0  0  0  0
   34.2220   31.2420   46.9030 H   0  0  0  0  0  0  0  0  0  0  0  0
   36.3730   31.0070   48.4870 N   0  0  0  0  0  0  0  0  0  0  0  0
   36.5060   31.6660   49.6340 C   0  0  0  0  0  0  0  0  0  0  0  0
   37.5560   32.5650   49.7780 C   0  0  0  0  0  0  0  0  0  0  0  0
   38.3820   32.7010   48.7100 C   0  0  0  0  0  0  0  0  0  0  0  0
   39.3380   33.5210   48.8420 O   0  0  0  0  0  0  0  0  0  0  0  0
   38.2810   32.0600   47.5480 N   0  0  0  0  0  0  0  0  0  0  0  0
   37.2430   31.1870   47.4350 C   0  0  0  0  0  0  0  0  0  0  0  0
   37.1330   30.5660   46.3330 O   0  0  0  0  0  0  0  0  0  0  0  0
   35.8150   31.5160   50.4530 H   0  0  0  0  0  0  0  0  0  0  0  0
   37.7050   33.1290   50.6990 H   0  0  0  0  0  0  0  0  0  0  0  0
   38.9440   32.2010   46.7530 H   0  0  0  0  0  0  0  0  0  0  0  0
  1 26  1  0  0  0  0
  1  2  1  0  0  0  0
  2  3  1  0  0  0  0
  3  4  2  0  0  0  0
  3  8  1  0  0  0  0
  4  9  1  0  0  0  0
  5 10  1  0  0  0  0
  5  4  1  0  0  0  0
  6  5  2  0  0  0  0
  7  6  1  0  0  0  0
  7  2  2  0  0  0  0
 11  6  1  0  0  0  0
 13 14  1  0  0  0  0
 13 12  1  0  0  0  0
 14  7  1  0  0  0  0
 15 16  1  0  0  0  0
 15 14  2  0  0  0  0
 17 15  1  0  0  0  0
 18 17  2  0  0  0  0
 18 20  1  0  0  0  0
 19 18  1  0  0  0  0
 20 13  2  0  0  0  0
 21 20  1  0  0  0  0
 22 28  1  0  0  0  0
 23 30  1  0  0  0  0
 23 22  2  0  0  0  0
 24 23  1  0  0  0  0
 25 24  2  0  0  0  0
 25 26  1  0  0  0  0
 26 27  2  0  0  0  0
 27 22  1  0  0  0  0
 29 24  1  0  0  0  0
 30 31  1  0  0  0  0
 31 32  2  0  0  0  0
 31 38  1  0  0  0  0
 32 39  1  0  0  0  0
 33 34  2  0  0  0  0
 33 32  1  0  0  0  0
 35 33  1  0  0  0  0
 36 35  1  0  0  0  0
 36 30  1  0  0  0  0
 37 36  2  0  0  0  0
 40 35  1  0  0  0  0
M  END
>  <minimizedAffinity>
-5.77771044

>  <minimizedRMSD>
0.665405571

$$$$
