
 OpenBabel03262522133D

 34 36  0  0  0  0  0  0  0  0999 V2000
   37.7340   31.6100   47.5200 C   0  0  0  0  0  0  0  0  0  0  0  0
   37.9250   32.4770   48.6080 C   0  0  0  0  0  0  0  0  0  0  0  0
   38.9640   33.3720   48.5960 C   0  0  0  0  0  0  0  0  0  0  0  0
   39.7800   33.3640   47.4820 C   0  0  0  0  0  0  0  0  0  0  0  0
   39.5700   32.5140   46.4480 C   0  0  0  0  0  0  0  0  0  0  0  0
   38.5430   31.6020   46.4160 N   0  0  0  0  0  0  0  0  0  0  0  0
   37.2490   32.4310   49.4470 H   0  0  0  0  0  0  0  0  0  0  0  0
   39.1100   34.0300   49.4210 H   0  0  0  0  0  0  0  0  0  0  0  0
   40.5990   34.0710   47.4750 H   0  0  0  0  0  0  0  0  0  0  0  0
   36.6140   30.6930   47.6020 C   0  0  0  0  0  0  0  0  0  0  0  0
   36.0220   30.3260   46.5840 O   0  0  0  0  0  0  0  0  0  0  0  0
   37.0610   29.6440   49.7970 C   0  0  0  0  0  0  0  0  0  0  0  0
   36.1330   30.1620   48.8860 C   0  0  0  0  0  0  0  0  0  0  0  0
   34.7560   30.1720   49.2040 C   0  0  0  0  0  0  0  0  0  0  0  0
   34.4080   29.6510   50.4350 N   0  0  0  0  0  0  0  0  0  0  0  0
   35.3300   29.1600   51.2870 C   0  0  0  0  0  0  0  0  0  0  0  0
   36.6090   29.1590   50.9750 N   0  0  0  0  0  0  0  0  0  0  0  0
   38.1170   29.6190   49.5890 H   0  0  0  0  0  0  0  0  0  0  0  0
   34.1080   30.5790   48.4700 H   0  0  0  0  0  0  0  0  0  0  0  0
   34.8090   28.8170   52.1700 H   0  0  0  0  0  0  0  0  0  0  0  0
   40.6430   32.5150   44.9910 S   0  0  0  0  0  0  0  0  0  0  0  0
   39.6710   33.2320   43.6490 C   0  0  0  0  0  0  0  0  0  0  0  0
   39.2670   34.2430   43.9080 H   0  0  0  0  0  0  0  0  0  0  0  0
   40.3540   33.4430   42.7730 H   0  0  0  0  0  0  0  0  0  0  0  0
   40.4480   30.9630   41.7520 Cl  0  0  0  0  0  0  0  0  0  0  0  0
   38.8130   31.2900   42.2870 C   0  0  0  0  0  0  0  0  0  0  0  0
   38.5820   32.3550   43.1630 C   0  0  0  0  0  0  0  0  0  0  0  0
   37.2640   32.5210   43.5170 C   0  0  0  0  0  0  0  0  0  0  0  0
   37.0960   33.3610   44.2080 H   0  0  0  0  0  0  0  0  0  0  0  0
   36.1600   31.7920   43.1330 C   0  0  0  0  0  3  0  0  0  0  0  0
   36.4430   30.7390   42.2580 C   0  0  0  0  0  0  0  0  0  0  0  0
   35.0850   29.7670   41.7220 Cl  0  0  0  0  0  0  0  0  0  0  0  0
   37.7570   30.4910   41.8400 C   0  0  0  0  0  0  0  0  0  0  0  0
   37.9160   29.6620   41.1620 H   0  0  0  0  0  0  0  0  0  0  0  0
  1 10  1  0  0  0  0
  1  2  1  0  0  0  0
  2  7  1  0  0  0  0
  3  2  2  0  0  0  0
  3  8  1  0  0  0  0
  4  3  1  0  0  0  0
  5  4  2  0  0  0  0
  6  5  1  0  0  0  0
  6  1  2  0  0  0  0
  9  4  1  0  0  0  0
 10 13  1  0  0  0  0
 11 10  2  0  0  0  0
 12 17  1  0  0  0  0
 13 14  1  0  0  0  0
 13 12  2  0  0  0  0
 14 15  2  0  0  0  0
 15 16  1  0  0  0  0
 16 20  1  0  0  0  0
 17 16  2  0  0  0  0
 18 12  1  0  0  0  0
 19 14  1  0  0  0  0
 21  5  1  0  0  0  0
 22 23  1  0  0  0  0
 22 21  1  0  0  0  0
 24 22  1  0  0  0  0
 25 26  1  0  0  0  0
 26 27  1  0  0  0  0
 27 28  2  0  0  0  0
 27 22  1  0  0  0  0
 28 29  1  0  0  0  0
 30 28  1  0  0  0  0
 31 30  2  0  0  0  0
 32 31  1  0  0  0  0
 33 31  1  0  0  0  0
 33 26  2  0  0  0  0
 34 33  1  0  0  0  0
M  END
>  <minimizedAffinity>
-5.36698198

>  <minimizedRMSD>
1.11454296

$$$$
