
 OpenBabel03272503433D

 42 45  0  0  1  0  0  0  0  0999 V2000
   34.7280   28.6950   32.3870 C   0  0  2  0  0  0  0  0  0  0  0  0
   35.9380   28.3670   31.4810 C   0  0  1  0  0  0  0  0  0  0  0  0
   36.4420   29.7550   31.2540 C   0  0  0  0  0  0  0  0  0  0  0  0
   35.3480   30.5810   31.1680 O   0  0  0  0  0  0  0  0  0  0  0  0
   34.2350   29.9220   31.5900 C   0  0  0  0  0  0  0  0  0  0  0  0
   33.9950   27.8920   32.3530 H   0  0  0  0  0  0  0  0  0  0  0  0
   35.6280   27.9110   30.5390 H   0  0  0  0  0  0  0  0  0  0  0  0
   37.0970   30.0620   32.1020 H   0  0  0  0  0  0  0  0  0  0  0  0
   37.0710   29.7820   30.3550 H   0  0  0  0  0  0  0  0  0  0  0  0
   33.6460   30.5800   32.2620 H   0  0  0  0  0  0  0  0  0  0  0  0
   33.6190   29.5950   30.7210 H   0  0  0  0  0  0  0  0  0  0  0  0
   37.8240   25.9240   33.3300 C   0  0  0  0  0  0  0  0  0  0  0  0
   38.8100   26.8200   33.0380 C   0  0  0  0  0  0  0  0  0  0  0  0
   38.1780   27.8250   32.3090 C   0  0  0  0  0  0  0  0  0  0  0  0
   36.8770   27.5300   32.1820 N   0  0  0  0  0  0  0  0  0  0  0  0
   36.6590   26.3710   32.8040 N   0  0  0  0  0  0  0  0  0  0  0  0
   39.8620   26.7450   33.3210 H   0  0  0  0  0  0  0  0  0  0  0  0
   38.7800   28.6750   31.9540 H   0  0  0  0  0  0  0  0  0  0  0  0
   38.6410   23.4440   36.0170 C   0  0  0  0  0  0  0  0  0  0  0  0
   38.5050   24.6470   35.3530 C   0  0  0  0  0  0  0  0  0  0  0  0
   37.9890   24.7000   34.0790 C   0  0  0  0  0  0  0  0  0  0  0  0
   37.6260   23.5220   33.5230 N   0  0  0  0  0  0  0  0  0  0  0  0
   37.7650   22.3410   34.1910 C   0  0  0  0  0  0  0  0  0  0  0  0
   38.2570   22.2900   35.4080 N   0  0  0  0  0  0  0  0  0  0  0  0
   38.7870   25.6200   35.7650 H   0  0  0  0  0  0  0  0  0  0  0  0
   37.4640   21.4030   33.7210 H   0  0  0  0  0  0  0  0  0  0  0  0
   39.1830   23.5970   37.2980 O   0  0  0  0  0  0  0  0  0  0  0  0
   38.3940   23.8330   38.4430 C   0  0  0  0  0  0  0  0  0  0  0  0
   37.3330   22.9460   38.5440 F   0  0  0  0  0  0  0  0  0  0  0  0
   37.9530   25.1270   38.4140 F   0  0  0  0  0  0  0  0  0  0  0  0
   39.2050   23.7030   39.5560 F   0  0  0  0  0  0  0  0  0  0  0  0
   35.2390   29.1060   33.5750 O   0  0  0  0  0  0  0  0  0  0  0  0
   32.3800   29.2300   34.7880 Cl  0  0  0  0  0  0  0  0  0  0  0  0
   33.7160   30.2570   35.2230 C   0  0  0  0  0  0  0  0  0  0  0  0
   34.8710   29.9850   34.5270 C   0  0  0  0  0  0  0  0  0  0  0  0
   35.9600   30.8070   34.8680 C   0  0  0  0  0  0  0  0  0  0  0  0
   36.9770   30.7730   34.4450 H   0  0  0  0  0  0  0  0  0  0  0  0
   35.8840   31.8050   35.8180 C   0  0  0  0  0  3  0  0  0  0  0  0
   34.6830   32.0110   36.4710 C   0  0  0  0  0  0  0  0  0  0  0  0
   34.4800   33.2460   37.6890 Cl  0  0  0  0  0  0  0  0  0  0  0  0
   33.5910   31.2300   36.1690 C   0  0  0  0  0  0  0  0  0  0  0  0
   32.6280   31.3360   36.6380 H   0  0  0  0  0  0  0  0  0  0  0  0
  1  6  1  1  0  0  0
  1 32  1  0  0  0  0
  2  7  1  6  0  0  0
  2 15  1  0  0  0  0
  2  1  1  0  0  0  0
  3  2  1  0  0  0  0
  3  8  1  0  0  0  0
  4  3  1  0  0  0  0
  4  5  1  0  0  0  0
  5 10  1  0  0  0  0
  5  1  1  0  0  0  0
  9  3  1  0  0  0  0
 11  5  1  0  0  0  0
 12 21  1  0  0  0  0
 13 17  1  0  0  0  0
 13 12  1  0  0  0  0
 14 13  2  0  0  0  0
 15 14  1  0  0  0  0
 15 16  1  0  0  0  0
 16 12  2  0  0  0  0
 18 14  1  0  0  0  0
 19 27  1  0  0  0  0
 20 25  1  0  0  0  0
 20 19  2  0  0  0  0
 21 20  1  0  0  0  0
 22 21  2  0  0  0  0
 22 23  1  0  0  0  0
 23 24  2  0  0  0  0
 24 19  1  0  0  0  0
 26 23  1  0  0  0  0
 27 28  1  0  0  0  0
 28 29  1  0  0  0  0
 28 31  1  0  0  0  0
 30 28  1  0  0  0  0
 32 35  1  0  0  0  0
 33 34  1  0  0  0  0
 34 41  1  0  0  0  0
 35 36  1  0  0  0  0
 35 34  2  0  0  0  0
 36 38  2  0  0  0  0
 37 36  1  0  0  0  0
 38 39  1  0  0  0  0
 39 40  1  0  0  0  0
 41 39  2  0  0  0  0
 41 42  1  0  0  0  0
M  END
>  <minimizedAffinity>
-6.32941008

$$$$

 OpenBabel03272503433D

 42 45  0  0  1  0  0  0  0  0999 V2000
   39.0500   26.0380   30.6170 C   0  0  2  0  0  0  0  0  0  0  0  0
   39.1410   27.1770   31.6600 C   0  0  1  0  0  0  0  0  0  0  0  0
   38.2680   28.1830   30.9830 C   0  0  0  0  0  0  0  0  0  0  0  0
   38.4840   28.0720   29.6310 O   0  0  0  0  0  0  0  0  0  0  0  0
   39.1770   26.9320   29.3640 C   0  0  0  0  0  0  0  0  0  0  0  0
   39.9040   25.3690   30.7030 H   0  0  0  0  0  0  0  0  0  0  0  0
   40.1600   27.5560   31.7590 H   0  0  0  0  0  0  0  0  0  0  0  0
   37.1990   27.9790   31.2260 H   0  0  0  0  0  0  0  0  0  0  0  0
   38.4850   29.1860   31.3710 H   0  0  0  0  0  0  0  0  0  0  0  0
   38.7180   26.4120   28.4980 H   0  0  0  0  0  0  0  0  0  0  0  0
   40.2490   27.1610   29.1620 H   0  0  0  0  0  0  0  0  0  0  0  0
   38.3060   25.7160   34.8400 C   0  0  0  0  0  0  0  0  0  0  0  0
   37.2770   26.6020   34.7030 C   0  0  0  0  0  0  0  0  0  0  0  0
   37.5070   27.2340   33.4830 C   0  0  0  0  0  0  0  0  0  0  0  0
   38.6220   26.7370   32.9290 N   0  0  0  0  0  0  0  0  0  0  0  0
   39.1100   25.8110   33.7550 N   0  0  0  0  0  0  0  0  0  0  0  0
   36.4610   26.7660   35.4100 H   0  0  0  0  0  0  0  0  0  0  0  0
   36.7980   28.0050   33.1480 H   0  0  0  0  0  0  0  0  0  0  0  0
   39.4170   22.8560   36.9900 C   0  0  0  0  0  0  0  0  0  0  0  0
   39.2640   23.6740   35.8880 C   0  0  0  0  0  0  0  0  0  0  0  0
   38.5060   24.8200   35.9550 C   0  0  0  0  0  0  0  0  0  0  0  0
   37.9300   25.0970   37.1460 N   0  0  0  0  0  0  0  0  0  0  0  0
   38.0910   24.2800   38.2280 C   0  0  0  0  0  0  0  0  0  0  0  0
   38.8140   23.1850   38.1640 N   0  0  0  0  0  0  0  0  0  0  0  0
   39.7120   23.4870   34.9070 H   0  0  0  0  0  0  0  0  0  0  0  0
   37.6160   24.5250   39.1780 H   0  0  0  0  0  0  0  0  0  0  0  0
   40.2210   21.7420   36.7230 O   0  0  0  0  0  0  0  0  0  0  0  0
   41.5970   21.6980   37.0260 C   0  0  0  0  0  0  0  0  0  0  0  0
   41.8670   20.9240   38.1450 F   0  0  0  0  0  0  0  0  0  0  0  0
   42.0530   22.9760   37.1920 F   0  0  0  0  0  0  0  0  0  0  0  0
   42.2600   21.1670   35.9340 F   0  0  0  0  0  0  0  0  0  0  0  0
   37.7860   25.5480   30.6940 O   0  0  0  0  0  0  0  0  0  0  0  0
   34.7300   25.0780   31.0120 Cl  0  0  0  0  0  0  0  0  0  0  0  0
   35.9590   23.8480   31.0520 C   0  0  0  0  0  0  0  0  0  0  0  0
   37.2350   24.3350   30.8850 C   0  0  0  0  0  0  0  0  0  0  0  0
   38.2390   23.3520   30.9150 C   0  0  0  0  0  0  0  0  0  0  0  0
   39.3250   23.5050   30.8040 H   0  0  0  0  0  0  0  0  0  0  0  0
   37.9760   22.0090   31.0970 C   0  0  0  0  0  3  0  0  0  0  0  0
   36.6640   21.6050   31.2570 C   0  0  0  0  0  0  0  0  0  0  0  0
   36.2230   19.9320   31.4940 Cl  0  0  0  0  0  0  0  0  0  0  0  0
   35.6480   22.5320   31.2350 C   0  0  0  0  0  0  0  0  0  0  0  0
   34.6080   22.2880   31.3530 H   0  0  0  0  0  0  0  0  0  0  0  0
  1 32  1  0  0  0  0
  1  6  1  1  0  0  0
  1  2  1  0  0  0  0
  2  7  1  1  0  0  0
  2 15  1  0  0  0  0
  3  8  1  0  0  0  0
  3  9  1  0  0  0  0
  3  2  1  0  0  0  0
  4  3  1  0  0  0  0
  5  4  1  0  0  0  0
  5  1  1  0  0  0  0
 10  5  1  0  0  0  0
 11  5  1  0  0  0  0
 12 21  1  0  0  0  0
 13 12  1  0  0  0  0
 13 17  1  0  0  0  0
 14 13  2  0  0  0  0
 15 14  1  0  0  0  0
 15 16  1  0  0  0  0
 16 12  2  0  0  0  0
 18 14  1  0  0  0  0
 19 24  1  0  0  0  0
 20 21  1  0  0  0  0
 20 19  2  0  0  0  0
 21 22  2  0  0  0  0
 22 23  1  0  0  0  0
 23 26  1  0  0  0  0
 24 23  2  0  0  0  0
 25 20  1  0  0  0  0
 27 19  1  0  0  0  0
 27 28  1  0  0  0  0
 28 30  1  0  0  0  0
 28 29  1  0  0  0  0
 31 28  1  0  0  0  0
 32 35  1  0  0  0  0
 33 34  1  0  0  0  0
 34 41  1  0  0  0  0
 35 36  1  0  0  0  0
 35 34  2  0  0  0  0
 36 38  2  0  0  0  0
 37 36  1  0  0  0  0
 38 39  1  0  0  0  0
 39 40  1  0  0  0  0
 41 39  2  0  0  0  0
 41 42  1  0  0  0  0
M  END
>  <minimizedAffinity>
-6.30708551

$$$$

 OpenBabel03272503433D

 42 45  0  0  1  0  0  0  0  0999 V2000
   37.6750   23.7730   31.8100 C   0  0  2  0  0  0  0  0  0  0  0  0
   36.8630   24.6290   30.8090 C   0  0  1  0  0  0  0  0  0  0  0  0
   35.5120   24.0310   31.0320 C   0  0  0  0  0  0  0  0  0  0  0  0
   35.6890   22.6880   31.2540 O   0  0  0  0  0  0  0  0  0  0  0  0
   37.0050   22.4230   31.4730 C   0  0  0  0  0  0  0  0  0  0  0  0
   38.7280   23.7610   31.5390 H   0  0  0  0  0  0  0  0  0  0  0  0
   37.1900   24.4700   29.7800 H   0  0  0  0  0  0  0  0  0  0  0  0
   35.0270   24.5120   31.9130 H   0  0  0  0  0  0  0  0  0  0  0  0
   34.8640   24.2420   30.1720 H   0  0  0  0  0  0  0  0  0  0  0  0
   37.1080   21.7390   32.3410 H   0  0  0  0  0  0  0  0  0  0  0  0
   37.4730   21.9780   30.5640 H   0  0  0  0  0  0  0  0  0  0  0  0
   36.4600   28.0680   31.7870 C   0  0  0  0  0  0  0  0  0  0  0  0
   37.8060   28.0350   31.5710 C   0  0  0  0  0  0  0  0  0  0  0  0
   38.0750   26.7240   31.1820 C   0  0  0  0  0  0  0  0  0  0  0  0
   36.9340   26.0220   31.1690 N   0  0  0  0  0  0  0  0  0  0  0  0
   35.9480   26.8400   31.5370 N   0  0  0  0  0  0  0  0  0  0  0  0
   38.5050   28.8670   31.6870 H   0  0  0  0  0  0  0  0  0  0  0  0
   39.1150   26.4480   30.9500 H   0  0  0  0  0  0  0  0  0  0  0  0
   34.7200   30.6530   33.8680 C   0  0  0  0  0  0  0  0  0  0  0  0
   35.4550   29.5350   33.5260 C   0  0  0  0  0  0  0  0  0  0  0  0
   35.7000   29.2220   32.2090 C   0  0  0  0  0  0  0  0  0  0  0  0
   35.1890   30.0620   31.2820 N   0  0  0  0  0  0  0  0  0  0  0  0
   34.4640   31.1640   31.6340 C   0  0  0  0  0  0  0  0  0  0  0  0
   34.2300   31.4630   32.8920 N   0  0  0  0  0  0  0  0  0  0  0  0
   35.8860   28.8300   34.2450 H   0  0  0  0  0  0  0  0  0  0  0  0
   34.0620   31.8270   30.8670 H   0  0  0  0  0  0  0  0  0  0  0  0
   34.5800   30.7990   35.2530 O   0  0  0  0  0  0  0  0  0  0  0  0
   35.4130   31.6360   36.0250 C   0  0  0  0  0  0  0  0  0  0  0  0
   36.7180   31.1700   36.0850 F   0  0  0  0  0  0  0  0  0  0  0  0
   34.8760   31.7590   37.2760 F   0  0  0  0  0  0  0  0  0  0  0  0
   35.4040   32.8940   35.4510 F   0  0  0  0  0  0  0  0  0  0  0  0
   37.2900   24.1670   33.0510 O   0  0  0  0  0  0  0  0  0  0  0  0
   37.4340   26.5920   34.9900 Cl  0  0  0  0  0  0  0  0  0  0  0  0
   38.0100   24.9850   35.3250 C   0  0  0  0  0  0  0  0  0  0  0  0
   37.8200   24.1020   34.2870 C   0  0  0  0  0  0  0  0  0  0  0  0
   38.2810   22.7990   34.5430 C   0  0  0  0  0  0  0  0  0  0  0  0
   38.2360   21.9320   33.8650 H   0  0  0  0  0  0  0  0  0  0  0  0
   38.8740   22.4280   35.7330 C   0  0  0  0  0  3  0  0  0  0  0  0
   39.0250   23.3790   36.7250 C   0  0  0  0  0  0  0  0  0  0  0  0
   39.7620   23.0140   38.2660 Cl  0  0  0  0  0  0  0  0  0  0  0  0
   38.5900   24.6670   36.5180 C   0  0  0  0  0  0  0  0  0  0  0  0
   38.6760   25.4550   37.2450 H   0  0  0  0  0  0  0  0  0  0  0  0
  1  6  1  6  0  0  0
  1 32  1  0  0  0  0
  2  7  1  6  0  0  0
  2  3  1  0  0  0  0
  2 15  1  0  0  0  0
  2  1  1  0  0  0  0
  3  4  1  0  0  0  0
  3  8  1  0  0  0  0
  4  5  1  0  0  0  0
  5  1  1  0  0  0  0
  5 10  1  0  0  0  0
  9  3  1  0  0  0  0
 11  5  1  0  0  0  0
 12 21  1  0  0  0  0
 13 17  1  0  0  0  0
 13 12  1  0  0  0  0
 14 13  2  0  0  0  0
 15 14  1  0  0  0  0
 15 16  1  0  0  0  0
 16 12  2  0  0  0  0
 18 14  1  0  0  0  0
 19 27  1  0  0  0  0
 20 19  1  0  0  0  0
 20 25  1  0  0  0  0
 21 20  2  0  0  0  0
 22 23  2  0  0  0  0
 22 21  1  0  0  0  0
 23 24  1  0  0  0  0
 24 19  2  0  0  0  0
 26 23  1  0  0  0  0
 27 28  1  0  0  0  0
 28 29  1  0  0  0  0
 28 30  1  0  0  0  0
 31 28  1  0  0  0  0
 32 35  1  0  0  0  0
 33 34  1  0  0  0  0
 34 41  1  0  0  0  0
 35 36  1  0  0  0  0
 35 34  2  0  0  0  0
 36 38  2  0  0  0  0
 37 36  1  0  0  0  0
 38 39  1  0  0  0  0
 39 40  1  0  0  0  0
 41 39  2  0  0  0  0
 41 42  1  0  0  0  0
M  END
>  <minimizedAffinity>
-6.18508577

$$$$

 OpenBabel03272503433D

 42 45  0  0  1  0  0  0  0  0999 V2000
   37.2050   27.8700   30.2870 C   0  0  2  0  0  0  0  0  0  0  0  0
   38.5990   27.2120   30.1580 C   0  0  1  0  0  0  0  0  0  0  0  0
   39.4140   28.4390   29.9100 C   0  0  0  0  0  0  0  0  0  0  0  0
   38.6560   29.2890   29.1420 O   0  0  0  0  0  0  0  0  0  0  0  0
   37.3660   28.8600   29.1130 C   0  0  0  0  0  0  0  0  0  0  0  0
   36.4190   27.1470   30.0800 H   0  0  0  0  0  0  0  0  0  0  0  0
   38.6510   26.5360   29.3030 H   0  0  0  0  0  0  0  0  0  0  0  0
   39.6770   28.9210   30.8810 H   0  0  0  0  0  0  0  0  0  0  0  0
   40.3660   28.1660   29.4360 H   0  0  0  0  0  0  0  0  0  0  0  0
   36.6840   29.7220   29.2680 H   0  0  0  0  0  0  0  0  0  0  0  0
   37.1420   28.3500   28.1470 H   0  0  0  0  0  0  0  0  0  0  0  0
   39.0150   25.1750   33.0950 C   0  0  0  0  0  0  0  0  0  0  0  0
   40.0540   26.0440   33.2540 C   0  0  0  0  0  0  0  0  0  0  0  0
   39.9860   26.8930   32.1510 C   0  0  0  0  0  0  0  0  0  0  0  0
   38.9490   26.5350   31.3800 N   0  0  0  0  0  0  0  0  0  0  0  0
   38.3560   25.4880   31.9540 N   0  0  0  0  0  0  0  0  0  0  0  0
   40.7740   26.0540   34.0760 H   0  0  0  0  0  0  0  0  0  0  0  0
   40.7350   27.6920   32.0560 H   0  0  0  0  0  0  0  0  0  0  0  0
   38.6900   22.9930   36.1230 C   0  0  0  0  0  0  0  0  0  0  0  0
   39.0510   24.0520   35.3130 C   0  0  0  0  0  0  0  0  0  0  0  0
   38.6690   24.0980   33.9930 C   0  0  0  0  0  0  0  0  0  0  0  0
   37.9280   23.0620   33.5400 N   0  0  0  0  0  0  0  0  0  0  0  0
   37.5790   22.0210   34.3510 C   0  0  0  0  0  0  0  0  0  0  0  0
   37.9430   21.9770   35.6130 N   0  0  0  0  0  0  0  0  0  0  0  0
   39.6480   24.9090   35.6400 H   0  0  0  0  0  0  0  0  0  0  0  0
   36.9800   21.1970   33.9620 H   0  0  0  0  0  0  0  0  0  0  0  0
   39.1730   23.1280   37.4300 O   0  0  0  0  0  0  0  0  0  0  0  0
   38.3990   23.6580   38.4830 C   0  0  0  0  0  0  0  0  0  0  0  0
   37.3540   22.8200   38.8430 F   0  0  0  0  0  0  0  0  0  0  0  0
   37.9360   24.8900   38.1130 F   0  0  0  0  0  0  0  0  0  0  0  0
   39.2300   23.8440   39.5730 F   0  0  0  0  0  0  0  0  0  0  0  0
   37.2130   28.5570   31.4580 O   0  0  0  0  0  0  0  0  0  0  0  0
   37.0390   27.7110   34.4440 Cl  0  0  0  0  0  0  0  0  0  0  0  0
   35.9710   28.8220   33.6360 C   0  0  0  0  0  0  0  0  0  0  0  0
   36.2760   29.0170   32.3090 C   0  0  0  0  0  0  0  0  0  0  0  0
   35.4220   29.9120   31.6430 C   0  0  0  0  0  0  0  0  0  0  0  0
   35.4730   30.2200   30.5860 H   0  0  0  0  0  0  0  0  0  0  0  0
   34.3620   30.5460   32.2610 C   0  0  0  0  0  3  0  0  0  0  0  0
   34.1260   30.2930   33.5990 C   0  0  0  0  0  0  0  0  0  0  0  0
   32.8130   31.0420   34.4740 Cl  0  0  0  0  0  0  0  0  0  0  0  0
   34.9360   29.4240   34.2910 C   0  0  0  0  0  0  0  0  0  0  0  0
   34.8100   29.1820   35.3310 H   0  0  0  0  0  0  0  0  0  0  0  0
  1  6  1  6  0  0  0
  1 32  1  0  0  0  0
  2  7  1  6  0  0  0
  2  1  1  0  0  0  0
  2 15  1  0  0  0  0
  3  2  1  0  0  0  0
  3  8  1  0  0  0  0
  4  3  1  0  0  0  0
  5  4  1  0  0  0  0
  5 10  1  0  0  0  0
  5  1  1  0  0  0  0
  9  3  1  0  0  0  0
 11  5  1  0  0  0  0
 12 13  1  0  0  0  0
 12 21  1  0  0  0  0
 13 17  1  0  0  0  0
 14 13  2  0  0  0  0
 15 16  1  0  0  0  0
 15 14  1  0  0  0  0
 16 12  2  0  0  0  0
 18 14  1  0  0  0  0
 19 27  1  0  0  0  0
 20 25  1  0  0  0  0
 20 19  2  0  0  0  0
 21 20  1  0  0  0  0
 22 21  2  0  0  0  0
 22 23  1  0  0  0  0
 23 24  2  0  0  0  0
 24 19  1  0  0  0  0
 26 23  1  0  0  0  0
 27 28  1  0  0  0  0
 28 29  1  0  0  0  0
 28 31  1  0  0  0  0
 30 28  1  0  0  0  0
 32 35  1  0  0  0  0
 34 41  1  0  0  0  0
 34 33  1  0  0  0  0
 35 34  2  0  0  0  0
 36 38  2  0  0  0  0
 36 35  1  0  0  0  0
 37 36  1  0  0  0  0
 38 39  1  0  0  0  0
 39 41  2  0  0  0  0
 39 40  1  0  0  0  0
 41 42  1  0  0  0  0
M  END
>  <minimizedAffinity>
-6.13177776

$$$$

 OpenBabel03272503433D

 42 45  0  0  1  0  0  0  0  0999 V2000
   39.4970   25.2340   30.8450 C   0  0  2  0  0  0  0  0  0  0  0  0
   39.5840   26.7410   31.1800 C   0  0  1  0  0  0  0  0  0  0  0  0
   39.3610   27.2990   29.8120 C   0  0  0  0  0  0  0  0  0  0  0  0
   39.9760   26.4560   28.9190 O   0  0  0  0  0  0  0  0  0  0  0  0
   40.3190   25.2940   29.5390 C   0  0  0  0  0  0  0  0  0  0  0  0
   40.0100   24.6420   31.5990 H   0  0  0  0  0  0  0  0  0  0  0  0
   40.5730   27.0170   31.5520 H   0  0  0  0  0  0  0  0  0  0  0  0
   38.2680   27.3590   29.6020 H   0  0  0  0  0  0  0  0  0  0  0  0
   39.7400   28.3270   29.7620 H   0  0  0  0  0  0  0  0  0  0  0  0
   40.0420   24.4330   28.8940 H   0  0  0  0  0  0  0  0  0  0  0  0
   41.4090   25.2770   29.7690 H   0  0  0  0  0  0  0  0  0  0  0  0
   36.8290   28.0260   33.1040 C   0  0  0  0  0  0  0  0  0  0  0  0
   37.3450   27.1270   33.9910 C   0  0  0  0  0  0  0  0  0  0  0  0
   38.4360   26.5610   33.3350 C   0  0  0  0  0  0  0  0  0  0  0  0
   38.5540   27.1070   32.1170 N   0  0  0  0  0  0  0  0  0  0  0  0
   37.5750   28.0010   31.9750 N   0  0  0  0  0  0  0  0  0  0  0  0
   36.9670   26.9110   34.9930 H   0  0  0  0  0  0  0  0  0  0  0  0
   39.0240   25.7920   33.8600 H   0  0  0  0  0  0  0  0  0  0  0  0
   34.3510   30.3810   34.6390 C   0  0  0  0  0  0  0  0  0  0  0  0
   35.4740   29.5920   34.4820 C   0  0  0  0  0  0  0  0  0  0  0  0
   35.6780   28.8690   33.3300 C   0  0  0  0  0  0  0  0  0  0  0  0
   34.7290   28.9750   32.3720 N   0  0  0  0  0  0  0  0  0  0  0  0
   33.6250   29.7580   32.5400 C   0  0  0  0  0  0  0  0  0  0  0  0
   33.4300   30.4490   33.6410 N   0  0  0  0  0  0  0  0  0  0  0  0
   36.2640   29.4790   35.2310 H   0  0  0  0  0  0  0  0  0  0  0  0
   32.8730   29.8270   31.7530 H   0  0  0  0  0  0  0  0  0  0  0  0
   34.3240   31.0350   35.8760 O   0  0  0  0  0  0  0  0  0  0  0  0
   35.2430   32.0450   36.2290 C   0  0  0  0  0  0  0  0  0  0  0  0
   36.5590   31.6180   36.1370 F   0  0  0  0  0  0  0  0  0  0  0  0
   34.9550   32.4800   37.4930 F   0  0  0  0  0  0  0  0  0  0  0  0
   35.0500   33.1160   35.3760 F   0  0  0  0  0  0  0  0  0  0  0  0
   38.1960   24.9830   30.5460 O   0  0  0  0  0  0  0  0  0  0  0  0
   35.2000   25.5350   31.1630 Cl  0  0  0  0  0  0  0  0  0  0  0  0
   35.9680   23.9740   31.1590 C   0  0  0  0  0  0  0  0  0  0  0  0
   37.3090   24.0180   30.8510 C   0  0  0  0  0  0  0  0  0  0  0  0
   37.9430   22.7640   30.8440 C   0  0  0  0  0  0  0  0  0  0  0  0
   39.0030   22.5550   30.6270 H   0  0  0  0  0  0  0  0  0  0  0  0
   37.2830   21.5830   31.1210 C   0  0  0  0  0  3  0  0  0  0  0  0
   35.9350   21.6290   31.4200 C   0  0  0  0  0  0  0  0  0  0  0  0
   35.0080   20.1940   31.7860 Cl  0  0  0  0  0  0  0  0  0  0  0  0
   35.2730   22.8350   31.4400 C   0  0  0  0  0  0  0  0  0  0  0  0
   34.2270   22.9430   31.6640 H   0  0  0  0  0  0  0  0  0  0  0  0
  1  2  1  0  0  0  0
  1  6  1  1  0  0  0
  2  7  1  1  0  0  0
  2 15  1  0  0  0  0
  3  2  1  0  0  0  0
  4  5  1  0  0  0  0
  4  3  1  0  0  0  0
  5 11  1  0  0  0  0
  5  1  1  0  0  0  0
  8  3  1  0  0  0  0
  9  3  1  0  0  0  0
 10  5  1  0  0  0  0
 12 21  1  0  0  0  0
 12 13  1  0  0  0  0
 13 17  1  0  0  0  0
 14 18  1  0  0  0  0
 14 13  2  0  0  0  0
 15 14  1  0  0  0  0
 16 15  1  0  0  0  0
 16 12  2  0  0  0  0
 19 27  1  0  0  0  0
 20 19  1  0  0  0  0
 20 25  1  0  0  0  0
 21 20  2  0  0  0  0
 22 23  2  0  0  0  0
 22 21  1  0  0  0  0
 23 24  1  0  0  0  0
 24 19  2  0  0  0  0
 26 23  1  0  0  0  0
 27 28  1  0  0  0  0
 28 30  1  0  0  0  0
 29 28  1  0  0  0  0
 31 28  1  0  0  0  0
 32  1  1  0  0  0  0
 32 35  1  0  0  0  0
 34 33  1  0  0  0  0
 34 41  1  0  0  0  0
 35 34  2  0  0  0  0
 36 35  1  0  0  0  0
 36 38  2  0  0  0  0
 37 36  1  0  0  0  0
 38 39  1  0  0  0  0
 39 41  2  0  0  0  0
 39 40  1  0  0  0  0
 41 42  1  0  0  0  0
M  END
>  <minimizedAffinity>
-5.98708105

$$$$

 OpenBabel03272503433D

 42 45  0  0  1  0  0  0  0  0999 V2000
   39.7340   23.5750   35.4890 C   0  0  2  0  0  0  0  0  0  0  0  0
   38.2000   23.7750   35.5340 C   0  0  1  0  0  0  0  0  0  0  0  0
   38.0660   24.2340   36.9490 C   0  0  0  0  0  0  0  0  0  0  0  0
   38.9860   23.5400   37.6960 O   0  0  0  0  0  0  0  0  0  0  0  0
   39.8670   22.9070   36.8750 C   0  0  0  0  0  0  0  0  0  0  0  0
   40.0080   22.8820   34.6970 H   0  0  0  0  0  0  0  0  0  0  0  0
   37.6640   22.8370   35.3810 H   0  0  0  0  0  0  0  0  0  0  0  0
   38.2600   25.3300   37.0110 H   0  0  0  0  0  0  0  0  0  0  0  0
   37.0350   24.0850   37.2930 H   0  0  0  0  0  0  0  0  0  0  0  0
   40.9000   23.0540   37.2530 H   0  0  0  0  0  0  0  0  0  0  0  0
   39.6260   21.8210   36.8030 H   0  0  0  0  0  0  0  0  0  0  0  0
   37.0970   26.6020   33.6010 C   0  0  0  0  0  0  0  0  0  0  0  0
   37.3560   25.7120   32.6010 C   0  0  0  0  0  0  0  0  0  0  0  0
   37.7980   24.5610   33.2500 C   0  0  0  0  0  0  0  0  0  0  0  0
   37.7970   24.7690   34.5740 N   0  0  0  0  0  0  0  0  0  0  0  0
   37.3690   26.0140   34.7900 N   0  0  0  0  0  0  0  0  0  0  0  0
   37.2370   25.8840   31.5290 H   0  0  0  0  0  0  0  0  0  0  0  0
   38.0740   23.6870   32.6410 H   0  0  0  0  0  0  0  0  0  0  0  0
   35.5320   29.9560   34.1850 C   0  0  0  0  0  0  0  0  0  0  0  0
   35.9760   28.6680   34.4140 C   0  0  0  0  0  0  0  0  0  0  0  0
   36.6110   27.9510   33.4270 C   0  0  0  0  0  0  0  0  0  0  0  0
   36.7740   28.5710   32.2370 N   0  0  0  0  0  0  0  0  0  0  0  0
   36.3310   29.8440   32.0250 C   0  0  0  0  0  0  0  0  0  0  0  0
   35.7240   30.5300   32.9680 N   0  0  0  0  0  0  0  0  0  0  0  0
   35.8640   28.1310   35.3600 H   0  0  0  0  0  0  0  0  0  0  0  0
   36.4740   30.3240   31.0560 H   0  0  0  0  0  0  0  0  0  0  0  0
   34.9130   30.5170   35.3090 O   0  0  0  0  0  0  0  0  0  0  0  0
   35.3380   31.7270   35.8940 C   0  0  0  0  0  0  0  0  0  0  0  0
   34.9680   31.8260   37.2280 F   0  0  0  0  0  0  0  0  0  0  0  0
   34.8360   32.7690   35.1660 F   0  0  0  0  0  0  0  0  0  0  0  0
   36.7160   31.7880   35.7980 F   0  0  0  0  0  0  0  0  0  0  0  0
   40.2830   24.8160   35.5350 O   0  0  0  0  0  0  0  0  0  0  0  0
   43.2500   23.9480   35.8570 Cl  0  0  0  0  0  0  0  0  0  0  0  0
   42.6770   25.2710   34.8850 C   0  0  0  0  0  0  0  0  0  0  0  0
   41.3110   25.4340   34.9230 C   0  0  0  0  0  0  0  0  0  0  0  0
   40.8330   26.5000   34.1420 C   0  0  0  0  0  0  0  0  0  0  0  0
   39.7850   26.8180   34.0190 H   0  0  0  0  0  0  0  0  0  0  0  0
   41.6570   27.3200   33.3970 C   0  0  0  0  0  3  0  0  0  0  0  0
   43.0190   27.0860   33.4150 C   0  0  0  0  0  0  0  0  0  0  0  0
   44.1480   28.0630   32.5090 Cl  0  0  0  0  0  0  0  0  0  0  0  0
   43.5320   26.0540   34.1660 C   0  0  0  0  0  0  0  0  0  0  0  0
   44.5790   25.8150   34.2250 H   0  0  0  0  0  0  0  0  0  0  0  0
  1  6  1  6  0  0  0
  1  2  1  0  0  0  0
  1 32  1  0  0  0  0
  1  5  1  0  0  0  0
  2  7  1  6  0  0  0
  2  3  1  0  0  0  0
  3  8  1  0  0  0  0
  3  9  1  0  0  0  0
  3  4  1  0  0  0  0
  5 10  1  0  0  0  0
  5  4  1  0  0  0  0
 11  5  1  0  0  0  0
 12 16  2  0  0  0  0
 13 14  2  0  0  0  0
 13 12  1  0  0  0  0
 14 15  1  0  0  0  0
 15 16  1  0  0  0  0
 15  2  1  0  0  0  0
 17 13  1  0  0  0  0
 18 14  1  0  0  0  0
 19 20  1  0  0  0  0
 19 27  1  0  0  0  0
 20 25  1  0  0  0  0
 21 12  1  0  0  0  0
 21 20  2  0  0  0  0
 22 21  1  0  0  0  0
 23 22  2  0  0  0  0
 23 24  1  0  0  0  0
 24 19  2  0  0  0  0
 26 23  1  0  0  0  0
 27 28  1  0  0  0  0
 28 29  1  0  0  0  0
 30 28  1  0  0  0  0
 31 28  1  0  0  0  0
 34 35  1  0  0  0  0
 34 33  1  0  0  0  0
 35 32  1  0  0  0  0
 36 35  2  0  0  0  0
 37 36  1  0  0  0  0
 38 39  2  0  0  0  0
 38 36  1  0  0  0  0
 39 41  1  0  0  0  0
 40 39  1  0  0  0  0
 41 42  1  0  0  0  0
 41 34  2  0  0  0  0
M  END
>  <minimizedAffinity>
-5.97165871

$$$$

 OpenBabel03272503433D

 42 45  0  0  1  0  0  0  0  0999 V2000
   38.6460   23.1650   35.7390 C   0  0  2  0  0  0  0  0  0  0  0  0
   39.5830   24.3960   35.7830 C   0  0  1  0  0  0  0  0  0  0  0  0
   40.8560   23.7350   35.3650 C   0  0  0  0  0  0  0  0  0  0  0  0
   40.8650   22.4760   35.9140 O   0  0  0  0  0  0  0  0  0  0  0  0
   39.6300   22.1700   36.3930 C   0  0  0  0  0  0  0  0  0  0  0  0
   37.7760   23.3220   36.3730 H   0  0  0  0  0  0  0  0  0  0  0  0
   39.6730   24.8020   36.7920 H   0  0  0  0  0  0  0  0  0  0  0  0
   40.9040   23.6770   34.2530 H   0  0  0  0  0  0  0  0  0  0  0  0
   41.7130   24.3450   35.6780 H   0  0  0  0  0  0  0  0  0  0  0  0
   39.3580   21.1370   36.0880 H   0  0  0  0  0  0  0  0  0  0  0  0
   39.6010   22.2730   37.5020 H   0  0  0  0  0  0  0  0  0  0  0  0
   37.9710   26.9190   33.7870 C   0  0  0  0  0  0  0  0  0  0  0  0
   39.1530   26.7990   33.1170 C   0  0  0  0  0  0  0  0  0  0  0  0
   39.8680   25.8300   33.8190 C   0  0  0  0  0  0  0  0  0  0  0  0
   39.1340   25.4010   34.8550 N   0  0  0  0  0  0  0  0  0  0  0  0
   37.9770   26.0640   34.8360 N   0  0  0  0  0  0  0  0  0  0  0  0
   39.4560   27.3540   32.2260 H   0  0  0  0  0  0  0  0  0  0  0  0
   40.8720   25.5570   33.4620 H   0  0  0  0  0  0  0  0  0  0  0  0
   35.1690   29.4000   33.9570 C   0  0  0  0  0  0  0  0  0  0  0  0
   36.1970   28.5670   34.3530 C   0  0  0  0  0  0  0  0  0  0  0  0
   36.8890   27.8090   33.4380 C   0  0  0  0  0  0  0  0  0  0  0  0
   36.5100   27.9250   32.1450 N   0  0  0  0  0  0  0  0  0  0  0  0
   35.4920   28.7520   31.7680 C   0  0  0  0  0  0  0  0  0  0  0  0
   34.8310   29.4770   32.6420 N   0  0  0  0  0  0  0  0  0  0  0  0
   36.5350   28.4440   35.3870 H   0  0  0  0  0  0  0  0  0  0  0  0
   35.2050   28.8280   30.7180 H   0  0  0  0  0  0  0  0  0  0  0  0
   34.5910   30.0860   35.0320 O   0  0  0  0  0  0  0  0  0  0  0  0
   35.1260   31.2800   35.5570 C   0  0  0  0  0  0  0  0  0  0  0  0
   36.4130   31.1110   36.0460 F   0  0  0  0  0  0  0  0  0  0  0  0
   34.2880   31.7490   36.5300 F   0  0  0  0  0  0  0  0  0  0  0  0
   35.1440   32.2230   34.5450 F   0  0  0  0  0  0  0  0  0  0  0  0
   38.4910   22.8490   34.4280 O   0  0  0  0  0  0  0  0  0  0  0  0
   37.9060   23.7250   31.5040 Cl  0  0  0  0  0  0  0  0  0  0  0  0
   37.0350   22.5140   32.3980 C   0  0  0  0  0  0  0  0  0  0  0  0
   37.5050   22.3240   33.6760 C   0  0  0  0  0  0  0  0  0  0  0  0
   36.8100   21.3470   34.4110 C   0  0  0  0  0  0  0  0  0  0  0  0
   37.0070   21.0280   35.4470 H   0  0  0  0  0  0  0  0  0  0  0  0
   35.7440   20.6350   33.8990 C   0  0  0  0  0  3  0  0  0  0  0  0
   35.3360   20.8880   32.6040 C   0  0  0  0  0  0  0  0  0  0  0  0
   33.9990   20.0430   31.8620 Cl  0  0  0  0  0  0  0  0  0  0  0  0
   35.9860   21.8360   31.8480 C   0  0  0  0  0  0  0  0  0  0  0  0
   35.7220   22.0830   30.8350 H   0  0  0  0  0  0  0  0  0  0  0  0
  1  2  1  0  0  0  0
  1  6  1  1  0  0  0
  1  5  1  0  0  0  0
  2  7  1  1  0  0  0
  3  9  1  0  0  0  0
  3  2  1  0  0  0  0
  3  4  1  0  0  0  0
  4  5  1  0  0  0  0
  5 11  1  0  0  0  0
  8  3  1  0  0  0  0
 10  5  1  0  0  0  0
 12 16  2  0  0  0  0
 13 12  1  0  0  0  0
 13 14  2  0  0  0  0
 14 15  1  0  0  0  0
 15  2  1  0  0  0  0
 16 15  1  0  0  0  0
 17 13  1  0  0  0  0
 18 14  1  0  0  0  0
 19 20  1  0  0  0  0
 19 27  1  0  0  0  0
 20 25  1  0  0  0  0
 21 12  1  0  0  0  0
 21 20  2  0  0  0  0
 22 21  1  0  0  0  0
 23 22  2  0  0  0  0
 23 24  1  0  0  0  0
 24 19  2  0  0  0  0
 26 23  1  0  0  0  0
 27 28  1  0  0  0  0
 28 29  1  0  0  0  0
 28 30  1  0  0  0  0
 31 28  1  0  0  0  0
 32  1  1  0  0  0  0
 33 34  1  0  0  0  0
 34 35  1  0  0  0  0
 35 36  2  0  0  0  0
 35 32  1  0  0  0  0
 36 37  1  0  0  0  0
 38 36  1  0  0  0  0
 39 38  2  0  0  0  0
 40 39  1  0  0  0  0
 41 34  2  0  0  0  0
 41 39  1  0  0  0  0
 42 41  1  0  0  0  0
M  END
>  <minimizedAffinity>
-5.94673395

$$$$

 OpenBabel03272503433D

 42 45  0  0  1  0  0  0  0  0999 V2000
   39.1920   24.9090   32.0500 C   0  0  2  0  0  0  0  0  0  0  0  0
   38.4000   25.3510   30.7970 C   0  0  1  0  0  0  0  0  0  0  0  0
   37.7940   24.0360   30.4280 C   0  0  0  0  0  0  0  0  0  0  0  0
   38.7210   23.0630   30.7080 O   0  0  0  0  0  0  0  0  0  0  0  0
   39.7250   23.5830   31.4650 C   0  0  0  0  0  0  0  0  0  0  0  0
   40.0080   25.5990   32.2510 H   0  0  0  0  0  0  0  0  0  0  0  0
   39.0600   25.7070   30.0040 H   0  0  0  0  0  0  0  0  0  0  0  0
   36.8630   23.8700   31.0180 H   0  0  0  0  0  0  0  0  0  0  0  0
   37.4910   24.0480   29.3730 H   0  0  0  0  0  0  0  0  0  0  0  0
   39.9620   22.8870   32.2970 H   0  0  0  0  0  0  0  0  0  0  0  0
   40.6290   23.7730   30.8430 H   0  0  0  0  0  0  0  0  0  0  0  0
   36.4160   28.2010   31.7390 C   0  0  0  0  0  0  0  0  0  0  0  0
   35.4340   27.2720   31.5560 C   0  0  0  0  0  0  0  0  0  0  0  0
   36.1040   26.1090   31.1820 C   0  0  0  0  0  0  0  0  0  0  0  0
   37.4220   26.3480   31.1480 N   0  0  0  0  0  0  0  0  0  0  0  0
   37.6140   27.6230   31.4880 N   0  0  0  0  0  0  0  0  0  0  0  0
   34.3590   27.4280   31.6800 H   0  0  0  0  0  0  0  0  0  0  0  0
   35.5120   25.2050   30.9750 H   0  0  0  0  0  0  0  0  0  0  0  0
   35.4540   31.2830   33.6400 C   0  0  0  0  0  0  0  0  0  0  0  0
   35.6180   29.9500   33.3170 C   0  0  0  0  0  0  0  0  0  0  0  0
   36.2160   29.5750   32.1360 C   0  0  0  0  0  0  0  0  0  0  0  0
   36.6290   30.5730   31.3220 N   0  0  0  0  0  0  0  0  0  0  0  0
   36.4600   31.8860   31.6550 C   0  0  0  0  0  0  0  0  0  0  0  0
   35.8890   32.2440   32.7830 N   0  0  0  0  0  0  0  0  0  0  0  0
   35.2990   29.1140   33.9460 H   0  0  0  0  0  0  0  0  0  0  0  0
   36.8010   32.6730   30.9810 H   0  0  0  0  0  0  0  0  0  0  0  0
   34.8270   31.4600   34.8790 O   0  0  0  0  0  0  0  0  0  0  0  0
   35.5160   31.8840   36.0340 C   0  0  0  0  0  0  0  0  0  0  0  0
   34.7760   31.6910   37.1910 F   0  0  0  0  0  0  0  0  0  0  0  0
   35.8600   33.1980   35.8840 F   0  0  0  0  0  0  0  0  0  0  0  0
   36.6920   31.1620   36.1200 F   0  0  0  0  0  0  0  0  0  0  0  0
   38.2710   24.6390   33.0100 O   0  0  0  0  0  0  0  0  0  0  0  0
   37.7910   27.0590   34.9000 Cl  0  0  0  0  0  0  0  0  0  0  0  0
   38.1050   25.4230   35.4000 C   0  0  0  0  0  0  0  0  0  0  0  0
   38.2800   24.5480   34.3530 C   0  0  0  0  0  0  0  0  0  0  0  0
   38.5340   23.2220   34.7430 C   0  0  0  0  0  0  0  0  0  0  0  0
   38.7060   22.3560   34.0830 H   0  0  0  0  0  0  0  0  0  0  0  0
   38.6040   22.8220   36.0620 C   0  0  0  0  0  3  0  0  0  0  0  0
   38.4150   23.7670   37.0530 C   0  0  0  0  0  0  0  0  0  0  0  0
   38.4820   23.3670   38.7520 Cl  0  0  0  0  0  0  0  0  0  0  0  0
   38.1640   25.0780   36.7180 C   0  0  0  0  0  0  0  0  0  0  0  0
   38.0070   25.8630   37.4370 H   0  0  0  0  0  0  0  0  0  0  0  0
  1  6  1  1  0  0  0
  1 32  1  0  0  0  0
  2  7  1  6  0  0  0
  2 15  1  0  0  0  0
  2  1  1  0  0  0  0
  3  4  1  0  0  0  0
  3  2  1  0  0  0  0
  3  8  1  0  0  0  0
  4  5  1  0  0  0  0
  5  1  1  0  0  0  0
  5 10  1  0  0  0  0
  9  3  1  0  0  0  0
 11  5  1  0  0  0  0
 12 21  1  0  0  0  0
 13 17  1  0  0  0  0
 13 12  1  0  0  0  0
 14 13  2  0  0  0  0
 15 14  1  0  0  0  0
 15 16  1  0  0  0  0
 16 12  2  0  0  0  0
 18 14  1  0  0  0  0
 19 27  1  0  0  0  0
 20 19  1  0  0  0  0
 20 25  1  0  0  0  0
 21 20  2  0  0  0  0
 22 23  2  0  0  0  0
 22 21  1  0  0  0  0
 23 24  1  0  0  0  0
 24 19  2  0  0  0  0
 26 23  1  0  0  0  0
 27 28  1  0  0  0  0
 28 31  1  0  0  0  0
 28 29  1  0  0  0  0
 30 28  1  0  0  0  0
 32 35  1  0  0  0  0
 33 34  1  0  0  0  0
 34 41  1  0  0  0  0
 35 36  1  0  0  0  0
 35 34  2  0  0  0  0
 36 38  2  0  0  0  0
 37 36  1  0  0  0  0
 38 39  1  0  0  0  0
 39 40  1  0  0  0  0
 41 39  2  0  0  0  0
 41 42  1  0  0  0  0
M  END
>  <minimizedAffinity>
-5.94515085

$$$$

 OpenBabel03272503433D

 42 45  0  0  1  0  0  0  0  0999 V2000
   33.5330   29.6170   33.9800 C   0  0  2  0  0  0  0  0  0  0  0  0
   34.0000   29.2220   32.5590 C   0  0  1  0  0  0  0  0  0  0  0  0
   33.9100   30.5610   31.9030 C   0  0  0  0  0  0  0  0  0  0  0  0
   32.8200   31.2070   32.4330 O   0  0  0  0  0  0  0  0  0  0  0  0
   32.3810   30.5460   33.5380 C   0  0  0  0  0  0  0  0  0  0  0  0
   33.1490   28.7510   34.5130 H   0  0  0  0  0  0  0  0  0  0  0  0
   33.3130   28.5160   32.0890 H   0  0  0  0  0  0  0  0  0  0  0  0
   34.8410   31.1420   32.1010 H   0  0  0  0  0  0  0  0  0  0  0  0
   33.8490   30.4400   30.8140 H   0  0  0  0  0  0  0  0  0  0  0  0
   32.1690   31.2750   34.3480 H   0  0  0  0  0  0  0  0  0  0  0  0
   31.4720   29.9450   33.3020 H   0  0  0  0  0  0  0  0  0  0  0  0
   37.1850   27.6620   33.1640 C   0  0  0  0  0  0  0  0  0  0  0  0
   37.4460   28.2960   31.9840 C   0  0  0  0  0  0  0  0  0  0  0  0
   36.2570   28.9430   31.6530 C   0  0  0  0  0  0  0  0  0  0  0  0
   35.3400   28.6980   32.6000 N   0  0  0  0  0  0  0  0  0  0  0  0
   35.9050   27.9180   33.5220 N   0  0  0  0  0  0  0  0  0  0  0  0
   38.3900   28.2840   31.4340 H   0  0  0  0  0  0  0  0  0  0  0  0
   36.2200   29.5310   30.7240 H   0  0  0  0  0  0  0  0  0  0  0  0
   38.6880   25.0390   35.3770 C   0  0  0  0  0  0  0  0  0  0  0  0
   37.7480   25.7750   34.6820 C   0  0  0  0  0  0  0  0  0  0  0  0
   38.1180   26.8530   33.9120 C   0  0  0  0  0  0  0  0  0  0  0  0
   39.4370   27.1450   33.8740 N   0  0  0  0  0  0  0  0  0  0  0  0
   40.3560   26.4090   34.5650 C   0  0  0  0  0  0  0  0  0  0  0  0
   40.0020   25.3790   35.3010 N   0  0  0  0  0  0  0  0  0  0  0  0
   36.6720   25.5720   34.6860 H   0  0  0  0  0  0  0  0  0  0  0  0
   41.4150   26.6650   34.5180 H   0  0  0  0  0  0  0  0  0  0  0  0
   38.1160   23.9850   36.1000 O   0  0  0  0  0  0  0  0  0  0  0  0
   38.2350   23.8620   37.5000 C   0  0  0  0  0  0  0  0  0  0  0  0
   39.4640   23.3440   37.8810 F   0  0  0  0  0  0  0  0  0  0  0  0
   37.2100   23.0870   37.9630 F   0  0  0  0  0  0  0  0  0  0  0  0
   38.0790   25.1190   38.0550 F   0  0  0  0  0  0  0  0  0  0  0  0
   34.5310   30.3650   34.5170 O   0  0  0  0  0  0  0  0  0  0  0  0
   36.3230   32.8250   33.8860 Cl  0  0  0  0  0  0  0  0  0  0  0  0
   35.2810   32.6520   35.2680 C   0  0  0  0  0  0  0  0  0  0  0  0
   34.5990   31.4580   35.3000 C   0  0  0  0  0  0  0  0  0  0  0  0
   33.7520   31.3040   36.4120 C   0  0  0  0  0  0  0  0  0  0  0  0
   33.1130   30.4380   36.6470 H   0  0  0  0  0  0  0  0  0  0  0  0
   33.6110   32.2660   37.3930 C   0  0  0  0  0  3  0  0  0  0  0  0
   34.3340   33.4380   37.2820 C   0  0  0  0  0  0  0  0  0  0  0  0
   34.2290   34.7170   38.4670 Cl  0  0  0  0  0  0  0  0  0  0  0  0
   35.1760   33.6320   36.2110 C   0  0  0  0  0  0  0  0  0  0  0  0
   35.7670   34.5180   36.0630 H   0  0  0  0  0  0  0  0  0  0  0  0
  1  6  1  1  0  0  0
  1 32  1  0  0  0  0
  2  7  1  6  0  0  0
  2 15  1  0  0  0  0
  2  1  1  0  0  0  0
  3  8  1  0  0  0  0
  3  4  1  0  0  0  0
  3  2  1  0  0  0  0
  4  5  1  0  0  0  0
  5  1  1  0  0  0  0
  5 10  1  0  0  0  0
  9  3  1  0  0  0  0
 11  5  1  0  0  0  0
 12 16  2  0  0  0  0
 12 21  1  0  0  0  0
 13 12  1  0  0  0  0
 14 13  2  0  0  0  0
 14 15  1  0  0  0  0
 15 16  1  0  0  0  0
 17 13  1  0  0  0  0
 18 14  1  0  0  0  0
 19 27  1  0  0  0  0
 20 25  1  0  0  0  0
 20 19  2  0  0  0  0
 21 20  1  0  0  0  0
 22 21  2  0  0  0  0
 22 23  1  0  0  0  0
 23 24  2  0  0  0  0
 24 19  1  0  0  0  0
 26 23  1  0  0  0  0
 27 28  1  0  0  0  0
 28 29  1  0  0  0  0
 28 30  1  0  0  0  0
 28 31  1  0  0  0  0
 32 35  1  0  0  0  0
 33 34  1  0  0  0  0
 34 35  2  0  0  0  0
 34 41  1  0  0  0  0
 35 36  1  0  0  0  0
 36 37  1  0  0  0  0
 36 38  2  0  0  0  0
 39 38  1  0  0  0  0
 39 40  1  0  0  0  0
 41 39  2  0  0  0  0
 42 41  1  0  0  0  0
M  END
>  <minimizedAffinity>
-5.92473793

$$$$
