
 OpenBabel03262522133D

 34 36  0  0  0  0  0  0  0  0999 V2000
   37.7430   31.7190   47.6350 C   0  0  0  0  0  0  0  0  0  0  0  0
   37.9230   32.4980   48.7890 C   0  0  0  0  0  0  0  0  0  0  0  0
   38.9290   33.4290   48.8370 C   0  0  0  0  0  0  0  0  0  0  0  0
   39.7240   33.5450   47.7140 C   0  0  0  0  0  0  0  0  0  0  0  0
   39.5250   32.7780   46.6150 C   0  0  0  0  0  0  0  0  0  0  0  0
   38.5320   31.8350   46.5220 N   0  0  0  0  0  0  0  0  0  0  0  0
   37.2650   32.3560   49.6320 H   0  0  0  0  0  0  0  0  0  0  0  0
   39.0670   34.0200   49.7130 H   0  0  0  0  0  0  0  0  0  0  0  0
   40.5170   34.2800   47.7540 H   0  0  0  0  0  0  0  0  0  0  0  0
   36.6580   30.7570   47.6560 C   0  0  0  0  0  0  0  0  0  0  0  0
   36.1380   30.3690   46.6070 O   0  0  0  0  0  0  0  0  0  0  0  0
   37.0190   29.6170   49.8210 C   0  0  0  0  0  0  0  0  0  0  0  0
   36.1310   30.2040   48.9120 C   0  0  0  0  0  0  0  0  0  0  0  0
   34.7500   30.2610   49.2060 C   0  0  0  0  0  0  0  0  0  0  0  0
   34.3570   29.7140   50.4120 N   0  0  0  0  0  0  0  0  0  0  0  0
   35.2410   29.1560   51.2630 C   0  0  0  0  0  0  0  0  0  0  0  0
   36.5240   29.1120   50.9730 N   0  0  0  0  0  0  0  0  0  0  0  0
   38.0770   29.5550   49.6310 H   0  0  0  0  0  0  0  0  0  0  0  0
   34.1330   30.7200   48.4750 H   0  0  0  0  0  0  0  0  0  0  0  0
   34.6900   28.8050   52.1240 H   0  0  0  0  0  0  0  0  0  0  0  0
   40.5710   32.9420   45.1470 S   0  0  0  0  0  0  0  0  0  0  0  0
   39.4900   32.6720   43.7260 C   0  0  0  0  0  0  0  0  0  0  0  0
   38.4340   32.9830   43.9270 H   0  0  0  0  0  0  0  0  0  0  0  0
   39.8070   33.3600   42.8870 H   0  0  0  0  0  0  0  0  0  0  0  0
   36.8100   31.2320   43.4130 Cl  0  0  0  0  0  0  0  0  0  0  0  0
   38.3640   30.5270   43.0220 C   0  0  0  0  0  0  0  0  0  0  0  0
   39.5240   31.2880   43.2020 C   0  0  0  0  0  0  0  0  0  0  0  0
   40.6860   30.6350   42.8640 C   0  0  0  0  0  0  0  0  0  0  0  0
   41.5900   31.2470   43.0090 H   0  0  0  0  0  0  0  0  0  0  0  0
   40.8610   29.3580   42.3820 C   0  0  0  0  0  3  0  0  0  0  0  0
   39.6720   28.6380   42.2180 C   0  0  0  0  0  0  0  0  0  0  0  0
   39.8150   27.0010   41.6090 Cl  0  0  0  0  0  0  0  0  0  0  0  0
   38.4380   29.2180   42.5360 C   0  0  0  0  0  0  0  0  0  0  0  0
   37.5510   28.6130   42.3890 H   0  0  0  0  0  0  0  0  0  0  0  0
  1 10  1  0  0  0  0
  1  2  1  0  0  0  0
  2  3  2  0  0  0  0
  2  7  1  0  0  0  0
  3  8  1  0  0  0  0
  4  9  1  0  0  0  0
  4  3  1  0  0  0  0
  5  4  2  0  0  0  0
  6  5  1  0  0  0  0
  6  1  2  0  0  0  0
 10 13  1  0  0  0  0
 11 10  2  0  0  0  0
 12 17  1  0  0  0  0
 13 14  1  0  0  0  0
 13 12  2  0  0  0  0
 14 15  2  0  0  0  0
 15 16  1  0  0  0  0
 16 20  1  0  0  0  0
 17 16  2  0  0  0  0
 18 12  1  0  0  0  0
 19 14  1  0  0  0  0
 21  5  1  0  0  0  0
 22 23  1  0  0  0  0
 22 21  1  0  0  0  0
 24 22  1  0  0  0  0
 26 27  1  0  0  0  0
 26 25  1  0  0  0  0
 27 22  1  0  0  0  0
 28 29  1  0  0  0  0
 28 27  2  0  0  0  0
 30 28  1  0  0  0  0
 31 30  2  0  0  0  0
 31 33  1  0  0  0  0
 32 31  1  0  0  0  0
 33 26  2  0  0  0  0
 34 33  1  0  0  0  0
M  END
>  <minimizedAffinity>
-5.60578537

>  <minimizedRMSD>
1.56061101

$$$$
