
 OpenBabel03262522133D

 34 36  0  0  0  0  0  0  0  0999 V2000
   37.7890   31.7030   47.5740 C   0  0  0  0  0  0  0  0  0  0  0  0
   37.9250   32.5790   48.6630 C   0  0  0  0  0  0  0  0  0  0  0  0
   38.9480   33.4920   48.6840 C   0  0  0  0  0  0  0  0  0  0  0  0
   39.8060   33.4910   47.6020 C   0  0  0  0  0  0  0  0  0  0  0  0
   39.6480   32.6320   46.5660 C   0  0  0  0  0  0  0  0  0  0  0  0
   38.6390   31.7030   46.5010 N   0  0  0  0  0  0  0  0  0  0  0  0
   37.2190   32.5260   49.4760 H   0  0  0  0  0  0  0  0  0  0  0  0
   39.0520   34.1560   49.5100 H   0  0  0  0  0  0  0  0  0  0  0  0
   40.6120   34.2120   47.6210 H   0  0  0  0  0  0  0  0  0  0  0  0
   36.6820   30.7680   47.6190 C   0  0  0  0  0  0  0  0  0  0  0  0
   36.1200   30.4040   46.5830 O   0  0  0  0  0  0  0  0  0  0  0  0
   37.0930   29.6710   49.7980 C   0  0  0  0  0  0  0  0  0  0  0  0
   36.1810   30.2140   48.8860 C   0  0  0  0  0  0  0  0  0  0  0  0
   34.7990   30.2260   49.1850 C   0  0  0  0  0  0  0  0  0  0  0  0
   34.4310   29.6820   50.4000 N   0  0  0  0  0  0  0  0  0  0  0  0
   35.3380   29.1680   51.2540 C   0  0  0  0  0  0  0  0  0  0  0  0
   36.6220   29.1660   50.9590 N   0  0  0  0  0  0  0  0  0  0  0  0
   38.1510   29.6450   49.6040 H   0  0  0  0  0  0  0  0  0  0  0  0
   34.1640   30.6510   48.4510 H   0  0  0  0  0  0  0  0  0  0  0  0
   34.8040   28.8100   52.1230 H   0  0  0  0  0  0  0  0  0  0  0  0
   40.7760   32.6440   45.1500 S   0  0  0  0  0  0  0  0  0  0  0  0
   39.7350   32.5750   43.6770 C   0  0  0  0  0  0  0  0  0  0  0  0
   38.9160   33.3370   43.6960 H   0  0  0  0  0  0  0  0  0  0  0  0
   40.3500   32.8790   42.7780 H   0  0  0  0  0  0  0  0  0  0  0  0
   36.6910   32.3330   43.5220 Cl  0  0  0  0  0  0  0  0  0  0  0  0
   37.8020   30.9960   43.3120 C   0  0  0  0  0  0  0  0  0  0  0  0
   39.1770   31.2320   43.3990 C   0  0  0  0  0  0  0  0  0  0  0  0
   39.9560   30.1130   43.2180 C   0  0  0  0  0  0  0  0  0  0  0  0
   41.0360   30.3130   43.2880 H   0  0  0  0  0  0  0  0  0  0  0  0
   39.5720   28.8140   42.9680 C   0  0  0  0  0  3  0  0  0  0  0  0
   38.1870   28.6300   42.8900 C   0  0  0  0  0  0  0  0  0  0  0  0
   37.6210   27.0010   42.5750 Cl  0  0  0  0  0  0  0  0  0  0  0  0
   37.3130   29.7100   43.0600 C   0  0  0  0  0  0  0  0  0  0  0  0
   36.2500   29.5070   42.9890 H   0  0  0  0  0  0  0  0  0  0  0  0
  1 10  1  0  0  0  0
  1  2  1  0  0  0  0
  2  3  2  0  0  0  0
  2  7  1  0  0  0  0
  3  8  1  0  0  0  0
  4  9  1  0  0  0  0
  4  3  1  0  0  0  0
  5  4  2  0  0  0  0
  6  5  1  0  0  0  0
  6  1  2  0  0  0  0
 10 13  1  0  0  0  0
 11 10  2  0  0  0  0
 12 17  1  0  0  0  0
 13 14  1  0  0  0  0
 13 12  2  0  0  0  0
 14 15  2  0  0  0  0
 15 16  1  0  0  0  0
 16 20  1  0  0  0  0
 17 16  2  0  0  0  0
 18 12  1  0  0  0  0
 19 14  1  0  0  0  0
 21  5  1  0  0  0  0
 22 23  1  0  0  0  0
 22 21  1  0  0  0  0
 24 22  1  0  0  0  0
 26 27  1  0  0  0  0
 26 25  1  0  0  0  0
 27 22  1  0  0  0  0
 28 29  1  0  0  0  0
 28 27  2  0  0  0  0
 30 28  1  0  0  0  0
 31 30  2  0  0  0  0
 31 33  1  0  0  0  0
 32 31  1  0  0  0  0
 33 26  2  0  0  0  0
 34 33  1  0  0  0  0
M  END
>  <minimizedAffinity>
-5.52501822

>  <minimizedRMSD>
0.885869503

$$$$
