
 OpenBabel03262522153D

 46 49  0  0  1  0  0  0  0  0999 V2000
   39.6130   32.8100   43.8110 C   0  0  0  0  0  0  0  0  0  0  0  0
   39.6870   33.6920   43.1220 H   0  0  0  0  0  0  0  0  0  0  0  0
   38.5560   32.6530   44.0470 H   0  0  0  0  0  0  0  0  0  0  0  0
   38.9810   29.6770   42.2800 C   0  0  1  0  0  0  0  0  0  0  0  0
   39.0640   31.1740   42.0150 C   0  0  0  0  0  0  0  0  0  0  0  0
   40.0780   31.5820   43.0590 C   0  0  2  0  0  0  0  0  0  0  0  0
   40.3150   30.5250   43.8810 O   0  0  0  0  0  0  0  0  0  0  0  0
   39.2450   29.6460   43.7780 C   0  0  0  0  0  0  0  0  0  0  0  0
   39.7780   29.1600   41.7190 H   0  0  0  0  0  0  0  0  0  0  0  0
   39.4920   31.3610   41.0030 H   0  0  0  0  0  0  0  0  0  0  0  0
   38.0990   31.6750   42.1950 H   0  0  0  0  0  0  0  0  0  0  0  0
   41.0410   31.8570   42.5650 H   0  0  0  0  0  0  0  0  0  0  0  0
   38.3270   30.0720   44.2460 H   0  0  0  0  0  0  0  0  0  0  0  0
   39.4940   28.6410   44.1360 H   0  0  0  0  0  0  0  0  0  0  0  0
   37.7280   29.1840   41.9760 O   0  0  0  0  0  0  0  0  0  0  0  0
   37.3600   26.4150   42.8230 Cl  0  0  0  0  0  0  0  0  0  0  0  0
   37.1310   27.0320   41.2030 C   0  0  0  0  0  0  0  0  0  0  0  0
   37.3440   28.3700   40.9570 C   0  0  0  0  0  0  0  0  0  0  0  0
   37.1410   28.7700   39.6620 C   0  0  0  0  0  0  0  0  0  0  0  0
   37.2900   29.8010   39.3980 H   0  0  0  0  0  0  0  0  0  0  0  0
   36.7560   27.9180   38.6700 C   0  0  0  0  0  3  0  0  0  0  0  0
   36.5550   26.5840   38.9630 C   0  0  0  0  0  0  0  0  0  0  0  0
   36.0590   25.4620   37.7150 Cl  0  0  0  0  0  0  0  0  0  0  0  0
   36.7440   26.1330   40.2510 C   0  0  0  0  0  0  0  0  0  0  0  0
   36.5860   25.0800   40.4880 H   0  0  0  0  0  0  0  0  0  0  0  0
   40.6870   33.0110   45.2540 S   0  0  0  0  0  0  0  0  0  0  0  0
   37.7760   31.7550   47.6600 C   0  0  0  0  0  0  0  0  0  0  0  0
   37.9330   32.5460   48.8070 C   0  0  0  0  0  0  0  0  0  0  0  0
   38.9300   33.4960   48.9000 C   0  0  0  0  0  0  0  0  0  0  0  0
   39.7560   33.6170   47.8020 C   0  0  0  0  0  0  0  0  0  0  0  0
   39.5880   32.8420   46.7010 C   0  0  0  0  0  0  0  0  0  0  0  0
   38.6120   31.9080   46.6040 N   0  0  0  0  0  0  0  0  0  0  0  0
   37.2740   32.4360   49.6590 H   0  0  0  0  0  0  0  0  0  0  0  0
   39.0410   34.1010   49.7930 H   0  0  0  0  0  0  0  0  0  0  0  0
   40.5610   34.3410   47.8040 H   0  0  0  0  0  0  0  0  0  0  0  0
   36.7160   30.7940   47.6480 C   0  0  0  0  0  0  0  0  0  0  0  0
   36.2320   30.3900   46.5940 O   0  0  0  0  0  0  0  0  0  0  0  0
   37.0280   29.6300   49.8020 C   0  0  0  0  0  0  0  0  0  0  0  0
   36.1450   30.2370   48.8810 C   0  0  0  0  0  0  0  0  0  0  0  0
   34.7770   30.2830   49.1750 C   0  0  0  0  0  0  0  0  0  0  0  0
   34.3510   29.7320   50.3550 N   0  0  0  0  0  0  0  0  0  0  0  0
   35.2130   29.1600   51.2140 C   0  0  0  0  0  0  0  0  0  0  0  0
   36.5140   29.1130   50.9420 N   0  0  0  0  0  0  0  0  0  0  0  0
   38.0800   29.6130   49.5430 H   0  0  0  0  0  0  0  0  0  0  0  0
   34.1220   30.7410   48.4750 H   0  0  0  0  0  0  0  0  0  0  0  0
   34.9090   28.7170   52.1540 H   0  0  0  0  0  0  0  0  0  0  0  0
  1  3  1  0  0  0  0
  1 26  1  0  0  0  0
  2  1  1  0  0  0  0
  4  9  1  6  0  0  0
  4  8  1  0  0  0  0
  5 11  1  0  0  0  0
  5  4  1  0  0  0  0
  5  6  1  0  0  0  0
  6 12  1  6  0  0  0
  6  1  1  0  0  0  0
  6  7  1  0  0  0  0
  8  7  1  0  0  0  0
  8 14  1  0  0  0  0
  8 13  1  0  0  0  0
 10  5  1  0  0  0  0
 15  4  1  0  0  0  0
 17 16  1  0  0  0  0
 18 17  1  0  0  0  0
 18 15  1  0  0  0  0
 19 18  2  0  0  0  0
 20 19  1  0  0  0  0
 21 22  2  0  0  0  0
 21 19  1  0  0  0  0
 22 24  1  0  0  0  0
 23 22  1  0  0  0  0
 24 25  1  0  0  0  0
 24 17  2  0  0  0  0
 26 31  1  0  0  0  0
 27 28  1  0  0  0  0
 28 29  2  0  0  0  0
 28 33  1  0  0  0  0
 29 34  1  0  0  0  0
 30 35  1  0  0  0  0
 30 29  1  0  0  0  0
 31 30  2  0  0  0  0
 32 31  1  0  0  0  0
 32 27  2  0  0  0  0
 36 27  1  0  0  0  0
 36 39  1  0  0  0  0
 37 36  2  0  0  0  0
 38 43  1  0  0  0  0
 39 40  1  0  0  0  0
 39 38  2  0  0  0  0
 40 41  2  0  0  0  0
 41 42  1  0  0  0  0
 42 46  1  0  0  0  0
 43 42  2  0  0  0  0
 44 38  1  0  0  0  0
 45 40  1  0  0  0  0
M  END
>  <minimizedAffinity>
-5.12215948

>  <minimizedRMSD>
0.508723676

$$$$
