
 OpenBabel03262522153D

 46 49  0  0  1  0  0  0  0  0999 V2000
   39.6600   32.8190   43.8180 C   0  0  0  0  0  0  0  0  0  0  0  0
   39.7850   33.6970   43.1320 H   0  0  0  0  0  0  0  0  0  0  0  0
   38.5940   32.7140   44.0430 H   0  0  0  0  0  0  0  0  0  0  0  0
   38.8800   29.7450   42.2360 C   0  0  1  0  0  0  0  0  0  0  0  0
   39.0650   31.2360   41.9890 C   0  0  0  0  0  0  0  0  0  0  0  0
   40.0700   31.5700   43.0670 C   0  0  2  0  0  0  0  0  0  0  0  0
   40.2140   30.4930   43.8850 O   0  0  0  0  0  0  0  0  0  0  0  0
   39.0950   29.6840   43.7400 C   0  0  0  0  0  0  0  0  0  0  0  0
   39.6600   29.1840   41.6930 H   0  0  0  0  0  0  0  0  0  0  0  0
   39.5350   31.4040   40.9920 H   0  0  0  0  0  0  0  0  0  0  0  0
   38.1290   31.7950   42.1450 H   0  0  0  0  0  0  0  0  0  0  0  0
   41.0630   31.7880   42.6060 H   0  0  0  0  0  0  0  0  0  0  0  0
   38.1910   30.1630   44.1850 H   0  0  0  0  0  0  0  0  0  0  0  0
   39.2700   28.6630   44.0950 H   0  0  0  0  0  0  0  0  0  0  0  0
   37.6090   29.3340   41.8890 O   0  0  0  0  0  0  0  0  0  0  0  0
   35.3290   30.4860   43.3010 Cl  0  0  0  0  0  0  0  0  0  0  0  0
   35.7010   28.7830   43.1680 C   0  0  0  0  0  0  0  0  0  0  0  0
   36.8170   28.3910   42.4660 C   0  0  0  0  0  0  0  0  0  0  0  0
   37.0350   27.0390   42.4110 C   0  0  0  0  0  0  0  0  0  0  0  0
   37.8880   26.6610   41.8790 H   0  0  0  0  0  0  0  0  0  0  0  0
   36.2140   26.1280   43.0060 C   0  0  0  0  0  3  0  0  0  0  0  0
   35.1050   26.5670   43.7010 C   0  0  0  0  0  0  0  0  0  0  0  0
   34.0280   25.4250   44.4760 Cl  0  0  0  0  0  0  0  0  0  0  0  0
   34.8420   27.9170   43.7840 C   0  0  0  0  0  0  0  0  0  0  0  0
   33.9680   28.2690   44.3320 H   0  0  0  0  0  0  0  0  0  0  0  0
   40.7280   32.9610   45.2720 S   0  0  0  0  0  0  0  0  0  0  0  0
   37.7840   31.7490   47.6610 C   0  0  0  0  0  0  0  0  0  0  0  0
   37.9290   32.5590   48.7970 C   0  0  0  0  0  0  0  0  0  0  0  0
   38.9270   33.5080   48.8880 C   0  0  0  0  0  0  0  0  0  0  0  0
   39.7660   33.6090   47.7990 C   0  0  0  0  0  0  0  0  0  0  0  0
   39.6100   32.8180   46.7070 C   0  0  0  0  0  0  0  0  0  0  0  0
   38.6330   31.8850   46.6130 N   0  0  0  0  0  0  0  0  0  0  0  0
   37.2590   32.4630   49.6430 H   0  0  0  0  0  0  0  0  0  0  0  0
   39.0280   34.1260   49.7720 H   0  0  0  0  0  0  0  0  0  0  0  0
   40.5730   34.3320   47.8000 H   0  0  0  0  0  0  0  0  0  0  0  0
   36.7220   30.7920   47.6510 C   0  0  0  0  0  0  0  0  0  0  0  0
   36.2360   30.3870   46.5970 O   0  0  0  0  0  0  0  0  0  0  0  0
   37.0340   29.6310   49.8060 C   0  0  0  0  0  0  0  0  0  0  0  0
   36.1510   30.2370   48.8840 C   0  0  0  0  0  0  0  0  0  0  0  0
   34.7830   30.2830   49.1790 C   0  0  0  0  0  0  0  0  0  0  0  0
   34.3570   29.7350   50.3600 N   0  0  0  0  0  0  0  0  0  0  0  0
   35.2190   29.1630   51.2200 C   0  0  0  0  0  0  0  0  0  0  0  0
   36.5200   29.1150   50.9470 N   0  0  0  0  0  0  0  0  0  0  0  0
   38.0860   29.6120   49.5470 H   0  0  0  0  0  0  0  0  0  0  0  0
   34.1280   30.7420   48.4780 H   0  0  0  0  0  0  0  0  0  0  0  0
   34.9140   28.7220   52.1600 H   0  0  0  0  0  0  0  0  0  0  0  0
  1  3  1  0  0  0  0
  1 26  1  0  0  0  0
  2  1  1  0  0  0  0
  4  9  1  6  0  0  0
  4  8  1  0  0  0  0
  5 11  1  0  0  0  0
  5  4  1  0  0  0  0
  5  6  1  0  0  0  0
  6 12  1  6  0  0  0
  6  1  1  0  0  0  0
  6  7  1  0  0  0  0
  8  7  1  0  0  0  0
  8 14  1  0  0  0  0
  8 13  1  0  0  0  0
 10  5  1  0  0  0  0
 15  4  1  0  0  0  0
 15 18  1  0  0  0  0
 17 16  1  0  0  0  0
 17 24  1  0  0  0  0
 18 17  2  0  0  0  0
 19 18  1  0  0  0  0
 19 21  2  0  0  0  0
 20 19  1  0  0  0  0
 21 22  1  0  0  0  0
 22 24  2  0  0  0  0
 22 23  1  0  0  0  0
 24 25  1  0  0  0  0
 26 31  1  0  0  0  0
 27 28  1  0  0  0  0
 28 29  2  0  0  0  0
 28 33  1  0  0  0  0
 29 34  1  0  0  0  0
 30 35  1  0  0  0  0
 30 29  1  0  0  0  0
 31 30  2  0  0  0  0
 32 31  1  0  0  0  0
 32 27  2  0  0  0  0
 36 27  1  0  0  0  0
 36 39  1  0  0  0  0
 37 36  2  0  0  0  0
 38 43  1  0  0  0  0
 39 40  1  0  0  0  0
 39 38  2  0  0  0  0
 40 41  2  0  0  0  0
 41 42  1  0  0  0  0
 42 46  1  0  0  0  0
 43 42  2  0  0  0  0
 44 38  1  0  0  0  0
 45 40  1  0  0  0  0
M  END
>  <minimizedAffinity>
-5.4350791

>  <minimizedRMSD>
1.75322664

$$$$
