
 OpenBabel03272509083D

 41 44  0  0  0  0  0  0  0  0999 V2000
   32.8580   28.0300   48.4190 C   0  0  0  0  0  0  0  0  0  0  0  0
   32.4880   27.3780   49.2470 H   0  0  0  0  0  0  0  0  0  0  0  0
   32.0160   28.6800   48.1600 H   0  0  0  0  0  0  0  0  0  0  0  0
   33.2030   27.1040   47.3140 C   0  0  0  0  0  0  0  0  0  0  0  0
   33.7150   25.8370   47.4770 C   0  0  0  0  0  0  0  0  0  0  0  0
   34.0150   25.0270   46.4080 C   0  0  0  0  0  0  0  0  0  0  0  0
   33.8040   25.4750   45.0980 C   0  0  0  0  0  0  0  0  0  0  0  0
   33.2950   26.7350   44.9150 C   0  0  0  0  0  0  0  0  0  0  0  0
   33.0070   27.5190   46.0130 C   0  0  0  0  0  0  0  0  0  0  0  0
   33.8660   25.5200   48.5090 H   0  0  0  0  0  0  0  0  0  0  0  0
   34.4090   24.0600   46.6740 H   0  0  0  0  0  0  0  0  0  0  0  0
   34.0900   24.7200   44.3770 H   0  0  0  0  0  0  0  0  0  0  0  0
   33.1600   27.0120   43.8980 H   0  0  0  0  0  0  0  0  0  0  0  0
   34.9100   29.8840   45.7000 Cl  0  0  0  0  0  0  0  0  0  0  0  0
   33.1870   30.0150   45.4800 C   0  0  0  0  0  0  0  0  0  0  0  0
   32.4660   28.8470   45.6590 C   0  0  0  0  0  0  0  0  0  0  0  0
   31.0750   28.8210   45.5100 C   0  0  0  0  0  0  0  0  0  0  0  0
   30.4600   27.9420   45.6370 H   0  0  0  0  0  0  0  0  0  0  0  0
   30.4610   30.0180   45.1770 C   0  0  0  0  0  0  0  0  0  0  0  0
   31.1330   31.1990   44.9890 C   0  0  0  0  0  0  0  0  0  0  0  0
   30.3340   32.6990   44.5680 Cl  0  0  0  0  0  0  0  0  0  0  0  0
   32.4970   31.1640   45.1480 C   0  0  0  0  0  0  0  0  0  0  0  0
   33.1150   32.0640   45.0170 H   0  0  0  0  0  0  0  0  0  0  0  0
   35.0930   28.2810   49.4770 C   0  0  0  0  0  0  0  0  0  0  0  0
   34.0190   28.7670   48.9440 C   0  0  0  0  0  0  0  0  0  0  0  0
   37.3770   30.1980   51.5860 C   0  0  0  0  0  0  0  0  0  0  0  0
   38.0660   30.9720   50.6400 C   0  0  0  0  0  0  0  0  0  0  0  0
   37.7210   30.8140   49.2740 C   0  0  0  0  0  0  0  0  0  0  0  0
   36.7320   29.9100   48.9510 N   0  0  0  0  0  0  0  0  0  0  0  0
   36.1200   29.2040   49.9290 C   0  0  0  0  0  0  0  0  0  0  0  0
   36.4380   29.3480   51.2200 N   0  0  0  0  0  0  0  0  0  0  0  0
   37.7050   30.3840   52.6000 H   0  0  0  0  0  0  0  0  0  0  0  0
   38.8500   31.7010   50.7950 H   0  0  0  0  0  0  0  0  0  0  0  0
   38.3700   31.5670   48.1930 C   0  0  0  0  0  0  0  0  0  0  0  0
   38.5670   31.0410   46.9420 C   0  0  0  0  0  0  0  0  0  0  0  0
   39.2040   32.0240   46.1780 C   0  0  0  0  0  0  0  0  0  0  0  0
   39.3640   33.0990   46.9920 N   0  0  0  0  0  0  0  0  0  0  0  0
   38.8620   32.8240   48.2040 N   0  0  0  0  0  0  0  0  0  0  0  0
   38.3020   30.0550   46.5590 H   0  0  0  0  0  0  0  0  0  0  0  0
   39.5300   32.0140   45.1580 H   0  0  0  0  0  0  0  0  0  0  0  0
   39.7850   34.0450   46.8470 H   0  0  0  0  0  0  0  0  0  0  0  0
  1 25  1  0  0  0  0
  1  2  1  0  0  0  0
  3  1  1  0  0  0  0
  4  5  1  0  0  0  0
  4  1  1  0  0  0  0
  5 10  1  0  0  0  0
  6 11  1  0  0  0  0
  6  5  2  0  0  0  0
  7  6  1  0  0  0  0
  8  7  2  0  0  0  0
  8  9  1  0  0  0  0
  9  4  2  0  0  0  0
 12  7  1  0  0  0  0
 13  8  1  0  0  0  0
 15 16  1  0  0  0  0
 15 14  1  0  0  0  0
 16  9  1  0  0  0  0
 17 18  1  0  0  0  0
 17 16  2  0  0  0  0
 19 17  1  0  0  0  0
 20 22  1  0  0  0  0
 20 19  2  0  0  0  0
 21 20  1  0  0  0  0
 22 15  2  0  0  0  0
 23 22  1  0  0  0  0
 24 30  1  0  0  0  0
 25 24  2  0  0  0  0
 26 32  1  0  0  0  0
 27 33  1  0  0  0  0
 27 26  2  0  0  0  0
 28 27  1  0  0  0  0
 29 28  2  0  0  0  0
 29 30  1  0  0  0  0
 30 31  2  0  0  0  0
 31 26  1  0  0  0  0
 34 38  2  0  0  0  0
 34 28  1  0  0  0  0
 35 34  1  0  0  0  0
 36 35  2  0  0  0  0
 36 37  1  0  0  0  0
 37 38  1  0  0  0  0
 39 35  1  0  0  0  0
 40 36  1  0  0  0  0
 41 37  1  0  0  0  0
M  END
>  <minimizedAffinity>
-6.66317415

>  <minimizedRMSD>
1.22309589

$$$$
