
 OpenBabel03262522163D

 46 49  0  0  1  0  0  0  0  0999 V2000
   39.3450   33.0110   43.7640 C   0  0  0  0  0  0  0  0  0  0  0  0
   39.2950   33.9010   43.0840 H   0  0  0  0  0  0  0  0  0  0  0  0
   38.3230   32.7500   44.0550 H   0  0  0  0  0  0  0  0  0  0  0  0
   39.1070   29.6730   42.5980 C   0  0  1  0  0  0  0  0  0  0  0  0
   38.7680   31.1160   42.2530 C   0  0  0  0  0  0  0  0  0  0  0  0
   39.8840   31.8400   42.9710 C   0  0  2  0  0  0  0  0  0  0  0  0
   40.5580   30.9500   43.7480 O   0  0  0  0  0  0  0  0  0  0  0  0
   39.7340   29.8560   43.9720 C   0  0  0  0  0  0  0  0  0  0  0  0
   39.8380   29.2840   41.8690 H   0  0  0  0  0  0  0  0  0  0  0  0
   38.8750   31.2840   41.1570 H   0  0  0  0  0  0  0  0  0  0  0  0
   37.7880   31.4140   42.6610 H   0  0  0  0  0  0  0  0  0  0  0  0
   40.6020   32.2620   42.2280 H   0  0  0  0  0  0  0  0  0  0  0  0
   38.8870   30.1210   44.6480 H   0  0  0  0  0  0  0  0  0  0  0  0
   40.2930   28.9710   44.2960 H   0  0  0  0  0  0  0  0  0  0  0  0
   37.9700   28.8920   42.6600 O   0  0  0  0  0  0  0  0  0  0  0  0
   39.0720   26.2600   43.2660 Cl  0  0  0  0  0  0  0  0  0  0  0  0
   37.9690   26.6350   41.9630 C   0  0  0  0  0  0  0  0  0  0  0  0
   37.5340   27.9310   41.8030 C   0  0  0  0  0  0  0  0  0  0  0  0
   36.6720   28.1380   40.7580 C   0  0  0  0  0  0  0  0  0  0  0  0
   36.2930   29.1270   40.5730 H   0  0  0  0  0  0  0  0  0  0  0  0
   36.2620   27.1430   39.9220 C   0  0  0  0  0  3  0  0  0  0  0  0
   36.7240   25.8580   40.1200 C   0  0  0  0  0  0  0  0  0  0  0  0
   36.2180   24.5550   39.0680 Cl  0  0  0  0  0  0  0  0  0  0  0  0
   37.5920   25.5980   41.1580 C   0  0  0  0  0  0  0  0  0  0  0  0
   37.9610   24.5840   41.3200 H   0  0  0  0  0  0  0  0  0  0  0  0
   40.4720   33.3030   45.1490 S   0  0  0  0  0  0  0  0  0  0  0  0
   37.7660   31.7960   47.6480 C   0  0  0  0  0  0  0  0  0  0  0  0
   37.9850   32.5070   48.8370 C   0  0  0  0  0  0  0  0  0  0  0  0
   38.9640   33.4750   48.9310 C   0  0  0  0  0  0  0  0  0  0  0  0
   39.7080   33.6980   47.7930 C   0  0  0  0  0  0  0  0  0  0  0  0
   39.4810   33.0000   46.6500 C   0  0  0  0  0  0  0  0  0  0  0  0
   38.5220   32.0490   46.5520 N   0  0  0  0  0  0  0  0  0  0  0  0
   37.3900   32.3160   49.7210 H   0  0  0  0  0  0  0  0  0  0  0  0
   39.1230   34.0170   49.8570 H   0  0  0  0  0  0  0  0  0  0  0  0
   40.4940   34.4420   47.7930 H   0  0  0  0  0  0  0  0  0  0  0  0
   36.7300   30.8100   47.6370 C   0  0  0  0  0  0  0  0  0  0  0  0
   36.2640   30.3830   46.5830 O   0  0  0  0  0  0  0  0  0  0  0  0
   37.0480   29.6390   49.7860 C   0  0  0  0  0  0  0  0  0  0  0  0
   36.1630   30.2510   48.8710 C   0  0  0  0  0  0  0  0  0  0  0  0
   34.7960   30.2990   49.1700 C   0  0  0  0  0  0  0  0  0  0  0  0
   34.3740   29.7460   50.3510 N   0  0  0  0  0  0  0  0  0  0  0  0
   35.2380   29.1690   51.2050 C   0  0  0  0  0  0  0  0  0  0  0  0
   36.5380   29.1190   50.9270 N   0  0  0  0  0  0  0  0  0  0  0  0
   38.0990   29.6190   49.5230 H   0  0  0  0  0  0  0  0  0  0  0  0
   34.1400   30.7610   48.4750 H   0  0  0  0  0  0  0  0  0  0  0  0
   34.9360   28.7240   52.1450 H   0  0  0  0  0  0  0  0  0  0  0  0
  1  3  1  0  0  0  0
  1 26  1  0  0  0  0
  2  1  1  0  0  0  0
  4  9  1  6  0  0  0
  4 15  1  0  0  0  0
  4  8  1  0  0  0  0
  5  4  1  0  0  0  0
  5 11  1  0  0  0  0
  5  6  1  0  0  0  0
  6 12  1  6  0  0  0
  6  7  1  0  0  0  0
  6  1  1  0  0  0  0
  7  8  1  0  0  0  0
  8 14  1  0  0  0  0
  8 13  1  0  0  0  0
 10  5  1  0  0  0  0
 17 16  1  0  0  0  0
 18 17  1  0  0  0  0
 18 15  1  0  0  0  0
 19 18  2  0  0  0  0
 20 19  1  0  0  0  0
 21 22  2  0  0  0  0
 21 19  1  0  0  0  0
 22 24  1  0  0  0  0
 23 22  1  0  0  0  0
 24 25  1  0  0  0  0
 24 17  2  0  0  0  0
 26 31  1  0  0  0  0
 27 28  1  0  0  0  0
 28 29  2  0  0  0  0
 28 33  1  0  0  0  0
 29 34  1  0  0  0  0
 30 35  1  0  0  0  0
 30 29  1  0  0  0  0
 31 30  2  0  0  0  0
 32 31  1  0  0  0  0
 32 27  2  0  0  0  0
 36 27  1  0  0  0  0
 36 39  1  0  0  0  0
 37 36  2  0  0  0  0
 38 43  1  0  0  0  0
 39 40  1  0  0  0  0
 39 38  2  0  0  0  0
 40 41  2  0  0  0  0
 41 42  1  0  0  0  0
 42 46  1  0  0  0  0
 43 42  2  0  0  0  0
 44 38  1  0  0  0  0
 45 40  1  0  0  0  0
M  END
>  <minimizedAffinity>
-5.30969715

>  <minimizedRMSD>
0.524779379

$$$$
