
 OpenBabel03272503333D

 42 45  0  0  1  0  0  0  0  0999 V2000
   35.6120   29.5200   47.7880 C   0  0  0  0  0  0  0  0  0  0  0  0
   35.5200   30.1320   46.5380 C   0  0  0  0  0  0  0  0  0  0  0  0
   34.4730   29.7330   45.7000 C   0  0  0  0  0  0  0  0  0  0  0  0
   33.6130   28.7650   46.1750 N   0  0  0  0  0  0  0  0  0  0  0  0
   33.7400   28.2070   47.3800 C   0  0  0  0  0  0  0  0  0  0  0  0
   34.7410   28.5870   48.1830 N   0  0  0  0  0  0  0  0  0  0  0  0
   36.1940   30.8900   46.1640 H   0  0  0  0  0  0  0  0  0  0  0  0
   34.3190   30.1410   44.7250 H   0  0  0  0  0  0  0  0  0  0  0  0
   36.6890   29.9370   48.6390 N   0  0  0  0  0  0  0  0  0  0  0  0
   37.8360   30.7100   48.2700 C   0  0  0  0  0  0  0  0  0  0  0  0
   38.1960   31.4050   49.5750 C   0  0  2  0  0  0  0  0  0  0  0  0
   37.0890   31.0520   50.5670 C   0  0  0  0  0  0  0  0  0  0  0  0
   36.8150   29.6430   50.0650 C   0  0  0  0  0  0  0  0  0  0  0  0
   37.6030   31.4800   47.4860 H   0  0  0  0  0  0  0  0  0  0  0  0
   38.7020   30.0780   47.9600 H   0  0  0  0  0  0  0  0  0  0  0  0
   39.1320   30.9790   50.0120 H   0  0  0  0  0  0  0  0  0  0  0  0
   36.2240   31.6920   50.3850 H   0  0  0  0  0  0  0  0  0  0  0  0
   37.4450   31.0680   51.6030 H   0  0  0  0  0  0  0  0  0  0  0  0
   35.8520   29.2910   50.4690 H   0  0  0  0  0  0  0  0  0  0  0  0
   37.6720   28.9990   50.2820 H   0  0  0  0  0  0  0  0  0  0  0  0
   38.3300   32.8930   49.4050 C   0  0  0  0  0  0  0  0  0  0  0  0
   37.1490   33.4540   49.8520 F   0  0  0  0  0  0  0  0  0  0  0  0
   38.3950   33.1400   48.0590 F   0  0  0  0  0  0  0  0  0  0  0  0
   39.4200   33.4150   50.0490 F   0  0  0  0  0  0  0  0  0  0  0  0
   32.5960   26.9620   47.9380 S   0  0  0  0  0  0  0  0  0  0  0  0
   31.1630   27.4760   48.6670 C   0  0  0  0  0  0  0  0  0  0  0  0
   30.4800   27.3800   49.8430 C   0  0  0  0  0  0  0  0  0  0  0  0
   29.2810   27.9510   50.1030 C   0  0  0  0  0  0  0  0  0  0  0  0
   28.7450   28.7220   48.9580 C   0  0  0  0  0  0  0  0  0  0  0  0
   30.0030   28.5440   47.6580 S   0  0  0  0  0  0  0  0  0  0  0  0
   31.0270   26.7800   50.5540 H   0  0  0  0  0  0  0  0  0  0  0  0
   28.7490   27.8730   51.0290 H   0  0  0  0  0  0  0  0  0  0  0  0
   26.4160   26.9770   48.3710 Cl  0  0  0  0  0  0  0  0  0  0  0  0
   26.3960   28.7100   48.6190 C   0  0  0  0  0  0  0  0  0  0  0  0
   27.5350   29.4340   48.8870 C   0  0  0  0  0  0  0  0  0  0  0  0
   27.5840   30.7930   49.0920 C   0  0  0  0  0  0  0  0  0  0  0  0
   28.5020   31.3120   49.2980 H   0  0  0  0  0  0  0  0  0  0  0  0
   26.3720   31.4920   49.0180 C   0  0  0  0  0  3  0  0  0  0  0  0
   25.1830   30.8030   48.7470 C   0  0  0  0  0  0  0  0  0  0  0  0
   23.6490   31.6430   48.6490 Cl  0  0  0  0  0  0  0  0  0  0  0  0
   25.1880   29.4170   48.5480 C   0  0  0  0  0  0  0  0  0  0  0  0
   24.2610   28.9010   48.3400 H   0  0  0  0  0  0  0  0  0  0  0  0
  1  6  1  0  0  0  0
  1  9  1  0  0  0  0
  2  1  2  0  0  0  0
  3  4  2  0  0  0  0
  3  2  1  0  0  0  0
  4  5  1  0  0  0  0
  5 25  1  0  0  0  0
  5  6  2  0  0  0  0
  7  2  1  0  0  0  0
  8  3  1  0  0  0  0
  9 13  1  0  0  0  0
 10  9  1  0  0  0  0
 10 11  1  0  0  0  0
 11 16  1  1  0  0  0
 11 12  1  0  0  0  0
 12 18  1  0  0  0  0
 13 20  1  0  0  0  0
 13 19  1  0  0  0  0
 13 12  1  0  0  0  0
 14 10  1  0  0  0  0
 15 10  1  0  0  0  0
 17 12  1  0  0  0  0
 21 11  1  0  0  0  0
 21 22  1  0  0  0  0
 21 24  1  0  0  0  0
 23 21  1  0  0  0  0
 25 26  1  0  0  0  0
 26 27  2  0  0  0  0
 27 28  1  0  0  0  0
 27 31  1  0  0  0  0
 28 32  1  0  0  0  0
 29 28  2  0  0  0  0
 30 26  1  0  0  0  0
 30 29  1  0  0  0  0
 33 34  1  0  0  0  0
 34 35  1  0  0  0  0
 35 29  1  0  0  0  0
 35 36  2  0  0  0  0
 36 37  1  0  0  0  0
 38 36  1  0  0  0  0
 39 38  2  0  0  0  0
 40 39  1  0  0  0  0
 41 34  2  0  0  0  0
 41 39  1  0  0  0  0
 42 41  1  0  0  0  0
M  END
>  <minimizedAffinity>
-6.6595211

>  <minimizedRMSD>
0.706575751

$$$$
