
 OpenBabel03272510303D

 29 31  0  0  0  0  0  0  0  0999 V2000
   37.3510   31.2900   49.0430 C   0  0  0  0  0  0  0  0  0  0  0  0
   37.7390   32.5460   49.5120 C   0  0  0  0  0  0  0  0  0  0  0  0
   38.6800   33.2040   48.7510 C   0  0  0  0  0  0  0  0  0  0  0  0
   39.1730   32.6150   47.6110 N   0  0  0  0  0  0  0  0  0  0  0  0
   38.7620   31.3860   47.1960 C   0  0  0  0  0  0  0  0  0  0  0  0
   37.8280   30.7060   47.9300 N   0  0  0  0  0  0  0  0  0  0  0  0
   37.3060   32.9460   50.4200 H   0  0  0  0  0  0  0  0  0  0  0  0
   39.0270   34.1840   49.0570 H   0  0  0  0  0  0  0  0  0  0  0  0
   36.2980   30.5510   49.8310 C   0  0  0  0  0  0  0  0  0  0  0  0
   36.1890   29.1160   49.8470 C   0  0  0  0  0  0  0  0  0  0  0  0
   36.8810   29.7790   51.0240 C   0  0  0  0  0  0  0  0  0  0  0  0
   35.4000   31.1810   50.0720 H   0  0  0  0  0  0  0  0  0  0  0  0
   35.2130   28.6400   49.9960 H   0  0  0  0  0  0  0  0  0  0  0  0
   36.8560   28.5560   49.1320 H   0  0  0  0  0  0  0  0  0  0  0  0
   36.2780   29.8620   51.9350 H   0  0  0  0  0  0  0  0  0  0  0  0
   37.9740   29.7110   51.1380 H   0  0  0  0  0  0  0  0  0  0  0  0
   39.2660   30.7550   45.9780 C   0  0  0  0  0  0  0  0  0  0  0  0
   39.1600   29.6350   46.0560 H   0  0  0  0  0  0  0  0  0  0  0  0
   40.3290   30.9830   45.7900 H   0  0  0  0  0  0  0  0  0  0  0  0
   39.1190   28.6070   43.8040 Cl  0  0  0  0  0  0  0  0  0  0  0  0
   38.3610   30.1850   43.7870 C   0  0  0  0  0  0  0  0  0  0  0  0
   38.4400   31.1400   44.7790 C   0  0  0  0  0  0  0  0  0  0  0  0
   37.7810   32.3380   44.6090 C   0  0  0  0  0  0  0  0  0  0  0  0
   37.8780   33.0530   45.4210 H   0  0  0  0  0  0  0  0  0  0  0  0
   37.0540   32.5960   43.4800 C   0  0  0  0  0  3  0  0  0  0  0  0
   36.9670   31.6370   42.4670 C   0  0  0  0  0  0  0  0  0  0  0  0
   36.0260   32.0130   41.0410 Cl  0  0  0  0  0  0  0  0  0  0  0  0
   37.6250   30.4280   42.6250 C   0  0  0  0  0  0  0  0  0  0  0  0
   37.5120   29.7360   41.8020 H   0  0  0  0  0  0  0  0  0  0  0  0
  1  2  1  0  0  0  0
  1  9  1  0  0  0  0
  2  7  1  0  0  0  0
  3  8  1  0  0  0  0
  3  2  2  0  0  0  0
  4  3  1  0  0  0  0
  5  4  2  0  0  0  0
  5  6  1  0  0  0  0
  6  1  2  0  0  0  0
  9 10  1  0  0  0  0
  9 12  1  0  0  0  0
  9 11  1  0  0  0  0
 10 13  1  0  0  0  0
 10 11  1  0  0  0  0
 11 16  1  0  0  0  0
 11 15  1  0  0  0  0
 14 10  1  0  0  0  0
 17 18  1  0  0  0  0
 17  5  1  0  0  0  0
 19 17  1  0  0  0  0
 21 20  1  0  0  0  0
 21 22  1  0  0  0  0
 22 17  1  0  0  0  0
 23 22  2  0  0  0  0
 23 24  1  0  0  0  0
 25 23  1  0  0  0  0
 26 28  1  0  0  0  0
 26 25  2  0  0  0  0
 27 26  1  0  0  0  0
 28 21  2  0  0  0  0
 29 28  1  0  0  0  0
M  END
>  <minimizedAffinity>
-5.4744935

>  <minimizedRMSD>
0.307207942

$$$$
