
 OpenBabel03262523173D

 40 43  0  0  0  0  0  0  0  0999 V2000
   36.9810   28.1470   31.5190 C   0  0  0  0  0  0  0  0  0  0  0  0
   37.1580   28.8700   30.3540 C   0  0  0  0  0  0  0  0  0  0  0  0
   36.6180   30.1290   30.4030 C   0  0  0  0  0  0  0  0  0  0  0  0
   35.9600   30.6310   31.5050 C   0  0  0  0  0  0  0  0  0  0  0  0
   35.8350   29.8370   32.6130 C   0  0  0  0  0  0  0  0  0  0  0  0
   36.3490   28.5980   32.6070 N   0  0  0  0  0  0  0  0  0  0  0  0
   37.6760   28.4610   29.5010 H   0  0  0  0  0  0  0  0  0  0  0  0
   36.7270   30.7550   29.5030 H   0  0  0  0  0  0  0  0  0  0  0  0
   35.5870   31.6350   31.4230 H   0  0  0  0  0  0  0  0  0  0  0  0
   32.8990   29.1330   32.8580 Cl  0  0  0  0  0  0  0  0  0  0  0  0
   33.8190   30.0460   34.0100 C   0  0  0  0  0  0  0  0  0  0  0  0
   35.1500   30.3100   33.8010 C   0  0  0  0  0  0  0  0  0  0  0  0
   35.7530   31.0500   34.8100 C   0  0  0  0  0  0  0  0  0  0  0  0
   35.1180   31.4970   35.9330 C   0  0  0  0  0  0  0  0  0  0  0  0
   33.7720   31.2100   36.1080 C   0  0  0  0  0  0  0  0  0  0  0  0
   32.9390   31.7720   37.5330 Cl  0  0  0  0  0  0  0  0  0  0  0  0
   33.1310   30.4810   35.1360 C   0  0  0  0  0  0  0  0  0  0  0  0
   36.8010   31.2940   34.7090 H   0  0  0  0  0  0  0  0  0  0  0  0
   35.6070   32.0680   36.6980 H   0  0  0  0  0  0  0  0  0  0  0  0
   32.0820   30.2670   35.2900 H   0  0  0  0  0  0  0  0  0  0  0  0
   38.4130   24.8970   30.5490 C   0  0  0  0  0  0  0  0  0  0  0  0
   38.5230   24.2390   31.7720 C   0  0  0  0  0  0  0  0  0  0  0  0
   38.1160   24.8940   32.9100 C   0  0  0  0  0  0  0  0  0  0  0  0
   37.6320   26.1480   32.7480 N   0  0  0  0  0  0  0  0  0  0  0  0
   37.5240   26.7820   31.5800 C   0  0  0  0  0  0  0  0  0  0  0  0
   37.9260   26.1280   30.4850 N   0  0  0  0  0  0  0  0  0  0  0  0
   38.9200   23.2820   31.8110 H   0  0  0  0  0  0  0  0  0  0  0  0
   37.9680   21.8410   33.6170 Cl  0  0  0  0  0  0  0  0  0  0  0  0
   38.1100   23.1370   34.7520 C   0  0  0  0  0  0  0  0  0  0  0  0
   38.1580   24.4180   34.2700 C   0  0  0  0  0  0  0  0  0  0  0  0
   38.2380   25.3460   35.2910 C   0  0  0  0  0  0  0  0  0  0  0  0
   38.2860   26.4310   35.1050 H   0  0  0  0  0  0  0  0  0  0  0  0
   38.2690   25.0280   36.6290 C   0  0  0  0  0  3  0  0  0  0  0  0
   38.2190   23.7200   37.0440 C   0  0  0  0  0  0  0  0  0  0  0  0
   38.2600   23.3470   38.7490 Cl  0  0  0  0  0  0  0  0  0  0  0  0
   38.1380   22.7670   36.0710 C   0  0  0  0  0  0  0  0  0  0  0  0
   38.0980   21.7370   36.3900 H   0  0  0  0  0  0  0  0  0  0  0  0
   38.8160   24.2870   29.3030 N   0  0  0  0  0  0  0  0  0  0  0  0
   39.7370   24.7240   29.0530 H   0  0  0  0  0  0  0  0  0  0  0  0
   38.2880   23.5690   28.7850 H   0  0  0  0  0  0  0  0  0  0  0  0
  1 25  1  0  0  0  0
  1  6  1  0  0  0  0
  2  3  1  0  0  0  0
  2  1  2  0  0  0  0
  3  4  2  0  0  0  0
  4  5  1  0  0  0  0
  5 12  1  0  0  0  0
  6  5  2  0  0  0  0
  7  2  1  0  0  0  0
  8  3  1  0  0  0  0
  9  4  1  0  0  0  0
 10 11  1  0  0  0  0
 11 17  1  0  0  0  0
 12 11  2  0  0  0  0
 12 13  1  0  0  0  0
 13 14  2  0  0  0  0
 14 15  1  0  0  0  0
 14 19  1  0  0  0  0
 15 16  1  0  0  0  0
 17 20  1  0  0  0  0
 17 15  2  0  0  0  0
 18 13  1  0  0  0  0
 21 22  1  0  0  0  0
 22 27  1  0  0  0  0
 22 23  2  0  0  0  0
 23 30  1  0  0  0  0
 24 23  1  0  0  0  0
 25 24  2  0  0  0  0
 26 21  2  0  0  0  0
 26 25  1  0  0  0  0
 28 29  1  0  0  0  0
 29 36  1  0  0  0  0
 30 29  2  0  0  0  0
 30 31  1  0  0  0  0
 31 33  2  0  0  0  0
 32 31  1  0  0  0  0
 33 34  1  0  0  0  0
 34 35  1  0  0  0  0
 36 37  1  0  0  0  0
 36 34  2  0  0  0  0
 38 21  1  0  0  0  0
 39 38  1  0  0  0  0
 40 38  1  0  0  0  0
M  END
>  <minimizedAffinity>
-6.98916197

$$$$

 OpenBabel03262523173D

 40 43  0  0  0  0  0  0  0  0999 V2000
   36.4780   25.7200   31.8480 C   0  0  0  0  0  0  0  0  0  0  0  0
   35.7600   24.8930   31.0050 C   0  0  0  0  0  0  0  0  0  0  0  0
   35.9450   23.5580   31.2560 C   0  0  0  0  0  0  0  0  0  0  0  0
   36.7680   23.0800   32.2530 C   0  0  0  0  0  0  0  0  0  0  0  0
   37.4390   23.9780   33.0370 C   0  0  0  0  0  0  0  0  0  0  0  0
   37.2860   25.2940   32.8250 N   0  0  0  0  0  0  0  0  0  0  0  0
   35.1200   25.2850   30.2300 H   0  0  0  0  0  0  0  0  0  0  0  0
   35.3980   22.8490   30.6150 H   0  0  0  0  0  0  0  0  0  0  0  0
   36.8250   22.0130   32.3550 H   0  0  0  0  0  0  0  0  0  0  0  0
   40.3740   23.7030   32.3370 Cl  0  0  0  0  0  0  0  0  0  0  0  0
   39.6690   23.3770   33.8890 C   0  0  0  0  0  0  0  0  0  0  0  0
   38.3220   23.5340   34.0990 C   0  0  0  0  0  0  0  0  0  0  0  0
   37.9060   23.2370   35.3900 C   0  0  0  0  0  0  0  0  0  0  0  0
   38.7280   22.8200   36.3970 C   0  0  0  0  0  0  0  0  0  0  0  0
   40.0840   22.6720   36.1450 C   0  0  0  0  0  0  0  0  0  0  0  0
   41.1550   22.1410   37.4140 Cl  0  0  0  0  0  0  0  0  0  0  0  0
   40.5450   22.9550   34.8820 C   0  0  0  0  0  0  0  0  0  0  0  0
   36.8550   23.3390   35.6250 H   0  0  0  0  0  0  0  0  0  0  0  0
   38.3810   22.5960   37.3870 H   0  0  0  0  0  0  0  0  0  0  0  0
   41.6050   22.8340   34.7040 H   0  0  0  0  0  0  0  0  0  0  0  0
   36.6820   29.1090   30.4260 C   0  0  0  0  0  0  0  0  0  0  0  0
   36.0850   29.8880   31.4160 C   0  0  0  0  0  0  0  0  0  0  0  0
   35.6200   29.2660   32.5490 C   0  0  0  0  0  0  0  0  0  0  0  0
   35.7820   27.9240   32.6150 N   0  0  0  0  0  0  0  0  0  0  0  0
   36.3520   27.1740   31.6730 C   0  0  0  0  0  0  0  0  0  0  0  0
   36.7980   27.7980   30.5770 N   0  0  0  0  0  0  0  0  0  0  0  0
   35.9870   30.9110   31.2800 H   0  0  0  0  0  0  0  0  0  0  0  0
   32.5160   29.0740   32.9660 Cl  0  0  0  0  0  0  0  0  0  0  0  0
   33.6300   29.8750   34.0170 C   0  0  0  0  0  0  0  0  0  0  0  0
   34.9570   29.8660   33.6810 C   0  0  0  0  0  0  0  0  0  0  0  0
   35.7200   30.5700   34.5940 C   0  0  0  0  0  0  0  0  0  0  0  0
   36.8130   30.6780   34.4970 H   0  0  0  0  0  0  0  0  0  0  0  0
   35.2140   31.2020   35.7050 C   0  0  0  0  0  3  0  0  0  0  0  0
   33.8700   31.1700   35.9840 C   0  0  0  0  0  0  0  0  0  0  0  0
   33.2570   31.9820   37.4020 Cl  0  0  0  0  0  0  0  0  0  0  0  0
   33.0750   30.4870   35.1090 C   0  0  0  0  0  0  0  0  0  0  0  0
   32.0170   30.4580   35.3220 H   0  0  0  0  0  0  0  0  0  0  0  0
   37.1990   29.6760   29.2020 N   0  0  0  0  0  0  0  0  0  0  0  0
   36.4940   29.4490   28.4590 H   0  0  0  0  0  0  0  0  0  0  0  0
   38.0840   30.1960   29.1050 H   0  0  0  0  0  0  0  0  0  0  0  0
  1  6  1  0  0  0  0
  2  3  1  0  0  0  0
  2  1  2  0  0  0  0
  3  4  2  0  0  0  0
  4  9  1  0  0  0  0
  4  5  1  0  0  0  0
  5 12  1  0  0  0  0
  6  5  2  0  0  0  0
  7  2  1  0  0  0  0
  8  3  1  0  0  0  0
 10 11  1  0  0  0  0
 11 12  2  0  0  0  0
 11 17  1  0  0  0  0
 12 13  1  0  0  0  0
 13 18  1  0  0  0  0
 13 14  2  0  0  0  0
 14 19  1  0  0  0  0
 15 14  1  0  0  0  0
 15 16  1  0  0  0  0
 17 15  2  0  0  0  0
 20 17  1  0  0  0  0
 21 26  2  0  0  0  0
 21 22  1  0  0  0  0
 22 23  2  0  0  0  0
 23 24  1  0  0  0  0
 23 30  1  0  0  0  0
 25  1  1  0  0  0  0
 25 24  2  0  0  0  0
 26 25  1  0  0  0  0
 27 22  1  0  0  0  0
 28 29  1  0  0  0  0
 29 36  1  0  0  0  0
 30 29  2  0  0  0  0
 30 31  1  0  0  0  0
 31 33  2  0  0  0  0
 32 31  1  0  0  0  0
 33 34  1  0  0  0  0
 34 35  1  0  0  0  0
 36 37  1  0  0  0  0
 36 34  2  0  0  0  0
 38 21  1  0  0  0  0
 39 38  1  0  0  0  0
 40 38  1  0  0  0  0
M  END
>  <minimizedAffinity>
-6.90150642

$$$$

 OpenBabel03262523173D

 40 43  0  0  0  0  0  0  0  0999 V2000
   36.2180   28.4610   31.6740 C   0  0  0  0  0  0  0  0  0  0  0  0
   36.5230   29.3980   30.7050 C   0  0  0  0  0  0  0  0  0  0  0  0
   35.6920   30.4880   30.7150 C   0  0  0  0  0  0  0  0  0  0  0  0
   34.6500   30.6400   31.6030 C   0  0  0  0  0  0  0  0  0  0  0  0
   34.4260   29.6560   32.5280 C   0  0  0  0  0  0  0  0  0  0  0  0
   35.2170   28.5720   32.5520 N   0  0  0  0  0  0  0  0  0  0  0  0
   37.3430   29.2630   30.0170 H   0  0  0  0  0  0  0  0  0  0  0  0
   35.8860   31.2710   29.9640 H   0  0  0  0  0  0  0  0  0  0  0  0
   34.0740   31.5420   31.5150 H   0  0  0  0  0  0  0  0  0  0  0  0
   35.1130   30.8330   35.2330 Cl  0  0  0  0  0  0  0  0  0  0  0  0
   33.5450   30.2770   34.7410 C   0  0  0  0  0  0  0  0  0  0  0  0
   33.3420   29.7590   33.4860 C   0  0  0  0  0  0  0  0  0  0  0  0
   32.0360   29.3580   33.2370 C   0  0  0  0  0  0  0  0  0  0  0  0
   31.0080   29.4520   34.1310 C   0  0  0  0  0  0  0  0  0  0  0  0
   31.2540   29.9810   35.3900 C   0  0  0  0  0  0  0  0  0  0  0  0
   29.9590   30.1110   36.5490 Cl  0  0  0  0  0  0  0  0  0  0  0  0
   32.5320   30.3920   35.6840 C   0  0  0  0  0  0  0  0  0  0  0  0
   31.8060   28.9390   32.2670 H   0  0  0  0  0  0  0  0  0  0  0  0
   30.0080   29.1340   33.9140 H   0  0  0  0  0  0  0  0  0  0  0  0
   32.7040   30.8020   36.6700 H   0  0  0  0  0  0  0  0  0  0  0  0
   38.3700   25.6170   30.7640 C   0  0  0  0  0  0  0  0  0  0  0  0
   38.5810   24.9920   31.9920 C   0  0  0  0  0  0  0  0  0  0  0  0
   37.9990   25.5350   33.1120 C   0  0  0  0  0  0  0  0  0  0  0  0
   37.2540   26.6500   32.9300 N   0  0  0  0  0  0  0  0  0  0  0  0
   37.0490   27.2510   31.7580 C   0  0  0  0  0  0  0  0  0  0  0  0
   37.6240   26.7080   30.6800 N   0  0  0  0  0  0  0  0  0  0  0  0
   39.1780   24.1470   32.0470 H   0  0  0  0  0  0  0  0  0  0  0  0
   38.2020   27.5110   35.5410 Cl  0  0  0  0  0  0  0  0  0  0  0  0
   38.1870   25.7860   35.6400 C   0  0  0  0  0  0  0  0  0  0  0  0
   38.0960   25.0710   34.4750 C   0  0  0  0  0  0  0  0  0  0  0  0
   38.1280   23.7090   34.7060 C   0  0  0  0  0  0  0  0  0  0  0  0
   38.0680   22.9670   33.8940 H   0  0  0  0  0  0  0  0  0  0  0  0
   38.2350   23.1360   35.9520 C   0  0  0  0  0  3  0  0  0  0  0  0
   38.3200   23.9130   37.0810 C   0  0  0  0  0  0  0  0  0  0  0  0
   38.4540   23.1550   38.6480 Cl  0  0  0  0  0  0  0  0  0  0  0  0
   38.2940   25.2650   36.9020 C   0  0  0  0  0  0  0  0  0  0  0  0
   38.3610   25.8820   37.7850 H   0  0  0  0  0  0  0  0  0  0  0  0
   38.9430   25.1180   29.5340 N   0  0  0  0  0  0  0  0  0  0  0  0
   39.7520   25.7500   29.3170 H   0  0  0  0  0  0  0  0  0  0  0  0
   38.6060   24.3040   29.0000 H   0  0  0  0  0  0  0  0  0  0  0  0
  1 25  1  0  0  0  0
  1  6  1  0  0  0  0
  2  3  1  0  0  0  0
  2  1  2  0  0  0  0
  3  4  2  0  0  0  0
  4  5  1  0  0  0  0
  5  6  2  0  0  0  0
  5 12  1  0  0  0  0
  7  2  1  0  0  0  0
  8  3  1  0  0  0  0
  9  4  1  0  0  0  0
 11 10  1  0  0  0  0
 11 17  1  0  0  0  0
 12 11  2  0  0  0  0
 13 12  1  0  0  0  0
 13 14  2  0  0  0  0
 14 15  1  0  0  0  0
 15 17  2  0  0  0  0
 15 16  1  0  0  0  0
 17 20  1  0  0  0  0
 18 13  1  0  0  0  0
 19 14  1  0  0  0  0
 21 22  1  0  0  0  0
 22 27  1  0  0  0  0
 22 23  2  0  0  0  0
 23 30  1  0  0  0  0
 24 23  1  0  0  0  0
 25 24  2  0  0  0  0
 26 21  2  0  0  0  0
 26 25  1  0  0  0  0
 28 29  1  0  0  0  0
 29 36  1  0  0  0  0
 30 31  1  0  0  0  0
 30 29  2  0  0  0  0
 31 33  2  0  0  0  0
 32 31  1  0  0  0  0
 33 34  1  0  0  0  0
 34 35  1  0  0  0  0
 36 34  2  0  0  0  0
 36 37  1  0  0  0  0
 38 21  1  0  0  0  0
 39 38  1  0  0  0  0
 40 38  1  0  0  0  0
M  END
>  <minimizedAffinity>
-6.88096571

$$$$

 OpenBabel03262523173D

 40 43  0  0  0  0  0  0  0  0999 V2000
   37.3390   25.3560   32.8540 C   0  0  0  0  0  0  0  0  0  0  0  0
   37.8370   25.3090   34.1430 C   0  0  0  0  0  0  0  0  0  0  0  0
   38.2210   24.0530   34.5380 C   0  0  0  0  0  0  0  0  0  0  0  0
   38.1240   22.9410   33.7300 C   0  0  0  0  0  0  0  0  0  0  0  0
   37.6180   23.0880   32.4680 C   0  0  0  0  0  0  0  0  0  0  0  0
   37.2290   24.3000   32.0420 N   0  0  0  0  0  0  0  0  0  0  0  0
   37.9060   26.1900   34.7610 H   0  0  0  0  0  0  0  0  0  0  0  0
   38.6270   23.9530   35.5570 H   0  0  0  0  0  0  0  0  0  0  0  0
   38.4650   22.0140   34.1510 H   0  0  0  0  0  0  0  0  0  0  0  0
   34.9800   21.6000   32.5370 Cl  0  0  0  0  0  0  0  0  0  0  0  0
   36.3350   21.2100   31.5260 C   0  0  0  0  0  0  0  0  0  0  0  0
   37.4880   21.9530   31.5740 C   0  0  0  0  0  0  0  0  0  0  0  0
   38.4830   21.5210   30.7070 C   0  0  0  0  0  0  0  0  0  0  0  0
   38.3710   20.4560   29.8610 C   0  0  0  0  0  0  0  0  0  0  0  0
   37.1890   19.7290   29.8420 C   0  0  0  0  0  0  0  0  0  0  0  0
   37.0210   18.3640   28.7720 Cl  0  0  0  0  0  0  0  0  0  0  0  0
   36.1740   20.1180   30.6830 C   0  0  0  0  0  0  0  0  0  0  0  0
   39.4190   22.0620   30.6930 H   0  0  0  0  0  0  0  0  0  0  0  0
   39.1550   20.1420   29.2000 H   0  0  0  0  0  0  0  0  0  0  0  0
   35.2610   19.5390   30.6540 H   0  0  0  0  0  0  0  0  0  0  0  0
   36.6700   28.1650   30.5710 C   0  0  0  0  0  0  0  0  0  0  0  0
   36.0560   29.0940   31.4080 C   0  0  0  0  0  0  0  0  0  0  0  0
   35.8730   28.7670   32.7300 C   0  0  0  0  0  0  0  0  0  0  0  0
   36.3110   27.5470   33.1200 N   0  0  0  0  0  0  0  0  0  0  0  0
   36.9000   26.6540   32.3240 C   0  0  0  0  0  0  0  0  0  0  0  0
   37.0690   26.9910   31.0410 N   0  0  0  0  0  0  0  0  0  0  0  0
   35.7370   30.0030   31.0250 H   0  0  0  0  0  0  0  0  0  0  0  0
   32.7580   29.0720   32.9510 Cl  0  0  0  0  0  0  0  0  0  0  0  0
   33.9220   29.7940   34.0050 C   0  0  0  0  0  0  0  0  0  0  0  0
   35.2490   29.5590   33.7610 C   0  0  0  0  0  0  0  0  0  0  0  0
   36.0600   30.2240   34.6610 C   0  0  0  0  0  0  0  0  0  0  0  0
   37.1600   30.1620   34.6290 H   0  0  0  0  0  0  0  0  0  0  0  0
   35.5960   31.0240   35.6800 C   0  0  0  0  0  3  0  0  0  0  0  0
   34.2500   31.2150   35.8690 C   0  0  0  0  0  0  0  0  0  0  0  0
   33.6920   32.2360   37.1710 Cl  0  0  0  0  0  0  0  0  0  0  0  0
   33.4090   30.5790   35.0030 C   0  0  0  0  0  0  0  0  0  0  0  0
   32.3490   30.7250   35.1460 H   0  0  0  0  0  0  0  0  0  0  0  0
   36.9040   28.4220   29.1690 N   0  0  0  0  0  0  0  0  0  0  0  0
   36.1730   27.8770   28.6500 H   0  0  0  0  0  0  0  0  0  0  0  0
   37.6460   29.0240   28.7820 H   0  0  0  0  0  0  0  0  0  0  0  0
  1  2  1  0  0  0  0
  2  3  2  0  0  0  0
  2  7  1  0  0  0  0
  3  8  1  0  0  0  0
  4  9  1  0  0  0  0
  4  3  1  0  0  0  0
  5  4  2  0  0  0  0
  6  5  1  0  0  0  0
  6  1  2  0  0  0  0
 11 12  1  0  0  0  0
 11 10  1  0  0  0  0
 12  5  1  0  0  0  0
 13 12  2  0  0  0  0
 14 13  1  0  0  0  0
 15 14  2  0  0  0  0
 15 17  1  0  0  0  0
 16 15  1  0  0  0  0
 17 11  2  0  0  0  0
 18 13  1  0  0  0  0
 19 14  1  0  0  0  0
 20 17  1  0  0  0  0
 21 26  2  0  0  0  0
 21 22  1  0  0  0  0
 22 23  2  0  0  0  0
 23 24  1  0  0  0  0
 23 30  1  0  0  0  0
 25  1  1  0  0  0  0
 25 24  2  0  0  0  0
 26 25  1  0  0  0  0
 27 22  1  0  0  0  0
 28 29  1  0  0  0  0
 29 36  1  0  0  0  0
 30 29  2  0  0  0  0
 30 31  1  0  0  0  0
 31 33  2  0  0  0  0
 32 31  1  0  0  0  0
 33 34  1  0  0  0  0
 34 35  1  0  0  0  0
 36 37  1  0  0  0  0
 36 34  2  0  0  0  0
 38 21  1  0  0  0  0
 39 38  1  0  0  0  0
 40 38  1  0  0  0  0
M  END
>  <minimizedAffinity>
-6.84700727

$$$$

 OpenBabel03262523173D

 40 43  0  0  0  0  0  0  0  0999 V2000
   36.9230   27.1580   33.1890 C   0  0  0  0  0  0  0  0  0  0  0  0
   37.1360   27.4180   31.8490 C   0  0  0  0  0  0  0  0  0  0  0  0
   36.7090   28.6610   31.4560 C   0  0  0  0  0  0  0  0  0  0  0  0
   36.1230   29.5670   32.3130 C   0  0  0  0  0  0  0  0  0  0  0  0
   35.9540   29.2170   33.6250 C   0  0  0  0  0  0  0  0  0  0  0  0
   36.3570   28.0100   34.0500 N   0  0  0  0  0  0  0  0  0  0  0  0
   37.5970   26.6970   31.1920 H   0  0  0  0  0  0  0  0  0  0  0  0
   36.8520   28.9270   30.3970 H   0  0  0  0  0  0  0  0  0  0  0  0
   35.8360   30.5110   31.8880 H   0  0  0  0  0  0  0  0  0  0  0  0
   32.9250   29.2640   33.6950 Cl  0  0  0  0  0  0  0  0  0  0  0  0
   33.9750   30.2270   34.6850 C   0  0  0  0  0  0  0  0  0  0  0  0
   35.3390   30.1280   34.5720 C   0  0  0  0  0  0  0  0  0  0  0  0
   36.0470   30.9590   35.4300 C   0  0  0  0  0  0  0  0  0  0  0  0
   35.4790   31.8190   36.3260 C   0  0  0  0  0  0  0  0  0  0  0  0
   34.0960   31.8910   36.4100 C   0  0  0  0  0  0  0  0  0  0  0  0
   33.3470   32.9810   37.5450 Cl  0  0  0  0  0  0  0  0  0  0  0  0
   33.3520   31.0870   35.5810 C   0  0  0  0  0  0  0  0  0  0  0  0
   37.1270   30.9320   35.3940 H   0  0  0  0  0  0  0  0  0  0  0  0
   36.0490   32.4510   36.9780 H   0  0  0  0  0  0  0  0  0  0  0  0
   32.2760   31.1580   35.6610 H   0  0  0  0  0  0  0  0  0  0  0  0
   38.1620   24.5290   35.4490 C   0  0  0  0  0  0  0  0  0  0  0  0
   38.1220   23.3940   34.6420 C   0  0  0  0  0  0  0  0  0  0  0  0
   37.6780   23.5240   33.3480 C   0  0  0  0  0  0  0  0  0  0  0  0
   37.3100   24.7640   32.9540 N   0  0  0  0  0  0  0  0  0  0  0  0
   37.3460   25.8540   33.7210 C   0  0  0  0  0  0  0  0  0  0  0  0
   37.7810   25.7080   34.9770 N   0  0  0  0  0  0  0  0  0  0  0  0
   38.4100   22.4750   35.0270 H   0  0  0  0  0  0  0  0  0  0  0  0
   40.0910   22.5450   31.5980 Cl  0  0  0  0  0  0  0  0  0  0  0  0
   38.4730   21.9450   31.5140 C   0  0  0  0  0  0  0  0  0  0  0  0
   37.5360   22.4900   32.3520 C   0  0  0  0  0  0  0  0  0  0  0  0
   36.2860   21.9370   32.1510 C   0  0  0  0  0  0  0  0  0  0  0  0
   35.4000   22.2450   32.7290 H   0  0  0  0  0  0  0  0  0  0  0  0
   36.0100   20.9580   31.2240 C   0  0  0  0  0  3  0  0  0  0  0  0
   36.9990   20.4540   30.4160 C   0  0  0  0  0  0  0  0  0  0  0  0
   36.6180   19.2120   29.2500 Cl  0  0  0  0  0  0  0  0  0  0  0  0
   38.2510   20.9710   30.5780 C   0  0  0  0  0  0  0  0  0  0  0  0
   39.0330   20.5790   29.9450 H   0  0  0  0  0  0  0  0  0  0  0  0
   38.6140   24.4880   36.8210 N   0  0  0  0  0  0  0  0  0  0  0  0
   37.7470   24.5330   37.4110 H   0  0  0  0  0  0  0  0  0  0  0  0
   39.5950   24.4270   37.1310 H   0  0  0  0  0  0  0  0  0  0  0  0
  1 25  1  0  0  0  0
  1  6  1  0  0  0  0
  2  1  2  0  0  0  0
  3  2  1  0  0  0  0
  3  4  2  0  0  0  0
  4  5  1  0  0  0  0
  5  6  2  0  0  0  0
  5 12  1  0  0  0  0
  7  2  1  0  0  0  0
  8  3  1  0  0  0  0
  9  4  1  0  0  0  0
 10 11  1  0  0  0  0
 11 17  1  0  0  0  0
 12 11  2  0  0  0  0
 12 13  1  0  0  0  0
 13 14  2  0  0  0  0
 14 15  1  0  0  0  0
 14 19  1  0  0  0  0
 15 16  1  0  0  0  0
 17 20  1  0  0  0  0
 17 15  2  0  0  0  0
 18 13  1  0  0  0  0
 21 38  1  0  0  0  0
 22 27  1  0  0  0  0
 22 21  2  0  0  0  0
 23 22  1  0  0  0  0
 24 23  2  0  0  0  0
 24 25  1  0  0  0  0
 25 26  2  0  0  0  0
 26 21  1  0  0  0  0
 29 28  1  0  0  0  0
 29 30  1  0  0  0  0
 30 23  1  0  0  0  0
 31 30  2  0  0  0  0
 31 32  1  0  0  0  0
 33 31  1  0  0  0  0
 34 36  1  0  0  0  0
 34 33  2  0  0  0  0
 35 34  1  0  0  0  0
 36 29  2  0  0  0  0
 37 36  1  0  0  0  0
 38 40  1  0  0  0  0
 38 39  1  0  0  0  0
M  END
>  <minimizedAffinity>
-6.80375433

$$$$

 OpenBabel03262523173D

 40 43  0  0  0  0  0  0  0  0999 V2000
   36.6090   27.2560   31.9680 C   0  0  0  0  0  0  0  0  0  0  0  0
   36.9330   27.8000   30.7390 C   0  0  0  0  0  0  0  0  0  0  0  0
   36.6460   29.1360   30.6380 C   0  0  0  0  0  0  0  0  0  0  0  0
   36.0880   29.8730   31.6600 C   0  0  0  0  0  0  0  0  0  0  0  0
   35.8010   29.2440   32.8410 C   0  0  0  0  0  0  0  0  0  0  0  0
   36.0660   27.9370   32.9820 N   0  0  0  0  0  0  0  0  0  0  0  0
   37.3700   27.2080   29.9500 H   0  0  0  0  0  0  0  0  0  0  0  0
   36.8830   29.6270   29.6800 H   0  0  0  0  0  0  0  0  0  0  0  0
   35.9170   30.9140   31.4610 H   0  0  0  0  0  0  0  0  0  0  0  0
   32.7800   29.1720   33.0520 Cl  0  0  0  0  0  0  0  0  0  0  0  0
   33.8500   29.9980   34.1390 C   0  0  0  0  0  0  0  0  0  0  0  0
   35.2090   29.9670   33.9510 C   0  0  0  0  0  0  0  0  0  0  0  0
   35.9360   30.6730   34.9020 C   0  0  0  0  0  0  0  0  0  0  0  0
   35.3890   31.3540   35.9510 C   0  0  0  0  0  0  0  0  0  0  0  0
   34.0100   31.3630   36.1070 C   0  0  0  0  0  0  0  0  0  0  0  0
   33.2880   32.2270   37.4370 Cl  0  0  0  0  0  0  0  0  0  0  0  0
   33.2490   30.6790   35.1910 C   0  0  0  0  0  0  0  0  0  0  0  0
   37.0130   30.6900   34.8140 H   0  0  0  0  0  0  0  0  0  0  0  0
   35.9730   31.8920   36.6720 H   0  0  0  0  0  0  0  0  0  0  0  0
   32.1760   30.6970   35.3290 H   0  0  0  0  0  0  0  0  0  0  0  0
   36.3930   23.5840   31.8200 C   0  0  0  0  0  0  0  0  0  0  0  0
   37.4360   23.1870   32.6550 C   0  0  0  0  0  0  0  0  0  0  0  0
   38.2010   24.1560   33.2560 C   0  0  0  0  0  0  0  0  0  0  0  0
   37.8740   25.4410   32.9870 N   0  0  0  0  0  0  0  0  0  0  0  0
   36.8770   25.8280   32.1910 C   0  0  0  0  0  0  0  0  0  0  0  0
   36.1450   24.8690   31.6140 N   0  0  0  0  0  0  0  0  0  0  0  0
   37.6280   22.1780   32.7970 H   0  0  0  0  0  0  0  0  0  0  0  0
   37.9130   22.9080   36.1210 Cl  0  0  0  0  0  0  0  0  0  0  0  0
   39.3860   23.4490   35.3970 C   0  0  0  0  0  0  0  0  0  0  0  0
   39.3310   23.9760   34.1340 C   0  0  0  0  0  0  0  0  0  0  0  0
   40.5750   24.3940   33.7000 C   0  0  0  0  0  0  0  0  0  0  0  0
   40.7370   24.8460   32.7080 H   0  0  0  0  0  0  0  0  0  0  0  0
   41.7290   24.2950   34.4410 C   0  0  0  0  0  3  0  0  0  0  0  0
   41.7130   23.7540   35.7030 C   0  0  0  0  0  0  0  0  0  0  0  0
   43.1950   23.6420   36.6190 Cl  0  0  0  0  0  0  0  0  0  0  0  0
   40.5060   23.3280   36.1750 C   0  0  0  0  0  0  0  0  0  0  0  0
   40.4860   22.9020   37.1670 H   0  0  0  0  0  0  0  0  0  0  0  0
   35.5360   22.6350   31.1460 N   0  0  0  0  0  0  0  0  0  0  0  0
   35.8580   22.6180   30.1470 H   0  0  0  0  0  0  0  0  0  0  0  0
   34.7730   22.0970   31.5810 H   0  0  0  0  0  0  0  0  0  0  0  0
  1 25  1  0  0  0  0
  1  6  1  0  0  0  0
  2  1  2  0  0  0  0
  3  2  1  0  0  0  0
  3  4  2  0  0  0  0
  4  5  1  0  0  0  0
  5  6  2  0  0  0  0
  5 12  1  0  0  0  0
  7  2  1  0  0  0  0
  8  3  1  0  0  0  0
  9  4  1  0  0  0  0
 10 11  1  0  0  0  0
 11 17  1  0  0  0  0
 12 11  2  0  0  0  0
 12 13  1  0  0  0  0
 13 14  2  0  0  0  0
 14 15  1  0  0  0  0
 14 19  1  0  0  0  0
 15 16  1  0  0  0  0
 17 20  1  0  0  0  0
 17 15  2  0  0  0  0
 18 13  1  0  0  0  0
 21 22  1  0  0  0  0
 22 27  1  0  0  0  0
 22 23  2  0  0  0  0
 23 30  1  0  0  0  0
 24 23  1  0  0  0  0
 25 24  2  0  0  0  0
 26 21  2  0  0  0  0
 26 25  1  0  0  0  0
 29 28  1  0  0  0  0
 29 36  1  0  0  0  0
 30 29  2  0  0  0  0
 31 30  1  0  0  0  0
 31 33  2  0  0  0  0
 32 31  1  0  0  0  0
 33 34  1  0  0  0  0
 34 36  2  0  0  0  0
 34 35  1  0  0  0  0
 36 37  1  0  0  0  0
 38 40  1  0  0  0  0
 38 21  1  0  0  0  0
 39 38  1  0  0  0  0
M  END
>  <minimizedAffinity>
-6.74707365

$$$$

 OpenBabel03262523173D

 40 43  0  0  0  0  0  0  0  0999 V2000
   37.2770   25.8560   33.2530 C   0  0  0  0  0  0  0  0  0  0  0  0
   37.8840   25.8360   34.4940 C   0  0  0  0  0  0  0  0  0  0  0  0
   38.2820   24.5860   34.8910 C   0  0  0  0  0  0  0  0  0  0  0  0
   38.0960   23.4530   34.1280 C   0  0  0  0  0  0  0  0  0  0  0  0
   37.4830   23.5740   32.9110 C   0  0  0  0  0  0  0  0  0  0  0  0
   37.0780   24.7800   32.4850 N   0  0  0  0  0  0  0  0  0  0  0  0
   38.0220   26.7340   35.0770 H   0  0  0  0  0  0  0  0  0  0  0  0
   38.7730   24.5060   35.8730 H   0  0  0  0  0  0  0  0  0  0  0  0
   38.4570   22.5320   34.5450 H   0  0  0  0  0  0  0  0  0  0  0  0
   39.7440   22.7850   31.0550 Cl  0  0  0  0  0  0  0  0  0  0  0  0
   38.2150   21.9740   31.1890 C   0  0  0  0  0  0  0  0  0  0  0  0
   37.2570   22.4160   32.0660 C   0  0  0  0  0  0  0  0  0  0  0  0
   36.0880   21.6670   32.0620 C   0  0  0  0  0  0  0  0  0  0  0  0
   35.8650   20.5750   31.2730 C   0  0  0  0  0  0  0  0  0  0  0  0
   36.8590   20.1600   30.3990 C   0  0  0  0  0  0  0  0  0  0  0  0
   36.5990   18.7690   29.3800 Cl  0  0  0  0  0  0  0  0  0  0  0  0
   38.0340   20.8700   30.3660 C   0  0  0  0  0  0  0  0  0  0  0  0
   35.2890   21.9600   32.7300 H   0  0  0  0  0  0  0  0  0  0  0  0
   34.9520   20.0130   31.2890 H   0  0  0  0  0  0  0  0  0  0  0  0
   38.7970   20.5300   29.6790 H   0  0  0  0  0  0  0  0  0  0  0  0
   36.5470   28.6520   30.9720 C   0  0  0  0  0  0  0  0  0  0  0  0
   35.9260   29.5740   31.8130 C   0  0  0  0  0  0  0  0  0  0  0  0
   35.7580   29.2450   33.1360 C   0  0  0  0  0  0  0  0  0  0  0  0
   36.2180   28.0330   33.5240 N   0  0  0  0  0  0  0  0  0  0  0  0
   36.8130   27.1480   32.7250 C   0  0  0  0  0  0  0  0  0  0  0  0
   36.9670   27.4860   31.4400 N   0  0  0  0  0  0  0  0  0  0  0  0
   35.5900   30.4770   31.4320 H   0  0  0  0  0  0  0  0  0  0  0  0
   32.6420   29.3790   33.4780 Cl  0  0  0  0  0  0  0  0  0  0  0  0
   33.8040   30.1950   34.4640 C   0  0  0  0  0  0  0  0  0  0  0  0
   35.1310   30.0300   34.1720 C   0  0  0  0  0  0  0  0  0  0  0  0
   35.9370   30.7650   35.0200 C   0  0  0  0  0  0  0  0  0  0  0  0
   37.0370   30.7640   34.9440 H   0  0  0  0  0  0  0  0  0  0  0  0
   35.4690   31.5650   36.0360 C   0  0  0  0  0  3  0  0  0  0  0  0
   34.1220   31.6850   36.2760 C   0  0  0  0  0  0  0  0  0  0  0  0
   33.5590   32.7080   37.5730 Cl  0  0  0  0  0  0  0  0  0  0  0  0
   33.2860   30.9780   35.4620 C   0  0  0  0  0  0  0  0  0  0  0  0
   32.2260   31.0670   35.6450 H   0  0  0  0  0  0  0  0  0  0  0  0
   36.7660   28.9110   29.5670 N   0  0  0  0  0  0  0  0  0  0  0  0
   36.0380   28.3540   29.0550 H   0  0  0  0  0  0  0  0  0  0  0  0
   37.4950   29.5240   29.1740 H   0  0  0  0  0  0  0  0  0  0  0  0
  1  2  1  0  0  0  0
  2  3  2  0  0  0  0
  2  7  1  0  0  0  0
  3  8  1  0  0  0  0
  4  9  1  0  0  0  0
  4  3  1  0  0  0  0
  5  4  2  0  0  0  0
  6  5  1  0  0  0  0
  6  1  2  0  0  0  0
 10 11  1  0  0  0  0
 11 12  1  0  0  0  0
 12  5  1  0  0  0  0
 13 12  2  0  0  0  0
 13 18  1  0  0  0  0
 14 19  1  0  0  0  0
 14 13  1  0  0  0  0
 15 14  2  0  0  0  0
 16 15  1  0  0  0  0
 17 15  1  0  0  0  0
 17 11  2  0  0  0  0
 20 17  1  0  0  0  0
 21 26  2  0  0  0  0
 21 22  1  0  0  0  0
 22 23  2  0  0  0  0
 23 24  1  0  0  0  0
 23 30  1  0  0  0  0
 25  1  1  0  0  0  0
 25 24  2  0  0  0  0
 26 25  1  0  0  0  0
 27 22  1  0  0  0  0
 28 29  1  0  0  0  0
 29 36  1  0  0  0  0
 30 29  2  0  0  0  0
 30 31  1  0  0  0  0
 31 33  2  0  0  0  0
 32 31  1  0  0  0  0
 33 34  1  0  0  0  0
 34 35  1  0  0  0  0
 36 37  1  0  0  0  0
 36 34  2  0  0  0  0
 38 21  1  0  0  0  0
 39 38  1  0  0  0  0
 40 38  1  0  0  0  0
M  END
>  <minimizedAffinity>
-6.72647715

$$$$

 OpenBabel03262523173D

 40 43  0  0  0  0  0  0  0  0999 V2000
   37.2600   27.8960   31.9790 C   0  0  0  0  0  0  0  0  0  0  0  0
   37.2630   28.3870   30.6880 C   0  0  0  0  0  0  0  0  0  0  0  0
   36.5050   29.5180   30.5290 C   0  0  0  0  0  0  0  0  0  0  0  0
   35.8050   30.1130   31.5560 C   0  0  0  0  0  0  0  0  0  0  0  0
   35.8640   29.5510   32.8020 C   0  0  0  0  0  0  0  0  0  0  0  0
   36.5940   28.4430   33.0010 N   0  0  0  0  0  0  0  0  0  0  0  0
   37.8180   27.9080   29.8950 H   0  0  0  0  0  0  0  0  0  0  0  0
   36.4690   29.9580   29.5190 H   0  0  0  0  0  0  0  0  0  0  0  0
   35.2530   31.0000   31.3080 H   0  0  0  0  0  0  0  0  0  0  0  0
   32.8870   29.0040   32.9330 Cl  0  0  0  0  0  0  0  0  0  0  0  0
   33.7940   29.9440   34.0750 C   0  0  0  0  0  0  0  0  0  0  0  0
   35.1450   30.1300   33.9210 C   0  0  0  0  0  0  0  0  0  0  0  0
   35.7330   30.9030   34.9140 C   0  0  0  0  0  0  0  0  0  0  0  0
   35.0660   31.4510   35.9720 C   0  0  0  0  0  0  0  0  0  0  0  0
   33.7000   31.2400   36.0920 C   0  0  0  0  0  0  0  0  0  0  0  0
   32.8260   31.9300   37.4330 Cl  0  0  0  0  0  0  0  0  0  0  0  0
   33.0730   30.4820   35.1340 C   0  0  0  0  0  0  0  0  0  0  0  0
   36.7960   31.0900   34.8540 H   0  0  0  0  0  0  0  0  0  0  0  0
   35.5440   32.0460   36.7260 H   0  0  0  0  0  0  0  0  0  0  0  0
   32.0080   30.3280   35.2450 H   0  0  0  0  0  0  0  0  0  0  0  0
   40.0560   25.6380   32.7780 C   0  0  0  0  0  0  0  0  0  0  0  0
   39.4410   24.3880   32.7900 C   0  0  0  0  0  0  0  0  0  0  0  0
   38.0930   24.3170   32.5300 C   0  0  0  0  0  0  0  0  0  0  0  0
   37.4610   25.4870   32.2790 N   0  0  0  0  0  0  0  0  0  0  0  0
   38.0440   26.6860   32.2660 C   0  0  0  0  0  0  0  0  0  0  0  0
   39.3560   26.7340   32.5210 N   0  0  0  0  0  0  0  0  0  0  0  0
   39.9970   23.5400   33.0060 H   0  0  0  0  0  0  0  0  0  0  0  0
   38.0180   22.2730   34.9100 Cl  0  0  0  0  0  0  0  0  0  0  0  0
   37.0970   22.1620   33.4520 C   0  0  0  0  0  0  0  0  0  0  0  0
   37.2550   23.1440   32.5100 C   0  0  0  0  0  0  0  0  0  0  0  0
   36.4830   22.9060   31.3880 C   0  0  0  0  0  0  0  0  0  0  0  0
   36.4730   23.5830   30.5190 H   0  0  0  0  0  0  0  0  0  0  0  0
   35.6540   21.8190   31.2330 C   0  0  0  0  0  3  0  0  0  0  0  0
   35.5420   20.8710   32.2200 C   0  0  0  0  0  0  0  0  0  0  0  0
   34.4810   19.5030   31.9940 Cl  0  0  0  0  0  0  0  0  0  0  0  0
   36.2870   21.0630   33.3470 C   0  0  0  0  0  0  0  0  0  0  0  0
   36.2030   20.3210   34.1270 H   0  0  0  0  0  0  0  0  0  0  0  0
   41.4670   25.8090   33.0390 N   0  0  0  0  0  0  0  0  0  0  0  0
   41.5360   26.1780   34.0190 H   0  0  0  0  0  0  0  0  0  0  0  0
   42.2310   25.6020   32.3800 H   0  0  0  0  0  0  0  0  0  0  0  0
  1 25  1  0  0  0  0
  1  6  1  0  0  0  0
  2  1  2  0  0  0  0
  3  2  1  0  0  0  0
  3  4  2  0  0  0  0
  4  5  1  0  0  0  0
  5  6  2  0  0  0  0
  5 12  1  0  0  0  0
  7  2  1  0  0  0  0
  8  3  1  0  0  0  0
  9  4  1  0  0  0  0
 10 11  1  0  0  0  0
 11 17  1  0  0  0  0
 12 11  2  0  0  0  0
 12 13  1  0  0  0  0
 13 14  2  0  0  0  0
 14 15  1  0  0  0  0
 14 19  1  0  0  0  0
 15 16  1  0  0  0  0
 17 20  1  0  0  0  0
 17 15  2  0  0  0  0
 18 13  1  0  0  0  0
 21 22  1  0  0  0  0
 21 38  1  0  0  0  0
 22 27  1  0  0  0  0
 23 22  2  0  0  0  0
 24 23  1  0  0  0  0
 25 24  2  0  0  0  0
 25 26  1  0  0  0  0
 26 21  2  0  0  0  0
 29 28  1  0  0  0  0
 30 23  1  0  0  0  0
 30 29  2  0  0  0  0
 31 30  1  0  0  0  0
 32 31  1  0  0  0  0
 33 31  2  0  0  0  0
 33 34  1  0  0  0  0
 34 36  2  0  0  0  0
 35 34  1  0  0  0  0
 36 29  1  0  0  0  0
 36 37  1  0  0  0  0
 38 39  1  0  0  0  0
 40 38  1  0  0  0  0
M  END
>  <minimizedAffinity>
-6.71557283

$$$$

 OpenBabel03262523173D

 40 43  0  0  0  0  0  0  0  0999 V2000
   37.6860   25.8580   34.3100 C   0  0  0  0  0  0  0  0  0  0  0  0
   37.8050   25.9730   35.6820 C   0  0  0  0  0  0  0  0  0  0  0  0
   38.4520   24.9160   36.2670 C   0  0  0  0  0  0  0  0  0  0  0  0
   38.9380   23.8380   35.5600 C   0  0  0  0  0  0  0  0  0  0  0  0
   38.7710   23.8140   34.2020 C   0  0  0  0  0  0  0  0  0  0  0  0
   38.1440   24.8300   33.5890 N   0  0  0  0  0  0  0  0  0  0  0  0
   37.4180   26.8250   36.2200 H   0  0  0  0  0  0  0  0  0  0  0  0
   38.5780   24.9500   37.3610 H   0  0  0  0  0  0  0  0  0  0  0  0
   39.4320   23.0750   36.1310 H   0  0  0  0  0  0  0  0  0  0  0  0
   36.8540   21.5100   33.7650 Cl  0  0  0  0  0  0  0  0  0  0  0  0
   38.4710   21.6110   33.1460 C   0  0  0  0  0  0  0  0  0  0  0  0
   39.2590   22.7040   33.4050 C   0  0  0  0  0  0  0  0  0  0  0  0
   40.5270   22.6420   32.8420 C   0  0  0  0  0  0  0  0  0  0  0  0
   40.9960   21.6040   32.0890 C   0  0  0  0  0  0  0  0  0  0  0  0
   40.1690   20.5160   31.8510 C   0  0  0  0  0  0  0  0  0  0  0  0
   40.7440   19.1770   30.8940 Cl  0  0  0  0  0  0  0  0  0  0  0  0
   38.9040   20.5310   32.3870 C   0  0  0  0  0  0  0  0  0  0  0  0
   41.2010   23.4720   33.0070 H   0  0  0  0  0  0  0  0  0  0  0  0
   41.9810   21.5810   31.6660 H   0  0  0  0  0  0  0  0  0  0  0  0
   38.2740   19.6740   32.1900 H   0  0  0  0  0  0  0  0  0  0  0  0
   36.3500   27.9440   31.5860 C   0  0  0  0  0  0  0  0  0  0  0  0
   35.7400   28.9890   32.2780 C   0  0  0  0  0  0  0  0  0  0  0  0
   35.7830   28.9810   33.6510 C   0  0  0  0  0  0  0  0  0  0  0  0
   36.4260   27.9410   34.2320 N   0  0  0  0  0  0  0  0  0  0  0  0
   37.0120   26.9390   33.5760 C   0  0  0  0  0  0  0  0  0  0  0  0
   36.9590   26.9650   32.2400 N   0  0  0  0  0  0  0  0  0  0  0  0
   35.2550   29.7410   31.7550 H   0  0  0  0  0  0  0  0  0  0  0  0
   32.6820   29.3000   34.0050 Cl  0  0  0  0  0  0  0  0  0  0  0  0
   33.8940   30.2060   34.8410 C   0  0  0  0  0  0  0  0  0  0  0  0
   35.2080   29.9400   34.5610 C   0  0  0  0  0  0  0  0  0  0  0  0
   36.0590   30.7600   35.2780 C   0  0  0  0  0  0  0  0  0  0  0  0
   37.1560   30.7000   35.1900 H   0  0  0  0  0  0  0  0  0  0  0  0
   35.6430   31.7260   36.1650 C   0  0  0  0  0  3  0  0  0  0  0  0
   34.3070   31.9390   36.3990 C   0  0  0  0  0  0  0  0  0  0  0  0
   33.8090   33.1710   37.5310 Cl  0  0  0  0  0  0  0  0  0  0  0  0
   33.4280   31.1530   35.7130 C   0  0  0  0  0  0  0  0  0  0  0  0
   32.3760   31.3150   35.8930 H   0  0  0  0  0  0  0  0  0  0  0  0
   36.3550   27.8690   30.1430 N   0  0  0  0  0  0  0  0  0  0  0  0
   35.6360   27.1470   29.8900 H   0  0  0  0  0  0  0  0  0  0  0  0
   36.9510   28.4250   29.5130 H   0  0  0  0  0  0  0  0  0  0  0  0
  1  2  1  0  0  0  0
  2  7  1  0  0  0  0
  2  3  2  0  0  0  0
  3  8  1  0  0  0  0
  4  9  1  0  0  0  0
  4  3  1  0  0  0  0
  5  4  2  0  0  0  0
  6  5  1  0  0  0  0
  6  1  2  0  0  0  0
 11 12  1  0  0  0  0
 11 10  1  0  0  0  0
 12  5  1  0  0  0  0
 13 18  1  0  0  0  0
 13 12  2  0  0  0  0
 14 13  1  0  0  0  0
 15 14  2  0  0  0  0
 15 17  1  0  0  0  0
 16 15  1  0  0  0  0
 17 11  2  0  0  0  0
 19 14  1  0  0  0  0
 20 17  1  0  0  0  0
 21 26  2  0  0  0  0
 21 22  1  0  0  0  0
 22 23  2  0  0  0  0
 23 24  1  0  0  0  0
 23 30  1  0  0  0  0
 25 24  2  0  0  0  0
 25  1  1  0  0  0  0
 26 25  1  0  0  0  0
 27 22  1  0  0  0  0
 28 29  1  0  0  0  0
 29 36  1  0  0  0  0
 30 29  2  0  0  0  0
 30 31  1  0  0  0  0
 31 33  2  0  0  0  0
 32 31  1  0  0  0  0
 33 34  1  0  0  0  0
 34 35  1  0  0  0  0
 36 37  1  0  0  0  0
 36 34  2  0  0  0  0
 38 21  1  0  0  0  0
 39 38  1  0  0  0  0
 40 38  1  0  0  0  0
M  END
>  <minimizedAffinity>
-6.6008482

$$$$
