
 OpenBabel03272504503D

 43 46  0  0  1  0  0  0  0  0999 V2000
   36.2420   30.1680   48.4100 N   0  0  0  0  0  0  0  0  0  0  0  0
   36.9390   29.6870   49.5950 C   0  0  0  0  0  0  0  0  0  0  0  0
   38.1740   30.4480   49.9240 C   0  0  0  0  0  0  0  0  0  0  0  0
   38.0040   31.9310   49.5950 C   0  0  0  0  0  0  0  0  0  0  0  0
   37.8680   31.9910   48.1040 C   0  0  0  0  0  0  0  0  0  0  0  0
   36.7230   31.1980   47.5520 C   0  0  1  0  0  0  0  0  0  0  0  0
   36.2270   29.7840   50.4480 H   0  0  0  0  0  0  0  0  0  0  0  0
   37.2370   28.6190   49.4390 H   0  0  0  0  0  0  0  0  0  0  0  0
   39.0240   30.0500   49.3460 H   0  0  0  0  0  0  0  0  0  0  0  0
   38.3760   30.3130   51.0230 H   0  0  0  0  0  0  0  0  0  0  0  0
   38.9300   32.4510   49.8730 H   0  0  0  0  0  0  0  0  0  0  0  0
   37.1090   32.3100   50.1180 H   0  0  0  0  0  0  0  0  0  0  0  0
   37.7660   33.0560   47.8110 H   0  0  0  0  0  0  0  0  0  0  0  0
   38.8570   31.6540   47.6800 H   0  0  0  0  0  0  0  0  0  0  0  0
   35.8760   31.9070   47.3730 H   0  0  0  0  0  0  0  0  0  0  0  0
   39.6590   31.2180   47.0110 Cl  0  0  0  0  0  0  0  0  0  0  0  0
   38.5140   30.6330   45.8370 C   0  0  0  0  0  0  0  0  0  0  0  0
   37.1900   30.6830   46.2210 C   0  0  0  0  0  0  0  0  0  0  0  0
   36.2410   30.2210   45.3000 C   0  0  0  0  0  0  0  0  0  0  0  0
   35.1800   30.2330   45.5440 H   0  0  0  0  0  0  0  0  0  0  0  0
   36.6290   29.7370   44.0630 C   0  0  0  0  0  0  0  0  0  0  0  0
   37.9680   29.7020   43.7090 C   0  0  0  0  0  0  0  0  0  0  0  0
   38.5740   29.1100   42.1680 Cl  0  0  0  0  0  0  0  0  0  0  0  0
   38.9110   30.1560   44.6130 C   0  0  0  0  0  0  0  0  0  0  0  0
   39.9580   30.1490   44.3870 H   0  0  0  0  0  0  0  0  0  0  0  0
   34.7170   28.2500   48.5710 C   0  0  0  0  0  0  0  0  0  0  0  0
   35.0030   29.5470   48.1180 C   0  0  0  0  0  0  0  0  0  0  0  0
   34.0210   30.1870   47.3760 C   0  0  0  0  0  0  0  0  0  0  0  0
   32.8440   29.5310   47.1300 N   0  0  0  0  0  0  0  0  0  0  0  0
   32.6040   28.3010   47.5720 C   0  0  0  0  0  0  0  0  0  0  0  0
   33.5500   27.6570   48.3000 N   0  0  0  0  0  0  0  0  0  0  0  0
   35.4480   27.6940   49.1580 H   0  0  0  0  0  0  0  0  0  0  0  0
   34.1600   31.1680   46.9990 H   0  0  0  0  0  0  0  0  0  0  0  0
   31.3550   27.6250   47.3010 C   0  0  0  0  0  0  0  0  0  0  0  0
   31.3280   26.3730   46.7620 C   0  0  0  0  0  0  0  0  0  0  0  0
   30.1560   25.6980   46.4890 C   0  0  0  0  0  0  0  0  0  0  0  0
   29.0030   26.3780   46.8020 C   0  0  0  0  0  0  0  0  0  0  0  0
   28.9740   27.6610   47.3570 C   0  0  0  0  0  0  0  0  0  0  0  0
   30.1880   28.2540   47.5920 N   0  0  0  0  0  0  0  0  0  0  0  0
   32.2740   25.8880   46.5360 H   0  0  0  0  0  0  0  0  0  0  0  0
   30.1130   24.7060   46.0620 H   0  0  0  0  0  0  0  0  0  0  0  0
   28.0190   25.9570   46.6360 H   0  0  0  0  0  0  0  0  0  0  0  0
   28.0540   28.1630   47.5880 H   0  0  0  0  0  0  0  0  0  0  0  0
  1  2  1  0  0  0  0
  2  3  1  0  0  0  0
  2  7  1  0  0  0  0
  3 10  1  0  0  0  0
  4 11  1  0  0  0  0
  4  3  1  0  0  0  0
  4 12  1  0  0  0  0
  5  4  1  0  0  0  0
  6 15  1  6  0  0  0
  6  5  1  0  0  0  0
  6  1  1  0  0  0  0
  8  2  1  0  0  0  0
  9  3  1  0  0  0  0
 13  5  1  0  0  0  0
 14  5  1  0  0  0  0
 17 18  1  0  0  0  0
 17 16  1  0  0  0  0
 18  6  1  0  0  0  0
 19 20  1  0  0  0  0
 19 18  2  0  0  0  0
 21 19  1  0  0  0  0
 22 21  2  0  0  0  0
 22 24  1  0  0  0  0
 23 22  1  0  0  0  0
 24 17  2  0  0  0  0
 25 24  1  0  0  0  0
 26 32  1  0  0  0  0
 27  1  1  0  0  0  0
 27 26  2  0  0  0  0
 28 27  1  0  0  0  0
 29 28  2  0  0  0  0
 29 30  1  0  0  0  0
 30 31  2  0  0  0  0
 31 26  1  0  0  0  0
 33 28  1  0  0  0  0
 34 30  1  0  0  0  0
 34 39  1  0  0  0  0
 35 34  2  0  0  0  0
 36 35  1  0  0  0  0
 36 37  2  0  0  0  0
 37 38  1  0  0  0  0
 38 43  1  0  0  0  0
 38 39  2  0  0  0  0
 40 35  1  0  0  0  0
 41 36  1  0  0  0  0
 42 37  1  0  0  0  0
M  END
>  <minimizedAffinity>
-5.74375677

>  <minimizedRMSD>
1.72653008

$$$$
