
 OpenBabel03262522163D

 46 49  0  0  1  0  0  0  0  0999 V2000
   39.5090   32.9120   43.7960 C   0  0  0  0  0  0  0  0  0  0  0  0
   39.5190   33.8030   43.1160 H   0  0  0  0  0  0  0  0  0  0  0  0
   38.4680   32.6950   44.0540 H   0  0  0  0  0  0  0  0  0  0  0  0
   39.0200   29.7510   42.2700 C   0  0  1  0  0  0  0  0  0  0  0  0
   38.9980   31.2510   42.0110 C   0  0  0  0  0  0  0  0  0  0  0  0
   40.0220   31.7190   43.0200 C   0  0  2  0  0  0  0  0  0  0  0  0
   40.3550   30.6760   43.8270 O   0  0  0  0  0  0  0  0  0  0  0  0
   39.3400   29.7310   43.7560 C   0  0  0  0  0  0  0  0  0  0  0  0
   39.8260   29.2880   41.6760 H   0  0  0  0  0  0  0  0  0  0  0  0
   39.3760   31.4690   40.9850 H   0  0  0  0  0  0  0  0  0  0  0  0
   38.0110   31.6900   42.2300 H   0  0  0  0  0  0  0  0  0  0  0  0
   40.9470   32.0560   42.4930 H   0  0  0  0  0  0  0  0  0  0  0  0
   38.4150   30.0960   44.2610 H   0  0  0  0  0  0  0  0  0  0  0  0
   39.6650   28.7430   44.0990 H   0  0  0  0  0  0  0  0  0  0  0  0
   37.7900   29.1810   42.0090 O   0  0  0  0  0  0  0  0  0  0  0  0
   37.8810   28.4510   39.1840 Cl  0  0  0  0  0  0  0  0  0  0  0  0
   37.4700   27.3840   40.5070 C   0  0  0  0  0  0  0  0  0  0  0  0
   37.4710   27.8770   41.7930 C   0  0  0  0  0  0  0  0  0  0  0  0
   37.1370   26.9740   42.7690 C   0  0  0  0  0  0  0  0  0  0  0  0
   37.1170   27.2900   43.7970 H   0  0  0  0  0  0  0  0  0  0  0  0
   36.8240   25.6750   42.5060 C   0  0  0  0  0  3  0  0  0  0  0  0
   36.8370   25.2240   41.2010 C   0  0  0  0  0  0  0  0  0  0  0  0
   36.4400   23.5620   40.8260 Cl  0  0  0  0  0  0  0  0  0  0  0  0
   37.1660   26.0930   40.1840 C   0  0  0  0  0  0  0  0  0  0  0  0
   37.1770   25.7440   39.1510 H   0  0  0  0  0  0  0  0  0  0  0  0
   40.6020   33.1560   45.2170 S   0  0  0  0  0  0  0  0  0  0  0  0
   37.7760   31.7730   47.6550 C   0  0  0  0  0  0  0  0  0  0  0  0
   37.9530   32.5270   48.8240 C   0  0  0  0  0  0  0  0  0  0  0  0
   38.9380   33.4890   48.9230 C   0  0  0  0  0  0  0  0  0  0  0  0
   39.7310   33.6600   47.8090 C   0  0  0  0  0  0  0  0  0  0  0  0
   39.5450   32.9210   46.6860 C   0  0  0  0  0  0  0  0  0  0  0  0
   38.5810   31.9760   46.5830 N   0  0  0  0  0  0  0  0  0  0  0  0
   37.3180   32.3780   49.6890 H   0  0  0  0  0  0  0  0  0  0  0  0
   39.0640   34.0650   49.8330 H   0  0  0  0  0  0  0  0  0  0  0  0
   40.5260   34.3960   47.8150 H   0  0  0  0  0  0  0  0  0  0  0  0
   36.7310   30.7980   47.6370 C   0  0  0  0  0  0  0  0  0  0  0  0
   36.2630   30.3790   46.5800 O   0  0  0  0  0  0  0  0  0  0  0  0
   37.0320   29.6270   49.7890 C   0  0  0  0  0  0  0  0  0  0  0  0
   36.1530   30.2400   48.8670 C   0  0  0  0  0  0  0  0  0  0  0  0
   34.7850   30.2920   49.1590 C   0  0  0  0  0  0  0  0  0  0  0  0
   34.3540   29.7400   50.3360 N   0  0  0  0  0  0  0  0  0  0  0  0
   35.2110   29.1620   51.1960 C   0  0  0  0  0  0  0  0  0  0  0  0
   36.5120   29.1090   50.9260 N   0  0  0  0  0  0  0  0  0  0  0  0
   38.0840   29.6040   49.5320 H   0  0  0  0  0  0  0  0  0  0  0  0
   34.1340   30.7560   48.4590 H   0  0  0  0  0  0  0  0  0  0  0  0
   34.9030   28.7180   52.1340 H   0  0  0  0  0  0  0  0  0  0  0  0
  1  3  1  0  0  0  0
  1 26  1  0  0  0  0
  2  1  1  0  0  0  0
  4  9  1  6  0  0  0
  4  8  1  0  0  0  0
  5 11  1  0  0  0  0
  5  4  1  0  0  0  0
  5  6  1  0  0  0  0
  6 12  1  6  0  0  0
  6  1  1  0  0  0  0
  6  7  1  0  0  0  0
  8  7  1  0  0  0  0
  8 14  1  0  0  0  0
  8 13  1  0  0  0  0
 10  5  1  0  0  0  0
 15  4  1  0  0  0  0
 16 17  1  0  0  0  0
 17 18  1  0  0  0  0
 18 15  1  0  0  0  0
 18 19  2  0  0  0  0
 19 20  1  0  0  0  0
 21 19  1  0  0  0  0
 22 21  2  0  0  0  0
 23 22  1  0  0  0  0
 24 17  2  0  0  0  0
 24 22  1  0  0  0  0
 25 24  1  0  0  0  0
 26 31  1  0  0  0  0
 27 28  1  0  0  0  0
 28 29  2  0  0  0  0
 28 33  1  0  0  0  0
 29 34  1  0  0  0  0
 30 35  1  0  0  0  0
 30 29  1  0  0  0  0
 31 30  2  0  0  0  0
 32 31  1  0  0  0  0
 32 27  2  0  0  0  0
 36 27  1  0  0  0  0
 36 39  1  0  0  0  0
 37 36  2  0  0  0  0
 38 43  1  0  0  0  0
 39 40  1  0  0  0  0
 39 38  2  0  0  0  0
 40 41  2  0  0  0  0
 41 42  1  0  0  0  0
 42 46  1  0  0  0  0
 43 42  2  0  0  0  0
 44 38  1  0  0  0  0
 45 40  1  0  0  0  0
M  END
>  <minimizedAffinity>
-5.24845457

>  <minimizedRMSD>
0.91323781

$$$$
