
 OpenBabel03262522153D

 46 49  0  0  1  0  0  0  0  0999 V2000
   39.4000   33.0880   43.9440 C   0  0  0  0  0  0  0  0  0  0  0  0
   39.3690   33.9500   43.2280 H   0  0  0  0  0  0  0  0  0  0  0  0
   38.3700   32.8330   44.2120 H   0  0  0  0  0  0  0  0  0  0  0  0
   39.1840   29.7220   42.8560 C   0  0  1  0  0  0  0  0  0  0  0  0
   38.8860   31.1590   42.4530 C   0  0  0  0  0  0  0  0  0  0  0  0
   39.9680   31.8890   43.2160 C   0  0  2  0  0  0  0  0  0  0  0  0
   40.5830   31.0120   44.0560 O   0  0  0  0  0  0  0  0  0  0  0  0
   39.7310   29.9350   44.2590 C   0  0  0  0  0  0  0  0  0  0  0  0
   39.9510   29.3040   42.1820 H   0  0  0  0  0  0  0  0  0  0  0  0
   39.0610   31.2960   41.3600 H   0  0  0  0  0  0  0  0  0  0  0  0
   37.8890   31.4810   42.7930 H   0  0  0  0  0  0  0  0  0  0  0  0
   40.7350   32.2810   42.5070 H   0  0  0  0  0  0  0  0  0  0  0  0
   38.8490   30.2290   44.8750 H   0  0  0  0  0  0  0  0  0  0  0  0
   40.2570   29.0520   44.6390 H   0  0  0  0  0  0  0  0  0  0  0  0
   38.0350   28.9580   42.8700 O   0  0  0  0  0  0  0  0  0  0  0  0
   39.0900   26.2650   43.2610 Cl  0  0  0  0  0  0  0  0  0  0  0  0
   37.9840   26.7610   42.0000 C   0  0  0  0  0  0  0  0  0  0  0  0
   37.5720   28.0740   41.9450 C   0  0  0  0  0  0  0  0  0  0  0  0
   36.7060   28.3790   40.9270 C   0  0  0  0  0  0  0  0  0  0  0  0
   36.3450   29.3850   40.8230 H   0  0  0  0  0  0  0  0  0  0  0  0
   36.2700   27.4580   40.0210 C   0  0  0  0  0  3  0  0  0  0  0  0
   36.7080   26.1530   40.1160 C   0  0  0  0  0  0  0  0  0  0  0  0
   36.1680   24.9450   38.9710 Cl  0  0  0  0  0  0  0  0  0  0  0  0
   37.5800   25.7960   41.1210 C   0  0  0  0  0  0  0  0  0  0  0  0
   37.9290   24.7670   41.2010 H   0  0  0  0  0  0  0  0  0  0  0  0
   40.4800   33.4390   45.3520 S   0  0  0  0  0  0  0  0  0  0  0  0
   37.7630   31.8450   47.7850 C   0  0  0  0  0  0  0  0  0  0  0  0
   37.9500   32.5430   48.9880 C   0  0  0  0  0  0  0  0  0  0  0  0
   38.9080   33.5270   49.1120 C   0  0  0  0  0  0  0  0  0  0  0  0
   39.6660   33.7810   47.9890 C   0  0  0  0  0  0  0  0  0  0  0  0
   39.4710   33.0950   46.8330 C   0  0  0  0  0  0  0  0  0  0  0  0
   38.5320   32.1280   46.7050 N   0  0  0  0  0  0  0  0  0  0  0  0
   37.3440   32.3280   49.8600 H   0  0  0  0  0  0  0  0  0  0  0  0
   39.0420   34.0590   50.0480 H   0  0  0  0  0  0  0  0  0  0  0  0
   40.4380   34.5400   48.0130 H   0  0  0  0  0  0  0  0  0  0  0  0
   36.7480   30.8390   47.7440 C   0  0  0  0  0  0  0  0  0  0  0  0
   36.3200   30.4060   46.6760 O   0  0  0  0  0  0  0  0  0  0  0  0
   37.0220   29.6380   49.8820 C   0  0  0  0  0  0  0  0  0  0  0  0
   36.1550   30.2680   48.9600 C   0  0  0  0  0  0  0  0  0  0  0  0
   34.7840   30.3200   49.2370 C   0  0  0  0  0  0  0  0  0  0  0  0
   34.3390   29.7540   50.4030 N   0  0  0  0  0  0  0  0  0  0  0  0
   35.1850   29.1610   51.2630 C   0  0  0  0  0  0  0  0  0  0  0  0
   36.4890   29.1060   51.0060 N   0  0  0  0  0  0  0  0  0  0  0  0
   38.0770   29.6150   49.6350 H   0  0  0  0  0  0  0  0  0  0  0  0
   34.1430   30.7970   48.5370 H   0  0  0  0  0  0  0  0  0  0  0  0
   34.8650   28.7050   52.1920 H   0  0  0  0  0  0  0  0  0  0  0  0
  1  3  1  0  0  0  0
  1 26  1  0  0  0  0
  2  1  1  0  0  0  0
  4  9  1  6  0  0  0
  4 15  1  0  0  0  0
  4  8  1  0  0  0  0
  5 11  1  0  0  0  0
  5  4  1  0  0  0  0
  5  6  1  0  0  0  0
  6 12  1  6  0  0  0
  6  1  1  0  0  0  0
  6  7  1  0  0  0  0
  7  8  1  0  0  0  0
  8 14  1  0  0  0  0
  8 13  1  0  0  0  0
 10  5  1  0  0  0  0
 17 16  1  0  0  0  0
 18 17  1  0  0  0  0
 18 15  1  0  0  0  0
 19 18  2  0  0  0  0
 20 19  1  0  0  0  0
 21 22  2  0  0  0  0
 21 19  1  0  0  0  0
 22 24  1  0  0  0  0
 23 22  1  0  0  0  0
 24 25  1  0  0  0  0
 24 17  2  0  0  0  0
 26 31  1  0  0  0  0
 27 28  1  0  0  0  0
 28 29  2  0  0  0  0
 28 33  1  0  0  0  0
 29 34  1  0  0  0  0
 30 35  1  0  0  0  0
 30 29  1  0  0  0  0
 31 30  2  0  0  0  0
 32 31  1  0  0  0  0
 32 27  2  0  0  0  0
 36 27  1  0  0  0  0
 36 39  1  0  0  0  0
 37 36  2  0  0  0  0
 38 43  1  0  0  0  0
 39 40  1  0  0  0  0
 39 38  2  0  0  0  0
 40 41  2  0  0  0  0
 41 42  1  0  0  0  0
 42 46  1  0  0  0  0
 43 42  2  0  0  0  0
 44 38  1  0  0  0  0
 45 40  1  0  0  0  0
M  END
>  <minimizedAffinity>
-5.28757858

>  <minimizedRMSD>
0.532524705

$$$$
