
 OpenBabel03272510273D

 46 50  0  0  1  0  0  0  0  0999 V2000
   39.5330   33.5070   43.2320 O   0  0  0  0  0  0  0  0  0  0  0  0
   36.2570   30.2300   46.8750 C   0  0  0  0  0  0  0  0  0  0  0  0
   37.1100   30.7600   47.8280 C   0  0  0  0  0  0  0  0  0  0  0  0
   38.1230   31.6500   47.4520 C   0  0  0  0  0  0  0  0  0  0  0  0
   38.2000   31.9470   46.0960 C   0  0  0  0  0  0  0  0  0  0  0  0
   39.1080   32.7840   45.4830 N   0  0  0  0  0  0  0  0  0  0  0  0
   38.8140   32.7670   44.1760 C   0  0  0  0  0  0  0  0  0  0  0  0
   37.7880   31.9750   43.9680 N   0  0  0  0  0  0  0  0  0  0  0  0
   37.3740   31.4430   45.1300 C   0  0  0  0  0  0  0  0  0  0  0  0
   36.3740   30.5600   45.5310 C   0  0  0  0  0  0  0  0  0  0  0  0
   35.4510   29.5350   47.1060 H   0  0  0  0  0  0  0  0  0  0  0  0
   38.7960   32.0710   48.1860 H   0  0  0  0  0  0  0  0  0  0  0  0
   39.8690   33.3150   45.9750 H   0  0  0  0  0  0  0  0  0  0  0  0
   35.7160   30.1560   44.7710 H   0  0  0  0  0  0  0  0  0  0  0  0
   37.5080   30.1650   51.5080 C   0  0  0  0  0  0  0  0  0  0  0  0
   37.8240   30.6070   50.2310 C   0  0  0  0  0  0  0  0  0  0  0  0
   36.9250   30.3680   49.2090 C   0  0  0  0  0  0  0  0  0  0  0  0
   35.7660   29.7040   49.5240 N   0  0  0  0  0  0  0  0  0  0  0  0
   35.4800   29.2840   50.7720 C   0  0  0  0  0  0  0  0  0  0  0  0
   36.3490   29.5170   51.7470 N   0  0  0  0  0  0  0  0  0  0  0  0
   38.2260   30.3610   52.3050 H   0  0  0  0  0  0  0  0  0  0  0  0
   38.7340   31.1280   49.9900 H   0  0  0  0  0  0  0  0  0  0  0  0
   34.5370   28.7720   50.9000 H   0  0  0  0  0  0  0  0  0  0  0  0
   39.4280   31.7520   41.7380 N   0  0  0  0  0  0  0  0  0  0  0  0
   39.2860   33.2050   41.8660 C   0  0  1  0  0  0  0  0  0  0  0  0
   37.9220   33.5660   41.5010 C   0  0  0  0  0  0  0  0  0  0  0  0
   37.7290   33.2840   40.1430 O   0  0  0  0  0  0  0  0  0  0  0  0
   37.9600   31.9690   39.7930 C   0  0  0  0  0  0  0  0  0  0  0  0
   39.2950   31.4750   40.3410 C   0  0  2  0  0  0  0  0  0  0  0  0
   38.6360   31.2540   42.1810 H   0  0  0  0  0  0  0  0  0  0  0  0
   40.0140   33.6270   41.1770 H   0  0  0  0  0  0  0  0  0  0  0  0
   37.0470   33.1750   41.9520 H   0  0  0  0  0  0  0  0  0  0  0  0
   37.8400   34.6940   41.5580 H   0  0  0  0  0  0  0  0  0  0  0  0
   37.1520   31.3050   40.1420 H   0  0  0  0  0  0  0  0  0  0  0  0
   38.0020   31.9330   38.6930 H   0  0  0  0  0  0  0  0  0  0  0  0
   40.1290   32.0110   39.7870 H   0  0  0  0  0  0  0  0  0  0  0  0
   37.0510   29.4880   38.9900 Cl  0  0  0  0  0  0  0  0  0  0  0  0
   38.6550   29.0380   39.5040 C   0  0  0  0  0  0  0  0  0  0  0  0
   39.4000   30.0480   40.0540 C   0  0  0  0  0  0  0  0  0  0  0  0
   40.6680   29.5620   40.4420 C   0  0  0  0  0  0  0  0  0  0  0  0
   41.4540   30.1720   40.9100 H   0  0  0  0  0  0  0  0  0  0  0  0
   41.1210   28.2490   40.2970 C   0  0  0  0  0  3  0  0  0  0  0  0
   40.2850   27.3360   39.7340 C   0  0  0  0  0  0  0  0  0  0  0  0
   40.7440   25.6680   39.5030 Cl  0  0  0  0  0  0  0  0  0  0  0  0
   39.0440   27.7380   39.3360 C   0  0  0  0  0  0  0  0  0  0  0  0
   38.3610   27.0530   38.8910 H   0  0  0  0  0  0  0  0  0  0  0  0
  1  7  1  0  0  0  0
  2 11  1  0  0  0  0
  2  3  1  0  0  0  0
  3 17  1  0  0  0  0
  4  3  2  0  0  0  0
  4 12  1  0  0  0  0
  5  4  1  0  0  0  0
  6 13  1  0  0  0  0
  6  5  1  0  0  0  0
  7  6  1  0  0  0  0
  8  7  2  0  0  0  0
  8  9  1  0  0  0  0
  9 10  1  0  0  0  0
  9  5  2  0  0  0  0
 10  2  2  0  0  0  0
 14 10  1  0  0  0  0
 15 20  1  0  0  0  0
 15 21  1  0  0  0  0
 16 15  2  0  0  0  0
 17 18  2  0  0  0  0
 17 16  1  0  0  0  0
 18 19  1  0  0  0  0
 19 23  1  0  0  0  0
 19 20  2  0  0  0  0
 22 16  1  0  0  0  0
 24 25  1  0  0  0  0
 24 30  1  0  0  0  0
 25 31  1  6  0  0  0
 25  1  1  0  0  0  0
 26 33  1  0  0  0  0
 26 25  1  0  0  0  0
 26 32  1  0  0  0  0
 27 26  1  0  0  0  0
 28 34  1  0  0  0  0
 28 27  1  0  0  0  0
 28 29  1  0  0  0  0
 29 36  1  6  0  0  0
 29 24  1  0  0  0  0
 35 28  1  0  0  0  0
 37 38  1  0  0  0  0
 38 39  1  0  0  0  0
 39 29  1  0  0  0  0
 39 40  2  0  0  0  0
 40 41  1  0  0  0  0
 42 40  1  0  0  0  0
 43 42  2  0  0  0  0
 44 43  1  0  0  0  0
 45 38  2  0  0  0  0
 45 43  1  0  0  0  0
 46 45  1  0  0  0  0
M  END
>  <minimizedAffinity>
-6.04823923

>  <minimizedRMSD>
0.318249315

$$$$
