
 OpenBabel03272510243D

 33 36  0  0  0  0  0  0  0  0999 V2000
   34.6090   28.3000   48.5670 C   0  0  0  0  0  0  0  0  0  0  0  0
   35.0370   29.6120   48.6840 C   0  0  0  0  0  0  0  0  0  0  0  0
   34.4410   30.6230   47.9560 C   0  0  0  0  0  0  0  0  0  0  0  0
   33.3950   30.2520   47.1070 C   0  0  0  0  0  0  0  0  0  0  0  0
   32.6470   31.0410   46.2910 N   0  0  0  0  0  0  0  0  0  0  0  0
   31.7740   30.2400   45.6810 C   0  0  0  0  0  0  0  0  0  0  0  0
   31.9270   28.9820   46.0660 N   0  0  0  0  0  0  0  0  0  0  0  0
   32.9400   28.9460   46.9660 C   0  0  0  0  0  0  0  0  0  0  0  0
   33.5620   27.9590   47.7120 C   0  0  0  0  0  0  0  0  0  0  0  0
   35.0330   27.4560   49.1090 H   0  0  0  0  0  0  0  0  0  0  0  0
   34.7540   31.6400   48.0290 H   0  0  0  0  0  0  0  0  0  0  0  0
   32.7590   32.0800   46.1820 H   0  0  0  0  0  0  0  0  0  0  0  0
   33.2160   26.9380   47.6110 H   0  0  0  0  0  0  0  0  0  0  0  0
   38.2370   30.8210   50.2570 C   0  0  0  0  0  0  0  0  0  0  0  0
   37.2660   30.6360   49.2770 C   0  0  0  0  0  0  0  0  0  0  0  0
   36.1370   29.8910   49.5980 C   0  0  0  0  0  0  0  0  0  0  0  0
   36.0370   29.3730   50.8690 N   0  0  0  0  0  0  0  0  0  0  0  0
   37.0020   29.5770   51.7880 C   0  0  0  0  0  0  0  0  0  0  0  0
   38.0890   30.2920   51.4800 N   0  0  0  0  0  0  0  0  0  0  0  0
   39.0980   31.4050   49.9670 H   0  0  0  0  0  0  0  0  0  0  0  0
   37.3280   31.0360   48.2720 H   0  0  0  0  0  0  0  0  0  0  0  0
   36.8520   29.1370   52.7680 H   0  0  0  0  0  0  0  0  0  0  0  0
   30.8420   30.7210   44.7630 O   0  0  0  0  0  0  0  0  0  0  0  0
   32.3870   30.1380   42.2430 Cl  0  0  0  0  0  0  0  0  0  0  0  0
   31.9410   31.7370   42.8130 C   0  0  0  0  0  0  0  0  0  0  0  0
   31.2300   31.8100   43.9930 C   0  0  0  0  0  0  0  0  0  0  0  0
   30.8750   33.0740   44.4490 C   0  0  0  0  0  0  0  0  0  0  0  0
   30.3100   33.2080   45.3780 H   0  0  0  0  0  0  0  0  0  0  0  0
   31.2170   34.2200   43.7510 C   0  0  0  0  0  3  0  0  0  0  0  0
   31.9280   34.1010   42.5750 C   0  0  0  0  0  0  0  0  0  0  0  0
   32.3970   35.5080   41.6360 Cl  0  0  0  0  0  0  0  0  0  0  0  0
   32.2970   32.8610   42.0940 C   0  0  0  0  0  0  0  0  0  0  0  0
   32.8520   32.7860   41.1760 H   0  0  0  0  0  0  0  0  0  0  0  0
  1  2  1  0  0  0  0
  1 10  1  0  0  0  0
  2 16  1  0  0  0  0
  3 11  1  0  0  0  0
  3  2  2  0  0  0  0
  4  3  1  0  0  0  0
  5  4  1  0  0  0  0
  6  7  2  0  0  0  0
  6  5  1  0  0  0  0
  7  8  1  0  0  0  0
  8  4  2  0  0  0  0
  8  9  1  0  0  0  0
  9  1  2  0  0  0  0
 12  5  1  0  0  0  0
 13  9  1  0  0  0  0
 14 19  1  0  0  0  0
 15 16  1  0  0  0  0
 15 14  2  0  0  0  0
 16 17  2  0  0  0  0
 17 18  1  0  0  0  0
 18 22  1  0  0  0  0
 19 18  2  0  0  0  0
 20 14  1  0  0  0  0
 21 15  1  0  0  0  0
 23  6  1  0  0  0  0
 24 25  1  0  0  0  0
 25 26  1  0  0  0  0
 26 27  2  0  0  0  0
 26 23  1  0  0  0  0
 27 28  1  0  0  0  0
 29 27  1  0  0  0  0
 30 29  2  0  0  0  0
 31 30  1  0  0  0  0
 32 30  1  0  0  0  0
 32 25  2  0  0  0  0
 33 32  1  0  0  0  0
M  END
>  <minimizedAffinity>
-5.52403212

>  <minimizedRMSD>
6.81757593

$$$$
