
 OpenBabel03272510253D

 33 36  0  0  0  0  0  0  0  0999 V2000
   35.8640   29.9490   32.7170 C   0  0  0  0  0  0  0  0  0  0  0  0
   35.7840   29.5430   34.0390 C   0  0  0  0  0  0  0  0  0  0  0  0
   36.2450   28.3020   34.4320 C   0  0  0  0  0  0  0  0  0  0  0  0
   36.7910   27.4910   33.4340 C   0  0  0  0  0  0  0  0  0  0  0  0
   37.3100   26.2400   33.5500 N   0  0  0  0  0  0  0  0  0  0  0  0
   37.7050   25.8760   32.3300 C   0  0  0  0  0  0  0  0  0  0  0  0
   37.4630   26.8300   31.4430 N   0  0  0  0  0  0  0  0  0  0  0  0
   36.8860   27.8670   32.0990 C   0  0  0  0  0  0  0  0  0  0  0  0
   36.4130   29.1180   31.7420 C   0  0  0  0  0  0  0  0  0  0  0  0
   35.5200   30.9110   32.3400 H   0  0  0  0  0  0  0  0  0  0  0  0
   36.1940   27.9680   35.4440 H   0  0  0  0  0  0  0  0  0  0  0  0
   37.3750   25.6910   34.4430 H   0  0  0  0  0  0  0  0  0  0  0  0
   36.4820   29.4220   30.7050 H   0  0  0  0  0  0  0  0  0  0  0  0
   35.2180   32.1960   36.6510 C   0  0  0  0  0  0  0  0  0  0  0  0
   35.9160   31.3740   35.7710 C   0  0  0  0  0  0  0  0  0  0  0  0
   35.1970   30.4670   35.0020 C   0  0  0  0  0  0  0  0  0  0  0  0
   33.8300   30.4250   35.1510 N   0  0  0  0  0  0  0  0  0  0  0  0
   33.1930   31.2400   36.0160 C   0  0  0  0  0  0  0  0  0  0  0  0
   33.8840   32.1130   36.7560 N   0  0  0  0  0  0  0  0  0  0  0  0
   35.8140   32.8870   37.2290 H   0  0  0  0  0  0  0  0  0  0  0  0
   36.9920   31.3930   35.6410 H   0  0  0  0  0  0  0  0  0  0  0  0
   32.1140   31.1490   36.0770 H   0  0  0  0  0  0  0  0  0  0  0  0
   38.2910   24.6360   32.0790 O   0  0  0  0  0  0  0  0  0  0  0  0
   38.6770   22.8050   34.4400 Cl  0  0  0  0  0  0  0  0  0  0  0  0
   37.4900   22.5820   33.1660 C   0  0  0  0  0  0  0  0  0  0  0  0
   37.4600   23.5270   32.1600 C   0  0  0  0  0  0  0  0  0  0  0  0
   36.5230   23.3550   31.1490 C   0  0  0  0  0  0  0  0  0  0  0  0
   36.4400   24.0650   30.3200 H   0  0  0  0  0  0  0  0  0  0  0  0
   35.6510   22.2780   31.1440 C   0  0  0  0  0  3  0  0  0  0  0  0
   35.7160   21.3580   32.1680 C   0  0  0  0  0  0  0  0  0  0  0  0
   34.6440   19.9690   32.2290 Cl  0  0  0  0  0  0  0  0  0  0  0  0
   36.6350   21.4980   33.1890 C   0  0  0  0  0  0  0  0  0  0  0  0
   36.6730   20.7720   33.9800 H   0  0  0  0  0  0  0  0  0  0  0  0
  1  2  1  0  0  0  0
  2  3  2  0  0  0  0
  2 16  1  0  0  0  0
  3 11  1  0  0  0  0
  4  5  1  0  0  0  0
  4  3  1  0  0  0  0
  5 12  1  0  0  0  0
  6  5  1  0  0  0  0
  7  8  1  0  0  0  0
  7  6  2  0  0  0  0
  8  4  2  0  0  0  0
  9  8  1  0  0  0  0
  9  1  2  0  0  0  0
 10  1  1  0  0  0  0
 13  9  1  0  0  0  0
 14 19  1  0  0  0  0
 14 20  1  0  0  0  0
 15 14  2  0  0  0  0
 16 17  2  0  0  0  0
 16 15  1  0  0  0  0
 17 18  1  0  0  0  0
 18 22  1  0  0  0  0
 18 19  2  0  0  0  0
 21 15  1  0  0  0  0
 23 26  1  0  0  0  0
 23  6  1  0  0  0  0
 25 32  1  0  0  0  0
 25 24  1  0  0  0  0
 26 25  2  0  0  0  0
 27 26  1  0  0  0  0
 28 27  1  0  0  0  0
 29 27  2  0  0  0  0
 29 30  1  0  0  0  0
 30 31  1  0  0  0  0
 30 32  2  0  0  0  0
 32 33  1  0  0  0  0
M  END
>  <minimizedAffinity>
-6.01404715

$$$$

 OpenBabel03272510253D

 33 36  0  0  0  0  0  0  0  0999 V2000
   38.2830   24.8580   33.7510 C   0  0  0  0  0  0  0  0  0  0  0  0
   38.1810   25.1960   35.0900 C   0  0  0  0  0  0  0  0  0  0  0  0
   37.5240   26.3430   35.4870 C   0  0  0  0  0  0  0  0  0  0  0  0
   36.9740   27.1330   34.4750 C   0  0  0  0  0  0  0  0  0  0  0  0
   36.2840   28.2990   34.5920 N   0  0  0  0  0  0  0  0  0  0  0  0
   35.9640   28.6780   33.3550 C   0  0  0  0  0  0  0  0  0  0  0  0
   36.4140   27.8150   32.4560 N   0  0  0  0  0  0  0  0  0  0  0  0
   37.0580   26.8250   33.1220 C   0  0  0  0  0  0  0  0  0  0  0  0
   37.7250   25.6660   32.7610 C   0  0  0  0  0  0  0  0  0  0  0  0
   38.7870   23.9710   33.3690 H   0  0  0  0  0  0  0  0  0  0  0  0
   37.4330   26.6230   36.5130 H   0  0  0  0  0  0  0  0  0  0  0  0
   36.0620   28.7840   35.4960 H   0  0  0  0  0  0  0  0  0  0  0  0
   37.7960   25.4150   31.7110 H   0  0  0  0  0  0  0  0  0  0  0  0
   39.0260   23.2350   38.1920 C   0  0  0  0  0  0  0  0  0  0  0  0
   38.3420   24.1260   37.3710 C   0  0  0  0  0  0  0  0  0  0  0  0
   38.7900   24.3010   36.0670 C   0  0  0  0  0  0  0  0  0  0  0  0
   39.8900   23.5850   35.6540 N   0  0  0  0  0  0  0  0  0  0  0  0
   40.5240   22.7310   36.4830 C   0  0  0  0  0  0  0  0  0  0  0  0
   40.0930   22.5620   37.7370 N   0  0  0  0  0  0  0  0  0  0  0  0
   38.6450   23.1280   39.1970 H   0  0  0  0  0  0  0  0  0  0  0  0
   37.4750   24.6990   37.6790 H   0  0  0  0  0  0  0  0  0  0  0  0
   41.3830   22.2020   36.0850 H   0  0  0  0  0  0  0  0  0  0  0  0
   35.2450   29.8450   33.1000 O   0  0  0  0  0  0  0  0  0  0  0  0
   32.6120   29.3850   34.4880 Cl  0  0  0  0  0  0  0  0  0  0  0  0
   33.8060   30.5850   34.9500 C   0  0  0  0  0  0  0  0  0  0  0  0
   34.9580   30.6520   34.1930 C   0  0  0  0  0  0  0  0  0  0  0  0
   35.9070   31.6000   34.5540 C   0  0  0  0  0  0  0  0  0  0  0  0
   36.8450   31.7100   33.9990 H   0  0  0  0  0  0  0  0  0  0  0  0
   35.7100   32.4510   35.6300 C   0  0  0  0  0  3  0  0  0  0  0  0
   34.5450   32.3500   36.3580 C   0  0  0  0  0  0  0  0  0  0  0  0
   34.2250   33.3920   37.7350 Cl  0  0  0  0  0  0  0  0  0  0  0  0
   33.5800   31.4180   36.0280 C   0  0  0  0  0  0  0  0  0  0  0  0
   32.6770   31.3530   36.6060 H   0  0  0  0  0  0  0  0  0  0  0  0
  1  2  1  0  0  0  0
  2  3  2  0  0  0  0
  2 16  1  0  0  0  0
  3 11  1  0  0  0  0
  4  5  1  0  0  0  0
  4  3  1  0  0  0  0
  5 12  1  0  0  0  0
  6  5  1  0  0  0  0
  7  8  1  0  0  0  0
  7  6  2  0  0  0  0
  8  4  2  0  0  0  0
  9  8  1  0  0  0  0
  9  1  2  0  0  0  0
 10  1  1  0  0  0  0
 13  9  1  0  0  0  0
 14 20  1  0  0  0  0
 15 21  1  0  0  0  0
 15 14  2  0  0  0  0
 16 15  1  0  0  0  0
 17 16  2  0  0  0  0
 17 18  1  0  0  0  0
 18 19  2  0  0  0  0
 19 14  1  0  0  0  0
 22 18  1  0  0  0  0
 23  6  1  0  0  0  0
 23 26  1  0  0  0  0
 24 25  1  0  0  0  0
 25 32  1  0  0  0  0
 26 27  1  0  0  0  0
 26 25  2  0  0  0  0
 27 29  2  0  0  0  0
 28 27  1  0  0  0  0
 29 30  1  0  0  0  0
 30 31  1  0  0  0  0
 32 30  2  0  0  0  0
 32 33  1  0  0  0  0
M  END
>  <minimizedAffinity>
-5.97462559

$$$$

 OpenBabel03272510253D

 33 36  0  0  0  0  0  0  0  0999 V2000
   38.1450   24.6230   33.8690 C   0  0  0  0  0  0  0  0  0  0  0  0
   38.2950   25.0540   35.1770 C   0  0  0  0  0  0  0  0  0  0  0  0
   37.8220   26.2870   35.5790 C   0  0  0  0  0  0  0  0  0  0  0  0
   37.1910   27.0660   34.6060 C   0  0  0  0  0  0  0  0  0  0  0  0
   36.6420   28.3030   34.7360 N   0  0  0  0  0  0  0  0  0  0  0  0
   36.1620   28.6340   33.5380 C   0  0  0  0  0  0  0  0  0  0  0  0
   36.3760   27.6730   32.6520 N   0  0  0  0  0  0  0  0  0  0  0  0
   37.0240   26.6650   33.2850 C   0  0  0  0  0  0  0  0  0  0  0  0
   37.5110   25.4220   32.9180 C   0  0  0  0  0  0  0  0  0  0  0  0
   38.4940   23.6660   33.4850 H   0  0  0  0  0  0  0  0  0  0  0  0
   37.9260   26.6400   36.5810 H   0  0  0  0  0  0  0  0  0  0  0  0
   36.6170   28.8650   35.6230 H   0  0  0  0  0  0  0  0  0  0  0  0
   37.3860   25.0980   31.8920 H   0  0  0  0  0  0  0  0  0  0  0  0
   39.2720   23.0090   38.1840 C   0  0  0  0  0  0  0  0  0  0  0  0
   38.5230   23.8820   37.4000 C   0  0  0  0  0  0  0  0  0  0  0  0
   38.9690   24.1640   36.1150 C   0  0  0  0  0  0  0  0  0  0  0  0
   40.1310   23.5680   35.6820 N   0  0  0  0  0  0  0  0  0  0  0  0
   40.8270   22.7280   36.4740 C   0  0  0  0  0  0  0  0  0  0  0  0
   40.3980   22.4560   37.7110 N   0  0  0  0  0  0  0  0  0  0  0  0
   38.8910   22.8160   39.1760 H   0  0  0  0  0  0  0  0  0  0  0  0
   37.6070   24.3600   37.7250 H   0  0  0  0  0  0  0  0  0  0  0  0
   41.7330   22.2970   36.0620 H   0  0  0  0  0  0  0  0  0  0  0  0
   35.5240   29.8520   33.3060 O   0  0  0  0  0  0  0  0  0  0  0  0
   36.0220   31.6320   35.6850 Cl  0  0  0  0  0  0  0  0  0  0  0  0
   34.4700   30.9440   35.2400 C   0  0  0  0  0  0  0  0  0  0  0  0
   34.4330   30.1480   34.1130 C   0  0  0  0  0  0  0  0  0  0  0  0
   33.2080   29.6000   33.7560 C   0  0  0  0  0  0  0  0  0  0  0  0
   33.1030   28.9600   32.8740 H   0  0  0  0  0  0  0  0  0  0  0  0
   32.0630   29.8390   34.4990 C   0  0  0  0  0  3  0  0  0  0  0  0
   32.1440   30.6390   35.6170 C   0  0  0  0  0  0  0  0  0  0  0  0
   30.7370   30.9870   36.6080 Cl  0  0  0  0  0  0  0  0  0  0  0  0
   33.3470   31.2010   36.0010 C   0  0  0  0  0  0  0  0  0  0  0  0
   33.3930   31.8230   36.8760 H   0  0  0  0  0  0  0  0  0  0  0  0
  1  2  1  0  0  0  0
  2  3  2  0  0  0  0
  2 16  1  0  0  0  0
  3 11  1  0  0  0  0
  4  5  1  0  0  0  0
  4  3  1  0  0  0  0
  5 12  1  0  0  0  0
  6  5  1  0  0  0  0
  7  8  1  0  0  0  0
  7  6  2  0  0  0  0
  8  4  2  0  0  0  0
  9  8  1  0  0  0  0
  9  1  2  0  0  0  0
 10  1  1  0  0  0  0
 13  9  1  0  0  0  0
 14 20  1  0  0  0  0
 15 21  1  0  0  0  0
 15 14  2  0  0  0  0
 16 15  1  0  0  0  0
 17 16  2  0  0  0  0
 17 18  1  0  0  0  0
 18 19  2  0  0  0  0
 19 14  1  0  0  0  0
 22 18  1  0  0  0  0
 23  6  1  0  0  0  0
 23 26  1  0  0  0  0
 25 24  1  0  0  0  0
 25 32  1  0  0  0  0
 26 25  2  0  0  0  0
 27 26  1  0  0  0  0
 27 29  2  0  0  0  0
 28 27  1  0  0  0  0
 29 30  1  0  0  0  0
 30 32  2  0  0  0  0
 30 31  1  0  0  0  0
 32 33  1  0  0  0  0
M  END
>  <minimizedAffinity>
-5.95682287

$$$$

 OpenBabel03272510253D

 33 36  0  0  0  0  0  0  0  0999 V2000
   38.3840   25.0510   33.6160 C   0  0  0  0  0  0  0  0  0  0  0  0
   38.2820   25.2960   34.9750 C   0  0  0  0  0  0  0  0  0  0  0  0
   37.5700   26.3780   35.4520 C   0  0  0  0  0  0  0  0  0  0  0  0
   36.9650   27.2010   34.4990 C   0  0  0  0  0  0  0  0  0  0  0  0
   36.2160   28.3180   34.6980 N   0  0  0  0  0  0  0  0  0  0  0  0
   35.8590   28.7580   33.4920 C   0  0  0  0  0  0  0  0  0  0  0  0
   36.3420   27.9790   32.5350 N   0  0  0  0  0  0  0  0  0  0  0  0
   37.0470   26.9850   33.1280 C   0  0  0  0  0  0  0  0  0  0  0  0
   37.7700   25.8900   32.6870 C   0  0  0  0  0  0  0  0  0  0  0  0
   38.9280   24.2190   33.1720 H   0  0  0  0  0  0  0  0  0  0  0  0
   37.4780   26.5870   36.4950 H   0  0  0  0  0  0  0  0  0  0  0  0
   35.9800   28.7320   35.6340 H   0  0  0  0  0  0  0  0  0  0  0  0
   37.8400   25.7100   31.6210 H   0  0  0  0  0  0  0  0  0  0  0  0
   40.6570   22.8500   36.5740 C   0  0  0  0  0  0  0  0  0  0  0  0
   40.1330   23.6990   35.6050 C   0  0  0  0  0  0  0  0  0  0  0  0
   38.9510   24.3750   35.8860 C   0  0  0  0  0  0  0  0  0  0  0  0
   38.3570   24.1680   37.1100 N   0  0  0  0  0  0  0  0  0  0  0  0
   38.8990   23.3360   38.0210 C   0  0  0  0  0  0  0  0  0  0  0  0
   40.0360   22.6850   37.7520 N   0  0  0  0  0  0  0  0  0  0  0  0
   41.5760   22.3450   36.3160 H   0  0  0  0  0  0  0  0  0  0  0  0
   40.5860   23.8740   34.6360 H   0  0  0  0  0  0  0  0  0  0  0  0
   38.3730   23.2250   38.9640 H   0  0  0  0  0  0  0  0  0  0  0  0
   35.0760   29.8980   33.3200 O   0  0  0  0  0  0  0  0  0  0  0  0
   36.3220   31.7580   31.3040 Cl  0  0  0  0  0  0  0  0  0  0  0  0
   36.2050   32.0630   33.0290 C   0  0  0  0  0  0  0  0  0  0  0  0
   35.5990   31.0910   33.8000 C   0  0  0  0  0  0  0  0  0  0  0  0
   35.5040   31.3270   35.1660 C   0  0  0  0  0  0  0  0  0  0  0  0
   35.0350   30.6010   35.8400 H   0  0  0  0  0  0  0  0  0  0  0  0
   35.9960   32.4880   35.7380 C   0  0  0  0  0  3  0  0  0  0  0  0
   36.5940   33.4310   34.9310 C   0  0  0  0  0  0  0  0  0  0  0  0
   37.2410   34.9280   35.5840 Cl  0  0  0  0  0  0  0  0  0  0  0  0
   36.7050   33.2300   33.5690 C   0  0  0  0  0  0  0  0  0  0  0  0
   37.1740   33.9760   32.9530 H   0  0  0  0  0  0  0  0  0  0  0  0
  1  2  1  0  0  0  0
  2  3  2  0  0  0  0
  2 16  1  0  0  0  0
  3 11  1  0  0  0  0
  4  5  1  0  0  0  0
  4  3  1  0  0  0  0
  5 12  1  0  0  0  0
  6  5  1  0  0  0  0
  7  8  1  0  0  0  0
  7  6  2  0  0  0  0
  8  4  2  0  0  0  0
  9  8  1  0  0  0  0
  9  1  2  0  0  0  0
 10  1  1  0  0  0  0
 13  9  1  0  0  0  0
 14 19  1  0  0  0  0
 15 16  1  0  0  0  0
 15 14  2  0  0  0  0
 16 17  2  0  0  0  0
 17 18  1  0  0  0  0
 18 22  1  0  0  0  0
 19 18  2  0  0  0  0
 20 14  1  0  0  0  0
 21 15  1  0  0  0  0
 23  6  1  0  0  0  0
 23 26  1  0  0  0  0
 24 25  1  0  0  0  0
 25 32  2  0  0  0  0
 25 26  1  0  0  0  0
 26 27  2  0  0  0  0
 27 29  1  0  0  0  0
 27 28  1  0  0  0  0
 30 31  1  0  0  0  0
 30 29  2  0  0  0  0
 32 30  1  0  0  0  0
 33 32  1  0  0  0  0
M  END
>  <minimizedAffinity>
-5.77582169

$$$$

 OpenBabel03272510253D

 33 36  0  0  0  0  0  0  0  0999 V2000
   37.8510   23.3600   31.7470 C   0  0  0  0  0  0  0  0  0  0  0  0
   36.5200   23.0660   31.5030 C   0  0  0  0  0  0  0  0  0  0  0  0
   35.6020   24.0680   31.2610 C   0  0  0  0  0  0  0  0  0  0  0  0
   36.0840   25.3790   31.2770 C   0  0  0  0  0  0  0  0  0  0  0  0
   35.4000   26.5360   31.0720 N   0  0  0  0  0  0  0  0  0  0  0  0
   36.2830   27.5260   31.1850 C   0  0  0  0  0  0  0  0  0  0  0  0
   37.4950   27.0620   31.4520 N   0  0  0  0  0  0  0  0  0  0  0  0
   37.4130   25.7100   31.5190 C   0  0  0  0  0  0  0  0  0  0  0  0
   38.3050   24.6790   31.7570 C   0  0  0  0  0  0  0  0  0  0  0  0
   38.6260   22.6220   31.9450 H   0  0  0  0  0  0  0  0  0  0  0  0
   34.5720   23.8650   31.0700 H   0  0  0  0  0  0  0  0  0  0  0  0
   34.3720   26.6030   30.8650 H   0  0  0  0  0  0  0  0  0  0  0  0
   39.3420   24.9240   31.9460 H   0  0  0  0  0  0  0  0  0  0  0  0
   34.8180   19.7750   32.1770 C   0  0  0  0  0  0  0  0  0  0  0  0
   35.0870   21.1370   32.2750 C   0  0  0  0  0  0  0  0  0  0  0  0
   36.1200   21.6640   31.5090 C   0  0  0  0  0  0  0  0  0  0  0  0
   36.8270   20.8110   30.6920 N   0  0  0  0  0  0  0  0  0  0  0  0
   36.5330   19.4970   30.6270 C   0  0  0  0  0  0  0  0  0  0  0  0
   35.5390   18.9890   31.3640 N   0  0  0  0  0  0  0  0  0  0  0  0
   34.0070   19.4060   32.7880 H   0  0  0  0  0  0  0  0  0  0  0  0
   34.5420   21.8230   32.9120 H   0  0  0  0  0  0  0  0  0  0  0  0
   37.1340   18.8890   29.9600 H   0  0  0  0  0  0  0  0  0  0  0  0
   35.9210   28.8640   31.0330 O   0  0  0  0  0  0  0  0  0  0  0  0
   36.1480   31.8530   30.7310 Cl  0  0  0  0  0  0  0  0  0  0  0  0
   35.9210   31.0000   32.2490 C   0  0  0  0  0  0  0  0  0  0  0  0
   35.8390   29.6230   32.1920 C   0  0  0  0  0  0  0  0  0  0  0  0
   35.6590   28.9430   33.3900 C   0  0  0  0  0  0  0  0  0  0  0  0
   35.5850   27.8510   33.4220 H   0  0  0  0  0  0  0  0  0  0  0  0
   35.5660   29.6150   34.5980 C   0  0  0  0  0  3  0  0  0  0  0  0
   35.6530   30.9900   34.6090 C   0  0  0  0  0  0  0  0  0  0  0  0
   35.5440   31.9090   36.1010 Cl  0  0  0  0  0  0  0  0  0  0  0  0
   35.8320   31.6980   33.4370 C   0  0  0  0  0  0  0  0  0  0  0  0
   35.8970   32.7700   33.4620 H   0  0  0  0  0  0  0  0  0  0  0  0
  1  9  1  0  0  0  0
  1 10  1  0  0  0  0
  2 16  1  0  0  0  0
  2  1  2  0  0  0  0
  3  4  2  0  0  0  0
  3  2  1  0  0  0  0
  4  8  1  0  0  0  0
  5  6  1  0  0  0  0
  5  4  1  0  0  0  0
  6  7  2  0  0  0  0
  7  8  1  0  0  0  0
  8  9  2  0  0  0  0
  9 13  1  0  0  0  0
 11  3  1  0  0  0  0
 12  5  1  0  0  0  0
 14 15  1  0  0  0  0
 14 20  1  0  0  0  0
 15 21  1  0  0  0  0
 16 15  2  0  0  0  0
 17 16  1  0  0  0  0
 18 17  2  0  0  0  0
 18 19  1  0  0  0  0
 19 14  2  0  0  0  0
 22 18  1  0  0  0  0
 23  6  1  0  0  0  0
 23 26  1  0  0  0  0
 24 25  1  0  0  0  0
 25 32  1  0  0  0  0
 26 25  2  0  0  0  0
 26 27  1  0  0  0  0
 27 28  1  0  0  0  0
 27 29  2  0  0  0  0
 29 30  1  0  0  0  0
 30 31  1  0  0  0  0
 32 33  1  0  0  0  0
 32 30  2  0  0  0  0
M  END
>  <minimizedAffinity>
-5.76114607

$$$$

 OpenBabel03272510253D

 33 36  0  0  0  0  0  0  0  0999 V2000
   36.6540   28.1980   34.4710 C   0  0  0  0  0  0  0  0  0  0  0  0
   35.9540   28.7720   33.4230 C   0  0  0  0  0  0  0  0  0  0  0  0
   35.7790   28.1000   32.2300 C   0  0  0  0  0  0  0  0  0  0  0  0
   36.3400   26.8240   32.1410 C   0  0  0  0  0  0  0  0  0  0  0  0
   36.3150   25.9590   31.0920 N   0  0  0  0  0  0  0  0  0  0  0  0
   36.9820   24.8730   31.4770 C   0  0  0  0  0  0  0  0  0  0  0  0
   37.4320   24.9990   32.7170 N   0  0  0  0  0  0  0  0  0  0  0  0
   37.0490   26.2180   33.1720 C   0  0  0  0  0  0  0  0  0  0  0  0
   37.2040   26.9220   34.3540 C   0  0  0  0  0  0  0  0  0  0  0  0
   36.8290   28.6700   35.4360 H   0  0  0  0  0  0  0  0  0  0  0  0
   35.2440   28.5230   31.4090 H   0  0  0  0  0  0  0  0  0  0  0  0
   35.8500   26.1410   30.1670 H   0  0  0  0  0  0  0  0  0  0  0  0
   37.7530   26.4600   35.1640 H   0  0  0  0  0  0  0  0  0  0  0  0
   35.0020   32.1410   34.8120 C   0  0  0  0  0  0  0  0  0  0  0  0
   35.5840   30.8770   34.7660 C   0  0  0  0  0  0  0  0  0  0  0  0
   35.4080   30.1100   33.6200 C   0  0  0  0  0  0  0  0  0  0  0  0
   34.6660   30.6380   32.5890 N   0  0  0  0  0  0  0  0  0  0  0  0
   34.1200   31.8670   32.6750 C   0  0  0  0  0  0  0  0  0  0  0  0
   34.2880   32.6060   33.7760 N   0  0  0  0  0  0  0  0  0  0  0  0
   35.1630   32.7050   35.7180 H   0  0  0  0  0  0  0  0  0  0  0  0
   36.1710   30.4460   35.5680 H   0  0  0  0  0  0  0  0  0  0  0  0
   33.5480   32.2150   31.8210 H   0  0  0  0  0  0  0  0  0  0  0  0
   37.1530   23.7720   30.6390 O   0  0  0  0  0  0  0  0  0  0  0  0
   39.2270   21.5880   30.5670 Cl  0  0  0  0  0  0  0  0  0  0  0  0
   37.6000   21.4220   31.2040 C   0  0  0  0  0  0  0  0  0  0  0  0
   36.7860   22.5350   31.1520 C   0  0  0  0  0  0  0  0  0  0  0  0
   35.4970   22.4090   31.6540 C   0  0  0  0  0  0  0  0  0  0  0  0
   34.7960   23.2500   31.6460 H   0  0  0  0  0  0  0  0  0  0  0  0
   35.0400   21.2140   32.1860 C   0  0  0  0  0  3  0  0  0  0  0  0
   35.8860   20.1270   32.2180 C   0  0  0  0  0  0  0  0  0  0  0  0
   35.3770   18.5820   32.8770 Cl  0  0  0  0  0  0  0  0  0  0  0  0
   37.1740   20.2180   31.7280 C   0  0  0  0  0  0  0  0  0  0  0  0
   37.8210   19.3610   31.7600 H   0  0  0  0  0  0  0  0  0  0  0  0
  1 10  1  0  0  0  0
  2 16  1  0  0  0  0
  2  1  2  0  0  0  0
  3  2  1  0  0  0  0
  4  3  2  0  0  0  0
  4  8  1  0  0  0  0
  5  6  1  0  0  0  0
  5  4  1  0  0  0  0
  6  7  2  0  0  0  0
  7  8  1  0  0  0  0
  8  9  2  0  0  0  0
  9  1  1  0  0  0  0
  9 13  1  0  0  0  0
 11  3  1  0  0  0  0
 12  5  1  0  0  0  0
 14 20  1  0  0  0  0
 15 14  1  0  0  0  0
 15 21  1  0  0  0  0
 16 15  2  0  0  0  0
 17 18  2  0  0  0  0
 17 16  1  0  0  0  0
 18 19  1  0  0  0  0
 19 14  2  0  0  0  0
 22 18  1  0  0  0  0
 23 26  1  0  0  0  0
 23  6  1  0  0  0  0
 24 25  1  0  0  0  0
 25 32  1  0  0  0  0
 26 25  2  0  0  0  0
 26 27  1  0  0  0  0
 27 29  2  0  0  0  0
 28 27  1  0  0  0  0
 29 30  1  0  0  0  0
 30 31  1  0  0  0  0
 32 33  1  0  0  0  0
 32 30  2  0  0  0  0
M  END
>  <minimizedAffinity>
-5.6874609

$$$$

 OpenBabel03272510253D

 33 36  0  0  0  0  0  0  0  0999 V2000
   35.8440   29.6640   32.7930 C   0  0  0  0  0  0  0  0  0  0  0  0
   35.8360   29.4240   34.1570 C   0  0  0  0  0  0  0  0  0  0  0  0
   36.3620   28.2590   34.6780 C   0  0  0  0  0  0  0  0  0  0  0  0
   36.8970   27.3480   33.7650 C   0  0  0  0  0  0  0  0  0  0  0  0
   37.4700   26.1400   34.0110 N   0  0  0  0  0  0  0  0  0  0  0  0
   37.8270   25.6390   32.8290 C   0  0  0  0  0  0  0  0  0  0  0  0
   37.5110   26.4650   31.8420 N   0  0  0  0  0  0  0  0  0  0  0  0
   36.9210   27.5560   32.3900 C   0  0  0  0  0  0  0  0  0  0  0  0
   36.3850   28.7360   31.9030 C   0  0  0  0  0  0  0  0  0  0  0  0
   35.4470   30.5580   32.3150 H   0  0  0  0  0  0  0  0  0  0  0  0
   36.3670   28.0530   35.7250 H   0  0  0  0  0  0  0  0  0  0  0  0
   37.5940   25.7100   34.9610 H   0  0  0  0  0  0  0  0  0  0  0  0
   36.3990   28.9100   30.8350 H   0  0  0  0  0  0  0  0  0  0  0  0
   35.2880   32.2830   36.5460 C   0  0  0  0  0  0  0  0  0  0  0  0
   35.9820   31.3690   35.7600 C   0  0  0  0  0  0  0  0  0  0  0  0
   35.2540   30.4410   35.0240 C   0  0  0  0  0  0  0  0  0  0  0  0
   33.8810   30.4730   35.1110 N   0  0  0  0  0  0  0  0  0  0  0  0
   33.2480   31.3770   35.8860 C   0  0  0  0  0  0  0  0  0  0  0  0
   33.9480   32.2690   36.5940 N   0  0  0  0  0  0  0  0  0  0  0  0
   35.8910   32.9860   37.1010 H   0  0  0  0  0  0  0  0  0  0  0  0
   37.0620   31.3290   35.6790 H   0  0  0  0  0  0  0  0  0  0  0  0
   32.1640   31.3400   35.9030 H   0  0  0  0  0  0  0  0  0  0  0  0
   38.4510   24.3990   32.7070 O   0  0  0  0  0  0  0  0  0  0  0  0
   41.2010   25.3980   33.4210 Cl  0  0  0  0  0  0  0  0  0  0  0  0
   40.2810   24.2170   34.3370 C   0  0  0  0  0  0  0  0  0  0  0  0
   39.0330   23.8780   33.8550 C   0  0  0  0  0  0  0  0  0  0  0  0
   38.3010   22.9440   34.5750 C   0  0  0  0  0  0  0  0  0  0  0  0
   37.3030   22.6270   34.2530 H   0  0  0  0  0  0  0  0  0  0  0  0
   38.7990   22.3690   35.7340 C   0  0  0  0  0  3  0  0  0  0  0  0
   40.0500   22.7350   36.1790 C   0  0  0  0  0  0  0  0  0  0  0  0
   40.7460   22.0500   37.6380 Cl  0  0  0  0  0  0  0  0  0  0  0  0
   40.8050   23.6620   35.4880 C   0  0  0  0  0  0  0  0  0  0  0  0
   41.7790   23.9370   35.8490 H   0  0  0  0  0  0  0  0  0  0  0  0
  1  2  1  0  0  0  0
  2  3  2  0  0  0  0
  2 16  1  0  0  0  0
  3 11  1  0  0  0  0
  4  5  1  0  0  0  0
  4  3  1  0  0  0  0
  5 12  1  0  0  0  0
  6  5  1  0  0  0  0
  7  8  1  0  0  0  0
  7  6  2  0  0  0  0
  8  4  2  0  0  0  0
  9  8  1  0  0  0  0
  9  1  2  0  0  0  0
 10  1  1  0  0  0  0
 13  9  1  0  0  0  0
 14 19  1  0  0  0  0
 14 20  1  0  0  0  0
 15 14  2  0  0  0  0
 16 17  2  0  0  0  0
 16 15  1  0  0  0  0
 17 18  1  0  0  0  0
 18 22  1  0  0  0  0
 18 19  2  0  0  0  0
 21 15  1  0  0  0  0
 23  6  1  0  0  0  0
 23 26  1  0  0  0  0
 24 25  1  0  0  0  0
 25 32  1  0  0  0  0
 26 25  2  0  0  0  0
 26 27  1  0  0  0  0
 27 29  2  0  0  0  0
 28 27  1  0  0  0  0
 29 30  1  0  0  0  0
 30 31  1  0  0  0  0
 32 33  1  0  0  0  0
 32 30  2  0  0  0  0
M  END
>  <minimizedAffinity>
-5.67231417

$$$$

 OpenBabel03272510253D

 33 36  0  0  0  0  0  0  0  0999 V2000
   38.3550   25.1010   33.6840 C   0  0  0  0  0  0  0  0  0  0  0  0
   38.1110   25.3830   35.0180 C   0  0  0  0  0  0  0  0  0  0  0  0
   37.3460   26.4710   35.3880 C   0  0  0  0  0  0  0  0  0  0  0  0
   36.8360   27.2600   34.3540 C   0  0  0  0  0  0  0  0  0  0  0  0
   36.0620   28.3740   34.4420 N   0  0  0  0  0  0  0  0  0  0  0  0
   35.8280   28.7760   33.1940 C   0  0  0  0  0  0  0  0  0  0  0  0
   36.4130   27.9770   32.3140 N   0  0  0  0  0  0  0  0  0  0  0  0
   37.0610   27.0060   33.0060 C   0  0  0  0  0  0  0  0  0  0  0  0
   37.8340   25.9070   32.6730 C   0  0  0  0  0  0  0  0  0  0  0  0
   38.9490   24.2630   33.3230 H   0  0  0  0  0  0  0  0  0  0  0  0
   37.1450   26.7080   36.4090 H   0  0  0  0  0  0  0  0  0  0  0  0
   35.7270   28.8110   35.3370 H   0  0  0  0  0  0  0  0  0  0  0  0
   38.0150   25.6990   31.6260 H   0  0  0  0  0  0  0  0  0  0  0  0
   38.8090   23.3740   38.1260 C   0  0  0  0  0  0  0  0  0  0  0  0
   38.1430   24.2490   37.2730 C   0  0  0  0  0  0  0  0  0  0  0  0
   38.6900   24.4950   36.0190 C   0  0  0  0  0  0  0  0  0  0  0  0
   39.8650   23.8610   35.6840 N   0  0  0  0  0  0  0  0  0  0  0  0
   40.4770   23.0200   36.5420 C   0  0  0  0  0  0  0  0  0  0  0  0
   39.9520   22.7840   37.7480 N   0  0  0  0  0  0  0  0  0  0  0  0
   38.3510   23.2100   39.0900 H   0  0  0  0  0  0  0  0  0  0  0  0
   37.2180   24.7570   37.5200 H   0  0  0  0  0  0  0  0  0  0  0  0
   41.4000   22.5580   36.2060 H   0  0  0  0  0  0  0  0  0  0  0  0
   35.0580   29.9030   32.9090 O   0  0  0  0  0  0  0  0  0  0  0  0
   35.0070   31.5080   35.4580 Cl  0  0  0  0  0  0  0  0  0  0  0  0
   35.8040   31.9910   33.9700 C   0  0  0  0  0  0  0  0  0  0  0  0
   35.7200   31.1240   32.9000 C   0  0  0  0  0  0  0  0  0  0  0  0
   36.3490   31.5010   31.7200 C   0  0  0  0  0  0  0  0  0  0  0  0
   36.3250   30.8630   30.8300 H   0  0  0  0  0  0  0  0  0  0  0  0
   37.0340   32.7000   31.6150 C   0  0  0  0  0  3  0  0  0  0  0  0
   37.0920   33.5370   32.7080 C   0  0  0  0  0  0  0  0  0  0  0  0
   37.9420   35.0720   32.6500 Cl  0  0  0  0  0  0  0  0  0  0  0  0
   36.4790   33.1930   33.8970 C   0  0  0  0  0  0  0  0  0  0  0  0
   36.5340   33.8570   34.7400 H   0  0  0  0  0  0  0  0  0  0  0  0
  1  2  1  0  0  0  0
  2  3  2  0  0  0  0
  2 16  1  0  0  0  0
  3 11  1  0  0  0  0
  4  5  1  0  0  0  0
  4  3  1  0  0  0  0
  5 12  1  0  0  0  0
  6  5  1  0  0  0  0
  7  8  1  0  0  0  0
  7  6  2  0  0  0  0
  8  4  2  0  0  0  0
  9  8  1  0  0  0  0
  9  1  2  0  0  0  0
 10  1  1  0  0  0  0
 13  9  1  0  0  0  0
 14 20  1  0  0  0  0
 15 21  1  0  0  0  0
 15 14  2  0  0  0  0
 16 15  1  0  0  0  0
 17 16  2  0  0  0  0
 17 18  1  0  0  0  0
 18 19  2  0  0  0  0
 19 14  1  0  0  0  0
 22 18  1  0  0  0  0
 23  6  1  0  0  0  0
 25 24  1  0  0  0  0
 26 23  1  0  0  0  0
 26 25  2  0  0  0  0
 27 26  1  0  0  0  0
 28 27  1  0  0  0  0
 29 27  2  0  0  0  0
 29 30  1  0  0  0  0
 30 32  2  0  0  0  0
 31 30  1  0  0  0  0
 32 25  1  0  0  0  0
 32 33  1  0  0  0  0
M  END
>  <minimizedAffinity>
-5.60202265

$$$$

 OpenBabel03272510253D

 33 36  0  0  0  0  0  0  0  0999 V2000
   37.7980   25.6460   33.0170 C   0  0  0  0  0  0  0  0  0  0  0  0
   37.7720   25.6910   34.4010 C   0  0  0  0  0  0  0  0  0  0  0  0
   37.2000   26.7550   35.0680 C   0  0  0  0  0  0  0  0  0  0  0  0
   36.6540   27.7700   34.2790 C   0  0  0  0  0  0  0  0  0  0  0  0
   36.0380   28.9150   34.6790 N   0  0  0  0  0  0  0  0  0  0  0  0
   35.6890   29.5660   33.5710 C   0  0  0  0  0  0  0  0  0  0  0  0
   36.0500   28.8970   32.4850 N   0  0  0  0  0  0  0  0  0  0  0  0
   36.6630   27.7570   32.8890 C   0  0  0  0  0  0  0  0  0  0  0  0
   37.2460   26.6740   32.2540 C   0  0  0  0  0  0  0  0  0  0  0  0
   38.2330   24.8390   32.4280 H   0  0  0  0  0  0  0  0  0  0  0  0
   37.1680   26.8110   36.1330 H   0  0  0  0  0  0  0  0  0  0  0  0
   35.8820   29.2030   35.6760 H   0  0  0  0  0  0  0  0  0  0  0  0
   37.2590   26.6520   31.1720 H   0  0  0  0  0  0  0  0  0  0  0  0
   39.6890   22.6030   35.3880 C   0  0  0  0  0  0  0  0  0  0  0  0
   39.1890   23.6080   34.5650 C   0  0  0  0  0  0  0  0  0  0  0  0
   38.3700   24.5780   35.1300 C   0  0  0  0  0  0  0  0  0  0  0  0
   38.0930   24.4960   36.4750 N   0  0  0  0  0  0  0  0  0  0  0  0
   38.5980   23.5040   37.2370 C   0  0  0  0  0  0  0  0  0  0  0  0
   39.3860   22.5700   36.6940 N   0  0  0  0  0  0  0  0  0  0  0  0
   40.3210   21.8690   34.9110 H   0  0  0  0  0  0  0  0  0  0  0  0
   39.3960   23.6880   33.5050 H   0  0  0  0  0  0  0  0  0  0  0  0
   38.3350   23.5060   38.2890 H   0  0  0  0  0  0  0  0  0  0  0  0
   35.0280   30.7940   33.6090 O   0  0  0  0  0  0  0  0  0  0  0  0
   35.4420   31.7840   36.4240 Cl  0  0  0  0  0  0  0  0  0  0  0  0
   36.1200   32.5170   34.9800 C   0  0  0  0  0  0  0  0  0  0  0  0
   35.8210   31.9220   33.7710 C   0  0  0  0  0  0  0  0  0  0  0  0
   36.3550   32.4980   32.6260 C   0  0  0  0  0  0  0  0  0  0  0  0
   36.1600   32.0810   31.6320 H   0  0  0  0  0  0  0  0  0  0  0  0
   37.1570   33.6260   32.6870 C   0  0  0  0  0  3  0  0  0  0  0  0
   37.4310   34.1870   33.9150 C   0  0  0  0  0  0  0  0  0  0  0  0
   38.4390   35.6160   34.0720 Cl  0  0  0  0  0  0  0  0  0  0  0  0
   36.9160   33.6410   35.0750 C   0  0  0  0  0  0  0  0  0  0  0  0
   37.1390   34.0910   36.0250 H   0  0  0  0  0  0  0  0  0  0  0  0
  1  2  1  0  0  0  0
  2  3  2  0  0  0  0
  2 16  1  0  0  0  0
  3 11  1  0  0  0  0
  4  5  1  0  0  0  0
  4  3  1  0  0  0  0
  5 12  1  0  0  0  0
  6 23  1  0  0  0  0
  6  5  1  0  0  0  0
  7  8  1  0  0  0  0
  7  6  2  0  0  0  0
  8  4  2  0  0  0  0
  9  8  1  0  0  0  0
  9  1  2  0  0  0  0
 10  1  1  0  0  0  0
 13  9  1  0  0  0  0
 14 19  1  0  0  0  0
 15 16  1  0  0  0  0
 15 14  2  0  0  0  0
 16 17  2  0  0  0  0
 17 18  1  0  0  0  0
 18 22  1  0  0  0  0
 19 18  2  0  0  0  0
 20 14  1  0  0  0  0
 21 15  1  0  0  0  0
 23 26  1  0  0  0  0
 25 32  1  0  0  0  0
 25 24  1  0  0  0  0
 26 25  2  0  0  0  0
 27 29  2  0  0  0  0
 27 26  1  0  0  0  0
 28 27  1  0  0  0  0
 29 30  1  0  0  0  0
 30 31  1  0  0  0  0
 30 32  2  0  0  0  0
 32 33  1  0  0  0  0
M  END
>  <minimizedAffinity>
-5.55486727

$$$$
