
 OpenBabel03272501293D

 21 22  0  0  0  0  0  0  0  0999 V2000
   37.9900   31.5620   47.4890 C   0  0  0  0  0  0  0  0  0  0  0  0
   38.4290   32.7320   47.5160 O   0  0  0  0  0  0  0  0  0  0  0  0
   40.5550   30.9900   46.0190 Cl  0  0  0  0  0  0  0  0  0  0  0  0
   38.9380   30.6230   45.4330 C   0  0  0  0  0  0  0  0  0  0  0  0
   37.8220   30.9260   46.1870 C   0  0  0  0  0  0  0  0  0  0  0  0
   36.6130   30.5890   45.6160 C   0  0  0  0  0  0  0  0  0  0  0  0
   35.7180   30.8110   46.1770 H   0  0  0  0  0  0  0  0  0  0  0  0
   36.5170   29.9890   44.3800 C   0  0  0  0  0  3  0  0  0  0  0  0
   37.6530   29.6980   43.6520 C   0  0  0  0  0  0  0  0  0  0  0  0
   37.4550   28.9350   42.0870 Cl  0  0  0  0  0  0  0  0  0  0  0  0
   38.8880   30.0160   44.1780 C   0  0  0  0  0  0  0  0  0  0  0  0
   39.7790   29.7900   43.6090 H   0  0  0  0  0  0  0  0  0  0  0  0
   37.7960   30.4190   51.0470 C   0  0  0  0  0  0  0  0  0  0  0  0
   38.1680   31.1690   49.9300 C   0  0  0  0  0  0  0  0  0  0  0  0
   37.6470   30.8290   48.6870 C   0  0  0  0  0  0  0  0  0  0  0  0
   36.8000   29.7770   48.6290 N   0  0  0  0  0  0  0  0  0  0  0  0
   36.4570   29.0680   49.7330 C   0  0  0  0  0  0  0  0  0  0  0  0
   36.9480   29.3820   50.9340 N   0  0  0  0  0  0  0  0  0  0  0  0
   38.2610   30.7740   51.9640 H   0  0  0  0  0  0  0  0  0  0  0  0
   38.8500   32.0140   49.9860 H   0  0  0  0  0  0  0  0  0  0  0  0
   35.7630   28.2180   49.6390 H   0  0  0  0  0  0  0  0  0  0  0  0
  1  2  2  0  0  0  0
  1 15  1  0  0  0  0
  4  3  1  0  0  0  0
  4  5  1  0  0  0  0
  5  1  1  0  0  0  0
  6  7  1  0  0  0  0
  6  5  2  0  0  0  0
  8  6  1  0  0  0  0
  9 11  1  0  0  0  0
  9  8  2  0  0  0  0
 10  9  1  0  0  0  0
 11  4  2  0  0  0  0
 12 11  1  0  0  0  0
 13 19  1  0  0  0  0
 14 20  1  0  0  0  0
 14 13  2  0  0  0  0
 15 14  1  0  0  0  0
 16 15  2  0  0  0  0
 16 17  1  0  0  0  0
 17 18  2  0  0  0  0
 18 13  1  0  0  0  0
 21 17  1  0  0  0  0
M  END
>  <minimizedAffinity>
-4.81367302

>  <minimizedRMSD>
0.670410335

$$$$
