
 OpenBabel03262522153D

 46 49  0  0  1  0  0  0  0  0999 V2000
   39.6550   32.8230   43.8170 C   0  0  0  0  0  0  0  0  0  0  0  0
   39.7850   33.6930   43.1220 H   0  0  0  0  0  0  0  0  0  0  0  0
   38.5890   32.7270   44.0440 H   0  0  0  0  0  0  0  0  0  0  0  0
   38.8640   29.7170   42.3030 C   0  0  1  0  0  0  0  0  0  0  0  0
   39.0350   31.2050   42.0270 C   0  0  0  0  0  0  0  0  0  0  0  0
   40.0590   31.5640   43.0800 C   0  0  2  0  0  0  0  0  0  0  0  0
   40.2250   30.5020   43.9140 O   0  0  0  0  0  0  0  0  0  0  0  0
   39.1080   29.6840   43.8040 C   0  0  0  0  0  0  0  0  0  0  0  0
   39.6360   29.1520   41.7550 H   0  0  0  0  0  0  0  0  0  0  0  0
   39.4840   31.3590   41.0190 H   0  0  0  0  0  0  0  0  0  0  0  0
   38.0980   31.7620   42.1920 H   0  0  0  0  0  0  0  0  0  0  0  0
   41.0410   31.7790   42.5960 H   0  0  0  0  0  0  0  0  0  0  0  0
   38.2100   30.1650   44.2580 H   0  0  0  0  0  0  0  0  0  0  0  0
   39.2960   28.6700   44.1730 H   0  0  0  0  0  0  0  0  0  0  0  0
   37.5890   29.2940   41.9880 O   0  0  0  0  0  0  0  0  0  0  0  0
   35.1560   30.1580   43.3480 Cl  0  0  0  0  0  0  0  0  0  0  0  0
   35.6980   28.5060   43.1660 C   0  0  0  0  0  0  0  0  0  0  0  0
   36.8730   28.2550   42.4950 C   0  0  0  0  0  0  0  0  0  0  0  0
   37.2250   26.9330   42.3970 C   0  0  0  0  0  0  0  0  0  0  0  0
   38.1300   26.6630   41.8870 H   0  0  0  0  0  0  0  0  0  0  0  0
   36.4750   25.9230   42.9220 C   0  0  0  0  0  3  0  0  0  0  0  0
   35.3040   26.2230   43.5870 C   0  0  0  0  0  0  0  0  0  0  0  0
   34.3170   24.9510   44.2730 Cl  0  0  0  0  0  0  0  0  0  0  0  0
   34.9070   27.5360   43.7120 C   0  0  0  0  0  0  0  0  0  0  0  0
   33.9820   27.7790   44.2350 H   0  0  0  0  0  0  0  0  0  0  0  0
   40.7230   32.9750   45.2700 S   0  0  0  0  0  0  0  0  0  0  0  0
   37.7840   31.7520   47.6600 C   0  0  0  0  0  0  0  0  0  0  0  0
   37.9310   32.5580   48.7990 C   0  0  0  0  0  0  0  0  0  0  0  0
   38.9280   33.5070   48.8910 C   0  0  0  0  0  0  0  0  0  0  0  0
   39.7660   33.6130   47.8010 C   0  0  0  0  0  0  0  0  0  0  0  0
   39.6080   32.8260   46.7070 C   0  0  0  0  0  0  0  0  0  0  0  0
   38.6320   31.8920   46.6110 N   0  0  0  0  0  0  0  0  0  0  0  0
   37.2630   32.4590   49.6450 H   0  0  0  0  0  0  0  0  0  0  0  0
   39.0310   34.1230   49.7780 H   0  0  0  0  0  0  0  0  0  0  0  0
   40.5720   34.3360   47.8030 H   0  0  0  0  0  0  0  0  0  0  0  0
   36.7240   30.7940   47.6480 C   0  0  0  0  0  0  0  0  0  0  0  0
   36.2390   30.3890   46.5940 O   0  0  0  0  0  0  0  0  0  0  0  0
   37.0340   29.6390   49.8070 C   0  0  0  0  0  0  0  0  0  0  0  0
   36.1510   30.2390   48.8810 C   0  0  0  0  0  0  0  0  0  0  0  0
   34.7810   30.2790   49.1710 C   0  0  0  0  0  0  0  0  0  0  0  0
   34.3550   29.7300   50.3510 N   0  0  0  0  0  0  0  0  0  0  0  0
   35.2160   29.1650   51.2150 C   0  0  0  0  0  0  0  0  0  0  0  0
   36.5180   29.1230   50.9470 N   0  0  0  0  0  0  0  0  0  0  0  0
   38.0870   29.6250   49.5510 H   0  0  0  0  0  0  0  0  0  0  0  0
   34.1270   30.7320   48.4670 H   0  0  0  0  0  0  0  0  0  0  0  0
   34.9110   28.7240   52.1560 H   0  0  0  0  0  0  0  0  0  0  0  0
  1  3  1  0  0  0  0
  1 26  1  0  0  0  0
  2  1  1  0  0  0  0
  4  9  1  6  0  0  0
  4  8  1  0  0  0  0
  5 11  1  0  0  0  0
  5  4  1  0  0  0  0
  5  6  1  0  0  0  0
  6 12  1  6  0  0  0
  6  1  1  0  0  0  0
  6  7  1  0  0  0  0
  8  7  1  0  0  0  0
  8 14  1  0  0  0  0
  8 13  1  0  0  0  0
 10  5  1  0  0  0  0
 15  4  1  0  0  0  0
 15 18  1  0  0  0  0
 17 16  1  0  0  0  0
 17 24  1  0  0  0  0
 18 17  2  0  0  0  0
 19 18  1  0  0  0  0
 19 21  2  0  0  0  0
 20 19  1  0  0  0  0
 21 22  1  0  0  0  0
 22 24  2  0  0  0  0
 22 23  1  0  0  0  0
 24 25  1  0  0  0  0
 26 31  1  0  0  0  0
 27 28  1  0  0  0  0
 28 29  2  0  0  0  0
 28 33  1  0  0  0  0
 29 34  1  0  0  0  0
 30 35  1  0  0  0  0
 30 29  1  0  0  0  0
 31 30  2  0  0  0  0
 32 31  1  0  0  0  0
 32 27  2  0  0  0  0
 36 27  1  0  0  0  0
 36 39  1  0  0  0  0
 37 36  2  0  0  0  0
 38 43  1  0  0  0  0
 39 40  1  0  0  0  0
 39 38  2  0  0  0  0
 40 41  2  0  0  0  0
 41 42  1  0  0  0  0
 42 46  1  0  0  0  0
 43 42  2  0  0  0  0
 44 38  1  0  0  0  0
 45 40  1  0  0  0  0
M  END
>  <minimizedAffinity>
-5.44744492

>  <minimizedRMSD>
1.71196949

$$$$
