
 OpenBabel03272510033D

 22 23  0  0  0  0  0  0  0  0999 V2000
   40.3920   22.5260   35.7680 C   0  0  0  0  0  0  0  0  0  0  0  0
   39.8920   23.2760   34.6780 C   0  0  0  0  0  0  0  0  0  0  0  0
   38.8750   24.1850   34.9200 C   0  0  0  0  0  0  0  0  0  0  0  0
   38.4400   24.2810   36.1990 N   0  0  0  0  0  0  0  0  0  0  0  0
   38.9220   23.5680   37.2190 C   0  0  0  0  0  0  0  0  0  0  0  0
   39.9020   22.6860   37.0010 N   0  0  0  0  0  0  0  0  0  0  0  0
   41.1790   21.8300   35.5460 H   0  0  0  0  0  0  0  0  0  0  0  0
   40.2830   23.1460   33.6960 H   0  0  0  0  0  0  0  0  0  0  0  0
   39.5250   27.1550   35.1040 Cl  0  0  0  0  0  0  0  0  0  0  0  0
   38.5230   26.3670   33.8770 C   0  0  0  0  0  0  0  0  0  0  0  0
   38.2840   25.0090   33.8780 C   0  0  0  0  0  0  0  0  0  0  0  0
   37.4900   24.5220   32.8720 C   0  0  0  0  0  0  0  0  0  0  0  0
   37.2700   23.4650   32.8220 H   0  0  0  0  0  0  0  0  0  0  0  0
   36.9710   25.3830   31.9220 C   0  0  0  0  0  3  0  0  0  0  0  0
   37.2100   26.7220   31.9280 C   0  0  0  0  0  0  0  0  0  0  0  0
   36.4800   27.6830   30.6520 Cl  0  0  0  0  0  0  0  0  0  0  0  0
   38.0180   27.2320   32.9470 C   0  0  0  0  0  0  0  0  0  0  0  0
   38.1900   28.2990   32.9250 H   0  0  0  0  0  0  0  0  0  0  0  0
   38.3320   23.7960   38.5560 C   0  0  0  0  0  0  0  0  0  0  0  0
   37.4020   22.8170   38.9000 F   0  0  0  0  0  0  0  0  0  0  0  0
   39.2950   23.7770   39.5600 F   0  0  0  0  0  0  0  0  0  0  0  0
   37.6690   25.0000   38.6760 F   0  0  0  0  0  0  0  0  0  0  0  0
  1  6  1  0  0  0  0
  2  3  1  0  0  0  0
  2  1  2  0  0  0  0
  3  4  2  0  0  0  0
  4  5  1  0  0  0  0
  5 19  1  0  0  0  0
  6  5  2  0  0  0  0
  7  1  1  0  0  0  0
  8  2  1  0  0  0  0
 10 11  1  0  0  0  0
 10  9  1  0  0  0  0
 11  3  1  0  0  0  0
 12 11  2  0  0  0  0
 13 12  1  0  0  0  0
 14 15  2  0  0  0  0
 14 12  1  0  0  0  0
 15 17  1  0  0  0  0
 16 15  1  0  0  0  0
 17 10  2  0  0  0  0
 18 17  1  0  0  0  0
 19 22  1  0  0  0  0
 19 20  1  0  0  0  0
 19 21  1  0  0  0  0
M  END
>  <minimizedAffinity>
-5.2499671

$$$$

 OpenBabel03272510033D

 22 23  0  0  0  0  0  0  0  0999 V2000
   38.2530   23.6970   38.1970 C   0  0  0  0  0  0  0  0  0  0  0  0
   37.8120   24.3780   37.0400 C   0  0  0  0  0  0  0  0  0  0  0  0
   38.5800   24.2850   35.8910 C   0  0  0  0  0  0  0  0  0  0  0  0
   39.7050   23.5360   35.9740 N   0  0  0  0  0  0  0  0  0  0  0  0
   40.1100   22.8970   37.0720 C   0  0  0  0  0  0  0  0  0  0  0  0
   39.3810   22.9780   38.1890 N   0  0  0  0  0  0  0  0  0  0  0  0
   37.6360   23.7900   39.0710 H   0  0  0  0  0  0  0  0  0  0  0  0
   36.9140   24.9510   37.0480 H   0  0  0  0  0  0  0  0  0  0  0  0
   38.8540   27.3180   35.9130 Cl  0  0  0  0  0  0  0  0  0  0  0  0
   38.3170   26.3160   34.5580 C   0  0  0  0  0  0  0  0  0  0  0  0
   38.2240   24.9430   34.6440 C   0  0  0  0  0  0  0  0  0  0  0  0
   37.7930   24.2820   33.5220 C   0  0  0  0  0  0  0  0  0  0  0  0
   37.7020   23.2060   33.5330 H   0  0  0  0  0  0  0  0  0  0  0  0
   37.4760   24.9940   32.3790 C   0  0  0  0  0  3  0  0  0  0  0  0
   37.5700   26.3490   32.3020 C   0  0  0  0  0  0  0  0  0  0  0  0
   37.1310   27.1060   30.7790 Cl  0  0  0  0  0  0  0  0  0  0  0  0
   38.0070   27.0350   33.4370 C   0  0  0  0  0  0  0  0  0  0  0  0
   38.0720   28.1100   33.3440 H   0  0  0  0  0  0  0  0  0  0  0  0
   41.3680   22.1220   36.9920 C   0  0  0  0  0  0  0  0  0  0  0  0
   41.4550   21.3720   35.8200 F   0  0  0  0  0  0  0  0  0  0  0  0
   42.4880   22.9460   37.0000 F   0  0  0  0  0  0  0  0  0  0  0  0
   41.5370   21.2230   38.0240 F   0  0  0  0  0  0  0  0  0  0  0  0
  1  7  1  0  0  0  0
  2  8  1  0  0  0  0
  2  1  2  0  0  0  0
  3  4  2  0  0  0  0
  3  2  1  0  0  0  0
  4  5  1  0  0  0  0
  5  6  2  0  0  0  0
  6  1  1  0  0  0  0
 10 11  1  0  0  0  0
 10  9  1  0  0  0  0
 11  3  1  0  0  0  0
 12 13  1  0  0  0  0
 12 11  2  0  0  0  0
 14 12  1  0  0  0  0
 15 14  2  0  0  0  0
 15 17  1  0  0  0  0
 16 15  1  0  0  0  0
 17 10  2  0  0  0  0
 18 17  1  0  0  0  0
 19 21  1  0  0  0  0
 19  5  1  0  0  0  0
 19 22  1  0  0  0  0
 20 19  1  0  0  0  0
M  END
>  <minimizedAffinity>
-5.1856823

$$$$

 OpenBabel03272510033D

 22 23  0  0  0  0  0  0  0  0999 V2000
   38.6660   23.5600   38.1040 C   0  0  0  0  0  0  0  0  0  0  0  0
   37.7340   23.1610   37.1190 C   0  0  0  0  0  0  0  0  0  0  0  0
   38.1610   22.2970   36.1240 C   0  0  0  0  0  0  0  0  0  0  0  0
   39.4540   21.9000   36.1800 N   0  0  0  0  0  0  0  0  0  0  0  0
   40.3240   22.2840   37.1170 C   0  0  0  0  0  0  0  0  0  0  0  0
   39.9280   23.1180   38.0830 N   0  0  0  0  0  0  0  0  0  0  0  0
   38.3030   24.2310   38.8610 H   0  0  0  0  0  0  0  0  0  0  0  0
   36.7300   23.5150   37.1380 H   0  0  0  0  0  0  0  0  0  0  0  0
   38.7520   23.4460   33.3660 Cl  0  0  0  0  0  0  0  0  0  0  0  0
   37.4810   22.2850   33.7770 C   0  0  0  0  0  0  0  0  0  0  0  0
   37.2900   21.8210   35.0610 C   0  0  0  0  0  0  0  0  0  0  0  0
   36.2700   20.9250   35.2470 C   0  0  0  0  0  0  0  0  0  0  0  0
   36.0740   20.5280   36.2330 H   0  0  0  0  0  0  0  0  0  0  0  0
   35.4920   20.5290   34.1740 C   0  0  0  0  0  3  0  0  0  0  0  0
   35.6860   20.9910   32.9100 C   0  0  0  0  0  0  0  0  0  0  0  0
   34.6150   20.3920   31.6540 Cl  0  0  0  0  0  0  0  0  0  0  0  0
   36.7210   21.9050   32.7050 C   0  0  0  0  0  0  0  0  0  0  0  0
   36.8520   22.2530   31.6900 H   0  0  0  0  0  0  0  0  0  0  0  0
   41.7030   21.7560   37.0300 C   0  0  0  0  0  0  0  0  0  0  0  0
   42.6610   22.7690   37.0480 F   0  0  0  0  0  0  0  0  0  0  0  0
   42.0100   20.9230   38.1000 F   0  0  0  0  0  0  0  0  0  0  0  0
   41.9520   21.0280   35.8850 F   0  0  0  0  0  0  0  0  0  0  0  0
  1  7  1  0  0  0  0
  2  8  1  0  0  0  0
  2  1  2  0  0  0  0
  3  4  2  0  0  0  0
  3  2  1  0  0  0  0
  4  5  1  0  0  0  0
  5  6  2  0  0  0  0
  6  1  1  0  0  0  0
  9 10  1  0  0  0  0
 10 11  1  0  0  0  0
 11 12  2  0  0  0  0
 11  3  1  0  0  0  0
 12 13  1  0  0  0  0
 14 12  1  0  0  0  0
 15 14  2  0  0  0  0
 16 15  1  0  0  0  0
 17 15  1  0  0  0  0
 17 10  2  0  0  0  0
 18 17  1  0  0  0  0
 19 20  1  0  0  0  0
 19  5  1  0  0  0  0
 19 21  1  0  0  0  0
 22 19  1  0  0  0  0
M  END
>  <minimizedAffinity>
-5.1251297

$$$$

 OpenBabel03272510033D

 22 23  0  0  0  0  0  0  0  0999 V2000
   40.1760   22.4530   35.5110 C   0  0  0  0  0  0  0  0  0  0  0  0
   39.7010   23.2890   34.4750 C   0  0  0  0  0  0  0  0  0  0  0  0
   38.7760   24.2690   34.7950 C   0  0  0  0  0  0  0  0  0  0  0  0
   38.3980   24.3450   36.0940 N   0  0  0  0  0  0  0  0  0  0  0  0
   38.8550   23.5490   37.0620 C   0  0  0  0  0  0  0  0  0  0  0  0
   39.7470   22.5990   36.7700 N   0  0  0  0  0  0  0  0  0  0  0  0
   40.8920   21.7040   35.2300 H   0  0  0  0  0  0  0  0  0  0  0  0
   40.0430   23.1710   33.4740 H   0  0  0  0  0  0  0  0  0  0  0  0
   36.9860   22.9740   32.6990 Cl  0  0  0  0  0  0  0  0  0  0  0  0
   37.3960   24.6910   32.8230 C   0  0  0  0  0  0  0  0  0  0  0  0
   38.2190   25.1850   33.8120 C   0  0  0  0  0  0  0  0  0  0  0  0
   38.4590   26.5350   33.7980 C   0  0  0  0  0  0  0  0  0  0  0  0
   39.0970   26.9770   34.5500 H   0  0  0  0  0  0  0  0  0  0  0  0
   37.8850   27.3290   32.8210 C   0  0  0  0  0  3  0  0  0  0  0  0
   37.0740   26.8340   31.8480 C   0  0  0  0  0  0  0  0  0  0  0  0
   36.4210   27.9720   30.6810 Cl  0  0  0  0  0  0  0  0  0  0  0  0
   36.8210   25.4610   31.8510 C   0  0  0  0  0  0  0  0  0  0  0  0
   36.1720   25.0990   31.0650 H   0  0  0  0  0  0  0  0  0  0  0  0
   38.3360   23.7660   38.4310 C   0  0  0  0  0  0  0  0  0  0  0  0
   37.7860   25.0370   38.5940 F   0  0  0  0  0  0  0  0  0  0  0  0
   37.3230   22.8690   38.7520 F   0  0  0  0  0  0  0  0  0  0  0  0
   39.2920   23.6440   39.4170 F   0  0  0  0  0  0  0  0  0  0  0  0
  1  6  1  0  0  0  0
  2  3  1  0  0  0  0
  2  1  2  0  0  0  0
  3  4  2  0  0  0  0
  4  5  1  0  0  0  0
  5 19  1  0  0  0  0
  6  5  2  0  0  0  0
  7  1  1  0  0  0  0
  8  2  1  0  0  0  0
  9 10  1  0  0  0  0
 10 11  1  0  0  0  0
 11  3  1  0  0  0  0
 12 11  2  0  0  0  0
 12 13  1  0  0  0  0
 14 12  1  0  0  0  0
 15 17  1  0  0  0  0
 15 14  2  0  0  0  0
 16 15  1  0  0  0  0
 17 10  2  0  0  0  0
 18 17  1  0  0  0  0
 19 20  1  0  0  0  0
 19 21  1  0  0  0  0
 19 22  1  0  0  0  0
M  END
>  <minimizedAffinity>
-5.05401087

$$$$

 OpenBabel03272510033D

 22 23  0  0  0  0  0  0  0  0999 V2000
   37.5920   27.6700   35.1710 C   0  0  0  0  0  0  0  0  0  0  0  0
   38.4470   26.7190   35.7740 C   0  0  0  0  0  0  0  0  0  0  0  0
   38.6400   25.5090   35.1290 C   0  0  0  0  0  0  0  0  0  0  0  0
   37.9840   25.3350   33.9570 N   0  0  0  0  0  0  0  0  0  0  0  0
   37.1800   26.2410   33.3990 C   0  0  0  0  0  0  0  0  0  0  0  0
   36.9830   27.4140   34.0090 N   0  0  0  0  0  0  0  0  0  0  0  0
   37.4630   28.5970   35.6970 H   0  0  0  0  0  0  0  0  0  0  0  0
   38.9310   26.9250   36.7000 H   0  0  0  0  0  0  0  0  0  0  0  0
   37.3760   23.7840   37.2980 Cl  0  0  0  0  0  0  0  0  0  0  0  0
   39.0120   23.6250   36.6410 C   0  0  0  0  0  0  0  0  0  0  0  0
   39.4970   24.4580   35.6560 C   0  0  0  0  0  0  0  0  0  0  0  0
   40.7810   24.2300   35.2330 C   0  0  0  0  0  0  0  0  0  0  0  0
   41.2140   24.8520   34.4630 H   0  0  0  0  0  0  0  0  0  0  0  0
   41.5230   23.2050   35.7940 C   0  0  0  0  0  3  0  0  0  0  0  0
   41.0370   22.3880   36.7660 C   0  0  0  0  0  0  0  0  0  0  0  0
   42.1020   21.1310   37.3750 Cl  0  0  0  0  0  0  0  0  0  0  0  0
   39.7300   22.6080   37.2060 C   0  0  0  0  0  0  0  0  0  0  0  0
   39.3730   21.9420   37.9790 H   0  0  0  0  0  0  0  0  0  0  0  0
   36.5390   25.8900   32.1120 C   0  0  0  0  0  0  0  0  0  0  0  0
   37.4410   25.9010   31.0490 F   0  0  0  0  0  0  0  0  0  0  0  0
   35.9930   24.6110   32.1360 F   0  0  0  0  0  0  0  0  0  0  0  0
   35.5190   26.7420   31.7450 F   0  0  0  0  0  0  0  0  0  0  0  0
  1  7  1  0  0  0  0
  1  2  1  0  0  0  0
  2  8  1  0  0  0  0
  3 11  1  0  0  0  0
  3  2  2  0  0  0  0
  4  3  1  0  0  0  0
  5  4  2  0  0  0  0
  5  6  1  0  0  0  0
  6  1  2  0  0  0  0
 10 17  1  0  0  0  0
 10  9  1  0  0  0  0
 11 10  2  0  0  0  0
 12 11  1  0  0  0  0
 12 14  2  0  0  0  0
 13 12  1  0  0  0  0
 14 15  1  0  0  0  0
 15 17  2  0  0  0  0
 15 16  1  0  0  0  0
 17 18  1  0  0  0  0
 19 21  1  0  0  0  0
 19  5  1  0  0  0  0
 20 19  1  0  0  0  0
 22 19  1  0  0  0  0
M  END
>  <minimizedAffinity>
-4.97869158

$$$$

 OpenBabel03272510033D

 22 23  0  0  0  0  0  0  0  0999 V2000
   37.8950   22.5370   34.8840 C   0  0  0  0  0  0  0  0  0  0  0  0
   38.9280   23.2730   34.2600 C   0  0  0  0  0  0  0  0  0  0  0  0
   39.7020   24.1110   35.0450 C   0  0  0  0  0  0  0  0  0  0  0  0
   39.4010   24.1550   36.3650 N   0  0  0  0  0  0  0  0  0  0  0  0
   38.4230   23.4540   36.9410 C   0  0  0  0  0  0  0  0  0  0  0  0
   37.6660   22.6420   36.1980 N   0  0  0  0  0  0  0  0  0  0  0  0
   37.3130   21.8970   34.2480 H   0  0  0  0  0  0  0  0  0  0  0  0
   39.1070   23.1880   33.2140 H   0  0  0  0  0  0  0  0  0  0  0  0
   39.1850   27.1120   35.0030 Cl  0  0  0  0  0  0  0  0  0  0  0  0
   40.6490   26.2840   34.4530 C   0  0  0  0  0  0  0  0  0  0  0  0
   40.7910   24.9150   34.5110 C   0  0  0  0  0  0  0  0  0  0  0  0
   41.9740   24.3970   34.0530 C   0  0  0  0  0  0  0  0  0  0  0  0
   42.1400   23.3290   34.0760 H   0  0  0  0  0  0  0  0  0  0  0  0
   42.9550   25.2400   33.5620 C   0  0  0  0  0  3  0  0  0  0  0  0
   42.8070   26.5910   33.5060 C   0  0  0  0  0  0  0  0  0  0  0  0
   44.1440   27.5260   32.8560 Cl  0  0  0  0  0  0  0  0  0  0  0  0
   41.6070   27.1320   33.9700 C   0  0  0  0  0  0  0  0  0  0  0  0
   41.5200   28.2090   33.9140 H   0  0  0  0  0  0  0  0  0  0  0  0
   38.2270   23.6200   38.3990 C   0  0  0  0  0  0  0  0  0  0  0  0
   37.7450   24.8860   38.7280 F   0  0  0  0  0  0  0  0  0  0  0  0
   37.2990   22.7160   38.9050 F   0  0  0  0  0  0  0  0  0  0  0  0
   39.3780   23.4540   39.1400 F   0  0  0  0  0  0  0  0  0  0  0  0
  1  6  1  0  0  0  0
  2  1  2  0  0  0  0
  2  3  1  0  0  0  0
  3  4  2  0  0  0  0
  4  5  1  0  0  0  0
  5 19  1  0  0  0  0
  6  5  2  0  0  0  0
  7  1  1  0  0  0  0
  8  2  1  0  0  0  0
 10 11  1  0  0  0  0
 10  9  1  0  0  0  0
 11  3  1  0  0  0  0
 12 13  1  0  0  0  0
 12 11  2  0  0  0  0
 14 12  1  0  0  0  0
 15 14  2  0  0  0  0
 15 17  1  0  0  0  0
 16 15  1  0  0  0  0
 17 10  2  0  0  0  0
 18 17  1  0  0  0  0
 19 20  1  0  0  0  0
 19 21  1  0  0  0  0
 19 22  1  0  0  0  0
M  END
>  <minimizedAffinity>
-4.96892834

$$$$

 OpenBabel03272510033D

 22 23  0  0  0  0  0  0  0  0999 V2000
   38.6880   23.2040   38.2740 C   0  0  0  0  0  0  0  0  0  0  0  0
   38.0620   24.1850   37.4720 C   0  0  0  0  0  0  0  0  0  0  0  0
   38.7080   24.5980   36.3180 C   0  0  0  0  0  0  0  0  0  0  0  0
   39.9010   24.0170   36.0510 N   0  0  0  0  0  0  0  0  0  0  0  0
   40.4810   23.0910   36.8170 C   0  0  0  0  0  0  0  0  0  0  0  0
   39.8710   22.6830   37.9340 N   0  0  0  0  0  0  0  0  0  0  0  0
   38.1610   22.9060   39.1620 H   0  0  0  0  0  0  0  0  0  0  0  0
   37.1190   24.5990   37.7450 H   0  0  0  0  0  0  0  0  0  0  0  0
   37.8690   23.5510   33.5840 Cl  0  0  0  0  0  0  0  0  0  0  0  0
   37.7500   25.2200   34.1570 C   0  0  0  0  0  0  0  0  0  0  0  0
   38.1590   25.6000   35.4180 C   0  0  0  0  0  0  0  0  0  0  0  0
   38.0140   26.9250   35.7400 C   0  0  0  0  0  0  0  0  0  0  0  0
   38.3170   27.2780   36.7150 H   0  0  0  0  0  0  0  0  0  0  0  0
   37.4810   27.8070   34.8180 C   0  0  0  0  0  3  0  0  0  0  0  0
   37.0800   27.4250   33.5750 C   0  0  0  0  0  0  0  0  0  0  0  0
   36.4220   28.6640   32.5190 Cl  0  0  0  0  0  0  0  0  0  0  0  0
   37.2220   26.0790   33.2330 C   0  0  0  0  0  0  0  0  0  0  0  0
   36.8940   25.8060   32.2400 H   0  0  0  0  0  0  0  0  0  0  0  0
   41.7910   22.5600   36.3790 C   0  0  0  0  0  0  0  0  0  0  0  0
   42.8300   23.4630   36.5990 F   0  0  0  0  0  0  0  0  0  0  0  0
   42.1390   21.4030   37.0690 F   0  0  0  0  0  0  0  0  0  0  0  0
   41.8460   22.2450   35.0380 F   0  0  0  0  0  0  0  0  0  0  0  0
  1  7  1  0  0  0  0
  2  8  1  0  0  0  0
  2  1  2  0  0  0  0
  3  2  1  0  0  0  0
  4  3  2  0  0  0  0
  4  5  1  0  0  0  0
  5  6  2  0  0  0  0
  6  1  1  0  0  0  0
  9 10  1  0  0  0  0
 10 11  1  0  0  0  0
 11 12  2  0  0  0  0
 11  3  1  0  0  0  0
 12 13  1  0  0  0  0
 14 12  1  0  0  0  0
 15 14  2  0  0  0  0
 16 15  1  0  0  0  0
 17 15  1  0  0  0  0
 17 10  2  0  0  0  0
 18 17  1  0  0  0  0
 19 20  1  0  0  0  0
 19  5  1  0  0  0  0
 19 21  1  0  0  0  0
 22 19  1  0  0  0  0
M  END
>  <minimizedAffinity>
-4.94857359

$$$$

 OpenBabel03272510033D

 22 23  0  0  0  0  0  0  0  0999 V2000
   36.1350   27.6550   31.7640 C   0  0  0  0  0  0  0  0  0  0  0  0
   36.0770   26.3280   31.2820 C   0  0  0  0  0  0  0  0  0  0  0  0
   36.6280   25.3230   32.0600 C   0  0  0  0  0  0  0  0  0  0  0  0
   37.1830   25.7020   33.2350 N   0  0  0  0  0  0  0  0  0  0  0  0
   37.2310   26.9590   33.6790 C   0  0  0  0  0  0  0  0  0  0  0  0
   36.7040   27.9400   32.9400 N   0  0  0  0  0  0  0  0  0  0  0  0
   35.6990   28.4100   31.1370 H   0  0  0  0  0  0  0  0  0  0  0  0
   35.6230   26.1030   30.3450 H   0  0  0  0  0  0  0  0  0  0  0  0
   39.3050   24.2620   31.0680 Cl  0  0  0  0  0  0  0  0  0  0  0  0
   37.7930   23.3530   31.2020 C   0  0  0  0  0  0  0  0  0  0  0  0
   36.6260   23.9230   31.6640 C   0  0  0  0  0  0  0  0  0  0  0  0
   35.5230   23.1110   31.7190 C   0  0  0  0  0  0  0  0  0  0  0  0
   34.5810   23.5050   32.0740 H   0  0  0  0  0  0  0  0  0  0  0  0
   35.6160   21.7900   31.3210 C   0  0  0  0  0  3  0  0  0  0  0  0
   36.7710   21.2340   30.8660 C   0  0  0  0  0  0  0  0  0  0  0  0
   36.7270   19.5420   30.3990 Cl  0  0  0  0  0  0  0  0  0  0  0  0
   37.9020   22.0500   30.8040 C   0  0  0  0  0  0  0  0  0  0  0  0
   38.8050   21.5790   30.4390 H   0  0  0  0  0  0  0  0  0  0  0  0
   37.8770   27.2010   34.9880 C   0  0  0  0  0  0  0  0  0  0  0  0
   39.2620   27.3120   34.8840 F   0  0  0  0  0  0  0  0  0  0  0  0
   37.4430   28.3870   35.5710 F   0  0  0  0  0  0  0  0  0  0  0  0
   37.6510   26.2060   35.9150 F   0  0  0  0  0  0  0  0  0  0  0  0
  1  6  1  0  0  0  0
  2  1  2  0  0  0  0
  2  3  1  0  0  0  0
  3  4  2  0  0  0  0
  4  5  1  0  0  0  0
  5 19  1  0  0  0  0
  6  5  2  0  0  0  0
  7  1  1  0  0  0  0
  8  2  1  0  0  0  0
  9 10  1  0  0  0  0
 10 11  1  0  0  0  0
 11 12  2  0  0  0  0
 11  3  1  0  0  0  0
 12 13  1  0  0  0  0
 14 12  1  0  0  0  0
 15 14  2  0  0  0  0
 16 15  1  0  0  0  0
 17 15  1  0  0  0  0
 17 10  2  0  0  0  0
 18 17  1  0  0  0  0
 19 21  1  0  0  0  0
 19 22  1  0  0  0  0
 20 19  1  0  0  0  0
M  END
>  <minimizedAffinity>
-4.82277775

$$$$

 OpenBabel03272510033D

 22 23  0  0  0  0  0  0  0  0999 V2000
   37.0120   27.2100   33.6080 C   0  0  0  0  0  0  0  0  0  0  0  0
   36.4210   28.1030   34.5310 C   0  0  0  0  0  0  0  0  0  0  0  0
   35.9820   29.3310   34.0660 C   0  0  0  0  0  0  0  0  0  0  0  0
   36.1570   29.5770   32.7450 N   0  0  0  0  0  0  0  0  0  0  0  0
   36.7160   28.7250   31.8850 C   0  0  0  0  0  0  0  0  0  0  0  0
   37.1460   27.5360   32.3180 N   0  0  0  0  0  0  0  0  0  0  0  0
   37.3430   26.2670   34.0010 H   0  0  0  0  0  0  0  0  0  0  0  0
   36.3160   27.8410   35.5580 H   0  0  0  0  0  0  0  0  0  0  0  0
   32.9370   29.3740   33.9890 Cl  0  0  0  0  0  0  0  0  0  0  0  0
   33.9840   30.4220   34.9570 C   0  0  0  0  0  0  0  0  0  0  0  0
   35.3590   30.3270   34.9240 C   0  0  0  0  0  0  0  0  0  0  0  0
   36.0570   31.1980   35.7200 C   0  0  0  0  0  0  0  0  0  0  0  0
   37.1360   31.1690   35.7340 H   0  0  0  0  0  0  0  0  0  0  0  0
   35.3780   32.1130   36.5050 C   0  0  0  0  0  3  0  0  0  0  0  0
   34.0200   32.2010   36.5320 C   0  0  0  0  0  0  0  0  0  0  0  0
   33.3070   33.4150   37.5810 Cl  0  0  0  0  0  0  0  0  0  0  0  0
   33.2970   31.3200   35.7250 C   0  0  0  0  0  0  0  0  0  0  0  0
   32.2210   31.4140   35.7690 H   0  0  0  0  0  0  0  0  0  0  0  0
   36.8320   29.1520   30.4730 C   0  0  0  0  0  0  0  0  0  0  0  0
   38.0990   29.6500   30.1720 F   0  0  0  0  0  0  0  0  0  0  0  0
   36.6170   28.0990   29.5910 F   0  0  0  0  0  0  0  0  0  0  0  0
   35.9460   30.1470   30.1160 F   0  0  0  0  0  0  0  0  0  0  0  0
  1  7  1  0  0  0  0
  1  2  1  0  0  0  0
  2  8  1  0  0  0  0
  3  2  2  0  0  0  0
  3 11  1  0  0  0  0
  4  3  1  0  0  0  0
  5  6  1  0  0  0  0
  5  4  2  0  0  0  0
  6  1  2  0  0  0  0
  9 10  1  0  0  0  0
 10 17  1  0  0  0  0
 11 10  2  0  0  0  0
 11 12  1  0  0  0  0
 12 13  1  0  0  0  0
 12 14  2  0  0  0  0
 14 15  1  0  0  0  0
 15 16  1  0  0  0  0
 17 18  1  0  0  0  0
 17 15  2  0  0  0  0
 19  5  1  0  0  0  0
 20 19  1  0  0  0  0
 21 19  1  0  0  0  0
 22 19  1  0  0  0  0
M  END
>  <minimizedAffinity>
-4.78530502

$$$$
