
 OpenBabel03272500133D

 22 23  0  0  0  0  0  0  0  0999 V2000
   38.1030   25.9620   36.6220 C   0  0  0  0  0  0  0  0  0  0  0  0
   38.1900   24.5480   36.6600 C   0  0  0  0  0  0  0  0  0  0  0  0
   38.1680   23.8380   35.4510 C   0  0  0  0  0  0  0  0  0  0  0  0
   38.0650   24.5610   34.2990 N   0  0  0  0  0  0  0  0  0  0  0  0
   37.9850   25.8950   34.2810 C   0  0  0  0  0  0  0  0  0  0  0  0
   38.0030   26.5920   35.4230 N   0  0  0  0  0  0  0  0  0  0  0  0
   38.1180   26.5270   37.5440 H   0  0  0  0  0  0  0  0  0  0  0  0
   38.2340   22.7620   35.4970 H   0  0  0  0  0  0  0  0  0  0  0  0
   40.5750   26.9810   33.1460 Cl  0  0  0  0  0  0  0  0  0  0  0  0
   39.0010   27.1160   32.3810 C   0  0  0  0  0  0  0  0  0  0  0  0
   37.8770   26.5770   32.9950 C   0  0  0  0  0  0  0  0  0  0  0  0
   36.6110   26.6660   32.4140 C   0  0  0  0  0  0  0  0  0  0  0  0
   35.7470   26.2430   32.9040 H   0  0  0  0  0  0  0  0  0  0  0  0
   36.5190   27.3180   31.1910 C   0  0  0  0  0  3  0  0  0  0  0  0
   37.6200   27.8610   30.5600 C   0  0  0  0  0  0  0  0  0  0  0  0
   37.4090   28.6640   29.0200 Cl  0  0  0  0  0  0  0  0  0  0  0  0
   38.8700   27.7560   31.1660 C   0  0  0  0  0  0  0  0  0  0  0  0
   39.7350   28.1850   30.6660 H   0  0  0  0  0  0  0  0  0  0  0  0
   38.2980   23.8920   37.9990 C   0  0  0  0  0  0  0  0  0  0  0  0
   38.0860   24.8450   39.0130 F   0  0  0  0  0  0  0  0  0  0  0  0
   37.3030   22.9570   38.1030 F   0  0  0  0  0  0  0  0  0  0  0  0
   39.5210   23.3060   38.2120 F   0  0  0  0  0  0  0  0  0  0  0  0
  1  2  1  0  0  0  0
  1  7  1  0  0  0  0
  2 19  1  0  0  0  0
  3  8  1  0  0  0  0
  3  2  2  0  0  0  0
  4  3  1  0  0  0  0
  5  4  2  0  0  0  0
  5  6  1  0  0  0  0
  6  1  2  0  0  0  0
 10 11  1  0  0  0  0
 10  9  1  0  0  0  0
 11  5  1  0  0  0  0
 12 13  1  0  0  0  0
 12 11  2  0  0  0  0
 14 12  1  0  0  0  0
 15 17  1  0  0  0  0
 15 14  2  0  0  0  0
 16 15  1  0  0  0  0
 17 10  2  0  0  0  0
 18 17  1  0  0  0  0
 19 21  1  0  0  0  0
 19 22  1  0  0  0  0
 19 20  1  0  0  0  0
M  END
>  <minimizedAffinity>
-5.05064821

$$$$

 OpenBabel03272500133D

 22 23  0  0  0  0  0  0  0  0999 V2000
   38.3030   26.2540   36.4830 C   0  0  0  0  0  0  0  0  0  0  0  0
   38.2010   24.8410   36.4440 C   0  0  0  0  0  0  0  0  0  0  0  0
   38.0490   24.2110   35.2000 C   0  0  0  0  0  0  0  0  0  0  0  0
   38.0090   25.0060   34.0930 N   0  0  0  0  0  0  0  0  0  0  0  0
   38.1070   26.3370   34.1480 C   0  0  0  0  0  0  0  0  0  0  0  0
   38.2530   26.9600   35.3240 N   0  0  0  0  0  0  0  0  0  0  0  0
   38.4210   26.7590   37.4320 H   0  0  0  0  0  0  0  0  0  0  0  0
   37.9720   23.1340   35.1870 H   0  0  0  0  0  0  0  0  0  0  0  0
   35.8760   28.3760   33.9520 Cl  0  0  0  0  0  0  0  0  0  0  0  0
   37.0710   28.0630   32.7050 C   0  0  0  0  0  0  0  0  0  0  0  0
   38.0530   27.1010   32.9050 C   0  0  0  0  0  0  0  0  0  0  0  0
   39.0190   26.8270   31.9350 C   0  0  0  0  0  0  0  0  0  0  0  0
   39.7760   26.0750   32.1050 H   0  0  0  0  0  0  0  0  0  0  0  0
   38.9590   27.5580   30.7560 C   0  0  0  0  0  3  0  0  0  0  0  0
   37.9930   28.5190   30.5330 C   0  0  0  0  0  0  0  0  0  0  0  0
   37.9950   29.3920   29.0160 Cl  0  0  0  0  0  0  0  0  0  0  0  0
   37.0440   28.7690   31.5200 C   0  0  0  0  0  0  0  0  0  0  0  0
   36.2850   29.5270   31.3410 H   0  0  0  0  0  0  0  0  0  0  0  0
   38.2610   24.1010   37.7410 C   0  0  0  0  0  0  0  0  0  0  0  0
   38.0560   24.9960   38.8070 F   0  0  0  0  0  0  0  0  0  0  0  0
   37.2370   23.1930   37.7670 F   0  0  0  0  0  0  0  0  0  0  0  0
   39.4610   23.4650   37.9420 F   0  0  0  0  0  0  0  0  0  0  0  0
  1  7  1  0  0  0  0
  2  1  1  0  0  0  0
  2 19  1  0  0  0  0
  3  2  2  0  0  0  0
  4  5  2  0  0  0  0
  4  3  1  0  0  0  0
  5  6  1  0  0  0  0
  6  1  2  0  0  0  0
  8  3  1  0  0  0  0
 10 11  1  0  0  0  0
 10  9  1  0  0  0  0
 11  5  1  0  0  0  0
 12 13  1  0  0  0  0
 12 11  2  0  0  0  0
 14 12  1  0  0  0  0
 15 14  2  0  0  0  0
 15 17  1  0  0  0  0
 16 15  1  0  0  0  0
 17 10  2  0  0  0  0
 18 17  1  0  0  0  0
 19 21  1  0  0  0  0
 19 22  1  0  0  0  0
 19 20  1  0  0  0  0
M  END
>  <minimizedAffinity>
-4.9499898

$$$$

 OpenBabel03272500133D

 22 23  0  0  0  0  0  0  0  0999 V2000
   37.7690   27.5270   35.0660 C   0  0  0  0  0  0  0  0  0  0  0  0
   37.1300   27.2680   33.8290 C   0  0  0  0  0  0  0  0  0  0  0  0
   37.2970   26.0080   33.2350 C   0  0  0  0  0  0  0  0  0  0  0  0
   38.0730   25.1000   33.8940 N   0  0  0  0  0  0  0  0  0  0  0  0
   38.6680   25.3620   35.0620 C   0  0  0  0  0  0  0  0  0  0  0  0
   38.5230   26.5570   35.6450 N   0  0  0  0  0  0  0  0  0  0  0  0
   37.6530   28.4930   35.5400 H   0  0  0  0  0  0  0  0  0  0  0  0
   36.8030   25.8260   32.2920 H   0  0  0  0  0  0  0  0  0  0  0  0
   37.3960   23.9400   37.4140 Cl  0  0  0  0  0  0  0  0  0  0  0  0
   38.9960   23.6050   36.7760 C   0  0  0  0  0  0  0  0  0  0  0  0
   39.4780   24.3220   35.6880 C   0  0  0  0  0  0  0  0  0  0  0  0
   40.7460   24.0810   35.1550 C   0  0  0  0  0  0  0  0  0  0  0  0
   41.1070   24.6480   34.3090 H   0  0  0  0  0  0  0  0  0  0  0  0
   41.5100   23.0910   35.7580 C   0  0  0  0  0  3  0  0  0  0  0  0
   41.0540   22.3640   36.8400 C   0  0  0  0  0  0  0  0  0  0  0  0
   42.0860   21.1340   37.5350 Cl  0  0  0  0  0  0  0  0  0  0  0  0
   39.7850   22.6280   37.3490 C   0  0  0  0  0  0  0  0  0  0  0  0
   39.4290   22.0540   38.2000 H   0  0  0  0  0  0  0  0  0  0  0  0
   36.3100   28.3620   33.2240 C   0  0  0  0  0  0  0  0  0  0  0  0
   35.9600   29.2960   34.2160 F   0  0  0  0  0  0  0  0  0  0  0  0
   37.0800   29.0160   32.2990 F   0  0  0  0  0  0  0  0  0  0  0  0
   35.1550   27.9060   32.6390 F   0  0  0  0  0  0  0  0  0  0  0  0
  1  7  1  0  0  0  0
  1  6  1  0  0  0  0
  2  1  2  0  0  0  0
  3  2  1  0  0  0  0
  3  4  2  0  0  0  0
  4  5  1  0  0  0  0
  5  6  2  0  0  0  0
  5 11  1  0  0  0  0
  8  3  1  0  0  0  0
 10 17  1  0  0  0  0
 10  9  1  0  0  0  0
 11 10  2  0  0  0  0
 12 11  1  0  0  0  0
 12 14  2  0  0  0  0
 13 12  1  0  0  0  0
 14 15  1  0  0  0  0
 15 17  2  0  0  0  0
 15 16  1  0  0  0  0
 17 18  1  0  0  0  0
 19  2  1  0  0  0  0
 19 20  1  0  0  0  0
 21 19  1  0  0  0  0
 22 19  1  0  0  0  0
M  END
>  <minimizedAffinity>
-4.84486151

$$$$

 OpenBabel03272500133D

 22 23  0  0  0  0  0  0  0  0999 V2000
   40.3170   24.4680   35.2530 C   0  0  0  0  0  0  0  0  0  0  0  0
   39.7330   23.6910   36.2840 C   0  0  0  0  0  0  0  0  0  0  0  0
   38.3750   23.8790   36.5820 C   0  0  0  0  0  0  0  0  0  0  0  0
   37.6930   24.8080   35.8520 N   0  0  0  0  0  0  0  0  0  0  0  0
   38.2600   25.5310   34.8830 C   0  0  0  0  0  0  0  0  0  0  0  0
   39.5540   25.3690   34.5820 N   0  0  0  0  0  0  0  0  0  0  0  0
   41.3630   24.3390   35.0080 H   0  0  0  0  0  0  0  0  0  0  0  0
   37.9450   23.2800   37.3710 H   0  0  0  0  0  0  0  0  0  0  0  0
   37.4730   24.7460   32.0660 Cl  0  0  0  0  0  0  0  0  0  0  0  0
   37.0260   26.2460   32.8580 C   0  0  0  0  0  0  0  0  0  0  0  0
   37.4450   26.5010   34.1580 C   0  0  0  0  0  0  0  0  0  0  0  0
   37.1070   27.6840   34.8190 C   0  0  0  0  0  0  0  0  0  0  0  0
   37.4400   27.8680   35.8300 H   0  0  0  0  0  0  0  0  0  0  0  0
   36.3310   28.6010   34.1210 C   0  0  0  0  0  3  0  0  0  0  0  0
   35.9020   28.3710   32.8290 C   0  0  0  0  0  0  0  0  0  0  0  0
   34.9270   29.5830   32.0280 Cl  0  0  0  0  0  0  0  0  0  0  0  0
   36.2560   27.1820   32.1980 C   0  0  0  0  0  0  0  0  0  0  0  0
   35.9170   27.0040   31.1800 H   0  0  0  0  0  0  0  0  0  0  0  0
   40.6060   22.7110   36.9990 C   0  0  0  0  0  0  0  0  0  0  0  0
   41.9570   22.9890   36.7220 F   0  0  0  0  0  0  0  0  0  0  0  0
   40.4230   22.8740   38.3470 F   0  0  0  0  0  0  0  0  0  0  0  0
   40.3550   21.4090   36.6430 F   0  0  0  0  0  0  0  0  0  0  0  0
  1  2  1  0  0  0  0
  2  3  2  0  0  0  0
  2 19  1  0  0  0  0
  3  8  1  0  0  0  0
  4  3  1  0  0  0  0
  5  4  2  0  0  0  0
  6  5  1  0  0  0  0
  6  1  2  0  0  0  0
  7  1  1  0  0  0  0
  9 10  1  0  0  0  0
 10 11  1  0  0  0  0
 11 12  2  0  0  0  0
 11  5  1  0  0  0  0
 12 13  1  0  0  0  0
 14 12  1  0  0  0  0
 15 14  2  0  0  0  0
 16 15  1  0  0  0  0
 17 15  1  0  0  0  0
 17 10  2  0  0  0  0
 18 17  1  0  0  0  0
 19 21  1  0  0  0  0
 20 19  1  0  0  0  0
 22 19  1  0  0  0  0
M  END
>  <minimizedAffinity>
-4.70641136

$$$$

 OpenBabel03272500133D

 22 23  0  0  0  0  0  0  0  0999 V2000
   38.9830   22.7510   36.2480 C   0  0  0  0  0  0  0  0  0  0  0  0
   38.3820   23.8550   36.9030 C   0  0  0  0  0  0  0  0  0  0  0  0
   37.9370   24.9370   36.1290 C   0  0  0  0  0  0  0  0  0  0  0  0
   38.1130   24.8580   34.7780 N   0  0  0  0  0  0  0  0  0  0  0  0
   38.6810   23.8090   34.1780 C   0  0  0  0  0  0  0  0  0  0  0  0
   39.1130   22.7660   34.8960 N   0  0  0  0  0  0  0  0  0  0  0  0
   39.3330   21.9070   36.8270 H   0  0  0  0  0  0  0  0  0  0  0  0
   37.4820   25.7700   36.6430 H   0  0  0  0  0  0  0  0  0  0  0  0
   36.5110   22.3700   32.6310 Cl  0  0  0  0  0  0  0  0  0  0  0  0
   37.8860   23.1910   31.9150 C   0  0  0  0  0  0  0  0  0  0  0  0
   38.8240   23.8210   32.7250 C   0  0  0  0  0  0  0  0  0  0  0  0
   39.9290   24.4830   32.1890 C   0  0  0  0  0  0  0  0  0  0  0  0
   40.6490   24.9670   32.8320 H   0  0  0  0  0  0  0  0  0  0  0  0
   40.0560   24.4880   30.8060 C   0  0  0  0  0  3  0  0  0  0  0  0
   39.1390   23.8700   29.9790 C   0  0  0  0  0  0  0  0  0  0  0  0
   39.3790   23.9280   28.2460 Cl  0  0  0  0  0  0  0  0  0  0  0  0
   38.0470   23.2180   30.5450 C   0  0  0  0  0  0  0  0  0  0  0  0
   37.3260   22.7320   29.8910 H   0  0  0  0  0  0  0  0  0  0  0  0
   38.2580   23.8000   38.3910 C   0  0  0  0  0  0  0  0  0  0  0  0
   37.3220   22.8130   38.7530 F   0  0  0  0  0  0  0  0  0  0  0  0
   39.4680   23.4250   38.9110 F   0  0  0  0  0  0  0  0  0  0  0  0
   37.8560   24.9920   38.9410 F   0  0  0  0  0  0  0  0  0  0  0  0
  1  7  1  0  0  0  0
  1  2  1  0  0  0  0
  2 19  1  0  0  0  0
  3  8  1  0  0  0  0
  3  2  2  0  0  0  0
  4  3  1  0  0  0  0
  5  4  2  0  0  0  0
  5  6  1  0  0  0  0
  6  1  2  0  0  0  0
 10  9  1  0  0  0  0
 10 11  1  0  0  0  0
 11  5  1  0  0  0  0
 12 11  2  0  0  0  0
 12 13  1  0  0  0  0
 14 12  1  0  0  0  0
 15 17  1  0  0  0  0
 15 14  2  0  0  0  0
 16 15  1  0  0  0  0
 17 10  2  0  0  0  0
 18 17  1  0  0  0  0
 19 20  1  0  0  0  0
 19 21  1  0  0  0  0
 19 22  1  0  0  0  0
M  END
>  <minimizedAffinity>
-4.70538139

$$$$

 OpenBabel03272500133D

 22 23  0  0  0  0  0  0  0  0999 V2000
   34.8090   31.3500   35.8400 C   0  0  0  0  0  0  0  0  0  0  0  0
   33.4810   30.8880   36.0100 C   0  0  0  0  0  0  0  0  0  0  0  0
   32.9780   29.9370   35.1100 C   0  0  0  0  0  0  0  0  0  0  0  0
   33.8080   29.5120   34.1150 N   0  0  0  0  0  0  0  0  0  0  0  0
   35.0590   29.9590   33.9690 C   0  0  0  0  0  0  0  0  0  0  0  0
   35.5590   30.8660   34.8170 N   0  0  0  0  0  0  0  0  0  0  0  0
   35.2150   32.0840   36.5240 H   0  0  0  0  0  0  0  0  0  0  0  0
   31.9640   29.5950   35.2530 H   0  0  0  0  0  0  0  0  0  0  0  0
   36.7650   27.5420   34.6170 Cl  0  0  0  0  0  0  0  0  0  0  0  0
   36.6910   28.3360   33.0540 C   0  0  0  0  0  0  0  0  0  0  0  0
   35.8690   29.4420   32.8710 C   0  0  0  0  0  0  0  0  0  0  0  0
   35.7850   30.0980   31.6410 C   0  0  0  0  0  0  0  0  0  0  0  0
   35.1420   30.9560   31.5150 H   0  0  0  0  0  0  0  0  0  0  0  0
   36.5610   29.5980   30.6030 C   0  0  0  0  0  3  0  0  0  0  0  0
   37.3850   28.5010   30.7590 C   0  0  0  0  0  0  0  0  0  0  0  0
   38.3250   27.9420   29.3930 Cl  0  0  0  0  0  0  0  0  0  0  0  0
   37.4460   27.8700   31.9980 C   0  0  0  0  0  0  0  0  0  0  0  0
   38.0960   27.0060   32.1180 H   0  0  0  0  0  0  0  0  0  0  0  0
   32.6880   31.4450   37.1480 C   0  0  0  0  0  0  0  0  0  0  0  0
   31.4050   31.8090   36.6990 F   0  0  0  0  0  0  0  0  0  0  0  0
   32.5280   30.4600   38.0860 F   0  0  0  0  0  0  0  0  0  0  0  0
   33.2710   32.5490   37.7190 F   0  0  0  0  0  0  0  0  0  0  0  0
  1  2  1  0  0  0  0
  1  7  1  0  0  0  0
  2 19  1  0  0  0  0
  3  8  1  0  0  0  0
  3  2  2  0  0  0  0
  4  3  1  0  0  0  0
  5  4  2  0  0  0  0
  5  6  1  0  0  0  0
  6  1  2  0  0  0  0
 10  9  1  0  0  0  0
 11 10  1  0  0  0  0
 11  5  1  0  0  0  0
 12 11  2  0  0  0  0
 13 12  1  0  0  0  0
 14 15  2  0  0  0  0
 14 12  1  0  0  0  0
 15 17  1  0  0  0  0
 16 15  1  0  0  0  0
 17 18  1  0  0  0  0
 17 10  2  0  0  0  0
 19 22  1  0  0  0  0
 19 21  1  0  0  0  0
 20 19  1  0  0  0  0
M  END
>  <minimizedAffinity>
-4.70052195

$$$$

 OpenBabel03272500133D

 22 23  0  0  0  0  0  0  0  0999 V2000
   35.6160   28.7750   31.9120 C   0  0  0  0  0  0  0  0  0  0  0  0
   36.3790   27.6790   32.3840 C   0  0  0  0  0  0  0  0  0  0  0  0
   36.6830   27.6090   33.7520 C   0  0  0  0  0  0  0  0  0  0  0  0
   36.2180   28.6110   34.5520 N   0  0  0  0  0  0  0  0  0  0  0  0
   35.4990   29.6370   34.0890 C   0  0  0  0  0  0  0  0  0  0  0  0
   35.1980   29.7250   32.7880 N   0  0  0  0  0  0  0  0  0  0  0  0
   35.3720   28.8480   30.8610 H   0  0  0  0  0  0  0  0  0  0  0  0
   37.2660   26.7670   34.0960 H   0  0  0  0  0  0  0  0  0  0  0  0
   32.6320   29.3850   35.0330 Cl  0  0  0  0  0  0  0  0  0  0  0  0
   33.7500   30.6440   35.5260 C   0  0  0  0  0  0  0  0  0  0  0  0
   35.0470   30.6610   35.0270 C   0  0  0  0  0  0  0  0  0  0  0  0
   35.9630   31.6480   35.3980 C   0  0  0  0  0  0  0  0  0  0  0  0
   36.9670   31.6470   35.0010 H   0  0  0  0  0  0  0  0  0  0  0  0
   35.5240   32.6170   36.2900 C   0  0  0  0  0  3  0  0  0  0  0  0
   34.2410   32.6230   36.8000 C   0  0  0  0  0  0  0  0  0  0  0  0
   33.7750   33.8840   37.9200 Cl  0  0  0  0  0  0  0  0  0  0  0  0
   33.3510   31.6250   36.4100 C   0  0  0  0  0  0  0  0  0  0  0  0
   32.3410   31.6320   36.8140 H   0  0  0  0  0  0  0  0  0  0  0  0
   36.8200   26.6560   31.3880 C   0  0  0  0  0  0  0  0  0  0  0  0
   35.6940   26.0610   30.7890 F   0  0  0  0  0  0  0  0  0  0  0  0
   37.5220   27.2910   30.3990 F   0  0  0  0  0  0  0  0  0  0  0  0
   37.5840   25.6600   31.9440 F   0  0  0  0  0  0  0  0  0  0  0  0
  1  2  2  0  0  0  0
  1  6  1  0  0  0  0
  2  3  1  0  0  0  0
  3  8  1  0  0  0  0
  3  4  2  0  0  0  0
  5  4  1  0  0  0  0
  5 11  1  0  0  0  0
  6  5  2  0  0  0  0
  7  1  1  0  0  0  0
  9 10  1  0  0  0  0
 10 17  1  0  0  0  0
 11 12  1  0  0  0  0
 11 10  2  0  0  0  0
 12 14  2  0  0  0  0
 13 12  1  0  0  0  0
 14 15  1  0  0  0  0
 15 16  1  0  0  0  0
 17 15  2  0  0  0  0
 17 18  1  0  0  0  0
 19 22  1  0  0  0  0
 19  2  1  0  0  0  0
 20 19  1  0  0  0  0
 21 19  1  0  0  0  0
M  END
>  <minimizedAffinity>
-4.68934441

$$$$

 OpenBabel03272500133D

 22 23  0  0  0  0  0  0  0  0999 V2000
   37.7900   25.2900   36.2940 C   0  0  0  0  0  0  0  0  0  0  0  0
   38.5400   24.2270   36.8550 C   0  0  0  0  0  0  0  0  0  0  0  0
   39.4850   23.5720   36.0520 C   0  0  0  0  0  0  0  0  0  0  0  0
   39.6250   24.0040   34.7660 N   0  0  0  0  0  0  0  0  0  0  0  0
   38.9090   25.0090   34.2530 C   0  0  0  0  0  0  0  0  0  0  0  0
   38.0020   25.6480   35.0010 N   0  0  0  0  0  0  0  0  0  0  0  0
   37.0560   25.8080   36.8970 H   0  0  0  0  0  0  0  0  0  0  0  0
   40.0480   22.7640   36.4950 H   0  0  0  0  0  0  0  0  0  0  0  0
   40.8980   27.2500   33.8170 Cl  0  0  0  0  0  0  0  0  0  0  0  0
   40.0240   26.4140   32.5460 C   0  0  0  0  0  0  0  0  0  0  0  0
   39.1330   25.3970   32.8640 C   0  0  0  0  0  0  0  0  0  0  0  0
   38.4210   24.7110   31.8780 C   0  0  0  0  0  0  0  0  0  0  0  0
   37.7320   23.9230   32.1410 H   0  0  0  0  0  0  0  0  0  0  0  0
   38.6410   25.0880   30.5600 C   0  0  0  0  0  3  0  0  0  0  0  0
   39.5210   26.0950   30.2180 C   0  0  0  0  0  0  0  0  0  0  0  0
   39.7350   26.5020   28.5290 Cl  0  0  0  0  0  0  0  0  0  0  0  0
   40.2160   26.7600   31.2240 C   0  0  0  0  0  0  0  0  0  0  0  0
   40.9080   27.5530   30.9510 H   0  0  0  0  0  0  0  0  0  0  0  0
   38.2770   23.8640   38.2810 C   0  0  0  0  0  0  0  0  0  0  0  0
   37.2660   22.8870   38.3430 F   0  0  0  0  0  0  0  0  0  0  0  0
   39.4150   23.3090   38.8020 F   0  0  0  0  0  0  0  0  0  0  0  0
   37.8830   24.9350   39.0450 F   0  0  0  0  0  0  0  0  0  0  0  0
  1  2  1  0  0  0  0
  1  7  1  0  0  0  0
  2 19  1  0  0  0  0
  3  8  1  0  0  0  0
  3  2  2  0  0  0  0
  4  3  1  0  0  0  0
  5  4  2  0  0  0  0
  5  6  1  0  0  0  0
  6  1  2  0  0  0  0
 10 11  1  0  0  0  0
 10  9  1  0  0  0  0
 11  5  1  0  0  0  0
 12 13  1  0  0  0  0
 12 11  2  0  0  0  0
 14 12  1  0  0  0  0
 15 14  2  0  0  0  0
 15 17  1  0  0  0  0
 16 15  1  0  0  0  0
 17 10  2  0  0  0  0
 18 17  1  0  0  0  0
 19 20  1  0  0  0  0
 19 21  1  0  0  0  0
 19 22  1  0  0  0  0
M  END
>  <minimizedAffinity>
-4.68431377

$$$$

 OpenBabel03272500133D

 22 23  0  0  0  0  0  0  0  0999 V2000
   38.9580   23.7750   35.7490 C   0  0  0  0  0  0  0  0  0  0  0  0
   38.4250   24.5580   36.8030 C   0  0  0  0  0  0  0  0  0  0  0  0
   38.1510   25.9120   36.5630 C   0  0  0  0  0  0  0  0  0  0  0  0
   38.4180   26.3970   35.3160 N   0  0  0  0  0  0  0  0  0  0  0  0
   38.9200   25.6440   34.3340 C   0  0  0  0  0  0  0  0  0  0  0  0
   39.1890   24.3490   34.5400 N   0  0  0  0  0  0  0  0  0  0  0  0
   39.1770   22.7280   35.9140 H   0  0  0  0  0  0  0  0  0  0  0  0
   37.7460   26.4950   37.3760 H   0  0  0  0  0  0  0  0  0  0  0  0
   36.6170   25.5480   32.3690 Cl  0  0  0  0  0  0  0  0  0  0  0  0
   38.1850   26.2710   32.0540 C   0  0  0  0  0  0  0  0  0  0  0  0
   39.1700   26.2570   33.0330 C   0  0  0  0  0  0  0  0  0  0  0  0
   40.4280   26.8230   32.8160 C   0  0  0  0  0  0  0  0  0  0  0  0
   41.1840   26.8040   33.5870 H   0  0  0  0  0  0  0  0  0  0  0  0
   40.6570   27.4030   31.5750 C   0  0  0  0  0  3  0  0  0  0  0  0
   39.6940   27.4300   30.5850 C   0  0  0  0  0  0  0  0  0  0  0  0
   40.0710   28.1840   29.0520 Cl  0  0  0  0  0  0  0  0  0  0  0  0
   38.4500   26.8570   30.8330 C   0  0  0  0  0  0  0  0  0  0  0  0
   37.6940   26.8800   30.0510 H   0  0  0  0  0  0  0  0  0  0  0  0
   38.1860   23.8880   38.1170 C   0  0  0  0  0  0  0  0  0  0  0  0
   39.3820   23.3110   38.5800 F   0  0  0  0  0  0  0  0  0  0  0  0
   37.8140   24.8430   39.0260 F   0  0  0  0  0  0  0  0  0  0  0  0
   37.2320   22.9030   38.0520 F   0  0  0  0  0  0  0  0  0  0  0  0
  1  7  1  0  0  0  0
  1  2  1  0  0  0  0
  2 19  1  0  0  0  0
  3  2  2  0  0  0  0
  3  8  1  0  0  0  0
  4  3  1  0  0  0  0
  5  6  1  0  0  0  0
  5  4  2  0  0  0  0
  6  1  2  0  0  0  0
 10  9  1  0  0  0  0
 10 11  1  0  0  0  0
 11  5  1  0  0  0  0
 12 11  2  0  0  0  0
 12 13  1  0  0  0  0
 14 12  1  0  0  0  0
 15 17  1  0  0  0  0
 15 14  2  0  0  0  0
 16 15  1  0  0  0  0
 17 10  2  0  0  0  0
 18 17  1  0  0  0  0
 19 20  1  0  0  0  0
 19 21  1  0  0  0  0
 22 19  1  0  0  0  0
M  END
>  <minimizedAffinity>
-4.66887665

$$$$
