
 OpenBabel03272501573D

 32 34  0  0  0  0  0  0  0  0999 V2000
   32.9580   27.5010   47.9830 C   0  0  0  0  0  0  0  0  0  0  0  0
   32.3150   26.2880   47.7930 C   0  0  0  0  0  0  0  0  0  0  0  0
   31.0360   26.4770   47.3080 C   0  0  0  0  0  0  0  0  0  0  0  0
   30.9420   27.8180   47.2170 N   0  0  0  0  0  0  0  0  0  0  0  0
   32.0480   28.4290   47.6050 N   0  0  0  0  0  0  0  0  0  0  0  0
   32.7090   25.2770   47.9820 H   0  0  0  0  0  0  0  0  0  0  0  0
   30.2330   25.8420   47.0340 H   0  0  0  0  0  0  0  0  0  0  0  0
   28.9410   28.2460   49.3310 Cl  0  0  0  0  0  0  0  0  0  0  0  0
   28.9290   28.9550   47.7380 C   0  0  0  0  0  0  0  0  0  0  0  0
   29.9090   28.7040   46.7950 C   0  0  0  0  0  0  0  0  0  0  0  0
   29.8560   29.2960   45.5320 C   0  0  0  0  0  0  0  0  0  0  0  0
   30.6840   29.0110   44.9020 H   0  0  0  0  0  0  0  0  0  0  0  0
   28.8130   30.1440   45.2110 C   0  0  0  0  0  3  0  0  0  0  0  0
   27.8270   30.4000   46.1520 C   0  0  0  0  0  0  0  0  0  0  0  0
   26.5180   31.4910   45.6950 Cl  0  0  0  0  0  0  0  0  0  0  0  0
   27.8800   29.8100   47.4110 C   0  0  0  0  0  0  0  0  0  0  0  0
   27.0930   30.0320   48.1250 H   0  0  0  0  0  0  0  0  0  0  0  0
   34.3670   27.6580   48.5030 C   0  0  0  0  0  0  0  0  0  0  0  0
   34.7690   26.6590   48.8020 H   0  0  0  0  0  0  0  0  0  0  0  0
   35.0010   28.0850   47.7050 H   0  0  0  0  0  0  0  0  0  0  0  0
   34.2810   28.5550   49.6980 C   0  0  0  0  0  0  0  0  0  0  0  0
   34.0380   28.0210   50.6450 H   0  0  0  0  0  0  0  0  0  0  0  0
   33.4940   29.3480   49.5910 H   0  0  0  0  0  0  0  0  0  0  0  0
   37.2390   30.0710   51.3200 C   0  0  0  0  0  0  0  0  0  0  0  0
   38.0170   30.4940   50.2320 C   0  0  0  0  0  0  0  0  0  0  0  0
   37.5010   30.2460   48.9370 C   0  0  0  0  0  0  0  0  0  0  0  0
   36.3070   29.6260   48.8100 N   0  0  0  0  0  0  0  0  0  0  0  0
   35.6020   29.2400   49.9050 C   0  0  0  0  0  0  0  0  0  0  0  0
   36.0700   29.4640   51.1270 N   0  0  0  0  0  0  0  0  0  0  0  0
   37.6810   30.2850   52.2830 H   0  0  0  0  0  0  0  0  0  0  0  0
   38.9610   30.9860   50.2290 H   0  0  0  0  0  0  0  0  0  0  0  0
   37.9570   30.4990   47.9940 H   0  0  0  0  0  0  0  0  0  0  0  0
  1 18  1  0  0  0  0
  2  6  1  0  0  0  0
  2  1  1  0  0  0  0
  3  2  2  0  0  0  0
  4  3  1  0  0  0  0
  4  5  1  0  0  0  0
  5  1  2  0  0  0  0
  7  3  1  0  0  0  0
  9  8  1  0  0  0  0
 10  4  1  0  0  0  0
 10  9  2  0  0  0  0
 11 10  1  0  0  0  0
 12 11  1  0  0  0  0
 13 11  2  0  0  0  0
 13 14  1  0  0  0  0
 14 16  2  0  0  0  0
 15 14  1  0  0  0  0
 16  9  1  0  0  0  0
 16 17  1  0  0  0  0
 18 19  1  0  0  0  0
 18 21  1  0  0  0  0
 20 18  1  0  0  0  0
 21 28  1  0  0  0  0
 21 22  1  0  0  0  0
 23 21  1  0  0  0  0
 24 30  1  0  0  0  0
 25 24  2  0  0  0  0
 26 25  1  0  0  0  0
 27 26  2  0  0  0  0
 27 28  1  0  0  0  0
 28 29  2  0  0  0  0
 29 24  1  0  0  0  0
 31 25  1  0  0  0  0
 32 26  1  0  0  0  0
M  END
>  <minimizedAffinity>
-5.17810965

>  <minimizedRMSD>
1.16988039

$$$$
