
 OpenBabel03272510303D

 29 31  0  0  0  0  0  0  0  0999 V2000
   37.3630   31.3730   49.2330 C   0  0  0  0  0  0  0  0  0  0  0  0
   37.7000   32.6780   49.5990 C   0  0  0  0  0  0  0  0  0  0  0  0
   38.5730   33.3290   48.7570 C   0  0  0  0  0  0  0  0  0  0  0  0
   39.0530   32.6890   47.6390 N   0  0  0  0  0  0  0  0  0  0  0  0
   38.6930   31.4140   47.3250 C   0  0  0  0  0  0  0  0  0  0  0  0
   37.8270   30.7390   48.1420 N   0  0  0  0  0  0  0  0  0  0  0  0
   37.2810   33.1170   50.4970 H   0  0  0  0  0  0  0  0  0  0  0  0
   38.8780   34.3440   48.9810 H   0  0  0  0  0  0  0  0  0  0  0  0
   36.3830   30.6380   50.1130 C   0  0  0  0  0  0  0  0  0  0  0  0
   36.2580   29.2040   50.1240 C   0  0  0  0  0  0  0  0  0  0  0  0
   37.0700   29.8450   51.2350 C   0  0  0  0  0  0  0  0  0  0  0  0
   35.5220   31.2760   50.4490 H   0  0  0  0  0  0  0  0  0  0  0  0
   35.2950   28.7380   50.3650 H   0  0  0  0  0  0  0  0  0  0  0  0
   36.8430   28.6440   49.3410 H   0  0  0  0  0  0  0  0  0  0  0  0
   36.5610   29.9240   52.2020 H   0  0  0  0  0  0  0  0  0  0  0  0
   38.1690   29.7620   51.2390 H   0  0  0  0  0  0  0  0  0  0  0  0
   39.1830   30.7270   46.1320 C   0  0  0  0  0  0  0  0  0  0  0  0
   38.5900   29.7810   45.9650 H   0  0  0  0  0  0  0  0  0  0  0  0
   40.2480   30.4500   46.2080 H   0  0  0  0  0  0  0  0  0  0  0  0
   36.3740   30.4660   44.9430 Cl  0  0  0  0  0  0  0  0  0  0  0  0
   37.6940   31.4480   44.3400 C   0  0  0  0  0  0  0  0  0  0  0  0
   38.9540   31.5510   44.8930 C   0  0  0  0  0  0  0  0  0  0  0  0
   39.8820   32.3740   44.2920 C   0  0  0  0  0  0  0  0  0  0  0  0
   40.8580   32.4160   44.7700 H   0  0  0  0  0  0  0  0  0  0  0  0
   39.5790   33.0840   43.1660 C   0  0  0  0  0  3  0  0  0  0  0  0
   38.3070   32.9890   42.5960 C   0  0  0  0  0  0  0  0  0  0  0  0
   37.9660   33.9180   41.1520 Cl  0  0  0  0  0  0  0  0  0  0  0  0
   37.3620   32.1650   43.1890 C   0  0  0  0  0  0  0  0  0  0  0  0
   36.4020   32.1420   42.6940 H   0  0  0  0  0  0  0  0  0  0  0  0
  1  2  1  0  0  0  0
  1  9  1  0  0  0  0
  2  7  1  0  0  0  0
  3  8  1  0  0  0  0
  3  2  2  0  0  0  0
  4  3  1  0  0  0  0
  5  4  2  0  0  0  0
  5  6  1  0  0  0  0
  6  1  2  0  0  0  0
  9 10  1  0  0  0  0
  9 12  1  0  0  0  0
  9 11  1  0  0  0  0
 10 13  1  0  0  0  0
 10 11  1  0  0  0  0
 11 16  1  0  0  0  0
 11 15  1  0  0  0  0
 14 10  1  0  0  0  0
 17 19  1  0  0  0  0
 17  5  1  0  0  0  0
 18 17  1  0  0  0  0
 21 22  1  0  0  0  0
 21 20  1  0  0  0  0
 22 17  1  0  0  0  0
 23 24  1  0  0  0  0
 23 22  2  0  0  0  0
 25 23  1  0  0  0  0
 26 25  2  0  0  0  0
 26 28  1  0  0  0  0
 27 26  1  0  0  0  0
 28 21  2  0  0  0  0
 29 28  1  0  0  0  0
M  END
>  <minimizedAffinity>
-5.68163824

>  <minimizedRMSD>
1.39980197

$$$$
