
 OpenBabel03272510303D

 29 31  0  0  0  0  0  0  0  0999 V2000
   37.3640   31.3730   49.2320 C   0  0  0  0  0  0  0  0  0  0  0  0
   37.7020   32.6780   49.5990 C   0  0  0  0  0  0  0  0  0  0  0  0
   38.5750   33.3280   48.7560 C   0  0  0  0  0  0  0  0  0  0  0  0
   39.0540   32.6880   47.6380 N   0  0  0  0  0  0  0  0  0  0  0  0
   38.6930   31.4130   47.3250 C   0  0  0  0  0  0  0  0  0  0  0  0
   37.8280   30.7390   48.1420 N   0  0  0  0  0  0  0  0  0  0  0  0
   37.2840   33.1170   50.4970 H   0  0  0  0  0  0  0  0  0  0  0  0
   38.8800   34.3440   48.9800 H   0  0  0  0  0  0  0  0  0  0  0  0
   36.3850   30.6380   50.1130 C   0  0  0  0  0  0  0  0  0  0  0  0
   36.2590   29.2040   50.1250 C   0  0  0  0  0  0  0  0  0  0  0  0
   37.0720   29.8460   51.2350 C   0  0  0  0  0  0  0  0  0  0  0  0
   35.5230   31.2760   50.4480 H   0  0  0  0  0  0  0  0  0  0  0  0
   35.2970   28.7380   50.3650 H   0  0  0  0  0  0  0  0  0  0  0  0
   36.8450   28.6440   49.3420 H   0  0  0  0  0  0  0  0  0  0  0  0
   36.5620   29.9260   52.2020 H   0  0  0  0  0  0  0  0  0  0  0  0
   38.1700   29.7630   51.2400 H   0  0  0  0  0  0  0  0  0  0  0  0
   39.1830   30.7260   46.1310 C   0  0  0  0  0  0  0  0  0  0  0  0
   38.5900   29.7810   45.9640 H   0  0  0  0  0  0  0  0  0  0  0  0
   40.2480   30.4500   46.2070 H   0  0  0  0  0  0  0  0  0  0  0  0
   36.3740   30.4670   44.9430 Cl  0  0  0  0  0  0  0  0  0  0  0  0
   37.6930   31.4480   44.3400 C   0  0  0  0  0  0  0  0  0  0  0  0
   38.9540   31.5510   44.8920 C   0  0  0  0  0  0  0  0  0  0  0  0
   39.8820   32.3730   44.2910 C   0  0  0  0  0  0  0  0  0  0  0  0
   40.8570   32.4160   44.7680 H   0  0  0  0  0  0  0  0  0  0  0  0
   39.5770   33.0840   43.1640 C   0  0  0  0  0  3  0  0  0  0  0  0
   38.3060   32.9880   42.5950 C   0  0  0  0  0  0  0  0  0  0  0  0
   37.9630   33.9180   41.1530 Cl  0  0  0  0  0  0  0  0  0  0  0  0
   37.3610   32.1660   43.1880 C   0  0  0  0  0  0  0  0  0  0  0  0
   36.4000   32.1420   42.6950 H   0  0  0  0  0  0  0  0  0  0  0  0
  1  2  1  0  0  0  0
  1  9  1  0  0  0  0
  2  7  1  0  0  0  0
  3  8  1  0  0  0  0
  3  2  2  0  0  0  0
  4  3  1  0  0  0  0
  5  4  2  0  0  0  0
  5  6  1  0  0  0  0
  6  1  2  0  0  0  0
  9 10  1  0  0  0  0
  9 12  1  0  0  0  0
  9 11  1  0  0  0  0
 10 13  1  0  0  0  0
 10 11  1  0  0  0  0
 11 16  1  0  0  0  0
 11 15  1  0  0  0  0
 14 10  1  0  0  0  0
 17 19  1  0  0  0  0
 17  5  1  0  0  0  0
 18 17  1  0  0  0  0
 21 22  1  0  0  0  0
 21 20  1  0  0  0  0
 22 17  1  0  0  0  0
 23 24  1  0  0  0  0
 23 22  2  0  0  0  0
 25 23  1  0  0  0  0
 26 25  2  0  0  0  0
 26 28  1  0  0  0  0
 27 26  1  0  0  0  0
 28 21  2  0  0  0  0
 29 28  1  0  0  0  0
M  END
>  <minimizedAffinity>
-5.68219662

>  <minimizedRMSD>
1.40839255

$$$$
