
 OpenBabel03272503093D

 46 50  0  0  0  0  0  0  0  0999 V2000
   39.2140   31.9310   44.9350 C   0  0  0  0  0  0  0  0  0  0  0  0
   38.1440   32.5730   45.0760 O   0  0  0  0  0  0  0  0  0  0  0  0
   39.9230   31.6580   46.1480 N   0  0  0  0  0  0  0  0  0  0  0  0
   40.8090   31.1250   46.0870 H   0  0  0  0  0  0  0  0  0  0  0  0
   39.0810   32.2240   42.5650 C   0  0  0  0  0  0  0  0  0  0  0  0
   39.6490   31.5250   43.6210 C   0  0  0  0  0  0  0  0  0  0  0  0
   40.5600   30.5190   43.4370 C   0  0  0  0  0  0  0  0  0  0  0  0
   40.9400   30.1740   42.1500 C   0  0  0  0  0  0  0  0  0  0  0  0
   41.7950   29.2480   41.6840 N   0  0  0  0  0  0  0  0  0  0  0  0
   41.7760   29.3510   40.3420 C   0  0  0  0  0  0  0  0  0  0  0  0
   40.9260   30.3210   39.9870 N   0  0  0  0  0  0  0  0  0  0  0  0
   40.3790   30.8630   41.1010 C   0  0  0  0  0  0  0  0  0  0  0  0
   39.4630   31.8760   41.2730 C   0  0  0  0  0  0  0  0  0  0  0  0
   38.3640   33.0170   42.6850 H   0  0  0  0  0  0  0  0  0  0  0  0
   40.9830   29.9960   44.2790 H   0  0  0  0  0  0  0  0  0  0  0  0
   42.3810   28.5600   42.2240 H   0  0  0  0  0  0  0  0  0  0  0  0
   42.3690   28.7300   39.6700 H   0  0  0  0  0  0  0  0  0  0  0  0
   36.7530   33.2290   41.6160 Cl  0  0  0  0  0  0  0  0  0  0  0  0
   37.6650   33.2710   40.1320 C   0  0  0  0  0  0  0  0  0  0  0  0
   38.8720   32.6040   40.1560 C   0  0  0  0  0  0  0  0  0  0  0  0
   39.6600   32.5940   39.0020 C   0  0  0  0  0  0  0  0  0  0  0  0
   40.6300   32.0940   38.9250 H   0  0  0  0  0  0  0  0  0  0  0  0
   39.1820   33.2610   37.8840 C   0  0  0  0  0  0  0  0  0  0  0  0
   37.9890   33.9320   37.8270 C   0  0  0  0  0  0  0  0  0  0  0  0
   37.4350   34.7580   36.3850 Cl  0  0  0  0  0  0  0  0  0  0  0  0
   37.2420   33.9170   38.9900 C   0  0  0  0  0  0  0  0  0  0  0  0
   36.2950   34.4300   39.0000 H   0  0  0  0  0  0  0  0  0  0  0  0
   38.0950   30.1670   47.4890 F   0  0  0  0  0  0  0  0  0  0  0  0
   38.3640   31.3950   47.9930 C   0  0  0  0  0  0  0  0  0  0  0  0
   37.7260   31.8280   49.1230 C   0  0  0  0  0  0  0  0  0  0  0  0
   38.0480   33.0760   49.5690 C   0  0  0  0  0  0  0  0  0  0  0  0
   38.9600   33.8880   48.9470 C   0  0  0  0  0  0  0  0  0  0  0  0
   39.5910   33.4230   47.8040 C   0  0  0  0  0  0  0  0  0  0  0  0
   39.2940   32.1750   47.3240 C   0  0  0  0  0  0  0  0  0  0  0  0
   37.5500   33.4420   50.4690 H   0  0  0  0  0  0  0  0  0  0  0  0
   39.2180   34.8740   49.2950 H   0  0  0  0  0  0  0  0  0  0  0  0
   40.3300   34.0000   47.2440 H   0  0  0  0  0  0  0  0  0  0  0  0
   36.0990   29.3530   51.4640 C   0  0  0  0  0  0  0  0  0  0  0  0
   37.0520   30.2050   50.8830 C   0  0  0  0  0  0  0  0  0  0  0  0
   36.7570   30.9300   49.7570 C   0  0  0  0  0  0  0  0  0  0  0  0
   35.5080   30.7890   49.2340 N   0  0  0  0  0  0  0  0  0  0  0  0
   34.5900   29.9700   49.7910 C   0  0  0  0  0  0  0  0  0  0  0  0
   34.8940   29.2700   50.8880 N   0  0  0  0  0  0  0  0  0  0  0  0
   36.4220   28.8260   52.3430 H   0  0  0  0  0  0  0  0  0  0  0  0
   38.0380   30.3080   51.3060 H   0  0  0  0  0  0  0  0  0  0  0  0
   33.6030   29.8890   49.3370 H   0  0  0  0  0  0  0  0  0  0  0  0
  1  2  2  0  0  0  0
  1  3  1  0  0  0  0
  3 34  1  0  0  0  0
  4  3  1  0  0  0  0
  5 14  1  0  0  0  0
  5  6  1  0  0  0  0
  6  1  1  0  0  0  0
  7  6  2  0  0  0  0
  7 15  1  0  0  0  0
  8  7  1  0  0  0  0
  9  8  1  0  0  0  0
  9 16  1  0  0  0  0
 10  9  1  0  0  0  0
 11 10  2  0  0  0  0
 11 12  1  0  0  0  0
 12 13  1  0  0  0  0
 12  8  2  0  0  0  0
 13  5  2  0  0  0  0
 17 10  1  0  0  0  0
 19 20  1  0  0  0  0
 19 18  1  0  0  0  0
 20 13  1  0  0  0  0
 21 20  2  0  0  0  0
 22 21  1  0  0  0  0
 23 21  1  0  0  0  0
 24 23  2  0  0  0  0
 24 26  1  0  0  0  0
 25 24  1  0  0  0  0
 26 27  1  0  0  0  0
 26 19  2  0  0  0  0
 28 29  1  0  0  0  0
 29 30  1  0  0  0  0
 30 31  2  0  0  0  0
 30 40  1  0  0  0  0
 31 35  1  0  0  0  0
 32 36  1  0  0  0  0
 32 31  1  0  0  0  0
 33 32  2  0  0  0  0
 34 33  1  0  0  0  0
 34 29  2  0  0  0  0
 37 33  1  0  0  0  0
 38 44  1  0  0  0  0
 39 45  1  0  0  0  0
 39 38  2  0  0  0  0
 40 39  1  0  0  0  0
 41 40  2  0  0  0  0
 41 42  1  0  0  0  0
 42 43  2  0  0  0  0
 43 38  1  0  0  0  0
 46 42  1  0  0  0  0
M  END
>  <minimizedAffinity>
-7.5800662

>  <minimizedRMSD>
0.178813428

$$$$
