
 OpenBabel03272508373D

 45 48  0  0  1  0  0  0  0  0999 V2000
   39.8400   32.1030   42.9780 N   0  0  0  0  0  0  0  0  0  0  0  0
   39.0150   33.2160   42.6980 C   0  0  0  0  0  0  0  0  0  0  0  0
   37.6240   32.9320   42.2820 C   0  0  0  0  0  0  0  0  0  0  0  0
   37.5320   31.8180   41.4520 O   0  0  0  0  0  0  0  0  0  0  0  0
   38.0740   30.7190   42.0260 C   0  0  0  0  0  0  0  0  0  0  0  0
   39.5390   30.9250   42.3000 C   0  0  1  0  0  0  0  0  0  0  0  0
   39.5210   33.5830   41.7670 H   0  0  0  0  0  0  0  0  0  0  0  0
   39.1260   34.1250   43.2970 H   0  0  0  0  0  0  0  0  0  0  0  0
   37.3720   33.7390   41.4850 H   0  0  0  0  0  0  0  0  0  0  0  0
   36.7970   33.1590   42.9280 H   0  0  0  0  0  0  0  0  0  0  0  0
   37.4990   30.1930   42.7790 H   0  0  0  0  0  0  0  0  0  0  0  0
   38.0320   29.9780   41.1880 H   0  0  0  0  0  0  0  0  0  0  0  0
   39.6690   30.1390   43.1580 H   0  0  0  0  0  0  0  0  0  0  0  0
   39.7260   32.2020   39.4590 Cl  0  0  0  0  0  0  0  0  0  0  0  0
   40.5910   30.8180   40.0080 C   0  0  0  0  0  0  0  0  0  0  0  0
   40.3980   30.3350   41.2860 C   0  0  0  0  0  0  0  0  0  0  0  0
   41.1890   29.1840   41.4860 C   0  0  0  0  0  0  0  0  0  0  0  0
   41.1280   28.6960   42.4750 H   0  0  0  0  0  0  0  0  0  0  0  0
   42.0460   28.5760   40.5960 C   0  0  0  0  0  3  0  0  0  0  0  0
   42.1590   29.1460   39.3480 C   0  0  0  0  0  0  0  0  0  0  0  0
   43.2390   28.3860   38.2150 Cl  0  0  0  0  0  0  0  0  0  0  0  0
   41.4310   30.2630   39.0640 C   0  0  0  0  0  0  0  0  0  0  0  0
   41.5730   30.6540   38.0650 H   0  0  0  0  0  0  0  0  0  0  0  0
   40.2990   32.0050   44.3190 C   0  0  0  0  0  0  0  0  0  0  0  0
   41.4160   32.0910   44.4140 H   0  0  0  0  0  0  0  0  0  0  0  0
   40.1550   30.9090   44.5750 H   0  0  0  0  0  0  0  0  0  0  0  0
   39.6650   32.8010   45.3550 C   0  0  0  0  0  0  0  0  0  0  0  0
   40.4410   33.1430   46.1180 H   0  0  0  0  0  0  0  0  0  0  0  0
   39.1160   33.7130   45.1700 H   0  0  0  0  0  0  0  0  0  0  0  0
   37.7290   31.0120   47.7860 C   0  0  0  0  0  0  0  0  0  0  0  0
   37.0040   30.7510   46.6390 C   0  0  0  0  0  0  0  0  0  0  0  0
   37.6620   31.3970   45.5850 C   0  0  0  0  0  0  0  0  0  0  0  0
   38.7170   31.9990   46.1240 N   0  0  0  0  0  0  0  0  0  0  0  0
   38.7540   31.7670   47.4360 N   0  0  0  0  0  0  0  0  0  0  0  0
   36.0790   30.1430   46.5820 H   0  0  0  0  0  0  0  0  0  0  0  0
   37.2360   31.2910   44.6590 H   0  0  0  0  0  0  0  0  0  0  0  0
   37.5140   30.2440   51.4610 C   0  0  0  0  0  0  0  0  0  0  0  0
   37.9910   30.7970   50.2660 C   0  0  0  0  0  0  0  0  0  0  0  0
   37.3430   30.5040   49.0790 C   0  0  0  0  0  0  0  0  0  0  0  0
   36.2670   29.6770   49.1880 N   0  0  0  0  0  0  0  0  0  0  0  0
   35.8220   29.1550   50.3460 C   0  0  0  0  0  0  0  0  0  0  0  0
   36.4570   29.4480   51.4770 N   0  0  0  0  0  0  0  0  0  0  0  0
   38.1370   30.5770   52.3020 H   0  0  0  0  0  0  0  0  0  0  0  0
   38.8440   31.4540   50.1650 H   0  0  0  0  0  0  0  0  0  0  0  0
   34.9570   28.5080   50.3280 H   0  0  0  0  0  0  0  0  0  0  0  0
  1 24  1  0  0  0  0
  2  1  1  0  0  0  0
  2  8  1  0  0  0  0
  3  2  1  0  0  0  0
  3 10  1  0  0  0  0
  4  5  1  0  0  0  0
  4  3  1  0  0  0  0
  5  6  1  0  0  0  0
  5 11  1  0  0  0  0
  6  1  1  0  0  0  0
  6 13  1  1  0  0  0
  7  2  1  0  0  0  0
  9  3  1  0  0  0  0
 12  5  1  0  0  0  0
 14 15  1  0  0  0  0
 15 16  1  0  0  0  0
 16 17  2  0  0  0  0
 16  6  1  0  0  0  0
 17 18  1  0  0  0  0
 19 17  1  0  0  0  0
 20 19  2  0  0  0  0
 21 20  1  0  0  0  0
 22 20  1  0  0  0  0
 22 15  2  0  0  0  0
 23 22  1  0  0  0  0
 24 25  1  0  0  0  0
 24 26  1  0  0  0  0
 24 27  1  0  0  0  0
 27 28  1  0  0  0  0
 27 33  1  0  0  0  0
 29 27  1  0  0  0  0
 30 39  1  0  0  0  0
 31 30  1  0  0  0  0
 32 33  1  0  0  0  0
 32 31  2  0  0  0  0
 33 34  1  0  0  0  0
 34 30  2  0  0  0  0
 35 31  1  0  0  0  0
 36 32  1  0  0  0  0
 37 42  1  0  0  0  0
 37 43  1  0  0  0  0
 38 37  2  0  0  0  0
 39 40  2  0  0  0  0
 39 38  1  0  0  0  0
 40 41  1  0  0  0  0
 41 42  2  0  0  0  0
 44 38  1  0  0  0  0
 45 41  1  0  0  0  0
M  END
>  <minimizedAffinity>
-5.71223211

>  <minimizedRMSD>
1.2503171

$$$$
