
 OpenBabel03272505383D

 32 34  0  0  0  0  0  0  0  0999 V2000
   35.7390   30.1340   46.6410 C   0  0  0  0  0  0  0  0  0  0  0  0
   34.5090   29.5200   46.6600 C   0  0  0  0  0  0  0  0  0  0  0  0
   33.9410   29.0850   45.4810 C   0  0  0  0  0  0  0  0  0  0  0  0
   34.5470   29.2340   44.2610 C   0  0  0  0  0  0  0  0  0  0  0  0
   35.7780   29.8450   44.2180 C   0  0  0  0  0  0  0  0  0  0  0  0
   36.3520   30.2840   45.4010 C   0  0  0  0  0  0  0  0  0  0  0  0
   34.0330   29.4040   47.6240 H   0  0  0  0  0  0  0  0  0  0  0  0
   32.9850   28.6210   45.6000 H   0  0  0  0  0  0  0  0  0  0  0  0
   34.0620   28.8740   43.3490 H   0  0  0  0  0  0  0  0  0  0  0  0
   36.2730   29.9720   43.2680 H   0  0  0  0  0  0  0  0  0  0  0  0
   36.5270   32.7180   43.6590 Cl  0  0  0  0  0  0  0  0  0  0  0  0
   37.8900   32.0670   44.5540 C   0  0  0  0  0  0  0  0  0  0  0  0
   37.6580   30.9290   45.3210 C   0  0  0  0  0  0  0  0  0  0  0  0
   38.7550   30.4370   46.0170 C   0  0  0  0  0  0  0  0  0  0  0  0
   38.5600   29.5470   46.6120 H   0  0  0  0  0  0  0  0  0  0  0  0
   40.0310   30.9570   46.0210 C   0  0  0  0  0  0  0  0  0  0  0  0
   40.1900   32.0980   45.2270 C   0  0  0  0  0  0  0  0  0  0  0  0
   41.7850   32.8170   45.1830 Cl  0  0  0  0  0  0  0  0  0  0  0  0
   39.1430   32.6450   44.5070 C   0  0  0  0  0  0  0  0  0  0  0  0
   39.3110   33.5420   43.8970 H   0  0  0  0  0  0  0  0  0  0  0  0
   36.9490   30.2640   50.0970 C   0  0  0  0  0  0  0  0  0  0  0  0
   37.5590   31.5250   50.1710 C   0  0  0  0  0  0  0  0  0  0  0  0
   37.5410   32.3140   49.0200 C   0  0  0  0  0  0  0  0  0  0  0  0
   36.9430   31.8210   47.9130 N   0  0  0  0  0  0  0  0  0  0  0  0
   36.3670   30.6060   47.8740 C   0  0  0  0  0  0  0  0  0  0  0  0
   36.3770   29.8420   48.9680 N   0  0  0  0  0  0  0  0  0  0  0  0
   38.0060   31.8350   51.0820 H   0  0  0  0  0  0  0  0  0  0  0  0
   38.0010   33.3000   49.0300 H   0  0  0  0  0  0  0  0  0  0  0  0
   36.9590   29.3970   51.3360 C   0  0  0  0  0  0  0  0  0  0  0  0
   35.6600   29.0270   51.6440 F   0  0  0  0  0  0  0  0  0  0  0  0
   37.7840   28.3440   51.0990 F   0  0  0  0  0  0  0  0  0  0  0  0
   37.4040   30.2040   52.3850 F   0  0  0  0  0  0  0  0  0  0  0  0
  1  2  1  0  0  0  0
  1 25  1  0  0  0  0
  2  7  1  0  0  0  0
  3  8  1  0  0  0  0
  3  2  2  0  0  0  0
  4  3  1  0  0  0  0
  5  4  2  0  0  0  0
  5  6  1  0  0  0  0
  6  1  2  0  0  0  0
  9  4  1  0  0  0  0
 10  5  1  0  0  0  0
 11 12  1  0  0  0  0
 12 13  1  0  0  0  0
 13  6  1  0  0  0  0
 13 14  2  0  0  0  0
 14 16  1  0  0  0  0
 14 15  1  0  0  0  0
 17 16  2  0  0  0  0
 18 17  1  0  0  0  0
 19 12  2  0  0  0  0
 19 17  1  0  0  0  0
 20 19  1  0  0  0  0
 21 22  1  0  0  0  0
 21 29  1  0  0  0  0
 22 27  1  0  0  0  0
 23 28  1  0  0  0  0
 23 22  2  0  0  0  0
 24 23  1  0  0  0  0
 25 24  2  0  0  0  0
 25 26  1  0  0  0  0
 26 21  2  0  0  0  0
 29 30  1  0  0  0  0
 29 32  1  0  0  0  0
 31 29  1  0  0  0  0
M  END
>  <minimizedAffinity>
-5.71478128

>  <minimizedRMSD>
0.760462463

$$$$
