
 OpenBabel03272508383D

 45 48  0  0  1  0  0  0  0  0999 V2000
   38.1910   23.8820   36.3810 N   0  0  0  0  0  0  0  0  0  0  0  0
   38.6770   23.4310   37.6290 C   0  0  0  0  0  0  0  0  0  0  0  0
   39.9470   22.6710   37.6180 C   0  0  0  0  0  0  0  0  0  0  0  0
   40.0490   21.8170   36.5230 O   0  0  0  0  0  0  0  0  0  0  0  0
   39.9000   22.4810   35.3540 C   0  0  0  0  0  0  0  0  0  0  0  0
   38.5410   23.1210   35.2700 C   0  0  1  0  0  0  0  0  0  0  0  0
   37.8900   22.6670   37.8620 H   0  0  0  0  0  0  0  0  0  0  0  0
   38.5400   24.0610   38.5130 H   0  0  0  0  0  0  0  0  0  0  0  0
   39.8230   21.8570   38.4370 H   0  0  0  0  0  0  0  0  0  0  0  0
   40.8470   23.0930   38.0240 H   0  0  0  0  0  0  0  0  0  0  0  0
   40.7410   23.0510   34.9750 H   0  0  0  0  0  0  0  0  0  0  0  0
   39.8780   21.6410   34.6140 H   0  0  0  0  0  0  0  0  0  0  0  0
   38.7920   23.9640   34.4960 H   0  0  0  0  0  0  0  0  0  0  0  0
   38.4090   23.4380   32.1680 Cl  0  0  0  0  0  0  0  0  0  0  0  0
   37.4520   22.3670   33.1200 C   0  0  0  0  0  0  0  0  0  0  0  0
   37.5910   22.3420   34.4930 C   0  0  0  0  0  0  0  0  0  0  0  0
   36.6830   21.4140   35.0470 C   0  0  0  0  0  0  0  0  0  0  0  0
   36.6910   21.2950   36.1450 H   0  0  0  0  0  0  0  0  0  0  0  0
   35.7710   20.6190   34.3880 C   0  0  0  0  0  3  0  0  0  0  0  0
   35.7230   20.7300   33.0160 C   0  0  0  0  0  0  0  0  0  0  0  0
   34.5740   19.7300   32.1740 Cl  0  0  0  0  0  0  0  0  0  0  0  0
   36.5640   21.6020   32.3930 C   0  0  0  0  0  0  0  0  0  0  0  0
   36.4670   21.6340   31.3150 H   0  0  0  0  0  0  0  0  0  0  0  0
   38.1140   25.2930   36.2290 C   0  0  0  0  0  0  0  0  0  0  0  0
   38.2560   25.8520   37.1940 H   0  0  0  0  0  0  0  0  0  0  0  0
   37.0110   25.4840   36.0420 H   0  0  0  0  0  0  0  0  0  0  0  0
   38.8740   25.9440   35.1790 C   0  0  0  0  0  0  0  0  0  0  0  0
   39.6460   26.6520   35.6320 H   0  0  0  0  0  0  0  0  0  0  0  0
   39.4600   25.4210   34.4380 H   0  0  0  0  0  0  0  0  0  0  0  0
   36.4700   28.2150   33.7920 C   0  0  0  0  0  0  0  0  0  0  0  0
   37.1580   27.8450   32.6530 C   0  0  0  0  0  0  0  0  0  0  0  0
   38.1470   26.9360   33.0510 C   0  0  0  0  0  0  0  0  0  0  0  0
   38.0150   26.8030   34.3670 N   0  0  0  0  0  0  0  0  0  0  0  0
   37.0140   27.5660   34.8050 N   0  0  0  0  0  0  0  0  0  0  0  0
   36.9550   28.2090   31.6260 H   0  0  0  0  0  0  0  0  0  0  0  0
   38.7440   26.5680   32.3050 H   0  0  0  0  0  0  0  0  0  0  0  0
   34.1040   31.0490   34.5110 C   0  0  0  0  0  0  0  0  0  0  0  0
   35.2130   30.2040   34.6460 C   0  0  0  0  0  0  0  0  0  0  0  0
   35.3720   29.1500   33.7640 C   0  0  0  0  0  0  0  0  0  0  0  0
   34.4030   29.0290   32.8150 N   0  0  0  0  0  0  0  0  0  0  0  0
   33.3440   29.8510   32.7000 C   0  0  0  0  0  0  0  0  0  0  0  0
   33.2080   30.8590   33.5560 N   0  0  0  0  0  0  0  0  0  0  0  0
   34.1300   31.8280   35.2850 H   0  0  0  0  0  0  0  0  0  0  0  0
   35.9890   30.2880   35.3950 H   0  0  0  0  0  0  0  0  0  0  0  0
   32.6280   29.6720   31.9110 H   0  0  0  0  0  0  0  0  0  0  0  0
  1  2  1  0  0  0  0
  2  7  1  0  0  0  0
  2  8  1  0  0  0  0
  3  2  1  0  0  0  0
  3 10  1  0  0  0  0
  3  9  1  0  0  0  0
  4  3  1  0  0  0  0
  5  4  1  0  0  0  0
  6 13  1  6  0  0  0
  6  5  1  0  0  0  0
  6  1  1  0  0  0  0
 11  5  1  0  0  0  0
 12  5  1  0  0  0  0
 14 15  1  0  0  0  0
 15 16  1  0  0  0  0
 16 17  2  0  0  0  0
 16  6  1  0  0  0  0
 17 18  1  0  0  0  0
 19 17  1  0  0  0  0
 20 19  2  0  0  0  0
 21 20  1  0  0  0  0
 22 20  1  0  0  0  0
 22 15  2  0  0  0  0
 23 22  1  0  0  0  0
 24  1  1  0  0  0  0
 24 25  1  0  0  0  0
 26 24  1  0  0  0  0
 27 28  1  0  0  0  0
 27 24  1  0  0  0  0
 29 27  1  0  0  0  0
 30 34  2  0  0  0  0
 31 32  2  0  0  0  0
 31 30  1  0  0  0  0
 32 33  1  0  0  0  0
 33 34  1  0  0  0  0
 33 27  1  0  0  0  0
 35 31  1  0  0  0  0
 36 32  1  0  0  0  0
 37 38  1  0  0  0  0
 37 43  1  0  0  0  0
 38 44  1  0  0  0  0
 39 30  1  0  0  0  0
 39 38  2  0  0  0  0
 40 39  1  0  0  0  0
 41 40  2  0  0  0  0
 41 42  1  0  0  0  0
 42 37  2  0  0  0  0
 45 41  1  0  0  0  0
M  END
>  <minimizedAffinity>
-5.94269943

$$$$

 OpenBabel03272508383D

 45 48  0  0  1  0  0  0  0  0999 V2000
   38.4220   25.7010   33.6370 N   0  0  0  0  0  0  0  0  0  0  0  0
   37.2220   26.3600   33.9890 C   0  0  0  0  0  0  0  0  0  0  0  0
   37.3430   27.5590   34.8490 C   0  0  0  0  0  0  0  0  0  0  0  0
   38.3300   27.4210   35.8220 O   0  0  0  0  0  0  0  0  0  0  0  0
   39.5320   27.1210   35.2780 C   0  0  0  0  0  0  0  0  0  0  0  0
   39.4750   25.8110   34.5400 C   0  0  1  0  0  0  0  0  0  0  0  0
   36.7770   25.5760   34.6550 H   0  0  0  0  0  0  0  0  0  0  0  0
   36.4100   26.4150   33.2580 H   0  0  0  0  0  0  0  0  0  0  0  0
   36.4230   27.5220   35.5560 H   0  0  0  0  0  0  0  0  0  0  0  0
   37.1400   28.5390   34.4610 H   0  0  0  0  0  0  0  0  0  0  0  0
   40.1060   27.9200   34.8240 H   0  0  0  0  0  0  0  0  0  0  0  0
   40.1520   26.9200   36.1890 H   0  0  0  0  0  0  0  0  0  0  0  0
   40.3750   25.9820   33.8100 H   0  0  0  0  0  0  0  0  0  0  0  0
   37.6640   24.3850   36.6450 Cl  0  0  0  0  0  0  0  0  0  0  0  0
   39.2880   23.9660   36.2540 C   0  0  0  0  0  0  0  0  0  0  0  0
   39.9910   24.6960   35.3180 C   0  0  0  0  0  0  0  0  0  0  0  0
   41.3000   24.1810   35.1970 C   0  0  0  0  0  0  0  0  0  0  0  0
   41.9720   24.6790   34.4750 H   0  0  0  0  0  0  0  0  0  0  0  0
   41.8620   23.1200   35.8700 C   0  0  0  0  0  3  0  0  0  0  0  0
   41.0640   22.4650   36.7810 C   0  0  0  0  0  0  0  0  0  0  0  0
   41.7640   21.1220   37.6370 Cl  0  0  0  0  0  0  0  0  0  0  0  0
   39.7820   22.8930   36.9650 C   0  0  0  0  0  0  0  0  0  0  0  0
   39.2180   22.3290   37.6970 H   0  0  0  0  0  0  0  0  0  0  0  0
   38.7290   25.6910   32.2490 C   0  0  0  0  0  0  0  0  0  0  0  0
   39.4050   24.8440   31.9500 H   0  0  0  0  0  0  0  0  0  0  0  0
   39.4330   26.5710   32.1220 H   0  0  0  0  0  0  0  0  0  0  0  0
   37.6590   25.8190   31.2770 C   0  0  0  0  0  0  0  0  0  0  0  0
   36.9720   26.6850   31.5590 H   0  0  0  0  0  0  0  0  0  0  0  0
   37.8140   25.9910   30.2220 H   0  0  0  0  0  0  0  0  0  0  0  0
   36.1290   22.5790   31.4260 C   0  0  0  0  0  0  0  0  0  0  0  0
   35.0170   23.3780   31.2360 C   0  0  0  0  0  0  0  0  0  0  0  0
   35.4750   24.6990   31.1520 C   0  0  0  0  0  0  0  0  0  0  0  0
   36.7960   24.6410   31.2920 N   0  0  0  0  0  0  0  0  0  0  0  0
   37.1810   23.3750   31.4540 N   0  0  0  0  0  0  0  0  0  0  0  0
   33.9700   23.0250   31.1650 H   0  0  0  0  0  0  0  0  0  0  0  0
   34.7560   25.4140   31.0070 H   0  0  0  0  0  0  0  0  0  0  0  0
   35.4490   19.0890   32.6530 C   0  0  0  0  0  0  0  0  0  0  0  0
   35.4840   20.4900   32.6440 C   0  0  0  0  0  0  0  0  0  0  0  0
   36.0380   21.1460   31.5600 C   0  0  0  0  0  0  0  0  0  0  0  0
   36.5140   20.3420   30.5690 N   0  0  0  0  0  0  0  0  0  0  0  0
   36.4720   18.9970   30.5950 C   0  0  0  0  0  0  0  0  0  0  0  0
   35.9350   18.3830   31.6450 N   0  0  0  0  0  0  0  0  0  0  0  0
   34.9790   18.7320   33.5790 H   0  0  0  0  0  0  0  0  0  0  0  0
   35.1100   21.1400   33.4230 H   0  0  0  0  0  0  0  0  0  0  0  0
   36.8770   18.4460   29.7580 H   0  0  0  0  0  0  0  0  0  0  0  0
  1  2  1  0  0  0  0
  1  6  1  0  0  0  0
  2  7  1  0  0  0  0
  2  3  1  0  0  0  0
  3  9  1  0  0  0  0
  3  4  1  0  0  0  0
  5  4  1  0  0  0  0
  5 12  1  0  0  0  0
  6 13  1  6  0  0  0
  6  5  1  0  0  0  0
  6 16  1  0  0  0  0
  8  2  1  0  0  0  0
 10  3  1  0  0  0  0
 11  5  1  0  0  0  0
 15 14  1  0  0  0  0
 15 22  1  0  0  0  0
 16 15  2  0  0  0  0
 17 16  1  0  0  0  0
 17 19  2  0  0  0  0
 18 17  1  0  0  0  0
 19 20  1  0  0  0  0
 20 22  2  0  0  0  0
 20 21  1  0  0  0  0
 22 23  1  0  0  0  0
 24  1  1  0  0  0  0
 25 24  1  0  0  0  0
 26 24  1  0  0  0  0
 27 33  1  0  0  0  0
 27 28  1  0  0  0  0
 27 24  1  0  0  0  0
 29 27  1  0  0  0  0
 30 34  2  0  0  0  0
 30 39  1  0  0  0  0
 31 30  1  0  0  0  0
 32 31  2  0  0  0  0
 32 33  1  0  0  0  0
 33 34  1  0  0  0  0
 35 31  1  0  0  0  0
 36 32  1  0  0  0  0
 37 43  1  0  0  0  0
 38 37  1  0  0  0  0
 38 44  1  0  0  0  0
 39 38  2  0  0  0  0
 40 41  2  0  0  0  0
 40 39  1  0  0  0  0
 41 42  1  0  0  0  0
 42 37  2  0  0  0  0
 45 41  1  0  0  0  0
M  END
>  <minimizedAffinity>
-5.87917662

$$$$

 OpenBabel03272508383D

 45 48  0  0  1  0  0  0  0  0999 V2000
   38.1650   23.8590   36.4490 N   0  0  0  0  0  0  0  0  0  0  0  0
   38.7010   23.3760   37.6640 C   0  0  0  0  0  0  0  0  0  0  0  0
   39.9920   22.6560   37.5880 C   0  0  0  0  0  0  0  0  0  0  0  0
   40.0870   21.8490   36.4580 O   0  0  0  0  0  0  0  0  0  0  0  0
   39.8840   22.5520   35.3200 C   0  0  0  0  0  0  0  0  0  0  0  0
   38.5050   23.1530   35.3000 C   0  0  1  0  0  0  0  0  0  0  0  0
   37.9450   22.5800   37.8890 H   0  0  0  0  0  0  0  0  0  0  0  0
   38.5720   23.9670   38.5760 H   0  0  0  0  0  0  0  0  0  0  0  0
   39.9170   21.8080   38.3780 H   0  0  0  0  0  0  0  0  0  0  0  0
   40.8910   23.0900   37.9840 H   0  0  0  0  0  0  0  0  0  0  0  0
   40.6950   23.1620   34.9400 H   0  0  0  0  0  0  0  0  0  0  0  0
   39.8650   21.7410   34.5490 H   0  0  0  0  0  0  0  0  0  0  0  0
   38.7070   24.0320   34.5530 H   0  0  0  0  0  0  0  0  0  0  0  0
   38.2810   23.5730   32.2150 Cl  0  0  0  0  0  0  0  0  0  0  0  0
   37.3800   22.4440   33.1530 C   0  0  0  0  0  0  0  0  0  0  0  0
   37.5560   22.3740   34.5200 C   0  0  0  0  0  0  0  0  0  0  0  0
   36.6880   21.4030   35.0640 C   0  0  0  0  0  0  0  0  0  0  0  0
   36.7290   21.2460   36.1570 H   0  0  0  0  0  0  0  0  0  0  0  0
   35.7810   20.6060   34.4010 C   0  0  0  0  0  3  0  0  0  0  0  0
   35.6930   20.7630   33.0360 C   0  0  0  0  0  0  0  0  0  0  0  0
   34.5500   19.7620   32.1890 Cl  0  0  0  0  0  0  0  0  0  0  0  0
   36.4940   21.6800   32.4220 C   0  0  0  0  0  0  0  0  0  0  0  0
   36.3670   21.7460   31.3500 H   0  0  0  0  0  0  0  0  0  0  0  0
   38.0410   25.2720   36.3550 C   0  0  0  0  0  0  0  0  0  0  0  0
   37.8960   25.7730   37.3510 H   0  0  0  0  0  0  0  0  0  0  0  0
   37.0140   25.4230   35.8980 H   0  0  0  0  0  0  0  0  0  0  0  0
   39.0040   26.0260   35.5730 C   0  0  0  0  0  0  0  0  0  0  0  0
   39.4160   26.8950   36.1880 H   0  0  0  0  0  0  0  0  0  0  0  0
   39.9040   25.6070   35.1480 H   0  0  0  0  0  0  0  0  0  0  0  0
   38.0240   27.4310   32.4230 C   0  0  0  0  0  0  0  0  0  0  0  0
   36.8740   27.6350   33.1620 C   0  0  0  0  0  0  0  0  0  0  0  0
   37.1200   27.1280   34.4450 C   0  0  0  0  0  0  0  0  0  0  0  0
   38.3630   26.6570   34.4230 N   0  0  0  0  0  0  0  0  0  0  0  0
   38.8980   26.8400   33.2160 N   0  0  0  0  0  0  0  0  0  0  0  0
   35.9430   28.1100   32.7940 H   0  0  0  0  0  0  0  0  0  0  0  0
   36.3490   27.2110   35.1140 H   0  0  0  0  0  0  0  0  0  0  0  0
   39.1140   27.8400   28.8470 C   0  0  0  0  0  0  0  0  0  0  0  0
   39.1150   27.3830   30.1710 C   0  0  0  0  0  0  0  0  0  0  0  0
   38.1370   27.8290   31.0420 C   0  0  0  0  0  0  0  0  0  0  0  0
   37.2360   28.7020   30.5120 N   0  0  0  0  0  0  0  0  0  0  0  0
   37.2500   29.1310   29.2360 C   0  0  0  0  0  0  0  0  0  0  0  0
   38.1970   28.6890   28.4140 N   0  0  0  0  0  0  0  0  0  0  0  0
   39.9500   27.3900   28.2950 H   0  0  0  0  0  0  0  0  0  0  0  0
   39.8240   26.6910   30.6040 H   0  0  0  0  0  0  0  0  0  0  0  0
   36.4890   29.8250   28.9110 H   0  0  0  0  0  0  0  0  0  0  0  0
  1  2  1  0  0  0  0
  2  7  1  0  0  0  0
  2  8  1  0  0  0  0
  3  2  1  0  0  0  0
  3 10  1  0  0  0  0
  3  9  1  0  0  0  0
  4  3  1  0  0  0  0
  5  4  1  0  0  0  0
  6 13  1  6  0  0  0
  6  5  1  0  0  0  0
  6  1  1  0  0  0  0
 11  5  1  0  0  0  0
 12  5  1  0  0  0  0
 14 15  1  0  0  0  0
 15 16  1  0  0  0  0
 16 17  2  0  0  0  0
 16  6  1  0  0  0  0
 17 18  1  0  0  0  0
 19 17  1  0  0  0  0
 20 19  2  0  0  0  0
 21 20  1  0  0  0  0
 22 20  1  0  0  0  0
 22 15  2  0  0  0  0
 23 22  1  0  0  0  0
 24  1  1  0  0  0  0
 24 25  1  0  0  0  0
 26 24  1  0  0  0  0
 27 28  1  0  0  0  0
 27 24  1  0  0  0  0
 29 27  1  0  0  0  0
 30 31  1  0  0  0  0
 30 34  2  0  0  0  0
 31 32  2  0  0  0  0
 32 36  1  0  0  0  0
 33 32  1  0  0  0  0
 33 27  1  0  0  0  0
 34 33  1  0  0  0  0
 35 31  1  0  0  0  0
 37 38  1  0  0  0  0
 38 44  1  0  0  0  0
 38 39  2  0  0  0  0
 39 30  1  0  0  0  0
 40 39  1  0  0  0  0
 41 40  2  0  0  0  0
 42 37  2  0  0  0  0
 42 41  1  0  0  0  0
 43 37  1  0  0  0  0
 45 41  1  0  0  0  0
M  END
>  <minimizedAffinity>
-5.78811026

$$$$

 OpenBabel03272508383D

 45 48  0  0  1  0  0  0  0  0999 V2000
   37.9240   24.2770   35.7510 N   0  0  0  0  0  0  0  0  0  0  0  0
   37.9480   23.9250   37.1200 C   0  0  0  0  0  0  0  0  0  0  0  0
   39.1490   23.2090   37.6060 C   0  0  0  0  0  0  0  0  0  0  0  0
   39.6340   22.2900   36.6800 O   0  0  0  0  0  0  0  0  0  0  0  0
   39.8970   22.8710   35.4870 C   0  0  0  0  0  0  0  0  0  0  0  0
   38.6470   23.4580   34.8900 C   0  0  1  0  0  0  0  0  0  0  0  0
   37.1370   23.1520   37.1200 H   0  0  0  0  0  0  0  0  0  0  0  0
   37.5060   24.6070   37.8530 H   0  0  0  0  0  0  0  0  0  0  0  0
   38.7540   22.4460   38.3880 H   0  0  0  0  0  0  0  0  0  0  0  0
   39.8470   23.6870   38.2670 H   0  0  0  0  0  0  0  0  0  0  0  0
   40.8120   23.4430   35.3830 H   0  0  0  0  0  0  0  0  0  0  0  0
   40.1410   21.9840   34.8480 H   0  0  0  0  0  0  0  0  0  0  0  0
   39.1450   24.2570   34.1920 H   0  0  0  0  0  0  0  0  0  0  0  0
   36.5710   21.2870   35.7370 Cl  0  0  0  0  0  0  0  0  0  0  0  0
   37.0870   21.6240   34.1280 C   0  0  0  0  0  0  0  0  0  0  0  0
   38.0350   22.5980   33.8890 C   0  0  0  0  0  0  0  0  0  0  0  0
   38.3130   22.6640   32.5070 C   0  0  0  0  0  0  0  0  0  0  0  0
   39.0610   23.4080   32.1780 H   0  0  0  0  0  0  0  0  0  0  0  0
   37.7650   21.9110   31.4920 C   0  0  0  0  0  3  0  0  0  0  0  0
   36.8270   20.9690   31.8510 C   0  0  0  0  0  0  0  0  0  0  0  0
   36.1290   20.0120   30.5760 Cl  0  0  0  0  0  0  0  0  0  0  0  0
   36.4950   20.8340   33.1660 C   0  0  0  0  0  0  0  0  0  0  0  0
   35.7520   20.0730   33.3690 H   0  0  0  0  0  0  0  0  0  0  0  0
   37.8930   25.6720   35.4800 C   0  0  0  0  0  0  0  0  0  0  0  0
   38.6170   26.2630   36.1050 H   0  0  0  0  0  0  0  0  0  0  0  0
   36.9090   26.0120   35.9300 H   0  0  0  0  0  0  0  0  0  0  0  0
   37.9510   26.1380   34.1060 C   0  0  0  0  0  0  0  0  0  0  0  0
   39.0050   26.4960   33.8560 H   0  0  0  0  0  0  0  0  0  0  0  0
   37.7130   25.5280   33.2470 H   0  0  0  0  0  0  0  0  0  0  0  0
   35.9910   29.1340   34.3150 C   0  0  0  0  0  0  0  0  0  0  0  0
   35.8600   28.8360   32.9720 C   0  0  0  0  0  0  0  0  0  0  0  0
   36.5860   27.6590   32.7430 C   0  0  0  0  0  0  0  0  0  0  0  0
   37.1050   27.3130   33.9170 N   0  0  0  0  0  0  0  0  0  0  0  0
   36.7480   28.1940   34.8510 N   0  0  0  0  0  0  0  0  0  0  0  0
   35.2860   29.4250   32.2300 H   0  0  0  0  0  0  0  0  0  0  0  0
   36.5800   27.3100   31.7800 H   0  0  0  0  0  0  0  0  0  0  0  0
   35.3070   32.2760   36.2640 C   0  0  0  0  0  0  0  0  0  0  0  0
   36.0180   31.1850   35.7480 C   0  0  0  0  0  0  0  0  0  0  0  0
   35.3720   30.2890   34.9160 C   0  0  0  0  0  0  0  0  0  0  0  0
   34.0610   30.5600   34.6690 N   0  0  0  0  0  0  0  0  0  0  0  0
   33.3930   31.6130   35.1750 C   0  0  0  0  0  0  0  0  0  0  0  0
   34.0310   32.4650   35.9720 N   0  0  0  0  0  0  0  0  0  0  0  0
   35.9650   32.8840   36.9000 H   0  0  0  0  0  0  0  0  0  0  0  0
   37.0590   30.9580   35.9360 H   0  0  0  0  0  0  0  0  0  0  0  0
   32.3510   31.7430   34.9190 H   0  0  0  0  0  0  0  0  0  0  0  0
  1  2  1  0  0  0  0
  2  7  1  0  0  0  0
  2  3  1  0  0  0  0
  2  8  1  0  0  0  0
  3 10  1  0  0  0  0
  3  9  1  0  0  0  0
  4  3  1  0  0  0  0
  5  4  1  0  0  0  0
  6 13  1  6  0  0  0
  6  5  1  0  0  0  0
  6  1  1  0  0  0  0
 11  5  1  0  0  0  0
 12  5  1  0  0  0  0
 15 14  1  0  0  0  0
 16 15  1  0  0  0  0
 16  6  1  0  0  0  0
 17 16  2  0  0  0  0
 18 17  1  0  0  0  0
 19 20  2  0  0  0  0
 19 17  1  0  0  0  0
 20 22  1  0  0  0  0
 21 20  1  0  0  0  0
 22 23  1  0  0  0  0
 22 15  2  0  0  0  0
 24  1  1  0  0  0  0
 24 26  1  0  0  0  0
 24 25  1  0  0  0  0
 27 24  1  0  0  0  0
 28 27  1  0  0  0  0
 29 27  1  0  0  0  0
 30 34  2  0  0  0  0
 30 39  1  0  0  0  0
 31 30  1  0  0  0  0
 32 31  2  0  0  0  0
 32 33  1  0  0  0  0
 33 27  1  0  0  0  0
 33 34  1  0  0  0  0
 35 31  1  0  0  0  0
 36 32  1  0  0  0  0
 37 43  1  0  0  0  0
 38 44  1  0  0  0  0
 38 37  2  0  0  0  0
 39 38  1  0  0  0  0
 40 39  2  0  0  0  0
 40 41  1  0  0  0  0
 41 42  2  0  0  0  0
 42 37  1  0  0  0  0
 45 41  1  0  0  0  0
M  END
>  <minimizedAffinity>
-5.73012352

$$$$

 OpenBabel03272508383D

 45 48  0  0  1  0  0  0  0  0999 V2000
   38.7160   25.8820   31.9900 N   0  0  0  0  0  0  0  0  0  0  0  0
   39.1190   25.0830   30.8960 C   0  0  0  0  0  0  0  0  0  0  0  0
   38.1190   24.1370   30.3530 C   0  0  0  0  0  0  0  0  0  0  0  0
   37.3450   23.5490   31.3490 O   0  0  0  0  0  0  0  0  0  0  0  0
   36.7300   24.4750   32.1200 C   0  0  0  0  0  0  0  0  0  0  0  0
   37.7390   25.3440   32.8210 C   0  0  1  0  0  0  0  0  0  0  0  0
   39.8710   24.4350   31.4150 H   0  0  0  0  0  0  0  0  0  0  0  0
   39.7860   25.5110   30.1410 H   0  0  0  0  0  0  0  0  0  0  0  0
   38.7240   23.1930   30.0500 H   0  0  0  0  0  0  0  0  0  0  0  0
   37.6770   24.2940   29.3870 H   0  0  0  0  0  0  0  0  0  0  0  0
   35.8430   24.9620   31.7320 H   0  0  0  0  0  0  0  0  0  0  0  0
   36.2770   23.8410   32.9240 H   0  0  0  0  0  0  0  0  0  0  0  0
   37.0640   26.2830   33.0060 H   0  0  0  0  0  0  0  0  0  0  0  0
   37.3860   27.3860   35.1550 Cl  0  0  0  0  0  0  0  0  0  0  0  0
   37.8360   25.7310   35.3150 C   0  0  0  0  0  0  0  0  0  0  0  0
   37.9840   24.9370   34.1960 C   0  0  0  0  0  0  0  0  0  0  0  0
   38.3850   23.6400   34.5820 C   0  0  0  0  0  0  0  0  0  0  0  0
   38.5400   22.9000   33.7760 H   0  0  0  0  0  0  0  0  0  0  0  0
   38.6140   23.1630   35.8530 C   0  0  0  0  0  3  0  0  0  0  0  0
   38.4340   24.0480   36.8930 C   0  0  0  0  0  0  0  0  0  0  0  0
   38.7200   23.4550   38.5040 Cl  0  0  0  0  0  0  0  0  0  0  0  0
   38.0460   25.3250   36.6160 C   0  0  0  0  0  0  0  0  0  0  0  0
   37.9270   25.9600   37.4840 H   0  0  0  0  0  0  0  0  0  0  0  0
   38.6910   27.2820   31.7470 C   0  0  0  0  0  0  0  0  0  0  0  0
   39.7150   27.7450   31.7080 H   0  0  0  0  0  0  0  0  0  0  0  0
   38.3060   27.7180   32.7210 H   0  0  0  0  0  0  0  0  0  0  0  0
   37.8830   27.8090   30.6620 C   0  0  0  0  0  0  0  0  0  0  0  0
   38.4990   28.5300   30.0270 H   0  0  0  0  0  0  0  0  0  0  0  0
   37.4060   27.2000   29.9090 H   0  0  0  0  0  0  0  0  0  0  0  0
   35.0400   29.2360   32.3170 C   0  0  0  0  0  0  0  0  0  0  0  0
   35.4240   30.2920   31.5130 C   0  0  0  0  0  0  0  0  0  0  0  0
   36.5450   29.8660   30.7890 C   0  0  0  0  0  0  0  0  0  0  0  0
   36.7800   28.6160   31.1760 N   0  0  0  0  0  0  0  0  0  0  0  0
   35.8800   28.2440   32.0860 N   0  0  0  0  0  0  0  0  0  0  0  0
   34.9290   31.2820   31.4620 H   0  0  0  0  0  0  0  0  0  0  0  0
   36.9460   30.5500   30.1410 H   0  0  0  0  0  0  0  0  0  0  0  0
   32.8080   29.7470   35.3000 C   0  0  0  0  0  0  0  0  0  0  0  0
   33.9810   29.7050   34.5350 C   0  0  0  0  0  0  0  0  0  0  0  0
   33.9110   29.3140   33.2100 C   0  0  0  0  0  0  0  0  0  0  0  0
   32.6660   28.9950   32.7590 N   0  0  0  0  0  0  0  0  0  0  0  0
   31.5500   29.0410   33.5090 C   0  0  0  0  0  0  0  0  0  0  0  0
   31.6360   29.4200   34.7800 N   0  0  0  0  0  0  0  0  0  0  0  0
   33.0390   30.0760   36.3220 H   0  0  0  0  0  0  0  0  0  0  0  0
   34.9750   29.9550   34.8810 H   0  0  0  0  0  0  0  0  0  0  0  0
   30.6070   28.7680   33.0570 H   0  0  0  0  0  0  0  0  0  0  0  0
  1  6  1  0  0  0  0
  2  7  1  0  0  0  0
  2  1  1  0  0  0  0
  3  2  1  0  0  0  0
  3  4  1  0  0  0  0
  4  5  1  0  0  0  0
  5  6  1  0  0  0  0
  5 12  1  0  0  0  0
  6 13  1  1  0  0  0
  6 16  1  0  0  0  0
  8  2  1  0  0  0  0
  9  3  1  0  0  0  0
 10  3  1  0  0  0  0
 11  5  1  0  0  0  0
 14 15  1  0  0  0  0
 15 22  1  0  0  0  0
 16 17  1  0  0  0  0
 16 15  2  0  0  0  0
 17 19  2  0  0  0  0
 18 17  1  0  0  0  0
 19 20  1  0  0  0  0
 20 21  1  0  0  0  0
 22 20  2  0  0  0  0
 22 23  1  0  0  0  0
 24  1  1  0  0  0  0
 24 26  1  0  0  0  0
 25 24  1  0  0  0  0
 27 33  1  0  0  0  0
 27 24  1  0  0  0  0
 28 27  1  0  0  0  0
 29 27  1  0  0  0  0
 30 39  1  0  0  0  0
 31 30  1  0  0  0  0
 32 33  1  0  0  0  0
 32 31  2  0  0  0  0
 33 34  1  0  0  0  0
 34 30  2  0  0  0  0
 35 31  1  0  0  0  0
 36 32  1  0  0  0  0
 37 43  1  0  0  0  0
 38 44  1  0  0  0  0
 38 37  2  0  0  0  0
 39 38  1  0  0  0  0
 40 39  2  0  0  0  0
 40 41  1  0  0  0  0
 41 42  2  0  0  0  0
 42 37  1  0  0  0  0
 45 41  1  0  0  0  0
M  END
>  <minimizedAffinity>
-5.65761995

$$$$

 OpenBabel03272508383D

 45 48  0  0  1  0  0  0  0  0999 V2000
   35.5780   29.1520   32.7340 N   0  0  0  0  0  0  0  0  0  0  0  0
   35.5880   29.3140   31.3300 C   0  0  0  0  0  0  0  0  0  0  0  0
   35.9950   30.6380   30.8110 C   0  0  0  0  0  0  0  0  0  0  0  0
   35.5180   31.6880   31.5920 O   0  0  0  0  0  0  0  0  0  0  0  0
   35.8980   31.5630   32.8850 C   0  0  0  0  0  0  0  0  0  0  0  0
   35.3460   30.2990   33.4860 C   0  0  1  0  0  0  0  0  0  0  0  0
   34.4850   29.2590   31.1360 H   0  0  0  0  0  0  0  0  0  0  0  0
   35.8930   28.4730   30.6990 H   0  0  0  0  0  0  0  0  0  0  0  0
   35.3240   30.8220   29.8800 H   0  0  0  0  0  0  0  0  0  0  0  0
   36.9280   30.7670   30.2960 H   0  0  0  0  0  0  0  0  0  0  0  0
   36.9110   31.8380   33.1530 H   0  0  0  0  0  0  0  0  0  0  0  0
   35.3290   32.3950   33.3720 H   0  0  0  0  0  0  0  0  0  0  0  0
   36.1280   30.1590   34.3470 H   0  0  0  0  0  0  0  0  0  0  0  0
   35.5330   31.5810   36.3260 Cl  0  0  0  0  0  0  0  0  0  0  0  0
   34.0870   31.1010   35.5230 C   0  0  0  0  0  0  0  0  0  0  0  0
   34.1430   30.5200   34.2730 C   0  0  0  0  0  0  0  0  0  0  0  0
   32.8400   30.1880   33.8420 C   0  0  0  0  0  0  0  0  0  0  0  0
   32.7440   29.7120   32.8500 H   0  0  0  0  0  0  0  0  0  0  0  0
   31.6500   30.3820   34.5070 C   0  0  0  0  0  3  0  0  0  0  0  0
   31.7170   30.9730   35.7490 C   0  0  0  0  0  0  0  0  0  0  0  0
   30.2190   31.2240   36.5960 Cl  0  0  0  0  0  0  0  0  0  0  0  0
   32.9350   31.3280   36.2470 C   0  0  0  0  0  0  0  0  0  0  0  0
   32.9070   31.7860   37.2270 H   0  0  0  0  0  0  0  0  0  0  0  0
   36.4900   28.1900   33.2440 C   0  0  0  0  0  0  0  0  0  0  0  0
   36.1550   27.7280   34.2130 H   0  0  0  0  0  0  0  0  0  0  0  0
   37.3660   28.8130   33.6070 H   0  0  0  0  0  0  0  0  0  0  0  0
   37.0030   27.1510   32.3690 C   0  0  0  0  0  0  0  0  0  0  0  0
   36.1560   26.7110   31.7430 H   0  0  0  0  0  0  0  0  0  0  0  0
   37.7720   27.3060   31.6270 H   0  0  0  0  0  0  0  0  0  0  0  0
   38.1380   24.7860   34.8140 C   0  0  0  0  0  0  0  0  0  0  0  0
   38.3170   24.0590   33.6530 C   0  0  0  0  0  0  0  0  0  0  0  0
   37.9100   24.8780   32.5920 C   0  0  0  0  0  0  0  0  0  0  0  0
   37.5170   26.0240   33.1420 N   0  0  0  0  0  0  0  0  0  0  0  0
   37.6550   25.9650   34.4660 N   0  0  0  0  0  0  0  0  0  0  0  0
   38.7080   23.0240   33.5900 H   0  0  0  0  0  0  0  0  0  0  0  0
   37.9880   24.4700   31.6560 H   0  0  0  0  0  0  0  0  0  0  0  0
   38.1660   23.9700   38.4850 C   0  0  0  0  0  0  0  0  0  0  0  0
   37.7660   24.5590   37.2790 C   0  0  0  0  0  0  0  0  0  0  0  0
   38.4530   24.2550   36.1170 C   0  0  0  0  0  0  0  0  0  0  0  0
   39.4880   23.3820   36.2610 N   0  0  0  0  0  0  0  0  0  0  0  0
   39.8590   22.8260   37.4290 C   0  0  0  0  0  0  0  0  0  0  0  0
   39.1870   23.1300   38.5350 N   0  0  0  0  0  0  0  0  0  0  0  0
   37.5190   24.3160   39.3030 H   0  0  0  0  0  0  0  0  0  0  0  0
   36.9470   25.2530   37.1510 H   0  0  0  0  0  0  0  0  0  0  0  0
   40.6960   22.1430   37.4400 H   0  0  0  0  0  0  0  0  0  0  0  0
  1 24  1  0  0  0  0
  1  6  1  0  0  0  0
  2  1  1  0  0  0  0
  3  2  1  0  0  0  0
  3  4  1  0  0  0  0
  4  5  1  0  0  0  0
  5 11  1  0  0  0  0
  5 12  1  0  0  0  0
  5  6  1  0  0  0  0
  6 16  1  0  0  0  0
  6 13  1  1  0  0  0
  7  2  1  0  0  0  0
  8  2  1  0  0  0  0
  9  3  1  0  0  0  0
 10  3  1  0  0  0  0
 15 22  1  0  0  0  0
 15 14  1  0  0  0  0
 16 15  2  0  0  0  0
 17 16  1  0  0  0  0
 17 19  2  0  0  0  0
 18 17  1  0  0  0  0
 19 20  1  0  0  0  0
 20 22  2  0  0  0  0
 20 21  1  0  0  0  0
 22 23  1  0  0  0  0
 24 26  1  0  0  0  0
 24 25  1  0  0  0  0
 27 33  1  0  0  0  0
 27 24  1  0  0  0  0
 28 27  1  0  0  0  0
 29 27  1  0  0  0  0
 30 39  1  0  0  0  0
 31 30  1  0  0  0  0
 32 33  1  0  0  0  0
 32 31  2  0  0  0  0
 33 34  1  0  0  0  0
 34 30  2  0  0  0  0
 35 31  1  0  0  0  0
 36 32  1  0  0  0  0
 37 42  1  0  0  0  0
 37 43  1  0  0  0  0
 38 37  2  0  0  0  0
 39 40  2  0  0  0  0
 39 38  1  0  0  0  0
 40 41  1  0  0  0  0
 41 45  1  0  0  0  0
 41 42  2  0  0  0  0
 44 38  1  0  0  0  0
M  END
>  <minimizedAffinity>
-5.58421946

$$$$

 OpenBabel03272508383D

 45 48  0  0  1  0  0  0  0  0999 V2000
   34.5460   29.8460   33.8710 N   0  0  0  0  0  0  0  0  0  0  0  0
   33.5560   29.4560   34.8010 C   0  0  0  0  0  0  0  0  0  0  0  0
   32.2800   30.2040   34.7740 C   0  0  0  0  0  0  0  0  0  0  0  0
   32.4620   31.5640   34.5350 O   0  0  0  0  0  0  0  0  0  0  0  0
   33.1500   31.7850   33.3910 C   0  0  0  0  0  0  0  0  0  0  0  0
   34.5240   31.1770   33.4650 C   0  0  1  0  0  0  0  0  0  0  0  0
   34.0590   29.7870   35.7460 H   0  0  0  0  0  0  0  0  0  0  0  0
   33.4480   28.3970   35.0520 H   0  0  0  0  0  0  0  0  0  0  0  0
   31.9490   30.2860   35.8840 H   0  0  0  0  0  0  0  0  0  0  0  0
   31.3750   29.7410   34.4270 H   0  0  0  0  0  0  0  0  0  0  0  0
   32.6210   31.7010   32.4480 H   0  0  0  0  0  0  0  0  0  0  0  0
   33.3140   32.8910   33.4320 H   0  0  0  0  0  0  0  0  0  0  0  0
   34.7270   31.0610   32.3180 H   0  0  0  0  0  0  0  0  0  0  0  0
   35.1840   31.7870   36.4540 Cl  0  0  0  0  0  0  0  0  0  0  0  0
   35.9620   32.4780   35.0820 C   0  0  0  0  0  0  0  0  0  0  0  0
   35.5570   32.1420   33.8070 C   0  0  0  0  0  0  0  0  0  0  0  0
   36.3190   32.8580   32.8590 C   0  0  0  0  0  0  0  0  0  0  0  0
   36.0930   32.6800   31.7920 H   0  0  0  0  0  0  0  0  0  0  0  0
   37.3270   33.7670   33.0900 C   0  0  0  0  0  3  0  0  0  0  0  0
   37.6470   34.0240   34.4050 C   0  0  0  0  0  0  0  0  0  0  0  0
   38.9200   35.1700   34.7080 Cl  0  0  0  0  0  0  0  0  0  0  0  0
   36.9620   33.3770   35.3900 C   0  0  0  0  0  0  0  0  0  0  0  0
   37.2690   33.6310   36.3970 H   0  0  0  0  0  0  0  0  0  0  0  0
   34.9040   28.8600   32.9110 C   0  0  0  0  0  0  0  0  0  0  0  0
   34.3570   28.9700   31.9350 H   0  0  0  0  0  0  0  0  0  0  0  0
   34.4250   27.9110   33.3080 H   0  0  0  0  0  0  0  0  0  0  0  0
   36.3060   28.5880   32.6500 C   0  0  0  0  0  0  0  0  0  0  0  0
   36.4160   27.9690   31.6980 H   0  0  0  0  0  0  0  0  0  0  0  0
   37.0570   29.3510   32.5090 H   0  0  0  0  0  0  0  0  0  0  0  0
   37.6380   26.0270   34.7780 C   0  0  0  0  0  0  0  0  0  0  0  0
   37.7890   27.1370   35.5880 C   0  0  0  0  0  0  0  0  0  0  0  0
   37.2940   28.2340   34.8720 C   0  0  0  0  0  0  0  0  0  0  0  0
   36.8820   27.7550   33.7020 N   0  0  0  0  0  0  0  0  0  0  0  0
   37.0880   26.4390   33.6510 N   0  0  0  0  0  0  0  0  0  0  0  0
   38.2210   27.1400   36.6080 H   0  0  0  0  0  0  0  0  0  0  0  0
   37.3380   29.1380   35.3510 H   0  0  0  0  0  0  0  0  0  0  0  0
   38.7060   23.0200   36.7680 C   0  0  0  0  0  0  0  0  0  0  0  0
   38.3270   24.3410   36.4930 C   0  0  0  0  0  0  0  0  0  0  0  0
   38.0440   24.7070   35.1900 C   0  0  0  0  0  0  0  0  0  0  0  0
   38.1660   23.7160   34.2640 N   0  0  0  0  0  0  0  0  0  0  0  0
   38.5320   22.4520   34.5460 C   0  0  0  0  0  0  0  0  0  0  0  0
   38.7990   22.1180   35.8050 N   0  0  0  0  0  0  0  0  0  0  0  0
   38.8920   22.9000   37.8430 H   0  0  0  0  0  0  0  0  0  0  0  0
   38.2270   25.1370   37.2180 H   0  0  0  0  0  0  0  0  0  0  0  0
   38.5990   21.7360   33.7390 H   0  0  0  0  0  0  0  0  0  0  0  0
  1  2  1  0  0  0  0
  2  8  1  0  0  0  0
  2  7  1  0  0  0  0
  3  2  1  0  0  0  0
  3  9  1  0  0  0  0
  4  3  1  0  0  0  0
  5 12  1  0  0  0  0
  5  6  1  0  0  0  0
  5  4  1  0  0  0  0
  6 13  1  6  0  0  0
  6 16  1  0  0  0  0
  6  1  1  0  0  0  0
 10  3  1  0  0  0  0
 11  5  1  0  0  0  0
 15 22  1  0  0  0  0
 15 14  1  0  0  0  0
 16 15  2  0  0  0  0
 17 19  2  0  0  0  0
 17 16  1  0  0  0  0
 18 17  1  0  0  0  0
 19 20  1  0  0  0  0
 20 21  1  0  0  0  0
 20 22  2  0  0  0  0
 22 23  1  0  0  0  0
 24 26  1  0  0  0  0
 24  1  1  0  0  0  0
 25 24  1  0  0  0  0
 27 24  1  0  0  0  0
 27 33  1  0  0  0  0
 28 27  1  0  0  0  0
 29 27  1  0  0  0  0
 30 39  1  0  0  0  0
 30 31  1  0  0  0  0
 31 35  1  0  0  0  0
 32 36  1  0  0  0  0
 32 31  2  0  0  0  0
 33 32  1  0  0  0  0
 34 33  1  0  0  0  0
 34 30  2  0  0  0  0
 37 43  1  0  0  0  0
 38 37  1  0  0  0  0
 38 44  1  0  0  0  0
 39 38  2  0  0  0  0
 40 41  2  0  0  0  0
 40 39  1  0  0  0  0
 41 42  1  0  0  0  0
 42 37  2  0  0  0  0
 45 41  1  0  0  0  0
M  END
>  <minimizedAffinity>
-5.53049469

$$$$

 OpenBabel03272508383D

 45 48  0  0  1  0  0  0  0  0999 V2000
   37.6070   26.0220   30.9240 N   0  0  0  0  0  0  0  0  0  0  0  0
   38.8320   25.5790   30.3770 C   0  0  0  0  0  0  0  0  0  0  0  0
   40.0530   25.8380   31.1710 C   0  0  0  0  0  0  0  0  0  0  0  0
   40.0240   27.0760   31.8070 O   0  0  0  0  0  0  0  0  0  0  0  0
   38.9290   27.2130   32.5890 C   0  0  0  0  0  0  0  0  0  0  0  0
   37.6700   27.1250   31.7690 C   0  0  1  0  0  0  0  0  0  0  0  0
   38.9040   26.2820   29.5070 H   0  0  0  0  0  0  0  0  0  0  0  0
   38.8560   24.6410   29.8130 H   0  0  0  0  0  0  0  0  0  0  0  0
   40.8780   26.0840   30.3920 H   0  0  0  0  0  0  0  0  0  0  0  0
   40.5870   25.0330   31.6410 H   0  0  0  0  0  0  0  0  0  0  0  0
   38.9240   26.7270   33.5580 H   0  0  0  0  0  0  0  0  0  0  0  0
   39.0030   28.2850   32.9030 H   0  0  0  0  0  0  0  0  0  0  0  0
   36.9320   26.7960   32.6170 H   0  0  0  0  0  0  0  0  0  0  0  0
   35.8670   28.6300   33.8250 Cl  0  0  0  0  0  0  0  0  0  0  0  0
   36.3280   29.2050   32.2680 C   0  0  0  0  0  0  0  0  0  0  0  0
   37.1120   28.4270   31.4410 C   0  0  0  0  0  0  0  0  0  0  0  0
   37.3250   29.0970   30.2170 C   0  0  0  0  0  0  0  0  0  0  0  0
   37.9420   28.5800   29.4600 H   0  0  0  0  0  0  0  0  0  0  0  0
   36.8590   30.3350   29.8320 C   0  0  0  0  0  3  0  0  0  0  0  0
   36.0860   31.0210   30.7420 C   0  0  0  0  0  0  0  0  0  0  0  0
   35.4920   32.5850   30.2660 Cl  0  0  0  0  0  0  0  0  0  0  0  0
   35.8270   30.4500   31.9530 C   0  0  0  0  0  0  0  0  0  0  0  0
   35.2120   31.0490   32.6120 H   0  0  0  0  0  0  0  0  0  0  0  0
   36.6680   24.9980   31.2290 C   0  0  0  0  0  0  0  0  0  0  0  0
   35.6680   25.1530   30.7410 H   0  0  0  0  0  0  0  0  0  0  0  0
   36.3990   25.1930   32.3140 H   0  0  0  0  0  0  0  0  0  0  0  0
   37.0570   23.6060   31.0990 C   0  0  0  0  0  0  0  0  0  0  0  0
   36.2130   23.0040   30.6220 H   0  0  0  0  0  0  0  0  0  0  0  0
   37.9180   23.2640   30.5430 H   0  0  0  0  0  0  0  0  0  0  0  0
   37.8380   22.7070   34.4820 C   0  0  0  0  0  0  0  0  0  0  0  0
   37.1900   21.5630   34.0570 C   0  0  0  0  0  0  0  0  0  0  0  0
   36.8250   21.7740   32.7210 C   0  0  0  0  0  0  0  0  0  0  0  0
   37.2540   22.9940   32.4110 N   0  0  0  0  0  0  0  0  0  0  0  0
   37.8570   23.5460   33.4630 N   0  0  0  0  0  0  0  0  0  0  0  0
   37.0020   20.6590   34.6690 H   0  0  0  0  0  0  0  0  0  0  0  0
   36.3320   21.0010   32.2640 H   0  0  0  0  0  0  0  0  0  0  0  0
   40.0140   22.6630   37.5490 C   0  0  0  0  0  0  0  0  0  0  0  0
   39.6230   22.4630   36.2190 C   0  0  0  0  0  0  0  0  0  0  0  0
   38.3570   22.8510   35.8200 C   0  0  0  0  0  0  0  0  0  0  0  0
   37.5820   23.4080   36.7910 N   0  0  0  0  0  0  0  0  0  0  0  0
   37.9740   23.5920   38.0650 C   0  0  0  0  0  0  0  0  0  0  0  0
   39.1950   23.2150   38.4300 N   0  0  0  0  0  0  0  0  0  0  0  0
   41.0410   22.3030   37.6960 H   0  0  0  0  0  0  0  0  0  0  0  0
   40.2280   22.0220   35.4380 H   0  0  0  0  0  0  0  0  0  0  0  0
   37.2840   24.0450   38.7630 H   0  0  0  0  0  0  0  0  0  0  0  0
  1 24  1  0  0  0  0
  1  6  1  0  0  0  0
  2  1  1  0  0  0  0
  2  3  1  0  0  0  0
  3 10  1  0  0  0  0
  3  4  1  0  0  0  0
  4  5  1  0  0  0  0
  5 12  1  0  0  0  0
  5 11  1  0  0  0  0
  6  5  1  0  0  0  0
  6 13  1  1  0  0  0
  7  2  1  0  0  0  0
  8  2  1  0  0  0  0
  9  3  1  0  0  0  0
 15 14  1  0  0  0  0
 16  6  1  0  0  0  0
 16 15  2  0  0  0  0
 17 16  1  0  0  0  0
 18 17  1  0  0  0  0
 19 17  2  0  0  0  0
 19 20  1  0  0  0  0
 20 22  2  0  0  0  0
 21 20  1  0  0  0  0
 22 15  1  0  0  0  0
 22 23  1  0  0  0  0
 24 26  1  0  0  0  0
 25 24  1  0  0  0  0
 27 24  1  0  0  0  0
 27 33  1  0  0  0  0
 28 27  1  0  0  0  0
 29 27  1  0  0  0  0
 30 39  1  0  0  0  0
 31 30  1  0  0  0  0
 31 35  1  0  0  0  0
 32 31  2  0  0  0  0
 33 32  1  0  0  0  0
 33 34  1  0  0  0  0
 34 30  2  0  0  0  0
 36 32  1  0  0  0  0
 37 43  1  0  0  0  0
 37 42  1  0  0  0  0
 38 37  2  0  0  0  0
 39 38  1  0  0  0  0
 39 40  2  0  0  0  0
 40 41  1  0  0  0  0
 41 42  2  0  0  0  0
 41 45  1  0  0  0  0
 44 38  1  0  0  0  0
M  END
>  <minimizedAffinity>
-5.5031209

$$$$

 OpenBabel03272508383D

 45 48  0  0  1  0  0  0  0  0999 V2000
   37.9940   25.2660   34.4090 N   0  0  0  0  0  0  0  0  0  0  0  0
   37.1710   26.2390   35.0200 C   0  0  0  0  0  0  0  0  0  0  0  0
   37.8210   27.5020   35.4350 C   0  0  0  0  0  0  0  0  0  0  0  0
   39.0990   27.3010   35.9510 O   0  0  0  0  0  0  0  0  0  0  0  0
   39.8930   26.6390   35.0780 C   0  0  0  0  0  0  0  0  0  0  0  0
   39.3360   25.2740   34.7750 C   0  0  1  0  0  0  0  0  0  0  0  0
   36.9470   25.7060   35.9800 H   0  0  0  0  0  0  0  0  0  0  0  0
   36.1410   26.3600   34.6720 H   0  0  0  0  0  0  0  0  0  0  0  0
   37.3000   27.8030   36.4280 H   0  0  0  0  0  0  0  0  0  0  0  0
   37.6160   28.4240   34.9230 H   0  0  0  0  0  0  0  0  0  0  0  0
   40.3260   27.1920   34.2530 H   0  0  0  0  0  0  0  0  0  0  0  0
   40.8080   26.4540   35.6970 H   0  0  0  0  0  0  0  0  0  0  0  0
   39.8490   25.1030   33.7360 H   0  0  0  0  0  0  0  0  0  0  0  0
   38.1150   24.3600   37.4980 Cl  0  0  0  0  0  0  0  0  0  0  0  0
   39.5170   23.7020   36.7430 C   0  0  0  0  0  0  0  0  0  0  0  0
   39.9700   24.2160   35.5450 C   0  0  0  0  0  0  0  0  0  0  0  0
   41.1430   23.5380   35.1490 C   0  0  0  0  0  0  0  0  0  0  0  0
   41.6110   23.8540   34.2000 H   0  0  0  0  0  0  0  0  0  0  0  0
   41.7940   22.5130   35.8000 C   0  0  0  0  0  3  0  0  0  0  0  0
   41.2480   22.0820   36.9880 C   0  0  0  0  0  0  0  0  0  0  0  0
   42.0620   20.7870   37.8170 Cl  0  0  0  0  0  0  0  0  0  0  0  0
   40.1130   22.6800   37.4500 C   0  0  0  0  0  0  0  0  0  0  0  0
   39.7460   22.2870   38.3890 H   0  0  0  0  0  0  0  0  0  0  0  0
   37.6700   24.9500   33.0620 C   0  0  0  0  0  0  0  0  0  0  0  0
   36.5770   25.0770   32.8260 H   0  0  0  0  0  0  0  0  0  0  0  0
   37.7580   23.8200   33.0210 H   0  0  0  0  0  0  0  0  0  0  0  0
   38.4620   25.5100   31.9820 C   0  0  0  0  0  0  0  0  0  0  0  0
   39.4180   25.9760   32.3960 H   0  0  0  0  0  0  0  0  0  0  0  0
   38.8370   24.9400   31.1450 H   0  0  0  0  0  0  0  0  0  0  0  0
   37.3630   28.3890   30.1500 C   0  0  0  0  0  0  0  0  0  0  0  0
   36.1620   27.9430   30.6680 C   0  0  0  0  0  0  0  0  0  0  0  0
   36.4460   26.8000   31.4280 C   0  0  0  0  0  0  0  0  0  0  0  0
   37.7590   26.6150   31.3370 N   0  0  0  0  0  0  0  0  0  0  0  0
   38.3020   27.5650   30.5750 N   0  0  0  0  0  0  0  0  0  0  0  0
   35.1710   28.4110   30.5040 H   0  0  0  0  0  0  0  0  0  0  0  0
   35.6440   26.3530   31.8810 H   0  0  0  0  0  0  0  0  0  0  0  0
   38.1030   30.7860   27.3480 C   0  0  0  0  0  0  0  0  0  0  0  0
   38.0860   29.5900   28.0760 C   0  0  0  0  0  0  0  0  0  0  0  0
   37.4570   29.5560   29.3080 C   0  0  0  0  0  0  0  0  0  0  0  0
   36.8940   30.7290   29.7100 N   0  0  0  0  0  0  0  0  0  0  0  0
   36.9210   31.8700   28.9960 C   0  0  0  0  0  0  0  0  0  0  0  0
   37.5290   31.8830   27.8140 N   0  0  0  0  0  0  0  0  0  0  0  0
   38.6380   30.6390   26.4000 H   0  0  0  0  0  0  0  0  0  0  0  0
   38.5280   28.6520   27.7690 H   0  0  0  0  0  0  0  0  0  0  0  0
   36.4440   32.7500   29.4030 H   0  0  0  0  0  0  0  0  0  0  0  0
  1  6  1  0  0  0  0
  1  2  1  0  0  0  0
  2  3  1  0  0  0  0
  2  7  1  0  0  0  0
  3  4  1  0  0  0  0
  3  9  1  0  0  0  0
  5 12  1  0  0  0  0
  5  4  1  0  0  0  0
  6 13  1  6  0  0  0
  6  5  1  0  0  0  0
  6 16  1  0  0  0  0
  8  2  1  0  0  0  0
 10  3  1  0  0  0  0
 11  5  1  0  0  0  0
 15 22  1  0  0  0  0
 15 14  1  0  0  0  0
 16 15  2  0  0  0  0
 17 16  1  0  0  0  0
 17 19  2  0  0  0  0
 18 17  1  0  0  0  0
 19 20  1  0  0  0  0
 20 22  2  0  0  0  0
 20 21  1  0  0  0  0
 22 23  1  0  0  0  0
 24  1  1  0  0  0  0
 25 24  1  0  0  0  0
 26 24  1  0  0  0  0
 27 28  1  0  0  0  0
 27 24  1  0  0  0  0
 29 27  1  0  0  0  0
 30 34  2  0  0  0  0
 30 31  1  0  0  0  0
 31 32  2  0  0  0  0
 32 36  1  0  0  0  0
 33 32  1  0  0  0  0
 33 27  1  0  0  0  0
 34 33  1  0  0  0  0
 35 31  1  0  0  0  0
 37 42  2  0  0  0  0
 37 38  1  0  0  0  0
 38 39  2  0  0  0  0
 39 40  1  0  0  0  0
 39 30  1  0  0  0  0
 41 45  1  0  0  0  0
 41 40  2  0  0  0  0
 42 41  1  0  0  0  0
 43 37  1  0  0  0  0
 44 38  1  0  0  0  0
M  END
>  <minimizedAffinity>
-5.46457529

$$$$
