
 OpenBabel03272508123D

 35 37  0  0  0  0  0  0  0  0999 V2000
   36.6990   29.4860   44.0590 Cl  0  0  0  0  0  0  0  0  0  0  0  0
   38.3650   29.8530   43.5490 C   0  0  0  0  0  0  0  0  0  0  0  0
   39.3470   30.3330   44.3970 C   0  0  0  0  0  0  0  0  0  0  0  0
   40.5920   30.5710   43.8540 C   0  0  0  0  0  0  0  0  0  0  0  0
   40.8490   30.3420   42.5260 C   0  0  0  0  0  0  0  0  0  0  0  0
   39.8880   29.8670   41.6720 C   0  0  0  0  0  0  0  0  0  0  0  0
   38.6500   29.6250   42.1900 C   0  0  0  0  0  0  0  0  0  0  0  0
   41.3190   30.9480   44.5780 H   0  0  0  0  0  0  0  0  0  0  0  0
   41.8750   30.5740   42.2380 H   0  0  0  0  0  0  0  0  0  0  0  0
   40.1520   29.7070   40.6370 H   0  0  0  0  0  0  0  0  0  0  0  0
   38.0750   26.6310   42.0330 Cl  0  0  0  0  0  0  0  0  0  0  0  0
   37.2090   27.8150   41.0830 C   0  0  0  0  0  0  0  0  0  0  0  0
   37.6100   29.1170   41.2900 C   0  0  0  0  0  0  0  0  0  0  0  0
   37.0100   30.1620   40.6030 C   0  0  0  0  0  0  0  0  0  0  0  0
   37.2350   31.2170   40.6800 H   0  0  0  0  0  0  0  0  0  0  0  0
   35.9890   29.9160   39.6880 C   0  0  0  0  0  3  0  0  0  0  0  0
   35.5920   28.5910   39.4860 C   0  0  0  0  0  0  0  0  0  0  0  0
   34.3160   28.2110   38.3520 Cl  0  0  0  0  0  0  0  0  0  0  0  0
   36.2000   27.5640   40.1790 C   0  0  0  0  0  0  0  0  0  0  0  0
   35.9330   26.5110   40.0640 H   0  0  0  0  0  0  0  0  0  0  0  0
   38.9090   30.5000   45.6780 O   0  0  0  0  0  0  0  0  0  0  0  0
   39.4530   32.5620   47.1260 O   0  0  0  0  0  0  0  0  0  0  0  0
   38.3230   31.8800   46.4410 P   0  0  1  0  0  0  0  0  0  0  0  0
   37.7430   32.8680   45.1760 O   0  0  0  0  0  0  0  0  0  0  0  0
   37.1550   32.3660   44.5740 H   0  0  0  0  0  0  0  0  0  0  0  0
   37.0500   31.4690   47.4690 O   0  0  0  0  0  0  0  0  0  0  0  0
   37.6140   30.5110   50.9980 C   0  0  0  0  0  0  0  0  0  0  0  0
   37.7160   31.3130   49.8460 C   0  0  0  0  0  0  0  0  0  0  0  0
   37.0890   30.8740   48.6770 C   0  0  0  0  0  0  0  0  0  0  0  0
   36.4120   29.6900   48.7210 N   0  0  0  0  0  0  0  0  0  0  0  0
   36.3380   28.9460   49.8480 C   0  0  0  0  0  0  0  0  0  0  0  0
   36.9450   29.3700   50.9810 N   0  0  0  0  0  0  0  0  0  0  0  0
   38.1290   30.9270   51.8520 H   0  0  0  0  0  0  0  0  0  0  0  0
   38.2250   32.2480   49.7340 H   0  0  0  0  0  0  0  0  0  0  0  0
   35.7920   28.0050   49.8580 H   0  0  0  0  0  0  0  0  0  0  0  0
  2  1  1  0  0  0  0
  2  3  1  0  0  0  0
  3 21  1  0  0  0  0
  4  3  2  0  0  0  0
  4  8  1  0  0  0  0
  5  4  1  0  0  0  0
  6  7  1  0  0  0  0
  6  5  2  0  0  0  0
  7  2  2  0  0  0  0
  9  5  1  0  0  0  0
 10  6  1  0  0  0  0
 12 13  1  0  0  0  0
 12 11  1  0  0  0  0
 13  7  1  0  0  0  0
 14 15  1  0  0  0  0
 14 13  2  0  0  0  0
 16 14  1  0  0  0  0
 17 16  2  0  0  0  0
 17 19  1  0  0  0  0
 18 17  1  0  0  0  0
 19 12  2  0  0  0  0
 20 19  1  0  0  0  0
 21 23  1  0  0  0  0
 23 22  2  1  0  0  0
 23 26  1  0  0  0  0
 24 23  1  0  0  0  0
 25 24  1  0  0  0  0
 26 29  1  0  0  0  0
 27 33  1  0  0  0  0
 28 27  2  0  0  0  0
 29 30  2  0  0  0  0
 29 28  1  0  0  0  0
 30 31  1  0  0  0  0
 31 35  1  0  0  0  0
 31 32  2  0  0  0  0
 32 27  1  0  0  0  0
 34 28  1  0  0  0  0
M  END
>  <minimizedAffinity>
-4.89383459

>  <minimizedRMSD>
0.659667194

$$$$
