
 OpenBabel03272500313D

 29 31  0  0  0  0  0  0  0  0999 V2000
   40.6930   24.3050   34.0290 Cl  0  0  0  0  0  0  0  0  0  0  0  0
   39.7180   24.0170   35.4600 C   0  0  0  0  0  0  0  0  0  0  0  0
   40.3060   23.2420   36.4410 C   0  0  0  0  0  0  0  0  0  0  0  0
   39.5390   23.0010   37.5950 C   0  0  0  0  0  0  0  0  0  0  0  0
   38.2700   23.5400   37.6810 C   0  0  0  0  0  0  0  0  0  0  0  0
   37.7680   24.2950   36.6610 C   0  0  0  0  0  0  0  0  0  0  0  0
   38.4590   24.5660   35.5160 C   0  0  0  0  0  0  0  0  0  0  0  0
   40.0110   22.3940   38.3550 H   0  0  0  0  0  0  0  0  0  0  0  0
   37.7700   23.2890   38.6170 H   0  0  0  0  0  0  0  0  0  0  0  0
   36.7610   24.6920   36.7890 H   0  0  0  0  0  0  0  0  0  0  0  0
   38.5890   27.4910   36.0630 Cl  0  0  0  0  0  0  0  0  0  0  0  0
   37.9180   26.7350   34.6320 C   0  0  0  0  0  0  0  0  0  0  0  0
   37.8980   25.3670   34.4590 C   0  0  0  0  0  0  0  0  0  0  0  0
   37.3780   24.7380   33.3460 C   0  0  0  0  0  0  0  0  0  0  0  0
   37.3570   23.6710   33.1990 H   0  0  0  0  0  0  0  0  0  0  0  0
   36.8540   25.5830   32.3660 C   0  0  0  0  0  3  0  0  0  0  0  0
   36.8450   26.9720   32.4830 C   0  0  0  0  0  0  0  0  0  0  0  0
   36.1740   27.9760   31.2240 Cl  0  0  0  0  0  0  0  0  0  0  0  0
   37.3900   27.5350   33.6410 C   0  0  0  0  0  0  0  0  0  0  0  0
   37.3570   28.6190   33.6790 H   0  0  0  0  0  0  0  0  0  0  0  0
   42.9760   20.8670   35.7670 C   0  0  0  0  0  0  0  0  0  0  0  0
   44.1480   21.5920   35.9850 C   0  0  0  0  0  0  0  0  0  0  0  0
   43.9970   22.9280   36.3720 C   0  0  0  0  0  0  0  0  0  0  0  0
   42.7390   23.4390   36.5130 N   0  0  0  0  0  0  0  0  0  0  0  0
   41.6480   22.7020   36.2930 C   0  0  0  0  0  0  0  0  0  0  0  0
   41.7730   21.4150   35.9190 N   0  0  0  0  0  0  0  0  0  0  0  0
   43.0280   19.8360   35.4690 H   0  0  0  0  0  0  0  0  0  0  0  0
   45.1030   21.0940   35.8460 H   0  0  0  0  0  0  0  0  0  0  0  0
   44.8810   23.5030   36.5440 H   0  0  0  0  0  0  0  0  0  0  0  0
  1  2  1  0  0  0  0
  2  7  2  0  0  0  0
  2  3  1  0  0  0  0
  3  4  2  0  0  0  0
  4  5  1  0  0  0  0
  4  8  1  0  0  0  0
  5  9  1  0  0  0  0
  6 10  1  0  0  0  0
  6  5  2  0  0  0  0
  7  6  1  0  0  0  0
 12 11  1  0  0  0  0
 13 12  1  0  0  0  0
 13  7  1  0  0  0  0
 14 13  2  0  0  0  0
 15 14  1  0  0  0  0
 16 17  2  0  0  0  0
 16 14  1  0  0  0  0
 17 19  1  0  0  0  0
 18 17  1  0  0  0  0
 19 20  1  0  0  0  0
 19 12  2  0  0  0  0
 21 26  2  0  0  0  0
 21 22  1  0  0  0  0
 22 23  2  0  0  0  0
 23 24  1  0  0  0  0
 23 29  1  0  0  0  0
 25  3  1  0  0  0  0
 25 24  2  0  0  0  0
 26 25  1  0  0  0  0
 27 21  1  0  0  0  0
 28 22  1  0  0  0  0
M  END
>  <minimizedAffinity>
-5.29927492

$$$$

 OpenBabel03272500313D

 29 31  0  0  0  0  0  0  0  0999 V2000
   36.6350   27.5700   34.9200 Cl  0  0  0  0  0  0  0  0  0  0  0  0
   36.5490   28.2480   33.3030 C   0  0  0  0  0  0  0  0  0  0  0  0
   37.1560   27.5070   32.3080 C   0  0  0  0  0  0  0  0  0  0  0  0
   37.0960   28.0360   31.0060 C   0  0  0  0  0  0  0  0  0  0  0  0
   36.4490   29.2390   30.8000 C   0  0  0  0  0  0  0  0  0  0  0  0
   35.8770   29.9040   31.8440 C   0  0  0  0  0  0  0  0  0  0  0  0
   35.8990   29.4470   33.1300 C   0  0  0  0  0  0  0  0  0  0  0  0
   37.5750   27.4460   30.2360 H   0  0  0  0  0  0  0  0  0  0  0  0
   36.4660   29.5500   29.7550 H   0  0  0  0  0  0  0  0  0  0  0  0
   35.3810   30.8480   31.6170 H   0  0  0  0  0  0  0  0  0  0  0  0
   32.9550   29.0280   33.3030 Cl  0  0  0  0  0  0  0  0  0  0  0  0
   33.9200   30.0370   34.3600 C   0  0  0  0  0  0  0  0  0  0  0  0
   35.2840   30.1750   34.2090 C   0  0  0  0  0  0  0  0  0  0  0  0
   36.0740   30.9610   35.0220 C   0  0  0  0  0  0  0  0  0  0  0  0
   37.1400   31.0770   34.9150 H   0  0  0  0  0  0  0  0  0  0  0  0
   35.4040   31.6350   36.0450 C   0  0  0  0  0  3  0  0  0  0  0  0
   34.0290   31.5370   36.2490 C   0  0  0  0  0  0  0  0  0  0  0  0
   33.2470   32.4040   37.5450 Cl  0  0  0  0  0  0  0  0  0  0  0  0
   33.2960   30.7200   35.3830 C   0  0  0  0  0  0  0  0  0  0  0  0
   32.2310   30.6800   35.5870 H   0  0  0  0  0  0  0  0  0  0  0  0
   39.8120   25.1460   33.0810 C   0  0  0  0  0  0  0  0  0  0  0  0
   39.1710   23.9060   33.1250 C   0  0  0  0  0  0  0  0  0  0  0  0
   37.7930   23.9030   32.8810 C   0  0  0  0  0  0  0  0  0  0  0  0
   37.1640   25.0850   32.6180 N   0  0  0  0  0  0  0  0  0  0  0  0
   37.8230   26.2450   32.5870 C   0  0  0  0  0  0  0  0  0  0  0  0
   39.1480   26.2690   32.8200 N   0  0  0  0  0  0  0  0  0  0  0  0
   40.8690   25.2120   33.2600 H   0  0  0  0  0  0  0  0  0  0  0  0
   39.7620   23.0220   33.3430 H   0  0  0  0  0  0  0  0  0  0  0  0
   37.2820   22.9650   32.9100 H   0  0  0  0  0  0  0  0  0  0  0  0
  2  1  1  0  0  0  0
  3 25  1  0  0  0  0
  3  2  2  0  0  0  0
  4  3  1  0  0  0  0
  5  4  2  0  0  0  0
  5  6  1  0  0  0  0
  6  7  2  0  0  0  0
  7  2  1  0  0  0  0
  7 13  1  0  0  0  0
  8  4  1  0  0  0  0
  9  5  1  0  0  0  0
 10  6  1  0  0  0  0
 11 12  1  0  0  0  0
 12 19  1  0  0  0  0
 13 12  2  0  0  0  0
 13 14  1  0  0  0  0
 14 16  2  0  0  0  0
 15 14  1  0  0  0  0
 16 17  1  0  0  0  0
 17 18  1  0  0  0  0
 19 20  1  0  0  0  0
 19 17  2  0  0  0  0
 21 22  1  0  0  0  0
 21 27  1  0  0  0  0
 22 28  1  0  0  0  0
 23 29  1  0  0  0  0
 23 22  2  0  0  0  0
 24 23  1  0  0  0  0
 25 24  2  0  0  0  0
 25 26  1  0  0  0  0
 26 21  2  0  0  0  0
M  END
>  <minimizedAffinity>
-5.14106321

$$$$

 OpenBabel03272500313D

 29 31  0  0  0  0  0  0  0  0999 V2000
   38.0850   27.1520   33.5210 Cl  0  0  0  0  0  0  0  0  0  0  0  0
   37.2190   25.8920   32.6590 C   0  0  0  0  0  0  0  0  0  0  0  0
   36.2630   26.3260   31.7620 C   0  0  0  0  0  0  0  0  0  0  0  0
   35.5600   25.3280   31.0620 C   0  0  0  0  0  0  0  0  0  0  0  0
   35.8590   24.0020   31.3050 C   0  0  0  0  0  0  0  0  0  0  0  0
   36.8210   23.6640   32.2100 C   0  0  0  0  0  0  0  0  0  0  0  0
   37.5390   24.5810   32.9230 C   0  0  0  0  0  0  0  0  0  0  0  0
   34.8140   25.6820   30.3630 H   0  0  0  0  0  0  0  0  0  0  0  0
   35.2530   23.3190   30.7070 H   0  0  0  0  0  0  0  0  0  0  0  0
   37.0100   22.6010   32.3570 H   0  0  0  0  0  0  0  0  0  0  0  0
   40.2530   24.3420   31.7190 Cl  0  0  0  0  0  0  0  0  0  0  0  0
   39.8360   24.0550   33.3960 C   0  0  0  0  0  0  0  0  0  0  0  0
   38.5480   24.1890   33.8710 C   0  0  0  0  0  0  0  0  0  0  0  0
   38.1840   23.9700   35.1840 C   0  0  0  0  0  0  0  0  0  0  0  0
   37.1820   24.0720   35.5680 H   0  0  0  0  0  0  0  0  0  0  0  0
   39.2190   23.5930   36.0420 C   0  0  0  0  0  3  0  0  0  0  0  0
   40.5390   23.4410   35.6220 C   0  0  0  0  0  0  0  0  0  0  0  0
   41.7910   22.9670   36.7410 Cl  0  0  0  0  0  0  0  0  0  0  0  0
   40.8300   23.6800   34.2750 C   0  0  0  0  0  0  0  0  0  0  0  0
   41.8720   23.5470   34.0040 H   0  0  0  0  0  0  0  0  0  0  0  0
   36.4390   29.6540   30.3080 C   0  0  0  0  0  0  0  0  0  0  0  0
   35.5480   30.4130   31.0680 C   0  0  0  0  0  0  0  0  0  0  0  0
   34.8800   29.7460   32.1010 C   0  0  0  0  0  0  0  0  0  0  0  0
   35.1300   28.4190   32.3060 N   0  0  0  0  0  0  0  0  0  0  0  0
   35.9930   27.7390   31.5490 C   0  0  0  0  0  0  0  0  0  0  0  0
   36.6450   28.3620   30.5500 N   0  0  0  0  0  0  0  0  0  0  0  0
   36.9820   30.1100   29.5010 H   0  0  0  0  0  0  0  0  0  0  0  0
   35.4180   31.4630   30.8260 H   0  0  0  0  0  0  0  0  0  0  0  0
   34.1920   30.3070   32.6970 H   0  0  0  0  0  0  0  0  0  0  0  0
  2  7  1  0  0  0  0
  2  1  1  0  0  0  0
  3  2  2  0  0  0  0
  4  5  2  0  0  0  0
  4  3  1  0  0  0  0
  5  6  1  0  0  0  0
  6 10  1  0  0  0  0
  6  7  2  0  0  0  0
  7 13  1  0  0  0  0
  8  4  1  0  0  0  0
  9  5  1  0  0  0  0
 11 12  1  0  0  0  0
 12 13  2  0  0  0  0
 12 19  1  0  0  0  0
 13 14  1  0  0  0  0
 14 15  1  0  0  0  0
 14 16  2  0  0  0  0
 17 16  1  0  0  0  0
 17 18  1  0  0  0  0
 19 17  2  0  0  0  0
 20 19  1  0  0  0  0
 21 26  2  0  0  0  0
 21 22  1  0  0  0  0
 22 23  2  0  0  0  0
 23 24  1  0  0  0  0
 23 29  1  0  0  0  0
 25  3  1  0  0  0  0
 25 24  2  0  0  0  0
 26 25  1  0  0  0  0
 27 21  1  0  0  0  0
 28 22  1  0  0  0  0
M  END
>  <minimizedAffinity>
-5.07079458

$$$$

 OpenBabel03272500313D

 29 31  0  0  0  0  0  0  0  0999 V2000
   38.2610   26.1670   34.8470 Cl  0  0  0  0  0  0  0  0  0  0  0  0
   37.9110   24.7550   33.8640 C   0  0  0  0  0  0  0  0  0  0  0  0
   38.0010   23.5370   34.5090 C   0  0  0  0  0  0  0  0  0  0  0  0
   37.7230   22.3950   33.7360 C   0  0  0  0  0  0  0  0  0  0  0  0
   37.3840   22.5520   32.4060 C   0  0  0  0  0  0  0  0  0  0  0  0
   37.3190   23.7960   31.8510 C   0  0  0  0  0  0  0  0  0  0  0  0
   37.5760   24.9430   32.5440 C   0  0  0  0  0  0  0  0  0  0  0  0
   37.7970   21.4480   34.2530 H   0  0  0  0  0  0  0  0  0  0  0  0
   37.1910   21.6010   31.9080 H   0  0  0  0  0  0  0  0  0  0  0  0
   37.0460   23.8530   30.7980 H   0  0  0  0  0  0  0  0  0  0  0  0
   40.1480   25.8190   31.3240 Cl  0  0  0  0  0  0  0  0  0  0  0  0
   38.6480   26.7230   31.3360 C   0  0  0  0  0  0  0  0  0  0  0  0
   37.4990   26.2410   31.9260 C   0  0  0  0  0  0  0  0  0  0  0  0
   36.3010   26.9260   31.9550 C   0  0  0  0  0  0  0  0  0  0  0  0
   35.3970   26.5600   32.4130 H   0  0  0  0  0  0  0  0  0  0  0  0
   36.3070   28.1770   31.3340 C   0  0  0  0  0  3  0  0  0  0  0  0
   37.4350   28.7180   30.7210 C   0  0  0  0  0  0  0  0  0  0  0  0
   37.3810   30.2870   29.9620 Cl  0  0  0  0  0  0  0  0  0  0  0  0
   38.6120   27.9630   30.7340 C   0  0  0  0  0  0  0  0  0  0  0  0
   39.4580   28.4320   30.2430 H   0  0  0  0  0  0  0  0  0  0  0  0
   39.9720   22.8460   37.4860 C   0  0  0  0  0  0  0  0  0  0  0  0
   39.1380   23.2080   38.5460 C   0  0  0  0  0  0  0  0  0  0  0  0
   37.8720   23.6990   38.2080 C   0  0  0  0  0  0  0  0  0  0  0  0
   37.5280   23.7950   36.8910 N   0  0  0  0  0  0  0  0  0  0  0  0
   38.3630   23.4350   35.9140 C   0  0  0  0  0  0  0  0  0  0  0  0
   39.5850   22.9610   36.2190 N   0  0  0  0  0  0  0  0  0  0  0  0
   40.9560   22.4620   37.6820 H   0  0  0  0  0  0  0  0  0  0  0  0
   39.5060   23.0930   39.5610 H   0  0  0  0  0  0  0  0  0  0  0  0
   37.2170   23.9820   39.0030 H   0  0  0  0  0  0  0  0  0  0  0  0
  2  3  1  0  0  0  0
  2  1  1  0  0  0  0
  3 25  1  0  0  0  0
  4  8  1  0  0  0  0
  4  3  2  0  0  0  0
  5  4  1  0  0  0  0
  6  5  2  0  0  0  0
  6  7  1  0  0  0  0
  7  2  2  0  0  0  0
  9  5  1  0  0  0  0
 10  6  1  0  0  0  0
 11 12  1  0  0  0  0
 12 13  1  0  0  0  0
 13 14  2  0  0  0  0
 13  7  1  0  0  0  0
 14 15  1  0  0  0  0
 16 14  1  0  0  0  0
 17 19  1  0  0  0  0
 17 16  2  0  0  0  0
 18 17  1  0  0  0  0
 19 12  2  0  0  0  0
 20 19  1  0  0  0  0
 21 27  1  0  0  0  0
 21 22  1  0  0  0  0
 22 28  1  0  0  0  0
 23 22  2  0  0  0  0
 23 29  1  0  0  0  0
 24 23  1  0  0  0  0
 25 26  1  0  0  0  0
 25 24  2  0  0  0  0
 26 21  2  0  0  0  0
M  END
>  <minimizedAffinity>
-5.00189066

$$$$

 OpenBabel03272500313D

 29 31  0  0  0  0  0  0  0  0999 V2000
   36.4370   28.0760   34.6070 Cl  0  0  0  0  0  0  0  0  0  0  0  0
   36.2620   28.9420   33.0900 C   0  0  0  0  0  0  0  0  0  0  0  0
   35.5700   30.1350   33.1550 C   0  0  0  0  0  0  0  0  0  0  0  0
   35.4210   30.8420   31.9480 C   0  0  0  0  0  0  0  0  0  0  0  0
   35.9640   30.3150   30.7920 C   0  0  0  0  0  0  0  0  0  0  0  0
   36.6340   29.1280   30.8210 C   0  0  0  0  0  0  0  0  0  0  0  0
   36.8130   28.3920   31.9560 C   0  0  0  0  0  0  0  0  0  0  0  0
   34.8770   31.7740   32.0140 H   0  0  0  0  0  0  0  0  0  0  0  0
   35.7870   30.9470   29.9210 H   0  0  0  0  0  0  0  0  0  0  0  0
   37.0380   28.7660   29.8750 H   0  0  0  0  0  0  0  0  0  0  0  0
   35.1140   26.0750   31.1750 Cl  0  0  0  0  0  0  0  0  0  0  0  0
   36.8120   26.0160   31.5990 C   0  0  0  0  0  0  0  0  0  0  0  0
   37.5260   27.1420   31.9500 C   0  0  0  0  0  0  0  0  0  0  0  0
   38.8640   27.1320   32.2900 C   0  0  0  0  0  0  0  0  0  0  0  0
   39.4330   28.0050   32.5660 H   0  0  0  0  0  0  0  0  0  0  0  0
   39.4840   25.8820   32.2600 C   0  0  0  0  0  3  0  0  0  0  0  0
   38.8170   24.7080   31.9140 C   0  0  0  0  0  0  0  0  0  0  0  0
   39.6460   23.1740   31.8950 Cl  0  0  0  0  0  0  0  0  0  0  0  0
   37.4620   24.8000   31.5820 C   0  0  0  0  0  0  0  0  0  0  0  0
   36.9930   23.8570   31.3210 H   0  0  0  0  0  0  0  0  0  0  0  0
   35.3810   31.8540   36.3540 C   0  0  0  0  0  0  0  0  0  0  0  0
   34.0720   31.6350   36.7890 C   0  0  0  0  0  0  0  0  0  0  0  0
   33.2510   30.8760   35.9480 C   0  0  0  0  0  0  0  0  0  0  0  0
   33.7620   30.4000   34.7750 N   0  0  0  0  0  0  0  0  0  0  0  0
   35.0210   30.6380   34.4050 C   0  0  0  0  0  0  0  0  0  0  0  0
   35.8270   31.3670   35.2000 N   0  0  0  0  0  0  0  0  0  0  0  0
   36.0580   32.4300   36.9570 H   0  0  0  0  0  0  0  0  0  0  0  0
   33.7620   32.0570   37.7400 H   0  0  0  0  0  0  0  0  0  0  0  0
   32.2450   30.6950   36.2600 H   0  0  0  0  0  0  0  0  0  0  0  0
  2  3  1  0  0  0  0
  2  1  1  0  0  0  0
  3 25  1  0  0  0  0
  4  8  1  0  0  0  0
  4  3  2  0  0  0  0
  5  6  2  0  0  0  0
  5  4  1  0  0  0  0
  6  7  1  0  0  0  0
  7  2  2  0  0  0  0
  9  5  1  0  0  0  0
 10  6  1  0  0  0  0
 11 12  1  0  0  0  0
 12 13  1  0  0  0  0
 13  7  1  0  0  0  0
 13 14  2  0  0  0  0
 14 15  1  0  0  0  0
 16 14  1  0  0  0  0
 17 16  2  0  0  0  0
 18 17  1  0  0  0  0
 19 12  2  0  0  0  0
 19 17  1  0  0  0  0
 20 19  1  0  0  0  0
 21 22  1  0  0  0  0
 21 27  1  0  0  0  0
 22 28  1  0  0  0  0
 23 29  1  0  0  0  0
 23 22  2  0  0  0  0
 24 23  1  0  0  0  0
 25 24  2  0  0  0  0
 25 26  1  0  0  0  0
 26 21  2  0  0  0  0
M  END
>  <minimizedAffinity>
-4.9977541

$$$$

 OpenBabel03272500313D

 29 31  0  0  0  0  0  0  0  0999 V2000
   35.5810   28.6420   34.3420 Cl  0  0  0  0  0  0  0  0  0  0  0  0
   35.8790   29.5960   32.8990 C   0  0  0  0  0  0  0  0  0  0  0  0
   36.3150   28.8920   31.7930 C   0  0  0  0  0  0  0  0  0  0  0  0
   36.5590   29.6400   30.6280 C   0  0  0  0  0  0  0  0  0  0  0  0
   36.3540   31.0060   30.6540 C   0  0  0  0  0  0  0  0  0  0  0  0
   35.9210   31.6190   31.7920 C   0  0  0  0  0  0  0  0  0  0  0  0
   35.6660   30.9530   32.9560 C   0  0  0  0  0  0  0  0  0  0  0  0
   36.8990   29.0760   29.7700 H   0  0  0  0  0  0  0  0  0  0  0  0
   36.5740   31.4810   29.6970 H   0  0  0  0  0  0  0  0  0  0  0  0
   35.7790   32.6990   31.7490 H   0  0  0  0  0  0  0  0  0  0  0  0
   32.6990   31.1060   33.1530 Cl  0  0  0  0  0  0  0  0  0  0  0  0
   33.8470   31.7480   34.3100 C   0  0  0  0  0  0  0  0  0  0  0  0
   35.2100   31.6320   34.1400 C   0  0  0  0  0  0  0  0  0  0  0  0
   36.1430   32.1260   35.0300 C   0  0  0  0  0  0  0  0  0  0  0  0
   37.2100   32.0410   34.9090 H   0  0  0  0  0  0  0  0  0  0  0  0
   35.6220   32.7710   36.1530 C   0  0  0  0  0  3  0  0  0  0  0  0
   34.2550   32.9200   36.3800 C   0  0  0  0  0  0  0  0  0  0  0  0
   33.6630   33.7380   37.8030 Cl  0  0  0  0  0  0  0  0  0  0  0  0
   33.3720   32.3930   35.4320 C   0  0  0  0  0  0  0  0  0  0  0  0
   32.3210   32.5370   35.6590 H   0  0  0  0  0  0  0  0  0  0  0  0
   35.6580   25.3430   31.3440 C   0  0  0  0  0  0  0  0  0  0  0  0
   36.7960   24.7130   31.8490 C   0  0  0  0  0  0  0  0  0  0  0  0
   37.8030   25.5450   32.3520 C   0  0  0  0  0  0  0  0  0  0  0  0
   37.6210   26.8970   32.3230 N   0  0  0  0  0  0  0  0  0  0  0  0
   36.5120   27.4510   31.8280 C   0  0  0  0  0  0  0  0  0  0  0  0
   35.5330   26.6680   31.3390 N   0  0  0  0  0  0  0  0  0  0  0  0
   34.8510   24.7570   30.9440 H   0  0  0  0  0  0  0  0  0  0  0  0
   36.8440   23.6290   31.8280 H   0  0  0  0  0  0  0  0  0  0  0  0
   38.6830   25.0840   32.7440 H   0  0  0  0  0  0  0  0  0  0  0  0
  2  7  1  0  0  0  0
  2  1  1  0  0  0  0
  3 25  1  0  0  0  0
  3  2  2  0  0  0  0
  4  5  2  0  0  0  0
  4  3  1  0  0  0  0
  5  6  1  0  0  0  0
  6  7  2  0  0  0  0
  7 13  1  0  0  0  0
  8  4  1  0  0  0  0
  9  5  1  0  0  0  0
 10  6  1  0  0  0  0
 11 12  1  0  0  0  0
 12 19  1  0  0  0  0
 13 12  2  0  0  0  0
 13 14  1  0  0  0  0
 14 16  2  0  0  0  0
 15 14  1  0  0  0  0
 16 17  1  0  0  0  0
 17 18  1  0  0  0  0
 19 20  1  0  0  0  0
 19 17  2  0  0  0  0
 21 22  1  0  0  0  0
 22 23  2  0  0  0  0
 23 29  1  0  0  0  0
 24 23  1  0  0  0  0
 25 24  2  0  0  0  0
 26 21  2  0  0  0  0
 26 25  1  0  0  0  0
 27 21  1  0  0  0  0
 28 22  1  0  0  0  0
M  END
>  <minimizedAffinity>
-4.96405792

$$$$

 OpenBabel03272500313D

 29 31  0  0  0  0  0  0  0  0999 V2000
   36.5310   27.9660   34.5690 Cl  0  0  0  0  0  0  0  0  0  0  0  0
   36.9710   28.1440   32.8780 C   0  0  0  0  0  0  0  0  0  0  0  0
   36.1740   28.9930   32.1370 C   0  0  0  0  0  0  0  0  0  0  0  0
   36.5130   29.1480   30.7800 C   0  0  0  0  0  0  0  0  0  0  0  0
   37.5990   28.4580   30.2780 C   0  0  0  0  0  0  0  0  0  0  0  0
   38.3320   27.6390   31.0860 C   0  0  0  0  0  0  0  0  0  0  0  0
   38.0570   27.4450   32.4080 C   0  0  0  0  0  0  0  0  0  0  0  0
   35.8800   29.8160   30.2110 H   0  0  0  0  0  0  0  0  0  0  0  0
   37.7670   28.6550   29.2180 H   0  0  0  0  0  0  0  0  0  0  0  0
   39.1770   27.1230   30.6300 H   0  0  0  0  0  0  0  0  0  0  0  0
   37.0580   24.6400   32.4550 Cl  0  0  0  0  0  0  0  0  0  0  0  0
   38.4590   25.2530   33.3100 C   0  0  0  0  0  0  0  0  0  0  0  0
   38.8530   26.5720   33.2320 C   0  0  0  0  0  0  0  0  0  0  0  0
   39.9490   27.0890   33.8910 C   0  0  0  0  0  0  0  0  0  0  0  0
   40.2680   28.1170   33.8390 H   0  0  0  0  0  0  0  0  0  0  0  0
   40.6690   26.1800   34.6690 C   0  0  0  0  0  3  0  0  0  0  0  0
   40.3210   24.8360   34.7880 C   0  0  0  0  0  0  0  0  0  0  0  0
   41.2590   23.7470   35.7760 Cl  0  0  0  0  0  0  0  0  0  0  0  0
   39.1960   24.3870   34.0890 C   0  0  0  0  0  0  0  0  0  0  0  0
   38.9710   23.3340   34.2170 H   0  0  0  0  0  0  0  0  0  0  0  0
   32.7690   29.6780   33.2170 C   0  0  0  0  0  0  0  0  0  0  0  0
   32.8400   30.9400   33.8090 C   0  0  0  0  0  0  0  0  0  0  0  0
   34.0980   31.5540   33.8280 C   0  0  0  0  0  0  0  0  0  0  0  0
   35.1630   30.9010   33.2780 N   0  0  0  0  0  0  0  0  0  0  0  0
   35.0420   29.6930   32.7230 C   0  0  0  0  0  0  0  0  0  0  0  0
   33.8410   29.0860   32.6960 N   0  0  0  0  0  0  0  0  0  0  0  0
   31.8310   29.1560   33.1730 H   0  0  0  0  0  0  0  0  0  0  0  0
   31.9340   31.3750   34.2190 H   0  0  0  0  0  0  0  0  0  0  0  0
   34.1760   32.5210   34.2760 H   0  0  0  0  0  0  0  0  0  0  0  0
  2  1  1  0  0  0  0
  3 25  1  0  0  0  0
  3  2  2  0  0  0  0
  4  3  1  0  0  0  0
  5  4  2  0  0  0  0
  5  6  1  0  0  0  0
  6  7  2  0  0  0  0
  7  2  1  0  0  0  0
  7 13  1  0  0  0  0
  8  4  1  0  0  0  0
  9  5  1  0  0  0  0
 10  6  1  0  0  0  0
 11 12  1  0  0  0  0
 12 19  1  0  0  0  0
 13 12  2  0  0  0  0
 13 14  1  0  0  0  0
 14 16  2  0  0  0  0
 15 14  1  0  0  0  0
 16 17  1  0  0  0  0
 17 18  1  0  0  0  0
 19 20  1  0  0  0  0
 19 17  2  0  0  0  0
 21 22  1  0  0  0  0
 22 23  2  0  0  0  0
 22 28  1  0  0  0  0
 23 29  1  0  0  0  0
 24 23  1  0  0  0  0
 25 24  2  0  0  0  0
 26 25  1  0  0  0  0
 26 21  2  0  0  0  0
 27 21  1  0  0  0  0
M  END
>  <minimizedAffinity>
-4.93929577

$$$$

 OpenBabel03272500313D

 29 31  0  0  0  0  0  0  0  0999 V2000
   35.5530   24.5200   31.6030 Cl  0  0  0  0  0  0  0  0  0  0  0  0
   37.2120   24.4800   32.1770 C   0  0  0  0  0  0  0  0  0  0  0  0
   37.7040   23.2310   32.5030 C   0  0  0  0  0  0  0  0  0  0  0  0
   39.0320   23.1810   32.9640 C   0  0  0  0  0  0  0  0  0  0  0  0
   39.7520   24.3560   33.0630 C   0  0  0  0  0  0  0  0  0  0  0  0
   39.1840   25.5470   32.7180 C   0  0  0  0  0  0  0  0  0  0  0  0
   37.9020   25.6650   32.2640 C   0  0  0  0  0  0  0  0  0  0  0  0
   39.4050   22.1970   33.2150 H   0  0  0  0  0  0  0  0  0  0  0  0
   40.7670   24.1960   33.4300 H   0  0  0  0  0  0  0  0  0  0  0  0
   39.8040   26.4370   32.8190 H   0  0  0  0  0  0  0  0  0  0  0  0
   36.7940   27.1480   34.5970 Cl  0  0  0  0  0  0  0  0  0  0  0  0
   36.7970   27.6930   32.9320 C   0  0  0  0  0  0  0  0  0  0  0  0
   37.3340   26.9390   31.9090 C   0  0  0  0  0  0  0  0  0  0  0  0
   37.3530   27.3360   30.5880 C   0  0  0  0  0  0  0  0  0  0  0  0
   37.7690   26.7570   29.7800 H   0  0  0  0  0  0  0  0  0  0  0  0
   36.7830   28.5830   30.3240 C   0  0  0  0  0  3  0  0  0  0  0  0
   36.2260   29.3900   31.3140 C   0  0  0  0  0  0  0  0  0  0  0  0
   35.5270   30.9400   30.9240 Cl  0  0  0  0  0  0  0  0  0  0  0  0
   36.2440   28.9190   32.6310 C   0  0  0  0  0  0  0  0  0  0  0  0
   35.7970   29.5870   33.3590 H   0  0  0  0  0  0  0  0  0  0  0  0
   35.5980   20.4190   33.4410 C   0  0  0  0  0  0  0  0  0  0  0  0
   35.3500   19.7550   32.2380 C   0  0  0  0  0  0  0  0  0  0  0  0
   35.9290   20.3040   31.0880 C   0  0  0  0  0  0  0  0  0  0  0  0
   36.6890   21.4320   31.2020 N   0  0  0  0  0  0  0  0  0  0  0  0
   36.8960   22.0290   32.3770 C   0  0  0  0  0  0  0  0  0  0  0  0
   36.3470   21.5170   33.4940 N   0  0  0  0  0  0  0  0  0  0  0  0
   35.1800   20.0460   34.3580 H   0  0  0  0  0  0  0  0  0  0  0  0
   34.7310   18.8640   32.2530 H   0  0  0  0  0  0  0  0  0  0  0  0
   35.7520   19.8120   30.1560 H   0  0  0  0  0  0  0  0  0  0  0  0
  1  2  1  0  0  0  0
  2  7  2  0  0  0  0
  2  3  1  0  0  0  0
  3  4  2  0  0  0  0
  4  5  1  0  0  0  0
  4  8  1  0  0  0  0
  5  9  1  0  0  0  0
  6 10  1  0  0  0  0
  6  5  2  0  0  0  0
  7  6  1  0  0  0  0
 12 11  1  0  0  0  0
 13  7  1  0  0  0  0
 13 12  2  0  0  0  0
 14 13  1  0  0  0  0
 15 14  1  0  0  0  0
 16 14  2  0  0  0  0
 16 17  1  0  0  0  0
 17 19  2  0  0  0  0
 18 17  1  0  0  0  0
 19 12  1  0  0  0  0
 19 20  1  0  0  0  0
 21 26  1  0  0  0  0
 21 27  1  0  0  0  0
 22 28  1  0  0  0  0
 22 21  2  0  0  0  0
 23 24  2  0  0  0  0
 23 22  1  0  0  0  0
 24 25  1  0  0  0  0
 25  3  1  0  0  0  0
 25 26  2  0  0  0  0
 29 23  1  0  0  0  0
M  END
>  <minimizedAffinity>
-4.88206291

$$$$

 OpenBabel03272500313D

 29 31  0  0  0  0  0  0  0  0999 V2000
   38.2050   27.1530   33.5990 Cl  0  0  0  0  0  0  0  0  0  0  0  0
   37.2610   25.9990   32.6720 C   0  0  0  0  0  0  0  0  0  0  0  0
   37.5170   24.6670   32.9320 C   0  0  0  0  0  0  0  0  0  0  0  0
   36.7680   23.7290   32.1990 C   0  0  0  0  0  0  0  0  0  0  0  0
   35.8410   24.1820   31.2810 C   0  0  0  0  0  0  0  0  0  0  0  0
   35.6540   25.5190   31.0880 C   0  0  0  0  0  0  0  0  0  0  0  0
   36.3460   26.4810   31.7660 C   0  0  0  0  0  0  0  0  0  0  0  0
   36.9790   22.6900   32.4130 H   0  0  0  0  0  0  0  0  0  0  0  0
   35.3220   23.3680   30.7730 H   0  0  0  0  0  0  0  0  0  0  0  0
   34.9080   25.8130   30.3500 H   0  0  0  0  0  0  0  0  0  0  0  0
   38.1890   27.6490   29.7390 Cl  0  0  0  0  0  0  0  0  0  0  0  0
   36.9350   28.5050   30.6120 C   0  0  0  0  0  0  0  0  0  0  0  0
   36.1230   27.8840   31.5380 C   0  0  0  0  0  0  0  0  0  0  0  0
   35.1260   28.5280   32.2430 C   0  0  0  0  0  0  0  0  0  0  0  0
   34.4850   28.0540   32.9690 H   0  0  0  0  0  0  0  0  0  0  0  0
   34.9720   29.8870   31.9660 C   0  0  0  0  0  3  0  0  0  0  0  0
   35.7610   30.5700   31.0420 C   0  0  0  0  0  0  0  0  0  0  0  0
   35.5220   32.2710   30.7380 Cl  0  0  0  0  0  0  0  0  0  0  0  0
   36.7510   29.8490   30.3670 C   0  0  0  0  0  0  0  0  0  0  0  0
   37.3350   30.4300   29.6600 H   0  0  0  0  0  0  0  0  0  0  0  0
   38.9600   23.6850   36.1230 C   0  0  0  0  0  0  0  0  0  0  0  0
   40.3090   23.4640   35.8400 C   0  0  0  0  0  0  0  0  0  0  0  0
   40.7120   23.6620   34.5150 C   0  0  0  0  0  0  0  0  0  0  0  0
   39.7870   24.0530   33.5910 N   0  0  0  0  0  0  0  0  0  0  0  0
   38.5070   24.2520   33.9130 C   0  0  0  0  0  0  0  0  0  0  0  0
   38.0990   24.0650   35.1820 N   0  0  0  0  0  0  0  0  0  0  0  0
   38.5900   23.5490   37.1220 H   0  0  0  0  0  0  0  0  0  0  0  0
   40.9660   23.1540   36.6460 H   0  0  0  0  0  0  0  0  0  0  0  0
   41.7410   23.4990   34.2750 H   0  0  0  0  0  0  0  0  0  0  0  0
  2  3  1  0  0  0  0
  2  1  1  0  0  0  0
  3 25  1  0  0  0  0
  4  8  1  0  0  0  0
  4  3  2  0  0  0  0
  5  4  1  0  0  0  0
  6  5  2  0  0  0  0
  6  7  1  0  0  0  0
  7  2  2  0  0  0  0
  9  5  1  0  0  0  0
 10  6  1  0  0  0  0
 11 12  1  0  0  0  0
 12 13  1  0  0  0  0
 13  7  1  0  0  0  0
 13 14  2  0  0  0  0
 14 15  1  0  0  0  0
 16 14  1  0  0  0  0
 17 16  2  0  0  0  0
 18 17  1  0  0  0  0
 19 12  2  0  0  0  0
 19 17  1  0  0  0  0
 20 19  1  0  0  0  0
 21 27  1  0  0  0  0
 22 21  1  0  0  0  0
 22 28  1  0  0  0  0
 23 22  2  0  0  0  0
 24 25  2  0  0  0  0
 24 23  1  0  0  0  0
 25 26  1  0  0  0  0
 26 21  2  0  0  0  0
 29 23  1  0  0  0  0
M  END
>  <minimizedAffinity>
-4.87832355

$$$$
