
 OpenBabel03272510333D

 29 31  0  0  0  0  0  0  0  0999 V2000
   35.4830   29.9470   46.4600 C   0  0  0  0  0  0  0  0  0  0  0  0
   36.6830   30.5810   46.1870 C   0  0  0  0  0  0  0  0  0  0  0  0
   37.0500   30.8180   44.8700 C   0  0  0  0  0  0  0  0  0  0  0  0
   36.2170   30.4210   43.8560 C   0  0  0  0  0  0  0  0  0  0  0  0
   35.0220   29.7890   44.1160 C   0  0  0  0  0  0  0  0  0  0  0  0
   34.6440   29.5460   45.4310 C   0  0  0  0  0  0  0  0  0  0  0  0
   37.3300   30.8900   46.9950 H   0  0  0  0  0  0  0  0  0  0  0  0
   38.0030   31.3200   44.7220 H   0  0  0  0  0  0  0  0  0  0  0  0
   36.5810   30.6450   42.8490 H   0  0  0  0  0  0  0  0  0  0  0  0
   34.3890   29.4890   43.2920 H   0  0  0  0  0  0  0  0  0  0  0  0
   32.1580   31.2500   45.9300 Cl  0  0  0  0  0  0  0  0  0  0  0  0
   32.1680   29.4890   45.9800 C   0  0  0  0  0  0  0  0  0  0  0  0
   33.3820   28.8800   45.7290 C   0  0  0  0  0  0  0  0  0  0  0  0
   33.3870   27.4940   45.7690 C   0  0  0  0  0  0  0  0  0  0  0  0
   34.3040   26.9630   45.5820 H   0  0  0  0  0  0  0  0  0  0  0  0
   32.2790   26.7190   46.0370 C   0  0  0  0  0  3  0  0  0  0  0  0
   31.0900   27.3470   46.2810 C   0  0  0  0  0  0  0  0  0  0  0  0
   29.6420   26.4070   46.6290 Cl  0  0  0  0  0  0  0  0  0  0  0  0
   31.0460   28.7180   46.2510 C   0  0  0  0  0  0  0  0  0  0  0  0
   30.1180   29.2390   46.4410 H   0  0  0  0  0  0  0  0  0  0  0  0
   34.4500   30.6490   49.8790 C   0  0  0  0  0  0  0  0  0  0  0  0
   34.5160   29.4250   50.5340 C   0  0  0  0  0  0  0  0  0  0  0  0
   34.9330   28.3290   49.7550 C   0  0  0  0  0  0  0  0  0  0  0  0
   35.2380   28.5190   48.4510 N   0  0  0  0  0  0  0  0  0  0  0  0
   35.1580   29.7280   47.8570 C   0  0  0  0  0  0  0  0  0  0  0  0
   34.7630   30.7840   48.5850 N   0  0  0  0  0  0  0  0  0  0  0  0
   34.1250   31.5000   50.4860 H   0  0  0  0  0  0  0  0  0  0  0  0
   34.2840   29.2290   51.5610 H   0  0  0  0  0  0  0  0  0  0  0  0
   35.0100   27.3400   50.1940 H   0  0  0  0  0  0  0  0  0  0  0  0
  1 25  1  0  0  0  0
  2  1  1  0  0  0  0
  2  7  1  0  0  0  0
  3  2  2  0  0  0  0
  4  5  2  0  0  0  0
  4  3  1  0  0  0  0
  5  6  1  0  0  0  0
  6 13  1  0  0  0  0
  6  1  2  0  0  0  0
  8  3  1  0  0  0  0
  9  4  1  0  0  0  0
 10  5  1  0  0  0  0
 11 12  1  0  0  0  0
 12 19  1  0  0  0  0
 13 14  1  0  0  0  0
 13 12  2  0  0  0  0
 14 16  2  0  0  0  0
 15 14  1  0  0  0  0
 16 17  1  0  0  0  0
 17 18  1  0  0  0  0
 19 17  2  0  0  0  0
 19 20  1  0  0  0  0
 21 27  1  0  0  0  0
 21 22  1  0  0  0  0
 22 28  1  0  0  0  0
 23 29  1  0  0  0  0
 23 22  2  0  0  0  0
 24 23  1  0  0  0  0
 25 24  2  0  0  0  0
 25 26  1  0  0  0  0
 26 21  2  0  0  0  0
M  END
>  <minimizedAffinity>
-3.86720181

>  <minimizedRMSD>
6.73812056

$$$$
