
 OpenBabel03272509503D

 34 36  0  0  0  0  0  0  0  0999 V2000
   37.3180   30.1430   51.6050 C   0  0  0  0  0  0  0  0  0  0  0  0
   38.0340   30.8310   50.6250 C   0  0  0  0  0  0  0  0  0  0  0  0
   37.7090   30.6780   49.2990 C   0  0  0  0  0  0  0  0  0  0  0  0
   36.6730   29.8300   49.0720 N   0  0  0  0  0  0  0  0  0  0  0  0
   35.9830   29.1690   49.9900 C   0  0  0  0  0  0  0  0  0  0  0  0
   36.3170   29.3340   51.2770 N   0  0  0  0  0  0  0  0  0  0  0  0
   37.6160   30.3010   52.6350 H   0  0  0  0  0  0  0  0  0  0  0  0
   38.8360   31.4660   50.8960 H   0  0  0  0  0  0  0  0  0  0  0  0
   38.9370   33.5830   49.3340 Cl  0  0  0  0  0  0  0  0  0  0  0  0
   38.9010   32.5030   47.9720 C   0  0  0  0  0  0  0  0  0  0  0  0
   38.3270   31.2830   48.1340 C   0  0  0  0  0  0  0  0  0  0  0  0
   38.3470   30.5380   46.9700 C   0  0  0  0  0  0  0  0  0  0  0  0
   37.9290   29.5220   46.9000 H   0  0  0  0  0  0  0  0  0  0  0  0
   38.8860   30.9790   45.7830 C   0  0  0  0  0  3  0  0  0  0  0  0
   39.4490   32.2280   45.7000 C   0  0  0  0  0  0  0  0  0  0  0  0
   40.1290   32.7700   44.1820 Cl  0  0  0  0  0  0  0  0  0  0  0  0
   39.4460   32.9920   46.8330 C   0  0  0  0  0  0  0  0  0  0  0  0
   39.8910   33.9700   46.7580 H   0  0  0  0  0  0  0  0  0  0  0  0
   34.9820   28.3760   49.4620 O   0  0  0  0  0  0  0  0  0  0  0  0
   34.4730   28.6890   48.1820 C   0  0  0  0  0  0  0  0  0  0  0  0
   35.2640   29.0190   47.4790 H   0  0  0  0  0  0  0  0  0  0  0  0
   33.7980   29.5800   48.3230 H   0  0  0  0  0  0  0  0  0  0  0  0
   33.6230   27.5820   47.6510 C   0  0  0  0  0  0  0  0  0  0  0  0
   33.7970   26.6240   48.1760 H   0  0  0  0  0  0  0  0  0  0  0  0
   33.9040   27.4150   46.5860 H   0  0  0  0  0  0  0  0  0  0  0  0
   32.1680   27.9300   47.6510 C   0  0  0  0  0  0  0  0  0  0  0  0
   31.4150   27.4890   48.7330 C   0  0  0  0  0  0  0  0  0  0  0  0
   30.0660   27.7610   48.8230 C   0  0  0  0  0  0  0  0  0  0  0  0
   29.4670   28.4550   47.8650 N   0  0  0  0  0  0  0  0  0  0  0  0
   30.2170   28.8800   46.8130 C   0  0  0  0  0  0  0  0  0  0  0  0
   31.5290   28.6310   46.6980 N   0  0  0  0  0  0  0  0  0  0  0  0
   31.8720   26.9180   49.5350 H   0  0  0  0  0  0  0  0  0  0  0  0
   29.4760   27.4190   49.6630 H   0  0  0  0  0  0  0  0  0  0  0  0
   29.8480   29.4600   45.9580 H   0  0  0  0  0  0  0  0  0  0  0  0
  1  7  1  0  0  0  0
  2  8  1  0  0  0  0
  2  1  2  0  0  0  0
  3  2  1  0  0  0  0
  4  3  2  0  0  0  0
  4  5  1  0  0  0  0
  5  6  2  0  0  0  0
  6  1  1  0  0  0  0
 10 11  1  0  0  0  0
 10  9  1  0  0  0  0
 11  3  1  0  0  0  0
 12 11  2  0  0  0  0
 13 12  1  0  0  0  0
 14 12  1  0  0  0  0
 15 14  2  0  0  0  0
 15 17  1  0  0  0  0
 16 15  1  0  0  0  0
 17 10  2  0  0  0  0
 18 17  1  0  0  0  0
 19  5  1  0  0  0  0
 20 22  1  0  0  0  0
 20 19  1  0  0  0  0
 21 20  1  0  0  0  0
 23 24  1  0  0  0  0
 23 20  1  0  0  0  0
 25 23  1  0  0  0  0
 26 23  1  0  0  0  0
 26 27  1  0  0  0  0
 27 28  2  0  0  0  0
 27 32  1  0  0  0  0
 28 33  1  0  0  0  0
 29 28  1  0  0  0  0
 30 29  2  0  0  0  0
 31 30  1  0  0  0  0
 31 26  2  0  0  0  0
 34 30  1  0  0  0  0
M  END
>  <minimizedAffinity>
-6.58821964

>  <minimizedRMSD>
1.18647122

$$$$
