
 OpenBabel03272508503D

 41 45  0  0  0  0  0  0  0  0999 V2000
   37.5840   26.4040   33.9320 C   0  0  0  0  0  0  0  0  0  0  0  0
   37.6780   27.1260   35.1070 C   0  0  0  0  0  0  0  0  0  0  0  0
   38.6560   26.4450   35.8250 C   0  0  0  0  0  0  0  0  0  0  0  0
   39.1020   25.3700   35.0790 C   0  0  0  0  0  0  0  0  0  0  0  0
   38.4340   25.3850   33.9550 O   0  0  0  0  0  0  0  0  0  0  0  0
   37.1250   27.9940   35.3770 H   0  0  0  0  0  0  0  0  0  0  0  0
   38.9800   26.7610   36.8260 H   0  0  0  0  0  0  0  0  0  0  0  0
   41.3490   24.4290   34.8580 C   0  0  0  0  0  0  0  0  0  0  0  0
   40.1150   24.4080   35.4660 C   0  0  0  0  0  0  0  0  0  0  0  0
   39.8100   23.4740   36.4570 C   0  0  0  0  0  0  0  0  0  0  0  0
   40.7560   22.5420   36.8490 C   0  0  0  0  0  0  0  0  0  0  0  0
   40.7690   21.5400   37.7490 N   0  0  0  0  0  0  0  0  0  0  0  0
   41.9750   20.9750   37.6840 N   0  0  0  0  0  0  0  0  0  0  0  0
   42.7330   21.5990   36.7580 C   0  0  0  0  0  0  0  0  0  0  0  0
   41.9670   22.6170   36.2030 C   0  0  0  0  0  0  0  0  0  0  0  0
   42.3300   23.5020   35.2300 C   0  0  0  0  0  0  0  0  0  0  0  0
   41.5700   25.1730   34.0810 H   0  0  0  0  0  0  0  0  0  0  0  0
   38.8510   23.4150   36.9680 H   0  0  0  0  0  0  0  0  0  0  0  0
   39.9740   21.2810   38.3630 H   0  0  0  0  0  0  0  0  0  0  0  0
   43.7720   21.3470   36.4910 H   0  0  0  0  0  0  0  0  0  0  0  0
   43.2830   23.5210   34.7580 H   0  0  0  0  0  0  0  0  0  0  0  0
   36.6840   26.7240   32.8380 C   0  0  0  0  0  0  0  0  0  0  0  0
   36.2510   25.7770   32.1410 O   0  0  0  0  0  0  0  0  0  0  0  0
   36.0110   29.8080   31.0140 C   0  0  0  0  0  0  0  0  0  0  0  0
   35.6260   30.6890   32.0300 C   0  0  0  0  0  0  0  0  0  0  0  0
   35.5950   30.2450   33.3280 C   0  0  0  0  0  0  0  0  0  0  0  0
   35.9430   28.9540   33.5650 N   0  0  0  0  0  0  0  0  0  0  0  0
   36.3120   28.1100   32.5780 C   0  0  0  0  0  0  0  0  0  0  0  0
   36.3440   28.5420   31.3020 N   0  0  0  0  0  0  0  0  0  0  0  0
   36.0500   30.1070   29.9920 H   0  0  0  0  0  0  0  0  0  0  0  0
   35.3670   31.6930   31.7620 H   0  0  0  0  0  0  0  0  0  0  0  0
   32.7320   30.0350   34.1510 Cl  0  0  0  0  0  0  0  0  0  0  0  0
   33.9000   31.0890   34.8820 C   0  0  0  0  0  0  0  0  0  0  0  0
   35.2050   31.1140   34.4300 C   0  0  0  0  0  0  0  0  0  0  0  0
   36.0330   31.9760   35.0770 C   0  0  0  0  0  0  0  0  0  0  0  0
   37.0640   32.0450   34.7740 H   0  0  0  0  0  0  0  0  0  0  0  0
   35.6260   32.7850   36.1180 C   0  0  0  0  0  3  0  0  0  0  0  0
   34.3100   32.7370   36.5480 C   0  0  0  0  0  0  0  0  0  0  0  0
   33.8510   33.7960   37.8860 Cl  0  0  0  0  0  0  0  0  0  0  0  0
   33.4260   31.8670   35.9140 C   0  0  0  0  0  0  0  0  0  0  0  0
   32.4100   31.8530   36.2730 H   0  0  0  0  0  0  0  0  0  0  0  0
  1  5  1  0  0  0  0
  1  2  2  0  0  0  0
  2  6  1  0  0  0  0
  2  3  1  0  0  0  0
  3  7  1  0  0  0  0
  4  9  1  0  0  0  0
  4  3  2  0  0  0  0
  5  4  1  0  0  0  0
  8 16  2  0  0  0  0
  8  9  1  0  0  0  0
  9 10  2  0  0  0  0
 10 11  1  0  0  0  0
 10 18  1  0  0  0  0
 11 12  1  0  0  0  0
 12 19  1  0  0  0  0
 13 12  1  0  0  0  0
 14 13  2  0  0  0  0
 15 14  1  0  0  0  0
 15 11  2  0  0  0  0
 16 15  1  0  0  0  0
 17  8  1  0  0  0  0
 20 14  1  0  0  0  0
 21 16  1  0  0  0  0
 22  1  1  0  0  0  0
 23 22  2  0  0  0  0
 24 29  2  0  0  0  0
 24 25  1  0  0  0  0
 25 26  2  0  0  0  0
 26 27  1  0  0  0  0
 26 34  1  0  0  0  0
 28 22  1  0  0  0  0
 28 27  2  0  0  0  0
 29 28  1  0  0  0  0
 30 24  1  0  0  0  0
 31 25  1  0  0  0  0
 32 33  1  0  0  0  0
 33 40  1  0  0  0  0
 34 33  2  0  0  0  0
 34 35  1  0  0  0  0
 35 37  2  0  0  0  0
 36 35  1  0  0  0  0
 37 38  1  0  0  0  0
 38 39  1  0  0  0  0
 40 41  1  0  0  0  0
 40 38  2  0  0  0  0
M  END
>  <minimizedAffinity>
-7.15641689

$$$$

 OpenBabel03272508503D

 41 45  0  0  0  0  0  0  0  0999 V2000
   36.8350   25.8960   31.1870 C   0  0  0  0  0  0  0  0  0  0  0  0
   35.4680   25.8630   30.9870 C   0  0  0  0  0  0  0  0  0  0  0  0
   35.1520   24.5180   31.1460 C   0  0  0  0  0  0  0  0  0  0  0  0
   36.3050   23.8100   31.4270 C   0  0  0  0  0  0  0  0  0  0  0  0
   37.2880   24.6750   31.4420 O   0  0  0  0  0  0  0  0  0  0  0  0
   34.8280   26.6850   30.7660 H   0  0  0  0  0  0  0  0  0  0  0  0
   34.1250   24.1380   31.0500 H   0  0  0  0  0  0  0  0  0  0  0  0
   37.6450   21.8120   31.8680 C   0  0  0  0  0  0  0  0  0  0  0  0
   36.4110   22.3830   31.6600 C   0  0  0  0  0  0  0  0  0  0  0  0
   35.2460   21.6160   31.6670 C   0  0  0  0  0  0  0  0  0  0  0  0
   35.3130   20.2510   31.8880 C   0  0  0  0  0  0  0  0  0  0  0  0
   34.3980   19.2650   31.9530 N   0  0  0  0  0  0  0  0  0  0  0  0
   35.0620   18.1350   32.1940 N   0  0  0  0  0  0  0  0  0  0  0  0
   36.3860   18.3810   32.2830 C   0  0  0  0  0  0  0  0  0  0  0  0
   36.5750   19.7430   32.0890 C   0  0  0  0  0  0  0  0  0  0  0  0
   37.7510   20.4340   32.0950 C   0  0  0  0  0  0  0  0  0  0  0  0
   38.5510   22.4330   31.8590 H   0  0  0  0  0  0  0  0  0  0  0  0
   34.2470   22.0190   31.5080 H   0  0  0  0  0  0  0  0  0  0  0  0
   33.3750   19.3930   31.8340 H   0  0  0  0  0  0  0  0  0  0  0  0
   37.1740   17.6350   32.4760 H   0  0  0  0  0  0  0  0  0  0  0  0
   38.7070   19.9950   32.2560 H   0  0  0  0  0  0  0  0  0  0  0  0
   37.6490   27.0980   31.1260 C   0  0  0  0  0  0  0  0  0  0  0  0
   38.8870   26.9600   30.9870 O   0  0  0  0  0  0  0  0  0  0  0  0
   36.5030   30.4300   30.1900 C   0  0  0  0  0  0  0  0  0  0  0  0
   35.8680   30.8750   31.3550 C   0  0  0  0  0  0  0  0  0  0  0  0
   35.8280   30.0550   32.4540 C   0  0  0  0  0  0  0  0  0  0  0  0
   36.4130   28.8340   32.3550 N   0  0  0  0  0  0  0  0  0  0  0  0
   37.0230   28.4110   31.2270 C   0  0  0  0  0  0  0  0  0  0  0  0
   37.0640   29.2140   30.1450 N   0  0  0  0  0  0  0  0  0  0  0  0
   36.5590   31.0310   29.3120 H   0  0  0  0  0  0  0  0  0  0  0  0
   35.4310   31.8530   31.3540 H   0  0  0  0  0  0  0  0  0  0  0  0
   33.0050   29.1340   32.7750 Cl  0  0  0  0  0  0  0  0  0  0  0  0
   33.8770   30.0840   33.9350 C   0  0  0  0  0  0  0  0  0  0  0  0
   35.1840   30.4620   33.6960 C   0  0  0  0  0  0  0  0  0  0  0  0
   35.7690   31.2030   34.6730 C   0  0  0  0  0  0  0  0  0  0  0  0
   36.7870   31.5300   34.5490 H   0  0  0  0  0  0  0  0  0  0  0  0
   35.1250   31.5700   35.8370 C   0  0  0  0  0  3  0  0  0  0  0  0
   33.8140   31.1760   36.0480 C   0  0  0  0  0  0  0  0  0  0  0  0
   33.0460   31.6770   37.5590 Cl  0  0  0  0  0  0  0  0  0  0  0  0
   33.1750   30.4150   35.0730 C   0  0  0  0  0  0  0  0  0  0  0  0
   32.1560   30.1230   35.2680 H   0  0  0  0  0  0  0  0  0  0  0  0
  1  5  1  0  0  0  0
  2  3  1  0  0  0  0
  2  1  2  0  0  0  0
  3  4  2  0  0  0  0
  4  5  1  0  0  0  0
  4  9  1  0  0  0  0
  6  2  1  0  0  0  0
  7  3  1  0  0  0  0
  8 16  1  0  0  0  0
  9 10  1  0  0  0  0
  9  8  2  0  0  0  0
 10 11  2  0  0  0  0
 11 12  1  0  0  0  0
 11 15  1  0  0  0  0
 12 13  1  0  0  0  0
 13 14  2  0  0  0  0
 14 20  1  0  0  0  0
 15 16  2  0  0  0  0
 15 14  1  0  0  0  0
 16 21  1  0  0  0  0
 17  8  1  0  0  0  0
 18 10  1  0  0  0  0
 19 12  1  0  0  0  0
 22  1  1  0  0  0  0
 22 28  1  0  0  0  0
 23 22  2  0  0  0  0
 24 25  1  0  0  0  0
 25 26  2  0  0  0  0
 26 34  1  0  0  0  0
 27 26  1  0  0  0  0
 28 27  2  0  0  0  0
 29 24  2  0  0  0  0
 29 28  1  0  0  0  0
 30 24  1  0  0  0  0
 31 25  1  0  0  0  0
 32 33  1  0  0  0  0
 33 40  1  0  0  0  0
 34 33  2  0  0  0  0
 34 35  1  0  0  0  0
 35 37  2  0  0  0  0
 36 35  1  0  0  0  0
 37 38  1  0  0  0  0
 38 39  1  0  0  0  0
 40 41  1  0  0  0  0
 40 38  2  0  0  0  0
M  END
>  <minimizedAffinity>
-6.96523905

$$$$

 OpenBabel03272508503D

 41 45  0  0  0  0  0  0  0  0999 V2000
   36.7690   25.1880   31.6620 C   0  0  0  0  0  0  0  0  0  0  0  0
   37.5650   24.3510   30.9030 C   0  0  0  0  0  0  0  0  0  0  0  0
   38.3450   23.7010   31.8540 C   0  0  0  0  0  0  0  0  0  0  0  0
   38.0010   24.1560   33.1120 C   0  0  0  0  0  0  0  0  0  0  0  0
   37.0540   25.0440   32.9500 O   0  0  0  0  0  0  0  0  0  0  0  0
   37.5650   24.2460   29.8440 H   0  0  0  0  0  0  0  0  0  0  0  0
   39.1020   22.9510   31.5830 H   0  0  0  0  0  0  0  0  0  0  0  0
   39.6550   22.8790   34.3840 C   0  0  0  0  0  0  0  0  0  0  0  0
   38.5770   23.7330   34.3740 C   0  0  0  0  0  0  0  0  0  0  0  0
   38.0170   24.2090   35.5600 C   0  0  0  0  0  0  0  0  0  0  0  0
   38.5440   23.8250   36.7810 C   0  0  0  0  0  0  0  0  0  0  0  0
   38.2380   24.1000   38.0640 N   0  0  0  0  0  0  0  0  0  0  0  0
   39.1070   23.4320   38.8220 N   0  0  0  0  0  0  0  0  0  0  0  0
   39.9630   22.7330   38.0470 C   0  0  0  0  0  0  0  0  0  0  0  0
   39.6190   22.9700   36.7220 C   0  0  0  0  0  0  0  0  0  0  0  0
   40.2150   22.4690   35.6010 C   0  0  0  0  0  0  0  0  0  0  0  0
   40.0820   22.5160   33.4390 H   0  0  0  0  0  0  0  0  0  0  0  0
   37.1650   24.8850   35.6070 H   0  0  0  0  0  0  0  0  0  0  0  0
   37.4660   24.7210   38.3720 H   0  0  0  0  0  0  0  0  0  0  0  0
   40.7850   22.0910   38.4010 H   0  0  0  0  0  0  0  0  0  0  0  0
   41.0480   21.8090   35.6050 H   0  0  0  0  0  0  0  0  0  0  0  0
   35.7670   26.0890   31.1180 C   0  0  0  0  0  0  0  0  0  0  0  0
   34.7920   25.5840   30.5150 O   0  0  0  0  0  0  0  0  0  0  0  0
   36.6940   29.5420   30.4050 C   0  0  0  0  0  0  0  0  0  0  0  0
   36.2190   30.2260   31.5280 C   0  0  0  0  0  0  0  0  0  0  0  0
   35.5880   29.5260   32.5250 C   0  0  0  0  0  0  0  0  0  0  0  0
   35.4540   28.1840   32.3690 N   0  0  0  0  0  0  0  0  0  0  0  0
   35.9150   27.5310   31.2810 C   0  0  0  0  0  0  0  0  0  0  0  0
   36.5350   28.2160   30.2990 N   0  0  0  0  0  0  0  0  0  0  0  0
   37.1890   30.0430   29.6050 H   0  0  0  0  0  0  0  0  0  0  0  0
   36.3640   31.2870   31.5780 H   0  0  0  0  0  0  0  0  0  0  0  0
   32.6230   29.8750   32.5970 Cl  0  0  0  0  0  0  0  0  0  0  0  0
   33.7130   30.3880   33.8450 C   0  0  0  0  0  0  0  0  0  0  0  0
   35.0730   30.1810   33.7200 C   0  0  0  0  0  0  0  0  0  0  0  0
   35.8310   30.6220   34.7580 C   0  0  0  0  0  0  0  0  0  0  0  0
   36.8990   30.4920   34.7240 H   0  0  0  0  0  0  0  0  0  0  0  0
   35.3060   31.2400   35.8750 C   0  0  0  0  0  3  0  0  0  0  0  0
   33.9380   31.4330   35.9700 C   0  0  0  0  0  0  0  0  0  0  0  0
   33.3270   32.2290   37.4250 Cl  0  0  0  0  0  0  0  0  0  0  0  0
   33.1220   30.9970   34.9290 C   0  0  0  0  0  0  0  0  0  0  0  0
   32.0620   31.1610   35.0350 H   0  0  0  0  0  0  0  0  0  0  0  0
  1  5  1  0  0  0  0
  2  1  2  0  0  0  0
  2  3  1  0  0  0  0
  3  4  2  0  0  0  0
  4  9  1  0  0  0  0
  5  4  1  0  0  0  0
  6  2  1  0  0  0  0
  7  3  1  0  0  0  0
  8 16  1  0  0  0  0
  9  8  2  0  0  0  0
  9 10  1  0  0  0  0
 10 18  1  0  0  0  0
 10 11  2  0  0  0  0
 11 12  1  0  0  0  0
 12 19  1  0  0  0  0
 12 13  1  0  0  0  0
 14 20  1  0  0  0  0
 14 13  2  0  0  0  0
 15 11  1  0  0  0  0
 15 14  1  0  0  0  0
 16 21  1  0  0  0  0
 16 15  2  0  0  0  0
 17  8  1  0  0  0  0
 22 28  1  0  0  0  0
 22  1  1  0  0  0  0
 23 22  2  0  0  0  0
 24 25  1  0  0  0  0
 25 31  1  0  0  0  0
 25 26  2  0  0  0  0
 26 34  1  0  0  0  0
 27 26  1  0  0  0  0
 28 27  2  0  0  0  0
 29 24  2  0  0  0  0
 29 28  1  0  0  0  0
 30 24  1  0  0  0  0
 32 33  1  0  0  0  0
 33 40  1  0  0  0  0
 34 33  2  0  0  0  0
 34 35  1  0  0  0  0
 35 37  2  0  0  0  0
 36 35  1  0  0  0  0
 37 38  1  0  0  0  0
 38 39  1  0  0  0  0
 40 41  1  0  0  0  0
 40 38  2  0  0  0  0
M  END
>  <minimizedAffinity>
-6.9227109

$$$$

 OpenBabel03272508503D

 41 45  0  0  0  0  0  0  0  0999 V2000
   37.9390   26.7480   34.1160 C   0  0  0  0  0  0  0  0  0  0  0  0
   38.0220   27.3870   35.3380 C   0  0  0  0  0  0  0  0  0  0  0  0
   38.9440   26.6180   36.0410 C   0  0  0  0  0  0  0  0  0  0  0  0
   39.3690   25.5750   35.2410 C   0  0  0  0  0  0  0  0  0  0  0  0
   38.7420   25.6920   34.0980 O   0  0  0  0  0  0  0  0  0  0  0  0
   37.4970   28.2600   35.6480 H   0  0  0  0  0  0  0  0  0  0  0  0
   39.2460   26.8540   37.0710 H   0  0  0  0  0  0  0  0  0  0  0  0
   41.5750   24.5400   35.0180 C   0  0  0  0  0  0  0  0  0  0  0  0
   40.3260   24.5450   35.5950 C   0  0  0  0  0  0  0  0  0  0  0  0
   39.9530   23.5730   36.5240 C   0  0  0  0  0  0  0  0  0  0  0  0
   40.8430   22.5770   36.8840 C   0  0  0  0  0  0  0  0  0  0  0  0
   40.7870   21.5260   37.7260 N   0  0  0  0  0  0  0  0  0  0  0  0
   41.9660   20.9090   37.6570 N   0  0  0  0  0  0  0  0  0  0  0  0
   42.7760   21.5460   36.7850 C   0  0  0  0  0  0  0  0  0  0  0  0
   42.0730   22.6290   36.2710 C   0  0  0  0  0  0  0  0  0  0  0  0
   42.5020   23.5470   35.3590 C   0  0  0  0  0  0  0  0  0  0  0  0
   41.8500   25.3150   34.2890 H   0  0  0  0  0  0  0  0  0  0  0  0
   38.9790   23.5320   37.0090 H   0  0  0  0  0  0  0  0  0  0  0  0
   39.9650   21.2720   38.3060 H   0  0  0  0  0  0  0  0  0  0  0  0
   43.8090   21.2590   36.5280 H   0  0  0  0  0  0  0  0  0  0  0  0
   43.4660   23.5470   34.9100 H   0  0  0  0  0  0  0  0  0  0  0  0
   37.0920   27.1790   33.0170 C   0  0  0  0  0  0  0  0  0  0  0  0
   37.0100   28.4090   32.7890 O   0  0  0  0  0  0  0  0  0  0  0  0
   34.6940   25.7670   30.6620 C   0  0  0  0  0  0  0  0  0  0  0  0
   34.9880   24.4010   30.7060 C   0  0  0  0  0  0  0  0  0  0  0  0
   35.9920   23.9550   31.5280 C   0  0  0  0  0  0  0  0  0  0  0  0
   36.6600   24.8760   32.2680 N   0  0  0  0  0  0  0  0  0  0  0  0
   36.3700   26.1940   32.2200 C   0  0  0  0  0  0  0  0  0  0  0  0
   35.3850   26.6350   31.4130 N   0  0  0  0  0  0  0  0  0  0  0  0
   33.9240   26.1600   30.0390 H   0  0  0  0  0  0  0  0  0  0  0  0
   34.4140   23.7360   30.0910 H   0  0  0  0  0  0  0  0  0  0  0  0
   38.4850   23.1790   30.0780 Cl  0  0  0  0  0  0  0  0  0  0  0  0
   37.4810   22.0890   30.9800 C   0  0  0  0  0  0  0  0  0  0  0  0
   36.3440   22.5440   31.6190 C   0  0  0  0  0  0  0  0  0  0  0  0
   35.6350   21.6030   32.2960 C   0  0  0  0  0  0  0  0  0  0  0  0
   34.7380   21.8920   32.8160 H   0  0  0  0  0  0  0  0  0  0  0  0
   36.0000   20.2740   32.3590 C   0  0  0  0  0  3  0  0  0  0  0  0
   37.1460   19.8480   31.7070 C   0  0  0  0  0  0  0  0  0  0  0  0
   37.5620   18.1350   31.8260 Cl  0  0  0  0  0  0  0  0  0  0  0  0
   37.9040   20.7790   31.0010 C   0  0  0  0  0  0  0  0  0  0  0  0
   38.7900   20.4150   30.5060 H   0  0  0  0  0  0  0  0  0  0  0  0
  1  2  2  0  0  0  0
  2  6  1  0  0  0  0
  2  3  1  0  0  0  0
  3  7  1  0  0  0  0
  4  9  1  0  0  0  0
  4  3  2  0  0  0  0
  5  1  1  0  0  0  0
  5  4  1  0  0  0  0
  8 16  2  0  0  0  0
  8  9  1  0  0  0  0
  9 10  2  0  0  0  0
 10 11  1  0  0  0  0
 10 18  1  0  0  0  0
 11 12  1  0  0  0  0
 12 19  1  0  0  0  0
 13 12  1  0  0  0  0
 14 13  2  0  0  0  0
 15 14  1  0  0  0  0
 15 11  2  0  0  0  0
 16 15  1  0  0  0  0
 17  8  1  0  0  0  0
 20 14  1  0  0  0  0
 21 16  1  0  0  0  0
 22  1  1  0  0  0  0
 23 22  2  0  0  0  0
 24 25  2  0  0  0  0
 24 29  1  0  0  0  0
 25 26  1  0  0  0  0
 26 34  1  0  0  0  0
 26 27  2  0  0  0  0
 28 27  1  0  0  0  0
 28 22  1  0  0  0  0
 29 28  2  0  0  0  0
 30 24  1  0  0  0  0
 31 25  1  0  0  0  0
 32 33  1  0  0  0  0
 33 40  2  0  0  0  0
 33 34  1  0  0  0  0
 34 35  2  0  0  0  0
 35 37  1  0  0  0  0
 35 36  1  0  0  0  0
 38 39  1  0  0  0  0
 38 37  2  0  0  0  0
 40 38  1  0  0  0  0
 41 40  1  0  0  0  0
M  END
>  <minimizedAffinity>
-6.81928015

$$$$

 OpenBabel03272508503D

 41 45  0  0  0  0  0  0  0  0999 V2000
   36.0920   25.6730   31.8560 C   0  0  0  0  0  0  0  0  0  0  0  0
   35.0070   25.6170   31.0010 C   0  0  0  0  0  0  0  0  0  0  0  0
   34.8380   24.2530   30.7870 C   0  0  0  0  0  0  0  0  0  0  0  0
   35.7970   23.5580   31.4990 C   0  0  0  0  0  0  0  0  0  0  0  0
   36.5250   24.4470   32.1240 O   0  0  0  0  0  0  0  0  0  0  0  0
   34.4490   26.4350   30.6120 H   0  0  0  0  0  0  0  0  0  0  0  0
   34.0440   23.8520   30.1400 H   0  0  0  0  0  0  0  0  0  0  0  0
   34.9790   21.3280   32.0850 C   0  0  0  0  0  0  0  0  0  0  0  0
   35.9670   22.1190   31.5460 C   0  0  0  0  0  0  0  0  0  0  0  0
   37.1430   21.5650   31.0370 C   0  0  0  0  0  0  0  0  0  0  0  0
   37.3360   20.1950   31.0670 C   0  0  0  0  0  0  0  0  0  0  0  0
   38.3310   19.3780   30.6680 N   0  0  0  0  0  0  0  0  0  0  0  0
   37.9520   18.1340   30.9590 N   0  0  0  0  0  0  0  0  0  0  0  0
   36.7320   18.1410   31.5370 C   0  0  0  0  0  0  0  0  0  0  0  0
   36.3120   19.4620   31.6190 C   0  0  0  0  0  0  0  0  0  0  0  0
   35.1400   19.9370   32.1320 C   0  0  0  0  0  0  0  0  0  0  0  0
   34.0610   21.7830   32.4800 H   0  0  0  0  0  0  0  0  0  0  0  0
   37.9530   22.1460   30.6010 H   0  0  0  0  0  0  0  0  0  0  0  0
   39.2140   19.6900   30.2210 H   0  0  0  0  0  0  0  0  0  0  0  0
   36.1710   17.2570   31.8820 H   0  0  0  0  0  0  0  0  0  0  0  0
   34.3750   19.3290   32.5490 H   0  0  0  0  0  0  0  0  0  0  0  0
   36.6660   26.9000   32.3810 C   0  0  0  0  0  0  0  0  0  0  0  0
   36.5580   27.9390   31.6870 O   0  0  0  0  0  0  0  0  0  0  0  0
   37.7730   28.0130   35.6700 C   0  0  0  0  0  0  0  0  0  0  0  0
   38.5750   26.9510   36.1000 C   0  0  0  0  0  0  0  0  0  0  0  0
   38.7440   25.8620   35.2830 C   0  0  0  0  0  0  0  0  0  0  0  0
   38.1140   25.8690   34.0810 N   0  0  0  0  0  0  0  0  0  0  0  0
   37.3410   26.8980   33.6740 C   0  0  0  0  0  0  0  0  0  0  0  0
   37.1730   27.9690   34.4730 N   0  0  0  0  0  0  0  0  0  0  0  0
   37.6130   28.8790   36.2700 H   0  0  0  0  0  0  0  0  0  0  0  0
   39.0400   27.0210   37.0640 H   0  0  0  0  0  0  0  0  0  0  0  0
   37.3990   23.8790   37.0670 Cl  0  0  0  0  0  0  0  0  0  0  0  0
   39.0330   23.7540   36.4980 C   0  0  0  0  0  0  0  0  0  0  0  0
   39.5670   24.7250   35.6730 C   0  0  0  0  0  0  0  0  0  0  0  0
   40.8560   24.5250   35.2890 C   0  0  0  0  0  0  0  0  0  0  0  0
   41.3320   25.2440   34.6460 H   0  0  0  0  0  0  0  0  0  0  0  0
   41.6050   23.4340   35.6810 C   0  0  0  0  0  3  0  0  0  0  0  0
   41.0410   22.4780   36.5090 C   0  0  0  0  0  0  0  0  0  0  0  0
   42.0520   21.1050   36.9740 Cl  0  0  0  0  0  0  0  0  0  0  0  0
   39.7230   22.6430   36.9270 C   0  0  0  0  0  0  0  0  0  0  0  0
   39.3140   21.8810   37.5700 H   0  0  0  0  0  0  0  0  0  0  0  0
  1  5  1  0  0  0  0
  1 22  1  0  0  0  0
  2  1  2  0  0  0  0
  3  2  1  0  0  0  0
  3  4  2  0  0  0  0
  4  9  1  0  0  0  0
  4  5  1  0  0  0  0
  6  2  1  0  0  0  0
  7  3  1  0  0  0  0
  8 16  1  0  0  0  0
  8 17  1  0  0  0  0
  9  8  2  0  0  0  0
 10 11  2  0  0  0  0
 10  9  1  0  0  0  0
 11 15  1  0  0  0  0
 12 13  1  0  0  0  0
 12 11  1  0  0  0  0
 13 14  2  0  0  0  0
 14 15  1  0  0  0  0
 14 20  1  0  0  0  0
 15 16  2  0  0  0  0
 16 21  1  0  0  0  0
 18 10  1  0  0  0  0
 19 12  1  0  0  0  0
 22 28  1  0  0  0  0
 23 22  2  0  0  0  0
 24 25  1  0  0  0  0
 24 30  1  0  0  0  0
 25 31  1  0  0  0  0
 26 34  1  0  0  0  0
 26 25  2  0  0  0  0
 27 26  1  0  0  0  0
 28 27  2  0  0  0  0
 28 29  1  0  0  0  0
 29 24  2  0  0  0  0
 33 40  1  0  0  0  0
 33 32  1  0  0  0  0
 34 33  2  0  0  0  0
 35 34  1  0  0  0  0
 35 37  2  0  0  0  0
 36 35  1  0  0  0  0
 37 38  1  0  0  0  0
 38 40  2  0  0  0  0
 38 39  1  0  0  0  0
 40 41  1  0  0  0  0
M  END
>  <minimizedAffinity>
-6.81375456

$$$$

 OpenBabel03272508503D

 41 45  0  0  0  0  0  0  0  0999 V2000
   38.2750   24.7720   35.7810 C   0  0  0  0  0  0  0  0  0  0  0  0
   38.5250   25.7810   36.6920 C   0  0  0  0  0  0  0  0  0  0  0  0
   38.1600   26.9330   36.0030 C   0  0  0  0  0  0  0  0  0  0  0  0
   37.7170   26.5870   34.7410 C   0  0  0  0  0  0  0  0  0  0  0  0
   37.8030   25.2850   34.6510 O   0  0  0  0  0  0  0  0  0  0  0  0
   38.9060   25.6780   37.6800 H   0  0  0  0  0  0  0  0  0  0  0  0
   38.2360   27.9350   36.4480 H   0  0  0  0  0  0  0  0  0  0  0  0
   36.2750   28.4210   34.0020 C   0  0  0  0  0  0  0  0  0  0  0  0
   37.2470   27.4910   33.7090 C   0  0  0  0  0  0  0  0  0  0  0  0
   37.7980   27.3960   32.4310 C   0  0  0  0  0  0  0  0  0  0  0  0
   37.3710   28.2450   31.4240 C   0  0  0  0  0  0  0  0  0  0  0  0
   37.6950   28.3990   30.1260 N   0  0  0  0  0  0  0  0  0  0  0  0
   36.9420   29.3910   29.6530 N   0  0  0  0  0  0  0  0  0  0  0  0
   36.1410   29.8740   30.6250 C   0  0  0  0  0  0  0  0  0  0  0  0
   36.3990   29.1490   31.7820 C   0  0  0  0  0  0  0  0  0  0  0  0
   35.8190   29.2960   33.0080 C   0  0  0  0  0  0  0  0  0  0  0  0
   35.8540   28.4800   35.0150 H   0  0  0  0  0  0  0  0  0  0  0  0
   38.5680   26.6800   32.1480 H   0  0  0  0  0  0  0  0  0  0  0  0
   38.4040   27.8360   29.6190 H   0  0  0  0  0  0  0  0  0  0  0  0
   35.4130   30.6950   30.5210 H   0  0  0  0  0  0  0  0  0  0  0  0
   35.0680   30.0130   33.2380 H   0  0  0  0  0  0  0  0  0  0  0  0
   38.4990   23.3590   36.0330 C   0  0  0  0  0  0  0  0  0  0  0  0
   39.5660   23.0290   36.6030 O   0  0  0  0  0  0  0  0  0  0  0  0
   35.6430   21.1010   36.2090 C   0  0  0  0  0  0  0  0  0  0  0  0
   35.6120   20.5450   34.9260 C   0  0  0  0  0  0  0  0  0  0  0  0
   36.5520   20.9280   34.0030 C   0  0  0  0  0  0  0  0  0  0  0  0
   37.4780   21.8440   34.3870 N   0  0  0  0  0  0  0  0  0  0  0  0
   37.5010   22.3760   35.6270 C   0  0  0  0  0  0  0  0  0  0  0  0
   36.5800   22.0010   36.5360 N   0  0  0  0  0  0  0  0  0  0  0  0
   34.9340   20.8340   36.9580 H   0  0  0  0  0  0  0  0  0  0  0  0
   34.8480   19.8270   34.7000 H   0  0  0  0  0  0  0  0  0  0  0  0
   35.4740   22.7450   31.8920 Cl  0  0  0  0  0  0  0  0  0  0  0  0
   36.0940   21.1510   31.6070 C   0  0  0  0  0  0  0  0  0  0  0  0
   36.5730   20.3850   32.6520 C   0  0  0  0  0  0  0  0  0  0  0  0
   37.0350   19.1520   32.3130 C   0  0  0  0  0  0  0  0  0  0  0  0
   37.4220   18.5040   33.0800 H   0  0  0  0  0  0  0  0  0  0  0  0
   37.0380   18.6710   31.0190 C   0  0  0  0  0  3  0  0  0  0  0  0
   36.5500   19.4630   29.9930 C   0  0  0  0  0  0  0  0  0  0  0  0
   36.5820   18.7900   28.3590 Cl  0  0  0  0  0  0  0  0  0  0  0  0
   36.0670   20.7340   30.2950 C   0  0  0  0  0  0  0  0  0  0  0  0
   35.6960   21.3250   29.4740 H   0  0  0  0  0  0  0  0  0  0  0  0
  1 22  1  0  0  0  0
  1  2  2  0  0  0  0
  2  6  1  0  0  0  0
  3  7  1  0  0  0  0
  3  2  1  0  0  0  0
  4  3  2  0  0  0  0
  5  4  1  0  0  0  0
  5  1  1  0  0  0  0
  8 17  1  0  0  0  0
  9  8  1  0  0  0  0
  9  4  1  0  0  0  0
 10  9  2  0  0  0  0
 11 15  2  0  0  0  0
 11 10  1  0  0  0  0
 12 11  1  0  0  0  0
 13 12  1  0  0  0  0
 13 14  2  0  0  0  0
 14 15  1  0  0  0  0
 15 16  1  0  0  0  0
 16 21  1  0  0  0  0
 16  8  2  0  0  0  0
 18 10  1  0  0  0  0
 19 12  1  0  0  0  0
 20 14  1  0  0  0  0
 22 23  2  0  0  0  0
 24 29  1  0  0  0  0
 24 30  1  0  0  0  0
 25 24  2  0  0  0  0
 26 27  2  0  0  0  0
 26 25  1  0  0  0  0
 27 28  1  0  0  0  0
 28 22  1  0  0  0  0
 28 29  2  0  0  0  0
 31 25  1  0  0  0  0
 33 32  1  0  0  0  0
 33 34  1  0  0  0  0
 34 26  1  0  0  0  0
 35 34  2  0  0  0  0
 35 36  1  0  0  0  0
 37 35  1  0  0  0  0
 38 40  1  0  0  0  0
 38 37  2  0  0  0  0
 39 38  1  0  0  0  0
 40 33  2  0  0  0  0
 41 40  1  0  0  0  0
M  END
>  <minimizedAffinity>
-6.72321558

$$$$

 OpenBabel03272508503D

 41 45  0  0  0  0  0  0  0  0999 V2000
   36.2780   29.0240   31.8130 C   0  0  0  0  0  0  0  0  0  0  0  0
   36.7740   28.1910   30.8280 C   0  0  0  0  0  0  0  0  0  0  0  0
   37.3360   27.1420   31.5480 C   0  0  0  0  0  0  0  0  0  0  0  0
   37.1640   27.3740   32.8990 C   0  0  0  0  0  0  0  0  0  0  0  0
   36.5260   28.5110   33.0120 O   0  0  0  0  0  0  0  0  0  0  0  0
   36.7260   28.3370   29.7750 H   0  0  0  0  0  0  0  0  0  0  0  0
   37.8280   26.2880   31.0600 H   0  0  0  0  0  0  0  0  0  0  0  0
   37.8440   27.0660   35.2290 C   0  0  0  0  0  0  0  0  0  0  0  0
   37.6040   26.5240   33.9880 C   0  0  0  0  0  0  0  0  0  0  0  0
   37.7760   25.1600   33.7470 C   0  0  0  0  0  0  0  0  0  0  0  0
   38.1950   24.3210   34.7650 C   0  0  0  0  0  0  0  0  0  0  0  0
   38.4470   23.0000   34.8500 N   0  0  0  0  0  0  0  0  0  0  0  0
   38.8270   22.7570   36.1030 N   0  0  0  0  0  0  0  0  0  0  0  0
   38.8220   23.8990   36.8230 C   0  0  0  0  0  0  0  0  0  0  0  0
   38.4170   24.9260   35.9800 C   0  0  0  0  0  0  0  0  0  0  0  0
   38.2690   26.2480   36.2830 C   0  0  0  0  0  0  0  0  0  0  0  0
   37.7020   28.1420   35.3990 H   0  0  0  0  0  0  0  0  0  0  0  0
   37.6000   24.6820   32.7850 H   0  0  0  0  0  0  0  0  0  0  0  0
   38.3540   22.3250   34.0670 H   0  0  0  0  0  0  0  0  0  0  0  0
   39.0920   23.9980   37.8870 H   0  0  0  0  0  0  0  0  0  0  0  0
   38.4530   26.6700   37.2410 H   0  0  0  0  0  0  0  0  0  0  0  0
   35.5860   30.2770   31.5620 C   0  0  0  0  0  0  0  0  0  0  0  0
   36.2330   31.2030   31.0180 O   0  0  0  0  0  0  0  0  0  0  0  0
   32.1190   31.4000   31.4920 C   0  0  0  0  0  0  0  0  0  0  0  0
   31.5620   30.7480   32.5970 C   0  0  0  0  0  0  0  0  0  0  0  0
   32.3540   29.9340   33.3660 C   0  0  0  0  0  0  0  0  0  0  0  0
   33.6560   29.7960   33.0100 N   0  0  0  0  0  0  0  0  0  0  0  0
   34.1860   30.4280   31.9410 C   0  0  0  0  0  0  0  0  0  0  0  0
   33.4120   31.2300   31.1830 N   0  0  0  0  0  0  0  0  0  0  0  0
   31.5440   32.0420   30.8650 H   0  0  0  0  0  0  0  0  0  0  0  0
   30.5250   30.9090   32.8130 H   0  0  0  0  0  0  0  0  0  0  0  0
   33.1360   31.0990   36.0030 Cl  0  0  0  0  0  0  0  0  0  0  0  0
   32.1410   29.6930   35.7950 C   0  0  0  0  0  0  0  0  0  0  0  0
   31.8340   29.2300   34.5300 C   0  0  0  0  0  0  0  0  0  0  0  0
   31.0470   28.1220   34.4870 C   0  0  0  0  0  0  0  0  0  0  0  0
   30.7700   27.7090   33.5320 H   0  0  0  0  0  0  0  0  0  0  0  0
   30.5730   27.4810   35.6130 C   0  0  0  0  0  3  0  0  0  0  0  0
   30.8990   27.9700   36.8680 C   0  0  0  0  0  0  0  0  0  0  0  0
   30.2600   27.1060   38.2710 Cl  0  0  0  0  0  0  0  0  0  0  0  0
   31.7030   29.1040   36.9600 C   0  0  0  0  0  0  0  0  0  0  0  0
   31.9380   29.4590   37.9500 H   0  0  0  0  0  0  0  0  0  0  0  0
  1  5  1  0  0  0  0
  2  3  1  0  0  0  0
  2  1  2  0  0  0  0
  3  4  2  0  0  0  0
  4  5  1  0  0  0  0
  4  9  1  0  0  0  0
  6  2  1  0  0  0  0
  7  3  1  0  0  0  0
  8 17  1  0  0  0  0
  8 16  1  0  0  0  0
  9  8  2  0  0  0  0
 10  9  1  0  0  0  0
 10 11  2  0  0  0  0
 11 12  1  0  0  0  0
 11 15  1  0  0  0  0
 12 13  1  0  0  0  0
 13 14  2  0  0  0  0
 14 20  1  0  0  0  0
 15 16  2  0  0  0  0
 15 14  1  0  0  0  0
 16 21  1  0  0  0  0
 18 10  1  0  0  0  0
 19 12  1  0  0  0  0
 22  1  1  0  0  0  0
 22 28  1  0  0  0  0
 23 22  2  0  0  0  0
 24 25  1  0  0  0  0
 25 31  1  0  0  0  0
 25 26  2  0  0  0  0
 26 34  1  0  0  0  0
 27 26  1  0  0  0  0
 28 27  2  0  0  0  0
 29 24  2  0  0  0  0
 29 28  1  0  0  0  0
 30 24  1  0  0  0  0
 33 32  1  0  0  0  0
 33 40  1  0  0  0  0
 34 33  2  0  0  0  0
 35 34  1  0  0  0  0
 35 37  2  0  0  0  0
 36 35  1  0  0  0  0
 37 38  1  0  0  0  0
 38 40  2  0  0  0  0
 38 39  1  0  0  0  0
 40 41  1  0  0  0  0
M  END
>  <minimizedAffinity>
-6.64506054

$$$$

 OpenBabel03272508503D

 41 45  0  0  0  0  0  0  0  0999 V2000
   37.4950   28.5160   31.1130 C   0  0  0  0  0  0  0  0  0  0  0  0
   36.8680   29.3360   30.1940 C   0  0  0  0  0  0  0  0  0  0  0  0
   35.8780   29.9620   30.9450 C   0  0  0  0  0  0  0  0  0  0  0  0
   35.9430   29.5090   32.2490 C   0  0  0  0  0  0  0  0  0  0  0  0
   36.9240   28.6460   32.3040 O   0  0  0  0  0  0  0  0  0  0  0  0
   37.1030   29.4470   29.1620 H   0  0  0  0  0  0  0  0  0  0  0  0
   35.1820   30.6930   30.5110 H   0  0  0  0  0  0  0  0  0  0  0  0
   33.7730   29.5070   33.3790 C   0  0  0  0  0  0  0  0  0  0  0  0
   35.0880   29.9110   33.3490 C   0  0  0  0  0  0  0  0  0  0  0  0
   35.6260   30.7050   34.3620 C   0  0  0  0  0  0  0  0  0  0  0  0
   34.8370   31.1050   35.4260 C   0  0  0  0  0  0  0  0  0  0  0  0
   35.0520   31.8510   36.5270 N   0  0  0  0  0  0  0  0  0  0  0  0
   33.9020   31.8950   37.1990 N   0  0  0  0  0  0  0  0  0  0  0  0
   32.9540   31.1900   36.5460 C   0  0  0  0  0  0  0  0  0  0  0  0
   33.5330   30.6690   35.3960 C   0  0  0  0  0  0  0  0  0  0  0  0
   32.9440   29.8930   34.4410 C   0  0  0  0  0  0  0  0  0  0  0  0
   33.3680   28.8810   32.5730 H   0  0  0  0  0  0  0  0  0  0  0  0
   36.6580   31.0500   34.3860 H   0  0  0  0  0  0  0  0  0  0  0  0
   35.9570   32.2950   36.7780 H   0  0  0  0  0  0  0  0  0  0  0  0
   31.9090   31.0520   36.8680 H   0  0  0  0  0  0  0  0  0  0  0  0
   31.9280   29.5790   34.4610 H   0  0  0  0  0  0  0  0  0  0  0  0
   38.6160   27.6430   30.8080 C   0  0  0  0  0  0  0  0  0  0  0  0
   38.7590   27.2680   29.6210 O   0  0  0  0  0  0  0  0  0  0  0  0
   41.7000   27.2370   32.7080 C   0  0  0  0  0  0  0  0  0  0  0  0
   41.2830   26.4880   33.8140 C   0  0  0  0  0  0  0  0  0  0  0  0
   39.9660   26.1200   33.9190 C   0  0  0  0  0  0  0  0  0  0  0  0
   39.1200   26.5070   32.9310 N   0  0  0  0  0  0  0  0  0  0  0  0
   39.5300   27.2300   31.8670 C   0  0  0  0  0  0  0  0  0  0  0  0
   40.8230   27.5930   31.7600 N   0  0  0  0  0  0  0  0  0  0  0  0
   42.7120   27.5460   32.5830 H   0  0  0  0  0  0  0  0  0  0  0  0
   42.0130   26.2220   34.5520 H   0  0  0  0  0  0  0  0  0  0  0  0
   38.0590   27.5580   35.7130 Cl  0  0  0  0  0  0  0  0  0  0  0  0
   38.5840   25.9200   35.9330 C   0  0  0  0  0  0  0  0  0  0  0  0
   39.4710   25.3400   35.0460 C   0  0  0  0  0  0  0  0  0  0  0  0
   39.8130   24.0520   35.3150 C   0  0  0  0  0  0  0  0  0  0  0  0
   40.5010   23.5420   34.6630 H   0  0  0  0  0  0  0  0  0  0  0  0
   39.3240   23.3450   36.3940 C   0  0  0  0  0  3  0  0  0  0  0  0
   38.4350   23.9550   37.2660 C   0  0  0  0  0  0  0  0  0  0  0  0
   37.8440   22.9960   38.6270 Cl  0  0  0  0  0  0  0  0  0  0  0  0
   38.0570   25.2740   37.0280 C   0  0  0  0  0  0  0  0  0  0  0  0
   37.3650   25.7180   37.7240 H   0  0  0  0  0  0  0  0  0  0  0  0
  1  5  1  0  0  0  0
  2  3  1  0  0  0  0
  2  1  2  0  0  0  0
  3  4  2  0  0  0  0
  4  5  1  0  0  0  0
  4  9  1  0  0  0  0
  6  2  1  0  0  0  0
  7  3  1  0  0  0  0
  8 16  1  0  0  0  0
  9  8  2  0  0  0  0
  9 10  1  0  0  0  0
 10 18  1  0  0  0  0
 10 11  2  0  0  0  0
 11 12  1  0  0  0  0
 12 19  1  0  0  0  0
 12 13  1  0  0  0  0
 14 20  1  0  0  0  0
 14 13  2  0  0  0  0
 15 11  1  0  0  0  0
 15 14  1  0  0  0  0
 16 21  1  0  0  0  0
 16 15  2  0  0  0  0
 17  8  1  0  0  0  0
 22  1  1  0  0  0  0
 22 28  1  0  0  0  0
 23 22  2  0  0  0  0
 24 25  1  0  0  0  0
 25 26  2  0  0  0  0
 25 31  1  0  0  0  0
 26 34  1  0  0  0  0
 27 26  1  0  0  0  0
 28 27  2  0  0  0  0
 29 28  1  0  0  0  0
 29 24  2  0  0  0  0
 30 24  1  0  0  0  0
 32 33  1  0  0  0  0
 33 40  1  0  0  0  0
 34 35  1  0  0  0  0
 34 33  2  0  0  0  0
 35 37  2  0  0  0  0
 36 35  1  0  0  0  0
 37 38  1  0  0  0  0
 38 39  1  0  0  0  0
 40 38  2  0  0  0  0
 40 41  1  0  0  0  0
M  END
>  <minimizedAffinity>
-6.60685205

$$$$

 OpenBabel03272508503D

 41 45  0  0  0  0  0  0  0  0999 V2000
   37.7890   27.1560   34.1810 C   0  0  0  0  0  0  0  0  0  0  0  0
   37.4380   27.3550   32.8590 C   0  0  0  0  0  0  0  0  0  0  0  0
   36.4750   28.3560   32.9290 C   0  0  0  0  0  0  0  0  0  0  0  0
   36.2860   28.7140   34.2510 C   0  0  0  0  0  0  0  0  0  0  0  0
   37.0930   27.9700   34.9640 O   0  0  0  0  0  0  0  0  0  0  0  0
   37.8250   26.8500   32.0050 H   0  0  0  0  0  0  0  0  0  0  0  0
   35.9770   28.7590   32.0360 H   0  0  0  0  0  0  0  0  0  0  0  0
   34.0990   29.8080   34.2380 C   0  0  0  0  0  0  0  0  0  0  0  0
   35.3710   29.7190   34.7540 C   0  0  0  0  0  0  0  0  0  0  0  0
   35.8080   30.5800   35.7610 C   0  0  0  0  0  0  0  0  0  0  0  0
   34.9580   31.5500   36.2640 C   0  0  0  0  0  0  0  0  0  0  0  0
   35.0760   32.5050   37.2070 N   0  0  0  0  0  0  0  0  0  0  0  0
   33.9110   33.1480   37.2570 N   0  0  0  0  0  0  0  0  0  0  0  0
   33.0480   32.6220   36.3620 C   0  0  0  0  0  0  0  0  0  0  0  0
   33.7020   31.5860   35.7060 C   0  0  0  0  0  0  0  0  0  0  0  0
   33.2110   30.7770   34.7230 C   0  0  0  0  0  0  0  0  0  0  0  0
   33.7730   29.1200   33.4460 H   0  0  0  0  0  0  0  0  0  0  0  0
   36.8020   30.5500   36.2030 H   0  0  0  0  0  0  0  0  0  0  0  0
   35.9290   32.6800   37.7730 H   0  0  0  0  0  0  0  0  0  0  0  0
   32.0120   32.9550   36.1830 H   0  0  0  0  0  0  0  0  0  0  0  0
   32.2290   30.8440   34.3220 H   0  0  0  0  0  0  0  0  0  0  0  0
   38.7770   26.1930   34.6360 C   0  0  0  0  0  0  0  0  0  0  0  0
   39.9450   26.6030   34.8310 O   0  0  0  0  0  0  0  0  0  0  0  0
   38.0140   23.0750   36.3630 C   0  0  0  0  0  0  0  0  0  0  0  0
   37.6970   22.2100   35.3110 C   0  0  0  0  0  0  0  0  0  0  0  0
   37.7410   22.6760   34.0210 C   0  0  0  0  0  0  0  0  0  0  0  0
   38.0940   23.9730   33.8280 N   0  0  0  0  0  0  0  0  0  0  0  0
   38.3990   24.8010   34.8490 C   0  0  0  0  0  0  0  0  0  0  0  0
   38.3560   24.3470   36.1170 N   0  0  0  0  0  0  0  0  0  0  0  0
   37.9930   22.7590   37.3800 H   0  0  0  0  0  0  0  0  0  0  0  0
   37.4280   21.2000   35.5450 H   0  0  0  0  0  0  0  0  0  0  0  0
   40.0520   21.1550   32.8950 Cl  0  0  0  0  0  0  0  0  0  0  0  0
   38.4270   21.0810   32.2920 C   0  0  0  0  0  0  0  0  0  0  0  0
   37.4230   21.8250   32.8830 C   0  0  0  0  0  0  0  0  0  0  0  0
   36.1900   21.6890   32.3280 C   0  0  0  0  0  0  0  0  0  0  0  0
   35.3630   22.2410   32.7410 H   0  0  0  0  0  0  0  0  0  0  0  0
   35.9270   20.8710   31.2480 C   0  0  0  0  0  3  0  0  0  0  0  0
   36.9550   20.1380   30.6790 C   0  0  0  0  0  0  0  0  0  0  0  0
   36.5550   19.1090   29.2990 Cl  0  0  0  0  0  0  0  0  0  0  0  0
   38.2360   20.2470   31.2140 C   0  0  0  0  0  0  0  0  0  0  0  0
   39.0130   19.6630   30.7480 H   0  0  0  0  0  0  0  0  0  0  0  0
  1 22  1  0  0  0  0
  1  5  1  0  0  0  0
  2  3  1  0  0  0  0
  2  1  2  0  0  0  0
  3  4  2  0  0  0  0
  4  9  1  0  0  0  0
  4  5  1  0  0  0  0
  6  2  1  0  0  0  0
  7  3  1  0  0  0  0
  8 16  2  0  0  0  0
  8  9  1  0  0  0  0
  9 10  2  0  0  0  0
 10 18  1  0  0  0  0
 10 11  1  0  0  0  0
 11 12  1  0  0  0  0
 12 13  1  0  0  0  0
 12 19  1  0  0  0  0
 14 13  2  0  0  0  0
 15 11  2  0  0  0  0
 15 14  1  0  0  0  0
 16 15  1  0  0  0  0
 17  8  1  0  0  0  0
 20 14  1  0  0  0  0
 21 16  1  0  0  0  0
 22 23  2  0  0  0  0
 22 28  1  0  0  0  0
 24 30  1  0  0  0  0
 25 31  1  0  0  0  0
 25 24  2  0  0  0  0
 26 25  1  0  0  0  0
 27 26  2  0  0  0  0
 27 28  1  0  0  0  0
 28 29  2  0  0  0  0
 29 24  1  0  0  0  0
 33 34  1  0  0  0  0
 33 32  1  0  0  0  0
 34 26  1  0  0  0  0
 35 36  1  0  0  0  0
 35 34  2  0  0  0  0
 37 35  1  0  0  0  0
 38 40  1  0  0  0  0
 38 37  2  0  0  0  0
 39 38  1  0  0  0  0
 40 33  2  0  0  0  0
 41 40  1  0  0  0  0
M  END
>  <minimizedAffinity>
-6.58670998

$$$$
