
 OpenBabel03272508483D

 41 45  0  0  0  0  0  0  0  0999 V2000
   35.5240   29.5300   49.6060 C   0  0  0  0  0  0  0  0  0  0  0  0
   36.5800   29.1140   50.3950 C   0  0  0  0  0  0  0  0  0  0  0  0
   37.6910   29.6570   49.7580 C   0  0  0  0  0  0  0  0  0  0  0  0
   37.2770   30.3600   48.6430 C   0  0  0  0  0  0  0  0  0  0  0  0
   35.9740   30.2570   48.5910 O   0  0  0  0  0  0  0  0  0  0  0  0
   36.5310   28.5190   51.2760 H   0  0  0  0  0  0  0  0  0  0  0  0
   38.7140   29.5140   50.1330 H   0  0  0  0  0  0  0  0  0  0  0  0
   38.6460   32.2990   48.0510 C   0  0  0  0  0  0  0  0  0  0  0  0
   38.1220   31.0750   47.7060 C   0  0  0  0  0  0  0  0  0  0  0  0
   38.3860   30.4970   46.4640 C   0  0  0  0  0  0  0  0  0  0  0  0
   39.1890   31.1530   45.5480 C   0  0  0  0  0  0  0  0  0  0  0  0
   39.6190   30.8700   44.3030 N   0  0  0  0  0  0  0  0  0  0  0  0
   40.3780   31.8920   43.9110 N   0  0  0  0  0  0  0  0  0  0  0  0
   40.4420   32.8260   44.8840 C   0  0  0  0  0  0  0  0  0  0  0  0
   39.6810   32.3720   45.9540 C   0  0  0  0  0  0  0  0  0  0  0  0
   39.4630   32.9920   47.1490 C   0  0  0  0  0  0  0  0  0  0  0  0
   38.4270   32.7370   49.0340 H   0  0  0  0  0  0  0  0  0  0  0  0
   37.9970   29.5320   46.1430 H   0  0  0  0  0  0  0  0  0  0  0  0
   39.3850   30.0070   43.7740 H   0  0  0  0  0  0  0  0  0  0  0  0
   40.9980   33.7760   44.8380 H   0  0  0  0  0  0  0  0  0  0  0  0
   39.8670   33.9380   47.4190 H   0  0  0  0  0  0  0  0  0  0  0  0
   34.1300   29.2130   49.8600 C   0  0  0  0  0  0  0  0  0  0  0  0
   33.5820   29.7440   50.8550 O   0  0  0  0  0  0  0  0  0  0  0  0
   31.4050   27.2580   48.4330 C   0  0  0  0  0  0  0  0  0  0  0  0
   32.0190   26.6180   47.3510 C   0  0  0  0  0  0  0  0  0  0  0  0
   33.3500   26.8440   47.1040 C   0  0  0  0  0  0  0  0  0  0  0  0
   34.0130   27.6900   47.9330 N   0  0  0  0  0  0  0  0  0  0  0  0
   33.4120   28.3040   48.9740 C   0  0  0  0  0  0  0  0  0  0  0  0
   32.1050   28.0850   49.2200 N   0  0  0  0  0  0  0  0  0  0  0  0
   30.3740   27.1140   48.6630 H   0  0  0  0  0  0  0  0  0  0  0  0
   31.4270   25.9630   46.7440 H   0  0  0  0  0  0  0  0  0  0  0  0
   34.2450   24.0410   47.6190 Cl  0  0  0  0  0  0  0  0  0  0  0  0
   34.5000   24.9090   46.1380 C   0  0  0  0  0  0  0  0  0  0  0  0
   34.0470   26.2060   45.9950 C   0  0  0  0  0  0  0  0  0  0  0  0
   34.3010   26.7880   44.7930 C   0  0  0  0  0  0  0  0  0  0  0  0
   33.9740   27.7970   44.6170 H   0  0  0  0  0  0  0  0  0  0  0  0
   34.9660   26.1500   43.7650 C   0  0  0  0  0  3  0  0  0  0  0  0
   35.4070   24.8490   43.9390 C   0  0  0  0  0  0  0  0  0  0  0  0
   36.2500   24.0880   42.5850 Cl  0  0  0  0  0  0  0  0  0  0  0  0
   35.1680   24.2140   45.1550 C   0  0  0  0  0  0  0  0  0  0  0  0
   35.5250   23.2020   45.2580 H   0  0  0  0  0  0  0  0  0  0  0  0
  1 22  1  0  0  0  0
  1  2  2  0  0  0  0
  2  6  1  0  0  0  0
  3  7  1  0  0  0  0
  3  2  1  0  0  0  0
  4  3  2  0  0  0  0
  5  4  1  0  0  0  0
  5  1  1  0  0  0  0
  8 17  1  0  0  0  0
  9  8  1  0  0  0  0
  9  4  1  0  0  0  0
 10  9  2  0  0  0  0
 11 15  2  0  0  0  0
 11 10  1  0  0  0  0
 12 11  1  0  0  0  0
 13 12  1  0  0  0  0
 13 14  2  0  0  0  0
 14 15  1  0  0  0  0
 15 16  1  0  0  0  0
 16 21  1  0  0  0  0
 16  8  2  0  0  0  0
 18 10  1  0  0  0  0
 19 12  1  0  0  0  0
 20 14  1  0  0  0  0
 22 23  2  0  0  0  0
 24 30  1  0  0  0  0
 24 29  1  0  0  0  0
 25 24  2  0  0  0  0
 26 25  1  0  0  0  0
 26 27  2  0  0  0  0
 27 28  1  0  0  0  0
 28 29  2  0  0  0  0
 28 22  1  0  0  0  0
 31 25  1  0  0  0  0
 33 32  1  0  0  0  0
 34 33  1  0  0  0  0
 34 26  1  0  0  0  0
 35 34  2  0  0  0  0
 36 35  1  0  0  0  0
 37 38  2  0  0  0  0
 37 35  1  0  0  0  0
 38 40  1  0  0  0  0
 39 38  1  0  0  0  0
 40 41  1  0  0  0  0
 40 33  2  0  0  0  0
M  END
>  <minimizedAffinity>
-6.83261299

>  <minimizedRMSD>
0.846407354

$$$$
