
 OpenBabel03272505123D

 40 43  0  0  0  0  0  0  0  0999 V2000
   33.9590   29.9600   47.5460 S   0  0  0  0  0  0  0  0  0  0  0  0
   36.2860   30.8870   45.6820 Cl  0  0  0  0  0  0  0  0  0  0  0  0
   36.6130   30.7140   47.3850 C   0  0  0  0  0  0  0  0  0  0  0  0
   37.8910   30.9990   47.8200 C   0  0  0  0  0  0  0  0  0  0  0  0
   38.1630   30.8640   49.1720 C   0  0  0  0  0  0  0  0  0  0  0  0
   37.1800   30.4630   50.0230 C   0  0  0  0  0  0  0  0  0  0  0  0
   35.9040   30.1880   49.5270 C   0  0  0  0  0  0  0  0  0  0  0  0
   35.5670   30.3000   48.2020 C   0  0  0  0  0  0  0  0  0  0  0  0
   39.1730   31.0930   49.4930 H   0  0  0  0  0  0  0  0  0  0  0  0
   37.4130   30.3640   51.0730 H   0  0  0  0  0  0  0  0  0  0  0  0
   35.1440   29.8700   50.2330 H   0  0  0  0  0  0  0  0  0  0  0  0
   40.1610   33.2010   45.9970 C   0  0  0  0  0  0  0  0  0  0  0  0
   40.8370   32.3380   45.1070 C   0  0  0  0  0  0  0  0  0  0  0  0
   40.4940   30.9830   45.1500 C   0  0  0  0  0  0  0  0  0  0  0  0
   39.5380   30.5700   46.0350 N   0  0  0  0  0  0  0  0  0  0  0  0
   38.9280   31.4340   46.8570 C   0  0  0  0  0  0  0  0  0  0  0  0
   39.2390   32.7260   46.8330 N   0  0  0  0  0  0  0  0  0  0  0  0
   40.4050   34.2610   45.9890 H   0  0  0  0  0  0  0  0  0  0  0  0
   41.5880   32.6870   44.4170 H   0  0  0  0  0  0  0  0  0  0  0  0
   40.9720   30.2520   44.4930 H   0  0  0  0  0  0  0  0  0  0  0  0
   33.1230   29.4550   44.5500 Cl  0  0  0  0  0  0  0  0  0  0  0  0
   33.4480   28.1210   45.6500 C   0  0  0  0  0  0  0  0  0  0  0  0
   33.8220   28.2500   46.9840 C   0  0  0  0  0  0  0  0  0  0  0  0
   34.0500   27.1390   47.7450 C   0  0  0  0  0  0  0  0  0  0  0  0
   33.9120   25.8850   47.2010 C   0  0  0  0  0  0  0  0  0  0  0  0
   33.5420   25.6940   45.8750 C   0  0  0  0  0  0  0  0  0  0  0  0
   33.3210   26.8250   45.1390 C   0  0  0  0  0  0  0  0  0  0  0  0
   34.3390   27.3290   48.7790 H   0  0  0  0  0  0  0  0  0  0  0  0
   34.0960   25.0210   47.8160 H   0  0  0  0  0  0  0  0  0  0  0  0
   33.4390   24.6970   45.4670 H   0  0  0  0  0  0  0  0  0  0  0  0
   35.7010   26.7610   43.4240 Cl  0  0  0  0  0  0  0  0  0  0  0  0
   34.0530   26.6080   42.9100 C   0  0  0  0  0  0  0  0  0  0  0  0
   32.9280   26.6410   43.7360 C   0  0  0  0  0  0  0  0  0  0  0  0
   31.6510   26.5100   43.2310 C   0  0  0  0  0  0  0  0  0  0  0  0
   30.8690   26.5530   43.9780 H   0  0  0  0  0  0  0  0  0  0  0  0
   31.4720   26.3430   41.8730 C   0  0  0  0  0  3  0  0  0  0  0  0
   32.5700   26.3070   41.0330 C   0  0  0  0  0  0  0  0  0  0  0  0
   32.3470   26.0940   39.3020 Cl  0  0  0  0  0  0  0  0  0  0  0  0
   33.8600   26.4390   41.5350 C   0  0  0  0  0  0  0  0  0  0  0  0
   34.6790   26.4030   40.8350 H   0  0  0  0  0  0  0  0  0  0  0  0
  1  8  1  0  0  0  0
  2  3  1  0  0  0  0
  3  4  2  0  0  0  0
  3  8  1  0  0  0  0
  4  5  1  0  0  0  0
  5  9  1  0  0  0  0
  5  6  2  0  0  0  0
  6 10  1  0  0  0  0
  7  6  1  0  0  0  0
  7 11  1  0  0  0  0
  8  7  2  0  0  0  0
 12 17  1  0  0  0  0
 13 14  1  0  0  0  0
 13 12  2  0  0  0  0
 14 15  2  0  0  0  0
 15 16  1  0  0  0  0
 16  4  1  0  0  0  0
 17 16  2  0  0  0  0
 18 12  1  0  0  0  0
 19 13  1  0  0  0  0
 20 14  1  0  0  0  0
 21 22  1  0  0  0  0
 22 23  1  0  0  0  0
 23  1  1  0  0  0  0
 23 24  2  0  0  0  0
 24 28  1  0  0  0  0
 25 24  1  0  0  0  0
 25 29  1  0  0  0  0
 26 25  2  0  0  0  0
 27 22  2  0  0  0  0
 27 26  1  0  0  0  0
 30 26  1  0  0  0  0
 32 31  1  0  0  0  0
 32 33  1  0  0  0  0
 33 27  1  0  0  0  0
 34 33  2  0  0  0  0
 34 35  1  0  0  0  0
 36 34  1  0  0  0  0
 37 39  1  0  0  0  0
 37 36  2  0  0  0  0
 38 37  1  0  0  0  0
 39 32  2  0  0  0  0
 40 39  1  0  0  0  0
M  END
>  <minimizedAffinity>
-5.4627924

>  <minimizedRMSD>
0.615133286

$$$$
