
 OpenBabel03272505113D

 40 43  0  0  0  0  0  0  0  0999 V2000
   34.0410   30.0580   47.6890 S   0  0  0  0  0  0  0  0  0  0  0  0
   36.3240   30.9790   45.7680 Cl  0  0  0  0  0  0  0  0  0  0  0  0
   36.7000   30.7740   47.4570 C   0  0  0  0  0  0  0  0  0  0  0  0
   37.9960   31.0320   47.8580 C   0  0  0  0  0  0  0  0  0  0  0  0
   38.3060   30.8710   49.1980 C   0  0  0  0  0  0  0  0  0  0  0  0
   37.3430   30.4710   50.0720 C   0  0  0  0  0  0  0  0  0  0  0  0
   36.0490   30.2240   49.6120 C   0  0  0  0  0  0  0  0  0  0  0  0
   35.6740   30.3630   48.3000 C   0  0  0  0  0  0  0  0  0  0  0  0
   39.3290   31.0780   49.4920 H   0  0  0  0  0  0  0  0  0  0  0  0
   37.6070   30.3510   51.1140 H   0  0  0  0  0  0  0  0  0  0  0  0
   35.3060   29.9060   50.3360 H   0  0  0  0  0  0  0  0  0  0  0  0
   40.2090   33.2350   45.9690 C   0  0  0  0  0  0  0  0  0  0  0  0
   40.8750   32.3690   45.0740 C   0  0  0  0  0  0  0  0  0  0  0  0
   40.5440   31.0120   45.1350 C   0  0  0  0  0  0  0  0  0  0  0  0
   39.6100   30.6000   46.0430 N   0  0  0  0  0  0  0  0  0  0  0  0
   39.0090   31.4660   46.8690 C   0  0  0  0  0  0  0  0  0  0  0  0
   39.3090   32.7610   46.8280 N   0  0  0  0  0  0  0  0  0  0  0  0
   40.4450   34.2970   45.9460 H   0  0  0  0  0  0  0  0  0  0  0  0
   41.6090   32.7180   44.3660 H   0  0  0  0  0  0  0  0  0  0  0  0
   41.0150   30.2790   44.4760 H   0  0  0  0  0  0  0  0  0  0  0  0
   33.0440   29.4920   44.7530 Cl  0  0  0  0  0  0  0  0  0  0  0  0
   33.3910   28.1820   45.8740 C   0  0  0  0  0  0  0  0  0  0  0  0
   33.8340   28.3370   47.1840 C   0  0  0  0  0  0  0  0  0  0  0  0
   34.0720   27.2430   47.9640 C   0  0  0  0  0  0  0  0  0  0  0  0
   33.8760   25.9780   47.4650 C   0  0  0  0  0  0  0  0  0  0  0  0
   33.4350   25.7600   46.1650 C   0  0  0  0  0  0  0  0  0  0  0  0
   33.2060   26.8750   45.4080 C   0  0  0  0  0  0  0  0  0  0  0  0
   34.4160   27.4530   48.9780 H   0  0  0  0  0  0  0  0  0  0  0  0
   34.0690   25.1260   48.0940 H   0  0  0  0  0  0  0  0  0  0  0  0
   33.2880   24.7550   45.7910 H   0  0  0  0  0  0  0  0  0  0  0  0
   35.4950   26.7210   43.5770 Cl  0  0  0  0  0  0  0  0  0  0  0  0
   33.8210   26.5870   43.1500 C   0  0  0  0  0  0  0  0  0  0  0  0
   32.7400   26.6630   44.0310 C   0  0  0  0  0  0  0  0  0  0  0  0
   31.4360   26.5440   43.5940 C   0  0  0  0  0  0  0  0  0  0  0  0
   30.6950   26.6210   44.3780 H   0  0  0  0  0  0  0  0  0  0  0  0
   31.1860   26.3460   42.2530 C   0  0  0  0  0  3  0  0  0  0  0  0
   32.2400   26.2670   41.3580 C   0  0  0  0  0  0  0  0  0  0  0  0
   31.9250   26.0140   39.6480 Cl  0  0  0  0  0  0  0  0  0  0  0  0
   33.5560   26.3860   41.7930 C   0  0  0  0  0  0  0  0  0  0  0  0
   34.3370   26.3170   41.0530 H   0  0  0  0  0  0  0  0  0  0  0  0
  1  8  1  0  0  0  0
  2  3  1  0  0  0  0
  3  4  2  0  0  0  0
  3  8  1  0  0  0  0
  4  5  1  0  0  0  0
  5  9  1  0  0  0  0
  5  6  2  0  0  0  0
  6 10  1  0  0  0  0
  7  6  1  0  0  0  0
  7 11  1  0  0  0  0
  8  7  2  0  0  0  0
 12 17  1  0  0  0  0
 13 14  1  0  0  0  0
 13 12  2  0  0  0  0
 14 15  2  0  0  0  0
 15 16  1  0  0  0  0
 16  4  1  0  0  0  0
 17 16  2  0  0  0  0
 18 12  1  0  0  0  0
 19 13  1  0  0  0  0
 20 14  1  0  0  0  0
 21 22  1  0  0  0  0
 22 23  1  0  0  0  0
 23  1  1  0  0  0  0
 23 24  2  0  0  0  0
 24 28  1  0  0  0  0
 25 24  1  0  0  0  0
 25 29  1  0  0  0  0
 26 25  2  0  0  0  0
 27 22  2  0  0  0  0
 27 26  1  0  0  0  0
 30 26  1  0  0  0  0
 32 31  1  0  0  0  0
 32 33  1  0  0  0  0
 33 27  1  0  0  0  0
 34 33  2  0  0  0  0
 34 35  1  0  0  0  0
 36 34  1  0  0  0  0
 37 39  1  0  0  0  0
 37 36  2  0  0  0  0
 38 37  1  0  0  0  0
 39 32  2  0  0  0  0
 40 39  1  0  0  0  0
M  END
>  <minimizedAffinity>
-5.51001215

>  <minimizedRMSD>
0.799180627

$$$$
