
 OpenBabel03262523293D

 32 35  0  0  0  0  0  0  0  0999 V2000
   36.4910   29.1800   50.1700 C   0  0  0  0  0  0  0  0  0  0  0  0
   37.2400   29.9460   49.2700 C   0  0  0  0  0  0  0  0  0  0  0  0
   36.7180   30.1980   48.0070 C   0  0  0  0  0  0  0  0  0  0  0  0
   35.5060   29.6820   47.7210 N   0  0  0  0  0  0  0  0  0  0  0  0
   34.7850   28.9410   48.5980 C   0  0  0  0  0  0  0  0  0  0  0  0
   35.2730   28.6920   49.8090 N   0  0  0  0  0  0  0  0  0  0  0  0
   36.9700   29.0300   51.1330 H   0  0  0  0  0  0  0  0  0  0  0  0
   38.2100   30.3480   49.5240 H   0  0  0  0  0  0  0  0  0  0  0  0
   36.9740   30.7970   45.6860 C   0  0  0  0  0  0  0  0  0  0  0  0
   37.4030   30.9760   46.9930 C   0  0  0  0  0  0  0  0  0  0  0  0
   38.4180   31.8530   47.2620 C   0  0  0  0  0  0  0  0  0  0  0  0
   38.9880   32.5370   46.1970 C   0  0  0  0  0  0  0  0  0  0  0  0
   40.0020   33.4480   46.2260 N   0  0  0  0  0  0  0  0  0  0  0  0
   40.2190   33.8470   44.9560 C   0  0  0  0  0  0  0  0  0  0  0  0
   39.3740   33.2150   44.1250 N   0  0  0  0  0  0  0  0  0  0  0  0
   38.5970   32.3930   44.8780 C   0  0  0  0  0  0  0  0  0  0  0  0
   37.5640   31.4990   44.6290 C   0  0  0  0  0  0  0  0  0  0  0  0
   36.1780   30.1300   45.3590 H   0  0  0  0  0  0  0  0  0  0  0  0
   38.7550   31.9950   48.2800 H   0  0  0  0  0  0  0  0  0  0  0  0
   40.5640   33.8300   47.0200 H   0  0  0  0  0  0  0  0  0  0  0  0
   40.9060   34.5410   44.4890 H   0  0  0  0  0  0  0  0  0  0  0  0
   37.2450   31.3750   43.6020 H   0  0  0  0  0  0  0  0  0  0  0  0
   34.4280   28.6520   45.5960 Cl  0  0  0  0  0  0  0  0  0  0  0  0
   33.2300   28.2690   46.8230 C   0  0  0  0  0  0  0  0  0  0  0  0
   33.4840   28.4330   48.1780 C   0  0  0  0  0  0  0  0  0  0  0  0
   32.5240   28.1250   49.1200 C   0  0  0  0  0  0  0  0  0  0  0  0
   32.7730   28.2720   50.1630 H   0  0  0  0  0  0  0  0  0  0  0  0
   31.2840   27.6410   48.6990 C   0  0  0  0  0  0  0  0  0  0  0  0
   31.0790   27.4940   47.3440 C   0  0  0  0  0  0  0  0  0  0  0  0
   29.5310   26.8890   46.8250 Cl  0  0  0  0  0  0  0  0  0  0  0  0
   32.0000   27.7870   46.3630 C   0  0  0  0  0  0  0  0  0  0  0  0
   31.7810   27.6510   45.3130 H   0  0  0  0  0  0  0  0  0  0  0  0
  1  7  1  0  0  0  0
  2  8  1  0  0  0  0
  2  1  2  0  0  0  0
  3  2  1  0  0  0  0
  4  3  2  0  0  0  0
  4  5  1  0  0  0  0
  5  6  2  0  0  0  0
  6  1  1  0  0  0  0
  9 10  1  0  0  0  0
 10 11  2  0  0  0  0
 10  3  1  0  0  0  0
 11 19  1  0  0  0  0
 12 13  1  0  0  0  0
 12 11  1  0  0  0  0
 13 20  1  0  0  0  0
 14 13  1  0  0  0  0
 15 16  1  0  0  0  0
 15 14  2  0  0  0  0
 16 12  2  0  0  0  0
 17 16  1  0  0  0  0
 17  9  2  0  0  0  0
 18  9  1  0  0  0  0
 21 14  1  0  0  0  0
 22 17  1  0  0  0  0
 23 24  1  0  0  0  0
 24 25  1  0  0  0  0
 25  5  1  0  0  0  0
 25 26  2  0  0  0  0
 26 27  1  0  0  0  0
 28 26  1  0  0  0  0
 29 28  2  0  0  0  0
 30 29  1  0  0  0  0
 31 24  2  0  0  0  0
 31 29  1  0  0  0  0
 32 31  1  0  0  0  0
M  END
>  <minimizedAffinity>
-6.37299061

>  <minimizedRMSD>
1.962502

$$$$
