
 OpenBabel03272509503D

 34 36  0  0  0  0  0  0  0  0999 V2000
   37.3330   30.2260   51.2910 C   0  0  0  0  0  0  0  0  0  0  0  0
   37.8780   30.9230   50.2110 C   0  0  0  0  0  0  0  0  0  0  0  0
   37.4380   30.6680   48.9350 C   0  0  0  0  0  0  0  0  0  0  0  0
   36.4710   29.7180   48.8560 N   0  0  0  0  0  0  0  0  0  0  0  0
   35.9430   29.0490   49.8690 C   0  0  0  0  0  0  0  0  0  0  0  0
   36.3860   29.3130   51.1050 N   0  0  0  0  0  0  0  0  0  0  0  0
   37.7150   30.4660   52.2760 H   0  0  0  0  0  0  0  0  0  0  0  0
   38.6380   31.6410   50.3680 H   0  0  0  0  0  0  0  0  0  0  0  0
   35.9080   30.2300   46.2120 Cl  0  0  0  0  0  0  0  0  0  0  0  0
   37.3450   31.1850   46.4370 C   0  0  0  0  0  0  0  0  0  0  0  0
   37.8750   31.2630   47.6850 C   0  0  0  0  0  0  0  0  0  0  0  0
   39.0220   32.0320   47.7170 C   0  0  0  0  0  0  0  0  0  0  0  0
   39.5980   32.2130   48.6380 H   0  0  0  0  0  0  0  0  0  0  0  0
   39.5670   32.6490   46.6140 C   0  0  0  0  0  3  0  0  0  0  0  0
   38.9690   32.5230   45.3850 C   0  0  0  0  0  0  0  0  0  0  0  0
   39.6760   33.3160   43.9950 Cl  0  0  0  0  0  0  0  0  0  0  0  0
   37.8320   31.7680   45.3170 C   0  0  0  0  0  0  0  0  0  0  0  0
   37.3700   31.6760   44.3480 H   0  0  0  0  0  0  0  0  0  0  0  0
   34.9750   28.1410   49.4850 O   0  0  0  0  0  0  0  0  0  0  0  0
   33.8250   28.6170   48.8160 C   0  0  0  0  0  0  0  0  0  0  0  0
   34.0660   29.3690   48.0380 H   0  0  0  0  0  0  0  0  0  0  0  0
   33.2170   29.1640   49.5910 H   0  0  0  0  0  0  0  0  0  0  0  0
   32.9810   27.4910   48.3200 C   0  0  0  0  0  0  0  0  0  0  0  0
   33.0710   26.5840   48.9480 H   0  0  0  0  0  0  0  0  0  0  0  0
   33.3450   27.2100   47.3060 H   0  0  0  0  0  0  0  0  0  0  0  0
   31.5460   27.8810   48.1570 C   0  0  0  0  0  0  0  0  0  0  0  0
   30.6990   27.6330   49.2300 C   0  0  0  0  0  0  0  0  0  0  0  0
   29.3610   27.9600   49.1750 C   0  0  0  0  0  0  0  0  0  0  0  0
   28.8620   28.5210   48.0820 N   0  0  0  0  0  0  0  0  0  0  0  0
   29.7030   28.7580   47.0390 C   0  0  0  0  0  0  0  0  0  0  0  0
   31.0080   28.4520   47.0640 N   0  0  0  0  0  0  0  0  0  0  0  0
   31.0720   27.1760   50.1410 H   0  0  0  0  0  0  0  0  0  0  0  0
   28.6970   27.7680   50.0080 H   0  0  0  0  0  0  0  0  0  0  0  0
   29.4210   29.2140   46.0820 H   0  0  0  0  0  0  0  0  0  0  0  0
  1  7  1  0  0  0  0
  2  8  1  0  0  0  0
  2  1  2  0  0  0  0
  3  2  1  0  0  0  0
  4  3  2  0  0  0  0
  4  5  1  0  0  0  0
  5  6  2  0  0  0  0
  6  1  1  0  0  0  0
  9 10  1  0  0  0  0
 10 11  1  0  0  0  0
 11 12  2  0  0  0  0
 11  3  1  0  0  0  0
 12 13  1  0  0  0  0
 14 12  1  0  0  0  0
 15 14  2  0  0  0  0
 16 15  1  0  0  0  0
 17 15  1  0  0  0  0
 17 10  2  0  0  0  0
 18 17  1  0  0  0  0
 19  5  1  0  0  0  0
 20 19  1  0  0  0  0
 20 22  1  0  0  0  0
 21 20  1  0  0  0  0
 23 20  1  0  0  0  0
 23 24  1  0  0  0  0
 25 23  1  0  0  0  0
 26 23  1  0  0  0  0
 26 27  1  0  0  0  0
 27 32  1  0  0  0  0
 28 27  2  0  0  0  0
 28 33  1  0  0  0  0
 29 28  1  0  0  0  0
 30 31  1  0  0  0  0
 30 29  2  0  0  0  0
 31 26  2  0  0  0  0
 34 30  1  0  0  0  0
M  END
>  <minimizedAffinity>
-6.37812996

>  <minimizedRMSD>
0.906029344

$$$$
