
 OpenBabel03272506473D

 43 46  0  0  1  0  0  0  0  0999 V2000
   32.0600   28.8710   47.2540 C   0  0  2  0  0  0  0  0  0  0  0  0
   33.1850   28.2520   48.0290 C   0  0  1  0  0  0  0  0  0  0  0  0
   33.1750   26.9110   47.7890 O   0  0  0  0  0  0  0  0  0  0  0  0
   32.3320   26.6440   46.7140 C   0  0  0  0  0  0  0  0  0  0  0  0
   32.0930   27.9470   45.9960 C   0  0  1  0  0  0  0  0  0  0  0  0
   31.0690   28.7660   47.6810 H   0  0  0  0  0  0  0  0  0  0  0  0
   33.1240   28.4670   49.1130 H   0  0  0  0  0  0  0  0  0  0  0  0
   31.4630   26.1430   47.1110 H   0  0  0  0  0  0  0  0  0  0  0  0
   32.8280   25.9750   45.9650 H   0  0  0  0  0  0  0  0  0  0  0  0
   32.9480   28.2610   45.3950 H   0  0  0  0  0  0  0  0  0  0  0  0
   32.3880   30.1870   46.8640 O   0  0  0  0  0  0  0  0  0  0  0  0
   33.2050   30.5140   47.3210 H   0  0  0  0  0  0  0  0  0  0  0  0
   34.7570   28.9360   47.3630 S   0  0  0  0  0  0  0  0  0  0  0  0
   36.7190   29.3120   50.7850 C   0  0  0  0  0  0  0  0  0  0  0  0
   37.1350   30.6400   50.8260 C   0  0  0  0  0  0  0  0  0  0  0  0
   36.7920   31.4610   49.7400 C   0  0  0  0  0  0  0  0  0  0  0  0
   36.0770   30.9220   48.7130 N   0  0  0  0  0  0  0  0  0  0  0  0
   35.6970   29.6250   48.7230 C   0  0  0  0  0  0  0  0  0  0  0  0
   36.0100   28.8030   49.7570 N   0  0  0  0  0  0  0  0  0  0  0  0
   36.9290   28.5970   51.5690 H   0  0  0  0  0  0  0  0  0  0  0  0
   37.7040   30.9800   51.6910 H   0  0  0  0  0  0  0  0  0  0  0  0
   37.1050   32.4810   49.7570 H   0  0  0  0  0  0  0  0  0  0  0  0
   30.8640   27.9020   45.3850 O   0  0  0  0  0  0  0  0  0  0  0  0
   29.6350   30.5740   45.2490 Cl  0  0  0  0  0  0  0  0  0  0  0  0
   29.0140   29.1250   46.0050 C   0  0  0  0  0  0  0  0  0  0  0  0
   29.6800   27.9210   45.9930 C   0  0  0  0  0  0  0  0  0  0  0  0
   29.0710   26.8270   46.6100 C   0  0  0  0  0  0  0  0  0  0  0  0
   27.8370   26.9570   47.2120 C   0  0  0  0  0  0  0  0  0  0  0  0
   27.1580   28.1640   47.2300 C   0  0  0  0  0  0  0  0  0  0  0  0
   27.7580   29.2500   46.6210 C   0  0  0  0  0  0  0  0  0  0  0  0
   29.5160   25.8490   46.6440 H   0  0  0  0  0  0  0  0  0  0  0  0
   27.3070   26.1570   47.7060 H   0  0  0  0  0  0  0  0  0  0  0  0
   26.1840   28.3120   47.6920 H   0  0  0  0  0  0  0  0  0  0  0  0
   27.0600   30.5820   49.2770 Cl  0  0  0  0  0  0  0  0  0  0  0  0
   26.6700   31.2610   47.7140 C   0  0  0  0  0  0  0  0  0  0  0  0
   27.0570   30.5310   46.6300 C   0  0  0  0  0  0  0  0  0  0  0  0
   26.7970   30.9790   45.3290 C   0  0  0  0  0  0  0  0  0  0  0  0
   27.0610   30.4750   44.4010 H   0  0  0  0  0  0  0  0  0  0  0  0
   26.1300   32.1930   45.1440 C   0  0  0  0  0  0  0  0  0  0  0  0
   25.7460   32.9180   46.2540 C   0  0  0  0  0  0  0  0  0  0  0  0
   24.9050   34.4520   46.0310 Cl  0  0  0  0  0  0  0  0  0  0  0  0
   26.0050   32.4740   47.5330 C   0  0  0  0  0  0  0  0  0  0  0  0
   25.7150   33.0220   48.4310 H   0  0  0  0  0  0  0  0  0  0  0  0
  1  6  1  1  0  0  0
  1  2  1  0  0  0  0
  2  7  1  1  0  0  0
  3  2  1  0  0  0  0
  4  8  1  0  0  0  0
  4  3  1  0  0  0  0
  5 10  1  6  0  0  0
  5  4  1  0  0  0  0
  5  1  1  0  0  0  0
  9  4  1  0  0  0  0
 11  1  1  0  0  0  0
 11 12  1  0  0  0  0
 13  2  1  0  0  0  0
 13 18  1  0  0  0  0
 14 15  1  0  0  0  0
 14 20  1  0  0  0  0
 15 21  1  0  0  0  0
 16 22  1  0  0  0  0
 16 15  2  0  0  0  0
 17 18  2  0  0  0  0
 17 16  1  0  0  0  0
 18 19  1  0  0  0  0
 19 14  2  0  0  0  0
 23 26  1  0  0  0  0
 23  5  1  0  0  0  0
 24 25  1  0  0  0  0
 25 30  1  0  0  0  0
 26 25  2  0  0  0  0
 26 27  1  0  0  0  0
 27 31  1  0  0  0  0
 27 28  2  0  0  0  0
 28 29  1  0  0  0  0
 28 32  1  0  0  0  0
 29 33  1  0  0  0  0
 30 36  1  0  0  0  0
 30 29  2  0  0  0  0
 35 34  1  0  0  0  0
 36 35  2  0  0  0  0
 37 36  1  0  0  0  0
 38 37  1  0  0  0  0
 39 37  2  0  0  0  0
 39 40  1  0  0  0  0
 40 42  2  0  0  0  0
 41 40  1  0  0  0  0
 42 35  1  0  0  0  0
 42 43  1  0  0  0  0
M  END
>  <minimizedAffinity>
-6.21803331

>  <minimizedRMSD>
1.56118488

$$$$
