
 OpenBabel03272508303D

 33 35  0  0  1  0  0  0  0  0999 V2000
   36.7490   30.2830   45.4310 N   0  0  0  0  0  0  0  0  0  0  0  0
   37.0610   30.8940   44.1240 C   0  0  0  0  0  0  0  0  0  0  0  0
   38.5140   30.9410   43.8650 C   0  0  0  0  0  0  0  0  0  0  0  0
   39.1730   29.8640   44.5630 N   0  0  0  0  0  0  0  0  0  0  0  0
   39.1320   30.2660   45.9780 C   0  0  0  0  0  0  0  0  0  0  0  0
   37.7340   29.9830   46.4460 C   0  0  1  0  0  0  0  0  0  0  0  0
   36.5980   31.9020   44.1530 H   0  0  0  0  0  0  0  0  0  0  0  0
   36.5340   30.3440   43.3280 H   0  0  0  0  0  0  0  0  0  0  0  0
   38.7600   30.9350   42.8010 H   0  0  0  0  0  0  0  0  0  0  0  0
   38.9040   31.9000   44.3040 H   0  0  0  0  0  0  0  0  0  0  0  0
   40.1800   29.8470   44.2840 H   0  0  0  0  0  0  0  0  0  0  0  0
   39.4080   31.3350   46.0690 H   0  0  0  0  0  0  0  0  0  0  0  0
   39.8260   29.6220   46.5770 H   0  0  0  0  0  0  0  0  0  0  0  0
   37.6480   28.9280   46.7820 H   0  0  0  0  0  0  0  0  0  0  0  0
   36.0650   28.8510   48.7090 Cl  0  0  0  0  0  0  0  0  0  0  0  0
   36.7330   30.4840   48.6880 C   0  0  0  0  0  0  0  0  0  0  0  0
   37.4850   30.9000   47.5950 C   0  0  0  0  0  0  0  0  0  0  0  0
   37.9770   32.1920   47.6450 C   0  0  0  0  0  0  0  0  0  0  0  0
   38.5620   32.5710   46.8370 H   0  0  0  0  0  0  0  0  0  0  0  0
   37.7450   33.0390   48.7110 C   0  0  0  0  0  3  0  0  0  0  0  0
   36.9930   32.6050   49.7880 C   0  0  0  0  0  0  0  0  0  0  0  0
   36.7410   33.7330   51.1030 Cl  0  0  0  0  0  0  0  0  0  0  0  0
   36.5020   31.3290   49.7510 C   0  0  0  0  0  0  0  0  0  0  0  0
   35.9170   31.0030   50.5970 H   0  0  0  0  0  0  0  0  0  0  0  0
   34.8610   28.6930   45.4610 C   0  0  0  0  0  0  0  0  0  0  0  0
   35.3900   29.9650   45.7110 C   0  0  0  0  0  0  0  0  0  0  0  0
   34.5250   30.9120   46.2470 C   0  0  0  0  0  0  0  0  0  0  0  0
   33.2270   30.5590   46.4980 N   0  0  0  0  0  0  0  0  0  0  0  0
   32.7730   29.3100   46.2370 C   0  0  0  0  0  0  0  0  0  0  0  0
   33.5850   28.3530   45.7110 N   0  0  0  0  0  0  0  0  0  0  0  0
   35.4890   27.9170   45.0440 H   0  0  0  0  0  0  0  0  0  0  0  0
   34.8970   31.9040   46.4530 H   0  0  0  0  0  0  0  0  0  0  0  0
   31.7400   29.0570   46.4450 H   0  0  0  0  0  0  0  0  0  0  0  0
  1 26  1  0  0  0  0
  1  6  1  0  0  0  0
  2  7  1  0  0  0  0
  2  1  1  0  0  0  0
  3  2  1  0  0  0  0
  3 10  1  0  0  0  0
  3  4  1  0  0  0  0
  4  5  1  0  0  0  0
  5 12  1  0  0  0  0
  5  6  1  0  0  0  0
  5 13  1  0  0  0  0
  6 14  1  1  0  0  0
  6 17  1  0  0  0  0
  8  2  1  0  0  0  0
  9  3  1  0  0  0  0
 11  4  1  0  0  0  0
 16 15  1  0  0  0  0
 16 23  1  0  0  0  0
 17 18  1  0  0  0  0
 17 16  2  0  0  0  0
 18 20  2  0  0  0  0
 19 18  1  0  0  0  0
 20 21  1  0  0  0  0
 21 22  1  0  0  0  0
 23 21  2  0  0  0  0
 23 24  1  0  0  0  0
 25 30  2  0  0  0  0
 25 26  1  0  0  0  0
 26 27  2  0  0  0  0
 27 32  1  0  0  0  0
 27 28  1  0  0  0  0
 29 33  1  0  0  0  0
 29 28  2  0  0  0  0
 30 29  1  0  0  0  0
 31 25  1  0  0  0  0
M  END
>  <minimizedAffinity>
-1.70750821

>  <minimizedRMSD>
3.91213846

$$$$
