
 OpenBabel03272508313D

 33 35  0  0  1  0  0  0  0  0999 V2000
   40.7560   24.9220   34.2060 N   0  0  0  0  0  0  0  0  0  0  0  0
   41.8520   24.4470   33.3390 C   0  0  0  0  0  0  0  0  0  0  0  0
   42.8870   25.4800   33.1350 C   0  0  0  0  0  0  0  0  0  0  0  0
   42.9250   26.3690   34.2710 N   0  0  0  0  0  0  0  0  0  0  0  0
   41.7010   27.1760   34.1450 C   0  0  0  0  0  0  0  0  0  0  0  0
   40.5790   26.2970   34.6150 C   0  0  1  0  0  0  0  0  0  0  0  0
   41.3650   24.1360   32.3930 H   0  0  0  0  0  0  0  0  0  0  0  0
   42.2870   23.5300   33.7690 H   0  0  0  0  0  0  0  0  0  0  0  0
   43.8730   25.0630   32.9240 H   0  0  0  0  0  0  0  0  0  0  0  0
   42.5760   26.0980   32.2490 H   0  0  0  0  0  0  0  0  0  0  0  0
   43.7310   27.0250   34.1590 H   0  0  0  0  0  0  0  0  0  0  0  0
   41.5780   27.5050   33.0940 H   0  0  0  0  0  0  0  0  0  0  0  0
   41.7520   28.0570   34.8360 H   0  0  0  0  0  0  0  0  0  0  0  0
   40.4690   26.3710   35.7180 H   0  0  0  0  0  0  0  0  0  0  0  0
   38.2770   27.0030   36.4570 Cl  0  0  0  0  0  0  0  0  0  0  0  0
   38.2280   27.1590   34.7000 C   0  0  0  0  0  0  0  0  0  0  0  0
   39.3440   26.8050   33.9510 C   0  0  0  0  0  0  0  0  0  0  0  0
   39.2360   26.9540   32.5800 C   0  0  0  0  0  0  0  0  0  0  0  0
   40.0580   26.7000   31.9500 H   0  0  0  0  0  0  0  0  0  0  0  0
   38.0910   27.4250   31.9670 C   0  0  0  0  0  3  0  0  0  0  0  0
   36.9920   27.7720   32.7310 C   0  0  0  0  0  0  0  0  0  0  0  0
   35.5740   28.3620   31.8880 Cl  0  0  0  0  0  0  0  0  0  0  0  0
   37.0870   27.6300   34.0900 C   0  0  0  0  0  0  0  0  0  0  0  0
   36.2200   27.9040   34.6730 H   0  0  0  0  0  0  0  0  0  0  0  0
   39.6440   23.6930   36.0360 C   0  0  0  0  0  0  0  0  0  0  0  0
   39.8120   23.9640   34.6720 C   0  0  0  0  0  0  0  0  0  0  0  0
   39.0110   23.2510   33.7870 C   0  0  0  0  0  0  0  0  0  0  0  0
   38.1190   22.3410   34.2830 N   0  0  0  0  0  0  0  0  0  0  0  0
   38.0010   22.1230   35.6140 C   0  0  0  0  0  0  0  0  0  0  0  0
   38.7650   22.7970   36.5160 N   0  0  0  0  0  0  0  0  0  0  0  0
   40.2400   24.2180   36.7700 H   0  0  0  0  0  0  0  0  0  0  0  0
   39.1120   23.4330   32.7270 H   0  0  0  0  0  0  0  0  0  0  0  0
   37.2860   21.3950   35.9800 H   0  0  0  0  0  0  0  0  0  0  0  0
  1  6  1  0  0  0  0
  1 26  1  0  0  0  0
  2  8  1  0  0  0  0
  2  1  1  0  0  0  0
  3  2  1  0  0  0  0
  3  4  1  0  0  0  0
  5  4  1  0  0  0  0
  5  6  1  0  0  0  0
  5 13  1  0  0  0  0
  6 14  1  1  0  0  0
  7  2  1  0  0  0  0
  9  3  1  0  0  0  0
 10  3  1  0  0  0  0
 11  4  1  0  0  0  0
 12  5  1  0  0  0  0
 16 15  1  0  0  0  0
 17  6  1  0  0  0  0
 17 16  2  0  0  0  0
 18 17  1  0  0  0  0
 19 18  1  0  0  0  0
 20 18  2  0  0  0  0
 20 21  1  0  0  0  0
 21 23  2  0  0  0  0
 22 21  1  0  0  0  0
 23 24  1  0  0  0  0
 23 16  1  0  0  0  0
 25 30  1  0  0  0  0
 25 31  1  0  0  0  0
 26 25  2  0  0  0  0
 27 28  2  0  0  0  0
 27 26  1  0  0  0  0
 28 29  1  0  0  0  0
 29 33  1  0  0  0  0
 29 30  2  0  0  0  0
 32 27  1  0  0  0  0
M  END
>  <minimizedAffinity>
-4.73257065

$$$$

 OpenBabel03272508313D

 33 35  0  0  1  0  0  0  0  0999 V2000
   36.6700   23.0300   31.8640 N   0  0  0  0  0  0  0  0  0  0  0  0
   35.5520   23.9420   31.5530 C   0  0  0  0  0  0  0  0  0  0  0  0
   36.0240   25.2690   31.1110 C   0  0  0  0  0  0  0  0  0  0  0  0
   37.3200   25.1480   30.4880 N   0  0  0  0  0  0  0  0  0  0  0  0
   38.2400   24.8860   31.6050 C   0  0  0  0  0  0  0  0  0  0  0  0
   38.0530   23.4400   31.9620 C   0  0  1  0  0  0  0  0  0  0  0  0
   34.9450   23.9890   32.4810 H   0  0  0  0  0  0  0  0  0  0  0  0
   34.9030   23.4790   30.7930 H   0  0  0  0  0  0  0  0  0  0  0  0
   35.3140   25.7800   30.4580 H   0  0  0  0  0  0  0  0  0  0  0  0
   36.1640   25.9010   32.0320 H   0  0  0  0  0  0  0  0  0  0  0  0
   37.5890   26.0750   30.0870 H   0  0  0  0  0  0  0  0  0  0  0  0
   38.0090   25.5700   32.4460 H   0  0  0  0  0  0  0  0  0  0  0  0
   39.3000   25.0160   31.2640 H   0  0  0  0  0  0  0  0  0  0  0  0
   38.7030   22.8010   31.3270 H   0  0  0  0  0  0  0  0  0  0  0  0
   39.9450   21.1580   32.5960 Cl  0  0  0  0  0  0  0  0  0  0  0  0
   39.3230   22.2960   33.7930 C   0  0  0  0  0  0  0  0  0  0  0  0
   38.4590   23.3070   33.3910 C   0  0  0  0  0  0  0  0  0  0  0  0
   38.0110   24.1620   34.3810 C   0  0  0  0  0  0  0  0  0  0  0  0
   37.3460   24.9600   34.1360 H   0  0  0  0  0  0  0  0  0  0  0  0
   38.3890   24.0370   35.7040 C   0  0  0  0  0  3  0  0  0  0  0  0
   39.2500   23.0240   36.0830 C   0  0  0  0  0  0  0  0  0  0  0  0
   39.6860   22.9250   37.7770 Cl  0  0  0  0  0  0  0  0  0  0  0  0
   39.7000   22.1710   35.1120 C   0  0  0  0  0  0  0  0  0  0  0  0
   40.3720   21.3840   35.4240 H   0  0  0  0  0  0  0  0  0  0  0  0
   35.7590   21.2070   33.2580 C   0  0  0  0  0  0  0  0  0  0  0  0
   36.3690   21.6550   32.0800 C   0  0  0  0  0  0  0  0  0  0  0  0
   36.6720   20.6930   31.1240 C   0  0  0  0  0  0  0  0  0  0  0  0
   36.3640   19.3840   31.3780 N   0  0  0  0  0  0  0  0  0  0  0  0
   35.7720   19.0110   32.5370 C   0  0  0  0  0  0  0  0  0  0  0  0
   35.4590   19.9210   33.5010 N   0  0  0  0  0  0  0  0  0  0  0  0
   35.5010   21.9130   34.0360 H   0  0  0  0  0  0  0  0  0  0  0  0
   37.1430   21.0000   30.2020 H   0  0  0  0  0  0  0  0  0  0  0  0
   35.5390   17.9680   32.7130 H   0  0  0  0  0  0  0  0  0  0  0  0
  1  6  1  0  0  0  0
  1 26  1  0  0  0  0
  2  1  1  0  0  0  0
  2  7  1  0  0  0  0
  3  2  1  0  0  0  0
  3 10  1  0  0  0  0
  4  3  1  0  0  0  0
  4  5  1  0  0  0  0
  5  6  1  0  0  0  0
  5 12  1  0  0  0  0
  6 14  1  6  0  0  0
  6 17  1  0  0  0  0
  8  2  1  0  0  0  0
  9  3  1  0  0  0  0
 11  4  1  0  0  0  0
 13  5  1  0  0  0  0
 15 16  1  0  0  0  0
 16 23  1  0  0  0  0
 17 16  2  0  0  0  0
 17 18  1  0  0  0  0
 18 20  2  0  0  0  0
 19 18  1  0  0  0  0
 20 21  1  0  0  0  0
 21 22  1  0  0  0  0
 23 24  1  0  0  0  0
 23 21  2  0  0  0  0
 25 30  1  0  0  0  0
 25 31  1  0  0  0  0
 26 25  2  0  0  0  0
 27 28  2  0  0  0  0
 27 26  1  0  0  0  0
 28 29  1  0  0  0  0
 29 33  1  0  0  0  0
 29 30  2  0  0  0  0
 32 27  1  0  0  0  0
M  END
>  <minimizedAffinity>
-4.71347952

$$$$

 OpenBabel03272508313D

 33 35  0  0  1  0  0  0  0  0999 V2000
   39.1940   25.1900   32.1390 N   0  0  0  0  0  0  0  0  0  0  0  0
   39.2700   24.2390   31.0140 C   0  0  0  0  0  0  0  0  0  0  0  0
   37.9330   23.8860   30.4940 C   0  0  0  0  0  0  0  0  0  0  0  0
   37.0130   24.9720   30.7260 N   0  0  0  0  0  0  0  0  0  0  0  0
   36.7620   24.9360   32.1750 C   0  0  0  0  0  0  0  0  0  0  0  0
   37.9700   25.5550   32.8170 C   0  0  1  0  0  0  0  0  0  0  0  0
   39.8220   23.3610   31.4080 H   0  0  0  0  0  0  0  0  0  0  0  0
   39.9050   24.6610   30.2190 H   0  0  0  0  0  0  0  0  0  0  0  0
   37.9470   23.5940   29.4420 H   0  0  0  0  0  0  0  0  0  0  0  0
   37.5600   23.0090   31.0910 H   0  0  0  0  0  0  0  0  0  0  0  0
   36.1040   24.7510   30.2580 H   0  0  0  0  0  0  0  0  0  0  0  0
   36.5940   23.8890   32.4980 H   0  0  0  0  0  0  0  0  0  0  0  0
   35.8800   25.5780   32.4260 H   0  0  0  0  0  0  0  0  0  0  0  0
   37.8570   26.6590   32.8630 H   0  0  0  0  0  0  0  0  0  0  0  0
   37.8260   27.5760   35.0710 Cl  0  0  0  0  0  0  0  0  0  0  0  0
   37.9830   25.8350   35.3060 C   0  0  0  0  0  0  0  0  0  0  0  0
   38.0410   24.9980   34.1980 C   0  0  0  0  0  0  0  0  0  0  0  0
   38.1640   23.6450   34.4570 C   0  0  0  0  0  0  0  0  0  0  0  0
   38.2130   22.9500   33.6480 H   0  0  0  0  0  0  0  0  0  0  0  0
   38.2300   23.1310   35.7380 C   0  0  0  0  0  3  0  0  0  0  0  0
   38.1710   23.9810   36.8260 C   0  0  0  0  0  0  0  0  0  0  0  0
   38.2590   23.2610   38.4200 Cl  0  0  0  0  0  0  0  0  0  0  0  0
   38.0480   25.3230   36.5830 C   0  0  0  0  0  0  0  0  0  0  0  0
   38.0040   25.9750   37.4440 H   0  0  0  0  0  0  0  0  0  0  0  0
   41.5010   25.0250   33.0010 C   0  0  0  0  0  0  0  0  0  0  0  0
   40.4050   25.7910   32.5870 C   0  0  0  0  0  0  0  0  0  0  0  0
   40.5500   27.1730   32.6330 C   0  0  0  0  0  0  0  0  0  0  0  0
   41.7320   27.7030   33.0710 N   0  0  0  0  0  0  0  0  0  0  0  0
   42.7590   26.9100   33.4580 C   0  0  0  0  0  0  0  0  0  0  0  0
   42.6600   25.5520   33.4310 N   0  0  0  0  0  0  0  0  0  0  0  0
   41.4450   23.9450   32.9870 H   0  0  0  0  0  0  0  0  0  0  0  0
   39.7250   27.7960   32.3200 H   0  0  0  0  0  0  0  0  0  0  0  0
   43.6850   27.3560   33.8020 H   0  0  0  0  0  0  0  0  0  0  0  0
  1 26  1  0  0  0  0
  1  6  1  0  0  0  0
  2  7  1  0  0  0  0
  2  1  1  0  0  0  0
  3  4  1  0  0  0  0
  3  2  1  0  0  0  0
  3 10  1  0  0  0  0
  4  5  1  0  0  0  0
  5 13  1  0  0  0  0
  5 12  1  0  0  0  0
  5  6  1  0  0  0  0
  6 14  1  1  0  0  0
  6 17  1  0  0  0  0
  8  2  1  0  0  0  0
  9  3  1  0  0  0  0
 11  4  1  0  0  0  0
 15 16  1  0  0  0  0
 16 23  1  0  0  0  0
 17 18  1  0  0  0  0
 17 16  2  0  0  0  0
 18 20  2  0  0  0  0
 19 18  1  0  0  0  0
 20 21  1  0  0  0  0
 21 22  1  0  0  0  0
 23 21  2  0  0  0  0
 23 24  1  0  0  0  0
 25 30  1  0  0  0  0
 26 27  1  0  0  0  0
 26 25  2  0  0  0  0
 27 28  2  0  0  0  0
 28 29  1  0  0  0  0
 29 33  1  0  0  0  0
 30 29  2  0  0  0  0
 31 25  1  0  0  0  0
 32 27  1  0  0  0  0
M  END
>  <minimizedAffinity>
-4.66490173

$$$$

 OpenBabel03272508313D

 33 35  0  0  1  0  0  0  0  0999 V2000
   38.7850   24.2380   36.2880 N   0  0  0  0  0  0  0  0  0  0  0  0
   38.0910   24.3280   37.5870 C   0  0  0  0  0  0  0  0  0  0  0  0
   38.4770   23.2330   38.5000 C   0  0  0  0  0  0  0  0  0  0  0  0
   39.8140   22.7870   38.1950 N   0  0  0  0  0  0  0  0  0  0  0  0
   39.6740   22.0520   36.9280 C   0  0  0  0  0  0  0  0  0  0  0  0
   39.5620   23.0970   35.8570 C   0  0  1  0  0  0  0  0  0  0  0  0
   37.0090   24.3220   37.3430 H   0  0  0  0  0  0  0  0  0  0  0  0
   38.2910   25.3120   38.0410 H   0  0  0  0  0  0  0  0  0  0  0  0
   38.3770   23.5000   39.5540 H   0  0  0  0  0  0  0  0  0  0  0  0
   37.7900   22.3670   38.2960 H   0  0  0  0  0  0  0  0  0  0  0  0
   40.1100   22.0890   38.9160 H   0  0  0  0  0  0  0  0  0  0  0  0
   38.7870   21.3900   36.9770 H   0  0  0  0  0  0  0  0  0  0  0  0
   40.6030   21.4590   36.7270 H   0  0  0  0  0  0  0  0  0  0  0  0
   40.5730   23.4110   35.5190 H   0  0  0  0  0  0  0  0  0  0  0  0
   41.0340   23.0040   33.2080 Cl  0  0  0  0  0  0  0  0  0  0  0  0
   39.4110   22.3620   33.4670 C   0  0  0  0  0  0  0  0  0  0  0  0
   38.8300   22.4590   34.7260 C   0  0  0  0  0  0  0  0  0  0  0  0
   37.5570   21.9340   34.8560 C   0  0  0  0  0  0  0  0  0  0  0  0
   37.0560   21.9770   35.7980 H   0  0  0  0  0  0  0  0  0  0  0  0
   36.8800   21.3430   33.8070 C   0  0  0  0  0  3  0  0  0  0  0  0
   37.4760   21.2570   32.5620 C   0  0  0  0  0  0  0  0  0  0  0  0
   36.5610   20.4950   31.2780 Cl  0  0  0  0  0  0  0  0  0  0  0  0
   38.7370   21.7720   32.4200 C   0  0  0  0  0  0  0  0  0  0  0  0
   39.1900   21.6980   31.4420 H   0  0  0  0  0  0  0  0  0  0  0  0
   37.4490   25.8250   34.9510 C   0  0  0  0  0  0  0  0  0  0  0  0
   38.6860   25.3460   35.4000 C   0  0  0  0  0  0  0  0  0  0  0  0
   39.8200   26.0030   34.9380 C   0  0  0  0  0  0  0  0  0  0  0  0
   39.6730   27.0630   34.0860 N   0  0  0  0  0  0  0  0  0  0  0  0
   38.4480   27.4820   33.6870 C   0  0  0  0  0  0  0  0  0  0  0  0
   37.3110   26.8670   34.1140 N   0  0  0  0  0  0  0  0  0  0  0  0
   36.5330   25.3520   35.2780 H   0  0  0  0  0  0  0  0  0  0  0  0
   40.7910   25.6630   35.2630 H   0  0  0  0  0  0  0  0  0  0  0  0
   38.3600   28.3240   33.0110 H   0  0  0  0  0  0  0  0  0  0  0  0
  1  2  1  0  0  0  0
  2  8  1  0  0  0  0
  2  3  1  0  0  0  0
  3  9  1  0  0  0  0
  4  3  1  0  0  0  0
  4 11  1  0  0  0  0
  5 12  1  0  0  0  0
  5  4  1  0  0  0  0
  6 14  1  6  0  0  0
  6  1  1  0  0  0  0
  6  5  1  0  0  0  0
  7  2  1  0  0  0  0
 10  3  1  0  0  0  0
 13  5  1  0  0  0  0
 15 16  1  0  0  0  0
 16 17  1  0  0  0  0
 17 18  2  0  0  0  0
 17  6  1  0  0  0  0
 18 19  1  0  0  0  0
 20 18  1  0  0  0  0
 21 20  2  0  0  0  0
 22 21  1  0  0  0  0
 23 21  1  0  0  0  0
 23 16  2  0  0  0  0
 24 23  1  0  0  0  0
 25 31  1  0  0  0  0
 25 26  1  0  0  0  0
 26  1  1  0  0  0  0
 27 32  1  0  0  0  0
 27 26  2  0  0  0  0
 28 27  1  0  0  0  0
 29 28  2  0  0  0  0
 29 30  1  0  0  0  0
 30 25  2  0  0  0  0
 33 29  1  0  0  0  0
M  END
>  <minimizedAffinity>
-4.63693237

$$$$

 OpenBabel03272508313D

 33 35  0  0  1  0  0  0  0  0999 V2000
   34.5740   30.0740   32.6160 N   0  0  0  0  0  0  0  0  0  0  0  0
   34.9000   31.5130   32.6480 C   0  0  0  0  0  0  0  0  0  0  0  0
   35.8560   31.8890   31.5880 C   0  0  0  0  0  0  0  0  0  0  0  0
   35.7190   30.9970   30.4630 N   0  0  0  0  0  0  0  0  0  0  0  0
   36.3080   29.7310   30.9270 C   0  0  0  0  0  0  0  0  0  0  0  0
   35.2740   29.0980   31.8130 C   0  0  1  0  0  0  0  0  0  0  0  0
   35.2940   31.7030   33.6680 H   0  0  0  0  0  0  0  0  0  0  0  0
   33.9710   32.1010   32.5710 H   0  0  0  0  0  0  0  0  0  0  0  0
   35.7660   32.9340   31.2810 H   0  0  0  0  0  0  0  0  0  0  0  0
   36.8920   31.7390   31.9990 H   0  0  0  0  0  0  0  0  0  0  0  0
   36.3240   31.3420   29.6830 H   0  0  0  0  0  0  0  0  0  0  0  0
   37.2600   29.9340   31.4550 H   0  0  0  0  0  0  0  0  0  0  0  0
   36.4720   29.0450   30.0560 H   0  0  0  0  0  0  0  0  0  0  0  0
   34.5620   28.5000   31.2050 H   0  0  0  0  0  0  0  0  0  0  0  0
   35.6830   26.2470   30.8650 Cl  0  0  0  0  0  0  0  0  0  0  0  0
   36.2600   26.8740   32.4100 C   0  0  0  0  0  0  0  0  0  0  0  0
   36.0160   28.2000   32.7440 C   0  0  0  0  0  0  0  0  0  0  0  0
   36.4970   28.6230   33.9700 C   0  0  0  0  0  0  0  0  0  0  0  0
   36.3420   29.6310   34.2850 H   0  0  0  0  0  0  0  0  0  0  0  0
   37.1840   27.7900   34.8320 C   0  0  0  0  0  3  0  0  0  0  0  0
   37.4160   26.4730   34.4800 C   0  0  0  0  0  0  0  0  0  0  0  0
   38.2930   25.4740   35.6210 Cl  0  0  0  0  0  0  0  0  0  0  0  0
   36.9450   26.0430   33.2690 C   0  0  0  0  0  0  0  0  0  0  0  0
   37.1340   25.0110   33.0080 H   0  0  0  0  0  0  0  0  0  0  0  0
   33.4780   29.8190   34.8140 C   0  0  0  0  0  0  0  0  0  0  0  0
   33.4980   29.6160   33.4280 C   0  0  0  0  0  0  0  0  0  0  0  0
   32.4150   28.9420   32.8770 C   0  0  0  0  0  0  0  0  0  0  0  0
   31.4050   28.5210   33.6980 N   0  0  0  0  0  0  0  0  0  0  0  0
   31.4410   28.7480   35.0330 C   0  0  0  0  0  0  0  0  0  0  0  0
   32.4830   29.4030   35.6150 N   0  0  0  0  0  0  0  0  0  0  0  0
   34.2950   30.3380   35.2970 H   0  0  0  0  0  0  0  0  0  0  0  0
   32.3940   28.7670   31.8110 H   0  0  0  0  0  0  0  0  0  0  0  0
   30.6290   28.4040   35.6610 H   0  0  0  0  0  0  0  0  0  0  0  0
  1  2  1  0  0  0  0
  1 26  1  0  0  0  0
  2  7  1  0  0  0  0
  3 10  1  0  0  0  0
  3  2  1  0  0  0  0
  4  5  1  0  0  0  0
  4  3  1  0  0  0  0
  5 12  1  0  0  0  0
  5  6  1  0  0  0  0
  6 14  1  6  0  0  0
  6  1  1  0  0  0  0
  6 17  1  0  0  0  0
  8  2  1  0  0  0  0
  9  3  1  0  0  0  0
 11  4  1  0  0  0  0
 13  5  1  0  0  0  0
 15 16  1  0  0  0  0
 16 17  2  0  0  0  0
 16 23  1  0  0  0  0
 17 18  1  0  0  0  0
 18 19  1  0  0  0  0
 18 20  2  0  0  0  0
 21 20  1  0  0  0  0
 21 22  1  0  0  0  0
 23 21  2  0  0  0  0
 24 23  1  0  0  0  0
 25 31  1  0  0  0  0
 25 30  1  0  0  0  0
 26 25  2  0  0  0  0
 27 26  1  0  0  0  0
 27 28  2  0  0  0  0
 28 29  1  0  0  0  0
 29 30  2  0  0  0  0
 29 33  1  0  0  0  0
 32 27  1  0  0  0  0
M  END
>  <minimizedAffinity>
-4.60663319

$$$$

 OpenBabel03272508313D

 33 35  0  0  1  0  0  0  0  0999 V2000
   36.9520   28.7910   31.0810 N   0  0  0  0  0  0  0  0  0  0  0  0
   35.9750   29.8230   30.6860 C   0  0  0  0  0  0  0  0  0  0  0  0
   35.1080   30.2270   31.8110 C   0  0  0  0  0  0  0  0  0  0  0  0
   35.8060   30.0430   33.0610 N   0  0  0  0  0  0  0  0  0  0  0  0
   35.8400   28.5850   33.2490 C   0  0  0  0  0  0  0  0  0  0  0  0
   36.9210   28.0780   32.3380 C   0  0  1  0  0  0  0  0  0  0  0  0
   35.4050   29.3820   29.8430 H   0  0  0  0  0  0  0  0  0  0  0  0
   36.5090   30.6910   30.2670 H   0  0  0  0  0  0  0  0  0  0  0  0
   34.7270   31.2460   31.7150 H   0  0  0  0  0  0  0  0  0  0  0  0
   34.2270   29.5280   31.8250 H   0  0  0  0  0  0  0  0  0  0  0  0
   35.2210   30.4330   33.8350 H   0  0  0  0  0  0  0  0  0  0  0  0
   34.8460   28.1550   33.0160 H   0  0  0  0  0  0  0  0  0  0  0  0
   36.1440   28.3430   34.3000 H   0  0  0  0  0  0  0  0  0  0  0  0
   37.9070   28.1290   32.8480 H   0  0  0  0  0  0  0  0  0  0  0  0
   38.7460   25.9930   33.5680 Cl  0  0  0  0  0  0  0  0  0  0  0  0
   37.3520   25.6200   32.5520 C   0  0  0  0  0  0  0  0  0  0  0  0
   36.5830   26.6570   32.0390 C   0  0  0  0  0  0  0  0  0  0  0  0
   35.5060   26.2910   31.2510 C   0  0  0  0  0  0  0  0  0  0  0  0
   34.8760   27.0420   30.8280 H   0  0  0  0  0  0  0  0  0  0  0  0
   35.1940   24.9740   30.9750 C   0  0  0  0  0  3  0  0  0  0  0  0
   35.9730   23.9570   31.4960 C   0  0  0  0  0  0  0  0  0  0  0  0
   35.5200   22.3110   31.1050 Cl  0  0  0  0  0  0  0  0  0  0  0  0
   37.0420   24.3060   32.2770 C   0  0  0  0  0  0  0  0  0  0  0  0
   37.6410   23.5000   32.6760 H   0  0  0  0  0  0  0  0  0  0  0  0
   39.2570   28.0480   30.5990 C   0  0  0  0  0  0  0  0  0  0  0  0
   37.9950   28.4750   30.1650 C   0  0  0  0  0  0  0  0  0  0  0  0
   37.8050   28.5800   28.7920 C   0  0  0  0  0  0  0  0  0  0  0  0
   38.8380   28.2660   27.9520 N   0  0  0  0  0  0  0  0  0  0  0  0
   40.0370   27.8560   28.4310 C   0  0  0  0  0  0  0  0  0  0  0  0
   40.2670   27.7410   29.7680 N   0  0  0  0  0  0  0  0  0  0  0  0
   39.4610   27.9490   31.6560 H   0  0  0  0  0  0  0  0  0  0  0  0
   36.8450   28.9050   28.4200 H   0  0  0  0  0  0  0  0  0  0  0  0
   40.8390   27.6140   27.7440 H   0  0  0  0  0  0  0  0  0  0  0  0
  1  6  1  0  0  0  0
  2  1  1  0  0  0  0
  2  3  1  0  0  0  0
  3 10  1  0  0  0  0
  3  4  1  0  0  0  0
  4  5  1  0  0  0  0
  4 11  1  0  0  0  0
  5 13  1  0  0  0  0
  6 14  1  1  0  0  0
  6  5  1  0  0  0  0
  7  2  1  0  0  0  0
  8  2  1  0  0  0  0
  9  3  1  0  0  0  0
 12  5  1  0  0  0  0
 16 15  1  0  0  0  0
 17  6  1  0  0  0  0
 17 16  2  0  0  0  0
 18 17  1  0  0  0  0
 19 18  1  0  0  0  0
 20 18  2  0  0  0  0
 20 21  1  0  0  0  0
 21 23  2  0  0  0  0
 22 21  1  0  0  0  0
 23 16  1  0  0  0  0
 23 24  1  0  0  0  0
 25 31  1  0  0  0  0
 26 25  1  0  0  0  0
 26  1  1  0  0  0  0
 27 26  2  0  0  0  0
 28 29  2  0  0  0  0
 28 27  1  0  0  0  0
 29 30  1  0  0  0  0
 30 25  2  0  0  0  0
 32 27  1  0  0  0  0
 33 29  1  0  0  0  0
M  END
>  <minimizedAffinity>
-4.57185316

$$$$

 OpenBabel03272508313D

 33 35  0  0  1  0  0  0  0  0999 V2000
   38.9010   25.1210   31.6440 N   0  0  0  0  0  0  0  0  0  0  0  0
   40.3760   25.1570   31.5990 C   0  0  0  0  0  0  0  0  0  0  0  0
   40.9030   24.7010   30.2970 C   0  0  0  0  0  0  0  0  0  0  0  0
   39.9400   24.9650   29.2570 N   0  0  0  0  0  0  0  0  0  0  0  0
   38.8750   23.9750   29.4840 C   0  0  0  0  0  0  0  0  0  0  0  0
   38.0710   24.4950   30.6400 C   0  0  1  0  0  0  0  0  0  0  0  0
   40.7110   24.5210   32.4440 H   0  0  0  0  0  0  0  0  0  0  0  0
   40.7250   26.1750   31.8330 H   0  0  0  0  0  0  0  0  0  0  0  0
   41.8780   25.1310   30.0560 H   0  0  0  0  0  0  0  0  0  0  0  0
   41.0230   23.5840   30.3550 H   0  0  0  0  0  0  0  0  0  0  0  0
   40.3710   24.7370   28.3320 H   0  0  0  0  0  0  0  0  0  0  0  0
   39.3260   22.9830   29.6860 H   0  0  0  0  0  0  0  0  0  0  0  0
   38.1980   23.9330   28.5930 H   0  0  0  0  0  0  0  0  0  0  0  0
   37.2890   25.1970   30.2780 H   0  0  0  0  0  0  0  0  0  0  0  0
   35.0590   24.6280   30.9540 Cl  0  0  0  0  0  0  0  0  0  0  0  0
   36.0520   23.2600   31.4610 C   0  0  0  0  0  0  0  0  0  0  0  0
   37.4270   23.3060   31.2690 C   0  0  0  0  0  0  0  0  0  0  0  0
   38.1430   22.2000   31.6900 C   0  0  0  0  0  0  0  0  0  0  0  0
   39.2030   22.1740   31.5690 H   0  0  0  0  0  0  0  0  0  0  0  0
   37.5450   21.0990   32.2720 C   0  0  0  0  0  3  0  0  0  0  0  0
   36.1740   21.0740   32.4540 C   0  0  0  0  0  0  0  0  0  0  0  0
   35.4840   19.6470   33.1990 Cl  0  0  0  0  0  0  0  0  0  0  0  0
   35.4550   22.1630   32.0420 C   0  0  0  0  0  0  0  0  0  0  0  0
   34.3850   22.1290   32.1910 H   0  0  0  0  0  0  0  0  0  0  0  0
   37.4160   26.8560   32.5820 C   0  0  0  0  0  0  0  0  0  0  0  0
   38.2520   25.7450   32.7470 C   0  0  0  0  0  0  0  0  0  0  0  0
   38.4240   25.2750   34.0440 C   0  0  0  0  0  0  0  0  0  0  0  0
   37.7800   25.9090   35.0710 N   0  0  0  0  0  0  0  0  0  0  0  0
   36.9810   26.9800   34.8480 C   0  0  0  0  0  0  0  0  0  0  0  0
   36.7860   27.4740   33.5950 N   0  0  0  0  0  0  0  0  0  0  0  0
   37.2470   27.2640   31.5940 H   0  0  0  0  0  0  0  0  0  0  0  0
   39.0610   24.4200   34.2110 H   0  0  0  0  0  0  0  0  0  0  0  0
   36.4830   27.4630   35.6800 H   0  0  0  0  0  0  0  0  0  0  0  0
  1 26  1  0  0  0  0
  2  1  1  0  0  0  0
  2  8  1  0  0  0  0
  2  7  1  0  0  0  0
  3 10  1  0  0  0  0
  3  2  1  0  0  0  0
  4  5  1  0  0  0  0
  4  3  1  0  0  0  0
  5 12  1  0  0  0  0
  5  6  1  0  0  0  0
  6 14  1  6  0  0  0
  6 17  1  0  0  0  0
  6  1  1  0  0  0  0
  9  3  1  0  0  0  0
 11  4  1  0  0  0  0
 13  5  1  0  0  0  0
 15 16  1  0  0  0  0
 16 23  1  0  0  0  0
 17 16  2  0  0  0  0
 17 18  1  0  0  0  0
 18 20  2  0  0  0  0
 19 18  1  0  0  0  0
 20 21  1  0  0  0  0
 21 22  1  0  0  0  0
 23 24  1  0  0  0  0
 23 21  2  0  0  0  0
 25 26  2  0  0  0  0
 25 30  1  0  0  0  0
 26 27  1  0  0  0  0
 27 32  1  0  0  0  0
 27 28  2  0  0  0  0
 29 28  1  0  0  0  0
 29 33  1  0  0  0  0
 30 29  2  0  0  0  0
 31 25  1  0  0  0  0
M  END
>  <minimizedAffinity>
-4.43938875

$$$$

 OpenBabel03272508313D

 33 35  0  0  1  0  0  0  0  0999 V2000
   37.9960   25.5370   31.5710 N   0  0  0  0  0  0  0  0  0  0  0  0
   37.2780   26.6710   30.9580 C   0  0  0  0  0  0  0  0  0  0  0  0
   38.0790   27.9110   30.9750 C   0  0  0  0  0  0  0  0  0  0  0  0
   39.4850   27.5880   30.9570 N   0  0  0  0  0  0  0  0  0  0  0  0
   39.7580   27.0660   32.3050 C   0  0  0  0  0  0  0  0  0  0  0  0
   39.2290   25.6610   32.3160 C   0  0  1  0  0  0  0  0  0  0  0  0
   36.3320   26.7640   31.5300 H   0  0  0  0  0  0  0  0  0  0  0  0
   36.9820   26.4040   29.9310 H   0  0  0  0  0  0  0  0  0  0  0  0
   37.8180   28.6010   30.1690 H   0  0  0  0  0  0  0  0  0  0  0  0
   37.8760   28.4300   31.9520 H   0  0  0  0  0  0  0  0  0  0  0  0
   40.0330   28.4740   30.8600 H   0  0  0  0  0  0  0  0  0  0  0  0
   39.2710   27.7140   33.0610 H   0  0  0  0  0  0  0  0  0  0  0  0
   40.8630   27.0130   32.4760 H   0  0  0  0  0  0  0  0  0  0  0  0
   39.9980   24.9590   31.9290 H   0  0  0  0  0  0  0  0  0  0  0  0
   40.7320   23.3070   33.4950 Cl  0  0  0  0  0  0  0  0  0  0  0  0
   39.5580   24.2820   34.3810 C   0  0  0  0  0  0  0  0  0  0  0  0
   38.9260   25.3410   33.7400 C   0  0  0  0  0  0  0  0  0  0  0  0
   38.0180   26.0610   34.4950 C   0  0  0  0  0  0  0  0  0  0  0  0
   37.5000   26.8870   34.0610 H   0  0  0  0  0  0  0  0  0  0  0  0
   37.7380   25.7620   35.8150 C   0  0  0  0  0  3  0  0  0  0  0  0
   38.3790   24.7040   36.4330 C   0  0  0  0  0  0  0  0  0  0  0  0
   37.9760   24.3830   38.1070 Cl  0  0  0  0  0  0  0  0  0  0  0  0
   39.2800   23.9830   35.6970 C   0  0  0  0  0  0  0  0  0  0  0  0
   39.7720   23.1600   36.1940 H   0  0  0  0  0  0  0  0  0  0  0  0
   36.1130   23.9520   31.7650 C   0  0  0  0  0  0  0  0  0  0  0  0
   37.4410   24.2350   31.4190 C   0  0  0  0  0  0  0  0  0  0  0  0
   38.1990   23.1830   30.9200 C   0  0  0  0  0  0  0  0  0  0  0  0
   37.6200   21.9490   30.7930 N   0  0  0  0  0  0  0  0  0  0  0  0
   36.3300   21.7360   31.1420 C   0  0  0  0  0  0  0  0  0  0  0  0
   35.5520   22.7380   31.6370 N   0  0  0  0  0  0  0  0  0  0  0  0
   35.4780   24.7330   32.1590 H   0  0  0  0  0  0  0  0  0  0  0  0
   39.2260   23.3630   30.6420 H   0  0  0  0  0  0  0  0  0  0  0  0
   35.8960   20.7490   31.0320 H   0  0  0  0  0  0  0  0  0  0  0  0
  1  6  1  0  0  0  0
  2  3  1  0  0  0  0
  2  7  1  0  0  0  0
  2  1  1  0  0  0  0
  3 10  1  0  0  0  0
  4  3  1  0  0  0  0
  4  5  1  0  0  0  0
  5  6  1  0  0  0  0
  5 13  1  0  0  0  0
  5 12  1  0  0  0  0
  6 14  1  6  0  0  0
  6 17  1  0  0  0  0
  8  2  1  0  0  0  0
  9  3  1  0  0  0  0
 11  4  1  0  0  0  0
 15 16  1  0  0  0  0
 16 23  1  0  0  0  0
 17 16  2  0  0  0  0
 17 18  1  0  0  0  0
 18 20  2  0  0  0  0
 19 18  1  0  0  0  0
 20 21  1  0  0  0  0
 21 22  1  0  0  0  0
 23 24  1  0  0  0  0
 23 21  2  0  0  0  0
 25 31  1  0  0  0  0
 26  1  1  0  0  0  0
 26 25  2  0  0  0  0
 27 26  1  0  0  0  0
 28 27  2  0  0  0  0
 28 29  1  0  0  0  0
 29 30  2  0  0  0  0
 30 25  1  0  0  0  0
 32 27  1  0  0  0  0
 33 29  1  0  0  0  0
M  END
>  <minimizedAffinity>
-4.43741798

$$$$

 OpenBabel03272508313D

 33 35  0  0  1  0  0  0  0  0999 V2000
   38.4210   23.9930   34.5430 N   0  0  0  0  0  0  0  0  0  0  0  0
   37.9970   24.7860   35.7130 C   0  0  0  0  0  0  0  0  0  0  0  0
   38.3720   24.1400   36.9870 C   0  0  0  0  0  0  0  0  0  0  0  0
   39.5490   23.3270   36.7980 N   0  0  0  0  0  0  0  0  0  0  0  0
   39.0720   22.1660   36.0310 C   0  0  0  0  0  0  0  0  0  0  0  0
   38.9260   22.6410   34.6140 C   0  0  1  0  0  0  0  0  0  0  0  0
   36.9000   24.9090   35.6020 H   0  0  0  0  0  0  0  0  0  0  0  0
   38.4220   25.8000   35.6420 H   0  0  0  0  0  0  0  0  0  0  0  0
   38.5070   24.8520   37.8040 H   0  0  0  0  0  0  0  0  0  0  0  0
   37.5370   23.4430   37.2710 H   0  0  0  0  0  0  0  0  0  0  0  0
   39.8630   22.9660   37.7280 H   0  0  0  0  0  0  0  0  0  0  0  0
   38.1190   21.8010   36.4620 H   0  0  0  0  0  0  0  0  0  0  0  0
   39.8490   21.3590   36.0390 H   0  0  0  0  0  0  0  0  0  0  0  0
   39.8940   22.5490   34.0770 H   0  0  0  0  0  0  0  0  0  0  0  0
   39.7590   21.3270   32.0130 Cl  0  0  0  0  0  0  0  0  0  0  0  0
   38.1890   21.0970   32.7840 C   0  0  0  0  0  0  0  0  0  0  0  0
   37.9120   21.7510   33.9790 C   0  0  0  0  0  0  0  0  0  0  0  0
   36.6620   21.5240   34.5260 C   0  0  0  0  0  0  0  0  0  0  0  0
   36.3890   21.9970   35.4440 H   0  0  0  0  0  0  0  0  0  0  0  0
   35.7250   20.6990   33.9360 C   0  0  0  0  0  3  0  0  0  0  0  0
   36.0210   20.0590   32.7470 C   0  0  0  0  0  0  0  0  0  0  0  0
   34.7850   19.0280   32.0540 Cl  0  0  0  0  0  0  0  0  0  0  0  0
   37.2550   20.2750   32.1940 C   0  0  0  0  0  0  0  0  0  0  0  0
   37.4710   19.7680   31.2650 H   0  0  0  0  0  0  0  0  0  0  0  0
   39.4650   24.8600   32.4800 C   0  0  0  0  0  0  0  0  0  0  0  0
   38.3300   24.6000   33.2580 C   0  0  0  0  0  0  0  0  0  0  0  0
   37.1010   24.9640   32.7190 C   0  0  0  0  0  0  0  0  0  0  0  0
   37.0650   25.5440   31.4810 N   0  0  0  0  0  0  0  0  0  0  0  0
   38.1980   25.7700   30.7740 C   0  0  0  0  0  0  0  0  0  0  0  0
   39.4220   25.4310   31.2650 N   0  0  0  0  0  0  0  0  0  0  0  0
   40.4470   24.5980   32.8500 H   0  0  0  0  0  0  0  0  0  0  0  0
   36.2040   24.7790   33.2890 H   0  0  0  0  0  0  0  0  0  0  0  0
   38.1410   26.2320   29.7960 H   0  0  0  0  0  0  0  0  0  0  0  0
  1  6  1  0  0  0  0
  1  2  1  0  0  0  0
  2  3  1  0  0  0  0
  3 10  1  0  0  0  0
  3  9  1  0  0  0  0
  4  3  1  0  0  0  0
  4 11  1  0  0  0  0
  5 13  1  0  0  0  0
  5 12  1  0  0  0  0
  5  4  1  0  0  0  0
  6 14  1  6  0  0  0
  6  5  1  0  0  0  0
  7  2  1  0  0  0  0
  8  2  1  0  0  0  0
 15 16  1  0  0  0  0
 16 17  1  0  0  0  0
 17 18  2  0  0  0  0
 17  6  1  0  0  0  0
 18 19  1  0  0  0  0
 20 18  1  0  0  0  0
 21 20  2  0  0  0  0
 22 21  1  0  0  0  0
 23 21  1  0  0  0  0
 23 16  2  0  0  0  0
 24 23  1  0  0  0  0
 25 31  1  0  0  0  0
 25 26  1  0  0  0  0
 26  1  1  0  0  0  0
 27 26  2  0  0  0  0
 27 32  1  0  0  0  0
 28 27  1  0  0  0  0
 29 30  1  0  0  0  0
 29 28  2  0  0  0  0
 30 25  2  0  0  0  0
 33 29  1  0  0  0  0
M  END
>  <minimizedAffinity>
-4.43515015

$$$$
