
 OpenBabel03272503383D

 20 21  0  0  0  0  0  0  0  0999 V2000
   39.1340   23.0320   37.8820 C   0  0  0  0  0  0  0  0  0  0  0  0
   38.3990   24.0430   37.2580 C   0  0  0  0  0  0  0  0  0  0  0  0
   38.9190   24.5920   36.0980 C   0  0  0  0  0  0  0  0  0  0  0  0
   40.1150   24.1070   35.6430 N   0  0  0  0  0  0  0  0  0  0  0  0
   40.8110   23.1280   36.2590 C   0  0  0  0  0  0  0  0  0  0  0  0
   40.2990   22.6130   37.3700 N   0  0  0  0  0  0  0  0  0  0  0  0
   37.4550   24.4060   37.6410 H   0  0  0  0  0  0  0  0  0  0  0  0
   41.7530   22.7850   35.8520 H   0  0  0  0  0  0  0  0  0  0  0  0
   37.8190   23.7830   33.4270 Cl  0  0  0  0  0  0  0  0  0  0  0  0
   37.7230   25.3980   34.1210 C   0  0  0  0  0  0  0  0  0  0  0  0
   38.2650   25.6440   35.3530 C   0  0  0  0  0  0  0  0  0  0  0  0
   38.1340   26.9210   35.7920 C   0  0  0  0  0  0  0  0  0  0  0  0
   38.5230   27.2250   36.7470 H   0  0  0  0  0  0  0  0  0  0  0  0
   37.5020   27.9420   35.0740 C   0  0  0  0  0  3  0  0  0  0  0  0
   36.9830   27.6180   33.8440 C   0  0  0  0  0  0  0  0  0  0  0  0
   36.1810   28.8670   32.9070 Cl  0  0  0  0  0  0  0  0  0  0  0  0
   37.0830   26.3400   33.3440 C   0  0  0  0  0  0  0  0  0  0  0  0
   36.6620   26.1530   32.3870 H   0  0  0  0  0  0  0  0  0  0  0  0
   38.5320   22.5490   39.0290 O   0  0  0  0  0  0  0  0  0  0  0  0
   37.5720   22.2320   38.9440 H   0  0  0  0  0  0  0  0  0  0  0  0
  1 19  1  0  0  0  0
  2  7  1  0  0  0  0
  2  1  2  0  0  0  0
  3  2  1  0  0  0  0
  4  3  2  0  0  0  0
  4  5  1  0  0  0  0
  5  6  2  0  0  0  0
  6  1  1  0  0  0  0
  8  5  1  0  0  0  0
  9 10  1  0  0  0  0
 10 11  1  0  0  0  0
 11 12  2  0  0  0  0
 11  3  1  0  0  0  0
 12 13  1  0  0  0  0
 14 12  1  0  0  0  0
 15 14  2  0  0  0  0
 16 15  1  0  0  0  0
 17 15  1  0  0  0  0
 17 10  2  0  0  0  0
 18 17  1  0  0  0  0
 20 19  1  0  0  0  0
M  END
>  <minimizedAffinity>
-5.08508301

$$$$

 OpenBabel03272503383D

 20 21  0  0  0  0  0  0  0  0999 V2000
   39.1860   23.0320   37.7940 C   0  0  0  0  0  0  0  0  0  0  0  0
   38.3810   23.7120   36.8750 C   0  0  0  0  0  0  0  0  0  0  0  0
   38.9640   24.1140   35.6860 C   0  0  0  0  0  0  0  0  0  0  0  0
   40.2870   23.8170   35.4910 N   0  0  0  0  0  0  0  0  0  0  0  0
   41.0480   23.1590   36.3900 C   0  0  0  0  0  0  0  0  0  0  0  0
   40.4740   22.7810   37.5260 N   0  0  0  0  0  0  0  0  0  0  0  0
   37.3380   23.9320   37.0570 H   0  0  0  0  0  0  0  0  0  0  0  0
   42.0890   22.9520   36.1810 H   0  0  0  0  0  0  0  0  0  0  0  0
   38.5330   27.0390   36.1940 Cl  0  0  0  0  0  0  0  0  0  0  0  0
   37.9920   26.1630   34.7660 C   0  0  0  0  0  0  0  0  0  0  0  0
   38.2510   24.8250   34.6490 C   0  0  0  0  0  0  0  0  0  0  0  0
   37.7900   24.2500   33.5100 C   0  0  0  0  0  0  0  0  0  0  0  0
   37.9370   23.2030   33.3140 H   0  0  0  0  0  0  0  0  0  0  0  0
   37.0980   24.9330   32.5040 C   0  0  0  0  0  3  0  0  0  0  0  0
   36.8770   26.2760   32.6930 C   0  0  0  0  0  0  0  0  0  0  0  0
   36.0140   27.1750   31.4580 Cl  0  0  0  0  0  0  0  0  0  0  0  0
   37.3200   26.9160   33.8280 C   0  0  0  0  0  0  0  0  0  0  0  0
   37.1170   27.9560   33.9160 H   0  0  0  0  0  0  0  0  0  0  0  0
   38.5120   22.6740   38.9470 O   0  0  0  0  0  0  0  0  0  0  0  0
   37.6540   22.1460   38.8310 H   0  0  0  0  0  0  0  0  0  0  0  0
  1 19  1  0  0  0  0
  2  7  1  0  0  0  0
  2  1  2  0  0  0  0
  3  2  1  0  0  0  0
  4  3  2  0  0  0  0
  4  5  1  0  0  0  0
  5  6  2  0  0  0  0
  6  1  1  0  0  0  0
  8  5  1  0  0  0  0
 10  9  1  0  0  0  0
 11 10  1  0  0  0  0
 11  3  1  0  0  0  0
 12 11  2  0  0  0  0
 13 12  1  0  0  0  0
 14 15  2  0  0  0  0
 14 12  1  0  0  0  0
 15 17  1  0  0  0  0
 16 15  1  0  0  0  0
 17 18  1  0  0  0  0
 17 10  2  0  0  0  0
 20 19  1  0  0  0  0
M  END
>  <minimizedAffinity>
-4.91909838

$$$$

 OpenBabel03272503383D

 20 21  0  0  0  0  0  0  0  0999 V2000
   39.6920   22.7680   37.6640 C   0  0  0  0  0  0  0  0  0  0  0  0
   39.9810   23.4200   36.4620 C   0  0  0  0  0  0  0  0  0  0  0  0
   39.1780   24.4900   36.1030 C   0  0  0  0  0  0  0  0  0  0  0  0
   38.1580   24.8340   36.9480 N   0  0  0  0  0  0  0  0  0  0  0  0
   37.8940   24.1920   38.1060 C   0  0  0  0  0  0  0  0  0  0  0  0
   38.6730   23.1690   38.4360 N   0  0  0  0  0  0  0  0  0  0  0  0
   40.7950   23.1250   35.8140 H   0  0  0  0  0  0  0  0  0  0  0  0
   37.0730   24.5100   38.7350 H   0  0  0  0  0  0  0  0  0  0  0  0
   37.8340   23.3740   33.6640 Cl  0  0  0  0  0  0  0  0  0  0  0  0
   38.8000   24.8440   33.7110 C   0  0  0  0  0  0  0  0  0  0  0  0
   39.3640   25.2520   34.8890 C   0  0  0  0  0  0  0  0  0  0  0  0
   40.0870   26.3970   34.8120 C   0  0  0  0  0  0  0  0  0  0  0  0
   40.5740   26.8090   35.6770 H   0  0  0  0  0  0  0  0  0  0  0  0
   40.2700   27.1390   33.6400 C   0  0  0  0  0  3  0  0  0  0  0  0
   39.6730   26.6660   32.4960 C   0  0  0  0  0  0  0  0  0  0  0  0
   39.8740   27.5630   31.0020 Cl  0  0  0  0  0  0  0  0  0  0  0  0
   38.9260   25.5100   32.5110 C   0  0  0  0  0  0  0  0  0  0  0  0
   38.4900   25.1960   31.5940 H   0  0  0  0  0  0  0  0  0  0  0  0
   40.5490   21.7170   37.9330 O   0  0  0  0  0  0  0  0  0  0  0  0
   41.5430   21.9210   37.9180 H   0  0  0  0  0  0  0  0  0  0  0  0
  1 19  1  0  0  0  0
  1  6  1  0  0  0  0
  2  1  2  0  0  0  0
  3  2  1  0  0  0  0
  3  4  2  0  0  0  0
  4  5  1  0  0  0  0
  5  6  2  0  0  0  0
  5  8  1  0  0  0  0
  7  2  1  0  0  0  0
  9 10  1  0  0  0  0
 10 11  1  0  0  0  0
 11  3  1  0  0  0  0
 12 11  2  0  0  0  0
 12 13  1  0  0  0  0
 14 12  1  0  0  0  0
 15 17  1  0  0  0  0
 15 14  2  0  0  0  0
 16 15  1  0  0  0  0
 17 10  2  0  0  0  0
 18 17  1  0  0  0  0
 20 19  1  0  0  0  0
M  END
>  <minimizedAffinity>
-4.78632784

$$$$

 OpenBabel03272503383D

 20 21  0  0  0  0  0  0  0  0999 V2000
   37.6960   27.3490   35.1750 C   0  0  0  0  0  0  0  0  0  0  0  0
   38.5700   26.4540   35.7980 C   0  0  0  0  0  0  0  0  0  0  0  0
   38.7590   25.2200   35.1990 C   0  0  0  0  0  0  0  0  0  0  0  0
   38.0790   24.9630   34.0390 N   0  0  0  0  0  0  0  0  0  0  0  0
   37.2380   25.8410   33.4520 C   0  0  0  0  0  0  0  0  0  0  0  0
   37.0680   27.0190   34.0400 N   0  0  0  0  0  0  0  0  0  0  0  0
   39.0960   26.6850   36.7150 H   0  0  0  0  0  0  0  0  0  0  0  0
   36.7270   25.5820   32.5350 H   0  0  0  0  0  0  0  0  0  0  0  0
   37.5480   23.4650   37.3090 Cl  0  0  0  0  0  0  0  0  0  0  0  0
   39.1950   23.3380   36.7020 C   0  0  0  0  0  0  0  0  0  0  0  0
   39.6330   24.2010   35.7340 C   0  0  0  0  0  0  0  0  0  0  0  0
   40.9180   24.0140   35.3390 C   0  0  0  0  0  0  0  0  0  0  0  0
   41.3650   24.6350   34.5840 H   0  0  0  0  0  0  0  0  0  0  0  0
   41.7670   23.0290   35.8540 C   0  0  0  0  0  3  0  0  0  0  0  0
   41.2560   22.2010   36.8240 C   0  0  0  0  0  0  0  0  0  0  0  0
   42.2840   20.9500   37.4990 Cl  0  0  0  0  0  0  0  0  0  0  0  0
   39.9590   22.3400   37.2660 C   0  0  0  0  0  0  0  0  0  0  0  0
   39.6240   21.6690   38.0180 H   0  0  0  0  0  0  0  0  0  0  0  0
   37.5760   28.5500   35.8500 O   0  0  0  0  0  0  0  0  0  0  0  0
   38.4360   29.0460   36.0590 H   0  0  0  0  0  0  0  0  0  0  0  0
  1  2  1  0  0  0  0
  1 19  1  0  0  0  0
  2  7  1  0  0  0  0
  3 11  1  0  0  0  0
  3  2  2  0  0  0  0
  4  3  1  0  0  0  0
  5  4  2  0  0  0  0
  5  6  1  0  0  0  0
  6  1  2  0  0  0  0
  8  5  1  0  0  0  0
 10 17  1  0  0  0  0
 10  9  1  0  0  0  0
 11 10  2  0  0  0  0
 12 11  1  0  0  0  0
 12 14  2  0  0  0  0
 13 12  1  0  0  0  0
 14 15  1  0  0  0  0
 15 17  2  0  0  0  0
 15 16  1  0  0  0  0
 17 18  1  0  0  0  0
 19 20  1  0  0  0  0
M  END
>  <minimizedAffinity>
-4.53464079

$$$$

 OpenBabel03272503383D

 20 21  0  0  0  0  0  0  0  0999 V2000
   35.1950   19.7850   31.5450 C   0  0  0  0  0  0  0  0  0  0  0  0
   35.1600   21.1480   31.8520 C   0  0  0  0  0  0  0  0  0  0  0  0
   36.2170   21.9310   31.4180 C   0  0  0  0  0  0  0  0  0  0  0  0
   37.2210   21.3170   30.7190 N   0  0  0  0  0  0  0  0  0  0  0  0
   37.2370   19.9980   30.4310 C   0  0  0  0  0  0  0  0  0  0  0  0
   36.2160   19.2620   30.8550 N   0  0  0  0  0  0  0  0  0  0  0  0
   34.3530   21.6060   32.4070 H   0  0  0  0  0  0  0  0  0  0  0  0
   38.0580   19.5670   29.8740 H   0  0  0  0  0  0  0  0  0  0  0  0
   38.2230   22.7470   33.4940 Cl  0  0  0  0  0  0  0  0  0  0  0  0
   37.1880   23.8470   32.5900 C   0  0  0  0  0  0  0  0  0  0  0  0
   36.3090   23.3520   31.6660 C   0  0  0  0  0  0  0  0  0  0  0  0
   35.5610   24.2870   31.0280 C   0  0  0  0  0  0  0  0  0  0  0  0
   34.8390   24.0090   30.2820 H   0  0  0  0  0  0  0  0  0  0  0  0
   35.6470   25.6630   31.2640 C   0  0  0  0  0  3  0  0  0  0  0  0
   36.5530   26.0840   32.2070 C   0  0  0  0  0  0  0  0  0  0  0  0
   36.6960   27.8020   32.5370 Cl  0  0  0  0  0  0  0  0  0  0  0  0
   37.3410   25.1840   32.8880 C   0  0  0  0  0  0  0  0  0  0  0  0
   38.0210   25.5730   33.6050 H   0  0  0  0  0  0  0  0  0  0  0  0
   34.0970   19.0920   32.0210 O   0  0  0  0  0  0  0  0  0  0  0  0
   33.1830   19.4490   31.7630 H   0  0  0  0  0  0  0  0  0  0  0  0
  1  2  1  0  0  0  0
  1 19  1  0  0  0  0
  2  7  1  0  0  0  0
  3 11  1  0  0  0  0
  3  2  2  0  0  0  0
  4  3  1  0  0  0  0
  5  4  2  0  0  0  0
  5  6  1  0  0  0  0
  6  1  2  0  0  0  0
  8  5  1  0  0  0  0
 10 17  1  0  0  0  0
 10  9  1  0  0  0  0
 11 10  2  0  0  0  0
 12 14  2  0  0  0  0
 12 11  1  0  0  0  0
 13 12  1  0  0  0  0
 14 15  1  0  0  0  0
 15 16  1  0  0  0  0
 15 17  2  0  0  0  0
 17 18  1  0  0  0  0
 20 19  1  0  0  0  0
M  END
>  <minimizedAffinity>
-4.51408863

$$$$

 OpenBabel03272503383D

 20 21  0  0  0  0  0  0  0  0999 V2000
   36.7330   26.3930   31.0570 C   0  0  0  0  0  0  0  0  0  0  0  0
   36.7490   25.7400   32.2920 C   0  0  0  0  0  0  0  0  0  0  0  0
   37.9060   25.8220   33.0470 C   0  0  0  0  0  0  0  0  0  0  0  0
   38.9540   26.5370   32.5320 N   0  0  0  0  0  0  0  0  0  0  0  0
   38.9210   27.1620   31.3360 C   0  0  0  0  0  0  0  0  0  0  0  0
   37.8030   27.0730   30.6250 N   0  0  0  0  0  0  0  0  0  0  0  0
   35.9040   25.1820   32.6740 H   0  0  0  0  0  0  0  0  0  0  0  0
   39.7810   27.7130   30.9800 H   0  0  0  0  0  0  0  0  0  0  0  0
   37.7110   27.6690   35.4040 Cl  0  0  0  0  0  0  0  0  0  0  0  0
   37.9910   25.9330   35.4910 C   0  0  0  0  0  0  0  0  0  0  0  0
   38.0600   25.1950   34.3400 C   0  0  0  0  0  0  0  0  0  0  0  0
   38.2790   23.8690   34.5220 C   0  0  0  0  0  0  0  0  0  0  0  0
   38.3510   23.1960   33.6870 H   0  0  0  0  0  0  0  0  0  0  0  0
   38.4280   23.2570   35.7710 C   0  0  0  0  0  3  0  0  0  0  0  0
   38.3460   24.0640   36.8810 C   0  0  0  0  0  0  0  0  0  0  0  0
   38.5270   23.3410   38.4700 Cl  0  0  0  0  0  0  0  0  0  0  0  0
   38.1250   25.4170   36.7610 C   0  0  0  0  0  0  0  0  0  0  0  0
   38.0730   25.9860   37.6570 H   0  0  0  0  0  0  0  0  0  0  0  0
   35.5340   26.2520   30.3820 O   0  0  0  0  0  0  0  0  0  0  0  0
   34.6920   26.5120   30.8840 H   0  0  0  0  0  0  0  0  0  0  0  0
  1  2  1  0  0  0  0
  2  7  1  0  0  0  0
  2  3  2  0  0  0  0
  3 11  1  0  0  0  0
  4  3  1  0  0  0  0
  5  4  2  0  0  0  0
  6  1  2  0  0  0  0
  6  5  1  0  0  0  0
  8  5  1  0  0  0  0
  9 10  1  0  0  0  0
 10 17  1  0  0  0  0
 11 12  1  0  0  0  0
 11 10  2  0  0  0  0
 12 14  2  0  0  0  0
 13 12  1  0  0  0  0
 14 15  1  0  0  0  0
 15 16  1  0  0  0  0
 17 15  2  0  0  0  0
 17 18  1  0  0  0  0
 19 20  1  0  0  0  0
 19  1  1  0  0  0  0
M  END
>  <minimizedAffinity>
-4.4786191

$$$$

 OpenBabel03272503383D

 20 21  0  0  0  0  0  0  0  0999 V2000
   37.2370   26.2420   33.6840 C   0  0  0  0  0  0  0  0  0  0  0  0
   38.0180   25.1580   34.0920 C   0  0  0  0  0  0  0  0  0  0  0  0
   38.7780   25.3100   35.2390 C   0  0  0  0  0  0  0  0  0  0  0  0
   38.7110   26.5100   35.8940 N   0  0  0  0  0  0  0  0  0  0  0  0
   37.9500   27.5470   35.4850 C   0  0  0  0  0  0  0  0  0  0  0  0
   37.2270   27.3850   34.3830 N   0  0  0  0  0  0  0  0  0  0  0  0
   38.0500   24.2200   33.5530 H   0  0  0  0  0  0  0  0  0  0  0  0
   37.9370   28.4720   36.0450 H   0  0  0  0  0  0  0  0  0  0  0  0
   37.5830   23.6760   37.4540 Cl  0  0  0  0  0  0  0  0  0  0  0  0
   39.1970   23.4600   36.7860 C   0  0  0  0  0  0  0  0  0  0  0  0
   39.6300   24.2710   35.7730 C   0  0  0  0  0  0  0  0  0  0  0  0
   40.8880   24.0180   35.3330 C   0  0  0  0  0  0  0  0  0  0  0  0
   41.3290   24.5950   34.5400 H   0  0  0  0  0  0  0  0  0  0  0  0
   41.7170   23.0150   35.8460 C   0  0  0  0  0  3  0  0  0  0  0  0
   41.2120   22.2400   36.8630 C   0  0  0  0  0  0  0  0  0  0  0  0
   42.2160   20.9680   37.5380 Cl  0  0  0  0  0  0  0  0  0  0  0  0
   39.9420   22.4480   37.3520 C   0  0  0  0  0  0  0  0  0  0  0  0
   39.6110   21.8160   38.1390 H   0  0  0  0  0  0  0  0  0  0  0  0
   36.5170   25.9910   32.5300 O   0  0  0  0  0  0  0  0  0  0  0  0
   35.9300   25.1640   32.5280 H   0  0  0  0  0  0  0  0  0  0  0  0
  1  2  2  0  0  0  0
  1  6  1  0  0  0  0
  2  3  1  0  0  0  0
  3 11  1  0  0  0  0
  3  4  2  0  0  0  0
  5  4  1  0  0  0  0
  5  8  1  0  0  0  0
  6  5  2  0  0  0  0
  7  2  1  0  0  0  0
 10 17  1  0  0  0  0
 10  9  1  0  0  0  0
 11 10  2  0  0  0  0
 12 11  1  0  0  0  0
 12 14  2  0  0  0  0
 13 12  1  0  0  0  0
 14 15  1  0  0  0  0
 15 17  2  0  0  0  0
 15 16  1  0  0  0  0
 17 18  1  0  0  0  0
 19  1  1  0  0  0  0
 20 19  1  0  0  0  0
M  END
>  <minimizedAffinity>
-4.40908432

$$$$

 OpenBabel03272503383D

 20 21  0  0  0  0  0  0  0  0999 V2000
   36.7140   27.4460   33.3820 C   0  0  0  0  0  0  0  0  0  0  0  0
   36.3190   28.3440   34.3770 C   0  0  0  0  0  0  0  0  0  0  0  0
   35.6910   29.5110   33.9750 C   0  0  0  0  0  0  0  0  0  0  0  0
   35.5000   29.7030   32.6330 N   0  0  0  0  0  0  0  0  0  0  0  0
   35.8890   28.8230   31.6860 C   0  0  0  0  0  0  0  0  0  0  0  0
   36.4900   27.7090   32.0880 N   0  0  0  0  0  0  0  0  0  0  0  0
   36.4830   28.1650   35.4310 H   0  0  0  0  0  0  0  0  0  0  0  0
   35.7110   29.0290   30.6390 H   0  0  0  0  0  0  0  0  0  0  0  0
   32.7830   29.3700   34.6990 Cl  0  0  0  0  0  0  0  0  0  0  0  0
   33.9260   30.5660   35.3020 C   0  0  0  0  0  0  0  0  0  0  0  0
   35.2320   30.5250   34.8960 C   0  0  0  0  0  0  0  0  0  0  0  0
   36.0250   31.4930   35.4210 C   0  0  0  0  0  0  0  0  0  0  0  0
   37.0680   31.5560   35.1700 H   0  0  0  0  0  0  0  0  0  0  0  0
   35.5850   32.4770   36.3120 C   0  0  0  0  0  3  0  0  0  0  0  0
   34.2600   32.4530   36.6730 C   0  0  0  0  0  0  0  0  0  0  0  0
   33.6620   33.6680   37.7900 Cl  0  0  0  0  0  0  0  0  0  0  0  0
   33.4050   31.4960   36.1750 C   0  0  0  0  0  0  0  0  0  0  0  0
   32.3910   31.5310   36.4920 H   0  0  0  0  0  0  0  0  0  0  0  0
   37.3310   26.3140   33.8840 O   0  0  0  0  0  0  0  0  0  0  0  0
   36.8260   25.7940   34.5940 H   0  0  0  0  0  0  0  0  0  0  0  0
  1 19  1  0  0  0  0
  1  2  1  0  0  0  0
  2  7  1  0  0  0  0
  3  2  2  0  0  0  0
  3 11  1  0  0  0  0
  4  3  1  0  0  0  0
  5  6  1  0  0  0  0
  5  4  2  0  0  0  0
  6  1  2  0  0  0  0
  8  5  1  0  0  0  0
  9 10  1  0  0  0  0
 10 17  1  0  0  0  0
 11 10  2  0  0  0  0
 11 12  1  0  0  0  0
 12 14  2  0  0  0  0
 13 12  1  0  0  0  0
 14 15  1  0  0  0  0
 15 16  1  0  0  0  0
 17 18  1  0  0  0  0
 17 15  2  0  0  0  0
 19 20  1  0  0  0  0
M  END
>  <minimizedAffinity>
-4.37119818

$$$$

 OpenBabel03272503383D

 20 21  0  0  0  0  0  0  0  0999 V2000
   36.4380   28.1780   31.1860 C   0  0  0  0  0  0  0  0  0  0  0  0
   35.9010   29.1660   32.0160 C   0  0  0  0  0  0  0  0  0  0  0  0
   35.8880   28.9200   33.3790 C   0  0  0  0  0  0  0  0  0  0  0  0
   36.4010   27.7300   33.8180 N   0  0  0  0  0  0  0  0  0  0  0  0
   36.9160   26.7870   33.0000 C   0  0  0  0  0  0  0  0  0  0  0  0
   36.9210   27.0380   31.6960 N   0  0  0  0  0  0  0  0  0  0  0  0
   35.5020   30.0980   31.6400 H   0  0  0  0  0  0  0  0  0  0  0  0
   37.3080   25.8640   33.4050 H   0  0  0  0  0  0  0  0  0  0  0  0
   32.8950   29.0880   33.5150 Cl  0  0  0  0  0  0  0  0  0  0  0  0
   34.0130   30.0190   34.5060 C   0  0  0  0  0  0  0  0  0  0  0  0
   35.3620   29.8530   34.3510 C   0  0  0  0  0  0  0  0  0  0  0  0
   36.1320   30.6180   35.1650 C   0  0  0  0  0  0  0  0  0  0  0  0
   37.2050   30.5690   35.1270 H   0  0  0  0  0  0  0  0  0  0  0  0
   35.6290   31.5220   36.1070 C   0  0  0  0  0  3  0  0  0  0  0  0
   34.2620   31.6330   36.2050 C   0  0  0  0  0  0  0  0  0  0  0  0
   33.5850   32.7540   37.3730 Cl  0  0  0  0  0  0  0  0  0  0  0  0
   33.4290   30.8830   35.4070 C   0  0  0  0  0  0  0  0  0  0  0  0
   32.3820   31.0150   35.5300 H   0  0  0  0  0  0  0  0  0  0  0  0
   36.4060   28.5180   29.8460 O   0  0  0  0  0  0  0  0  0  0  0  0
   36.8240   29.4060   29.5880 H   0  0  0  0  0  0  0  0  0  0  0  0
  1  6  2  0  0  0  0
  1  2  1  0  0  0  0
  2  3  2  0  0  0  0
  3  4  1  0  0  0  0
  3 11  1  0  0  0  0
  5  8  1  0  0  0  0
  5  4  2  0  0  0  0
  6  5  1  0  0  0  0
  7  2  1  0  0  0  0
  9 10  1  0  0  0  0
 10 17  1  0  0  0  0
 11 10  2  0  0  0  0
 11 12  1  0  0  0  0
 12 14  2  0  0  0  0
 13 12  1  0  0  0  0
 14 15  1  0  0  0  0
 15 16  1  0  0  0  0
 17 18  1  0  0  0  0
 17 15  2  0  0  0  0
 19  1  1  0  0  0  0
 20 19  1  0  0  0  0
M  END
>  <minimizedAffinity>
-4.35474396

$$$$
