
 OpenBabel03272509503D

 34 36  0  0  0  0  0  0  0  0999 V2000
   37.1530   30.1700   51.3250 C   0  0  0  0  0  0  0  0  0  0  0  0
   37.7270   30.8730   50.2650 C   0  0  0  0  0  0  0  0  0  0  0  0
   37.3230   30.6250   48.9760 C   0  0  0  0  0  0  0  0  0  0  0  0
   36.3580   29.6760   48.8650 N   0  0  0  0  0  0  0  0  0  0  0  0
   35.8030   29.0000   49.8600 C   0  0  0  0  0  0  0  0  0  0  0  0
   36.2120   29.2580   51.1090 N   0  0  0  0  0  0  0  0  0  0  0  0
   37.5090   30.4060   52.3220 H   0  0  0  0  0  0  0  0  0  0  0  0
   38.4830   31.5910   50.4460 H   0  0  0  0  0  0  0  0  0  0  0  0
   35.8770   30.1910   46.2070 Cl  0  0  0  0  0  0  0  0  0  0  0  0
   37.3000   31.1500   46.4780 C   0  0  0  0  0  0  0  0  0  0  0  0
   37.7940   31.2260   47.7420 C   0  0  0  0  0  0  0  0  0  0  0  0
   38.9370   32.0000   47.8110 C   0  0  0  0  0  0  0  0  0  0  0  0
   39.4840   32.1810   48.7490 H   0  0  0  0  0  0  0  0  0  0  0  0
   39.5090   32.6240   46.7270 C   0  0  0  0  0  3  0  0  0  0  0  0
   38.9490   32.5000   45.4780 C   0  0  0  0  0  0  0  0  0  0  0  0
   39.6930   33.3010   44.1130 Cl  0  0  0  0  0  0  0  0  0  0  0  0
   37.8170   31.7400   45.3750 C   0  0  0  0  0  0  0  0  0  0  0  0
   37.3860   31.6490   44.3930 H   0  0  0  0  0  0  0  0  0  0  0  0
   34.8460   28.0950   49.4450 O   0  0  0  0  0  0  0  0  0  0  0  0
   33.7070   28.5760   48.7620 C   0  0  0  0  0  0  0  0  0  0  0  0
   33.9660   29.2690   47.9370 H   0  0  0  0  0  0  0  0  0  0  0  0
   33.1320   29.1930   49.5100 H   0  0  0  0  0  0  0  0  0  0  0  0
   32.8110   27.4570   48.3460 C   0  0  0  0  0  0  0  0  0  0  0  0
   32.9660   26.5420   48.9490 H   0  0  0  0  0  0  0  0  0  0  0  0
   33.0630   27.1890   47.2950 H   0  0  0  0  0  0  0  0  0  0  0  0
   31.3680   27.8520   48.3430 C   0  0  0  0  0  0  0  0  0  0  0  0
   30.6760   27.7200   49.5420 C   0  0  0  0  0  0  0  0  0  0  0  0
   29.3430   28.0600   49.6380 C   0  0  0  0  0  0  0  0  0  0  0  0
   28.7000   28.5210   48.5740 N   0  0  0  0  0  0  0  0  0  0  0  0
   29.3900   28.6450   47.4080 C   0  0  0  0  0  0  0  0  0  0  0  0
   30.6850   28.3230   47.2840 N   0  0  0  0  0  0  0  0  0  0  0  0
   31.1700   27.3460   50.4330 H   0  0  0  0  0  0  0  0  0  0  0  0
   28.8000   27.9590   50.5690 H   0  0  0  0  0  0  0  0  0  0  0  0
   28.9800   29.0110   46.4590 H   0  0  0  0  0  0  0  0  0  0  0  0
  1  7  1  0  0  0  0
  2  8  1  0  0  0  0
  2  1  2  0  0  0  0
  3  2  1  0  0  0  0
  4  3  2  0  0  0  0
  4  5  1  0  0  0  0
  5  6  2  0  0  0  0
  6  1  1  0  0  0  0
  9 10  1  0  0  0  0
 10 11  1  0  0  0  0
 11 12  2  0  0  0  0
 11  3  1  0  0  0  0
 12 13  1  0  0  0  0
 14 12  1  0  0  0  0
 15 14  2  0  0  0  0
 16 15  1  0  0  0  0
 17 15  1  0  0  0  0
 17 10  2  0  0  0  0
 18 17  1  0  0  0  0
 19  5  1  0  0  0  0
 20 19  1  0  0  0  0
 20 22  1  0  0  0  0
 21 20  1  0  0  0  0
 23 20  1  0  0  0  0
 23 24  1  0  0  0  0
 25 23  1  0  0  0  0
 26 23  1  0  0  0  0
 26 27  1  0  0  0  0
 27 28  2  0  0  0  0
 27 32  1  0  0  0  0
 28 33  1  0  0  0  0
 29 28  1  0  0  0  0
 30 29  2  0  0  0  0
 31 30  1  0  0  0  0
 31 26  2  0  0  0  0
 34 30  1  0  0  0  0
M  END
>  <minimizedAffinity>
-6.37637901

>  <minimizedRMSD>
0.774860024

$$$$
