
 OpenBabel03272505113D

 40 43  0  0  0  0  0  0  0  0999 V2000
   34.0770   29.9770   47.5720 S   0  0  0  0  0  0  0  0  0  0  0  0
   36.4160   30.9220   45.7310 Cl  0  0  0  0  0  0  0  0  0  0  0  0
   36.7140   30.7950   47.4430 C   0  0  0  0  0  0  0  0  0  0  0  0
   37.9760   31.1220   47.8970 C   0  0  0  0  0  0  0  0  0  0  0  0
   38.2240   31.0240   49.2560 C   0  0  0  0  0  0  0  0  0  0  0  0
   37.2350   30.6170   50.0970 C   0  0  0  0  0  0  0  0  0  0  0  0
   35.9760   30.2990   49.5830 C   0  0  0  0  0  0  0  0  0  0  0  0
   35.6630   30.3730   48.2500 C   0  0  0  0  0  0  0  0  0  0  0  0
   39.2220   31.2850   49.5910 H   0  0  0  0  0  0  0  0  0  0  0  0
   37.4500   30.5470   51.1540 H   0  0  0  0  0  0  0  0  0  0  0  0
   35.2110   29.9770   50.2820 H   0  0  0  0  0  0  0  0  0  0  0  0
   40.2280   33.3390   46.0700 C   0  0  0  0  0  0  0  0  0  0  0  0
   40.9400   32.4740   45.2110 C   0  0  0  0  0  0  0  0  0  0  0  0
   40.6270   31.1130   45.2750 C   0  0  0  0  0  0  0  0  0  0  0  0
   39.6650   30.6960   46.1510 N   0  0  0  0  0  0  0  0  0  0  0  0
   39.0200   31.5610   46.9430 C   0  0  0  0  0  0  0  0  0  0  0  0
   39.3010   32.8600   46.8990 N   0  0  0  0  0  0  0  0  0  0  0  0
   40.4480   34.4040   46.0440 H   0  0  0  0  0  0  0  0  0  0  0  0
   41.6960   32.8270   44.5280 H   0  0  0  0  0  0  0  0  0  0  0  0
   41.1340   30.3800   44.6420 H   0  0  0  0  0  0  0  0  0  0  0  0
   33.9050   29.2350   44.5130 Cl  0  0  0  0  0  0  0  0  0  0  0  0
   33.8910   27.9960   45.7610 C   0  0  0  0  0  0  0  0  0  0  0  0
   33.9620   28.2300   47.1310 C   0  0  0  0  0  0  0  0  0  0  0  0
   33.9440   27.1860   48.0100 C   0  0  0  0  0  0  0  0  0  0  0  0
   33.8530   25.8940   47.5510 C   0  0  0  0  0  0  0  0  0  0  0  0
   33.7780   25.5980   46.1950 C   0  0  0  0  0  0  0  0  0  0  0  0
   33.8000   26.6650   45.3400 C   0  0  0  0  0  0  0  0  0  0  0  0
   34.0040   27.4570   49.0650 H   0  0  0  0  0  0  0  0  0  0  0  0
   33.8390   25.0830   48.2580 H   0  0  0  0  0  0  0  0  0  0  0  0
   33.7080   24.5730   45.8550 H   0  0  0  0  0  0  0  0  0  0  0  0
   30.9990   26.6050   44.4710 Cl  0  0  0  0  0  0  0  0  0  0  0  0
   32.3920   26.3390   43.4780 C   0  0  0  0  0  0  0  0  0  0  0  0
   33.7220   26.3700   43.9030 C   0  0  0  0  0  0  0  0  0  0  0  0
   34.7690   26.1440   43.0330 C   0  0  0  0  0  0  0  0  0  0  0  0
   35.7480   26.1970   43.4910 H   0  0  0  0  0  0  0  0  0  0  0  0
   34.5030   25.8790   41.7060 C   0  0  0  0  0  3  0  0  0  0  0  0
   33.1940   25.8420   41.2590 C   0  0  0  0  0  0  0  0  0  0  0  0
   32.8510   25.5040   39.5690 Cl  0  0  0  0  0  0  0  0  0  0  0  0
   32.1340   26.0690   42.1320 C   0  0  0  0  0  0  0  0  0  0  0  0
   31.1340   26.0280   41.7290 H   0  0  0  0  0  0  0  0  0  0  0  0
  1  8  1  0  0  0  0
  2  3  1  0  0  0  0
  3  4  2  0  0  0  0
  3  8  1  0  0  0  0
  4  5  1  0  0  0  0
  5  9  1  0  0  0  0
  5  6  2  0  0  0  0
  6 10  1  0  0  0  0
  7  6  1  0  0  0  0
  7 11  1  0  0  0  0
  8  7  2  0  0  0  0
 12 17  1  0  0  0  0
 13 14  1  0  0  0  0
 13 12  2  0  0  0  0
 14 15  2  0  0  0  0
 15 16  1  0  0  0  0
 16  4  1  0  0  0  0
 17 16  2  0  0  0  0
 18 12  1  0  0  0  0
 19 13  1  0  0  0  0
 20 14  1  0  0  0  0
 21 22  1  0  0  0  0
 22 23  1  0  0  0  0
 23  1  1  0  0  0  0
 23 24  2  0  0  0  0
 24 28  1  0  0  0  0
 25 24  1  0  0  0  0
 25 29  1  0  0  0  0
 26 25  2  0  0  0  0
 27 22  2  0  0  0  0
 27 26  1  0  0  0  0
 30 26  1  0  0  0  0
 32 33  1  0  0  0  0
 32 31  1  0  0  0  0
 33 27  1  0  0  0  0
 34 35  1  0  0  0  0
 34 33  2  0  0  0  0
 36 34  1  0  0  0  0
 37 36  2  0  0  0  0
 37 39  1  0  0  0  0
 38 37  1  0  0  0  0
 39 32  2  0  0  0  0
 40 39  1  0  0  0  0
M  END
>  <minimizedAffinity>
-5.74027538

>  <minimizedRMSD>
0.847288191

$$$$
