
 OpenBabel03272509503D

 34 36  0  0  0  0  0  0  0  0999 V2000
   37.3310   30.2260   51.2910 C   0  0  0  0  0  0  0  0  0  0  0  0
   37.8770   30.9220   50.2110 C   0  0  0  0  0  0  0  0  0  0  0  0
   37.4380   30.6680   48.9350 C   0  0  0  0  0  0  0  0  0  0  0  0
   36.4700   29.7180   48.8550 N   0  0  0  0  0  0  0  0  0  0  0  0
   35.9410   29.0480   49.8690 C   0  0  0  0  0  0  0  0  0  0  0  0
   36.3850   29.3130   51.1050 N   0  0  0  0  0  0  0  0  0  0  0  0
   37.7140   30.4660   52.2750 H   0  0  0  0  0  0  0  0  0  0  0  0
   38.6370   31.6410   50.3680 H   0  0  0  0  0  0  0  0  0  0  0  0
   35.9090   30.2300   46.2110 Cl  0  0  0  0  0  0  0  0  0  0  0  0
   37.3440   31.1840   46.4370 C   0  0  0  0  0  0  0  0  0  0  0  0
   37.8750   31.2620   47.6850 C   0  0  0  0  0  0  0  0  0  0  0  0
   39.0220   32.0310   47.7180 C   0  0  0  0  0  0  0  0  0  0  0  0
   39.5970   32.2130   48.6390 H   0  0  0  0  0  0  0  0  0  0  0  0
   39.5660   32.6490   46.6150 C   0  0  0  0  0  3  0  0  0  0  0  0
   38.9690   32.5230   45.3850 C   0  0  0  0  0  0  0  0  0  0  0  0
   39.6760   33.3170   43.9950 Cl  0  0  0  0  0  0  0  0  0  0  0  0
   37.8320   31.7680   45.3160 C   0  0  0  0  0  0  0  0  0  0  0  0
   37.3710   31.6750   44.3490 H   0  0  0  0  0  0  0  0  0  0  0  0
   34.9740   28.1410   49.4840 O   0  0  0  0  0  0  0  0  0  0  0  0
   33.8250   28.6170   48.8140 C   0  0  0  0  0  0  0  0  0  0  0  0
   34.0670   29.3670   48.0340 H   0  0  0  0  0  0  0  0  0  0  0  0
   33.2170   29.1660   49.5870 H   0  0  0  0  0  0  0  0  0  0  0  0
   32.9800   27.4900   48.3190 C   0  0  0  0  0  0  0  0  0  0  0  0
   33.0700   26.5840   48.9480 H   0  0  0  0  0  0  0  0  0  0  0  0
   33.3430   27.2080   47.3050 H   0  0  0  0  0  0  0  0  0  0  0  0
   31.5450   27.8810   48.1570 C   0  0  0  0  0  0  0  0  0  0  0  0
   30.6980   27.6330   49.2300 C   0  0  0  0  0  0  0  0  0  0  0  0
   29.3600   27.9600   49.1750 C   0  0  0  0  0  0  0  0  0  0  0  0
   28.8610   28.5210   48.0820 N   0  0  0  0  0  0  0  0  0  0  0  0
   29.7020   28.7580   47.0390 C   0  0  0  0  0  0  0  0  0  0  0  0
   31.0070   28.4520   47.0640 N   0  0  0  0  0  0  0  0  0  0  0  0
   31.0710   27.1750   50.1410 H   0  0  0  0  0  0  0  0  0  0  0  0
   28.6970   27.7690   50.0090 H   0  0  0  0  0  0  0  0  0  0  0  0
   29.4200   29.2140   46.0830 H   0  0  0  0  0  0  0  0  0  0  0  0
  1  7  1  0  0  0  0
  2  8  1  0  0  0  0
  2  1  2  0  0  0  0
  3  2  1  0  0  0  0
  4  3  2  0  0  0  0
  4  5  1  0  0  0  0
  5  6  2  0  0  0  0
  6  1  1  0  0  0  0
  9 10  1  0  0  0  0
 10 11  1  0  0  0  0
 11 12  2  0  0  0  0
 11  3  1  0  0  0  0
 12 13  1  0  0  0  0
 14 12  1  0  0  0  0
 15 14  2  0  0  0  0
 16 15  1  0  0  0  0
 17 15  1  0  0  0  0
 17 10  2  0  0  0  0
 18 17  1  0  0  0  0
 19  5  1  0  0  0  0
 20 19  1  0  0  0  0
 20 22  1  0  0  0  0
 21 20  1  0  0  0  0
 23 20  1  0  0  0  0
 23 24  1  0  0  0  0
 25 23  1  0  0  0  0
 26 23  1  0  0  0  0
 26 27  1  0  0  0  0
 27 32  1  0  0  0  0
 28 27  2  0  0  0  0
 28 33  1  0  0  0  0
 29 28  1  0  0  0  0
 30 31  1  0  0  0  0
 30 29  2  0  0  0  0
 31 26  2  0  0  0  0
 34 30  1  0  0  0  0
M  END
>  <minimizedAffinity>
-6.37800026

>  <minimizedRMSD>
1.14006102

$$$$
