
 OpenBabel03272508123D

 35 37  0  0  0  0  0  0  0  0999 V2000
   36.6300   29.4850   44.0900 Cl  0  0  0  0  0  0  0  0  0  0  0  0
   38.2900   29.8350   43.5440 C   0  0  0  0  0  0  0  0  0  0  0  0
   39.2940   30.3040   44.3730 C   0  0  0  0  0  0  0  0  0  0  0  0
   40.5300   30.5280   43.8030 C   0  0  0  0  0  0  0  0  0  0  0  0
   40.7570   30.2970   42.4700 C   0  0  0  0  0  0  0  0  0  0  0  0
   39.7730   29.8330   41.6360 C   0  0  0  0  0  0  0  0  0  0  0  0
   38.5430   29.6040   42.1800 C   0  0  0  0  0  0  0  0  0  0  0  0
   41.2760   30.8970   44.5120 H   0  0  0  0  0  0  0  0  0  0  0  0
   41.7800   30.5180   42.1610 H   0  0  0  0  0  0  0  0  0  0  0  0
   40.0140   29.6710   40.5960 H   0  0  0  0  0  0  0  0  0  0  0  0
   37.9290   26.6180   42.0400 Cl  0  0  0  0  0  0  0  0  0  0  0  0
   37.0600   27.8100   41.1050 C   0  0  0  0  0  0  0  0  0  0  0  0
   37.4800   29.1080   41.3020 C   0  0  0  0  0  0  0  0  0  0  0  0
   36.8780   30.1580   40.6250 C   0  0  0  0  0  0  0  0  0  0  0  0
   37.1180   31.2110   40.6950 H   0  0  0  0  0  0  0  0  0  0  0  0
   35.8360   29.9230   39.7310 C   0  0  0  0  0  3  0  0  0  0  0  0
   35.4190   28.6030   39.5390 C   0  0  0  0  0  0  0  0  0  0  0  0
   34.1160   28.2360   38.4320 Cl  0  0  0  0  0  0  0  0  0  0  0  0
   36.0290   27.5700   40.2220 C   0  0  0  0  0  0  0  0  0  0  0  0
   35.7480   26.5200   40.1150 H   0  0  0  0  0  0  0  0  0  0  0  0
   38.8850   30.4740   45.6620 O   0  0  0  0  0  0  0  0  0  0  0  0
   39.4520   32.5260   47.1160 O   0  0  0  0  0  0  0  0  0  0  0  0
   38.3140   31.8560   46.4320 P   0  0  1  0  0  0  0  0  0  0  0  0
   37.7360   32.8540   45.1740 O   0  0  0  0  0  0  0  0  0  0  0  0
   37.1420   32.3590   44.5730 H   0  0  0  0  0  0  0  0  0  0  0  0
   37.0410   31.4510   47.4640 O   0  0  0  0  0  0  0  0  0  0  0  0
   37.6090   30.5140   50.9980 C   0  0  0  0  0  0  0  0  0  0  0  0
   37.7100   31.3090   49.8420 C   0  0  0  0  0  0  0  0  0  0  0  0
   37.0810   30.8640   48.6760 C   0  0  0  0  0  0  0  0  0  0  0  0
   36.4040   29.6800   48.7280 N   0  0  0  0  0  0  0  0  0  0  0  0
   36.3300   28.9440   49.8600 C   0  0  0  0  0  0  0  0  0  0  0  0
   36.9390   29.3740   50.9900 N   0  0  0  0  0  0  0  0  0  0  0  0
   38.1250   30.9350   51.8500 H   0  0  0  0  0  0  0  0  0  0  0  0
   38.2200   32.2440   49.7230 H   0  0  0  0  0  0  0  0  0  0  0  0
   35.7840   28.0030   49.8760 H   0  0  0  0  0  0  0  0  0  0  0  0
  2  1  1  0  0  0  0
  2  3  1  0  0  0  0
  3 21  1  0  0  0  0
  4  3  2  0  0  0  0
  4  8  1  0  0  0  0
  5  4  1  0  0  0  0
  6  7  1  0  0  0  0
  6  5  2  0  0  0  0
  7  2  2  0  0  0  0
  9  5  1  0  0  0  0
 10  6  1  0  0  0  0
 12 13  1  0  0  0  0
 12 11  1  0  0  0  0
 13  7  1  0  0  0  0
 14 15  1  0  0  0  0
 14 13  2  0  0  0  0
 16 14  1  0  0  0  0
 17 16  2  0  0  0  0
 17 19  1  0  0  0  0
 18 17  1  0  0  0  0
 19 12  2  0  0  0  0
 20 19  1  0  0  0  0
 21 23  1  0  0  0  0
 23 22  2  1  0  0  0
 23 26  1  0  0  0  0
 24 23  1  0  0  0  0
 25 24  1  0  0  0  0
 26 29  1  0  0  0  0
 27 33  1  0  0  0  0
 28 27  2  0  0  0  0
 29 30  2  0  0  0  0
 29 28  1  0  0  0  0
 30 31  1  0  0  0  0
 31 35  1  0  0  0  0
 31 32  2  0  0  0  0
 32 27  1  0  0  0  0
 34 28  1  0  0  0  0
M  END
>  <minimizedAffinity>
-4.88930511

>  <minimizedRMSD>
0.281364948

$$$$
