
 OpenBabel03272508113D

 35 37  0  0  0  0  0  0  0  0999 V2000
   36.6310   29.4860   44.0910 Cl  0  0  0  0  0  0  0  0  0  0  0  0
   38.2900   29.8360   43.5450 C   0  0  0  0  0  0  0  0  0  0  0  0
   39.2950   30.3040   44.3730 C   0  0  0  0  0  0  0  0  0  0  0  0
   40.5310   30.5280   43.8030 C   0  0  0  0  0  0  0  0  0  0  0  0
   40.7570   30.2970   42.4690 C   0  0  0  0  0  0  0  0  0  0  0  0
   39.7730   29.8330   41.6360 C   0  0  0  0  0  0  0  0  0  0  0  0
   38.5430   29.6050   42.1810 C   0  0  0  0  0  0  0  0  0  0  0  0
   41.2770   30.8970   44.5120 H   0  0  0  0  0  0  0  0  0  0  0  0
   41.7800   30.5180   42.1600 H   0  0  0  0  0  0  0  0  0  0  0  0
   40.0130   29.6710   40.5960 H   0  0  0  0  0  0  0  0  0  0  0  0
   37.9290   26.6180   42.0410 Cl  0  0  0  0  0  0  0  0  0  0  0  0
   37.0590   27.8110   41.1060 C   0  0  0  0  0  0  0  0  0  0  0  0
   37.4800   29.1090   41.3030 C   0  0  0  0  0  0  0  0  0  0  0  0
   36.8780   30.1590   40.6280 C   0  0  0  0  0  0  0  0  0  0  0  0
   37.1160   31.2110   40.6980 H   0  0  0  0  0  0  0  0  0  0  0  0
   35.8350   29.9240   39.7340 C   0  0  0  0  0  3  0  0  0  0  0  0
   35.4170   28.6040   39.5420 C   0  0  0  0  0  0  0  0  0  0  0  0
   34.1130   28.2380   38.4360 Cl  0  0  0  0  0  0  0  0  0  0  0  0
   36.0280   27.5700   40.2240 C   0  0  0  0  0  0  0  0  0  0  0  0
   35.7470   26.5220   40.1170 H   0  0  0  0  0  0  0  0  0  0  0  0
   38.8870   30.4750   45.6630 O   0  0  0  0  0  0  0  0  0  0  0  0
   39.4530   32.5280   47.1170 O   0  0  0  0  0  0  0  0  0  0  0  0
   38.3150   31.8570   46.4330 P   0  0  1  0  0  0  0  0  0  0  0  0
   37.7370   32.8540   45.1740 O   0  0  0  0  0  0  0  0  0  0  0  0
   37.1440   32.3600   44.5730 H   0  0  0  0  0  0  0  0  0  0  0  0
   37.0420   31.4520   47.4640 O   0  0  0  0  0  0  0  0  0  0  0  0
   37.6090   30.5140   50.9980 C   0  0  0  0  0  0  0  0  0  0  0  0
   37.7110   31.3100   49.8420 C   0  0  0  0  0  0  0  0  0  0  0  0
   37.0820   30.8640   48.6760 C   0  0  0  0  0  0  0  0  0  0  0  0
   36.4040   29.6810   48.7280 N   0  0  0  0  0  0  0  0  0  0  0  0
   36.3300   28.9440   49.8590 C   0  0  0  0  0  0  0  0  0  0  0  0
   36.9400   29.3740   50.9890 N   0  0  0  0  0  0  0  0  0  0  0  0
   38.1260   30.9350   51.8490 H   0  0  0  0  0  0  0  0  0  0  0  0
   38.2210   32.2440   49.7230 H   0  0  0  0  0  0  0  0  0  0  0  0
   35.7840   28.0040   49.8750 H   0  0  0  0  0  0  0  0  0  0  0  0
  2  1  1  0  0  0  0
  2  3  1  0  0  0  0
  3 21  1  0  0  0  0
  4  3  2  0  0  0  0
  4  8  1  0  0  0  0
  5  4  1  0  0  0  0
  6  7  1  0  0  0  0
  6  5  2  0  0  0  0
  7  2  2  0  0  0  0
  9  5  1  0  0  0  0
 10  6  1  0  0  0  0
 12 13  1  0  0  0  0
 12 11  1  0  0  0  0
 13  7  1  0  0  0  0
 14 15  1  0  0  0  0
 14 13  2  0  0  0  0
 16 14  1  0  0  0  0
 17 16  2  0  0  0  0
 17 19  1  0  0  0  0
 18 17  1  0  0  0  0
 19 12  2  0  0  0  0
 20 19  1  0  0  0  0
 21 23  1  0  0  0  0
 23 22  2  1  0  0  0
 23 26  1  0  0  0  0
 24 23  1  0  0  0  0
 25 24  1  0  0  0  0
 26 29  1  0  0  0  0
 27 33  1  0  0  0  0
 28 27  2  0  0  0  0
 29 30  2  0  0  0  0
 29 28  1  0  0  0  0
 30 31  1  0  0  0  0
 31 35  1  0  0  0  0
 31 32  2  0  0  0  0
 32 27  1  0  0  0  0
 34 28  1  0  0  0  0
M  END
>  <minimizedAffinity>
-4.88920498

>  <minimizedRMSD>
0.11567957

$$$$
