
 OpenBabel03272508113D

 35 37  0  0  0  0  0  0  0  0999 V2000
   36.6970   29.4830   44.0590 Cl  0  0  0  0  0  0  0  0  0  0  0  0
   38.3630   29.8520   43.5480 C   0  0  0  0  0  0  0  0  0  0  0  0
   39.3450   30.3320   44.3970 C   0  0  0  0  0  0  0  0  0  0  0  0
   40.5900   30.5700   43.8530 C   0  0  0  0  0  0  0  0  0  0  0  0
   40.8470   30.3420   42.5240 C   0  0  0  0  0  0  0  0  0  0  0  0
   39.8860   29.8670   41.6710 C   0  0  0  0  0  0  0  0  0  0  0  0
   38.6480   29.6240   42.1900 C   0  0  0  0  0  0  0  0  0  0  0  0
   41.3170   30.9480   44.5770 H   0  0  0  0  0  0  0  0  0  0  0  0
   41.8730   30.5750   42.2360 H   0  0  0  0  0  0  0  0  0  0  0  0
   40.1490   29.7070   40.6360 H   0  0  0  0  0  0  0  0  0  0  0  0
   38.0720   26.6300   42.0330 Cl  0  0  0  0  0  0  0  0  0  0  0  0
   37.2070   27.8130   41.0820 C   0  0  0  0  0  0  0  0  0  0  0  0
   37.6080   29.1160   41.2900 C   0  0  0  0  0  0  0  0  0  0  0  0
   37.0080   30.1600   40.6020 C   0  0  0  0  0  0  0  0  0  0  0  0
   37.2330   31.2150   40.6790 H   0  0  0  0  0  0  0  0  0  0  0  0
   35.9870   29.9140   39.6870 C   0  0  0  0  0  3  0  0  0  0  0  0
   35.5890   28.5900   39.4850 C   0  0  0  0  0  0  0  0  0  0  0  0
   34.3130   28.2100   38.3510 Cl  0  0  0  0  0  0  0  0  0  0  0  0
   36.1980   27.5620   40.1780 C   0  0  0  0  0  0  0  0  0  0  0  0
   35.9310   26.5100   40.0640 H   0  0  0  0  0  0  0  0  0  0  0  0
   38.9070   30.4980   45.6780 O   0  0  0  0  0  0  0  0  0  0  0  0
   39.4520   32.5600   47.1270 O   0  0  0  0  0  0  0  0  0  0  0  0
   38.3220   31.8780   46.4410 P   0  0  1  0  0  0  0  0  0  0  0  0
   37.7410   32.8670   45.1770 O   0  0  0  0  0  0  0  0  0  0  0  0
   37.1540   32.3650   44.5740 H   0  0  0  0  0  0  0  0  0  0  0  0
   37.0490   31.4670   47.4680 O   0  0  0  0  0  0  0  0  0  0  0  0
   37.6130   30.5110   50.9980 C   0  0  0  0  0  0  0  0  0  0  0  0
   37.7150   31.3120   49.8460 C   0  0  0  0  0  0  0  0  0  0  0  0
   37.0880   30.8730   48.6780 C   0  0  0  0  0  0  0  0  0  0  0  0
   36.4110   29.6880   48.7220 N   0  0  0  0  0  0  0  0  0  0  0  0
   36.3370   28.9450   49.8490 C   0  0  0  0  0  0  0  0  0  0  0  0
   36.9440   29.3700   50.9830 N   0  0  0  0  0  0  0  0  0  0  0  0
   38.1280   30.9280   51.8520 H   0  0  0  0  0  0  0  0  0  0  0  0
   38.2240   32.2480   49.7330 H   0  0  0  0  0  0  0  0  0  0  0  0
   35.7920   28.0040   49.8600 H   0  0  0  0  0  0  0  0  0  0  0  0
  2  1  1  0  0  0  0
  2  3  1  0  0  0  0
  3 21  1  0  0  0  0
  4  3  2  0  0  0  0
  4  8  1  0  0  0  0
  5  4  1  0  0  0  0
  6  7  1  0  0  0  0
  6  5  2  0  0  0  0
  7  2  2  0  0  0  0
  9  5  1  0  0  0  0
 10  6  1  0  0  0  0
 12 13  1  0  0  0  0
 12 11  1  0  0  0  0
 13  7  1  0  0  0  0
 14 15  1  0  0  0  0
 14 13  2  0  0  0  0
 16 14  1  0  0  0  0
 17 16  2  0  0  0  0
 17 19  1  0  0  0  0
 18 17  1  0  0  0  0
 19 12  2  0  0  0  0
 20 19  1  0  0  0  0
 21 23  1  0  0  0  0
 23 22  2  1  0  0  0
 23 26  1  0  0  0  0
 24 23  1  0  0  0  0
 25 24  1  0  0  0  0
 26 29  1  0  0  0  0
 27 33  1  0  0  0  0
 28 27  2  0  0  0  0
 29 30  2  0  0  0  0
 29 28  1  0  0  0  0
 30 31  1  0  0  0  0
 31 35  1  0  0  0  0
 31 32  2  0  0  0  0
 32 27  1  0  0  0  0
 34 28  1  0  0  0  0
M  END
>  <minimizedAffinity>
-4.89493799

>  <minimizedRMSD>
0.967590332

$$$$
