
 OpenBabel03272509503D

 34 36  0  0  0  0  0  0  0  0999 V2000
   37.3230   30.1440   51.6060 C   0  0  0  0  0  0  0  0  0  0  0  0
   38.0380   30.8320   50.6250 C   0  0  0  0  0  0  0  0  0  0  0  0
   37.7120   30.6780   49.3000 C   0  0  0  0  0  0  0  0  0  0  0  0
   36.6750   29.8310   49.0740 N   0  0  0  0  0  0  0  0  0  0  0  0
   35.9850   29.1700   49.9930 C   0  0  0  0  0  0  0  0  0  0  0  0
   36.3210   29.3350   51.2790 N   0  0  0  0  0  0  0  0  0  0  0  0
   37.6220   30.3020   52.6360 H   0  0  0  0  0  0  0  0  0  0  0  0
   38.8400   31.4660   50.8950 H   0  0  0  0  0  0  0  0  0  0  0  0
   38.9380   33.5840   49.3330 Cl  0  0  0  0  0  0  0  0  0  0  0  0
   38.9020   32.5050   47.9710 C   0  0  0  0  0  0  0  0  0  0  0  0
   38.3280   31.2830   48.1340 C   0  0  0  0  0  0  0  0  0  0  0  0
   38.3470   30.5390   46.9700 C   0  0  0  0  0  0  0  0  0  0  0  0
   37.9300   29.5220   46.9010 H   0  0  0  0  0  0  0  0  0  0  0  0
   38.8860   30.9790   45.7840 C   0  0  0  0  0  3  0  0  0  0  0  0
   39.4490   32.2280   45.6990 C   0  0  0  0  0  0  0  0  0  0  0  0
   40.1290   32.7710   44.1810 Cl  0  0  0  0  0  0  0  0  0  0  0  0
   39.4470   32.9930   46.8320 C   0  0  0  0  0  0  0  0  0  0  0  0
   39.8910   33.9710   46.7570 H   0  0  0  0  0  0  0  0  0  0  0  0
   34.9840   28.3780   49.4660 O   0  0  0  0  0  0  0  0  0  0  0  0
   34.4760   28.6890   48.1840 C   0  0  0  0  0  0  0  0  0  0  0  0
   35.2670   29.0190   47.4810 H   0  0  0  0  0  0  0  0  0  0  0  0
   33.8000   29.5800   48.3240 H   0  0  0  0  0  0  0  0  0  0  0  0
   33.6260   27.5820   47.6540 C   0  0  0  0  0  0  0  0  0  0  0  0
   33.8000   26.6240   48.1810 H   0  0  0  0  0  0  0  0  0  0  0  0
   33.9080   27.4130   46.5900 H   0  0  0  0  0  0  0  0  0  0  0  0
   32.1710   27.9300   47.6520 C   0  0  0  0  0  0  0  0  0  0  0  0
   31.4150   27.4880   48.7320 C   0  0  0  0  0  0  0  0  0  0  0  0
   30.0670   27.7600   48.8190 C   0  0  0  0  0  0  0  0  0  0  0  0
   29.4700   28.4550   47.8610 N   0  0  0  0  0  0  0  0  0  0  0  0
   30.2220   28.8820   46.8100 C   0  0  0  0  0  0  0  0  0  0  0  0
   31.5340   28.6320   46.6990 N   0  0  0  0  0  0  0  0  0  0  0  0
   31.8710   26.9160   49.5340 H   0  0  0  0  0  0  0  0  0  0  0  0
   29.4750   27.4170   49.6570 H   0  0  0  0  0  0  0  0  0  0  0  0
   29.8550   29.4620   45.9560 H   0  0  0  0  0  0  0  0  0  0  0  0
  1  7  1  0  0  0  0
  2  8  1  0  0  0  0
  2  1  2  0  0  0  0
  3  2  1  0  0  0  0
  4  3  2  0  0  0  0
  4  5  1  0  0  0  0
  5  6  2  0  0  0  0
  6  1  1  0  0  0  0
 10 11  1  0  0  0  0
 10  9  1  0  0  0  0
 11  3  1  0  0  0  0
 12 11  2  0  0  0  0
 13 12  1  0  0  0  0
 14 12  1  0  0  0  0
 15 14  2  0  0  0  0
 15 17  1  0  0  0  0
 16 15  1  0  0  0  0
 17 10  2  0  0  0  0
 18 17  1  0  0  0  0
 19  5  1  0  0  0  0
 20 22  1  0  0  0  0
 20 19  1  0  0  0  0
 21 20  1  0  0  0  0
 23 24  1  0  0  0  0
 23 20  1  0  0  0  0
 25 23  1  0  0  0  0
 26 23  1  0  0  0  0
 26 27  1  0  0  0  0
 27 28  2  0  0  0  0
 27 32  1  0  0  0  0
 28 33  1  0  0  0  0
 29 28  1  0  0  0  0
 30 29  2  0  0  0  0
 31 30  1  0  0  0  0
 31 26  2  0  0  0  0
 34 30  1  0  0  0  0
M  END
>  <minimizedAffinity>
-6.5875268

>  <minimizedRMSD>
1.09433258

$$$$
