
 OpenBabel03272506473D

 43 46  0  0  1  0  0  0  0  0999 V2000
   32.0190   28.3680   47.4870 C   0  0  2  0  0  0  0  0  0  0  0  0
   33.2770   28.1670   48.2790 C   0  0  1  0  0  0  0  0  0  0  0  0
   33.6430   26.8590   48.1630 O   0  0  0  0  0  0  0  0  0  0  0  0
   32.9030   26.2640   47.1470 C   0  0  0  0  0  0  0  0  0  0  0  0
   32.3030   27.3710   46.3190 C   0  0  1  0  0  0  0  0  0  0  0  0
   31.1000   28.0330   47.9550 H   0  0  0  0  0  0  0  0  0  0  0  0
   33.1640   28.4610   49.3390 H   0  0  0  0  0  0  0  0  0  0  0  0
   32.2120   25.5820   47.6170 H   0  0  0  0  0  0  0  0  0  0  0  0
   33.5630   25.6900   46.4460 H   0  0  0  0  0  0  0  0  0  0  0  0
   33.0320   27.8510   45.6640 H   0  0  0  0  0  0  0  0  0  0  0  0
   31.9620   29.6780   46.9660 O   0  0  0  0  0  0  0  0  0  0  0  0
   32.6560   30.2640   47.3640 H   0  0  0  0  0  0  0  0  0  0  0  0
   34.5890   29.1940   47.5010 S   0  0  0  0  0  0  0  0  0  0  0  0
   37.0090   29.2450   50.6380 C   0  0  0  0  0  0  0  0  0  0  0  0
   37.4180   30.5700   50.7650 C   0  0  0  0  0  0  0  0  0  0  0  0
   36.9200   31.4950   49.8320 C   0  0  0  0  0  0  0  0  0  0  0  0
   36.0720   31.0530   48.8620 N   0  0  0  0  0  0  0  0  0  0  0  0
   35.7060   29.7540   48.7830 C   0  0  0  0  0  0  0  0  0  0  0  0
   36.1670   28.8340   49.6680 N   0  0  0  0  0  0  0  0  0  0  0  0
   37.3320   28.4560   51.3020 H   0  0  0  0  0  0  0  0  0  0  0  0
   38.1000   30.8280   51.5740 H   0  0  0  0  0  0  0  0  0  0  0  0
   37.2260   32.5140   49.9170 H   0  0  0  0  0  0  0  0  0  0  0  0
   31.1330   26.9250   45.7560 O   0  0  0  0  0  0  0  0  0  0  0  0
   29.9450   29.1640   44.2570 Cl  0  0  0  0  0  0  0  0  0  0  0  0
   29.2480   28.2320   45.5620 C   0  0  0  0  0  0  0  0  0  0  0  0
   29.9010   27.1930   46.1820 C   0  0  0  0  0  0  0  0  0  0  0  0
   29.2290   26.5070   47.1960 C   0  0  0  0  0  0  0  0  0  0  0  0
   27.9490   26.8670   47.5600 C   0  0  0  0  0  0  0  0  0  0  0  0
   27.2820   27.9120   46.9430 C   0  0  0  0  0  0  0  0  0  0  0  0
   27.9430   28.5950   45.9380 C   0  0  0  0  0  0  0  0  0  0  0  0
   29.6610   25.6800   47.7320 H   0  0  0  0  0  0  0  0  0  0  0  0
   27.3710   26.3830   48.3320 H   0  0  0  0  0  0  0  0  0  0  0  0
   26.2740   28.2300   47.1970 H   0  0  0  0  0  0  0  0  0  0  0  0
   26.5550   28.1320   43.2590 Cl  0  0  0  0  0  0  0  0  0  0  0  0
   26.5900   29.6720   44.0850 C   0  0  0  0  0  0  0  0  0  0  0  0
   27.2560   29.6990   45.2760 C   0  0  0  0  0  0  0  0  0  0  0  0
   27.3470   30.8780   46.0240 C   0  0  0  0  0  0  0  0  0  0  0  0
   27.8520   31.0060   46.9810 H   0  0  0  0  0  0  0  0  0  0  0  0
   26.7450   32.0450   45.5420 C   0  0  0  0  0  3  0  0  0  0  0  0
   26.0760   31.9970   44.3360 C   0  0  0  0  0  0  0  0  0  0  0  0
   25.3130   33.4630   43.7190 Cl  0  0  0  0  0  0  0  0  0  0  0  0
   25.9870   30.8330   43.6020 C   0  0  0  0  0  0  0  0  0  0  0  0
   25.4660   30.7630   42.6460 H   0  0  0  0  0  0  0  0  0  0  0  0
  1  6  1  1  0  0  0
  1  2  1  0  0  0  0
  2  7  1  1  0  0  0
  3  2  1  0  0  0  0
  4  8  1  0  0  0  0
  4  3  1  0  0  0  0
  5 10  1  6  0  0  0
  5  4  1  0  0  0  0
  5  1  1  0  0  0  0
  9  4  1  0  0  0  0
 11 12  1  0  0  0  0
 11  1  1  0  0  0  0
 13  2  1  0  0  0  0
 13 18  1  0  0  0  0
 14 15  1  0  0  0  0
 14 20  1  0  0  0  0
 15 21  1  0  0  0  0
 16 22  1  0  0  0  0
 16 15  2  0  0  0  0
 17 16  1  0  0  0  0
 18 17  2  0  0  0  0
 18 19  1  0  0  0  0
 19 14  2  0  0  0  0
 23 26  1  0  0  0  0
 23  5  1  0  0  0  0
 24 25  1  0  0  0  0
 25 30  2  0  0  0  0
 25 26  1  0  0  0  0
 26 27  2  0  0  0  0
 27 28  1  0  0  0  0
 27 31  1  0  0  0  0
 28 32  1  0  0  0  0
 29 33  1  0  0  0  0
 29 28  2  0  0  0  0
 30 29  1  0  0  0  0
 34 35  1  0  0  0  0
 35 36  1  0  0  0  0
 36 30  1  0  0  0  0
 36 37  2  0  0  0  0
 37 38  1  0  0  0  0
 39 37  1  0  0  0  0
 40 39  2  0  0  0  0
 41 40  1  0  0  0  0
 42 35  2  0  0  0  0
 42 40  1  0  0  0  0
 43 42  1  0  0  0  0
M  END
>  <minimizedAffinity>
-5.7994585

>  <minimizedRMSD>
0.58049041

$$$$
