
 OpenBabel03272508303D

 33 35  0  0  1  0  0  0  0  0999 V2000
   38.2100   30.7980   44.0780 N   0  0  0  0  0  0  0  0  0  0  0  0
   38.7250   31.7570   43.0810 C   0  0  0  0  0  0  0  0  0  0  0  0
   40.1890   31.9220   43.1730 C   0  0  0  0  0  0  0  0  0  0  0  0
   40.7880   30.7170   43.6920 N   0  0  0  0  0  0  0  0  0  0  0  0
   40.4220   30.7110   45.1170 C   0  0  0  0  0  0  0  0  0  0  0  0
   38.9900   30.2630   45.1710 C   0  0  1  0  0  0  0  0  0  0  0  0
   38.1740   32.7010   43.2690 H   0  0  0  0  0  0  0  0  0  0  0  0
   38.4260   31.4310   42.0720 H   0  0  0  0  0  0  0  0  0  0  0  0
   40.6470   32.2180   42.2270 H   0  0  0  0  0  0  0  0  0  0  0  0
   40.3900   32.7350   43.9240 H   0  0  0  0  0  0  0  0  0  0  0  0
   41.8290   30.8120   43.6490 H   0  0  0  0  0  0  0  0  0  0  0  0
   40.5720   31.7220   45.5450 H   0  0  0  0  0  0  0  0  0  0  0  0
   41.0350   29.9500   45.6650 H   0  0  0  0  0  0  0  0  0  0  0  0
   38.9360   29.1530   45.1920 H   0  0  0  0  0  0  0  0  0  0  0  0
   40.0710   32.9600   46.0350 Cl  0  0  0  0  0  0  0  0  0  0  0  0
   38.8510   32.0470   46.9240 C   0  0  0  0  0  0  0  0  0  0  0  0
   38.4270   30.8170   46.4360 C   0  0  0  0  0  0  0  0  0  0  0  0
   37.4690   30.1570   47.1840 C   0  0  0  0  0  0  0  0  0  0  0  0
   37.1020   29.2080   46.8620 H   0  0  0  0  0  0  0  0  0  0  0  0
   36.9480   30.6730   48.3550 C   0  0  0  0  0  0  0  0  0  0  0  0
   37.3840   31.8980   48.8230 C   0  0  0  0  0  0  0  0  0  0  0  0
   36.6820   32.4900   50.3150 Cl  0  0  0  0  0  0  0  0  0  0  0  0
   38.3320   32.5620   48.0920 C   0  0  0  0  0  0  0  0  0  0  0  0
   38.6630   33.5180   48.4710 H   0  0  0  0  0  0  0  0  0  0  0  0
   36.5210   29.0200   43.7940 C   0  0  0  0  0  0  0  0  0  0  0  0
   36.8580   30.3700   43.9550 C   0  0  0  0  0  0  0  0  0  0  0  0
   35.8080   31.2800   43.9890 C   0  0  0  0  0  0  0  0  0  0  0  0
   34.5260   30.8200   43.8670 N   0  0  0  0  0  0  0  0  0  0  0  0
   34.2610   29.5010   43.7150 C   0  0  0  0  0  0  0  0  0  0  0  0
   35.2590   28.5750   43.6750 N   0  0  0  0  0  0  0  0  0  0  0  0
   37.2980   28.2680   43.7610 H   0  0  0  0  0  0  0  0  0  0  0  0
   36.0290   32.3300   44.1130 H   0  0  0  0  0  0  0  0  0  0  0  0
   33.2360   29.1630   43.6200 H   0  0  0  0  0  0  0  0  0  0  0  0
  1  6  1  0  0  0  0
  2  3  1  0  0  0  0
  2  7  1  0  0  0  0
  2  1  1  0  0  0  0
  3  4  1  0  0  0  0
  3 10  1  0  0  0  0
  4  5  1  0  0  0  0
  5  6  1  0  0  0  0
  5 12  1  0  0  0  0
  5 13  1  0  0  0  0
  6 14  1  1  0  0  0
  6 17  1  0  0  0  0
  8  2  1  0  0  0  0
  9  3  1  0  0  0  0
 11  4  1  0  0  0  0
 15 16  1  0  0  0  0
 16 23  1  0  0  0  0
 17 16  2  0  0  0  0
 17 18  1  0  0  0  0
 18 20  2  0  0  0  0
 19 18  1  0  0  0  0
 20 21  1  0  0  0  0
 21 22  1  0  0  0  0
 23 24  1  0  0  0  0
 23 21  2  0  0  0  0
 25 26  1  0  0  0  0
 26 27  2  0  0  0  0
 26  1  1  0  0  0  0
 27 32  1  0  0  0  0
 28 27  1  0  0  0  0
 29 28  2  0  0  0  0
 30 29  1  0  0  0  0
 30 25  2  0  0  0  0
 31 25  1  0  0  0  0
 33 29  1  0  0  0  0
M  END
>  <minimizedAffinity>
-4.6743865

>  <minimizedRMSD>
5.15597582

$$$$
