
 OpenBabel03272501223D

 41 44  0  0  0  0  0  0  0  0999 V2000
   39.2700   33.2350   45.4380 O   0  0  0  0  0  0  0  0  0  0  0  0
   37.0430   32.5270   43.5120 Cl  0  0  0  0  0  0  0  0  0  0  0  0
   38.5600   31.6560   43.6510 C   0  0  0  0  0  0  0  0  0  0  0  0
   39.4490   32.1620   44.6110 C   0  0  0  0  0  0  0  0  0  0  0  0
   40.6450   31.5010   44.7430 C   0  0  0  0  0  0  0  0  0  0  0  0
   41.0080   30.3980   44.0000 C   0  0  0  0  0  0  0  0  0  0  0  0
   40.1220   29.9140   43.0590 C   0  0  0  0  0  0  0  0  0  0  0  0
   38.9140   30.5440   42.8950 C   0  0  0  0  0  0  0  0  0  0  0  0
   41.4110   31.8080   45.4590 H   0  0  0  0  0  0  0  0  0  0  0  0
   41.9540   29.8760   44.1030 H   0  0  0  0  0  0  0  0  0  0  0  0
   40.2820   29.0570   42.4110 H   0  0  0  0  0  0  0  0  0  0  0  0
   38.8330   31.7660   40.0970 Cl  0  0  0  0  0  0  0  0  0  0  0  0
   37.6500   30.6110   40.6650 C   0  0  0  0  0  0  0  0  0  0  0  0
   37.8610   30.1770   41.9570 C   0  0  0  0  0  0  0  0  0  0  0  0
   36.9930   29.2580   42.5270 C   0  0  0  0  0  0  0  0  0  0  0  0
   37.0460   28.8360   43.5330 H   0  0  0  0  0  0  0  0  0  0  0  0
   35.9020   28.7650   41.8030 C   0  0  0  0  0  0  0  0  0  0  0  0
   35.7060   29.2070   40.5130 C   0  0  0  0  0  0  0  0  0  0  0  0
   34.3630   28.6470   39.5190 Cl  0  0  0  0  0  0  0  0  0  0  0  0
   36.5750   30.1230   39.9540 C   0  0  0  0  0  0  0  0  0  0  0  0
   36.4950   30.5210   38.9520 H   0  0  0  0  0  0  0  0  0  0  0  0
   38.3390   32.2310   47.4350 C   0  0  0  0  0  0  0  0  0  0  0  0
   38.1550   32.1140   48.8100 C   0  0  0  0  0  0  0  0  0  0  0  0
   38.8440   33.0430   49.5810 C   0  0  0  0  0  0  0  0  0  0  0  0
   39.6560   34.0100   48.9800 C   0  0  0  0  0  0  0  0  0  0  0  0
   39.7890   34.0650   47.6120 C   0  0  0  0  0  0  0  0  0  0  0  0
   39.1220   33.1620   46.8300 C   0  0  0  0  0  0  0  0  0  0  0  0
   38.7080   32.9600   50.6510 H   0  0  0  0  0  0  0  0  0  0  0  0
   40.1620   34.7010   49.6580 H   0  0  0  0  0  0  0  0  0  0  0  0
   40.4320   34.8360   47.2000 H   0  0  0  0  0  0  0  0  0  0  0  0
   35.9340   31.2060   49.3390 C   0  0  0  0  0  0  0  0  0  0  0  0
   37.3230   31.1190   49.3980 C   0  0  0  0  0  0  0  0  0  0  0  0
   37.8540   30.0000   50.0660 C   0  0  0  0  0  0  0  0  0  0  0  0
   37.0020   29.0880   50.6060 N   0  0  0  0  0  0  0  0  0  0  0  0
   35.6670   29.2240   50.5170 C   0  0  0  0  0  0  0  0  0  0  0  0
   35.1280   30.2800   49.8870 N   0  0  0  0  0  0  0  0  0  0  0  0
   35.4690   32.0550   48.8310 H   0  0  0  0  0  0  0  0  0  0  0  0
   38.9340   29.8830   50.1410 H   0  0  0  0  0  0  0  0  0  0  0  0
   34.9580   28.5140   50.9370 H   0  0  0  0  0  0  0  0  0  0  0  0
   37.6790   31.3330   46.5780 O   0  0  0  0  0  0  0  0  0  0  0  0
   37.9680   30.3700   46.4940 H   0  0  0  0  0  0  0  0  0  0  0  0
  1 27  1  0  0  0  0
  2  3  1  0  0  0  0
  3  4  1  0  0  0  0
  4  5  2  0  0  0  0
  4  1  1  0  0  0  0
  5  9  1  0  0  0  0
  6 10  1  0  0  0  0
  6  5  1  0  0  0  0
  7  6  2  0  0  0  0
  8  7  1  0  0  0  0
  8  3  2  0  0  0  0
 11  7  1  0  0  0  0
 12 13  1  0  0  0  0
 13 14  1  0  0  0  0
 14 15  2  0  0  0  0
 14  8  1  0  0  0  0
 15 16  1  0  0  0  0
 17 15  1  0  0  0  0
 18 17  2  0  0  0  0
 19 18  1  0  0  0  0
 20 18  1  0  0  0  0
 20 13  2  0  0  0  0
 21 20  1  0  0  0  0
 22 23  1  0  0  0  0
 23 32  1  0  0  0  0
 23 24  2  0  0  0  0
 24 28  1  0  0  0  0
 25 24  1  0  0  0  0
 25 29  1  0  0  0  0
 26 25  2  0  0  0  0
 27 22  2  0  0  0  0
 27 26  1  0  0  0  0
 30 26  1  0  0  0  0
 31 32  2  0  0  0  0
 31 36  1  0  0  0  0
 32 33  1  0  0  0  0
 33 38  1  0  0  0  0
 33 34  2  0  0  0  0
 35 34  1  0  0  0  0
 35 39  1  0  0  0  0
 36 35  2  0  0  0  0
 37 31  1  0  0  0  0
 40 22  1  0  0  0  0
 41 40  1  0  0  0  0
M  END
>  <minimizedAffinity>
-5.5475421

>  <minimizedRMSD>
0.698305309

$$$$
