
 OpenBabel03272509503D

 34 36  0  0  0  0  0  0  0  0999 V2000
   37.1290   29.9020   51.6200 C   0  0  0  0  0  0  0  0  0  0  0  0
   37.9500   30.5330   50.6840 C   0  0  0  0  0  0  0  0  0  0  0  0
   37.5240   30.6860   49.3870 C   0  0  0  0  0  0  0  0  0  0  0  0
   36.2860   30.1830   49.1420 N   0  0  0  0  0  0  0  0  0  0  0  0
   35.4950   29.5820   50.0180 C   0  0  0  0  0  0  0  0  0  0  0  0
   35.9310   29.4430   51.2770 N   0  0  0  0  0  0  0  0  0  0  0  0
   37.5140   29.8080   52.6280 H   0  0  0  0  0  0  0  0  0  0  0  0
   38.9060   30.8870   50.9640 H   0  0  0  0  0  0  0  0  0  0  0  0
   38.7810   33.5760   49.5220 Cl  0  0  0  0  0  0  0  0  0  0  0  0
   38.8140   32.5090   48.1490 C   0  0  0  0  0  0  0  0  0  0  0  0
   38.2170   31.2940   48.2660 C   0  0  0  0  0  0  0  0  0  0  0  0
   38.2970   30.5590   47.0990 C   0  0  0  0  0  0  0  0  0  0  0  0
   37.8720   29.5480   46.9950 H   0  0  0  0  0  0  0  0  0  0  0  0
   38.9110   31.0030   45.9510 C   0  0  0  0  0  3  0  0  0  0  0  0
   39.4940   32.2450   45.9120 C   0  0  0  0  0  0  0  0  0  0  0  0
   40.2690   32.7910   44.4420 Cl  0  0  0  0  0  0  0  0  0  0  0  0
   39.4330   33.0000   47.0500 C   0  0  0  0  0  0  0  0  0  0  0  0
   39.8920   33.9730   47.0100 H   0  0  0  0  0  0  0  0  0  0  0  0
   34.2910   29.1710   49.4810 O   0  0  0  0  0  0  0  0  0  0  0  0
   34.2920   28.5400   48.2160 C   0  0  0  0  0  0  0  0  0  0  0  0
   35.3120   28.2720   47.8750 H   0  0  0  0  0  0  0  0  0  0  0  0
   33.9160   29.3090   47.4830 H   0  0  0  0  0  0  0  0  0  0  0  0
   33.3290   27.4000   48.1790 C   0  0  0  0  0  0  0  0  0  0  0  0
   33.4050   26.7490   49.0710 H   0  0  0  0  0  0  0  0  0  0  0  0
   33.5840   26.7640   47.3010 H   0  0  0  0  0  0  0  0  0  0  0  0
   31.9170   27.8510   47.9720 C   0  0  0  0  0  0  0  0  0  0  0  0
   31.0080   27.5630   48.9830 C   0  0  0  0  0  0  0  0  0  0  0  0
   29.6860   27.9390   48.8840 C   0  0  0  0  0  0  0  0  0  0  0  0
   29.2630   28.5890   47.8090 N   0  0  0  0  0  0  0  0  0  0  0  0
   30.1630   28.8650   46.8270 C   0  0  0  0  0  0  0  0  0  0  0  0
   31.4550   28.5120   46.8960 N   0  0  0  0  0  0  0  0  0  0  0  0
   31.3190   27.0330   49.8780 H   0  0  0  0  0  0  0  0  0  0  0  0
   28.9750   27.7160   49.6690 H   0  0  0  0  0  0  0  0  0  0  0  0
   29.9460   29.3930   45.8910 H   0  0  0  0  0  0  0  0  0  0  0  0
  1  7  1  0  0  0  0
  2  8  1  0  0  0  0
  2  1  2  0  0  0  0
  3  2  1  0  0  0  0
  4  3  2  0  0  0  0
  4  5  1  0  0  0  0
  5  6  2  0  0  0  0
  6  1  1  0  0  0  0
 10 11  1  0  0  0  0
 10  9  1  0  0  0  0
 11  3  1  0  0  0  0
 12 11  2  0  0  0  0
 13 12  1  0  0  0  0
 14 12  1  0  0  0  0
 15 14  2  0  0  0  0
 15 17  1  0  0  0  0
 16 15  1  0  0  0  0
 17 10  2  0  0  0  0
 18 17  1  0  0  0  0
 19  5  1  0  0  0  0
 20 19  1  0  0  0  0
 21 20  1  0  0  0  0
 22 20  1  0  0  0  0
 23 20  1  0  0  0  0
 23 24  1  0  0  0  0
 25 23  1  0  0  0  0
 26 23  1  0  0  0  0
 26 27  1  0  0  0  0
 27 32  1  0  0  0  0
 28 27  2  0  0  0  0
 28 33  1  0  0  0  0
 29 28  1  0  0  0  0
 30 31  1  0  0  0  0
 30 29  2  0  0  0  0
 31 26  2  0  0  0  0
 34 30  1  0  0  0  0
M  END
>  <minimizedAffinity>
-6.58726597

>  <minimizedRMSD>
1.26979887

$$$$
