
 OpenBabel03272505143D

 40 43  0  0  0  0  0  0  0  0999 V2000
   37.5630   26.0880   32.0320 S   0  0  0  0  0  0  0  0  0  0  0  0
   38.2240   23.6950   33.9260 Cl  0  0  0  0  0  0  0  0  0  0  0  0
   39.3280   25.0430   33.8840 C   0  0  0  0  0  0  0  0  0  0  0  0
   40.4430   24.9790   34.6950 C   0  0  0  0  0  0  0  0  0  0  0  0
   41.3270   26.0450   34.6700 C   0  0  0  0  0  0  0  0  0  0  0  0
   41.0800   27.1100   33.8600 C   0  0  0  0  0  0  0  0  0  0  0  0
   39.9360   27.1210   33.0600 C   0  0  0  0  0  0  0  0  0  0  0  0
   39.0200   26.1000   33.0360 C   0  0  0  0  0  0  0  0  0  0  0  0
   42.1960   25.9760   35.3150 H   0  0  0  0  0  0  0  0  0  0  0  0
   41.7820   27.9320   33.8560 H   0  0  0  0  0  0  0  0  0  0  0  0
   39.7700   27.9860   32.4260 H   0  0  0  0  0  0  0  0  0  0  0  0
   41.8430   21.8220   35.8780 C   0  0  0  0  0  0  0  0  0  0  0  0
   41.1630   21.5780   37.0920 C   0  0  0  0  0  0  0  0  0  0  0  0
   40.2140   22.5240   37.4920 C   0  0  0  0  0  0  0  0  0  0  0  0
   39.9960   23.6170   36.7020 N   0  0  0  0  0  0  0  0  0  0  0  0
   40.6700   23.7990   35.5590 C   0  0  0  0  0  0  0  0  0  0  0  0
   41.5770   22.9130   35.1600 N   0  0  0  0  0  0  0  0  0  0  0  0
   42.5870   21.1060   35.5390 H   0  0  0  0  0  0  0  0  0  0  0  0
   41.3530   20.7070   37.6990 H   0  0  0  0  0  0  0  0  0  0  0  0
   39.6470   22.4070   38.4190 H   0  0  0  0  0  0  0  0  0  0  0  0
   36.3670   27.5840   34.5350 Cl  0  0  0  0  0  0  0  0  0  0  0  0
   36.4050   28.3370   32.9460 C   0  0  0  0  0  0  0  0  0  0  0  0
   36.9120   27.7540   31.7890 C   0  0  0  0  0  0  0  0  0  0  0  0
   36.8900   28.4370   30.6080 C   0  0  0  0  0  0  0  0  0  0  0  0
   36.3650   29.7060   30.5490 C   0  0  0  0  0  0  0  0  0  0  0  0
   35.8440   30.3400   31.6710 C   0  0  0  0  0  0  0  0  0  0  0  0
   35.8820   29.6300   32.8390 C   0  0  0  0  0  0  0  0  0  0  0  0
   37.3070   27.9070   29.7500 H   0  0  0  0  0  0  0  0  0  0  0  0
   36.3550   30.2290   29.6090 H   0  0  0  0  0  0  0  0  0  0  0  0
   35.4360   31.3390   31.6020 H   0  0  0  0  0  0  0  0  0  0  0  0
   32.9910   29.1600   33.0170 Cl  0  0  0  0  0  0  0  0  0  0  0  0
   33.9590   30.0680   34.1300 C   0  0  0  0  0  0  0  0  0  0  0  0
   35.3350   30.2860   34.0350 C   0  0  0  0  0  0  0  0  0  0  0  0
   36.0200   31.0270   34.9750 C   0  0  0  0  0  0  0  0  0  0  0  0
   37.0820   31.1190   34.7830 H   0  0  0  0  0  0  0  0  0  0  0  0
   35.3350   31.5720   36.0410 C   0  0  0  0  0  3  0  0  0  0  0  0
   33.9720   31.3720   36.1580 C   0  0  0  0  0  0  0  0  0  0  0  0
   33.0940   32.0650   37.5150 Cl  0  0  0  0  0  0  0  0  0  0  0  0
   33.2740   30.6260   35.2130 C   0  0  0  0  0  0  0  0  0  0  0  0
   32.2120   30.5010   35.3550 H   0  0  0  0  0  0  0  0  0  0  0  0
  1  8  1  0  0  0  0
  3  2  1  0  0  0  0
  3  4  1  0  0  0  0
  4 16  1  0  0  0  0
  5  4  2  0  0  0  0
  5  9  1  0  0  0  0
  6  5  1  0  0  0  0
  7  6  2  0  0  0  0
  8  7  1  0  0  0  0
  8  3  2  0  0  0  0
 10  6  1  0  0  0  0
 11  7  1  0  0  0  0
 12 13  1  0  0  0  0
 13 14  2  0  0  0  0
 13 19  1  0  0  0  0
 14 20  1  0  0  0  0
 15 14  1  0  0  0  0
 16 15  2  0  0  0  0
 17 16  1  0  0  0  0
 17 12  2  0  0  0  0
 18 12  1  0  0  0  0
 22 21  1  0  0  0  0
 23  1  1  0  0  0  0
 23 22  2  0  0  0  0
 24 23  1  0  0  0  0
 25 24  2  0  0  0  0
 25 26  1  0  0  0  0
 26 27  2  0  0  0  0
 27 22  1  0  0  0  0
 27 33  1  0  0  0  0
 28 24  1  0  0  0  0
 29 25  1  0  0  0  0
 30 26  1  0  0  0  0
 31 32  1  0  0  0  0
 32 39  1  0  0  0  0
 33 32  2  0  0  0  0
 33 34  1  0  0  0  0
 34 36  2  0  0  0  0
 35 34  1  0  0  0  0
 36 37  1  0  0  0  0
 37 38  1  0  0  0  0
 39 40  1  0  0  0  0
 39 37  2  0  0  0  0
M  END
>  <minimizedAffinity>
-6.58736658

$$$$

 OpenBabel03272505143D

 40 43  0  0  0  0  0  0  0  0999 V2000
   36.6250   26.2810   31.9950 S   0  0  0  0  0  0  0  0  0  0  0  0
   39.0970   25.9820   30.1110 Cl  0  0  0  0  0  0  0  0  0  0  0  0
   38.1680   27.4540   30.0250 C   0  0  0  0  0  0  0  0  0  0  0  0
   38.5770   28.4140   29.1220 C   0  0  0  0  0  0  0  0  0  0  0  0
   37.8460   29.5890   29.0450 C   0  0  0  0  0  0  0  0  0  0  0  0
   36.7610   29.7630   29.8470 C   0  0  0  0  0  0  0  0  0  0  0  0
   36.3920   28.7580   30.7430 C   0  0  0  0  0  0  0  0  0  0  0  0
   37.0710   27.5720   30.8700 C   0  0  0  0  0  0  0  0  0  0  0  0
   38.1850   30.3300   28.3300 H   0  0  0  0  0  0  0  0  0  0  0  0
   36.2050   30.6870   29.7720 H   0  0  0  0  0  0  0  0  0  0  0  0
   35.5220   28.9300   31.3670 H   0  0  0  0  0  0  0  0  0  0  0  0
   42.0620   28.4040   28.0350 C   0  0  0  0  0  0  0  0  0  0  0  0
   42.0250   27.7850   26.7660 C   0  0  0  0  0  0  0  0  0  0  0  0
   40.7740   27.3730   26.2950 C   0  0  0  0  0  0  0  0  0  0  0  0
   39.6710   27.5860   27.0720 N   0  0  0  0  0  0  0  0  0  0  0  0
   39.7640   28.1790   28.2700 C   0  0  0  0  0  0  0  0  0  0  0  0
   40.9430   28.5780   28.7380 N   0  0  0  0  0  0  0  0  0  0  0  0
   43.0190   28.7360   28.4300 H   0  0  0  0  0  0  0  0  0  0  0  0
   42.9100   27.6280   26.1710 H   0  0  0  0  0  0  0  0  0  0  0  0
   40.6630   26.8860   25.3230 H   0  0  0  0  0  0  0  0  0  0  0  0
   38.5720   24.0290   33.0320 Cl  0  0  0  0  0  0  0  0  0  0  0  0
   38.2430   25.4700   33.9860 C   0  0  0  0  0  0  0  0  0  0  0  0
   37.4000   26.5120   33.6090 C   0  0  0  0  0  0  0  0  0  0  0  0
   37.2210   27.5850   34.4330 C   0  0  0  0  0  0  0  0  0  0  0  0
   37.8690   27.6460   35.6430 C   0  0  0  0  0  0  0  0  0  0  0  0
   38.7220   26.6380   36.0740 C   0  0  0  0  0  0  0  0  0  0  0  0
   38.8820   25.5770   35.2260 C   0  0  0  0  0  0  0  0  0  0  0  0
   36.5450   28.3560   34.0610 H   0  0  0  0  0  0  0  0  0  0  0  0
   37.7160   28.5000   36.2810 H   0  0  0  0  0  0  0  0  0  0  0  0
   39.2230   26.7060   37.0310 H   0  0  0  0  0  0  0  0  0  0  0  0
   37.4760   23.7750   37.0650 Cl  0  0  0  0  0  0  0  0  0  0  0  0
   39.1200   23.6360   36.5420 C   0  0  0  0  0  0  0  0  0  0  0  0
   39.7800   24.5010   35.6660 C   0  0  0  0  0  0  0  0  0  0  0  0
   41.0980   24.3070   35.3080 C   0  0  0  0  0  0  0  0  0  0  0  0
   41.4880   25.0490   34.6220 H   0  0  0  0  0  0  0  0  0  0  0  0
   41.7910   23.2320   35.8250 C   0  0  0  0  0  3  0  0  0  0  0  0
   41.1610   22.3610   36.6950 C   0  0  0  0  0  0  0  0  0  0  0  0
   42.0410   20.9910   37.3580 Cl  0  0  0  0  0  0  0  0  0  0  0  0
   39.8330   22.5510   37.0610 C   0  0  0  0  0  0  0  0  0  0  0  0
   39.3920   21.8400   37.7430 H   0  0  0  0  0  0  0  0  0  0  0  0
  1 23  1  0  0  0  0
  3  2  1  0  0  0  0
  3  8  1  0  0  0  0
  4  3  2  0  0  0  0
  5  4  1  0  0  0  0
  5  6  2  0  0  0  0
  6  7  1  0  0  0  0
  7  8  2  0  0  0  0
  7 11  1  0  0  0  0
  8  1  1  0  0  0  0
  9  5  1  0  0  0  0
 10  6  1  0  0  0  0
 12 18  1  0  0  0  0
 12 17  1  0  0  0  0
 13 12  2  0  0  0  0
 14 13  1  0  0  0  0
 14 15  2  0  0  0  0
 15 16  1  0  0  0  0
 16 17  2  0  0  0  0
 16  4  1  0  0  0  0
 19 13  1  0  0  0  0
 20 14  1  0  0  0  0
 21 22  1  0  0  0  0
 22 27  1  0  0  0  0
 23 22  2  0  0  0  0
 23 24  1  0  0  0  0
 24 25  2  0  0  0  0
 25 26  1  0  0  0  0
 25 29  1  0  0  0  0
 26 30  1  0  0  0  0
 27 33  1  0  0  0  0
 27 26  2  0  0  0  0
 28 24  1  0  0  0  0
 32 39  1  0  0  0  0
 32 31  1  0  0  0  0
 33 32  2  0  0  0  0
 34 33  1  0  0  0  0
 34 36  2  0  0  0  0
 35 34  1  0  0  0  0
 36 37  1  0  0  0  0
 37 39  2  0  0  0  0
 37 38  1  0  0  0  0
 39 40  1  0  0  0  0
M  END
>  <minimizedAffinity>
-6.05012751

$$$$

 OpenBabel03272505143D

 40 43  0  0  0  0  0  0  0  0999 V2000
   38.7210   26.6950   30.2980 S   0  0  0  0  0  0  0  0  0  0  0  0
   36.7410   28.2410   32.1520 Cl  0  0  0  0  0  0  0  0  0  0  0  0
   37.2320   28.9950   30.6590 C   0  0  0  0  0  0  0  0  0  0  0  0
   36.7160   30.2440   30.3760 C   0  0  0  0  0  0  0  0  0  0  0  0
   37.1000   30.8520   29.1920 C   0  0  0  0  0  0  0  0  0  0  0  0
   37.9610   30.2160   28.3530 C   0  0  0  0  0  0  0  0  0  0  0  0
   38.4530   28.9530   28.6900 C   0  0  0  0  0  0  0  0  0  0  0  0
   38.1140   28.2940   29.8450 C   0  0  0  0  0  0  0  0  0  0  0  0
   36.6830   31.8320   28.9880 H   0  0  0  0  0  0  0  0  0  0  0  0
   38.2480   30.7080   27.4340 H   0  0  0  0  0  0  0  0  0  0  0  0
   39.1370   28.4750   27.9980 H   0  0  0  0  0  0  0  0  0  0  0  0
   35.5340   32.3460   33.1150 C   0  0  0  0  0  0  0  0  0  0  0  0
   34.1350   32.1560   33.1160 C   0  0  0  0  0  0  0  0  0  0  0  0
   33.6090   31.2880   32.1530 C   0  0  0  0  0  0  0  0  0  0  0  0
   34.4620   30.6790   31.2760 N   0  0  0  0  0  0  0  0  0  0  0  0
   35.7830   30.8960   31.3210 C   0  0  0  0  0  0  0  0  0  0  0  0
   36.3030   31.7180   32.2280 N   0  0  0  0  0  0  0  0  0  0  0  0
   35.9740   33.0160   33.8510 H   0  0  0  0  0  0  0  0  0  0  0  0
   33.4820   32.6480   33.8190 H   0  0  0  0  0  0  0  0  0  0  0  0
   32.5370   31.0890   32.0890 H   0  0  0  0  0  0  0  0  0  0  0  0
   37.8070   24.9470   32.7560 Cl  0  0  0  0  0  0  0  0  0  0  0  0
   39.2390   25.9650   32.8350 C   0  0  0  0  0  0  0  0  0  0  0  0
   39.7160   26.7670   31.8030 C   0  0  0  0  0  0  0  0  0  0  0  0
   40.8430   27.5170   31.9790 C   0  0  0  0  0  0  0  0  0  0  0  0
   41.5160   27.4880   33.1760 C   0  0  0  0  0  0  0  0  0  0  0  0
   41.0890   26.7070   34.2430 C   0  0  0  0  0  0  0  0  0  0  0  0
   39.9570   25.9660   34.0360 C   0  0  0  0  0  0  0  0  0  0  0  0
   41.1480   28.1170   31.1200 H   0  0  0  0  0  0  0  0  0  0  0  0
   42.4030   28.0860   33.2970 H   0  0  0  0  0  0  0  0  0  0  0  0
   41.6340   26.6980   35.1770 H   0  0  0  0  0  0  0  0  0  0  0  0
   38.0560   27.4690   35.6890 Cl  0  0  0  0  0  0  0  0  0  0  0  0
   38.5850   25.8400   35.9480 C   0  0  0  0  0  0  0  0  0  0  0  0
   39.4910   25.1350   35.1530 C   0  0  0  0  0  0  0  0  0  0  0  0
   39.8520   23.8350   35.4410 C   0  0  0  0  0  0  0  0  0  0  0  0
   40.5620   23.4040   34.7460 H   0  0  0  0  0  0  0  0  0  0  0  0
   39.3080   23.2070   36.5420 C   0  0  0  0  0  3  0  0  0  0  0  0
   38.4080   23.8840   37.3460 C   0  0  0  0  0  0  0  0  0  0  0  0
   37.7120   23.0890   38.7510 Cl  0  0  0  0  0  0  0  0  0  0  0  0
   38.0400   25.1950   37.0610 C   0  0  0  0  0  0  0  0  0  0  0  0
   37.3340   25.6740   37.7220 H   0  0  0  0  0  0  0  0  0  0  0  0
  1 23  1  0  0  0  0
  3  2  1  0  0  0  0
  4  3  1  0  0  0  0
  4 16  1  0  0  0  0
  5  4  2  0  0  0  0
  6  7  2  0  0  0  0
  6  5  1  0  0  0  0
  7  8  1  0  0  0  0
  8  1  1  0  0  0  0
  8  3  2  0  0  0  0
  9  5  1  0  0  0  0
 10  6  1  0  0  0  0
 11  7  1  0  0  0  0
 12 13  1  0  0  0  0
 12 18  1  0  0  0  0
 13 19  1  0  0  0  0
 14 13  2  0  0  0  0
 15 16  2  0  0  0  0
 15 14  1  0  0  0  0
 16 17  1  0  0  0  0
 17 12  2  0  0  0  0
 20 14  1  0  0  0  0
 21 22  1  0  0  0  0
 22 27  1  0  0  0  0
 23 24  1  0  0  0  0
 23 22  2  0  0  0  0
 24 25  2  0  0  0  0
 25 29  1  0  0  0  0
 25 26  1  0  0  0  0
 26 30  1  0  0  0  0
 27 26  2  0  0  0  0
 27 33  1  0  0  0  0
 28 24  1  0  0  0  0
 31 32  1  0  0  0  0
 32 39  1  0  0  0  0
 33 34  1  0  0  0  0
 33 32  2  0  0  0  0
 34 36  2  0  0  0  0
 35 34  1  0  0  0  0
 36 37  1  0  0  0  0
 37 38  1  0  0  0  0
 39 37  2  0  0  0  0
 39 40  1  0  0  0  0
M  END
>  <minimizedAffinity>
-5.96071625

$$$$

 OpenBabel03272505143D

 40 43  0  0  0  0  0  0  0  0999 V2000
   38.9100   27.3460   32.2960 S   0  0  0  0  0  0  0  0  0  0  0  0
   39.4890   26.3950   35.2130 Cl  0  0  0  0  0  0  0  0  0  0  0  0
   38.6320   25.3140   34.1470 C   0  0  0  0  0  0  0  0  0  0  0  0
   38.2520   24.0870   34.6550 C   0  0  0  0  0  0  0  0  0  0  0  0
   37.5710   23.2200   33.8170 C   0  0  0  0  0  0  0  0  0  0  0  0
   37.2960   23.5920   32.5370 C   0  0  0  0  0  0  0  0  0  0  0  0
   37.7040   24.8450   32.0770 C   0  0  0  0  0  0  0  0  0  0  0  0
   38.3820   25.7510   32.8520 C   0  0  0  0  0  0  0  0  0  0  0  0
   37.2820   22.2610   34.2340 H   0  0  0  0  0  0  0  0  0  0  0  0
   36.7640   22.8990   31.8990 H   0  0  0  0  0  0  0  0  0  0  0  0
   37.4690   25.1080   31.0510 H   0  0  0  0  0  0  0  0  0  0  0  0
   40.0750   22.7140   37.5040 C   0  0  0  0  0  0  0  0  0  0  0  0
   39.2570   23.0190   38.6140 C   0  0  0  0  0  0  0  0  0  0  0  0
   38.0660   23.7060   38.3590 C   0  0  0  0  0  0  0  0  0  0  0  0
   37.7600   24.0420   37.0710 N   0  0  0  0  0  0  0  0  0  0  0  0
   38.5730   23.7280   36.0540 C   0  0  0  0  0  0  0  0  0  0  0  0
   39.7100   23.0750   36.2740 N   0  0  0  0  0  0  0  0  0  0  0  0
   41.0080   22.1810   37.6680 H   0  0  0  0  0  0  0  0  0  0  0  0
   39.5210   22.7430   39.6220 H   0  0  0  0  0  0  0  0  0  0  0  0
   37.3810   23.9780   39.1650 H   0  0  0  0  0  0  0  0  0  0  0  0
   36.8890   28.1810   34.5650 Cl  0  0  0  0  0  0  0  0  0  0  0  0
   36.6680   28.7040   32.9000 C   0  0  0  0  0  0  0  0  0  0  0  0
   37.5070   28.3840   31.8360 C   0  0  0  0  0  0  0  0  0  0  0  0
   37.2350   28.8490   30.5820 C   0  0  0  0  0  0  0  0  0  0  0  0
   36.1300   29.6350   30.3570 C   0  0  0  0  0  0  0  0  0  0  0  0
   35.2570   29.9870   31.3790 C   0  0  0  0  0  0  0  0  0  0  0  0
   35.5560   29.5070   32.6240 C   0  0  0  0  0  0  0  0  0  0  0  0
   37.9420   28.5520   29.8070 H   0  0  0  0  0  0  0  0  0  0  0  0
   35.9320   29.9920   29.3620 H   0  0  0  0  0  0  0  0  0  0  0  0
   34.3930   30.6080   31.1800 H   0  0  0  0  0  0  0  0  0  0  0  0
   36.2600   32.1450   33.6970 Cl  0  0  0  0  0  0  0  0  0  0  0  0
   34.9680   31.1250   34.2340 C   0  0  0  0  0  0  0  0  0  0  0  0
   34.6420   29.8700   33.7150 C   0  0  0  0  0  0  0  0  0  0  0  0
   33.5900   29.1280   34.2120 C   0  0  0  0  0  0  0  0  0  0  0  0
   33.4450   28.1740   33.7200 H   0  0  0  0  0  0  0  0  0  0  0  0
   32.8330   29.6330   35.2490 C   0  0  0  0  0  3  0  0  0  0  0  0
   33.1350   30.8740   35.7810 C   0  0  0  0  0  0  0  0  0  0  0  0
   32.1750   31.5210   37.1040 Cl  0  0  0  0  0  0  0  0  0  0  0  0
   34.1960   31.6260   35.2850 C   0  0  0  0  0  0  0  0  0  0  0  0
   34.3850   32.5870   35.7380 H   0  0  0  0  0  0  0  0  0  0  0  0
  1  8  1  0  0  0  0
  3  4  1  0  0  0  0
  3  2  1  0  0  0  0
  4 16  1  0  0  0  0
  5  9  1  0  0  0  0
  5  4  2  0  0  0  0
  6  5  1  0  0  0  0
  7  6  2  0  0  0  0
  7  8  1  0  0  0  0
  8  3  2  0  0  0  0
 10  6  1  0  0  0  0
 11  7  1  0  0  0  0
 12 18  1  0  0  0  0
 12 13  1  0  0  0  0
 13 19  1  0  0  0  0
 14 13  2  0  0  0  0
 14 20  1  0  0  0  0
 15 14  1  0  0  0  0
 16 17  1  0  0  0  0
 16 15  2  0  0  0  0
 17 12  2  0  0  0  0
 22 21  1  0  0  0  0
 23  1  1  0  0  0  0
 23 22  2  0  0  0  0
 24 23  1  0  0  0  0
 25 24  2  0  0  0  0
 25 26  1  0  0  0  0
 26 27  2  0  0  0  0
 27 22  1  0  0  0  0
 27 33  1  0  0  0  0
 28 24  1  0  0  0  0
 29 25  1  0  0  0  0
 30 26  1  0  0  0  0
 31 32  1  0  0  0  0
 32 39  1  0  0  0  0
 33 34  1  0  0  0  0
 33 32  2  0  0  0  0
 34 36  2  0  0  0  0
 35 34  1  0  0  0  0
 36 37  1  0  0  0  0
 37 38  1  0  0  0  0
 39 40  1  0  0  0  0
 39 37  2  0  0  0  0
M  END
>  <minimizedAffinity>
-5.94910288

$$$$

 OpenBabel03272505143D

 40 43  0  0  0  0  0  0  0  0999 V2000
   38.2130   26.6920   32.0380 S   0  0  0  0  0  0  0  0  0  0  0  0
   39.6420   23.9520   31.5850 Cl  0  0  0  0  0  0  0  0  0  0  0  0
   37.9030   24.0050   31.4710 C   0  0  0  0  0  0  0  0  0  0  0  0
   37.2470   22.8240   31.1860 C   0  0  0  0  0  0  0  0  0  0  0  0
   35.8660   22.8540   31.0930 C   0  0  0  0  0  0  0  0  0  0  0  0
   35.2000   24.0250   31.2830 C   0  0  0  0  0  0  0  0  0  0  0  0
   35.9150   25.1900   31.5700 C   0  0  0  0  0  0  0  0  0  0  0  0
   37.2820   25.2310   31.6750 C   0  0  0  0  0  0  0  0  0  0  0  0
   35.3700   21.9160   30.8680 H   0  0  0  0  0  0  0  0  0  0  0  0
   34.1220   24.0270   31.2060 H   0  0  0  0  0  0  0  0  0  0  0  0
   35.3520   26.1060   31.7150 H   0  0  0  0  0  0  0  0  0  0  0  0
   38.8060   19.6090   31.9380 C   0  0  0  0  0  0  0  0  0  0  0  0
   39.4170   19.2310   30.7230 C   0  0  0  0  0  0  0  0  0  0  0  0
   39.2810   20.1070   29.6410 C   0  0  0  0  0  0  0  0  0  0  0  0
   38.5750   21.2640   29.8120 N   0  0  0  0  0  0  0  0  0  0  0  0
   38.0150   21.5740   30.9880 C   0  0  0  0  0  0  0  0  0  0  0  0
   38.1310   20.7550   32.0300 N   0  0  0  0  0  0  0  0  0  0  0  0
   38.8930   18.9500   32.7980 H   0  0  0  0  0  0  0  0  0  0  0  0
   39.9690   18.3120   30.6120 H   0  0  0  0  0  0  0  0  0  0  0  0
   39.7250   19.8850   28.6680 H   0  0  0  0  0  0  0  0  0  0  0  0
   36.7310   27.9320   34.5280 Cl  0  0  0  0  0  0  0  0  0  0  0  0
   36.6130   28.6610   32.9310 C   0  0  0  0  0  0  0  0  0  0  0  0
   37.2310   28.1840   31.7790 C   0  0  0  0  0  0  0  0  0  0  0  0
   37.0680   28.8350   30.5910 C   0  0  0  0  0  0  0  0  0  0  0  0
   36.2910   29.9670   30.5200 C   0  0  0  0  0  0  0  0  0  0  0  0
   35.6490   30.4900   31.6360 C   0  0  0  0  0  0  0  0  0  0  0  0
   35.8330   29.8160   32.8120 C   0  0  0  0  0  0  0  0  0  0  0  0
   37.5860   28.3950   29.7380 H   0  0  0  0  0  0  0  0  0  0  0  0
   36.1730   30.4670   29.5750 H   0  0  0  0  0  0  0  0  0  0  0  0
   35.0430   31.3830   31.5590 H   0  0  0  0  0  0  0  0  0  0  0  0
   33.0370   28.9300   32.8830 Cl  0  0  0  0  0  0  0  0  0  0  0  0
   33.8280   29.9400   34.0460 C   0  0  0  0  0  0  0  0  0  0  0  0
   35.1610   30.3560   34.0010 C   0  0  0  0  0  0  0  0  0  0  0  0
   35.7040   31.1640   34.9790 C   0  0  0  0  0  0  0  0  0  0  0  0
   36.7460   31.4120   34.8250 H   0  0  0  0  0  0  0  0  0  0  0  0
   34.9150   31.5780   36.0320 C   0  0  0  0  0  3  0  0  0  0  0  0
   33.5920   31.1810   36.1000 C   0  0  0  0  0  0  0  0  0  0  0  0
   32.5830   31.7060   37.4400 Cl  0  0  0  0  0  0  0  0  0  0  0  0
   33.0380   30.3660   35.1170 C   0  0  0  0  0  0  0  0  0  0  0  0
   32.0020   30.0870   35.2210 H   0  0  0  0  0  0  0  0  0  0  0  0
  3  2  1  0  0  0  0
  3  8  1  0  0  0  0
  4  3  2  0  0  0  0
  5  4  1  0  0  0  0
  5  6  2  0  0  0  0
  6  7  1  0  0  0  0
  7  8  2  0  0  0  0
  7 11  1  0  0  0  0
  8  1  1  0  0  0  0
  9  5  1  0  0  0  0
 10  6  1  0  0  0  0
 12 17  1  0  0  0  0
 12 18  1  0  0  0  0
 13 12  2  0  0  0  0
 14 15  2  0  0  0  0
 14 13  1  0  0  0  0
 15 16  1  0  0  0  0
 16  4  1  0  0  0  0
 16 17  2  0  0  0  0
 19 13  1  0  0  0  0
 20 14  1  0  0  0  0
 22 21  1  0  0  0  0
 23  1  1  0  0  0  0
 23 22  2  0  0  0  0
 24 23  1  0  0  0  0
 25 24  2  0  0  0  0
 25 26  1  0  0  0  0
 26 27  2  0  0  0  0
 27 22  1  0  0  0  0
 27 33  1  0  0  0  0
 28 24  1  0  0  0  0
 29 25  1  0  0  0  0
 30 26  1  0  0  0  0
 31 32  1  0  0  0  0
 32 39  1  0  0  0  0
 33 32  2  0  0  0  0
 33 34  1  0  0  0  0
 34 36  2  0  0  0  0
 35 34  1  0  0  0  0
 36 37  1  0  0  0  0
 37 38  1  0  0  0  0
 39 40  1  0  0  0  0
 39 37  2  0  0  0  0
M  END
>  <minimizedAffinity>
-5.94033527

$$$$

 OpenBabel03272505143D

 40 43  0  0  0  0  0  0  0  0999 V2000
   37.1030   26.4760   31.6940 S   0  0  0  0  0  0  0  0  0  0  0  0
   36.2760   29.3210   30.7080 Cl  0  0  0  0  0  0  0  0  0  0  0  0
   37.7930   28.6650   30.1550 C   0  0  0  0  0  0  0  0  0  0  0  0
   38.5520   29.4440   29.3050 C   0  0  0  0  0  0  0  0  0  0  0  0
   39.7590   28.9330   28.8580 C   0  0  0  0  0  0  0  0  0  0  0  0
   40.1610   27.6970   29.2620 C   0  0  0  0  0  0  0  0  0  0  0  0
   39.3530   26.9520   30.1230 C   0  0  0  0  0  0  0  0  0  0  0  0
   38.1470   27.3980   30.6020 C   0  0  0  0  0  0  0  0  0  0  0  0
   40.3400   29.5600   28.1910 H   0  0  0  0  0  0  0  0  0  0  0  0
   41.1060   27.3160   28.9010 H   0  0  0  0  0  0  0  0  0  0  0  0
   39.7040   25.9710   30.4240 H   0  0  0  0  0  0  0  0  0  0  0  0
   37.0160   32.0520   27.2640 C   0  0  0  0  0  0  0  0  0  0  0  0
   37.1500   33.2220   28.0440 C   0  0  0  0  0  0  0  0  0  0  0  0
   37.7800   33.0920   29.2850 C   0  0  0  0  0  0  0  0  0  0  0  0
   38.2270   31.8610   29.6750 N   0  0  0  0  0  0  0  0  0  0  0  0
   38.0730   30.7840   28.8940 C   0  0  0  0  0  0  0  0  0  0  0  0
   37.4760   30.8840   27.7100 N   0  0  0  0  0  0  0  0  0  0  0  0
   36.5290   32.1190   26.2940 H   0  0  0  0  0  0  0  0  0  0  0  0
   36.7890   34.1830   27.7150 H   0  0  0  0  0  0  0  0  0  0  0  0
   37.9220   33.9510   29.9460 H   0  0  0  0  0  0  0  0  0  0  0  0
   38.9790   24.2330   32.8710 Cl  0  0  0  0  0  0  0  0  0  0  0  0
   38.4620   25.6020   33.8460 C   0  0  0  0  0  0  0  0  0  0  0  0
   37.6370   26.6360   33.4110 C   0  0  0  0  0  0  0  0  0  0  0  0
   37.3010   27.6510   34.2600 C   0  0  0  0  0  0  0  0  0  0  0  0
   37.7720   27.6620   35.5510 C   0  0  0  0  0  0  0  0  0  0  0  0
   38.5990   26.6580   36.0410 C   0  0  0  0  0  0  0  0  0  0  0  0
   38.9180   25.6550   35.1670 C   0  0  0  0  0  0  0  0  0  0  0  0
   36.6520   28.4200   33.8400 H   0  0  0  0  0  0  0  0  0  0  0  0
   37.4970   28.4700   36.2060 H   0  0  0  0  0  0  0  0  0  0  0  0
   38.9590   26.6850   37.0610 H   0  0  0  0  0  0  0  0  0  0  0  0
   37.3980   23.8430   36.9030 Cl  0  0  0  0  0  0  0  0  0  0  0  0
   39.0760   23.7160   36.4980 C   0  0  0  0  0  0  0  0  0  0  0  0
   39.7900   24.5860   35.6700 C   0  0  0  0  0  0  0  0  0  0  0  0
   41.1310   24.4010   35.4060 C   0  0  0  0  0  0  0  0  0  0  0  0
   41.5630   25.1460   34.7490 H   0  0  0  0  0  0  0  0  0  0  0  0
   41.7940   23.3310   35.9700 C   0  0  0  0  0  3  0  0  0  0  0  0
   41.1100   22.4550   36.7950 C   0  0  0  0  0  0  0  0  0  0  0  0
   41.9500   21.0900   37.5180 Cl  0  0  0  0  0  0  0  0  0  0  0  0
   39.7570   22.6360   37.0650 C   0  0  0  0  0  0  0  0  0  0  0  0
   39.2750   21.9220   37.7140 H   0  0  0  0  0  0  0  0  0  0  0  0
  1 23  1  0  0  0  0
  3  8  1  0  0  0  0
  3  2  1  0  0  0  0
  4  3  2  0  0  0  0
  5  6  2  0  0  0  0
  5  4  1  0  0  0  0
  6  7  1  0  0  0  0
  7 11  1  0  0  0  0
  7  8  2  0  0  0  0
  8  1  1  0  0  0  0
  9  5  1  0  0  0  0
 10  6  1  0  0  0  0
 12 17  2  0  0  0  0
 12 13  1  0  0  0  0
 13 14  2  0  0  0  0
 14 15  1  0  0  0  0
 14 20  1  0  0  0  0
 16  4  1  0  0  0  0
 16 15  2  0  0  0  0
 17 16  1  0  0  0  0
 18 12  1  0  0  0  0
 19 13  1  0  0  0  0
 21 22  1  0  0  0  0
 22 27  1  0  0  0  0
 23 22  2  0  0  0  0
 23 24  1  0  0  0  0
 24 25  2  0  0  0  0
 25 26  1  0  0  0  0
 25 29  1  0  0  0  0
 26 30  1  0  0  0  0
 27 33  1  0  0  0  0
 27 26  2  0  0  0  0
 28 24  1  0  0  0  0
 32 31  1  0  0  0  0
 32 39  1  0  0  0  0
 33 32  2  0  0  0  0
 34 33  1  0  0  0  0
 34 36  2  0  0  0  0
 35 34  1  0  0  0  0
 36 37  1  0  0  0  0
 37 39  2  0  0  0  0
 37 38  1  0  0  0  0
 39 40  1  0  0  0  0
M  END
>  <minimizedAffinity>
-5.89092684

$$$$

 OpenBabel03272505143D

 40 43  0  0  0  0  0  0  0  0999 V2000
   34.5210   29.7090   33.2640 S   0  0  0  0  0  0  0  0  0  0  0  0
   34.5700   32.5020   34.6590 Cl  0  0  0  0  0  0  0  0  0  0  0  0
   33.5430   31.2630   35.3280 C   0  0  0  0  0  0  0  0  0  0  0  0
   32.8010   31.5860   36.4460 C   0  0  0  0  0  0  0  0  0  0  0  0
   31.9810   30.6090   36.9870 C   0  0  0  0  0  0  0  0  0  0  0  0
   31.9270   29.3770   36.4130 C   0  0  0  0  0  0  0  0  0  0  0  0
   32.7000   29.1050   35.2820 C   0  0  0  0  0  0  0  0  0  0  0  0
   33.5320   30.0250   34.6960 C   0  0  0  0  0  0  0  0  0  0  0  0
   31.4070   30.8840   37.8660 H   0  0  0  0  0  0  0  0  0  0  0  0
   31.2810   28.6290   36.8510 H   0  0  0  0  0  0  0  0  0  0  0  0
   32.6330   28.1130   34.8500 H   0  0  0  0  0  0  0  0  0  0  0  0
   31.8470   34.9850   37.3780 C   0  0  0  0  0  0  0  0  0  0  0  0
   32.9630   35.4720   38.0920 C   0  0  0  0  0  0  0  0  0  0  0  0
   34.0500   34.6050   38.2450 C   0  0  0  0  0  0  0  0  0  0  0  0
   33.9770   33.3520   37.7040 N   0  0  0  0  0  0  0  0  0  0  0  0
   32.8920   32.9410   37.0360 C   0  0  0  0  0  0  0  0  0  0  0  0
   31.8470   33.7490   36.8790 N   0  0  0  0  0  0  0  0  0  0  0  0
   30.9850   35.6340   37.2420 H   0  0  0  0  0  0  0  0  0  0  0  0
   32.9970   36.4650   38.5090 H   0  0  0  0  0  0  0  0  0  0  0  0
   34.9500   34.9080   38.7840 H   0  0  0  0  0  0  0  0  0  0  0  0
   36.1480   28.4400   30.8800 Cl  0  0  0  0  0  0  0  0  0  0  0  0
   36.6260   28.1900   32.5550 C   0  0  0  0  0  0  0  0  0  0  0  0
   35.9700   28.7100   33.6670 C   0  0  0  0  0  0  0  0  0  0  0  0
   36.4350   28.4490   34.9230 C   0  0  0  0  0  0  0  0  0  0  0  0
   37.5520   27.6710   35.1030 C   0  0  0  0  0  0  0  0  0  0  0  0
   38.2490   27.1250   34.0320 C   0  0  0  0  0  0  0  0  0  0  0  0
   37.7600   27.4040   32.7860 C   0  0  0  0  0  0  0  0  0  0  0  0
   35.8620   28.8940   35.7380 H   0  0  0  0  0  0  0  0  0  0  0  0
   37.9040   27.4750   36.1010 H   0  0  0  0  0  0  0  0  0  0  0  0
   39.1280   26.5140   34.1950 H   0  0  0  0  0  0  0  0  0  0  0  0
   36.7130   24.7380   32.1530 Cl  0  0  0  0  0  0  0  0  0  0  0  0
   37.9940   25.5640   31.3320 C   0  0  0  0  0  0  0  0  0  0  0  0
   38.4850   26.8340   31.6420 C   0  0  0  0  0  0  0  0  0  0  0  0
   39.5130   27.4110   30.9260 C   0  0  0  0  0  0  0  0  0  0  0  0
   39.7970   28.3980   31.2700 H   0  0  0  0  0  0  0  0  0  0  0  0
   40.0780   26.7220   29.8740 C   0  0  0  0  0  3  0  0  0  0  0  0
   39.6110   25.4610   29.5460 C   0  0  0  0  0  0  0  0  0  0  0  0
   40.3290   24.5780   28.2060 Cl  0  0  0  0  0  0  0  0  0  0  0  0
   38.5750   24.8740   30.2640 C   0  0  0  0  0  0  0  0  0  0  0  0
   38.2500   23.8890   29.9640 H   0  0  0  0  0  0  0  0  0  0  0  0
  1 23  1  0  0  0  0
  1  8  1  0  0  0  0
  2  3  1  0  0  0  0
  3  4  1  0  0  0  0
  4  5  2  0  0  0  0
  4 16  1  0  0  0  0
  5  9  1  0  0  0  0
  6 10  1  0  0  0  0
  6  5  1  0  0  0  0
  7  6  2  0  0  0  0
  8  7  1  0  0  0  0
  8  3  2  0  0  0  0
 11  7  1  0  0  0  0
 12 13  1  0  0  0  0
 13 14  2  0  0  0  0
 13 19  1  0  0  0  0
 14 20  1  0  0  0  0
 15 14  1  0  0  0  0
 16 15  2  0  0  0  0
 17 16  1  0  0  0  0
 17 12  2  0  0  0  0
 18 12  1  0  0  0  0
 21 22  1  0  0  0  0
 22 27  2  0  0  0  0
 22 23  1  0  0  0  0
 23 24  2  0  0  0  0
 24 25  1  0  0  0  0
 24 28  1  0  0  0  0
 25 29  1  0  0  0  0
 26 30  1  0  0  0  0
 26 25  2  0  0  0  0
 27 26  1  0  0  0  0
 32 33  1  0  0  0  0
 32 31  1  0  0  0  0
 33 27  1  0  0  0  0
 34 35  1  0  0  0  0
 34 33  2  0  0  0  0
 36 34  1  0  0  0  0
 37 36  2  0  0  0  0
 37 39  1  0  0  0  0
 38 37  1  0  0  0  0
 39 32  2  0  0  0  0
 40 39  1  0  0  0  0
M  END
>  <minimizedAffinity>
-5.86237192

$$$$

 OpenBabel03272505143D

 40 43  0  0  0  0  0  0  0  0999 V2000
   37.4110   27.2880   30.7990 S   0  0  0  0  0  0  0  0  0  0  0  0
   37.3360   24.9430   32.8600 Cl  0  0  0  0  0  0  0  0  0  0  0  0
   38.7880   25.9020   32.7540 C   0  0  0  0  0  0  0  0  0  0  0  0
   39.8330   25.5710   33.5930 C   0  0  0  0  0  0  0  0  0  0  0  0
   40.9910   26.3270   33.5180 C   0  0  0  0  0  0  0  0  0  0  0  0
   41.0690   27.3590   32.6340 C   0  0  0  0  0  0  0  0  0  0  0  0
   39.9810   27.6490   31.8100 C   0  0  0  0  0  0  0  0  0  0  0  0
   38.8060   26.9430   31.8330 C   0  0  0  0  0  0  0  0  0  0  0  0
   41.8000   26.0510   34.1860 H   0  0  0  0  0  0  0  0  0  0  0  0
   41.9820   27.9370   32.5920 H   0  0  0  0  0  0  0  0  0  0  0  0
   40.0780   28.4790   31.1170 H   0  0  0  0  0  0  0  0  0  0  0  0
   39.0060   23.7310   36.6350 C   0  0  0  0  0  0  0  0  0  0  0  0
   39.4120   22.4070   36.3570 C   0  0  0  0  0  0  0  0  0  0  0  0
   39.9750   22.1640   35.1000 C   0  0  0  0  0  0  0  0  0  0  0  0
   40.1030   23.2010   34.2210 N   0  0  0  0  0  0  0  0  0  0  0  0
   39.7010   24.4390   34.5370 C   0  0  0  0  0  0  0  0  0  0  0  0
   39.1620   24.6930   35.7260 N   0  0  0  0  0  0  0  0  0  0  0  0
   38.5640   23.9530   37.6030 H   0  0  0  0  0  0  0  0  0  0  0  0
   39.3000   21.6040   37.0680 H   0  0  0  0  0  0  0  0  0  0  0  0
   40.3130   21.1660   34.8100 H   0  0  0  0  0  0  0  0  0  0  0  0
   36.1590   28.0910   33.5780 Cl  0  0  0  0  0  0  0  0  0  0  0  0
   36.3000   29.2520   32.2630 C   0  0  0  0  0  0  0  0  0  0  0  0
   36.8380   28.9870   31.0070 C   0  0  0  0  0  0  0  0  0  0  0  0
   36.8960   29.9700   30.0620 C   0  0  0  0  0  0  0  0  0  0  0  0
   36.4240   31.2300   30.3410 C   0  0  0  0  0  0  0  0  0  0  0  0
   35.8770   31.5540   31.5760 C   0  0  0  0  0  0  0  0  0  0  0  0
   35.8330   30.5490   32.5020 C   0  0  0  0  0  0  0  0  0  0  0  0
   37.3320   29.6780   29.1060 H   0  0  0  0  0  0  0  0  0  0  0  0
   36.4790   31.9930   29.5840 H   0  0  0  0  0  0  0  0  0  0  0  0
   35.5120   32.5530   31.7750 H   0  0  0  0  0  0  0  0  0  0  0  0
   32.9440   30.0390   32.4930 Cl  0  0  0  0  0  0  0  0  0  0  0  0
   33.8810   30.6360   33.8200 C   0  0  0  0  0  0  0  0  0  0  0  0
   35.2570   30.8750   33.8140 C   0  0  0  0  0  0  0  0  0  0  0  0
   35.9180   31.3540   34.9260 C   0  0  0  0  0  0  0  0  0  0  0  0
   36.9820   31.4940   34.7870 H   0  0  0  0  0  0  0  0  0  0  0  0
   35.2070   31.6060   36.0810 C   0  0  0  0  0  3  0  0  0  0  0  0
   33.8430   31.3770   36.1150 C   0  0  0  0  0  0  0  0  0  0  0  0
   32.9330   31.6980   37.5840 Cl  0  0  0  0  0  0  0  0  0  0  0  0
   33.1710   30.8950   34.9960 C   0  0  0  0  0  0  0  0  0  0  0  0
   32.1070   30.7350   35.0790 H   0  0  0  0  0  0  0  0  0  0  0  0
  1 23  1  0  0  0  0
  1  8  1  0  0  0  0
  3  2  1  0  0  0  0
  3  4  1  0  0  0  0
  4 16  1  0  0  0  0
  5  4  2  0  0  0  0
  5  9  1  0  0  0  0
  6  5  1  0  0  0  0
  7  8  1  0  0  0  0
  7  6  2  0  0  0  0
  8  3  2  0  0  0  0
 10  6  1  0  0  0  0
 11  7  1  0  0  0  0
 12 18  1  0  0  0  0
 13 12  1  0  0  0  0
 13 19  1  0  0  0  0
 14 13  2  0  0  0  0
 15 16  2  0  0  0  0
 15 14  1  0  0  0  0
 16 17  1  0  0  0  0
 17 12  2  0  0  0  0
 20 14  1  0  0  0  0
 22 27  1  0  0  0  0
 22 21  1  0  0  0  0
 23 22  2  0  0  0  0
 24 25  2  0  0  0  0
 24 23  1  0  0  0  0
 25 26  1  0  0  0  0
 26 30  1  0  0  0  0
 26 27  2  0  0  0  0
 27 33  1  0  0  0  0
 28 24  1  0  0  0  0
 29 25  1  0  0  0  0
 31 32  1  0  0  0  0
 32 39  1  0  0  0  0
 33 32  2  0  0  0  0
 33 34  1  0  0  0  0
 34 36  2  0  0  0  0
 35 34  1  0  0  0  0
 36 37  1  0  0  0  0
 37 38  1  0  0  0  0
 39 40  1  0  0  0  0
 39 37  2  0  0  0  0
M  END
>  <minimizedAffinity>
-5.84827757

$$$$

 OpenBabel03272505143D

 40 43  0  0  0  0  0  0  0  0999 V2000
   36.5770   26.7050   31.9210 S   0  0  0  0  0  0  0  0  0  0  0  0
   34.5570   28.9600   32.6850 Cl  0  0  0  0  0  0  0  0  0  0  0  0
   35.7390   29.2960   31.4480 C   0  0  0  0  0  0  0  0  0  0  0  0
   35.7180   30.5490   30.8700 C   0  0  0  0  0  0  0  0  0  0  0  0
   36.6530   30.8260   29.8860 C   0  0  0  0  0  0  0  0  0  0  0  0
   37.5530   29.8740   29.5210 C   0  0  0  0  0  0  0  0  0  0  0  0
   37.5280   28.6230   30.1390 C   0  0  0  0  0  0  0  0  0  0  0  0
   36.6310   28.2820   31.1190 C   0  0  0  0  0  0  0  0  0  0  0  0
   36.6190   31.8160   29.4450 H   0  0  0  0  0  0  0  0  0  0  0  0
   38.2740   30.1110   28.7500 H   0  0  0  0  0  0  0  0  0  0  0  0
   38.2600   27.8870   29.8230 H   0  0  0  0  0  0  0  0  0  0  0  0
   34.2610   33.3730   32.6660 C   0  0  0  0  0  0  0  0  0  0  0  0
   32.9420   33.4540   32.1670 C   0  0  0  0  0  0  0  0  0  0  0  0
   32.5680   32.5160   31.2000 C   0  0  0  0  0  0  0  0  0  0  0  0
   33.4810   31.5840   30.7940 N   0  0  0  0  0  0  0  0  0  0  0  0
   34.7200   31.5530   31.3020 C   0  0  0  0  0  0  0  0  0  0  0  0
   35.0970   32.4360   32.2220 N   0  0  0  0  0  0  0  0  0  0  0  0
   34.5830   34.0890   33.4190 H   0  0  0  0  0  0  0  0  0  0  0  0
   32.2390   34.2000   32.5030 H   0  0  0  0  0  0  0  0  0  0  0  0
   31.5650   32.5130   30.7650 H   0  0  0  0  0  0  0  0  0  0  0  0
   38.1870   24.1920   32.9340 Cl  0  0  0  0  0  0  0  0  0  0  0  0
   37.9940   25.6250   33.9360 C   0  0  0  0  0  0  0  0  0  0  0  0
   37.3030   26.7770   33.5720 C   0  0  0  0  0  0  0  0  0  0  0  0
   37.2200   27.8310   34.4340 C   0  0  0  0  0  0  0  0  0  0  0  0
   37.8170   27.7660   35.6700 C   0  0  0  0  0  0  0  0  0  0  0  0
   38.5210   26.6430   36.0890 C   0  0  0  0  0  0  0  0  0  0  0  0
   38.5870   25.6040   35.2030 C   0  0  0  0  0  0  0  0  0  0  0  0
   36.6600   28.6940   34.0710 H   0  0  0  0  0  0  0  0  0  0  0  0
   37.7420   28.6060   36.3380 H   0  0  0  0  0  0  0  0  0  0  0  0
   38.9840   26.6120   37.0670 H   0  0  0  0  0  0  0  0  0  0  0  0
   41.4180   25.8550   34.4780 Cl  0  0  0  0  0  0  0  0  0  0  0  0
   40.6770   24.5180   35.2910 C   0  0  0  0  0  0  0  0  0  0  0  0
   39.3270   24.4090   35.6310 C   0  0  0  0  0  0  0  0  0  0  0  0
   38.8280   23.2990   36.2800 C   0  0  0  0  0  0  0  0  0  0  0  0
   37.7660   23.3420   36.4850 H   0  0  0  0  0  0  0  0  0  0  0  0
   39.6790   22.2630   36.6060 C   0  0  0  0  0  3  0  0  0  0  0  0
   41.0210   22.3460   36.2800 C   0  0  0  0  0  0  0  0  0  0  0  0
   42.1090   21.0290   36.6930 Cl  0  0  0  0  0  0  0  0  0  0  0  0
   41.5300   23.4630   35.6250 C   0  0  0  0  0  0  0  0  0  0  0  0
   42.5850   23.4740   35.3960 H   0  0  0  0  0  0  0  0  0  0  0  0
  1 23  1  0  0  0  0
  3  2  1  0  0  0  0
  4 16  1  0  0  0  0
  4  3  2  0  0  0  0
  5  4  1  0  0  0  0
  6  5  2  0  0  0  0
  6  7  1  0  0  0  0
  7  8  2  0  0  0  0
  8  3  1  0  0  0  0
  8  1  1  0  0  0  0
  9  5  1  0  0  0  0
 10  6  1  0  0  0  0
 11  7  1  0  0  0  0
 12 18  1  0  0  0  0
 13 19  1  0  0  0  0
 13 12  2  0  0  0  0
 14 13  1  0  0  0  0
 15 14  2  0  0  0  0
 15 16  1  0  0  0  0
 16 17  2  0  0  0  0
 17 12  1  0  0  0  0
 20 14  1  0  0  0  0
 21 22  1  0  0  0  0
 22 27  1  0  0  0  0
 23 22  2  0  0  0  0
 23 24  1  0  0  0  0
 24 25  2  0  0  0  0
 25 26  1  0  0  0  0
 25 29  1  0  0  0  0
 26 30  1  0  0  0  0
 27 33  1  0  0  0  0
 27 26  2  0  0  0  0
 28 24  1  0  0  0  0
 31 32  1  0  0  0  0
 32 39  2  0  0  0  0
 32 33  1  0  0  0  0
 33 34  2  0  0  0  0
 34 35  1  0  0  0  0
 34 36  1  0  0  0  0
 37 36  2  0  0  0  0
 37 38  1  0  0  0  0
 39 37  1  0  0  0  0
 40 39  1  0  0  0  0
M  END
>  <minimizedAffinity>
-5.79050159

$$$$
