
 OpenBabel03272503113D

 46 50  0  0  0  0  0  0  0  0999 V2000
   37.8320   26.5680   35.3240 C   0  0  0  0  0  0  0  0  0  0  0  0
   38.5990   26.9220   36.2530 O   0  0  0  0  0  0  0  0  0  0  0  0
   37.6570   25.1540   35.1870 N   0  0  0  0  0  0  0  0  0  0  0  0
   37.0280   24.8090   34.4390 H   0  0  0  0  0  0  0  0  0  0  0  0
   36.5130   28.5560   35.1600 C   0  0  0  0  0  0  0  0  0  0  0  0
   37.2020   27.5580   34.4850 C   0  0  0  0  0  0  0  0  0  0  0  0
   37.2820   27.5090   33.1190 C   0  0  0  0  0  0  0  0  0  0  0  0
   36.6540   28.4890   32.3660 C   0  0  0  0  0  0  0  0  0  0  0  0
   36.5700   28.6850   31.0400 N   0  0  0  0  0  0  0  0  0  0  0  0
   35.8340   29.7980   30.8650 C   0  0  0  0  0  0  0  0  0  0  0  0
   35.4720   30.2790   32.0590 N   0  0  0  0  0  0  0  0  0  0  0  0
   35.9710   29.4790   33.0310 C   0  0  0  0  0  0  0  0  0  0  0  0
   35.8840   29.5400   34.4030 C   0  0  0  0  0  0  0  0  0  0  0  0
   36.4370   28.6150   36.2310 H   0  0  0  0  0  0  0  0  0  0  0  0
   37.8250   26.7200   32.6250 H   0  0  0  0  0  0  0  0  0  0  0  0
   36.9800   28.1100   30.2590 H   0  0  0  0  0  0  0  0  0  0  0  0
   35.5850   30.2230   29.8920 H   0  0  0  0  0  0  0  0  0  0  0  0
   32.8410   29.4380   34.5470 Cl  0  0  0  0  0  0  0  0  0  0  0  0
   33.7920   30.7070   35.2660 C   0  0  0  0  0  0  0  0  0  0  0  0
   35.1570   30.5930   35.1020 C   0  0  0  0  0  0  0  0  0  0  0  0
   35.9860   31.5740   35.6530 C   0  0  0  0  0  0  0  0  0  0  0  0
   37.0780   31.5690   35.5760 H   0  0  0  0  0  0  0  0  0  0  0  0
   35.3880   32.6200   36.3390 C   0  0  0  0  0  3  0  0  0  0  0  0
   34.0360   32.7630   36.5190 C   0  0  0  0  0  0  0  0  0  0  0  0
   33.3350   34.1060   37.3960 Cl  0  0  0  0  0  0  0  0  0  0  0  0
   33.2540   31.7700   35.9600 C   0  0  0  0  0  0  0  0  0  0  0  0
   32.1850   31.8330   36.0720 H   0  0  0  0  0  0  0  0  0  0  0  0
   40.1140   24.1970   34.5440 F   0  0  0  0  0  0  0  0  0  0  0  0
   39.6510   23.8990   35.7810 C   0  0  0  0  0  0  0  0  0  0  0  0
   40.4110   23.1500   36.6370 C   0  0  0  0  0  0  0  0  0  0  0  0
   39.8780   22.8910   37.8650 C   0  0  0  0  0  0  0  0  0  0  0  0
   38.6450   23.3380   38.2620 C   0  0  0  0  0  0  0  0  0  0  0  0
   37.8970   24.0950   37.3750 C   0  0  0  0  0  0  0  0  0  0  0  0
   38.3980   24.3770   36.1310 C   0  0  0  0  0  0  0  0  0  0  0  0
   40.4680   22.2940   38.5640 H   0  0  0  0  0  0  0  0  0  0  0  0
   38.2200   23.1370   39.2310 H   0  0  0  0  0  0  0  0  0  0  0  0
   36.9070   24.4930   37.6050 H   0  0  0  0  0  0  0  0  0  0  0  0
   44.1220   22.9030   35.9820 C   0  0  0  0  0  0  0  0  0  0  0  0
   42.8810   23.3730   36.4430 C   0  0  0  0  0  0  0  0  0  0  0  0
   41.7230   22.6900   36.1740 C   0  0  0  0  0  0  0  0  0  0  0  0
   41.8300   21.5430   35.4460 N   0  0  0  0  0  0  0  0  0  0  0  0
   43.0220   21.0890   35.0020 C   0  0  0  0  0  0  0  0  0  0  0  0
   44.1410   21.7680   35.2730 N   0  0  0  0  0  0  0  0  0  0  0  0
   44.9720   23.5050   36.2410 H   0  0  0  0  0  0  0  0  0  0  0  0
   42.8100   24.2820   37.0170 H   0  0  0  0  0  0  0  0  0  0  0  0
   43.0580   20.1670   34.4240 H   0  0  0  0  0  0  0  0  0  0  0  0
  1  2  2  0  0  0  0
  3  1  1  0  0  0  0
  3 34  1  0  0  0  0
  4  3  1  0  0  0  0
  5 14  1  0  0  0  0
  6  5  1  0  0  0  0
  6  1  1  0  0  0  0
  7  6  2  0  0  0  0
  8 12  2  0  0  0  0
  8  7  1  0  0  0  0
  9  8  1  0  0  0  0
 10  9  1  0  0  0  0
 10 11  2  0  0  0  0
 11 12  1  0  0  0  0
 12 13  1  0  0  0  0
 13 20  1  0  0  0  0
 13  5  2  0  0  0  0
 15  7  1  0  0  0  0
 16  9  1  0  0  0  0
 17 10  1  0  0  0  0
 18 19  1  0  0  0  0
 19 26  1  0  0  0  0
 20 19  2  0  0  0  0
 20 21  1  0  0  0  0
 21 23  2  0  0  0  0
 22 21  1  0  0  0  0
 23 24  1  0  0  0  0
 24 25  1  0  0  0  0
 26 27  1  0  0  0  0
 26 24  2  0  0  0  0
 28 29  1  0  0  0  0
 29 34  2  0  0  0  0
 29 30  1  0  0  0  0
 30 31  2  0  0  0  0
 31 32  1  0  0  0  0
 31 35  1  0  0  0  0
 32 36  1  0  0  0  0
 33 37  1  0  0  0  0
 33 32  2  0  0  0  0
 34 33  1  0  0  0  0
 38 44  1  0  0  0  0
 38 39  1  0  0  0  0
 39 45  1  0  0  0  0
 40 39  2  0  0  0  0
 40 30  1  0  0  0  0
 41 40  1  0  0  0  0
 42 43  1  0  0  0  0
 42 41  2  0  0  0  0
 43 38  2  0  0  0  0
 46 42  1  0  0  0  0
M  END
>  <minimizedAffinity>
-7.74049044

$$$$

 OpenBabel03272503113D

 46 50  0  0  0  0  0  0  0  0999 V2000
   37.9070   26.4230   35.1860 C   0  0  0  0  0  0  0  0  0  0  0  0
   38.6120   26.8450   36.1350 O   0  0  0  0  0  0  0  0  0  0  0  0
   37.7490   25.0010   35.1310 N   0  0  0  0  0  0  0  0  0  0  0  0
   37.1700   24.6020   34.3710 H   0  0  0  0  0  0  0  0  0  0  0  0
   36.2870   28.1270   34.7470 C   0  0  0  0  0  0  0  0  0  0  0  0
   37.3220   27.3490   34.2470 C   0  0  0  0  0  0  0  0  0  0  0  0
   37.7640   27.4480   32.9550 C   0  0  0  0  0  0  0  0  0  0  0  0
   37.1620   28.3570   32.0990 C   0  0  0  0  0  0  0  0  0  0  0  0
   37.3870   28.6610   30.8100 N   0  0  0  0  0  0  0  0  0  0  0  0
   36.5050   29.6240   30.4850 C   0  0  0  0  0  0  0  0  0  0  0  0
   35.7510   29.9090   31.5530 N   0  0  0  0  0  0  0  0  0  0  0  0
   36.1360   29.1300   32.5900 C   0  0  0  0  0  0  0  0  0  0  0  0
   35.6840   29.0400   33.8870 C   0  0  0  0  0  0  0  0  0  0  0  0
   35.9240   28.0670   35.7580 H   0  0  0  0  0  0  0  0  0  0  0  0
   38.5700   26.8290   32.5970 H   0  0  0  0  0  0  0  0  0  0  0  0
   38.0980   28.2530   30.1490 H   0  0  0  0  0  0  0  0  0  0  0  0
   36.4340   30.0850   29.4990 H   0  0  0  0  0  0  0  0  0  0  0  0
   36.3010   31.3700   35.7530 Cl  0  0  0  0  0  0  0  0  0  0  0  0
   34.6890   30.9460   35.2490 C   0  0  0  0  0  0  0  0  0  0  0  0
   34.5960   29.8620   34.4020 C   0  0  0  0  0  0  0  0  0  0  0  0
   33.3330   29.4620   33.9550 C   0  0  0  0  0  0  0  0  0  0  0  0
   33.1590   28.6170   33.2830 H   0  0  0  0  0  0  0  0  0  0  0  0
   32.2320   30.1830   34.3910 C   0  0  0  0  0  3  0  0  0  0  0  0
   32.2900   31.2640   35.2320 C   0  0  0  0  0  0  0  0  0  0  0  0
   30.8630   32.1380   35.7500 Cl  0  0  0  0  0  0  0  0  0  0  0  0
   33.5570   31.6250   35.6490 C   0  0  0  0  0  0  0  0  0  0  0  0
   33.6600   32.4680   36.3110 H   0  0  0  0  0  0  0  0  0  0  0  0
   40.2510   24.0380   34.7060 F   0  0  0  0  0  0  0  0  0  0  0  0
   39.7130   23.8120   35.9290 C   0  0  0  0  0  0  0  0  0  0  0  0
   40.4240   23.1290   36.8770 C   0  0  0  0  0  0  0  0  0  0  0  0
   39.8160   22.9400   38.0830 C   0  0  0  0  0  0  0  0  0  0  0  0
   38.5570   23.3960   38.3720 C   0  0  0  0  0  0  0  0  0  0  0  0
   37.8590   24.0840   37.3930 C   0  0  0  0  0  0  0  0  0  0  0  0
   38.4360   24.2950   36.1680 C   0  0  0  0  0  0  0  0  0  0  0  0
   40.3660   22.3970   38.8540 H   0  0  0  0  0  0  0  0  0  0  0  0
   38.0720   23.2500   39.3230 H   0  0  0  0  0  0  0  0  0  0  0  0
   36.8530   24.4830   37.5350 H   0  0  0  0  0  0  0  0  0  0  0  0
   43.3300   20.9340   35.8770 C   0  0  0  0  0  0  0  0  0  0  0  0
   42.0300   21.3520   36.2060 C   0  0  0  0  0  0  0  0  0  0  0  0
   41.7670   22.6580   36.5270 C   0  0  0  0  0  0  0  0  0  0  0  0
   42.8160   23.5270   36.5100 N   0  0  0  0  0  0  0  0  0  0  0  0
   44.0670   23.1290   36.1930 C   0  0  0  0  0  0  0  0  0  0  0  0
   44.3050   21.8510   35.8840 N   0  0  0  0  0  0  0  0  0  0  0  0
   43.4380   19.8920   35.6410 H   0  0  0  0  0  0  0  0  0  0  0  0
   41.2080   20.6540   36.2170 H   0  0  0  0  0  0  0  0  0  0  0  0
   44.8740   23.8600   36.1940 H   0  0  0  0  0  0  0  0  0  0  0  0
  1  2  2  0  0  0  0
  3  1  1  0  0  0  0
  3 34  1  0  0  0  0
  4  3  1  0  0  0  0
  5 14  1  0  0  0  0
  6  5  1  0  0  0  0
  6  1  1  0  0  0  0
  7  6  2  0  0  0  0
  8 12  2  0  0  0  0
  8  7  1  0  0  0  0
  9  8  1  0  0  0  0
 10  9  1  0  0  0  0
 10 11  2  0  0  0  0
 11 12  1  0  0  0  0
 12 13  1  0  0  0  0
 13 20  1  0  0  0  0
 13  5  2  0  0  0  0
 15  7  1  0  0  0  0
 16  9  1  0  0  0  0
 17 10  1  0  0  0  0
 19 26  1  0  0  0  0
 19 18  1  0  0  0  0
 20 19  2  0  0  0  0
 21 23  2  0  0  0  0
 21 20  1  0  0  0  0
 22 21  1  0  0  0  0
 23 24  1  0  0  0  0
 24 26  2  0  0  0  0
 24 25  1  0  0  0  0
 26 27  1  0  0  0  0
 28 29  1  0  0  0  0
 29 34  2  0  0  0  0
 29 30  1  0  0  0  0
 30 31  2  0  0  0  0
 31 32  1  0  0  0  0
 31 35  1  0  0  0  0
 32 36  1  0  0  0  0
 33 37  1  0  0  0  0
 33 32  2  0  0  0  0
 34 33  1  0  0  0  0
 38 43  2  0  0  0  0
 38 39  1  0  0  0  0
 39 45  1  0  0  0  0
 39 40  2  0  0  0  0
 40 30  1  0  0  0  0
 41 40  1  0  0  0  0
 42 46  1  0  0  0  0
 42 41  2  0  0  0  0
 43 42  1  0  0  0  0
 44 38  1  0  0  0  0
M  END
>  <minimizedAffinity>
-7.58124399

$$$$

 OpenBabel03272503113D

 46 50  0  0  0  0  0  0  0  0999 V2000
   35.3580   30.7330   33.2030 C   0  0  0  0  0  0  0  0  0  0  0  0
   34.8250   31.8640   33.0870 O   0  0  0  0  0  0  0  0  0  0  0  0
   35.2980   30.1660   34.5160 N   0  0  0  0  0  0  0  0  0  0  0  0
   35.7170   29.2300   34.6640 H   0  0  0  0  0  0  0  0  0  0  0  0
   36.0200   28.7130   32.1090 C   0  0  0  0  0  0  0  0  0  0  0  0
   35.9710   30.0980   32.0620 C   0  0  0  0  0  0  0  0  0  0  0  0
   36.4680   30.8210   31.0100 C   0  0  0  0  0  0  0  0  0  0  0  0
   37.0460   30.1540   29.9420 C   0  0  0  0  0  0  0  0  0  0  0  0
   37.6020   30.5970   28.8020 N   0  0  0  0  0  0  0  0  0  0  0  0
   38.0050   29.5060   28.1240 C   0  0  0  0  0  0  0  0  0  0  0  0
   37.7020   28.4120   28.8310 N   0  0  0  0  0  0  0  0  0  0  0  0
   37.0970   28.7810   29.9850 C   0  0  0  0  0  0  0  0  0  0  0  0
   36.6010   28.0440   31.0360 C   0  0  0  0  0  0  0  0  0  0  0  0
   35.6370   28.1250   32.9250 H   0  0  0  0  0  0  0  0  0  0  0  0
   36.4140   31.8970   31.0040 H   0  0  0  0  0  0  0  0  0  0  0  0
   37.7210   31.5880   28.4660 H   0  0  0  0  0  0  0  0  0  0  0  0
   38.4970   29.5350   27.1510 H   0  0  0  0  0  0  0  0  0  0  0  0
   39.2790   26.6460   31.4450 Cl  0  0  0  0  0  0  0  0  0  0  0  0
   37.7730   25.7940   31.2510 C   0  0  0  0  0  0  0  0  0  0  0  0
   36.6580   26.5880   31.0760 C   0  0  0  0  0  0  0  0  0  0  0  0
   35.4120   25.9750   30.9140 C   0  0  0  0  0  0  0  0  0  0  0  0
   34.4740   26.5190   30.7700 H   0  0  0  0  0  0  0  0  0  0  0  0
   35.3630   24.5890   30.9370 C   0  0  0  0  0  3  0  0  0  0  0  0
   36.4500   23.7720   31.1090 C   0  0  0  0  0  0  0  0  0  0  0  0
   36.3280   22.0250   31.1300 Cl  0  0  0  0  0  0  0  0  0  0  0  0
   37.6600   24.4200   31.2650 C   0  0  0  0  0  0  0  0  0  0  0  0
   38.5480   23.8250   31.4040 H   0  0  0  0  0  0  0  0  0  0  0  0
   32.5980   30.0970   34.7800 F   0  0  0  0  0  0  0  0  0  0  0  0
   33.2670   30.9420   35.6010 C   0  0  0  0  0  0  0  0  0  0  0  0
   32.5820   31.7060   36.5050 C   0  0  0  0  0  0  0  0  0  0  0  0
   33.3240   32.5330   37.2960 C   0  0  0  0  0  0  0  0  0  0  0  0
   34.6900   32.6240   37.2220 C   0  0  0  0  0  0  0  0  0  0  0  0
   35.3570   31.8370   36.2970 C   0  0  0  0  0  0  0  0  0  0  0  0
   34.6470   30.9940   35.4840 C   0  0  0  0  0  0  0  0  0  0  0  0
   32.7980   33.1530   38.0250 H   0  0  0  0  0  0  0  0  0  0  0  0
   35.2800   33.2740   37.8450 H   0  0  0  0  0  0  0  0  0  0  0  0
   36.4410   31.8430   36.1680 H   0  0  0  0  0  0  0  0  0  0  0  0
   28.8910   32.5040   36.4920 C   0  0  0  0  0  0  0  0  0  0  0  0
   30.2860   32.6610   36.4410 C   0  0  0  0  0  0  0  0  0  0  0  0
   31.1230   31.5810   36.5520 C   0  0  0  0  0  0  0  0  0  0  0  0
   30.5450   30.3580   36.7110 N   0  0  0  0  0  0  0  0  0  0  0  0
   29.2040   30.2040   36.7590 C   0  0  0  0  0  0  0  0  0  0  0  0
   28.4030   31.2680   36.6500 N   0  0  0  0  0  0  0  0  0  0  0  0
   28.3180   33.4070   36.3970 H   0  0  0  0  0  0  0  0  0  0  0  0
   30.7320   33.6350   36.3160 H   0  0  0  0  0  0  0  0  0  0  0  0
   28.7870   29.2060   36.8870 H   0  0  0  0  0  0  0  0  0  0  0  0
  1  3  1  0  0  0  0
  2  1  2  0  0  0  0
  3  4  1  0  0  0  0
  3 34  1  0  0  0  0
  5 14  1  0  0  0  0
  6  5  1  0  0  0  0
  6  1  1  0  0  0  0
  7  6  2  0  0  0  0
  8 12  2  0  0  0  0
  8  7  1  0  0  0  0
  9  8  1  0  0  0  0
 10  9  1  0  0  0  0
 10 11  2  0  0  0  0
 11 12  1  0  0  0  0
 12 13  1  0  0  0  0
 13 20  1  0  0  0  0
 13  5  2  0  0  0  0
 15  7  1  0  0  0  0
 16  9  1  0  0  0  0
 17 10  1  0  0  0  0
 19 26  1  0  0  0  0
 19 18  1  0  0  0  0
 20 19  2  0  0  0  0
 21 23  2  0  0  0  0
 21 20  1  0  0  0  0
 22 21  1  0  0  0  0
 23 24  1  0  0  0  0
 24 25  1  0  0  0  0
 24 26  2  0  0  0  0
 26 27  1  0  0  0  0
 28 29  1  0  0  0  0
 29 30  1  0  0  0  0
 30 40  1  0  0  0  0
 30 31  2  0  0  0  0
 31 35  1  0  0  0  0
 32 31  1  0  0  0  0
 32 36  1  0  0  0  0
 33 32  2  0  0  0  0
 34 29  2  0  0  0  0
 34 33  1  0  0  0  0
 37 33  1  0  0  0  0
 38 43  1  0  0  0  0
 39 38  2  0  0  0  0
 39 40  1  0  0  0  0
 40 41  2  0  0  0  0
 41 42  1  0  0  0  0
 42 46  1  0  0  0  0
 43 42  2  0  0  0  0
 44 38  1  0  0  0  0
 45 39  1  0  0  0  0
M  END
>  <minimizedAffinity>
-7.12681007

$$$$

 OpenBabel03272503113D

 46 50  0  0  0  0  0  0  0  0999 V2000
   37.0240   27.4670   34.1330 C   0  0  0  0  0  0  0  0  0  0  0  0
   37.0280   26.4230   33.4360 O   0  0  0  0  0  0  0  0  0  0  0  0
   37.8040   27.4010   35.3310 N   0  0  0  0  0  0  0  0  0  0  0  0
   37.8400   28.2400   35.9380 H   0  0  0  0  0  0  0  0  0  0  0  0
   35.8900   29.4880   34.7220 C   0  0  0  0  0  0  0  0  0  0  0  0
   36.2700   28.6210   33.7080 C   0  0  0  0  0  0  0  0  0  0  0  0
   35.9550   28.8380   32.3930 C   0  0  0  0  0  0  0  0  0  0  0  0
   35.2270   29.9650   32.0460 C   0  0  0  0  0  0  0  0  0  0  0  0
   34.7870   30.4200   30.8610 N   0  0  0  0  0  0  0  0  0  0  0  0
   34.1310   31.5680   31.1120 C   0  0  0  0  0  0  0  0  0  0  0  0
   34.1660   31.8170   32.4260 N   0  0  0  0  0  0  0  0  0  0  0  0
   34.8480   30.8270   33.0480 C   0  0  0  0  0  0  0  0  0  0  0  0
   35.1590   30.6200   34.3730 C   0  0  0  0  0  0  0  0  0  0  0  0
   36.1260   29.3390   35.7610 H   0  0  0  0  0  0  0  0  0  0  0  0
   36.2650   28.1450   31.6290 H   0  0  0  0  0  0  0  0  0  0  0  0
   34.9080   29.9960   29.9040 H   0  0  0  0  0  0  0  0  0  0  0  0
   33.6540   32.1830   30.3480 H   0  0  0  0  0  0  0  0  0  0  0  0
   32.6010   30.0870   35.9400 Cl  0  0  0  0  0  0  0  0  0  0  0  0
   33.6380   31.4530   36.2360 C   0  0  0  0  0  0  0  0  0  0  0  0
   34.7550   31.5380   35.4310 C   0  0  0  0  0  0  0  0  0  0  0  0
   35.6360   32.6080   35.6100 C   0  0  0  0  0  0  0  0  0  0  0  0
   36.5460   32.7590   35.0220 H   0  0  0  0  0  0  0  0  0  0  0  0
   35.3370   33.5370   36.5960 C   0  0  0  0  0  3  0  0  0  0  0  0
   34.2370   33.4830   37.4110 C   0  0  0  0  0  0  0  0  0  0  0  0
   33.9100   34.6860   38.6410 Cl  0  0  0  0  0  0  0  0  0  0  0  0
   33.3940   32.4080   37.2000 C   0  0  0  0  0  0  0  0  0  0  0  0
   32.5140   32.3160   37.8150 H   0  0  0  0  0  0  0  0  0  0  0  0
   40.3110   26.9800   34.3820 F   0  0  0  0  0  0  0  0  0  0  0  0
   39.7320   25.9510   35.0460 C   0  0  0  0  0  0  0  0  0  0  0  0
   40.4090   24.7730   35.2110 C   0  0  0  0  0  0  0  0  0  0  0  0
   39.7610   23.7830   35.8900 C   0  0  0  0  0  0  0  0  0  0  0  0
   38.4960   23.9200   36.3990 C   0  0  0  0  0  0  0  0  0  0  0  0
   37.8350   25.1240   36.2170 C   0  0  0  0  0  0  0  0  0  0  0  0
   38.4520   26.1430   35.5400 C   0  0  0  0  0  0  0  0  0  0  0  0
   40.2820   22.8350   36.0330 H   0  0  0  0  0  0  0  0  0  0  0  0
   37.9810   23.1420   36.9360 H   0  0  0  0  0  0  0  0  0  0  0  0
   36.8280   25.3230   36.5880 H   0  0  0  0  0  0  0  0  0  0  0  0
   44.1640   24.8110   34.8200 C   0  0  0  0  0  0  0  0  0  0  0  0
   42.8850   24.9210   35.3890 C   0  0  0  0  0  0  0  0  0  0  0  0
   41.7590   24.6670   34.6510 C   0  0  0  0  0  0  0  0  0  0  0  0
   41.9350   24.3030   33.3490 N   0  0  0  0  0  0  0  0  0  0  0  0
   43.1640   24.1960   32.8000 C   0  0  0  0  0  0  0  0  0  0  0  0
   44.2510   24.4480   33.5340 N   0  0  0  0  0  0  0  0  0  0  0  0
   44.9860   25.0300   35.4760 H   0  0  0  0  0  0  0  0  0  0  0  0
   42.7590   25.2100   36.4200 H   0  0  0  0  0  0  0  0  0  0  0  0
   43.2550   23.9020   31.7550 H   0  0  0  0  0  0  0  0  0  0  0  0
  1  3  1  0  0  0  0
  2  1  2  0  0  0  0
  3 34  1  0  0  0  0
  3  4  1  0  0  0  0
  5 14  1  0  0  0  0
  6  1  1  0  0  0  0
  6  5  2  0  0  0  0
  7  6  1  0  0  0  0
  8  7  2  0  0  0  0
  8 12  1  0  0  0  0
  9 10  1  0  0  0  0
  9  8  1  0  0  0  0
 10 11  2  0  0  0  0
 11 12  1  0  0  0  0
 12 13  2  0  0  0  0
 13  5  1  0  0  0  0
 13 20  1  0  0  0  0
 15  7  1  0  0  0  0
 16  9  1  0  0  0  0
 17 10  1  0  0  0  0
 18 19  1  0  0  0  0
 19 26  1  0  0  0  0
 20 21  1  0  0  0  0
 20 19  2  0  0  0  0
 21 23  2  0  0  0  0
 22 21  1  0  0  0  0
 23 24  1  0  0  0  0
 24 25  1  0  0  0  0
 26 24  2  0  0  0  0
 26 27  1  0  0  0  0
 28 29  1  0  0  0  0
 29 30  2  0  0  0  0
 29 34  1  0  0  0  0
 30 31  1  0  0  0  0
 31 35  1  0  0  0  0
 31 32  2  0  0  0  0
 32 36  1  0  0  0  0
 33 32  1  0  0  0  0
 33 37  1  0  0  0  0
 34 33  2  0  0  0  0
 38 39  1  0  0  0  0
 38 44  1  0  0  0  0
 39 45  1  0  0  0  0
 40 30  1  0  0  0  0
 40 39  2  0  0  0  0
 41 40  1  0  0  0  0
 42 41  2  0  0  0  0
 42 43  1  0  0  0  0
 43 38  2  0  0  0  0
 46 42  1  0  0  0  0
M  END
>  <minimizedAffinity>
-7.05041599

$$$$

 OpenBabel03272503113D

 46 50  0  0  0  0  0  0  0  0999 V2000
   36.4890   25.8530   32.1370 C   0  0  0  0  0  0  0  0  0  0  0  0
   35.3740   26.1990   31.6730 O   0  0  0  0  0  0  0  0  0  0  0  0
   37.3250   26.9300   32.5750 N   0  0  0  0  0  0  0  0  0  0  0  0
   38.2530   26.6970   32.9730 H   0  0  0  0  0  0  0  0  0  0  0  0
   37.8400   24.1410   33.1170 C   0  0  0  0  0  0  0  0  0  0  0  0
   36.8480   24.4580   32.1990 C   0  0  0  0  0  0  0  0  0  0  0  0
   36.2470   23.5180   31.4050 C   0  0  0  0  0  0  0  0  0  0  0  0
   36.6360   22.1910   31.5100 C   0  0  0  0  0  0  0  0  0  0  0  0
   36.2270   21.0830   30.8710 N   0  0  0  0  0  0  0  0  0  0  0  0
   36.9490   20.0640   31.3720 C   0  0  0  0  0  0  0  0  0  0  0  0
   37.7870   20.5350   32.3030 N   0  0  0  0  0  0  0  0  0  0  0  0
   37.6180   21.8730   32.4180 C   0  0  0  0  0  0  0  0  0  0  0  0
   38.2290   22.8080   33.2220 C   0  0  0  0  0  0  0  0  0  0  0  0
   38.3250   24.8610   33.7510 H   0  0  0  0  0  0  0  0  0  0  0  0
   35.4800   23.7960   30.7020 H   0  0  0  0  0  0  0  0  0  0  0  0
   35.4930   20.9850   30.1220 H   0  0  0  0  0  0  0  0  0  0  0  0
   36.8500   19.0250   31.0550 H   0  0  0  0  0  0  0  0  0  0  0  0
   37.5020   22.3800   36.1510 Cl  0  0  0  0  0  0  0  0  0  0  0  0
   39.1240   22.2360   35.5350 C   0  0  0  0  0  0  0  0  0  0  0  0
   39.2700   22.4650   34.1830 C   0  0  0  0  0  0  0  0  0  0  0  0
   40.5440   22.3670   33.6160 C   0  0  0  0  0  0  0  0  0  0  0  0
   40.7580   22.5300   32.5550 H   0  0  0  0  0  0  0  0  0  0  0  0
   41.6030   22.0440   34.4510 C   0  0  0  0  0  3  0  0  0  0  0  0
   41.4930   21.8120   35.7970 C   0  0  0  0  0  0  0  0  0  0  0  0
   42.8670   21.4070   36.8040 Cl  0  0  0  0  0  0  0  0  0  0  0  0
   40.2160   21.9180   36.3150 C   0  0  0  0  0  0  0  0  0  0  0  0
   40.0720   21.7450   37.3680 H   0  0  0  0  0  0  0  0  0  0  0  0
   36.1650   28.2070   34.6700 F   0  0  0  0  0  0  0  0  0  0  0  0
   36.1630   28.8610   33.4830 C   0  0  0  0  0  0  0  0  0  0  0  0
   35.5950   30.1010   33.3840 C   0  0  0  0  0  0  0  0  0  0  0  0
   35.6320   30.6960   32.1580 C   0  0  0  0  0  0  0  0  0  0  0  0
   36.1990   30.1160   31.0530 C   0  0  0  0  0  0  0  0  0  0  0  0
   36.7660   28.8590   31.1830 C   0  0  0  0  0  0  0  0  0  0  0  0
   36.7500   28.2270   32.3990 C   0  0  0  0  0  0  0  0  0  0  0  0
   35.1840   31.6870   32.0550 H   0  0  0  0  0  0  0  0  0  0  0  0
   36.2300   30.5810   30.0830 H   0  0  0  0  0  0  0  0  0  0  0  0
   37.2400   28.3200   30.3600 H   0  0  0  0  0  0  0  0  0  0  0  0
   35.1220   31.9700   36.6310 C   0  0  0  0  0  0  0  0  0  0  0  0
   35.7260   31.4240   35.4870 C   0  0  0  0  0  0  0  0  0  0  0  0
   34.9990   30.6870   34.5880 C   0  0  0  0  0  0  0  0  0  0  0  0
   33.6740   30.5120   34.8520 N   0  0  0  0  0  0  0  0  0  0  0  0
   33.0910   31.0360   35.9510 C   0  0  0  0  0  0  0  0  0  0  0  0
   33.8150   31.7510   36.8170 N   0  0  0  0  0  0  0  0  0  0  0  0
   35.7710   32.5310   37.2770 H   0  0  0  0  0  0  0  0  0  0  0  0
   36.7760   31.5690   35.2890 H   0  0  0  0  0  0  0  0  0  0  0  0
   32.0280   30.8690   36.1200 H   0  0  0  0  0  0  0  0  0  0  0  0
  1  6  1  0  0  0  0
  1  3  1  0  0  0  0
  2  1  2  0  0  0  0
  3  4  1  0  0  0  0
  5 13  1  0  0  0  0
  5 14  1  0  0  0  0
  6  5  2  0  0  0  0
  7  8  2  0  0  0  0
  7  6  1  0  0  0  0
  8 12  1  0  0  0  0
  9 10  1  0  0  0  0
  9  8  1  0  0  0  0
 10 11  2  0  0  0  0
 11 12  1  0  0  0  0
 12 13  2  0  0  0  0
 13 20  1  0  0  0  0
 15  7  1  0  0  0  0
 16  9  1  0  0  0  0
 17 10  1  0  0  0  0
 19 18  1  0  0  0  0
 19 26  1  0  0  0  0
 20 19  2  0  0  0  0
 21 20  1  0  0  0  0
 21 23  2  0  0  0  0
 22 21  1  0  0  0  0
 23 24  1  0  0  0  0
 24 26  2  0  0  0  0
 24 25  1  0  0  0  0
 26 27  1  0  0  0  0
 29 28  1  0  0  0  0
 30 29  1  0  0  0  0
 30 40  1  0  0  0  0
 31 30  2  0  0  0  0
 32 33  2  0  0  0  0
 32 31  1  0  0  0  0
 33 34  1  0  0  0  0
 34  3  1  0  0  0  0
 34 29  2  0  0  0  0
 35 31  1  0  0  0  0
 36 32  1  0  0  0  0
 37 33  1  0  0  0  0
 38 43  1  0  0  0  0
 38 44  1  0  0  0  0
 39 38  2  0  0  0  0
 40 41  2  0  0  0  0
 40 39  1  0  0  0  0
 41 42  1  0  0  0  0
 42 46  1  0  0  0  0
 42 43  2  0  0  0  0
 45 39  1  0  0  0  0
M  END
>  <minimizedAffinity>
-6.93535042

$$$$

 OpenBabel03272503113D

 46 50  0  0  0  0  0  0  0  0999 V2000
   37.4270   26.8080   31.3880 C   0  0  0  0  0  0  0  0  0  0  0  0
   37.9970   26.3890   32.4250 O   0  0  0  0  0  0  0  0  0  0  0  0
   37.3650   25.8710   30.3080 N   0  0  0  0  0  0  0  0  0  0  0  0
   36.8980   26.1660   29.4310 H   0  0  0  0  0  0  0  0  0  0  0  0
   36.1980   28.5470   32.4750 C   0  0  0  0  0  0  0  0  0  0  0  0
   36.8940   28.1480   31.3440 C   0  0  0  0  0  0  0  0  0  0  0  0
   37.0660   28.9620   30.2560 C   0  0  0  0  0  0  0  0  0  0  0  0
   36.5290   30.2390   30.2720 C   0  0  0  0  0  0  0  0  0  0  0  0
   36.5440   31.2300   29.3650 N   0  0  0  0  0  0  0  0  0  0  0  0
   35.8640   32.2570   29.9100 C   0  0  0  0  0  0  0  0  0  0  0  0
   35.4390   31.9060   31.1280 N   0  0  0  0  0  0  0  0  0  0  0  0
   35.8390   30.6390   31.3920 C   0  0  0  0  0  0  0  0  0  0  0  0
   35.6590   29.8310   32.4910 C   0  0  0  0  0  0  0  0  0  0  0  0
   36.0500   27.9260   33.3410 H   0  0  0  0  0  0  0  0  0  0  0  0
   37.6120   28.6210   29.3920 H   0  0  0  0  0  0  0  0  0  0  0  0
   36.9850   31.2450   28.4090 H   0  0  0  0  0  0  0  0  0  0  0  0
   35.6990   33.2150   29.4160 H   0  0  0  0  0  0  0  0  0  0  0  0
   32.6930   29.1810   32.7510 Cl  0  0  0  0  0  0  0  0  0  0  0  0
   33.5920   30.0550   33.9590 C   0  0  0  0  0  0  0  0  0  0  0  0
   34.9260   30.2600   33.6750 C   0  0  0  0  0  0  0  0  0  0  0  0
   35.7130   30.9540   34.5990 C   0  0  0  0  0  0  0  0  0  0  0  0
   36.7780   31.1650   34.4630 H   0  0  0  0  0  0  0  0  0  0  0  0
   35.1040   31.4050   35.7610 C   0  0  0  0  0  3  0  0  0  0  0  0
   33.7830   31.2180   36.0730 C   0  0  0  0  0  0  0  0  0  0  0  0
   33.0670   31.8100   37.5570 Cl  0  0  0  0  0  0  0  0  0  0  0  0
   33.0430   30.5270   35.1320 C   0  0  0  0  0  0  0  0  0  0  0  0
   31.9980   30.3520   35.3270 H   0  0  0  0  0  0  0  0  0  0  0  0
   35.8790   23.8190   31.2800 F   0  0  0  0  0  0  0  0  0  0  0  0
   37.1970   23.5760   31.0860 C   0  0  0  0  0  0  0  0  0  0  0  0
   37.7180   22.3450   31.3780 C   0  0  0  0  0  0  0  0  0  0  0  0
   39.0530   22.1750   31.1570 C   0  0  0  0  0  0  0  0  0  0  0  0
   39.8680   23.1630   30.6690 C   0  0  0  0  0  0  0  0  0  0  0  0
   39.3140   24.3990   30.3820 C   0  0  0  0  0  0  0  0  0  0  0  0
   37.9760   24.6090   30.5900 C   0  0  0  0  0  0  0  0  0  0  0  0
   39.4900   21.2010   31.3830 H   0  0  0  0  0  0  0  0  0  0  0  0
   40.9230   23.0340   30.4920 H   0  0  0  0  0  0  0  0  0  0  0  0
   39.8860   25.2430   29.9900 H   0  0  0  0  0  0  0  0  0  0  0  0
   35.4280   19.3530   31.6430 C   0  0  0  0  0  0  0  0  0  0  0  0
   36.2940   20.3220   31.1110 C   0  0  0  0  0  0  0  0  0  0  0  0
   36.8130   21.3170   31.8990 C   0  0  0  0  0  0  0  0  0  0  0  0
   36.4530   21.3210   33.2130 N   0  0  0  0  0  0  0  0  0  0  0  0
   35.6210   20.3900   33.7280 C   0  0  0  0  0  0  0  0  0  0  0  0
   35.1250   19.4290   32.9440 N   0  0  0  0  0  0  0  0  0  0  0  0
   35.0730   18.6150   30.9490 H   0  0  0  0  0  0  0  0  0  0  0  0
   36.5700   20.3080   30.0680 H   0  0  0  0  0  0  0  0  0  0  0  0
   35.3620   20.4350   34.7850 H   0  0  0  0  0  0  0  0  0  0  0  0
  1  2  2  0  0  0  0
  3 34  1  0  0  0  0
  3  1  1  0  0  0  0
  4  3  1  0  0  0  0
  5 13  1  0  0  0  0
  5 14  1  0  0  0  0
  6  1  1  0  0  0  0
  6  5  2  0  0  0  0
  7  8  2  0  0  0  0
  7  6  1  0  0  0  0
  8 12  1  0  0  0  0
  9 10  1  0  0  0  0
  9  8  1  0  0  0  0
 10 11  2  0  0  0  0
 11 12  1  0  0  0  0
 12 13  2  0  0  0  0
 13 20  1  0  0  0  0
 15  7  1  0  0  0  0
 16  9  1  0  0  0  0
 17 10  1  0  0  0  0
 18 19  1  0  0  0  0
 19 26  1  0  0  0  0
 20 19  2  0  0  0  0
 20 21  1  0  0  0  0
 21 23  2  0  0  0  0
 22 21  1  0  0  0  0
 23 24  1  0  0  0  0
 24 25  1  0  0  0  0
 26 27  1  0  0  0  0
 26 24  2  0  0  0  0
 29 28  1  0  0  0  0
 29 30  1  0  0  0  0
 30 40  1  0  0  0  0
 31 30  2  0  0  0  0
 31 35  1  0  0  0  0
 32 31  1  0  0  0  0
 33 34  1  0  0  0  0
 33 32  2  0  0  0  0
 34 29  2  0  0  0  0
 36 32  1  0  0  0  0
 37 33  1  0  0  0  0
 38 43  1  0  0  0  0
 39 38  2  0  0  0  0
 39 40  1  0  0  0  0
 40 41  2  0  0  0  0
 41 42  1  0  0  0  0
 42 46  1  0  0  0  0
 43 42  2  0  0  0  0
 44 38  1  0  0  0  0
 45 39  1  0  0  0  0
M  END
>  <minimizedAffinity>
-6.93213272

$$$$

 OpenBabel03272503113D

 46 50  0  0  0  0  0  0  0  0999 V2000
   36.4480   28.3030   33.6750 C   0  0  0  0  0  0  0  0  0  0  0  0
   36.4660   28.0480   34.9050 O   0  0  0  0  0  0  0  0  0  0  0  0
   35.7750   29.5140   33.3150 N   0  0  0  0  0  0  0  0  0  0  0  0
   35.7390   29.7740   32.3130 H   0  0  0  0  0  0  0  0  0  0  0  0
   36.7800   26.0600   32.9150 C   0  0  0  0  0  0  0  0  0  0  0  0
   37.0760   27.4040   32.7380 C   0  0  0  0  0  0  0  0  0  0  0  0
   37.9050   27.8530   31.7460 C   0  0  0  0  0  0  0  0  0  0  0  0
   38.4800   26.9400   30.8750 C   0  0  0  0  0  0  0  0  0  0  0  0
   39.3130   27.0960   29.8330 N   0  0  0  0  0  0  0  0  0  0  0  0
   39.5500   25.8640   29.3460 C   0  0  0  0  0  0  0  0  0  0  0  0
   38.8750   24.9660   30.0730 N   0  0  0  0  0  0  0  0  0  0  0  0
   38.1890   25.6080   31.0470 C   0  0  0  0  0  0  0  0  0  0  0  0
   37.3570   25.1440   32.0400 C   0  0  0  0  0  0  0  0  0  0  0  0
   36.1310   25.6840   33.6870 H   0  0  0  0  0  0  0  0  0  0  0  0
   38.1160   28.9040   31.6350 H   0  0  0  0  0  0  0  0  0  0  0  0
   39.7240   27.9840   29.4420 H   0  0  0  0  0  0  0  0  0  0  0  0
   40.1940   25.6540   28.4910 H   0  0  0  0  0  0  0  0  0  0  0  0
   39.1390   23.4250   33.8190 Cl  0  0  0  0  0  0  0  0  0  0  0  0
   37.7430   22.8090   32.9790 C   0  0  0  0  0  0  0  0  0  0  0  0
   37.0520   23.7290   32.2180 C   0  0  0  0  0  0  0  0  0  0  0  0
   35.9190   23.3090   31.5150 C   0  0  0  0  0  0  0  0  0  0  0  0
   35.3080   23.9640   30.8870 H   0  0  0  0  0  0  0  0  0  0  0  0
   35.5470   21.9770   31.6210 C   0  0  0  0  0  3  0  0  0  0  0  0
   36.2110   21.0380   32.3680 C   0  0  0  0  0  0  0  0  0  0  0  0
   35.6950   19.3680   32.4650 Cl  0  0  0  0  0  0  0  0  0  0  0  0
   37.3240   21.4970   33.0460 C   0  0  0  0  0  0  0  0  0  0  0  0
   37.8830   20.8010   33.6490 H   0  0  0  0  0  0  0  0  0  0  0  0
   33.1940   29.1160   34.0520 F   0  0  0  0  0  0  0  0  0  0  0  0
   33.9030   30.0100   34.7820 C   0  0  0  0  0  0  0  0  0  0  0  0
   33.3140   30.6610   35.8310 C   0  0  0  0  0  0  0  0  0  0  0  0
   34.0910   31.5470   36.5180 C   0  0  0  0  0  0  0  0  0  0  0  0
   35.4010   31.8020   36.2060 C   0  0  0  0  0  0  0  0  0  0  0  0
   35.9710   31.1280   35.1390 C   0  0  0  0  0  0  0  0  0  0  0  0
   35.2240   30.2300   34.4240 C   0  0  0  0  0  0  0  0  0  0  0  0
   33.6410   32.0780   37.3590 H   0  0  0  0  0  0  0  0  0  0  0  0
   36.0180   32.5000   36.7460 H   0  0  0  0  0  0  0  0  0  0  0  0
   37.0060   31.2670   34.8190 H   0  0  0  0  0  0  0  0  0  0  0  0
   30.1750   28.9880   37.0990 C   0  0  0  0  0  0  0  0  0  0  0  0
   31.5290   29.2450   36.8300 C   0  0  0  0  0  0  0  0  0  0  0  0
   31.9110   30.3610   36.1310 C   0  0  0  0  0  0  0  0  0  0  0  0
   30.9250   31.2040   35.7150 N   0  0  0  0  0  0  0  0  0  0  0  0
   29.6220   30.9590   35.9730 C   0  0  0  0  0  0  0  0  0  0  0  0
   29.2680   29.8660   36.6540 N   0  0  0  0  0  0  0  0  0  0  0  0
   29.9730   28.0890   37.6510 H   0  0  0  0  0  0  0  0  0  0  0  0
   32.3000   28.5700   37.1640 H   0  0  0  0  0  0  0  0  0  0  0  0
   28.8690   31.6620   35.6190 H   0  0  0  0  0  0  0  0  0  0  0  0
  1  2  2  0  0  0  0
  3  1  1  0  0  0  0
  3 34  1  0  0  0  0
  4  3  1  0  0  0  0
  5 14  1  0  0  0  0
  6  5  1  0  0  0  0
  6  1  1  0  0  0  0
  7  6  2  0  0  0  0
  8 12  2  0  0  0  0
  8  7  1  0  0  0  0
  9  8  1  0  0  0  0
 10  9  1  0  0  0  0
 10 11  2  0  0  0  0
 11 12  1  0  0  0  0
 12 13  1  0  0  0  0
 13 20  1  0  0  0  0
 13  5  2  0  0  0  0
 15  7  1  0  0  0  0
 16  9  1  0  0  0  0
 17 10  1  0  0  0  0
 19 26  1  0  0  0  0
 19 18  1  0  0  0  0
 20 19  2  0  0  0  0
 21 23  2  0  0  0  0
 21 20  1  0  0  0  0
 22 21  1  0  0  0  0
 23 24  1  0  0  0  0
 24 25  1  0  0  0  0
 24 26  2  0  0  0  0
 26 27  1  0  0  0  0
 28 29  1  0  0  0  0
 29 30  1  0  0  0  0
 30 40  1  0  0  0  0
 30 31  2  0  0  0  0
 31 35  1  0  0  0  0
 32 31  1  0  0  0  0
 32 36  1  0  0  0  0
 33 32  2  0  0  0  0
 34 29  2  0  0  0  0
 34 33  1  0  0  0  0
 37 33  1  0  0  0  0
 38 44  1  0  0  0  0
 39 38  1  0  0  0  0
 39 45  1  0  0  0  0
 40 39  2  0  0  0  0
 41 42  2  0  0  0  0
 41 40  1  0  0  0  0
 42 43  1  0  0  0  0
 43 38  2  0  0  0  0
 46 42  1  0  0  0  0
M  END
>  <minimizedAffinity>
-6.87324476

$$$$

 OpenBabel03272503113D

 46 50  0  0  0  0  0  0  0  0999 V2000
   35.5750   29.7230   33.5130 C   0  0  0  0  0  0  0  0  0  0  0  0
   35.7700   29.1120   34.5930 O   0  0  0  0  0  0  0  0  0  0  0  0
   34.7030   30.8540   33.6040 N   0  0  0  0  0  0  0  0  0  0  0  0
   34.5150   31.3980   32.7430 H   0  0  0  0  0  0  0  0  0  0  0  0
   36.5370   27.9250   32.2650 C   0  0  0  0  0  0  0  0  0  0  0  0
   36.2100   29.2730   32.2990 C   0  0  0  0  0  0  0  0  0  0  0  0
   36.4690   30.1230   31.2570 C   0  0  0  0  0  0  0  0  0  0  0  0
   37.0820   29.6320   30.1150 C   0  0  0  0  0  0  0  0  0  0  0  0
   37.4460   30.2240   28.9670 N   0  0  0  0  0  0  0  0  0  0  0  0
   38.0020   29.2670   28.2020 C   0  0  0  0  0  0  0  0  0  0  0  0
   37.9800   28.1050   28.8660 N   0  0  0  0  0  0  0  0  0  0  0  0
   37.4070   28.2960   30.0770 C   0  0  0  0  0  0  0  0  0  0  0  0
   37.1520   27.4320   31.1170 C   0  0  0  0  0  0  0  0  0  0  0  0
   36.3440   27.2380   33.0700 H   0  0  0  0  0  0  0  0  0  0  0  0
   36.2030   31.1650   31.3150 H   0  0  0  0  0  0  0  0  0  0  0  0
   37.3390   31.2320   28.6790 H   0  0  0  0  0  0  0  0  0  0  0  0
   38.4010   29.4340   27.2000 H   0  0  0  0  0  0  0  0  0  0  0  0
   34.9710   25.3540   30.6530 Cl  0  0  0  0  0  0  0  0  0  0  0  0
   36.6500   24.9480   30.8720 C   0  0  0  0  0  0  0  0  0  0  0  0
   37.5000   26.0170   31.0710 C   0  0  0  0  0  0  0  0  0  0  0  0
   38.8630   25.7700   31.2550 C   0  0  0  0  0  0  0  0  0  0  0  0
   39.6120   26.5500   31.4180 H   0  0  0  0  0  0  0  0  0  0  0  0
   39.2930   24.4510   31.2270 C   0  0  0  0  0  3  0  0  0  0  0  0
   38.4770   23.3680   31.0320 C   0  0  0  0  0  0  0  0  0  0  0  0
   39.0760   21.7230   31.0080 Cl  0  0  0  0  0  0  0  0  0  0  0  0
   37.1370   23.6580   30.8550 C   0  0  0  0  0  0  0  0  0  0  0  0
   36.4500   22.8440   30.6970 H   0  0  0  0  0  0  0  0  0  0  0  0
   32.4190   29.6380   34.4210 F   0  0  0  0  0  0  0  0  0  0  0  0
   33.0200   30.4610   35.3120 C   0  0  0  0  0  0  0  0  0  0  0  0
   32.4740   30.6450   36.5530 C   0  0  0  0  0  0  0  0  0  0  0  0
   33.1360   31.4890   37.3950 C   0  0  0  0  0  0  0  0  0  0  0  0
   34.2940   32.1400   37.0560 C   0  0  0  0  0  0  0  0  0  0  0  0
   34.8240   31.9340   35.7930 C   0  0  0  0  0  0  0  0  0  0  0  0
   34.1880   31.0930   34.9170 C   0  0  0  0  0  0  0  0  0  0  0  0
   32.7180   31.6520   38.3910 H   0  0  0  0  0  0  0  0  0  0  0  0
   34.8210   32.8070   37.7170 H   0  0  0  0  0  0  0  0  0  0  0  0
   35.7410   32.4090   35.4370 H   0  0  0  0  0  0  0  0  0  0  0  0
   30.0230   28.0480   37.7790 C   0  0  0  0  0  0  0  0  0  0  0  0
   31.2290   28.7040   37.4840 C   0  0  0  0  0  0  0  0  0  0  0  0
   31.2360   29.9320   36.8770 C   0  0  0  0  0  0  0  0  0  0  0  0
   30.0270   30.4850   36.5750 N   0  0  0  0  0  0  0  0  0  0  0  0
   28.8660   29.8570   36.8580 C   0  0  0  0  0  0  0  0  0  0  0  0
   28.8780   28.6590   37.4500 N   0  0  0  0  0  0  0  0  0  0  0  0
   30.1190   27.0900   38.2550 H   0  0  0  0  0  0  0  0  0  0  0  0
   32.1800   28.2560   37.7270 H   0  0  0  0  0  0  0  0  0  0  0  0
   27.9240   30.3380   36.5990 H   0  0  0  0  0  0  0  0  0  0  0  0
  1  3  1  0  0  0  0
  1  2  2  0  0  0  0
  3 34  1  0  0  0  0
  4  3  1  0  0  0  0
  5  6  1  0  0  0  0
  5 14  1  0  0  0  0
  6  1  1  0  0  0  0
  7 15  1  0  0  0  0
  7  6  2  0  0  0  0
  8  7  1  0  0  0  0
  9  8  1  0  0  0  0
 10 11  2  0  0  0  0
 10  9  1  0  0  0  0
 11 12  1  0  0  0  0
 12  8  2  0  0  0  0
 12 13  1  0  0  0  0
 13  5  2  0  0  0  0
 16  9  1  0  0  0  0
 17 10  1  0  0  0  0
 18 19  1  0  0  0  0
 19 20  1  0  0  0  0
 20 13  1  0  0  0  0
 20 21  2  0  0  0  0
 21 22  1  0  0  0  0
 23 21  1  0  0  0  0
 24 23  2  0  0  0  0
 25 24  1  0  0  0  0
 26 19  2  0  0  0  0
 26 24  1  0  0  0  0
 27 26  1  0  0  0  0
 28 29  1  0  0  0  0
 29 30  1  0  0  0  0
 30 40  1  0  0  0  0
 30 31  2  0  0  0  0
 31 35  1  0  0  0  0
 32 31  1  0  0  0  0
 32 36  1  0  0  0  0
 33 32  2  0  0  0  0
 34 29  2  0  0  0  0
 34 33  1  0  0  0  0
 37 33  1  0  0  0  0
 38 44  1  0  0  0  0
 39 45  1  0  0  0  0
 39 38  1  0  0  0  0
 40 39  2  0  0  0  0
 41 42  2  0  0  0  0
 41 40  1  0  0  0  0
 42 43  1  0  0  0  0
 43 38  2  0  0  0  0
 46 42  1  0  0  0  0
M  END
>  <minimizedAffinity>
-6.73887587

$$$$

 OpenBabel03272503113D

 46 50  0  0  0  0  0  0  0  0999 V2000
   36.8920   26.8490   32.1190 C   0  0  0  0  0  0  0  0  0  0  0  0
   37.8870   27.5410   32.4470 O   0  0  0  0  0  0  0  0  0  0  0  0
   35.7620   27.5930   31.6510 N   0  0  0  0  0  0  0  0  0  0  0  0
   34.9170   27.0690   31.3600 H   0  0  0  0  0  0  0  0  0  0  0  0
   37.8520   24.9150   33.1470 C   0  0  0  0  0  0  0  0  0  0  0  0
   36.9390   25.4120   32.2280 C   0  0  0  0  0  0  0  0  0  0  0  0
   36.1340   24.6000   31.4730 C   0  0  0  0  0  0  0  0  0  0  0  0
   36.2250   23.2250   31.6230 C   0  0  0  0  0  0  0  0  0  0  0  0
   35.5730   22.2130   31.0270 N   0  0  0  0  0  0  0  0  0  0  0  0
   36.0630   21.0770   31.5580 C   0  0  0  0  0  0  0  0  0  0  0  0
   36.9980   21.3840   32.4640 N   0  0  0  0  0  0  0  0  0  0  0  0
   37.1290   22.7290   32.5320 C   0  0  0  0  0  0  0  0  0  0  0  0
   37.9420   23.5340   33.2970 C   0  0  0  0  0  0  0  0  0  0  0  0
   38.4940   25.5330   33.7510 H   0  0  0  0  0  0  0  0  0  0  0  0
   35.4350   25.0170   30.7680 H   0  0  0  0  0  0  0  0  0  0  0  0
   34.8230   22.2530   30.2880 H   0  0  0  0  0  0  0  0  0  0  0  0
   35.7340   20.0760   31.2790 H   0  0  0  0  0  0  0  0  0  0  0  0
   40.6520   22.5230   32.3350 Cl  0  0  0  0  0  0  0  0  0  0  0  0
   40.1600   22.5060   34.0060 C   0  0  0  0  0  0  0  0  0  0  0  0
   38.8990   23.0030   34.2600 C   0  0  0  0  0  0  0  0  0  0  0  0
   38.4350   23.0230   35.5780 C   0  0  0  0  0  0  0  0  0  0  0  0
   37.4510   23.3970   35.8780 H   0  0  0  0  0  0  0  0  0  0  0  0
   39.2750   22.5370   36.5690 C   0  0  0  0  0  3  0  0  0  0  0  0
   40.5320   22.0370   36.3510 C   0  0  0  0  0  0  0  0  0  0  0  0
   41.5500   21.4360   37.6430 Cl  0  0  0  0  0  0  0  0  0  0  0  0
   40.9500   22.0370   35.0340 C   0  0  0  0  0  0  0  0  0  0  0  0
   41.9310   21.6550   34.8050 H   0  0  0  0  0  0  0  0  0  0  0  0
   34.9690   29.0910   33.7700 F   0  0  0  0  0  0  0  0  0  0  0  0
   35.5430   29.7550   32.7380 C   0  0  0  0  0  0  0  0  0  0  0  0
   35.6980   31.1130   32.7970 C   0  0  0  0  0  0  0  0  0  0  0  0
   36.2830   31.7110   31.7200 C   0  0  0  0  0  0  0  0  0  0  0  0
   36.7100   31.0230   30.6140 C   0  0  0  0  0  0  0  0  0  0  0  0
   36.5400   29.6480   30.5830 C   0  0  0  0  0  0  0  0  0  0  0  0
   35.9560   29.0100   31.6450 C   0  0  0  0  0  0  0  0  0  0  0  0
   36.4170   32.7940   31.7460 H   0  0  0  0  0  0  0  0  0  0  0  0
   37.1730   31.4900   29.7620 H   0  0  0  0  0  0  0  0  0  0  0  0
   36.8490   29.0200   29.7450 H   0  0  0  0  0  0  0  0  0  0  0  0
   35.6010   33.0010   36.0660 C   0  0  0  0  0  0  0  0  0  0  0  0
   36.0860   32.3390   34.9260 C   0  0  0  0  0  0  0  0  0  0  0  0
   35.2280   31.8110   33.9970 C   0  0  0  0  0  0  0  0  0  0  0  0
   33.8930   31.9600   34.2250 N   0  0  0  0  0  0  0  0  0  0  0  0
   33.4240   32.5970   35.3200 C   0  0  0  0  0  0  0  0  0  0  0  0
   34.2750   33.1040   36.2160 N   0  0  0  0  0  0  0  0  0  0  0  0
   36.3480   33.3800   36.7370 H   0  0  0  0  0  0  0  0  0  0  0  0
   37.1450   32.2270   34.7570 H   0  0  0  0  0  0  0  0  0  0  0  0
   32.3480   32.6910   35.4600 H   0  0  0  0  0  0  0  0  0  0  0  0
  1  6  1  0  0  0  0
  1  2  2  0  0  0  0
  3  1  1  0  0  0  0
  4  3  1  0  0  0  0
  5 13  1  0  0  0  0
  5 14  1  0  0  0  0
  6  5  2  0  0  0  0
  7  8  2  0  0  0  0
  7  6  1  0  0  0  0
  8 12  1  0  0  0  0
  9 10  1  0  0  0  0
  9  8  1  0  0  0  0
 10 11  2  0  0  0  0
 11 12  1  0  0  0  0
 12 13  2  0  0  0  0
 13 20  1  0  0  0  0
 15  7  1  0  0  0  0
 16  9  1  0  0  0  0
 17 10  1  0  0  0  0
 18 19  1  0  0  0  0
 19 20  2  0  0  0  0
 19 26  1  0  0  0  0
 20 21  1  0  0  0  0
 21 22  1  0  0  0  0
 21 23  2  0  0  0  0
 24 23  1  0  0  0  0
 24 25  1  0  0  0  0
 26 24  2  0  0  0  0
 27 26  1  0  0  0  0
 29 30  1  0  0  0  0
 29 28  1  0  0  0  0
 30 40  1  0  0  0  0
 31 35  1  0  0  0  0
 31 30  2  0  0  0  0
 32 31  1  0  0  0  0
 33 32  2  0  0  0  0
 33 34  1  0  0  0  0
 34  3  1  0  0  0  0
 34 29  2  0  0  0  0
 36 32  1  0  0  0  0
 37 33  1  0  0  0  0
 38 43  1  0  0  0  0
 38 44  1  0  0  0  0
 39 38  2  0  0  0  0
 40 41  2  0  0  0  0
 40 39  1  0  0  0  0
 41 42  1  0  0  0  0
 42 46  1  0  0  0  0
 42 43  2  0  0  0  0
 45 39  1  0  0  0  0
M  END
>  <minimizedAffinity>
-6.63103008

$$$$
