
 OpenBabel03272505113D

 40 43  0  0  0  0  0  0  0  0999 V2000
   34.0670   29.9710   47.5570 S   0  0  0  0  0  0  0  0  0  0  0  0
   36.4120   30.9130   45.7210 Cl  0  0  0  0  0  0  0  0  0  0  0  0
   36.7030   30.7920   47.4350 C   0  0  0  0  0  0  0  0  0  0  0  0
   37.9630   31.1220   47.8920 C   0  0  0  0  0  0  0  0  0  0  0  0
   38.2070   31.0290   49.2530 C   0  0  0  0  0  0  0  0  0  0  0  0
   37.2150   30.6240   50.0910 C   0  0  0  0  0  0  0  0  0  0  0  0
   35.9580   30.3030   49.5740 C   0  0  0  0  0  0  0  0  0  0  0  0
   35.6500   30.3710   48.2390 C   0  0  0  0  0  0  0  0  0  0  0  0
   39.2030   31.2930   49.5910 H   0  0  0  0  0  0  0  0  0  0  0  0
   37.4250   30.5580   51.1490 H   0  0  0  0  0  0  0  0  0  0  0  0
   35.1910   29.9820   50.2710 H   0  0  0  0  0  0  0  0  0  0  0  0
   40.2240   33.3350   46.0710 C   0  0  0  0  0  0  0  0  0  0  0  0
   40.9360   32.4690   45.2130 C   0  0  0  0  0  0  0  0  0  0  0  0
   40.6200   31.1080   45.2760 C   0  0  0  0  0  0  0  0  0  0  0  0
   39.6550   30.6930   46.1500 N   0  0  0  0  0  0  0  0  0  0  0  0
   39.0100   31.5590   46.9410 C   0  0  0  0  0  0  0  0  0  0  0  0
   39.2950   32.8570   46.8980 N   0  0  0  0  0  0  0  0  0  0  0  0
   40.4460   34.3990   46.0470 H   0  0  0  0  0  0  0  0  0  0  0  0
   41.6940   32.8200   44.5320 H   0  0  0  0  0  0  0  0  0  0  0  0
   41.1270   30.3740   44.6450 H   0  0  0  0  0  0  0  0  0  0  0  0
   33.8970   29.2190   44.5000 Cl  0  0  0  0  0  0  0  0  0  0  0  0
   33.8850   27.9840   45.7530 C   0  0  0  0  0  0  0  0  0  0  0  0
   33.9560   28.2230   47.1220 C   0  0  0  0  0  0  0  0  0  0  0  0
   33.9400   27.1810   48.0040 C   0  0  0  0  0  0  0  0  0  0  0  0
   33.8520   25.8880   47.5500 C   0  0  0  0  0  0  0  0  0  0  0  0
   33.7780   25.5870   46.1950 C   0  0  0  0  0  0  0  0  0  0  0  0
   33.7970   26.6510   45.3360 C   0  0  0  0  0  0  0  0  0  0  0  0
   34.0000   27.4560   49.0580 H   0  0  0  0  0  0  0  0  0  0  0  0
   33.8400   25.0790   48.2600 H   0  0  0  0  0  0  0  0  0  0  0  0
   33.7090   24.5610   45.8580 H   0  0  0  0  0  0  0  0  0  0  0  0
   30.9940   26.5490   44.4740 Cl  0  0  0  0  0  0  0  0  0  0  0  0
   32.3890   26.2990   43.4790 C   0  0  0  0  0  0  0  0  0  0  0  0
   33.7190   26.3500   43.9000 C   0  0  0  0  0  0  0  0  0  0  0  0
   34.7670   26.1370   43.0290 C   0  0  0  0  0  0  0  0  0  0  0  0
   35.7460   26.2050   43.4840 H   0  0  0  0  0  0  0  0  0  0  0  0
   34.5020   25.8640   41.7030 C   0  0  0  0  0  3  0  0  0  0  0  0
   33.1920   25.8080   41.2600 C   0  0  0  0  0  0  0  0  0  0  0  0
   32.8500   25.4620   39.5700 Cl  0  0  0  0  0  0  0  0  0  0  0  0
   32.1310   26.0230   42.1330 C   0  0  0  0  0  0  0  0  0  0  0  0
   31.1320   25.9660   41.7340 H   0  0  0  0  0  0  0  0  0  0  0  0
  1  8  1  0  0  0  0
  2  3  1  0  0  0  0
  3  4  2  0  0  0  0
  3  8  1  0  0  0  0
  4  5  1  0  0  0  0
  5  9  1  0  0  0  0
  5  6  2  0  0  0  0
  6 10  1  0  0  0  0
  7  6  1  0  0  0  0
  7 11  1  0  0  0  0
  8  7  2  0  0  0  0
 12 17  1  0  0  0  0
 13 14  1  0  0  0  0
 13 12  2  0  0  0  0
 14 15  2  0  0  0  0
 15 16  1  0  0  0  0
 16  4  1  0  0  0  0
 17 16  2  0  0  0  0
 18 12  1  0  0  0  0
 19 13  1  0  0  0  0
 20 14  1  0  0  0  0
 21 22  1  0  0  0  0
 22 23  1  0  0  0  0
 23  1  1  0  0  0  0
 23 24  2  0  0  0  0
 24 28  1  0  0  0  0
 25 24  1  0  0  0  0
 25 29  1  0  0  0  0
 26 25  2  0  0  0  0
 27 22  2  0  0  0  0
 27 26  1  0  0  0  0
 30 26  1  0  0  0  0
 32 33  1  0  0  0  0
 32 31  1  0  0  0  0
 33 27  1  0  0  0  0
 34 35  1  0  0  0  0
 34 33  2  0  0  0  0
 36 34  1  0  0  0  0
 37 36  2  0  0  0  0
 37 39  1  0  0  0  0
 38 37  1  0  0  0  0
 39 32  2  0  0  0  0
 40 39  1  0  0  0  0
M  END
>  <minimizedAffinity>
-5.73193359

>  <minimizedRMSD>
0.374071568

$$$$
