
 OpenBabel03262520173D

 19 20  0  0  0  0  0  0  0  0999 V2000
   38.0480   33.2970   49.5590 Cl  0  0  0  0  0  0  0  0  0  0  0  0
   38.4780   32.3900   48.1330 C   0  0  0  0  0  0  0  0  0  0  0  0
   38.0310   31.0950   47.9610 C   0  0  0  0  0  0  0  0  0  0  0  0
   38.4110   30.4410   46.8080 C   0  0  0  0  0  0  0  0  0  0  0  0
   38.0690   29.4310   46.6620 H   0  0  0  0  0  0  0  0  0  0  0  0
   39.2040   31.0300   45.8470 C   0  0  0  0  0  0  0  0  0  0  0  0
   39.6340   32.3440   46.0650 C   0  0  0  0  0  0  0  0  0  0  0  0
   40.6400   33.0540   44.8210 Cl  0  0  0  0  0  0  0  0  0  0  0  0
   39.2780   33.0370   47.2030 C   0  0  0  0  0  0  0  0  0  0  0  0
   39.6300   34.0510   47.3350 H   0  0  0  0  0  0  0  0  0  0  0  0
   36.9220   29.3910   51.1530 C   0  0  0  0  0  0  0  0  0  0  0  0
   37.7380   29.9330   50.1490 C   0  0  0  0  0  0  0  0  0  0  0  0
   37.1920   30.5270   49.0130 C   0  0  0  0  0  0  0  0  0  0  0  0
   35.8360   30.5470   48.9400 N   0  0  0  0  0  0  0  0  0  0  0  0
   35.0640   30.0250   49.9070 C   0  0  0  0  0  0  0  0  0  0  0  0
   35.5940   29.4570   50.9950 N   0  0  0  0  0  0  0  0  0  0  0  0
   37.3670   28.9350   52.0270 H   0  0  0  0  0  0  0  0  0  0  0  0
   38.7890   29.8730   50.2910 H   0  0  0  0  0  0  0  0  0  0  0  0
   33.9880   30.0770   49.7810 H   0  0  0  0  0  0  0  0  0  0  0  0
  2  1  1  0  0  0  0
  3  2  1  0  0  0  0
  3 13  1  0  0  0  0
  4  3  2  0  0  0  0
  5  4  1  0  0  0  0
  6  7  2  0  0  0  0
  6  4  1  0  0  0  0
  7  9  1  0  0  0  0
  8  7  1  0  0  0  0
  9 10  1  0  0  0  0
  9  2  2  0  0  0  0
 11 17  1  0  0  0  0
 12 18  1  0  0  0  0
 12 11  2  0  0  0  0
 13 12  1  0  0  0  0
 14 13  2  0  0  0  0
 14 15  1  0  0  0  0
 15 16  2  0  0  0  0
 16 11  1  0  0  0  0
 19 15  1  0  0  0  0
M  END
>  <minimizedAffinity>
-5.43041658

>  <minimizedRMSD>
1.06116366

$$$$
