
 OpenBabel03272500563D

 36 38  0  0  0  0  0  0  0  0999 V2000
   38.0960   31.9150   47.4320 C   0  0  0  0  0  0  0  0  0  0  0  0
   38.5330   32.8550   48.3220 C   0  0  0  0  0  0  0  0  0  0  0  0
   38.0280   32.9470   49.6230 C   0  0  0  0  0  0  0  0  0  0  0  0
   37.0060   31.9940   50.0060 C   0  0  0  0  0  0  0  0  0  0  0  0
   36.6180   31.0880   49.0780 C   0  0  0  0  0  0  0  0  0  0  0  0
   37.1080   31.0100   47.8260 C   0  0  0  0  0  0  0  0  0  0  0  0
   39.3100   33.5900   48.0540 H   0  0  0  0  0  0  0  0  0  0  0  0
   38.4250   33.7240   50.2780 H   0  0  0  0  0  0  0  0  0  0  0  0
   36.7230   32.1850   51.0140 H   0  0  0  0  0  0  0  0  0  0  0  0
   35.8860   30.4780   49.5850 H   0  0  0  0  0  0  0  0  0  0  0  0
   39.9930   31.2960   46.0160 C   0  0  0  0  0  0  0  0  0  0  0  0
   38.7330   31.9310   46.1320 C   0  0  0  0  0  0  0  0  0  0  0  0
   38.2630   32.4840   44.9670 C   0  0  0  0  0  0  0  0  0  0  0  0
   38.9760   32.4070   43.8310 N   0  0  0  0  0  0  0  0  0  0  0  0
   40.1440   31.8140   43.7430 C   0  0  0  0  0  0  0  0  0  0  0  0
   40.6440   31.2620   44.8370 N   0  0  0  0  0  0  0  0  0  0  0  0
   40.4480   30.8320   46.8720 H   0  0  0  0  0  0  0  0  0  0  0  0
   37.2990   32.9710   45.0550 H   0  0  0  0  0  0  0  0  0  0  0  0
   40.6210   31.8160   42.7780 H   0  0  0  0  0  0  0  0  0  0  0  0
   35.1990   29.9500   46.9490 C   0  0  0  0  0  0  0  0  0  0  0  0
   34.5300   30.6570   47.8040 O   0  0  0  0  0  0  0  0  0  0  0  0
   36.6430   30.0800   46.9300 N   0  0  0  0  0  0  0  0  0  0  0  0
   37.2410   29.5280   46.3100 H   0  0  0  0  0  0  0  0  0  0  0  0
   34.5190   29.1140   46.1050 O   0  0  0  0  0  0  0  0  0  0  0  0
   33.4170   29.4810   45.3410 C   0  0  0  0  0  0  0  0  0  0  0  0
   33.5000   30.3800   44.3840 O   0  0  0  0  0  0  0  0  0  0  0  0
   33.0480   26.7690   44.1840 Cl  0  0  0  0  0  0  0  0  0  0  0  0
   31.7660   27.6060   45.0670 C   0  0  0  0  0  0  0  0  0  0  0  0
   32.0880   28.8610   45.5460 C   0  0  0  0  0  0  0  0  0  0  0  0
   31.1040   29.5200   46.2320 C   0  0  0  0  0  0  0  0  0  0  0  0
   31.2940   30.5040   46.6310 H   0  0  0  0  0  0  0  0  0  0  0  0
   29.8490   28.9910   46.4520 C   0  0  0  0  0  3  0  0  0  0  0  0
   29.5530   27.7360   45.9640 C   0  0  0  0  0  0  0  0  0  0  0  0
   27.9910   26.9750   46.1890 Cl  0  0  0  0  0  0  0  0  0  0  0  0
   30.5230   27.0440   45.2680 C   0  0  0  0  0  0  0  0  0  0  0  0
   30.3460   26.0530   44.8610 H   0  0  0  0  0  0  0  0  0  0  0  0
  1  6  2  0  0  0  0
  1  2  1  0  0  0  0
  2  3  2  0  0  0  0
  3  4  1  0  0  0  0
  3  8  1  0  0  0  0
  4  9  1  0  0  0  0
  5 10  1  0  0  0  0
  5  4  2  0  0  0  0
  6  5  1  0  0  0  0
  7  2  1  0  0  0  0
 11 12  1  0  0  0  0
 11 17  1  0  0  0  0
 12  1  1  0  0  0  0
 13 18  1  0  0  0  0
 13 12  2  0  0  0  0
 14 13  1  0  0  0  0
 15 14  2  0  0  0  0
 15 16  1  0  0  0  0
 16 11  2  0  0  0  0
 19 15  1  0  0  0  0
 20 21  2  0  0  0  0
 22 20  1  0  0  0  0
 22  6  1  0  0  0  0
 23 22  1  0  0  0  0
 24 20  1  0  0  0  0
 25 29  1  0  0  0  0
 25 24  1  0  0  0  0
 26 25  2  0  0  0  0
 27 28  1  0  0  0  0
 28 35  2  0  0  0  0
 28 29  1  0  0  0  0
 29 30  2  0  0  0  0
 30 32  1  0  0  0  0
 30 31  1  0  0  0  0
 33 34  1  0  0  0  0
 33 32  2  0  0  0  0
 35 33  1  0  0  0  0
 36 35  1  0  0  0  0
M  END
>  <minimizedAffinity>
-5.58612156

>  <minimizedRMSD>
0.584109068

$$$$
