
 OpenBabel03272500563D

 36 38  0  0  0  0  0  0  0  0999 V2000
   38.0920   31.9230   47.4380 C   0  0  0  0  0  0  0  0  0  0  0  0
   38.5220   32.8720   48.3220 C   0  0  0  0  0  0  0  0  0  0  0  0
   38.0140   32.9700   49.6220 C   0  0  0  0  0  0  0  0  0  0  0  0
   36.9980   32.0120   50.0100 C   0  0  0  0  0  0  0  0  0  0  0  0
   36.6170   31.0980   49.0870 C   0  0  0  0  0  0  0  0  0  0  0  0
   37.1100   31.0140   47.8370 C   0  0  0  0  0  0  0  0  0  0  0  0
   39.2950   33.6100   48.0510 H   0  0  0  0  0  0  0  0  0  0  0  0
   38.4050   33.7540   50.2730 H   0  0  0  0  0  0  0  0  0  0  0  0
   36.7110   32.2090   51.0160 H   0  0  0  0  0  0  0  0  0  0  0  0
   35.8880   30.4870   49.5970 H   0  0  0  0  0  0  0  0  0  0  0  0
   39.9910   31.2970   46.0280 C   0  0  0  0  0  0  0  0  0  0  0  0
   38.7320   31.9350   46.1390 C   0  0  0  0  0  0  0  0  0  0  0  0
   38.2650   32.4860   44.9720 C   0  0  0  0  0  0  0  0  0  0  0  0
   38.9800   32.4040   43.8370 N   0  0  0  0  0  0  0  0  0  0  0  0
   40.1480   31.8090   43.7530 C   0  0  0  0  0  0  0  0  0  0  0  0
   40.6440   31.2590   44.8500 N   0  0  0  0  0  0  0  0  0  0  0  0
   40.4440   30.8340   46.8860 H   0  0  0  0  0  0  0  0  0  0  0  0
   37.3020   32.9750   45.0570 H   0  0  0  0  0  0  0  0  0  0  0  0
   40.6260   31.8070   42.7890 H   0  0  0  0  0  0  0  0  0  0  0  0
   35.2100   29.9350   46.9640 C   0  0  0  0  0  0  0  0  0  0  0  0
   34.5350   30.6420   47.8150 O   0  0  0  0  0  0  0  0  0  0  0  0
   36.6530   30.0760   46.9460 N   0  0  0  0  0  0  0  0  0  0  0  0
   37.2560   29.5240   46.3300 H   0  0  0  0  0  0  0  0  0  0  0  0
   34.5370   29.0890   46.1250 O   0  0  0  0  0  0  0  0  0  0  0  0
   33.3240   29.3780   45.5110 C   0  0  0  0  0  0  0  0  0  0  0  0
   33.2070   30.3280   44.6090 O   0  0  0  0  0  0  0  0  0  0  0  0
   33.1470   26.6540   44.3380 Cl  0  0  0  0  0  0  0  0  0  0  0  0
   31.8690   27.3340   45.3480 C   0  0  0  0  0  0  0  0  0  0  0  0
   32.0940   28.6130   45.8210 C   0  0  0  0  0  0  0  0  0  0  0  0
   31.1100   29.1530   46.6050 C   0  0  0  0  0  0  0  0  0  0  0  0
   31.2280   30.1480   47.0050 H   0  0  0  0  0  0  0  0  0  0  0  0
   29.9460   28.4870   46.9270 C   0  0  0  0  0  3  0  0  0  0  0  0
   29.7450   27.2110   46.4430 C   0  0  0  0  0  0  0  0  0  0  0  0
   28.3020   26.2800   46.7910 Cl  0  0  0  0  0  0  0  0  0  0  0  0
   30.7170   26.6380   45.6480 C   0  0  0  0  0  0  0  0  0  0  0  0
   30.6120   25.6370   45.2390 H   0  0  0  0  0  0  0  0  0  0  0  0
  1  6  2  0  0  0  0
  1  2  1  0  0  0  0
  2  3  2  0  0  0  0
  3  4  1  0  0  0  0
  3  8  1  0  0  0  0
  4  9  1  0  0  0  0
  5 10  1  0  0  0  0
  5  4  2  0  0  0  0
  6  5  1  0  0  0  0
  7  2  1  0  0  0  0
 11 12  1  0  0  0  0
 11 17  1  0  0  0  0
 12  1  1  0  0  0  0
 13 18  1  0  0  0  0
 13 12  2  0  0  0  0
 14 13  1  0  0  0  0
 15 14  2  0  0  0  0
 15 16  1  0  0  0  0
 16 11  2  0  0  0  0
 19 15  1  0  0  0  0
 20 21  2  0  0  0  0
 22 20  1  0  0  0  0
 22  6  1  0  0  0  0
 23 22  1  0  0  0  0
 24 20  1  0  0  0  0
 25 29  1  0  0  0  0
 25 24  1  0  0  0  0
 26 25  2  0  0  0  0
 27 28  1  0  0  0  0
 28 35  2  0  0  0  0
 28 29  1  0  0  0  0
 29 30  2  0  0  0  0
 30 32  1  0  0  0  0
 30 31  1  0  0  0  0
 33 34  1  0  0  0  0
 33 32  2  0  0  0  0
 35 33  1  0  0  0  0
 36 35  1  0  0  0  0
M  END
>  <minimizedAffinity>
-5.60368347

>  <minimizedRMSD>
0.709505498

$$$$
