
 OpenBabel03272500563D

 36 38  0  0  0  0  0  0  0  0999 V2000
   37.9510   31.3090   47.4930 C   0  0  0  0  0  0  0  0  0  0  0  0
   38.5750   32.5220   47.5650 C   0  0  0  0  0  0  0  0  0  0  0  0
   38.7890   33.1840   48.7790 C   0  0  0  0  0  0  0  0  0  0  0  0
   38.3190   32.5270   49.9830 C   0  0  0  0  0  0  0  0  0  0  0  0
   37.7100   31.3270   49.8420 C   0  0  0  0  0  0  0  0  0  0  0  0
   37.5060   30.7000   48.6680 C   0  0  0  0  0  0  0  0  0  0  0  0
   38.9420   33.0410   46.6640 H   0  0  0  0  0  0  0  0  0  0  0  0
   39.2940   34.1510   48.7590 H   0  0  0  0  0  0  0  0  0  0  0  0
   38.5510   33.1440   50.8190 H   0  0  0  0  0  0  0  0  0  0  0  0
   37.4750   31.0230   50.8510 H   0  0  0  0  0  0  0  0  0  0  0  0
   39.0060   30.2550   45.5540 C   0  0  0  0  0  0  0  0  0  0  0  0
   37.8270   30.7410   46.1670 C   0  0  0  0  0  0  0  0  0  0  0  0
   36.6890   30.5990   45.4120 C   0  0  0  0  0  0  0  0  0  0  0  0
   36.7390   30.0380   44.1910 N   0  0  0  0  0  0  0  0  0  0  0  0
   37.8430   29.5930   43.6380 C   0  0  0  0  0  0  0  0  0  0  0  0
   38.9690   29.7040   44.3240 N   0  0  0  0  0  0  0  0  0  0  0  0
   39.9500   30.3200   46.0630 H   0  0  0  0  0  0  0  0  0  0  0  0
   35.7860   30.9710   45.8800 H   0  0  0  0  0  0  0  0  0  0  0  0
   37.7570   29.1630   42.6550 H   0  0  0  0  0  0  0  0  0  0  0  0
   35.4100   29.6290   48.6620 C   0  0  0  0  0  0  0  0  0  0  0  0
   34.9100   30.8150   48.8150 O   0  0  0  0  0  0  0  0  0  0  0  0
   36.8530   29.4940   48.6010 N   0  0  0  0  0  0  0  0  0  0  0  0
   37.3220   28.5890   48.5210 H   0  0  0  0  0  0  0  0  0  0  0  0
   34.5620   28.5600   48.5670 O   0  0  0  0  0  0  0  0  0  0  0  0
   33.7840   28.2590   47.4550 C   0  0  0  0  0  0  0  0  0  0  0  0
   34.3050   28.1310   46.2530 O   0  0  0  0  0  0  0  0  0  0  0  0
   32.0640   30.2000   46.0050 Cl  0  0  0  0  0  0  0  0  0  0  0  0
   31.3990   28.8600   46.9440 C   0  0  0  0  0  0  0  0  0  0  0  0
   32.3230   28.0410   47.5630 C   0  0  0  0  0  0  0  0  0  0  0  0
   31.8190   27.0000   48.2930 C   0  0  0  0  0  0  0  0  0  0  0  0
   32.4920   26.3240   48.8000 H   0  0  0  0  0  0  0  0  0  0  0  0
   30.4700   26.7500   48.4290 C   0  0  0  0  0  3  0  0  0  0  0  0
   29.5660   27.5830   47.8010 C   0  0  0  0  0  0  0  0  0  0  0  0
   27.8330   27.3540   47.9090 Cl  0  0  0  0  0  0  0  0  0  0  0  0
   30.0420   28.6440   47.0560 C   0  0  0  0  0  0  0  0  0  0  0  0
   29.3750   29.3300   46.5420 H   0  0  0  0  0  0  0  0  0  0  0  0
  1  2  2  0  0  0  0
  1  6  1  0  0  0  0
  2  3  1  0  0  0  0
  3  4  2  0  0  0  0
  4  9  1  0  0  0  0
  5  4  1  0  0  0  0
  5 10  1  0  0  0  0
  6  5  2  0  0  0  0
  7  2  1  0  0  0  0
  8  3  1  0  0  0  0
 11 17  1  0  0  0  0
 11 12  1  0  0  0  0
 12  1  1  0  0  0  0
 13 18  1  0  0  0  0
 13 12  2  0  0  0  0
 14 13  1  0  0  0  0
 15 14  2  0  0  0  0
 15 16  1  0  0  0  0
 16 11  2  0  0  0  0
 19 15  1  0  0  0  0
 20 21  2  0  0  0  0
 22 20  1  0  0  0  0
 22  6  1  0  0  0  0
 23 22  1  0  0  0  0
 24 20  1  0  0  0  0
 25 29  1  0  0  0  0
 25 24  1  0  0  0  0
 26 25  2  0  0  0  0
 27 28  1  0  0  0  0
 28 35  2  0  0  0  0
 28 29  1  0  0  0  0
 29 30  2  0  0  0  0
 30 32  1  0  0  0  0
 30 31  1  0  0  0  0
 33 34  1  0  0  0  0
 33 32  2  0  0  0  0
 35 33  1  0  0  0  0
 36 35  1  0  0  0  0
M  END
>  <minimizedAffinity>
-5.81529856

>  <minimizedRMSD>
2.33663654

$$$$
