
 OpenBabel03272500593D

 36 38  0  0  0  0  0  0  0  0999 V2000
   39.8830   25.1950   34.7530 C   0  0  0  0  0  0  0  0  0  0  0  0
   41.2060   24.9710   35.0130 C   0  0  0  0  0  0  0  0  0  0  0  0
   42.2110   25.8520   34.5990 C   0  0  0  0  0  0  0  0  0  0  0  0
   41.7960   27.0340   33.8710 C   0  0  0  0  0  0  0  0  0  0  0  0
   40.4710   27.1970   33.6470 C   0  0  0  0  0  0  0  0  0  0  0  0
   39.5120   26.3410   34.0470 C   0  0  0  0  0  0  0  0  0  0  0  0
   41.5450   24.0800   35.5660 H   0  0  0  0  0  0  0  0  0  0  0  0
   43.2460   25.6070   34.8430 H   0  0  0  0  0  0  0  0  0  0  0  0
   42.6620   27.6040   33.6250 H   0  0  0  0  0  0  0  0  0  0  0  0
   40.3990   28.1390   33.1250 H   0  0  0  0  0  0  0  0  0  0  0  0
   38.7090   23.0680   34.4640 C   0  0  0  0  0  0  0  0  0  0  0  0
   38.9610   24.2040   35.2690 C   0  0  0  0  0  0  0  0  0  0  0  0
   38.2910   24.2170   36.4660 C   0  0  0  0  0  0  0  0  0  0  0  0
   37.4700   23.2090   36.8060 N   0  0  0  0  0  0  0  0  0  0  0  0
   37.2480   22.1620   36.0460 C   0  0  0  0  0  0  0  0  0  0  0  0
   37.8710   22.0990   34.8800 N   0  0  0  0  0  0  0  0  0  0  0  0
   39.1860   22.9630   33.5060 H   0  0  0  0  0  0  0  0  0  0  0  0
   38.4830   25.0870   37.0830 H   0  0  0  0  0  0  0  0  0  0  0  0
   36.5700   21.4180   36.4260 H   0  0  0  0  0  0  0  0  0  0  0  0
   37.5420   27.4510   34.7000 C   0  0  0  0  0  0  0  0  0  0  0  0
   38.2360   27.8910   35.7020 O   0  0  0  0  0  0  0  0  0  0  0  0
   38.1880   26.5590   33.7570 N   0  0  0  0  0  0  0  0  0  0  0  0
   37.6960   26.1410   32.9640 H   0  0  0  0  0  0  0  0  0  0  0  0
   36.2360   27.8410   34.5760 O   0  0  0  0  0  0  0  0  0  0  0  0
   35.8170   29.0530   34.0390 C   0  0  0  0  0  0  0  0  0  0  0  0
   35.8980   29.3100   32.7510 O   0  0  0  0  0  0  0  0  0  0  0  0
   32.8500   29.1890   34.0970 Cl  0  0  0  0  0  0  0  0  0  0  0  0
   33.8690   30.3050   35.0130 C   0  0  0  0  0  0  0  0  0  0  0  0
   35.2320   30.1180   34.8850 C   0  0  0  0  0  0  0  0  0  0  0  0
   36.0310   30.9760   35.5900 C   0  0  0  0  0  0  0  0  0  0  0  0
   37.1030   30.8800   35.5310 H   0  0  0  0  0  0  0  0  0  0  0  0
   35.5400   31.9840   36.3930 C   0  0  0  0  0  3  0  0  0  0  0  0
   34.1750   32.1510   36.5030 C   0  0  0  0  0  0  0  0  0  0  0  0
   33.4490   33.4000   37.4950 Cl  0  0  0  0  0  0  0  0  0  0  0  0
   33.3400   31.3020   35.8050 C   0  0  0  0  0  0  0  0  0  0  0  0
   32.2590   31.3870   35.8560 H   0  0  0  0  0  0  0  0  0  0  0  0
  1  2  1  0  0  0  0
  1 12  1  0  0  0  0
  2  7  1  0  0  0  0
  3  8  1  0  0  0  0
  3  2  2  0  0  0  0
  4  3  1  0  0  0  0
  5  4  2  0  0  0  0
  5  6  1  0  0  0  0
  6  1  2  0  0  0  0
  9  4  1  0  0  0  0
 10  5  1  0  0  0  0
 11 16  2  0  0  0  0
 11 12  1  0  0  0  0
 12 13  2  0  0  0  0
 13 14  1  0  0  0  0
 13 18  1  0  0  0  0
 15 19  1  0  0  0  0
 15 14  2  0  0  0  0
 16 15  1  0  0  0  0
 17 11  1  0  0  0  0
 20 21  2  0  0  0  0
 22  6  1  0  0  0  0
 22 20  1  0  0  0  0
 23 22  1  0  0  0  0
 24 20  1  0  0  0  0
 25 24  1  0  0  0  0
 25 29  1  0  0  0  0
 26 25  2  0  0  0  0
 27 28  1  0  0  0  0
 28 35  1  0  0  0  0
 29 28  2  0  0  0  0
 29 30  1  0  0  0  0
 30 32  2  0  0  0  0
 31 30  1  0  0  0  0
 32 33  1  0  0  0  0
 33 34  1  0  0  0  0
 35 36  1  0  0  0  0
 35 33  2  0  0  0  0
M  END
>  <minimizedAffinity>
-5.88999319

$$$$

 OpenBabel03272500593D

 36 38  0  0  0  0  0  0  0  0999 V2000
   38.6300   24.7980   36.2790 C   0  0  0  0  0  0  0  0  0  0  0  0
   38.0300   25.3050   37.3980 C   0  0  0  0  0  0  0  0  0  0  0  0
   38.0620   24.6430   38.6300 C   0  0  0  0  0  0  0  0  0  0  0  0
   38.7680   23.3780   38.6840 C   0  0  0  0  0  0  0  0  0  0  0  0
   39.3410   22.9330   37.5410 C   0  0  0  0  0  0  0  0  0  0  0  0
   39.3010   23.5760   36.3590 C   0  0  0  0  0  0  0  0  0  0  0  0
   37.4890   26.2650   37.3810 H   0  0  0  0  0  0  0  0  0  0  0  0
   37.5600   25.1080   39.4800 H   0  0  0  0  0  0  0  0  0  0  0  0
   38.7080   22.9970   39.6770 H   0  0  0  0  0  0  0  0  0  0  0  0
   39.8220   22.0090   37.8220 H   0  0  0  0  0  0  0  0  0  0  0  0
   39.6480   26.4140   34.7490 C   0  0  0  0  0  0  0  0  0  0  0  0
   38.5310   25.6130   35.0860 C   0  0  0  0  0  0  0  0  0  0  0  0
   37.4760   25.7060   34.2120 C   0  0  0  0  0  0  0  0  0  0  0  0
   37.5420   26.5080   33.1360 N   0  0  0  0  0  0  0  0  0  0  0  0
   38.5880   27.2450   32.8390 C   0  0  0  0  0  0  0  0  0  0  0  0
   39.6340   27.1910   33.6490 N   0  0  0  0  0  0  0  0  0  0  0  0
   40.5250   26.4120   35.3700 H   0  0  0  0  0  0  0  0  0  0  0  0
   36.6200   25.0940   34.4700 H   0  0  0  0  0  0  0  0  0  0  0  0
   38.5240   27.8470   31.9500 H   0  0  0  0  0  0  0  0  0  0  0  0
   39.0730   22.0190   34.6100 C   0  0  0  0  0  0  0  0  0  0  0  0
   37.9580   21.6850   35.1800 O   0  0  0  0  0  0  0  0  0  0  0  0
   39.8820   23.0480   35.2340 N   0  0  0  0  0  0  0  0  0  0  0  0
   40.7920   23.3370   34.8650 H   0  0  0  0  0  0  0  0  0  0  0  0
   39.4390   21.3890   33.4520 O   0  0  0  0  0  0  0  0  0  0  0  0
   38.5880   21.1340   32.3830 C   0  0  0  0  0  0  0  0  0  0  0  0
   38.5890   19.9820   31.7480 O   0  0  0  0  0  0  0  0  0  0  0  0
   35.7420   20.6020   33.0520 Cl  0  0  0  0  0  0  0  0  0  0  0  0
   36.2520   22.0310   32.1470 C   0  0  0  0  0  0  0  0  0  0  0  0
   37.6090   22.1420   31.9110 C   0  0  0  0  0  0  0  0  0  0  0  0
   38.0170   23.2440   31.2110 C   0  0  0  0  0  0  0  0  0  0  0  0
   39.0640   23.3860   30.9960 H   0  0  0  0  0  0  0  0  0  0  0  0
   37.1500   24.2130   30.7490 C   0  0  0  0  0  3  0  0  0  0  0  0
   35.7990   24.0790   30.9970 C   0  0  0  0  0  0  0  0  0  0  0  0
   34.6150   25.2510   30.4540 Cl  0  0  0  0  0  0  0  0  0  0  0  0
   35.3540   22.9780   31.7000 C   0  0  0  0  0  0  0  0  0  0  0  0
   34.3040   22.8230   31.9240 H   0  0  0  0  0  0  0  0  0  0  0  0
  1  6  2  0  0  0  0
  1  2  1  0  0  0  0
  2  3  2  0  0  0  0
  3  4  1  0  0  0  0
  3  8  1  0  0  0  0
  4  9  1  0  0  0  0
  5 10  1  0  0  0  0
  5  4  2  0  0  0  0
  6  5  1  0  0  0  0
  7  2  1  0  0  0  0
 11 12  1  0  0  0  0
 11 17  1  0  0  0  0
 12  1  1  0  0  0  0
 13 18  1  0  0  0  0
 13 12  2  0  0  0  0
 14 13  1  0  0  0  0
 15 14  2  0  0  0  0
 15 16  1  0  0  0  0
 16 11  2  0  0  0  0
 19 15  1  0  0  0  0
 20 21  2  0  0  0  0
 20 22  1  0  0  0  0
 22  6  1  0  0  0  0
 23 22  1  0  0  0  0
 24 20  1  0  0  0  0
 25 24  1  0  0  0  0
 26 25  2  0  0  0  0
 28 27  1  0  0  0  0
 29 28  1  0  0  0  0
 29 25  1  0  0  0  0
 30 29  2  0  0  0  0
 31 30  1  0  0  0  0
 32 33  2  0  0  0  0
 32 30  1  0  0  0  0
 33 35  1  0  0  0  0
 34 33  1  0  0  0  0
 35 36  1  0  0  0  0
 35 28  2  0  0  0  0
M  END
>  <minimizedAffinity>
-5.80758667

$$$$

 OpenBabel03272500593D

 36 38  0  0  0  0  0  0  0  0999 V2000
   33.4340   30.9970   35.6080 C   0  0  0  0  0  0  0  0  0  0  0  0
   33.6280   31.5940   36.8220 C   0  0  0  0  0  0  0  0  0  0  0  0
   34.7670   32.3540   37.1110 C   0  0  0  0  0  0  0  0  0  0  0  0
   35.7540   32.4930   36.0590 C   0  0  0  0  0  0  0  0  0  0  0  0
   35.5020   31.8780   34.8800 C   0  0  0  0  0  0  0  0  0  0  0  0
   34.4030   31.1460   34.6130 C   0  0  0  0  0  0  0  0  0  0  0  0
   32.8910   31.5030   37.6370 H   0  0  0  0  0  0  0  0  0  0  0  0
   34.8530   32.7990   38.1030 H   0  0  0  0  0  0  0  0  0  0  0  0
   36.5560   33.0920   36.4220 H   0  0  0  0  0  0  0  0  0  0  0  0
   36.3420   32.1380   34.2540 H   0  0  0  0  0  0  0  0  0  0  0  0
   32.1770   28.9170   35.8830 C   0  0  0  0  0  0  0  0  0  0  0  0
   32.1940   30.2660   35.4540 C   0  0  0  0  0  0  0  0  0  0  0  0
   31.0040   30.7190   34.9450 C   0  0  0  0  0  0  0  0  0  0  0  0
   29.9310   29.9110   34.8770 N   0  0  0  0  0  0  0  0  0  0  0  0
   29.9340   28.6610   35.2800 C   0  0  0  0  0  0  0  0  0  0  0  0
   31.0580   28.1740   35.7800 N   0  0  0  0  0  0  0  0  0  0  0  0
   33.0610   28.4670   36.2970 H   0  0  0  0  0  0  0  0  0  0  0  0
   31.0160   31.7510   34.6150 H   0  0  0  0  0  0  0  0  0  0  0  0
   29.0140   28.1130   35.1750 H   0  0  0  0  0  0  0  0  0  0  0  0
   34.9080   29.2480   33.3160 C   0  0  0  0  0  0  0  0  0  0  0  0
   35.6160   28.8610   34.3300 O   0  0  0  0  0  0  0  0  0  0  0  0
   34.2300   30.5270   33.4000 N   0  0  0  0  0  0  0  0  0  0  0  0
   33.6850   30.9180   32.6270 H   0  0  0  0  0  0  0  0  0  0  0  0
   34.8320   28.4410   32.2140 O   0  0  0  0  0  0  0  0  0  0  0  0
   35.9190   27.8200   31.6080 C   0  0  0  0  0  0  0  0  0  0  0  0
   36.8160   28.4960   30.9230 O   0  0  0  0  0  0  0  0  0  0  0  0
   38.1490   26.9740   33.3800 Cl  0  0  0  0  0  0  0  0  0  0  0  0
   37.1410   25.8160   32.5060 C   0  0  0  0  0  0  0  0  0  0  0  0
   36.1430   26.3600   31.7210 C   0  0  0  0  0  0  0  0  0  0  0  0
   35.3550   25.4740   31.0390 C   0  0  0  0  0  0  0  0  0  0  0  0
   34.5590   25.8370   30.4090 H   0  0  0  0  0  0  0  0  0  0  0  0
   35.5180   24.1060   31.1070 C   0  0  0  0  0  3  0  0  0  0  0  0
   36.5220   23.5870   31.8980 C   0  0  0  0  0  0  0  0  0  0  0  0
   36.8150   21.8660   32.0540 Cl  0  0  0  0  0  0  0  0  0  0  0  0
   37.3360   24.4540   32.5990 C   0  0  0  0  0  0  0  0  0  0  0  0
   38.1400   24.1010   33.2370 H   0  0  0  0  0  0  0  0  0  0  0  0
  1  2  1  0  0  0  0
  2  3  2  0  0  0  0
  2  7  1  0  0  0  0
  3  8  1  0  0  0  0
  4  9  1  0  0  0  0
  4  3  1  0  0  0  0
  5  4  2  0  0  0  0
  6  5  1  0  0  0  0
  6  1  2  0  0  0  0
 10  5  1  0  0  0  0
 11 17  1  0  0  0  0
 12  1  1  0  0  0  0
 12 11  2  0  0  0  0
 13 12  1  0  0  0  0
 14 13  2  0  0  0  0
 14 15  1  0  0  0  0
 15 16  2  0  0  0  0
 16 11  1  0  0  0  0
 18 13  1  0  0  0  0
 19 15  1  0  0  0  0
 20 22  1  0  0  0  0
 20 21  2  0  0  0  0
 22  6  1  0  0  0  0
 23 22  1  0  0  0  0
 24 20  1  0  0  0  0
 25 29  1  0  0  0  0
 25 24  1  0  0  0  0
 26 25  2  0  0  0  0
 28 35  1  0  0  0  0
 28 27  1  0  0  0  0
 29 28  2  0  0  0  0
 30 32  2  0  0  0  0
 30 29  1  0  0  0  0
 31 30  1  0  0  0  0
 32 33  1  0  0  0  0
 33 34  1  0  0  0  0
 33 35  2  0  0  0  0
 35 36  1  0  0  0  0
M  END
>  <minimizedAffinity>
-5.73461866

$$$$

 OpenBabel03272500593D

 36 38  0  0  0  0  0  0  0  0999 V2000
   33.5960   30.5210   35.6530 C   0  0  0  0  0  0  0  0  0  0  0  0
   33.2350   31.5100   36.5240 C   0  0  0  0  0  0  0  0  0  0  0  0
   34.1300   32.4990   36.9480 C   0  0  0  0  0  0  0  0  0  0  0  0
   35.4790   32.4400   36.4230 C   0  0  0  0  0  0  0  0  0  0  0  0
   35.7720   31.4360   35.5640 C   0  0  0  0  0  0  0  0  0  0  0  0
   34.9040   30.4870   35.1640 C   0  0  0  0  0  0  0  0  0  0  0  0
   32.2150   31.5760   36.9360 H   0  0  0  0  0  0  0  0  0  0  0  0
   33.7710   33.2560   37.6460 H   0  0  0  0  0  0  0  0  0  0  0  0
   36.0390   33.2480   36.8310 H   0  0  0  0  0  0  0  0  0  0  0  0
   36.8020   31.6060   35.2890 H   0  0  0  0  0  0  0  0  0  0  0  0
   32.1190   28.6750   36.2810 C   0  0  0  0  0  0  0  0  0  0  0  0
   32.5510   29.5870   35.2890 C   0  0  0  0  0  0  0  0  0  0  0  0
   31.9020   29.4730   34.0850 C   0  0  0  0  0  0  0  0  0  0  0  0
   30.9390   28.5520   33.9070 N   0  0  0  0  0  0  0  0  0  0  0  0
   30.5520   27.7130   34.8400 C   0  0  0  0  0  0  0  0  0  0  0  0
   31.1450   27.7820   36.0210 N   0  0  0  0  0  0  0  0  0  0  0  0
   32.5660   28.6840   37.2590 H   0  0  0  0  0  0  0  0  0  0  0  0
   32.2330   30.1700   33.3250 H   0  0  0  0  0  0  0  0  0  0  0  0
   29.7700   27.0210   34.5790 H   0  0  0  0  0  0  0  0  0  0  0  0
   35.4310   29.9290   32.9390 C   0  0  0  0  0  0  0  0  0  0  0  0
   35.1560   31.1650   32.6640 O   0  0  0  0  0  0  0  0  0  0  0  0
   35.2830   29.4810   34.3110 N   0  0  0  0  0  0  0  0  0  0  0  0
   35.4430   28.5120   34.5980 H   0  0  0  0  0  0  0  0  0  0  0  0
   35.8440   29.1020   31.9300 O   0  0  0  0  0  0  0  0  0  0  0  0
   36.2900   27.7970   32.1060 C   0  0  0  0  0  0  0  0  0  0  0  0
   35.5550   26.7580   31.7750 O   0  0  0  0  0  0  0  0  0  0  0  0
   38.5250   27.7890   30.1480 Cl  0  0  0  0  0  0  0  0  0  0  0  0
   38.7690   27.4640   31.8670 C   0  0  0  0  0  0  0  0  0  0  0  0
   37.6350   27.5020   32.6540 C   0  0  0  0  0  0  0  0  0  0  0  0
   37.8110   27.2510   33.9870 C   0  0  0  0  0  0  0  0  0  0  0  0
   36.9630   27.2670   34.6520 H   0  0  0  0  0  0  0  0  0  0  0  0
   39.0380   26.9720   34.5510 C   0  0  0  0  0  3  0  0  0  0  0  0
   40.1570   26.9390   33.7430 C   0  0  0  0  0  0  0  0  0  0  0  0
   41.7610   26.5930   34.3580 Cl  0  0  0  0  0  0  0  0  0  0  0  0
   40.0140   27.1870   32.3930 C   0  0  0  0  0  0  0  0  0  0  0  0
   40.8590   27.1750   31.7120 H   0  0  0  0  0  0  0  0  0  0  0  0
  1  2  1  0  0  0  0
  2  7  1  0  0  0  0
  2  3  2  0  0  0  0
  3  8  1  0  0  0  0
  4  9  1  0  0  0  0
  4  3  1  0  0  0  0
  5  4  2  0  0  0  0
  6  5  1  0  0  0  0
  6  1  2  0  0  0  0
 10  5  1  0  0  0  0
 11 17  1  0  0  0  0
 12  1  1  0  0  0  0
 12 11  2  0  0  0  0
 13 12  1  0  0  0  0
 14 13  2  0  0  0  0
 14 15  1  0  0  0  0
 15 16  2  0  0  0  0
 16 11  1  0  0  0  0
 18 13  1  0  0  0  0
 19 15  1  0  0  0  0
 20 22  1  0  0  0  0
 21 20  2  0  0  0  0
 22 23  1  0  0  0  0
 22  6  1  0  0  0  0
 24 25  1  0  0  0  0
 24 20  1  0  0  0  0
 25 29  1  0  0  0  0
 26 25  2  0  0  0  0
 27 28  1  0  0  0  0
 28 35  2  0  0  0  0
 28 29  1  0  0  0  0
 29 30  2  0  0  0  0
 30 32  1  0  0  0  0
 30 31  1  0  0  0  0
 33 34  1  0  0  0  0
 33 32  2  0  0  0  0
 35 33  1  0  0  0  0
 36 35  1  0  0  0  0
M  END
>  <minimizedAffinity>
-5.71870136

$$$$

 OpenBabel03272500593D

 36 38  0  0  0  0  0  0  0  0999 V2000
   36.7150   27.4930   32.6720 C   0  0  0  0  0  0  0  0  0  0  0  0
   36.3310   28.5860   31.9460 C   0  0  0  0  0  0  0  0  0  0  0  0
   35.9000   29.7730   32.5480 C   0  0  0  0  0  0  0  0  0  0  0  0
   35.8740   29.8080   33.9970 C   0  0  0  0  0  0  0  0  0  0  0  0
   36.2680   28.6940   34.6560 C   0  0  0  0  0  0  0  0  0  0  0  0
   36.6780   27.5540   34.0660 C   0  0  0  0  0  0  0  0  0  0  0  0
   36.3420   28.5830   30.8430 H   0  0  0  0  0  0  0  0  0  0  0  0
   35.6080   30.6030   31.9040 H   0  0  0  0  0  0  0  0  0  0  0  0
   35.5290   30.7660   34.3080 H   0  0  0  0  0  0  0  0  0  0  0  0
   36.1940   28.9570   35.7000 H   0  0  0  0  0  0  0  0  0  0  0  0
   36.1920   25.3690   31.5780 C   0  0  0  0  0  0  0  0  0  0  0  0
   37.1590   26.3490   31.9040 C   0  0  0  0  0  0  0  0  0  0  0  0
   38.4210   26.0880   31.4310 C   0  0  0  0  0  0  0  0  0  0  0  0
   38.6730   24.9750   30.7200 N   0  0  0  0  0  0  0  0  0  0  0  0
   37.7620   24.0760   30.4270 C   0  0  0  0  0  0  0  0  0  0  0  0
   36.5280   24.2800   30.8580 N   0  0  0  0  0  0  0  0  0  0  0  0
   35.1730   25.4810   31.9020 H   0  0  0  0  0  0  0  0  0  0  0  0
   39.1620   26.8370   31.6810 H   0  0  0  0  0  0  0  0  0  0  0  0
   38.0830   23.2260   29.8500 H   0  0  0  0  0  0  0  0  0  0  0  0
   38.4430   26.4370   35.1490 C   0  0  0  0  0  0  0  0  0  0  0  0
   39.1950   27.3960   34.7070 O   0  0  0  0  0  0  0  0  0  0  0  0
   37.0350   26.4530   34.8020 N   0  0  0  0  0  0  0  0  0  0  0  0
   36.3880   25.7120   35.0810 H   0  0  0  0  0  0  0  0  0  0  0  0
   39.0060   25.4550   35.9170 O   0  0  0  0  0  0  0  0  0  0  0  0
   38.8540   24.0900   35.6990 C   0  0  0  0  0  0  0  0  0  0  0  0
   37.7650   23.5870   35.1580 O   0  0  0  0  0  0  0  0  0  0  0  0
   39.0080   23.2740   38.5520 Cl  0  0  0  0  0  0  0  0  0  0  0  0
   40.1180   22.6520   37.3260 C   0  0  0  0  0  0  0  0  0  0  0  0
   39.9220   23.1240   36.0430 C   0  0  0  0  0  0  0  0  0  0  0  0
   40.7760   22.6490   35.0840 C   0  0  0  0  0  0  0  0  0  0  0  0
   40.6740   22.9800   34.0640 H   0  0  0  0  0  0  0  0  0  0  0  0
   41.7870   21.7490   35.3480 C   0  0  0  0  0  3  0  0  0  0  0  0
   41.9620   21.2930   36.6380 C   0  0  0  0  0  0  0  0  0  0  0  0
   43.2150   20.1500   37.0790 Cl  0  0  0  0  0  0  0  0  0  0  0  0
   41.1180   21.7520   37.6290 C   0  0  0  0  0  0  0  0  0  0  0  0
   41.2090   21.4260   38.6610 H   0  0  0  0  0  0  0  0  0  0  0  0
  1  6  1  0  0  0  0
  2  3  1  0  0  0  0
  2  1  2  0  0  0  0
  3  4  2  0  0  0  0
  4  9  1  0  0  0  0
  4  5  1  0  0  0  0
  5 10  1  0  0  0  0
  6  5  2  0  0  0  0
  6 22  1  0  0  0  0
  7  2  1  0  0  0  0
  8  3  1  0  0  0  0
 11 17  1  0  0  0  0
 11 12  1  0  0  0  0
 12  1  1  0  0  0  0
 13 18  1  0  0  0  0
 13 12  2  0  0  0  0
 14 13  1  0  0  0  0
 15 14  2  0  0  0  0
 15 16  1  0  0  0  0
 16 11  2  0  0  0  0
 19 15  1  0  0  0  0
 20 24  1  0  0  0  0
 21 20  2  0  0  0  0
 22 23  1  0  0  0  0
 22 20  1  0  0  0  0
 25 24  1  0  0  0  0
 25 29  1  0  0  0  0
 26 25  2  0  0  0  0
 28 35  1  0  0  0  0
 28 27  1  0  0  0  0
 29 28  2  0  0  0  0
 30 32  2  0  0  0  0
 30 29  1  0  0  0  0
 31 30  1  0  0  0  0
 32 33  1  0  0  0  0
 33 34  1  0  0  0  0
 33 35  2  0  0  0  0
 35 36  1  0  0  0  0
M  END
>  <minimizedAffinity>
-5.71406078

$$$$

 OpenBabel03272500593D

 36 38  0  0  0  0  0  0  0  0999 V2000
   37.1960   22.0880   33.3610 C   0  0  0  0  0  0  0  0  0  0  0  0
   36.4640   21.1300   34.0040 C   0  0  0  0  0  0  0  0  0  0  0  0
   35.4410   20.4160   33.3700 C   0  0  0  0  0  0  0  0  0  0  0  0
   35.1780   20.7310   31.9800 C   0  0  0  0  0  0  0  0  0  0  0  0
   35.9400   21.6890   31.4010 C   0  0  0  0  0  0  0  0  0  0  0  0
   36.9200   22.3730   32.0220 C   0  0  0  0  0  0  0  0  0  0  0  0
   36.6460   20.8720   35.0610 H   0  0  0  0  0  0  0  0  0  0  0  0
   34.8980   19.6660   33.9470 H   0  0  0  0  0  0  0  0  0  0  0  0
   34.3820   20.1140   31.6350 H   0  0  0  0  0  0  0  0  0  0  0  0
   35.5910   21.7330   30.3810 H   0  0  0  0  0  0  0  0  0  0  0  0
   39.4850   22.0590   34.2240 C   0  0  0  0  0  0  0  0  0  0  0  0
   38.2360   22.7200   34.1460 C   0  0  0  0  0  0  0  0  0  0  0  0
   38.1730   23.9070   34.8320 C   0  0  0  0  0  0  0  0  0  0  0  0
   39.2380   24.3670   35.5110 N   0  0  0  0  0  0  0  0  0  0  0  0
   40.3900   23.7390   35.5720 C   0  0  0  0  0  0  0  0  0  0  0  0
   40.5040   22.5890   34.9270 N   0  0  0  0  0  0  0  0  0  0  0  0
   39.6360   21.1210   33.7210 H   0  0  0  0  0  0  0  0  0  0  0  0
   37.2170   24.4130   34.7730 H   0  0  0  0  0  0  0  0  0  0  0  0
   41.1700   24.2060   36.1480 H   0  0  0  0  0  0  0  0  0  0  0  0
   36.9130   24.6090   31.2910 C   0  0  0  0  0  0  0  0  0  0  0  0
   35.7090   24.6620   31.7660 O   0  0  0  0  0  0  0  0  0  0  0  0
   37.6320   23.3530   31.3770 N   0  0  0  0  0  0  0  0  0  0  0  0
   38.5700   23.2230   30.9900 H   0  0  0  0  0  0  0  0  0  0  0  0
   37.4520   25.7340   30.7280 O   0  0  0  0  0  0  0  0  0  0  0  0
   38.0480   26.7700   31.4390 C   0  0  0  0  0  0  0  0  0  0  0  0
   39.3380   27.0170   31.3620 O   0  0  0  0  0  0  0  0  0  0  0  0
   36.7090   29.0470   30.0800 Cl  0  0  0  0  0  0  0  0  0  0  0  0
   36.5790   28.7720   31.8200 C   0  0  0  0  0  0  0  0  0  0  0  0
   37.2580   27.6720   32.3080 C   0  0  0  0  0  0  0  0  0  0  0  0
   37.1650   27.4490   33.6540 C   0  0  0  0  0  0  0  0  0  0  0  0
   37.6730   26.6060   34.0940 H   0  0  0  0  0  0  0  0  0  0  0  0
   36.4430   28.2560   34.5090 C   0  0  0  0  0  3  0  0  0  0  0  0
   35.7750   29.3490   33.9970 C   0  0  0  0  0  0  0  0  0  0  0  0
   34.8310   30.4370   34.9960 Cl  0  0  0  0  0  0  0  0  0  0  0  0
   35.8480   29.6030   32.6430 C   0  0  0  0  0  0  0  0  0  0  0  0
   35.3410   30.4480   32.1870 H   0  0  0  0  0  0  0  0  0  0  0  0
  1  2  1  0  0  0  0
  1 12  1  0  0  0  0
  2  7  1  0  0  0  0
  3  8  1  0  0  0  0
  3  2  2  0  0  0  0
  4  3  1  0  0  0  0
  5  4  2  0  0  0  0
  5  6  1  0  0  0  0
  6  1  2  0  0  0  0
  9  4  1  0  0  0  0
 10  5  1  0  0  0  0
 11 16  1  0  0  0  0
 12 11  2  0  0  0  0
 12 13  1  0  0  0  0
 13 14  2  0  0  0  0
 14 15  1  0  0  0  0
 15 19  1  0  0  0  0
 16 15  2  0  0  0  0
 17 11  1  0  0  0  0
 18 13  1  0  0  0  0
 20 22  1  0  0  0  0
 20 21  2  0  0  0  0
 22  6  1  0  0  0  0
 23 22  1  0  0  0  0
 24 20  1  0  0  0  0
 24 25  1  0  0  0  0
 25 29  1  0  0  0  0
 26 25  2  0  0  0  0
 27 28  1  0  0  0  0
 28 29  2  0  0  0  0
 28 35  1  0  0  0  0
 29 30  1  0  0  0  0
 30 31  1  0  0  0  0
 30 32  2  0  0  0  0
 33 32  1  0  0  0  0
 33 34  1  0  0  0  0
 35 33  2  0  0  0  0
 36 35  1  0  0  0  0
M  END
>  <minimizedAffinity>
-5.63521624

$$$$

 OpenBabel03272500593D

 36 38  0  0  0  0  0  0  0  0999 V2000
   41.1970   22.3570   36.6000 C   0  0  0  0  0  0  0  0  0  0  0  0
   41.6840   21.2070   37.1550 C   0  0  0  0  0  0  0  0  0  0  0  0
   43.0160   20.8070   37.0020 C   0  0  0  0  0  0  0  0  0  0  0  0
   43.8820   21.6690   36.2230 C   0  0  0  0  0  0  0  0  0  0  0  0
   43.3370   22.7940   35.7020 C   0  0  0  0  0  0  0  0  0  0  0  0
   42.0530   23.1690   35.8520 C   0  0  0  0  0  0  0  0  0  0  0  0
   41.0460   20.5350   37.7520 H   0  0  0  0  0  0  0  0  0  0  0  0
   43.3340   19.8750   37.4730 H   0  0  0  0  0  0  0  0  0  0  0  0
   44.8550   21.2400   36.1950 H   0  0  0  0  0  0  0  0  0  0  0  0
   44.1570   23.2820   35.1970 H   0  0  0  0  0  0  0  0  0  0  0  0
   39.4860   23.1940   38.1350 C   0  0  0  0  0  0  0  0  0  0  0  0
   39.8040   22.6470   36.8690 C   0  0  0  0  0  0  0  0  0  0  0  0
   38.7280   22.4660   36.0370 C   0  0  0  0  0  0  0  0  0  0  0  0
   37.4870   22.7960   36.4340 N   0  0  0  0  0  0  0  0  0  0  0  0
   37.2100   23.3030   37.6130 C   0  0  0  0  0  0  0  0  0  0  0  0
   38.2130   23.4980   38.4550 N   0  0  0  0  0  0  0  0  0  0  0  0
   40.2590   23.3740   38.8600 H   0  0  0  0  0  0  0  0  0  0  0  0
   38.9710   22.0460   35.0680 H   0  0  0  0  0  0  0  0  0  0  0  0
   36.1780   23.5270   37.8170 H   0  0  0  0  0  0  0  0  0  0  0  0
   41.1340   24.1070   33.8990 C   0  0  0  0  0  0  0  0  0  0  0  0
   41.2920   22.9330   33.3750 O   0  0  0  0  0  0  0  0  0  0  0  0
   41.5650   24.3110   35.2690 N   0  0  0  0  0  0  0  0  0  0  0  0
   41.5080   25.2180   35.7380 H   0  0  0  0  0  0  0  0  0  0  0  0
   40.5740   25.1000   33.1430 O   0  0  0  0  0  0  0  0  0  0  0  0
   40.2840   26.3800   33.6020 C   0  0  0  0  0  0  0  0  0  0  0  0
   41.1810   27.1210   34.2160 O   0  0  0  0  0  0  0  0  0  0  0  0
   38.5130   26.4590   35.9850 Cl  0  0  0  0  0  0  0  0  0  0  0  0
   38.0200   27.1030   34.4160 C   0  0  0  0  0  0  0  0  0  0  0  0
   38.9510   26.9950   33.4020 C   0  0  0  0  0  0  0  0  0  0  0  0
   38.5810   27.4900   32.1810 C   0  0  0  0  0  0  0  0  0  0  0  0
   39.2650   27.4340   31.3500 H   0  0  0  0  0  0  0  0  0  0  0  0
   37.3540   28.0730   31.9390 C   0  0  0  0  0  3  0  0  0  0  0  0
   36.4410   28.1690   32.9690 C   0  0  0  0  0  0  0  0  0  0  0  0
   34.8570   28.8890   32.7680 Cl  0  0  0  0  0  0  0  0  0  0  0  0
   36.7830   27.6780   34.2130 C   0  0  0  0  0  0  0  0  0  0  0  0
   36.1040   27.7290   35.0590 H   0  0  0  0  0  0  0  0  0  0  0  0
  1 12  1  0  0  0  0
  1  2  1  0  0  0  0
  2  7  1  0  0  0  0
  3  2  2  0  0  0  0
  3  8  1  0  0  0  0
  4  3  1  0  0  0  0
  5  6  1  0  0  0  0
  5  4  2  0  0  0  0
  6  1  2  0  0  0  0
  9  4  1  0  0  0  0
 10  5  1  0  0  0  0
 11 16  1  0  0  0  0
 11 17  1  0  0  0  0
 12 11  2  0  0  0  0
 13 14  2  0  0  0  0
 13 12  1  0  0  0  0
 14 15  1  0  0  0  0
 15 19  1  0  0  0  0
 15 16  2  0  0  0  0
 18 13  1  0  0  0  0
 20 22  1  0  0  0  0
 21 20  2  0  0  0  0
 22 23  1  0  0  0  0
 22  6  1  0  0  0  0
 24 25  1  0  0  0  0
 24 20  1  0  0  0  0
 25 26  2  0  0  0  0
 28 27  1  0  0  0  0
 29 25  1  0  0  0  0
 29 28  2  0  0  0  0
 30 29  1  0  0  0  0
 31 30  1  0  0  0  0
 32 30  2  0  0  0  0
 32 33  1  0  0  0  0
 33 35  2  0  0  0  0
 34 33  1  0  0  0  0
 35 28  1  0  0  0  0
 35 36  1  0  0  0  0
M  END
>  <minimizedAffinity>
-5.61077881

$$$$

 OpenBabel03272500593D

 36 38  0  0  0  0  0  0  0  0999 V2000
   36.3830   29.7120   30.8960 C   0  0  0  0  0  0  0  0  0  0  0  0
   36.9030   30.9230   30.5350 C   0  0  0  0  0  0  0  0  0  0  0  0
   37.7240   31.0820   29.4130 C   0  0  0  0  0  0  0  0  0  0  0  0
   38.0110   29.8970   28.6300 C   0  0  0  0  0  0  0  0  0  0  0  0
   37.4650   28.7280   29.0420 C   0  0  0  0  0  0  0  0  0  0  0  0
   36.6780   28.5860   30.1250 C   0  0  0  0  0  0  0  0  0  0  0  0
   36.6980   31.8380   31.1140 H   0  0  0  0  0  0  0  0  0  0  0  0
   38.1030   32.0790   29.1870 H   0  0  0  0  0  0  0  0  0  0  0  0
   38.6420   30.1700   27.8170 H   0  0  0  0  0  0  0  0  0  0  0  0
   37.7860   28.0060   28.3070 H   0  0  0  0  0  0  0  0  0  0  0  0
   34.1990   30.1650   31.9020 C   0  0  0  0  0  0  0  0  0  0  0  0
   35.5310   29.7140   32.0670 C   0  0  0  0  0  0  0  0  0  0  0  0
   35.8470   29.3200   33.3430 C   0  0  0  0  0  0  0  0  0  0  0  0
   34.9330   29.3750   34.3270 N   0  0  0  0  0  0  0  0  0  0  0  0
   33.7010   29.7970   34.1550 C   0  0  0  0  0  0  0  0  0  0  0  0
   33.3440   30.1890   32.9430 N   0  0  0  0  0  0  0  0  0  0  0  0
   33.8530   30.4970   30.9400 H   0  0  0  0  0  0  0  0  0  0  0  0
   36.8660   28.9750   33.4700 H   0  0  0  0  0  0  0  0  0  0  0  0
   33.0600   29.7950   35.0190 H   0  0  0  0  0  0  0  0  0  0  0  0
   37.0870   26.6240   31.3590 C   0  0  0  0  0  0  0  0  0  0  0  0
   38.2370   27.1530   31.6370 O   0  0  0  0  0  0  0  0  0  0  0  0
   36.1830   27.3610   30.4970 N   0  0  0  0  0  0  0  0  0  0  0  0
   35.2750   26.9930   30.2010 H   0  0  0  0  0  0  0  0  0  0  0  0
   36.7760   25.4000   31.8850 O   0  0  0  0  0  0  0  0  0  0  0  0
   35.9210   24.4760   31.2940 C   0  0  0  0  0  0  0  0  0  0  0  0
   34.8890   24.8450   30.5670 O   0  0  0  0  0  0  0  0  0  0  0  0
   38.4160   23.4100   30.0840 Cl  0  0  0  0  0  0  0  0  0  0  0  0
   37.2530   22.3780   30.9200 C   0  0  0  0  0  0  0  0  0  0  0  0
   36.1390   23.0170   31.4310 C   0  0  0  0  0  0  0  0  0  0  0  0
   35.2300   22.2280   32.0810 C   0  0  0  0  0  0  0  0  0  0  0  0
   34.3410   22.6690   32.5010 H   0  0  0  0  0  0  0  0  0  0  0  0
   35.3830   20.8660   32.2380 C   0  0  0  0  0  3  0  0  0  0  0  0
   36.5030   20.2510   31.7180 C   0  0  0  0  0  0  0  0  0  0  0  0
   36.7930   18.5290   31.8620 Cl  0  0  0  0  0  0  0  0  0  0  0  0
   37.4400   21.0180   31.0560 C   0  0  0  0  0  0  0  0  0  0  0  0
   38.3400   20.5870   30.6290 H   0  0  0  0  0  0  0  0  0  0  0  0
  1 12  1  0  0  0  0
  2  1  1  0  0  0  0
  2  7  1  0  0  0  0
  3  2  2  0  0  0  0
  4  5  2  0  0  0  0
  4  3  1  0  0  0  0
  5  6  1  0  0  0  0
  6 22  1  0  0  0  0
  6  1  2  0  0  0  0
  8  3  1  0  0  0  0
  9  4  1  0  0  0  0
 10  5  1  0  0  0  0
 11 12  2  0  0  0  0
 11 16  1  0  0  0  0
 12 13  1  0  0  0  0
 13 18  1  0  0  0  0
 13 14  2  0  0  0  0
 15 14  1  0  0  0  0
 15 19  1  0  0  0  0
 16 15  2  0  0  0  0
 17 11  1  0  0  0  0
 20 21  2  0  0  0  0
 20 24  1  0  0  0  0
 22 20  1  0  0  0  0
 23 22  1  0  0  0  0
 25 29  1  0  0  0  0
 25 24  1  0  0  0  0
 26 25  2  0  0  0  0
 27 28  1  0  0  0  0
 28 35  2  0  0  0  0
 28 29  1  0  0  0  0
 29 30  2  0  0  0  0
 30 32  1  0  0  0  0
 30 31  1  0  0  0  0
 33 34  1  0  0  0  0
 33 32  2  0  0  0  0
 35 33  1  0  0  0  0
 36 35  1  0  0  0  0
M  END
>  <minimizedAffinity>
-5.59371424

$$$$

 OpenBabel03272500593D

 36 38  0  0  0  0  0  0  0  0999 V2000
   33.7130   30.4960   35.4430 C   0  0  0  0  0  0  0  0  0  0  0  0
   33.4830   31.2370   36.5680 C   0  0  0  0  0  0  0  0  0  0  0  0
   34.3940   32.1900   37.0370 C   0  0  0  0  0  0  0  0  0  0  0  0
   35.6140   32.3710   36.2760 C   0  0  0  0  0  0  0  0  0  0  0  0
   35.7800   31.6060   35.1720 C   0  0  0  0  0  0  0  0  0  0  0  0
   34.8980   30.6890   34.7300 C   0  0  0  0  0  0  0  0  0  0  0  0
   32.5630   31.1180   37.1630 H   0  0  0  0  0  0  0  0  0  0  0  0
   34.1430   32.7440   37.9430 H   0  0  0  0  0  0  0  0  0  0  0  0
   36.2030   33.1210   36.7490 H   0  0  0  0  0  0  0  0  0  0  0  0
   36.7250   31.9270   34.7600 H   0  0  0  0  0  0  0  0  0  0  0  0
   32.1420   28.7360   36.0900 C   0  0  0  0  0  0  0  0  0  0  0  0
   32.6650   29.5690   35.0720 C   0  0  0  0  0  0  0  0  0  0  0  0
   32.0910   29.3930   33.8380 C   0  0  0  0  0  0  0  0  0  0  0  0
   31.1120   28.4900   33.6570 N   0  0  0  0  0  0  0  0  0  0  0  0
   30.6400   27.7250   34.6140 C   0  0  0  0  0  0  0  0  0  0  0  0
   31.1580   27.8550   35.8240 N   0  0  0  0  0  0  0  0  0  0  0  0
   32.5250   28.7970   37.0930 H   0  0  0  0  0  0  0  0  0  0  0  0
   32.4910   30.0300   33.0580 H   0  0  0  0  0  0  0  0  0  0  0  0
   29.8550   27.0390   34.3470 H   0  0  0  0  0  0  0  0  0  0  0  0
   36.0820   28.8470   33.8670 C   0  0  0  0  0  0  0  0  0  0  0  0
   36.5960   28.7430   35.0520 O   0  0  0  0  0  0  0  0  0  0  0  0
   35.1500   29.9290   33.6150 N   0  0  0  0  0  0  0  0  0  0  0  0
   34.7330   30.0990   32.6970 H   0  0  0  0  0  0  0  0  0  0  0  0
   36.4400   27.9390   32.9080 O   0  0  0  0  0  0  0  0  0  0  0  0
   37.2710   26.8450   33.1210 C   0  0  0  0  0  0  0  0  0  0  0  0
   36.7950   25.6340   33.3130 O   0  0  0  0  0  0  0  0  0  0  0  0
   38.5460   27.2110   30.4630 Cl  0  0  0  0  0  0  0  0  0  0  0  0
   39.4790   27.1530   31.9620 C   0  0  0  0  0  0  0  0  0  0  0  0
   38.7460   26.9780   33.1200 C   0  0  0  0  0  0  0  0  0  0  0  0
   39.4570   26.9310   34.2880 C   0  0  0  0  0  0  0  0  0  0  0  0
   38.9420   26.7960   35.2250 H   0  0  0  0  0  0  0  0  0  0  0  0
   40.8310   27.0490   34.3450 C   0  0  0  0  0  3  0  0  0  0  0  0
   41.5400   27.2230   33.1750 C   0  0  0  0  0  0  0  0  0  0  0  0
   43.2840   27.3830   33.1370 Cl  0  0  0  0  0  0  0  0  0  0  0  0
   40.8530   27.2740   31.9780 C   0  0  0  0  0  0  0  0  0  0  0  0
   41.3590   27.4110   31.0280 H   0  0  0  0  0  0  0  0  0  0  0  0
  1  2  1  0  0  0  0
  2  3  2  0  0  0  0
  2  7  1  0  0  0  0
  3  8  1  0  0  0  0
  4  9  1  0  0  0  0
  4  3  1  0  0  0  0
  5  4  2  0  0  0  0
  6  5  1  0  0  0  0
  6  1  2  0  0  0  0
 10  5  1  0  0  0  0
 11 17  1  0  0  0  0
 12  1  1  0  0  0  0
 12 11  2  0  0  0  0
 13 12  1  0  0  0  0
 14 13  2  0  0  0  0
 14 15  1  0  0  0  0
 15 16  2  0  0  0  0
 16 11  1  0  0  0  0
 18 13  1  0  0  0  0
 19 15  1  0  0  0  0
 20 21  2  0  0  0  0
 22 20  1  0  0  0  0
 22  6  1  0  0  0  0
 23 22  1  0  0  0  0
 24 25  1  0  0  0  0
 24 20  1  0  0  0  0
 25 26  2  0  0  0  0
 27 28  1  0  0  0  0
 28 35  2  0  0  0  0
 28 29  1  0  0  0  0
 29 25  1  0  0  0  0
 29 30  2  0  0  0  0
 30 32  1  0  0  0  0
 30 31  1  0  0  0  0
 33 32  2  0  0  0  0
 34 33  1  0  0  0  0
 35 33  1  0  0  0  0
 36 35  1  0  0  0  0
M  END
>  <minimizedAffinity>
-5.56131172

$$$$
