
 OpenBabel03272500563D

 36 38  0  0  0  0  0  0  0  0999 V2000
   38.2220   31.9160   47.3360 C   0  0  0  0  0  0  0  0  0  0  0  0
   38.8560   32.7460   48.2180 C   0  0  0  0  0  0  0  0  0  0  0  0
   38.4830   32.8360   49.5640 C   0  0  0  0  0  0  0  0  0  0  0  0
   37.3810   32.0030   50.0020 C   0  0  0  0  0  0  0  0  0  0  0  0
   36.7970   31.2030   49.0790 C   0  0  0  0  0  0  0  0  0  0  0  0
   37.1620   31.1260   47.7850 C   0  0  0  0  0  0  0  0  0  0  0  0
   39.6970   33.3890   47.9080 H   0  0  0  0  0  0  0  0  0  0  0  0
   39.0340   33.5210   50.2090 H   0  0  0  0  0  0  0  0  0  0  0  0
   37.2140   32.1770   51.0390 H   0  0  0  0  0  0  0  0  0  0  0  0
   36.0380   30.6670   49.6280 H   0  0  0  0  0  0  0  0  0  0  0  0
   39.9510   31.2220   45.7510 C   0  0  0  0  0  0  0  0  0  0  0  0
   38.7400   31.9170   45.9840 C   0  0  0  0  0  0  0  0  0  0  0  0
   38.1960   32.5080   44.8720 C   0  0  0  0  0  0  0  0  0  0  0  0
   38.8000   32.4100   43.6750 N   0  0  0  0  0  0  0  0  0  0  0  0
   39.9250   31.7600   43.4770 C   0  0  0  0  0  0  0  0  0  0  0  0
   40.4910   31.1710   44.5180 N   0  0  0  0  0  0  0  0  0  0  0  0
   40.4570   30.7250   46.5590 H   0  0  0  0  0  0  0  0  0  0  0  0
   37.2700   33.0410   45.0490 H   0  0  0  0  0  0  0  0  0  0  0  0
   40.3120   31.7510   42.4730 H   0  0  0  0  0  0  0  0  0  0  0  0
   35.1160   30.0870   47.2630 C   0  0  0  0  0  0  0  0  0  0  0  0
   34.6760   30.6150   48.3620 O   0  0  0  0  0  0  0  0  0  0  0  0
   36.5020   30.3110   46.9000 N   0  0  0  0  0  0  0  0  0  0  0  0
   36.9310   29.8960   46.0690 H   0  0  0  0  0  0  0  0  0  0  0  0
   34.2610   29.3420   46.4980 O   0  0  0  0  0  0  0  0  0  0  0  0
   32.9120   29.6230   46.3130 C   0  0  0  0  0  0  0  0  0  0  0  0
   32.4690   30.8520   46.1550 O   0  0  0  0  0  0  0  0  0  0  0  0
   32.5520   28.0420   48.8020 Cl  0  0  0  0  0  0  0  0  0  0  0  0
   31.6140   27.7300   47.3380 C   0  0  0  0  0  0  0  0  0  0  0  0
   31.8940   28.5480   46.2600 C   0  0  0  0  0  0  0  0  0  0  0  0
   31.1740   28.3160   45.1200 C   0  0  0  0  0  0  0  0  0  0  0  0
   31.3470   28.9230   44.2440 H   0  0  0  0  0  0  0  0  0  0  0  0
   30.2150   27.3310   45.0150 C   0  0  0  0  0  3  0  0  0  0  0  0
   29.9540   26.5280   46.1040 C   0  0  0  0  0  0  0  0  0  0  0  0
   28.7580   25.2480   46.0760 Cl  0  0  0  0  0  0  0  0  0  0  0  0
   30.6630   26.7340   47.2710 C   0  0  0  0  0  0  0  0  0  0  0  0
   30.4990   26.1310   48.1600 H   0  0  0  0  0  0  0  0  0  0  0  0
  1  6  2  0  0  0  0
  1  2  1  0  0  0  0
  2  3  2  0  0  0  0
  3  4  1  0  0  0  0
  3  8  1  0  0  0  0
  4  9  1  0  0  0  0
  5 10  1  0  0  0  0
  5  4  2  0  0  0  0
  6  5  1  0  0  0  0
  7  2  1  0  0  0  0
 11 12  1  0  0  0  0
 11 17  1  0  0  0  0
 12  1  1  0  0  0  0
 13 18  1  0  0  0  0
 13 12  2  0  0  0  0
 14 13  1  0  0  0  0
 15 14  2  0  0  0  0
 15 16  1  0  0  0  0
 16 11  2  0  0  0  0
 19 15  1  0  0  0  0
 20 21  2  0  0  0  0
 22 20  1  0  0  0  0
 22  6  1  0  0  0  0
 23 22  1  0  0  0  0
 24 20  1  0  0  0  0
 25 24  1  0  0  0  0
 26 25  2  0  0  0  0
 28 27  1  0  0  0  0
 29 25  1  0  0  0  0
 29 28  2  0  0  0  0
 30 29  1  0  0  0  0
 31 30  1  0  0  0  0
 32 30  2  0  0  0  0
 32 33  1  0  0  0  0
 33 35  2  0  0  0  0
 34 33  1  0  0  0  0
 35 28  1  0  0  0  0
 35 36  1  0  0  0  0
M  END
>  <minimizedAffinity>
-6.10975075

>  <minimizedRMSD>
0.869364798

$$$$
