
 OpenBabel03272500563D

 36 38  0  0  0  0  0  0  0  0999 V2000
   38.1290   31.8380   47.4030 C   0  0  0  0  0  0  0  0  0  0  0  0
   38.6610   32.6790   48.3400 C   0  0  0  0  0  0  0  0  0  0  0  0
   38.1920   32.7250   49.6580 C   0  0  0  0  0  0  0  0  0  0  0  0
   37.1040   31.8340   50.0050 C   0  0  0  0  0  0  0  0  0  0  0  0
   36.6220   31.0270   49.0310 C   0  0  0  0  0  0  0  0  0  0  0  0
   37.0780   30.9920   47.7650 C   0  0  0  0  0  0  0  0  0  0  0  0
   39.4900   33.3650   48.1000 H   0  0  0  0  0  0  0  0  0  0  0  0
   38.6660   33.4230   50.3510 H   0  0  0  0  0  0  0  0  0  0  0  0
   36.8580   31.9810   51.0310 H   0  0  0  0  0  0  0  0  0  0  0  0
   35.8530   30.4460   49.5170 H   0  0  0  0  0  0  0  0  0  0  0  0
   39.9820   31.2350   45.9250 C   0  0  0  0  0  0  0  0  0  0  0  0
   38.7380   31.8890   46.0910 C   0  0  0  0  0  0  0  0  0  0  0  0
   38.2540   32.4940   44.9580 C   0  0  0  0  0  0  0  0  0  0  0  0
   38.9410   32.4430   43.8030 N   0  0  0  0  0  0  0  0  0  0  0  0
   40.0950   31.8310   43.6680 C   0  0  0  0  0  0  0  0  0  0  0  0
   40.6060   31.2310   44.7310 N   0  0  0  0  0  0  0  0  0  0  0  0
   40.4460   30.7310   46.7530 H   0  0  0  0  0  0  0  0  0  0  0  0
   37.3020   32.9950   45.0840 H   0  0  0  0  0  0  0  0  0  0  0  0
   40.5500   31.8590   42.6940 H   0  0  0  0  0  0  0  0  0  0  0  0
   35.0870   30.0140   46.9820 C   0  0  0  0  0  0  0  0  0  0  0  0
   34.5140   30.6090   47.9800 O   0  0  0  0  0  0  0  0  0  0  0  0
   36.5200   30.1650   46.8230 N   0  0  0  0  0  0  0  0  0  0  0  0
   37.0480   29.6950   46.0830 H   0  0  0  0  0  0  0  0  0  0  0  0
   34.3200   29.2700   46.1260 O   0  0  0  0  0  0  0  0  0  0  0  0
   33.0130   29.5740   45.7640 C   0  0  0  0  0  0  0  0  0  0  0  0
   32.6810   30.7430   45.2610 O   0  0  0  0  0  0  0  0  0  0  0  0
   32.5720   27.7820   43.4350 Cl  0  0  0  0  0  0  0  0  0  0  0  0
   31.5940   27.6850   44.9030 C   0  0  0  0  0  0  0  0  0  0  0  0
   31.9190   28.5850   45.9010 C   0  0  0  0  0  0  0  0  0  0  0  0
   31.1690   28.5210   47.0430 C   0  0  0  0  0  0  0  0  0  0  0  0
   31.3730   29.1970   47.8590 H   0  0  0  0  0  0  0  0  0  0  0  0
   30.1390   27.6210   47.2250 C   0  0  0  0  0  3  0  0  0  0  0  0
   29.8350   26.7340   46.2140 C   0  0  0  0  0  0  0  0  0  0  0  0
   28.5470   25.5530   46.3440 Cl  0  0  0  0  0  0  0  0  0  0  0  0
   30.5720   26.7720   45.0470 C   0  0  0  0  0  0  0  0  0  0  0  0
   30.3760   26.0970   44.2200 H   0  0  0  0  0  0  0  0  0  0  0  0
  1  6  2  0  0  0  0
  1  2  1  0  0  0  0
  2  3  2  0  0  0  0
  3  4  1  0  0  0  0
  3  8  1  0  0  0  0
  4  9  1  0  0  0  0
  5 10  1  0  0  0  0
  5  4  2  0  0  0  0
  6  5  1  0  0  0  0
  7  2  1  0  0  0  0
 11 12  1  0  0  0  0
 11 17  1  0  0  0  0
 12  1  1  0  0  0  0
 13 18  1  0  0  0  0
 13 12  2  0  0  0  0
 14 13  1  0  0  0  0
 15 14  2  0  0  0  0
 15 16  1  0  0  0  0
 16 11  2  0  0  0  0
 19 15  1  0  0  0  0
 20 21  2  0  0  0  0
 22 20  1  0  0  0  0
 22  6  1  0  0  0  0
 23 22  1  0  0  0  0
 24 20  1  0  0  0  0
 25 29  1  0  0  0  0
 25 24  1  0  0  0  0
 26 25  2  0  0  0  0
 27 28  1  0  0  0  0
 28 35  2  0  0  0  0
 28 29  1  0  0  0  0
 29 30  2  0  0  0  0
 30 32  1  0  0  0  0
 30 31  1  0  0  0  0
 33 34  1  0  0  0  0
 33 32  2  0  0  0  0
 35 33  1  0  0  0  0
 36 35  1  0  0  0  0
M  END
>  <minimizedAffinity>
-5.70514107

>  <minimizedRMSD>
0.779263496

$$$$
