
 OpenBabel03272500563D

 36 38  0  0  0  0  0  0  0  0999 V2000
   38.2610   31.9430   47.2780 C   0  0  0  0  0  0  0  0  0  0  0  0
   38.9030   32.7770   48.1490 C   0  0  0  0  0  0  0  0  0  0  0  0
   38.5420   32.8750   49.4970 C   0  0  0  0  0  0  0  0  0  0  0  0
   37.4430   32.0460   49.9500 C   0  0  0  0  0  0  0  0  0  0  0  0
   36.8510   31.2410   49.0380 C   0  0  0  0  0  0  0  0  0  0  0  0
   37.2040   31.1560   47.7410 C   0  0  0  0  0  0  0  0  0  0  0  0
   39.7410   33.4170   47.8280 H   0  0  0  0  0  0  0  0  0  0  0  0
   39.1000   33.5640   50.1330 H   0  0  0  0  0  0  0  0  0  0  0  0
   37.2850   32.2260   50.9880 H   0  0  0  0  0  0  0  0  0  0  0  0
   36.0960   30.7080   49.5960 H   0  0  0  0  0  0  0  0  0  0  0  0
   39.9740   31.2360   45.6810 C   0  0  0  0  0  0  0  0  0  0  0  0
   38.7670   31.9350   45.9210 C   0  0  0  0  0  0  0  0  0  0  0  0
   38.2150   32.5220   44.8100 C   0  0  0  0  0  0  0  0  0  0  0  0
   38.8080   32.4150   43.6090 N   0  0  0  0  0  0  0  0  0  0  0  0
   39.9290   31.7620   43.4050 C   0  0  0  0  0  0  0  0  0  0  0  0
   40.5030   31.1760   44.4430 N   0  0  0  0  0  0  0  0  0  0  0  0
   40.4860   30.7410   46.4870 H   0  0  0  0  0  0  0  0  0  0  0  0
   37.2920   33.0580   44.9940 H   0  0  0  0  0  0  0  0  0  0  0  0
   40.3070   31.7460   42.3980 H   0  0  0  0  0  0  0  0  0  0  0  0
   35.1610   30.0920   47.2590 C   0  0  0  0  0  0  0  0  0  0  0  0
   34.7390   30.6090   48.3700 O   0  0  0  0  0  0  0  0  0  0  0  0
   36.5360   30.3360   46.8660 N   0  0  0  0  0  0  0  0  0  0  0  0
   36.9520   29.9310   46.0250 H   0  0  0  0  0  0  0  0  0  0  0  0
   34.2990   29.3390   46.5090 O   0  0  0  0  0  0  0  0  0  0  0  0
   32.9500   29.6200   46.3300 C   0  0  0  0  0  0  0  0  0  0  0  0
   32.5070   30.8490   46.1710 O   0  0  0  0  0  0  0  0  0  0  0  0
   32.5920   28.0520   48.8280 Cl  0  0  0  0  0  0  0  0  0  0  0  0
   31.6530   27.7330   47.3670 C   0  0  0  0  0  0  0  0  0  0  0  0
   31.9310   28.5450   46.2830 C   0  0  0  0  0  0  0  0  0  0  0  0
   31.2100   28.3080   45.1450 C   0  0  0  0  0  0  0  0  0  0  0  0
   31.3820   28.9100   44.2660 H   0  0  0  0  0  0  0  0  0  0  0  0
   30.2510   27.3230   45.0470 C   0  0  0  0  0  3  0  0  0  0  0  0
   29.9910   26.5250   46.1410 C   0  0  0  0  0  0  0  0  0  0  0  0
   28.7940   25.2460   46.1210 Cl  0  0  0  0  0  0  0  0  0  0  0  0
   30.7010   26.7380   47.3060 C   0  0  0  0  0  0  0  0  0  0  0  0
   30.5370   26.1400   48.1980 H   0  0  0  0  0  0  0  0  0  0  0  0
  1  6  2  0  0  0  0
  1  2  1  0  0  0  0
  2  3  2  0  0  0  0
  3  4  1  0  0  0  0
  3  8  1  0  0  0  0
  4  9  1  0  0  0  0
  5 10  1  0  0  0  0
  5  4  2  0  0  0  0
  6  5  1  0  0  0  0
  7  2  1  0  0  0  0
 11 12  1  0  0  0  0
 11 17  1  0  0  0  0
 12  1  1  0  0  0  0
 13 18  1  0  0  0  0
 13 12  2  0  0  0  0
 14 13  1  0  0  0  0
 15 14  2  0  0  0  0
 15 16  1  0  0  0  0
 16 11  2  0  0  0  0
 19 15  1  0  0  0  0
 20 21  2  0  0  0  0
 22 20  1  0  0  0  0
 22  6  1  0  0  0  0
 23 22  1  0  0  0  0
 24 20  1  0  0  0  0
 25 24  1  0  0  0  0
 26 25  2  0  0  0  0
 28 27  1  0  0  0  0
 29 25  1  0  0  0  0
 29 28  2  0  0  0  0
 30 29  1  0  0  0  0
 31 30  1  0  0  0  0
 32 30  2  0  0  0  0
 32 33  1  0  0  0  0
 33 35  2  0  0  0  0
 34 33  1  0  0  0  0
 35 28  1  0  0  0  0
 35 36  1  0  0  0  0
M  END
>  <minimizedAffinity>
-6.11251831

>  <minimizedRMSD>
0.929609179

$$$$
