
 OpenBabel03272500563D

 36 38  0  0  0  0  0  0  0  0999 V2000
   38.1300   31.8580   47.3900 C   0  0  0  0  0  0  0  0  0  0  0  0
   38.6600   32.7100   48.3180 C   0  0  0  0  0  0  0  0  0  0  0  0
   38.1920   32.7690   49.6350 C   0  0  0  0  0  0  0  0  0  0  0  0
   37.1060   31.8780   49.9930 C   0  0  0  0  0  0  0  0  0  0  0  0
   36.6270   31.0590   49.0270 C   0  0  0  0  0  0  0  0  0  0  0  0
   37.0820   31.0130   47.7610 C   0  0  0  0  0  0  0  0  0  0  0  0
   39.4870   33.3960   48.0700 H   0  0  0  0  0  0  0  0  0  0  0  0
   38.6640   33.4750   50.3210 H   0  0  0  0  0  0  0  0  0  0  0  0
   36.8600   32.0350   51.0170 H   0  0  0  0  0  0  0  0  0  0  0  0
   35.8600   30.4810   49.5200 H   0  0  0  0  0  0  0  0  0  0  0  0
   39.9810   31.2390   45.9160 C   0  0  0  0  0  0  0  0  0  0  0  0
   38.7390   31.8970   46.0770 C   0  0  0  0  0  0  0  0  0  0  0  0
   38.2550   32.4930   44.9390 C   0  0  0  0  0  0  0  0  0  0  0  0
   38.9410   32.4320   43.7850 N   0  0  0  0  0  0  0  0  0  0  0  0
   40.0940   31.8160   43.6540 C   0  0  0  0  0  0  0  0  0  0  0  0
   40.6050   31.2240   44.7210 N   0  0  0  0  0  0  0  0  0  0  0  0
   40.4450   30.7410   46.7480 H   0  0  0  0  0  0  0  0  0  0  0  0
   37.3040   32.9970   45.0620 H   0  0  0  0  0  0  0  0  0  0  0  0
   40.5490   31.8350   42.6790 H   0  0  0  0  0  0  0  0  0  0  0  0
   35.0940   30.0160   46.9930 C   0  0  0  0  0  0  0  0  0  0  0  0
   34.5210   30.6160   47.9880 O   0  0  0  0  0  0  0  0  0  0  0  0
   36.5260   30.1740   46.8280 N   0  0  0  0  0  0  0  0  0  0  0  0
   37.0540   29.7010   46.0910 H   0  0  0  0  0  0  0  0  0  0  0  0
   34.3290   29.2610   46.1460 O   0  0  0  0  0  0  0  0  0  0  0  0
   33.0260   29.5640   45.7700 C   0  0  0  0  0  0  0  0  0  0  0  0
   32.7010   30.7300   45.2560 O   0  0  0  0  0  0  0  0  0  0  0  0
   32.5930   27.7640   43.4450 Cl  0  0  0  0  0  0  0  0  0  0  0  0
   31.6070   27.6760   44.9100 C   0  0  0  0  0  0  0  0  0  0  0  0
   31.9280   28.5780   45.9050 C   0  0  0  0  0  0  0  0  0  0  0  0
   31.1720   28.5200   47.0430 C   0  0  0  0  0  0  0  0  0  0  0  0
   31.3740   29.2000   47.8570 H   0  0  0  0  0  0  0  0  0  0  0  0
   30.1390   27.6240   47.2240 C   0  0  0  0  0  3  0  0  0  0  0  0
   29.8390   26.7330   46.2150 C   0  0  0  0  0  0  0  0  0  0  0  0
   28.5480   25.5560   46.3420 Cl  0  0  0  0  0  0  0  0  0  0  0  0
   30.5820   26.7650   45.0530 C   0  0  0  0  0  0  0  0  0  0  0  0
   30.3890   26.0870   44.2260 H   0  0  0  0  0  0  0  0  0  0  0  0
  1  6  2  0  0  0  0
  1  2  1  0  0  0  0
  2  3  2  0  0  0  0
  3  4  1  0  0  0  0
  3  8  1  0  0  0  0
  4  9  1  0  0  0  0
  5 10  1  0  0  0  0
  5  4  2  0  0  0  0
  6  5  1  0  0  0  0
  7  2  1  0  0  0  0
 11 12  1  0  0  0  0
 11 17  1  0  0  0  0
 12  1  1  0  0  0  0
 13 18  1  0  0  0  0
 13 12  2  0  0  0  0
 14 13  1  0  0  0  0
 15 14  2  0  0  0  0
 15 16  1  0  0  0  0
 16 11  2  0  0  0  0
 19 15  1  0  0  0  0
 20 21  2  0  0  0  0
 22 20  1  0  0  0  0
 22  6  1  0  0  0  0
 23 22  1  0  0  0  0
 24 20  1  0  0  0  0
 25 29  1  0  0  0  0
 25 24  1  0  0  0  0
 26 25  2  0  0  0  0
 27 28  1  0  0  0  0
 28 35  2  0  0  0  0
 28 29  1  0  0  0  0
 29 30  2  0  0  0  0
 30 32  1  0  0  0  0
 30 31  1  0  0  0  0
 33 34  1  0  0  0  0
 33 32  2  0  0  0  0
 35 33  1  0  0  0  0
 36 35  1  0  0  0  0
M  END
>  <minimizedAffinity>
-5.70720339

>  <minimizedRMSD>
0.678418756

$$$$
