
 OpenBabel03272500573D

 36 38  0  0  0  0  0  0  0  0999 V2000
   38.2620   31.9450   47.2790 C   0  0  0  0  0  0  0  0  0  0  0  0
   38.9040   32.7800   48.1500 C   0  0  0  0  0  0  0  0  0  0  0  0
   38.5420   32.8790   49.4980 C   0  0  0  0  0  0  0  0  0  0  0  0
   37.4450   32.0490   49.9520 C   0  0  0  0  0  0  0  0  0  0  0  0
   36.8520   31.2430   49.0400 C   0  0  0  0  0  0  0  0  0  0  0  0
   37.2060   31.1580   47.7430 C   0  0  0  0  0  0  0  0  0  0  0  0
   39.7420   33.4210   47.8280 H   0  0  0  0  0  0  0  0  0  0  0  0
   39.1000   33.5690   50.1330 H   0  0  0  0  0  0  0  0  0  0  0  0
   37.2870   32.2310   50.9890 H   0  0  0  0  0  0  0  0  0  0  0  0
   36.0980   30.7110   49.5980 H   0  0  0  0  0  0  0  0  0  0  0  0
   39.9750   31.2350   45.6830 C   0  0  0  0  0  0  0  0  0  0  0  0
   38.7690   31.9360   45.9230 C   0  0  0  0  0  0  0  0  0  0  0  0
   38.2170   32.5230   44.8120 C   0  0  0  0  0  0  0  0  0  0  0  0
   38.8100   32.4150   43.6100 N   0  0  0  0  0  0  0  0  0  0  0  0
   39.9300   31.7610   43.4060 C   0  0  0  0  0  0  0  0  0  0  0  0
   40.5040   31.1750   44.4450 N   0  0  0  0  0  0  0  0  0  0  0  0
   40.4860   30.7410   46.4890 H   0  0  0  0  0  0  0  0  0  0  0  0
   37.2940   33.0600   44.9950 H   0  0  0  0  0  0  0  0  0  0  0  0
   40.3090   31.7440   42.3990 H   0  0  0  0  0  0  0  0  0  0  0  0
   35.1640   30.0920   47.2610 C   0  0  0  0  0  0  0  0  0  0  0  0
   34.7410   30.6110   48.3710 O   0  0  0  0  0  0  0  0  0  0  0  0
   36.5380   30.3360   46.8690 N   0  0  0  0  0  0  0  0  0  0  0  0
   36.9550   29.9300   46.0280 H   0  0  0  0  0  0  0  0  0  0  0  0
   34.3020   29.3380   46.5120 O   0  0  0  0  0  0  0  0  0  0  0  0
   32.9520   29.6190   46.3320 C   0  0  0  0  0  0  0  0  0  0  0  0
   32.5100   30.8480   46.1720 O   0  0  0  0  0  0  0  0  0  0  0  0
   32.5940   28.0520   48.8310 Cl  0  0  0  0  0  0  0  0  0  0  0  0
   31.6560   27.7330   47.3690 C   0  0  0  0  0  0  0  0  0  0  0  0
   31.9340   28.5440   46.2860 C   0  0  0  0  0  0  0  0  0  0  0  0
   31.2130   28.3060   45.1480 C   0  0  0  0  0  0  0  0  0  0  0  0
   31.3850   28.9080   44.2690 H   0  0  0  0  0  0  0  0  0  0  0  0
   30.2540   27.3200   45.0500 C   0  0  0  0  0  3  0  0  0  0  0  0
   29.9940   26.5230   46.1450 C   0  0  0  0  0  0  0  0  0  0  0  0
   28.7970   25.2440   46.1240 Cl  0  0  0  0  0  0  0  0  0  0  0  0
   30.7040   26.7360   47.3090 C   0  0  0  0  0  0  0  0  0  0  0  0
   30.5410   26.1380   48.2010 H   0  0  0  0  0  0  0  0  0  0  0  0
  1  6  2  0  0  0  0
  1  2  1  0  0  0  0
  2  3  2  0  0  0  0
  3  4  1  0  0  0  0
  3  8  1  0  0  0  0
  4  9  1  0  0  0  0
  5 10  1  0  0  0  0
  5  4  2  0  0  0  0
  6  5  1  0  0  0  0
  7  2  1  0  0  0  0
 11 12  1  0  0  0  0
 11 17  1  0  0  0  0
 12  1  1  0  0  0  0
 13 18  1  0  0  0  0
 13 12  2  0  0  0  0
 14 13  1  0  0  0  0
 15 14  2  0  0  0  0
 15 16  1  0  0  0  0
 16 11  2  0  0  0  0
 19 15  1  0  0  0  0
 20 21  2  0  0  0  0
 22 20  1  0  0  0  0
 22  6  1  0  0  0  0
 23 22  1  0  0  0  0
 24 20  1  0  0  0  0
 25 24  1  0  0  0  0
 26 25  2  0  0  0  0
 28 27  1  0  0  0  0
 29 25  1  0  0  0  0
 29 28  2  0  0  0  0
 30 29  1  0  0  0  0
 31 30  1  0  0  0  0
 32 30  2  0  0  0  0
 32 33  1  0  0  0  0
 33 35  2  0  0  0  0
 34 33  1  0  0  0  0
 35 28  1  0  0  0  0
 35 36  1  0  0  0  0
M  END
>  <minimizedAffinity>
-6.11144829

>  <minimizedRMSD>
0.890823603

$$$$
