
 OpenBabel03272500563D

 36 38  0  0  0  0  0  0  0  0999 V2000
   38.0810   31.8740   47.4280 C   0  0  0  0  0  0  0  0  0  0  0  0
   38.5520   32.7640   48.3520 C   0  0  0  0  0  0  0  0  0  0  0  0
   38.0460   32.8300   49.6550 C   0  0  0  0  0  0  0  0  0  0  0  0
   36.9840   31.9060   50.0000 C   0  0  0  0  0  0  0  0  0  0  0  0
   36.5640   31.0500   49.0390 C   0  0  0  0  0  0  0  0  0  0  0  0
   37.0570   30.9960   47.7870 C   0  0  0  0  0  0  0  0  0  0  0  0
   39.3590   33.4760   48.1130 H   0  0  0  0  0  0  0  0  0  0  0  0
   38.4700   33.5670   50.3380 H   0  0  0  0  0  0  0  0  0  0  0  0
   36.7040   32.0720   51.0140 H   0  0  0  0  0  0  0  0  0  0  0  0
   35.8060   30.4520   49.5220 H   0  0  0  0  0  0  0  0  0  0  0  0
   39.9810   31.2690   46.0100 C   0  0  0  0  0  0  0  0  0  0  0  0
   38.7250   31.9100   46.1310 C   0  0  0  0  0  0  0  0  0  0  0  0
   38.2640   32.4890   44.9760 C   0  0  0  0  0  0  0  0  0  0  0  0
   38.9820   32.4280   43.8410 N   0  0  0  0  0  0  0  0  0  0  0  0
   40.1470   31.8290   43.7470 C   0  0  0  0  0  0  0  0  0  0  0  0
   40.6370   31.2530   44.8330 N   0  0  0  0  0  0  0  0  0  0  0  0
   40.4290   30.7850   46.8590 H   0  0  0  0  0  0  0  0  0  0  0  0
   37.3030   32.9810   45.0680 H   0  0  0  0  0  0  0  0  0  0  0  0
   40.6270   31.8460   42.7850 H   0  0  0  0  0  0  0  0  0  0  0  0
   35.1180   29.9760   46.9280 C   0  0  0  0  0  0  0  0  0  0  0  0
   34.4820   30.6250   47.8520 O   0  0  0  0  0  0  0  0  0  0  0  0
   36.5590   30.1180   46.8570 N   0  0  0  0  0  0  0  0  0  0  0  0
   37.1330   29.6080   46.1810 H   0  0  0  0  0  0  0  0  0  0  0  0
   34.4070   29.1870   46.0650 O   0  0  0  0  0  0  0  0  0  0  0  0
   33.1330   29.4760   45.5910 C   0  0  0  0  0  0  0  0  0  0  0  0
   32.8680   30.5810   44.9290 O   0  0  0  0  0  0  0  0  0  0  0  0
   32.9220   27.2550   43.6280 Cl  0  0  0  0  0  0  0  0  0  0  0  0
   31.7720   27.4610   44.9540 C   0  0  0  0  0  0  0  0  0  0  0  0
   32.0000   28.5400   45.7850 C   0  0  0  0  0  0  0  0  0  0  0  0
   31.1160   28.7110   46.8160 C   0  0  0  0  0  0  0  0  0  0  0  0
   31.2420   29.5370   47.4990 H   0  0  0  0  0  0  0  0  0  0  0  0
   30.0450   27.8730   47.0440 C   0  0  0  0  0  3  0  0  0  0  0  0
   29.8390   26.8020   46.2000 C   0  0  0  0  0  0  0  0  0  0  0  0
   28.5110   25.6780   46.4000 Cl  0  0  0  0  0  0  0  0  0  0  0  0
   30.7120   26.6010   45.1500 C   0  0  0  0  0  0  0  0  0  0  0  0
   30.5970   25.7730   44.4550 H   0  0  0  0  0  0  0  0  0  0  0  0
  1  6  2  0  0  0  0
  1  2  1  0  0  0  0
  2  3  2  0  0  0  0
  3  4  1  0  0  0  0
  3  8  1  0  0  0  0
  4  9  1  0  0  0  0
  5 10  1  0  0  0  0
  5  4  2  0  0  0  0
  6  5  1  0  0  0  0
  7  2  1  0  0  0  0
 11 12  1  0  0  0  0
 11 17  1  0  0  0  0
 12  1  1  0  0  0  0
 13 18  1  0  0  0  0
 13 12  2  0  0  0  0
 14 13  1  0  0  0  0
 15 14  2  0  0  0  0
 15 16  1  0  0  0  0
 16 11  2  0  0  0  0
 19 15  1  0  0  0  0
 20 21  2  0  0  0  0
 22 20  1  0  0  0  0
 22  6  1  0  0  0  0
 23 22  1  0  0  0  0
 24 20  1  0  0  0  0
 25 29  1  0  0  0  0
 25 24  1  0  0  0  0
 26 25  2  0  0  0  0
 27 28  1  0  0  0  0
 28 35  2  0  0  0  0
 28 29  1  0  0  0  0
 29 30  2  0  0  0  0
 30 32  1  0  0  0  0
 30 31  1  0  0  0  0
 33 34  1  0  0  0  0
 33 32  2  0  0  0  0
 35 33  1  0  0  0  0
 36 35  1  0  0  0  0
M  END
>  <minimizedAffinity>
-5.64284277

>  <minimizedRMSD>
0.743470728

$$$$
