
 OpenBabel03272500573D

 36 38  0  0  0  0  0  0  0  0999 V2000
   38.0950   31.9480   47.4590 C   0  0  0  0  0  0  0  0  0  0  0  0
   38.4730   32.9530   48.3040 C   0  0  0  0  0  0  0  0  0  0  0  0
   37.9620   33.0740   49.6010 C   0  0  0  0  0  0  0  0  0  0  0  0
   37.0000   32.0790   50.0290 C   0  0  0  0  0  0  0  0  0  0  0  0
   36.6680   31.1090   49.1440 C   0  0  0  0  0  0  0  0  0  0  0  0
   37.1640   31.0030   47.8960 C   0  0  0  0  0  0  0  0  0  0  0  0
   39.2040   33.7220   48.0020 H   0  0  0  0  0  0  0  0  0  0  0  0
   38.3090   33.9040   50.2190 H   0  0  0  0  0  0  0  0  0  0  0  0
   36.7030   32.2990   51.0280 H   0  0  0  0  0  0  0  0  0  0  0  0
   35.9750   30.4800   49.6800 H   0  0  0  0  0  0  0  0  0  0  0  0
   39.9980   31.3180   46.0560 C   0  0  0  0  0  0  0  0  0  0  0  0
   38.7320   31.9430   46.1590 C   0  0  0  0  0  0  0  0  0  0  0  0
   38.2570   32.4690   44.9830 C   0  0  0  0  0  0  0  0  0  0  0  0
   38.9710   32.3740   43.8480 N   0  0  0  0  0  0  0  0  0  0  0  0
   40.1440   31.7900   43.7720 C   0  0  0  0  0  0  0  0  0  0  0  0
   40.6490   31.2660   44.8780 N   0  0  0  0  0  0  0  0  0  0  0  0
   40.4570   30.8760   46.9210 H   0  0  0  0  0  0  0  0  0  0  0  0
   37.2880   32.9480   45.0610 H   0  0  0  0  0  0  0  0  0  0  0  0
   40.6200   31.7760   42.8070 H   0  0  0  0  0  0  0  0  0  0  0  0
   35.3160   29.8730   46.9770 C   0  0  0  0  0  0  0  0  0  0  0  0
   34.5930   30.6410   47.7310 O   0  0  0  0  0  0  0  0  0  0  0  0
   36.7590   30.0070   47.0440 N   0  0  0  0  0  0  0  0  0  0  0  0
   37.3960   29.4110   46.5100 H   0  0  0  0  0  0  0  0  0  0  0  0
   34.6930   28.9730   46.1570 O   0  0  0  0  0  0  0  0  0  0  0  0
   33.6500   29.2790   45.2890 C   0  0  0  0  0  0  0  0  0  0  0  0
   33.8610   29.8200   44.1080 O   0  0  0  0  0  0  0  0  0  0  0  0
   31.8820   31.6410   45.6330 Cl  0  0  0  0  0  0  0  0  0  0  0  0
   31.2990   29.9850   45.8280 C   0  0  0  0  0  0  0  0  0  0  0  0
   32.2400   28.9910   45.6360 C   0  0  0  0  0  0  0  0  0  0  0  0
   31.8000   27.7040   45.7850 C   0  0  0  0  0  0  0  0  0  0  0  0
   32.4890   26.8840   45.6480 H   0  0  0  0  0  0  0  0  0  0  0  0
   30.4990   27.3780   46.1080 C   0  0  0  0  0  3  0  0  0  0  0  0
   29.5800   28.3890   46.2930 C   0  0  0  0  0  0  0  0  0  0  0  0
   27.9050   28.0830   46.7050 Cl  0  0  0  0  0  0  0  0  0  0  0  0
   29.9900   29.6990   46.1510 C   0  0  0  0  0  0  0  0  0  0  0  0
   29.3090   30.5350   46.2860 H   0  0  0  0  0  0  0  0  0  0  0  0
  1  6  2  0  0  0  0
  1  2  1  0  0  0  0
  2  3  2  0  0  0  0
  3  4  1  0  0  0  0
  3  8  1  0  0  0  0
  4  9  1  0  0  0  0
  5 10  1  0  0  0  0
  5  4  2  0  0  0  0
  6  5  1  0  0  0  0
  7  2  1  0  0  0  0
 11 12  1  0  0  0  0
 11 17  1  0  0  0  0
 12  1  1  0  0  0  0
 13 18  1  0  0  0  0
 13 12  2  0  0  0  0
 14 13  1  0  0  0  0
 15 14  2  0  0  0  0
 15 16  1  0  0  0  0
 16 11  2  0  0  0  0
 19 15  1  0  0  0  0
 20 22  1  0  0  0  0
 20 21  2  0  0  0  0
 22  6  1  0  0  0  0
 23 22  1  0  0  0  0
 24 20  1  0  0  0  0
 25 29  1  0  0  0  0
 25 24  1  0  0  0  0
 26 25  2  0  0  0  0
 27 28  1  0  0  0  0
 28 35  1  0  0  0  0
 29 30  1  0  0  0  0
 29 28  2  0  0  0  0
 30 32  2  0  0  0  0
 31 30  1  0  0  0  0
 32 33  1  0  0  0  0
 33 34  1  0  0  0  0
 35 36  1  0  0  0  0
 35 33  2  0  0  0  0
M  END
>  <minimizedAffinity>
-5.53495026

>  <minimizedRMSD>
0.969545305

$$$$
