
 OpenBabel03272508563D

 41 44  0  0  1  0  0  0  0  0999 V2000
   39.2210   31.3660   43.4060 C   0  0  0  0  0  0  0  0  0  0  0  0
   40.2630   30.5030   43.5970 C   0  0  0  0  0  0  0  0  0  0  0  0
   40.9870   30.1040   42.4920 C   0  0  0  0  0  0  0  0  0  0  0  0
   40.6080   30.6030   41.2580 C   0  0  0  0  0  0  0  0  0  0  0  0
   39.5540   31.4740   41.0620 C   0  0  0  0  0  0  0  0  0  0  0  0
   38.8940   31.8220   42.1770 N   0  0  0  0  0  0  0  0  0  0  0  0
   40.5370   30.1300   44.5780 H   0  0  0  0  0  0  0  0  0  0  0  0
   41.8150   29.4230   42.6190 H   0  0  0  0  0  0  0  0  0  0  0  0
   41.2100   30.2550   40.4340 H   0  0  0  0  0  0  0  0  0  0  0  0
   38.4380   31.8040   44.5810 C   0  0  0  0  0  0  0  0  0  0  0  0
   37.3840   32.4690   44.4500 O   0  0  0  0  0  0  0  0  0  0  0  0
   38.9360   31.4360   45.8980 N   0  0  0  0  0  0  0  0  0  0  0  0
   39.8730   31.0660   46.0660 H   0  0  0  0  0  0  0  0  0  0  0  0
   38.2820   30.9120   48.2290 C   0  0  2  0  0  0  0  0  0  0  0  0
   38.6650   32.3470   48.2070 C   0  0  0  0  0  0  0  0  0  0  0  0
   38.0340   31.6150   47.0130 C   0  0  1  0  0  0  0  0  0  0  0  0
   39.1260   30.2010   48.3260 H   0  0  0  0  0  0  0  0  0  0  0  0
   39.7310   32.5840   48.1580 H   0  0  0  0  0  0  0  0  0  0  0  0
   38.0710   33.1030   48.7490 H   0  0  0  0  0  0  0  0  0  0  0  0
   37.0170   31.9990   46.7840 H   0  0  0  0  0  0  0  0  0  0  0  0
   34.8010   30.1570   49.3010 C   0  0  0  0  0  0  0  0  0  0  0  0
   35.0200   29.5880   50.6020 C   0  0  0  0  0  0  0  0  0  0  0  0
   36.3780   29.4860   51.0870 C   0  0  0  0  0  0  0  0  0  0  0  0
   37.4000   29.9330   50.2930 N   0  0  0  0  0  0  0  0  0  0  0  0
   37.1140   30.4570   49.0770 C   0  0  0  0  0  0  0  0  0  0  0  0
   35.8340   30.5860   48.5490 N   0  0  0  0  0  0  0  0  0  0  0  0
   33.7720   30.2140   48.9790 H   0  0  0  0  0  0  0  0  0  0  0  0
   34.1920   29.2550   51.1810 H   0  0  0  0  0  0  0  0  0  0  0  0
   36.5320   29.0630   52.0520 H   0  0  0  0  0  0  0  0  0  0  0  0
   39.2040   31.9600   39.7310 C   0  0  0  0  0  0  0  0  0  0  0  0
   40.0660   31.9200   38.8220 O   0  0  0  0  0  0  0  0  0  0  0  0
   36.8700   30.0610   39.2200 Cl  0  0  0  0  0  0  0  0  0  0  0  0
   36.7360   31.7970   39.1260 C   0  0  0  0  0  0  0  0  0  0  0  0
   37.8950   32.4990   39.3870 C   0  0  0  0  0  0  0  0  0  0  0  0
   37.8140   33.8940   39.3180 C   0  0  0  0  0  0  0  0  0  0  0  0
   38.7040   34.5120   39.5160 H   0  0  0  0  0  0  0  0  0  0  0  0
   36.6610   34.6100   39.0070 C   0  0  0  0  0  3  0  0  0  0  0  0
   35.5450   33.8420   38.7570 C   0  0  0  0  0  0  0  0  0  0  0  0
   34.0760   34.7160   38.3620 Cl  0  0  0  0  0  0  0  0  0  0  0  0
   35.5690   32.4630   38.8130 C   0  0  0  0  0  0  0  0  0  0  0  0
   34.6740   31.8780   38.6110 H   0  0  0  0  0  0  0  0  0  0  0  0
  1  2  1  0  0  0  0
  1 10  1  0  0  0  0
  2  7  1  0  0  0  0
  3  8  1  0  0  0  0
  3  2  2  0  0  0  0
  4  3  1  0  0  0  0
  5  4  2  0  0  0  0
  5  6  1  0  0  0  0
  6  1  2  0  0  0  0
  9  4  1  0  0  0  0
 10 12  1  0  0  0  0
 11 10  2  0  0  0  0
 12 13  1  0  0  0  0
 12 16  1  0  0  0  0
 14 17  1  6  0  0  0
 14 25  1  0  0  0  0
 15 14  1  0  0  0  0
 15 19  1  0  0  0  0
 16 20  1  6  0  0  0
 16 15  1  0  0  0  0
 16 14  1  0  0  0  0
 18 15  1  0  0  0  0
 21 22  1  0  0  0  0
 22 23  2  0  0  0  0
 22 28  1  0  0  0  0
 23 29  1  0  0  0  0
 24 23  1  0  0  0  0
 25 24  2  0  0  0  0
 26 25  1  0  0  0  0
 26 21  2  0  0  0  0
 27 21  1  0  0  0  0
 30  5  1  0  0  0  0
 31 30  2  0  0  0  0
 33 32  1  0  0  0  0
 33 34  1  0  0  0  0
 34 30  1  0  0  0  0
 35 34  2  0  0  0  0
 35 36  1  0  0  0  0
 37 35  1  0  0  0  0
 38 40  1  0  0  0  0
 38 37  2  0  0  0  0
 39 38  1  0  0  0  0
 40 33  2  0  0  0  0
 41 40  1  0  0  0  0
M  END
>  <minimizedAffinity>
-5.18015766

>  <minimizedRMSD>
2.9055059

$$$$
