
 OpenBabel03272508563D

 41 44  0  0  1  0  0  0  0  0999 V2000
   39.1190   31.4900   43.3420 C   0  0  0  0  0  0  0  0  0  0  0  0
   40.1160   30.5650   43.4900 C   0  0  0  0  0  0  0  0  0  0  0  0
   40.8430   30.2110   42.3720 C   0  0  0  0  0  0  0  0  0  0  0  0
   40.5160   30.8150   41.1710 C   0  0  0  0  0  0  0  0  0  0  0  0
   39.5080   31.7480   41.0190 C   0  0  0  0  0  0  0  0  0  0  0  0
   38.8410   32.0480   42.1440 N   0  0  0  0  0  0  0  0  0  0  0  0
   40.3500   30.1100   44.4450 H   0  0  0  0  0  0  0  0  0  0  0  0
   41.6360   29.4840   42.4650 H   0  0  0  0  0  0  0  0  0  0  0  0
   41.1190   30.4970   40.3350 H   0  0  0  0  0  0  0  0  0  0  0  0
   38.3330   31.8800   44.5310 C   0  0  0  0  0  0  0  0  0  0  0  0
   37.1720   32.3390   44.4210 O   0  0  0  0  0  0  0  0  0  0  0  0
   38.9550   31.7130   45.8360 N   0  0  0  0  0  0  0  0  0  0  0  0
   39.9500   31.5250   45.9690 H   0  0  0  0  0  0  0  0  0  0  0  0
   38.4550   31.1500   48.1950 C   0  0  2  0  0  0  0  0  0  0  0  0
   38.7180   32.6110   48.1530 C   0  0  0  0  0  0  0  0  0  0  0  0
   38.0940   31.8230   46.9910 C   0  0  1  0  0  0  0  0  0  0  0  0
   39.3580   30.5110   48.2550 H   0  0  0  0  0  0  0  0  0  0  0  0
   39.7580   32.9350   48.0550 H   0  0  0  0  0  0  0  0  0  0  0  0
   38.0900   33.3190   48.7210 H   0  0  0  0  0  0  0  0  0  0  0  0
   37.0390   32.1220   46.8100 H   0  0  0  0  0  0  0  0  0  0  0  0
   35.0860   30.2520   49.4940 C   0  0  0  0  0  0  0  0  0  0  0  0
   35.4220   29.5760   50.7160 C   0  0  0  0  0  0  0  0  0  0  0  0
   36.8180   29.4530   51.0710 C   0  0  0  0  0  0  0  0  0  0  0  0
   37.7630   29.9830   50.2340 N   0  0  0  0  0  0  0  0  0  0  0  0
   37.3690   30.6060   49.0980 C   0  0  0  0  0  0  0  0  0  0  0  0
   36.0470   30.7600   48.6950 N   0  0  0  0  0  0  0  0  0  0  0  0
   34.0330   30.3220   49.2670 H   0  0  0  0  0  0  0  0  0  0  0  0
   34.6510   29.1820   51.3320 H   0  0  0  0  0  0  0  0  0  0  0  0
   37.0590   28.9510   51.9790 H   0  0  0  0  0  0  0  0  0  0  0  0
   39.2120   32.3440   39.7200 C   0  0  0  0  0  0  0  0  0  0  0  0
   38.6760   33.4770   39.6780 O   0  0  0  0  0  0  0  0  0  0  0  0
   37.3850   30.1240   38.6970 Cl  0  0  0  0  0  0  0  0  0  0  0  0
   38.7930   30.6820   37.8370 C   0  0  0  0  0  0  0  0  0  0  0  0
   39.5030   31.6950   38.4480 C   0  0  0  0  0  0  0  0  0  0  0  0
   40.6390   32.1610   37.7770 C   0  0  0  0  0  0  0  0  0  0  0  0
   41.2480   32.9680   38.2130 H   0  0  0  0  0  0  0  0  0  0  0  0
   41.0940   31.6790   36.5530 C   0  0  0  0  0  3  0  0  0  0  0  0
   40.3350   30.6690   36.0040 C   0  0  0  0  0  0  0  0  0  0  0  0
   40.8830   30.0410   34.4600 Cl  0  0  0  0  0  0  0  0  0  0  0  0
   39.2050   30.1730   36.6240 C   0  0  0  0  0  0  0  0  0  0  0  0
   38.6220   29.3740   36.1690 H   0  0  0  0  0  0  0  0  0  0  0  0
  1  2  1  0  0  0  0
  1 10  1  0  0  0  0
  2  7  1  0  0  0  0
  3  8  1  0  0  0  0
  3  2  2  0  0  0  0
  4  3  1  0  0  0  0
  5  4  2  0  0  0  0
  5  6  1  0  0  0  0
  6  1  2  0  0  0  0
  9  4  1  0  0  0  0
 10 12  1  0  0  0  0
 11 10  2  0  0  0  0
 12 13  1  0  0  0  0
 12 16  1  0  0  0  0
 14 17  1  6  0  0  0
 14 25  1  0  0  0  0
 15 14  1  0  0  0  0
 15 19  1  0  0  0  0
 16 20  1  6  0  0  0
 16 15  1  0  0  0  0
 16 14  1  0  0  0  0
 18 15  1  0  0  0  0
 21 22  1  0  0  0  0
 22 23  2  0  0  0  0
 22 28  1  0  0  0  0
 23 29  1  0  0  0  0
 24 23  1  0  0  0  0
 25 24  2  0  0  0  0
 26 25  1  0  0  0  0
 26 21  2  0  0  0  0
 27 21  1  0  0  0  0
 30  5  1  0  0  0  0
 31 30  2  0  0  0  0
 33 34  1  0  0  0  0
 33 32  1  0  0  0  0
 34 30  1  0  0  0  0
 35 36  1  0  0  0  0
 35 34  2  0  0  0  0
 37 35  1  0  0  0  0
 38 37  2  0  0  0  0
 38 40  1  0  0  0  0
 39 38  1  0  0  0  0
 40 33  2  0  0  0  0
 41 40  1  0  0  0  0
M  END
>  <minimizedAffinity>
-4.96921682

>  <minimizedRMSD>
0.729647517

$$$$
