
 OpenBabel03272508563D

 41 44  0  0  1  0  0  0  0  0999 V2000
   39.1160   31.4920   43.3530 C   0  0  0  0  0  0  0  0  0  0  0  0
   40.1120   30.5660   43.5010 C   0  0  0  0  0  0  0  0  0  0  0  0
   40.8390   30.2130   42.3830 C   0  0  0  0  0  0  0  0  0  0  0  0
   40.5130   30.8190   41.1820 C   0  0  0  0  0  0  0  0  0  0  0  0
   39.5070   31.7530   41.0310 C   0  0  0  0  0  0  0  0  0  0  0  0
   38.8400   32.0520   42.1560 N   0  0  0  0  0  0  0  0  0  0  0  0
   40.3450   30.1090   44.4560 H   0  0  0  0  0  0  0  0  0  0  0  0
   41.6310   29.4840   42.4750 H   0  0  0  0  0  0  0  0  0  0  0  0
   41.1170   30.5010   40.3460 H   0  0  0  0  0  0  0  0  0  0  0  0
   38.3300   31.8820   44.5430 C   0  0  0  0  0  0  0  0  0  0  0  0
   37.1670   32.3380   44.4330 O   0  0  0  0  0  0  0  0  0  0  0  0
   38.9530   31.7170   45.8470 N   0  0  0  0  0  0  0  0  0  0  0  0
   39.9490   31.5320   45.9800 H   0  0  0  0  0  0  0  0  0  0  0  0
   38.4540   31.1530   48.2070 C   0  0  2  0  0  0  0  0  0  0  0  0
   38.7170   32.6140   48.1660 C   0  0  0  0  0  0  0  0  0  0  0  0
   38.0930   31.8270   47.0030 C   0  0  1  0  0  0  0  0  0  0  0  0
   39.3570   30.5130   48.2650 H   0  0  0  0  0  0  0  0  0  0  0  0
   39.7570   32.9370   48.0670 H   0  0  0  0  0  0  0  0  0  0  0  0
   38.0890   33.3210   48.7340 H   0  0  0  0  0  0  0  0  0  0  0  0
   37.0380   32.1260   46.8220 H   0  0  0  0  0  0  0  0  0  0  0  0
   35.0850   30.2520   49.5040 C   0  0  0  0  0  0  0  0  0  0  0  0
   35.4210   29.5760   50.7270 C   0  0  0  0  0  0  0  0  0  0  0  0
   36.8180   29.4560   51.0820 C   0  0  0  0  0  0  0  0  0  0  0  0
   37.7630   29.9860   50.2460 N   0  0  0  0  0  0  0  0  0  0  0  0
   37.3680   30.6070   49.1090 C   0  0  0  0  0  0  0  0  0  0  0  0
   36.0460   30.7600   48.7060 N   0  0  0  0  0  0  0  0  0  0  0  0
   34.0320   30.3200   49.2770 H   0  0  0  0  0  0  0  0  0  0  0  0
   34.6500   29.1820   51.3430 H   0  0  0  0  0  0  0  0  0  0  0  0
   37.0580   28.9540   51.9910 H   0  0  0  0  0  0  0  0  0  0  0  0
   39.2120   32.3510   39.7330 C   0  0  0  0  0  0  0  0  0  0  0  0
   38.6930   33.4910   39.6920 O   0  0  0  0  0  0  0  0  0  0  0  0
   37.3490   30.1530   38.7270 Cl  0  0  0  0  0  0  0  0  0  0  0  0
   38.7580   30.6910   37.8570 C   0  0  0  0  0  0  0  0  0  0  0  0
   39.4850   31.6950   38.4610 C   0  0  0  0  0  0  0  0  0  0  0  0
   40.6240   32.1450   37.7810 C   0  0  0  0  0  0  0  0  0  0  0  0
   41.2460   32.9450   38.2110 H   0  0  0  0  0  0  0  0  0  0  0  0
   41.0630   31.6550   36.5540 C   0  0  0  0  0  3  0  0  0  0  0  0
   40.2860   30.6540   36.0130 C   0  0  0  0  0  0  0  0  0  0  0  0
   40.8160   30.0160   34.4660 Cl  0  0  0  0  0  0  0  0  0  0  0  0
   39.1550   30.1740   36.6400 C   0  0  0  0  0  0  0  0  0  0  0  0
   38.5580   29.3820   36.1910 H   0  0  0  0  0  0  0  0  0  0  0  0
  1  2  1  0  0  0  0
  1 10  1  0  0  0  0
  2  7  1  0  0  0  0
  3  8  1  0  0  0  0
  3  2  2  0  0  0  0
  4  3  1  0  0  0  0
  5  4  2  0  0  0  0
  5  6  1  0  0  0  0
  6  1  2  0  0  0  0
  9  4  1  0  0  0  0
 10 12  1  0  0  0  0
 11 10  2  0  0  0  0
 12 13  1  0  0  0  0
 12 16  1  0  0  0  0
 14 17  1  6  0  0  0
 14 25  1  0  0  0  0
 15 14  1  0  0  0  0
 15 19  1  0  0  0  0
 16 20  1  6  0  0  0
 16 15  1  0  0  0  0
 16 14  1  0  0  0  0
 18 15  1  0  0  0  0
 21 22  1  0  0  0  0
 22 23  2  0  0  0  0
 22 28  1  0  0  0  0
 23 29  1  0  0  0  0
 24 23  1  0  0  0  0
 25 24  2  0  0  0  0
 26 25  1  0  0  0  0
 26 21  2  0  0  0  0
 27 21  1  0  0  0  0
 30  5  1  0  0  0  0
 31 30  2  0  0  0  0
 33 34  1  0  0  0  0
 33 32  1  0  0  0  0
 34 30  1  0  0  0  0
 35 36  1  0  0  0  0
 35 34  2  0  0  0  0
 37 35  1  0  0  0  0
 38 37  2  0  0  0  0
 38 40  1  0  0  0  0
 39 38  1  0  0  0  0
 40 33  2  0  0  0  0
 41 40  1  0  0  0  0
M  END
>  <minimizedAffinity>
-4.97583532

>  <minimizedRMSD>
0.303647846

$$$$
