
 OpenBabel03272508563D

 41 44  0  0  1  0  0  0  0  0999 V2000
   39.1710   31.4470   43.3150 C   0  0  0  0  0  0  0  0  0  0  0  0
   40.1950   30.5560   43.4730 C   0  0  0  0  0  0  0  0  0  0  0  0
   40.9080   30.1820   42.3530 C   0  0  0  0  0  0  0  0  0  0  0  0
   40.5400   30.7340   41.1390 C   0  0  0  0  0  0  0  0  0  0  0  0
   39.5050   31.6340   40.9760 C   0  0  0  0  0  0  0  0  0  0  0  0
   38.8530   31.9550   42.1040 N   0  0  0  0  0  0  0  0  0  0  0  0
   40.4610   30.1410   44.4390 H   0  0  0  0  0  0  0  0  0  0  0  0
   41.7220   29.4790   42.4540 H   0  0  0  0  0  0  0  0  0  0  0  0
   41.1340   30.4030   40.3020 H   0  0  0  0  0  0  0  0  0  0  0  0
   38.3990   31.8590   44.5060 C   0  0  0  0  0  0  0  0  0  0  0  0
   37.3010   32.4550   44.3970 O   0  0  0  0  0  0  0  0  0  0  0  0
   38.9580   31.5480   45.8130 N   0  0  0  0  0  0  0  0  0  0  0  0
   39.9210   31.2390   45.9580 H   0  0  0  0  0  0  0  0  0  0  0  0
   38.4360   31.0730   48.1870 C   0  0  2  0  0  0  0  0  0  0  0  0
   38.6780   32.5350   48.0890 C   0  0  0  0  0  0  0  0  0  0  0  0
   38.0810   31.6910   46.9530 C   0  0  1  0  0  0  0  0  0  0  0  0
   39.3470   30.4500   48.2830 H   0  0  0  0  0  0  0  0  0  0  0  0
   39.7140   32.8690   47.9900 H   0  0  0  0  0  0  0  0  0  0  0  0
   38.0330   33.2550   48.6200 H   0  0  0  0  0  0  0  0  0  0  0  0
   37.0240   31.9670   46.7460 H   0  0  0  0  0  0  0  0  0  0  0  0
   35.0600   30.2380   49.5100 C   0  0  0  0  0  0  0  0  0  0  0  0
   35.3920   29.5560   50.7300 C   0  0  0  0  0  0  0  0  0  0  0  0
   36.7880   29.4080   51.0750 C   0  0  0  0  0  0  0  0  0  0  0  0
   37.7370   29.9190   50.2310 N   0  0  0  0  0  0  0  0  0  0  0  0
   37.3460   30.5490   49.0970 C   0  0  0  0  0  0  0  0  0  0  0  0
   36.0250   30.7280   48.7040 N   0  0  0  0  0  0  0  0  0  0  0  0
   34.0070   30.3270   49.2900 H   0  0  0  0  0  0  0  0  0  0  0  0
   34.6180   29.1770   51.3520 H   0  0  0  0  0  0  0  0  0  0  0  0
   37.0260   28.9020   51.9820 H   0  0  0  0  0  0  0  0  0  0  0  0
   39.1650   32.1760   39.6650 C   0  0  0  0  0  0  0  0  0  0  0  0
   38.9760   33.4090   39.5450 O   0  0  0  0  0  0  0  0  0  0  0  0
   41.5170   31.9100   37.7380 Cl  0  0  0  0  0  0  0  0  0  0  0  0
   39.9790   31.1300   37.4910 C   0  0  0  0  0  0  0  0  0  0  0  0
   39.0290   31.3600   38.4650 C   0  0  0  0  0  0  0  0  0  0  0  0
   37.7850   30.7450   38.2880 C   0  0  0  0  0  0  0  0  0  0  0  0
   36.9850   30.8910   39.0310 H   0  0  0  0  0  0  0  0  0  0  0  0
   37.4460   29.9270   37.2140 C   0  0  0  0  0  3  0  0  0  0  0  0
   38.4450   29.7430   36.2830 C   0  0  0  0  0  0  0  0  0  0  0  0
   38.0490   28.7160   34.9160 Cl  0  0  0  0  0  0  0  0  0  0  0  0
   39.6890   30.3260   36.4080 C   0  0  0  0  0  0  0  0  0  0  0  0
   40.4620   30.1650   35.6580 H   0  0  0  0  0  0  0  0  0  0  0  0
  1  2  1  0  0  0  0
  1 10  1  0  0  0  0
  2  7  1  0  0  0  0
  3  8  1  0  0  0  0
  3  2  2  0  0  0  0
  4  3  1  0  0  0  0
  5  4  2  0  0  0  0
  5  6  1  0  0  0  0
  6  1  2  0  0  0  0
  9  4  1  0  0  0  0
 10 12  1  0  0  0  0
 11 10  2  0  0  0  0
 12 13  1  0  0  0  0
 12 16  1  0  0  0  0
 14 17  1  6  0  0  0
 14 25  1  0  0  0  0
 15 14  1  0  0  0  0
 15 19  1  0  0  0  0
 16 20  1  6  0  0  0
 16 15  1  0  0  0  0
 16 14  1  0  0  0  0
 18 15  1  0  0  0  0
 21 22  1  0  0  0  0
 22 23  2  0  0  0  0
 22 28  1  0  0  0  0
 23 29  1  0  0  0  0
 24 23  1  0  0  0  0
 25 24  2  0  0  0  0
 26 25  1  0  0  0  0
 26 21  2  0  0  0  0
 27 21  1  0  0  0  0
 30  5  1  0  0  0  0
 31 30  2  0  0  0  0
 33 32  1  0  0  0  0
 33 34  1  0  0  0  0
 34 30  1  0  0  0  0
 35 34  2  0  0  0  0
 35 36  1  0  0  0  0
 37 35  1  0  0  0  0
 38 40  1  0  0  0  0
 38 37  2  0  0  0  0
 39 38  1  0  0  0  0
 40 33  2  0  0  0  0
 41 40  1  0  0  0  0
M  END
>  <minimizedAffinity>
-4.95365906

>  <minimizedRMSD>
0.558854461

$$$$
