
 OpenBabel03272508563D

 41 44  0  0  1  0  0  0  0  0999 V2000
   39.1360   31.4900   43.3270 C   0  0  0  0  0  0  0  0  0  0  0  0
   40.1280   30.5600   43.4730 C   0  0  0  0  0  0  0  0  0  0  0  0
   40.8490   30.2020   42.3530 C   0  0  0  0  0  0  0  0  0  0  0  0
   40.5210   30.8060   41.1520 C   0  0  0  0  0  0  0  0  0  0  0  0
   39.5180   31.7450   41.0020 C   0  0  0  0  0  0  0  0  0  0  0  0
   38.8560   32.0480   42.1290 N   0  0  0  0  0  0  0  0  0  0  0  0
   40.3620   30.1050   44.4280 H   0  0  0  0  0  0  0  0  0  0  0  0
   41.6380   29.4700   42.4440 H   0  0  0  0  0  0  0  0  0  0  0  0
   41.1200   30.4840   40.3150 H   0  0  0  0  0  0  0  0  0  0  0  0
   38.3550   31.8860   44.5190 C   0  0  0  0  0  0  0  0  0  0  0  0
   37.2180   32.4020   44.4090 O   0  0  0  0  0  0  0  0  0  0  0  0
   38.9540   31.6550   45.8240 N   0  0  0  0  0  0  0  0  0  0  0  0
   39.9380   31.4160   45.9630 H   0  0  0  0  0  0  0  0  0  0  0  0
   38.4460   31.1220   48.1900 C   0  0  2  0  0  0  0  0  0  0  0  0
   38.6970   32.5850   48.1270 C   0  0  0  0  0  0  0  0  0  0  0  0
   38.0860   31.7750   46.9740 C   0  0  1  0  0  0  0  0  0  0  0  0
   39.3540   30.4910   48.2630 H   0  0  0  0  0  0  0  0  0  0  0  0
   39.7350   32.9150   48.0290 H   0  0  0  0  0  0  0  0  0  0  0  0
   38.0610   33.2950   48.6810 H   0  0  0  0  0  0  0  0  0  0  0  0
   37.0300   32.0630   46.7830 H   0  0  0  0  0  0  0  0  0  0  0  0
   35.0760   30.2450   49.4980 C   0  0  0  0  0  0  0  0  0  0  0  0
   35.4110   29.5610   50.7160 C   0  0  0  0  0  0  0  0  0  0  0  0
   36.8080   29.4260   51.0650 C   0  0  0  0  0  0  0  0  0  0  0  0
   37.7540   29.9520   50.2260 N   0  0  0  0  0  0  0  0  0  0  0  0
   37.3600   30.5830   49.0940 C   0  0  0  0  0  0  0  0  0  0  0  0
   36.0370   30.7490   48.6980 N   0  0  0  0  0  0  0  0  0  0  0  0
   34.0220   30.3230   49.2760 H   0  0  0  0  0  0  0  0  0  0  0  0
   34.6400   29.1710   51.3350 H   0  0  0  0  0  0  0  0  0  0  0  0
   37.0490   28.9180   51.9700 H   0  0  0  0  0  0  0  0  0  0  0  0
   39.2210   32.3410   39.7050 C   0  0  0  0  0  0  0  0  0  0  0  0
   38.6780   33.4700   39.6630 O   0  0  0  0  0  0  0  0  0  0  0  0
   37.4060   30.1160   38.6700 Cl  0  0  0  0  0  0  0  0  0  0  0  0
   38.8160   30.6820   37.8150 C   0  0  0  0  0  0  0  0  0  0  0  0
   39.5190   31.6960   38.4320 C   0  0  0  0  0  0  0  0  0  0  0  0
   40.6560   32.1690   37.7650 C   0  0  0  0  0  0  0  0  0  0  0  0
   41.2600   32.9780   38.2060 H   0  0  0  0  0  0  0  0  0  0  0  0
   41.1170   31.6920   36.5410 C   0  0  0  0  0  3  0  0  0  0  0  0
   40.3640   30.6800   35.9880 C   0  0  0  0  0  0  0  0  0  0  0  0
   40.9200   30.0590   34.4450 Cl  0  0  0  0  0  0  0  0  0  0  0  0
   39.2350   30.1780   36.6020 C   0  0  0  0  0  0  0  0  0  0  0  0
   38.6560   29.3780   36.1430 H   0  0  0  0  0  0  0  0  0  0  0  0
  1  2  1  0  0  0  0
  1 10  1  0  0  0  0
  2  7  1  0  0  0  0
  3  8  1  0  0  0  0
  3  2  2  0  0  0  0
  4  3  1  0  0  0  0
  5  4  2  0  0  0  0
  5  6  1  0  0  0  0
  6  1  2  0  0  0  0
  9  4  1  0  0  0  0
 10 12  1  0  0  0  0
 11 10  2  0  0  0  0
 12 13  1  0  0  0  0
 12 16  1  0  0  0  0
 14 17  1  6  0  0  0
 14 25  1  0  0  0  0
 15 14  1  0  0  0  0
 15 19  1  0  0  0  0
 16 20  1  6  0  0  0
 16 15  1  0  0  0  0
 16 14  1  0  0  0  0
 18 15  1  0  0  0  0
 21 22  1  0  0  0  0
 22 23  2  0  0  0  0
 22 28  1  0  0  0  0
 23 29  1  0  0  0  0
 24 23  1  0  0  0  0
 25 24  2  0  0  0  0
 26 25  1  0  0  0  0
 26 21  2  0  0  0  0
 27 21  1  0  0  0  0
 30  5  1  0  0  0  0
 31 30  2  0  0  0  0
 33 34  1  0  0  0  0
 33 32  1  0  0  0  0
 34 30  1  0  0  0  0
 35 36  1  0  0  0  0
 35 34  2  0  0  0  0
 37 35  1  0  0  0  0
 38 37  2  0  0  0  0
 38 40  1  0  0  0  0
 39 38  1  0  0  0  0
 40 33  2  0  0  0  0
 41 40  1  0  0  0  0
M  END
>  <minimizedAffinity>
-4.97774601

>  <minimizedRMSD>
0.442314059

$$$$
