
 OpenBabel03272508423D

 21 22  0  0  0  0  0  0  0  0999 V2000
   34.3540   29.0770   49.3520 C   0  0  0  0  0  0  0  0  0  0  0  0
   33.3260   29.1720   50.0890 O   0  0  0  0  0  0  0  0  0  0  0  0
   33.6360   30.5850   46.9390 Cl  0  0  0  0  0  0  0  0  0  0  0  0
   33.7070   28.8180   46.9920 C   0  0  0  0  0  0  0  0  0  0  0  0
   34.0610   28.2160   48.2010 C   0  0  0  0  0  0  0  0  0  0  0  0
   34.1060   26.8380   48.2050 C   0  0  0  0  0  0  0  0  0  0  0  0
   34.3800   26.3560   49.1340 H   0  0  0  0  0  0  0  0  0  0  0  0
   33.8150   26.1120   47.0700 C   0  0  0  0  0  3  0  0  0  0  0  0
   33.4690   26.7540   45.9010 C   0  0  0  0  0  0  0  0  0  0  0  0
   33.0780   25.9110   44.3970 Cl  0  0  0  0  0  0  0  0  0  0  0  0
   33.4010   28.1300   45.8140 C   0  0  0  0  0  0  0  0  0  0  0  0
   33.1390   28.7000   44.9360 H   0  0  0  0  0  0  0  0  0  0  0  0
   37.8320   29.5610   50.3020 C   0  0  0  0  0  0  0  0  0  0  0  0
   37.9990   30.9530   50.2750 C   0  0  0  0  0  0  0  0  0  0  0  0
   36.8900   31.7260   49.9220 C   0  0  0  0  0  0  0  0  0  0  0  0
   35.7360   31.0780   49.6330 N   0  0  0  0  0  0  0  0  0  0  0  0
   35.6010   29.7500   49.6660 C   0  0  0  0  0  0  0  0  0  0  0  0
   36.6550   29.0120   50.0010 N   0  0  0  0  0  0  0  0  0  0  0  0
   38.7140   29.0180   50.5800 H   0  0  0  0  0  0  0  0  0  0  0  0
   38.8940   31.5180   50.4970 H   0  0  0  0  0  0  0  0  0  0  0  0
   36.8140   32.7820   49.8450 H   0  0  0  0  0  0  0  0  0  0  0  0
  1 17  1  0  0  0  0
  1  2  2  0  0  0  0
  3  4  1  0  0  0  0
  4  5  1  0  0  0  0
  5  6  2  0  0  0  0
  5  1  1  0  0  0  0
  6  7  1  0  0  0  0
  8  6  1  0  0  0  0
  9  8  2  0  0  0  0
 10  9  1  0  0  0  0
 11  9  1  0  0  0  0
 11  4  2  0  0  0  0
 12 11  1  0  0  0  0
 13 19  1  0  0  0  0
 14 13  1  0  0  0  0
 14 20  1  0  0  0  0
 15 14  2  0  0  0  0
 16 17  2  0  0  0  0
 16 15  1  0  0  0  0
 17 18  1  0  0  0  0
 18 13  2  0  0  0  0
 21 15  1  0  0  0  0
M  END
>  <minimizedAffinity>
-4.18513346

>  <minimizedRMSD>
2.35970879

$$$$
