
 OpenBabel03272502433D

 21 22  0  0  0  0  0  0  0  0999 V2000
   35.5410   20.8500   36.5520 Cl  0  0  0  0  0  0  0  0  0  0  0  0
   36.1810   21.1190   34.9610 C   0  0  0  0  0  0  0  0  0  0  0  0
   37.3440   21.8480   34.7970 C   0  0  0  0  0  0  0  0  0  0  0  0
   37.8760   22.0780   33.5570 C   0  0  0  0  0  0  0  0  0  0  0  0
   37.2520   21.5780   32.4150 C   0  0  0  0  0  0  0  0  0  0  0  0
   36.0960   20.8500   32.5400 C   0  0  0  0  0  0  0  0  0  0  0  0
   35.2190   20.1690   31.1890 Cl  0  0  0  0  0  0  0  0  0  0  0  0
   35.5910   20.6390   33.8190 C   0  0  0  0  0  0  0  0  0  0  0  0
   38.7940   22.6590   33.4880 H   0  0  0  0  0  0  0  0  0  0  0  0
   37.6530   21.7480   31.4420 H   0  0  0  0  0  0  0  0  0  0  0  0
   34.6670   20.0590   33.9380 H   0  0  0  0  0  0  0  0  0  0  0  0
   38.0530   23.7240   37.8630 C   0  0  0  0  0  0  0  0  0  0  0  0
   39.3570   23.3230   38.1820 C   0  0  0  0  0  0  0  0  0  0  0  0
   39.9850   22.3950   37.3210 C   0  0  0  0  0  0  0  0  0  0  0  0
   39.2830   21.9580   36.2470 N   0  0  0  0  0  0  0  0  0  0  0  0
   38.0100   22.3770   35.9740 C   0  0  0  0  0  0  0  0  0  0  0  0
   37.4180   23.2530   36.7880 N   0  0  0  0  0  0  0  0  0  0  0  0
   37.5950   24.4450   38.5540 H   0  0  0  0  0  0  0  0  0  0  0  0
   39.9390   23.6510   39.0270 H   0  0  0  0  0  0  0  0  0  0  0  0
   41.3580   21.9180   37.5820 C   0  0  0  0  0  2  0  0  0  0  0  0
   41.9400   22.0180   36.6210 H   0  0  0  0  0  0  0  0  0  0  0  0
  2  1  1  0  0  0  0
  3  2  1  0  0  0  0
  3 16  1  0  0  0  0
  4  3  2  0  0  0  0
  5  6  2  0  0  0  0
  5  4  1  0  0  0  0
  6  8  1  0  0  0  0
  7  6  1  0  0  0  0
  8 11  1  0  0  0  0
  8  2  2  0  0  0  0
  9  4  1  0  0  0  0
 10  5  1  0  0  0  0
 12 13  1  0  0  0  0
 12 18  1  0  0  0  0
 13 19  1  0  0  0  0
 14 20  1  0  0  0  0
 14 13  2  0  0  0  0
 15 14  1  0  0  0  0
 16 15  2  0  0  0  0
 16 17  1  0  0  0  0
 17 12  2  0  0  0  0
 21 20  1  0  0  0  0
M  END
>  <minimizedAffinity>
-4.74957848

$$$$

 OpenBabel03272502433D

 21 22  0  0  0  0  0  0  0  0999 V2000
   38.9070   27.2840   35.9160 Cl  0  0  0  0  0  0  0  0  0  0  0  0
   38.4690   26.3550   34.5170 C   0  0  0  0  0  0  0  0  0  0  0  0
   38.2960   24.9870   34.6210 C   0  0  0  0  0  0  0  0  0  0  0  0
   37.9510   24.2250   33.5370 C   0  0  0  0  0  0  0  0  0  0  0  0
   37.7640   24.8150   32.2880 C   0  0  0  0  0  0  0  0  0  0  0  0
   37.9270   26.1700   32.1480 C   0  0  0  0  0  0  0  0  0  0  0  0
   37.7210   27.0290   30.6380 Cl  0  0  0  0  0  0  0  0  0  0  0  0
   38.2770   26.9050   33.2750 C   0  0  0  0  0  0  0  0  0  0  0  0
   37.8280   23.1520   33.6780 H   0  0  0  0  0  0  0  0  0  0  0  0
   37.4950   24.2360   31.4340 H   0  0  0  0  0  0  0  0  0  0  0  0
   38.4120   27.9910   33.1820 H   0  0  0  0  0  0  0  0  0  0  0  0
   37.8350   23.9440   38.1020 C   0  0  0  0  0  0  0  0  0  0  0  0
   38.9360   23.1060   38.3270 C   0  0  0  0  0  0  0  0  0  0  0  0
   39.8380   22.9090   37.2560 C   0  0  0  0  0  0  0  0  0  0  0  0
   39.5750   23.5440   36.0880 N   0  0  0  0  0  0  0  0  0  0  0  0
   38.4860   24.3540   35.9130 C   0  0  0  0  0  0  0  0  0  0  0  0
   37.6360   24.5390   36.9240 N   0  0  0  0  0  0  0  0  0  0  0  0
   37.1560   24.0740   38.9560 H   0  0  0  0  0  0  0  0  0  0  0  0
   39.1710   22.5900   39.2420 H   0  0  0  0  0  0  0  0  0  0  0  0
   41.0250   22.0430   37.4060 C   0  0  0  0  0  2  0  0  0  0  0  0
   41.9150   22.6190   37.0220 H   0  0  0  0  0  0  0  0  0  0  0  0
  2  3  1  0  0  0  0
  2  1  1  0  0  0  0
  3 16  1  0  0  0  0
  4  9  1  0  0  0  0
  4  3  2  0  0  0  0
  5  4  1  0  0  0  0
  6  5  2  0  0  0  0
  6  8  1  0  0  0  0
  7  6  1  0  0  0  0
  8  2  2  0  0  0  0
 10  5  1  0  0  0  0
 11  8  1  0  0  0  0
 12 13  1  0  0  0  0
 12 18  1  0  0  0  0
 13 19  1  0  0  0  0
 14 20  1  0  0  0  0
 14 13  2  0  0  0  0
 15 14  1  0  0  0  0
 16 15  2  0  0  0  0
 16 17  1  0  0  0  0
 17 12  2  0  0  0  0
 21 20  1  0  0  0  0
M  END
>  <minimizedAffinity>
-4.7205205

$$$$

 OpenBabel03272502433D

 21 22  0  0  0  0  0  0  0  0999 V2000
   37.9740   23.5660   33.6000 Cl  0  0  0  0  0  0  0  0  0  0  0  0
   37.8850   25.1660   34.2660 C   0  0  0  0  0  0  0  0  0  0  0  0
   38.5250   25.4570   35.4570 C   0  0  0  0  0  0  0  0  0  0  0  0
   38.4740   26.7080   36.0100 C   0  0  0  0  0  0  0  0  0  0  0  0
   37.7680   27.7320   35.3810 C   0  0  0  0  0  0  0  0  0  0  0  0
   37.1210   27.4800   34.1970 C   0  0  0  0  0  0  0  0  0  0  0  0
   36.2050   28.6760   33.3100 Cl  0  0  0  0  0  0  0  0  0  0  0  0
   37.2000   26.1950   33.6710 C   0  0  0  0  0  0  0  0  0  0  0  0
   38.9970   26.8800   36.9500 H   0  0  0  0  0  0  0  0  0  0  0  0
   37.7190   28.7120   35.7970 H   0  0  0  0  0  0  0  0  0  0  0  0
   36.6880   25.9750   32.7250 H   0  0  0  0  0  0  0  0  0  0  0  0
   39.4720   22.7870   37.7810 C   0  0  0  0  0  0  0  0  0  0  0  0
   40.7480   22.4200   37.3330 C   0  0  0  0  0  0  0  0  0  0  0  0
   41.2740   23.1100   36.2170 C   0  0  0  0  0  0  0  0  0  0  0  0
   40.5070   24.0780   35.6580 N   0  0  0  0  0  0  0  0  0  0  0  0
   39.2650   24.4040   36.1290 C   0  0  0  0  0  0  0  0  0  0  0  0
   38.7700   23.7520   37.1820 N   0  0  0  0  0  0  0  0  0  0  0  0
   39.0960   22.2310   38.6500 H   0  0  0  0  0  0  0  0  0  0  0  0
   41.3800   21.6570   37.7560 H   0  0  0  0  0  0  0  0  0  0  0  0
   42.6110   22.7880   35.6790 C   0  0  0  0  0  2  0  0  0  0  0  0
   43.1710   23.7590   35.5570 H   0  0  0  0  0  0  0  0  0  0  0  0
  1  2  1  0  0  0  0
  2  3  1  0  0  0  0
  3  4  2  0  0  0  0
  3 16  1  0  0  0  0
  4  9  1  0  0  0  0
  5 10  1  0  0  0  0
  5  4  1  0  0  0  0
  6  5  2  0  0  0  0
  7  6  1  0  0  0  0
  8  6  1  0  0  0  0
  8  2  2  0  0  0  0
 11  8  1  0  0  0  0
 12 18  1  0  0  0  0
 13 19  1  0  0  0  0
 13 12  1  0  0  0  0
 14 13  2  0  0  0  0
 15 16  2  0  0  0  0
 15 14  1  0  0  0  0
 16 17  1  0  0  0  0
 17 12  2  0  0  0  0
 20 14  1  0  0  0  0
 21 20  1  0  0  0  0
M  END
>  <minimizedAffinity>
-4.50486994

$$$$

 OpenBabel03272502433D

 21 22  0  0  0  0  0  0  0  0999 V2000
   37.4500   23.6910   37.2760 Cl  0  0  0  0  0  0  0  0  0  0  0  0
   39.0820   23.4870   36.7230 C   0  0  0  0  0  0  0  0  0  0  0  0
   39.6040   24.3460   35.7730 C   0  0  0  0  0  0  0  0  0  0  0  0
   40.8870   24.2120   35.3150 C   0  0  0  0  0  0  0  0  0  0  0  0
   41.7100   23.1960   35.7990 C   0  0  0  0  0  0  0  0  0  0  0  0
   41.2250   22.3250   36.7420 C   0  0  0  0  0  0  0  0  0  0  0  0
   42.1530   21.0110   37.4290 Cl  0  0  0  0  0  0  0  0  0  0  0  0
   39.9160   22.4980   37.1800 C   0  0  0  0  0  0  0  0  0  0  0  0
   41.2450   24.9170   34.5670 H   0  0  0  0  0  0  0  0  0  0  0  0
   42.7110   23.0770   35.4540 H   0  0  0  0  0  0  0  0  0  0  0  0
   39.5110   21.8100   37.9340 H   0  0  0  0  0  0  0  0  0  0  0  0
   37.8570   27.5420   35.3860 C   0  0  0  0  0  0  0  0  0  0  0  0
   37.1450   27.3680   34.1920 C   0  0  0  0  0  0  0  0  0  0  0  0
   37.2790   26.1290   33.5250 C   0  0  0  0  0  0  0  0  0  0  0  0
   38.0860   25.1970   34.0870 N   0  0  0  0  0  0  0  0  0  0  0  0
   38.7640   25.4110   35.2560 C   0  0  0  0  0  0  0  0  0  0  0  0
   38.6370   26.5800   35.8840 N   0  0  0  0  0  0  0  0  0  0  0  0
   37.7300   28.5170   35.8770 H   0  0  0  0  0  0  0  0  0  0  0  0
   36.4970   28.0890   33.7230 H   0  0  0  0  0  0  0  0  0  0  0  0
   36.5640   25.8600   32.2610 C   0  0  0  0  0  2  0  0  0  0  0  0
   36.0540   24.8600   32.3670 H   0  0  0  0  0  0  0  0  0  0  0  0
  2  8  1  0  0  0  0
  2  1  1  0  0  0  0
  3  2  2  0  0  0  0
  4  3  1  0  0  0  0
  4  5  2  0  0  0  0
  5  6  1  0  0  0  0
  6  8  2  0  0  0  0
  6  7  1  0  0  0  0
  8 11  1  0  0  0  0
  9  4  1  0  0  0  0
 10  5  1  0  0  0  0
 12 18  1  0  0  0  0
 12 17  1  0  0  0  0
 13 12  2  0  0  0  0
 14 15  2  0  0  0  0
 14 13  1  0  0  0  0
 15 16  1  0  0  0  0
 16  3  1  0  0  0  0
 16 17  2  0  0  0  0
 19 13  1  0  0  0  0
 20 21  1  0  0  0  0
 20 14  1  0  0  0  0
M  END
>  <minimizedAffinity>
-4.4930768

$$$$

 OpenBabel03272502433D

 21 22  0  0  0  0  0  0  0  0999 V2000
   38.5260   27.4500   36.0260 Cl  0  0  0  0  0  0  0  0  0  0  0  0
   37.8720   26.7930   34.5600 C   0  0  0  0  0  0  0  0  0  0  0  0
   37.9870   25.4400   34.2950 C   0  0  0  0  0  0  0  0  0  0  0  0
   37.4830   24.8890   33.1480 C   0  0  0  0  0  0  0  0  0  0  0  0
   36.8310   25.6850   32.2070 C   0  0  0  0  0  0  0  0  0  0  0  0
   36.6980   27.0320   32.4360 C   0  0  0  0  0  0  0  0  0  0  0  0
   35.9040   28.1370   31.3370 Cl  0  0  0  0  0  0  0  0  0  0  0  0
   37.2250   27.5490   33.6150 C   0  0  0  0  0  0  0  0  0  0  0  0
   37.6030   23.8180   32.9920 H   0  0  0  0  0  0  0  0  0  0  0  0
   36.4320   25.2730   31.3090 H   0  0  0  0  0  0  0  0  0  0  0  0
   37.1270   28.6250   33.8150 H   0  0  0  0  0  0  0  0  0  0  0  0
   40.4920   23.3530   35.9640 C   0  0  0  0  0  0  0  0  0  0  0  0
   39.8560   22.9940   37.1600 C   0  0  0  0  0  0  0  0  0  0  0  0
   38.5480   23.4860   37.3790 C   0  0  0  0  0  0  0  0  0  0  0  0
   38.0030   24.2690   36.4160 N   0  0  0  0  0  0  0  0  0  0  0  0
   38.6620   24.5940   35.2620 C   0  0  0  0  0  0  0  0  0  0  0  0
   39.8960   24.1290   35.0580 N   0  0  0  0  0  0  0  0  0  0  0  0
   41.5070   22.9530   35.8280 H   0  0  0  0  0  0  0  0  0  0  0  0
   40.2630   22.3760   37.9420 H   0  0  0  0  0  0  0  0  0  0  0  0
   37.8040   23.1590   38.6110 C   0  0  0  0  0  2  0  0  0  0  0  0
   36.7780   22.8060   38.3040 H   0  0  0  0  0  0  0  0  0  0  0  0
  2  1  1  0  0  0  0
  3  2  1  0  0  0  0
  3 16  1  0  0  0  0
  4  3  2  0  0  0  0
  5  6  2  0  0  0  0
  5  4  1  0  0  0  0
  6  8  1  0  0  0  0
  7  6  1  0  0  0  0
  8 11  1  0  0  0  0
  8  2  2  0  0  0  0
  9  4  1  0  0  0  0
 10  5  1  0  0  0  0
 12 13  1  0  0  0  0
 13 14  2  0  0  0  0
 13 19  1  0  0  0  0
 14 20  1  0  0  0  0
 15 14  1  0  0  0  0
 16 15  2  0  0  0  0
 17 16  1  0  0  0  0
 17 12  2  0  0  0  0
 18 12  1  0  0  0  0
 21 20  1  0  0  0  0
M  END
>  <minimizedAffinity>
-4.39516401

$$$$

 OpenBabel03272502433D

 21 22  0  0  0  0  0  0  0  0999 V2000
   37.7130   23.9450   32.7740 Cl  0  0  0  0  0  0  0  0  0  0  0  0
   37.3910   25.5440   33.3670 C   0  0  0  0  0  0  0  0  0  0  0  0
   37.8060   25.9090   34.6340 C   0  0  0  0  0  0  0  0  0  0  0  0
   37.5670   27.1610   35.1320 C   0  0  0  0  0  0  0  0  0  0  0  0
   36.8920   28.1110   34.3670 C   0  0  0  0  0  0  0  0  0  0  0  0
   36.4660   27.7840   33.1050 C   0  0  0  0  0  0  0  0  0  0  0  0
   35.6110   28.8830   32.0460 Cl  0  0  0  0  0  0  0  0  0  0  0  0
   36.7300   26.5010   32.6380 C   0  0  0  0  0  0  0  0  0  0  0  0
   37.9170   27.3940   36.1370 H   0  0  0  0  0  0  0  0  0  0  0  0
   36.6990   29.0910   34.7390 H   0  0  0  0  0  0  0  0  0  0  0  0
   36.3960   26.2210   31.6300 H   0  0  0  0  0  0  0  0  0  0  0  0
   40.3270   23.5530   35.8640 C   0  0  0  0  0  0  0  0  0  0  0  0
   39.7650   23.0880   37.0610 C   0  0  0  0  0  0  0  0  0  0  0  0
   38.5010   23.6020   37.4330 C   0  0  0  0  0  0  0  0  0  0  0  0
   37.9230   24.5080   36.6080 N   0  0  0  0  0  0  0  0  0  0  0  0
   38.5100   24.9340   35.4480 C   0  0  0  0  0  0  0  0  0  0  0  0
   39.7020   24.4490   35.0970 N   0  0  0  0  0  0  0  0  0  0  0  0
   41.3090   23.1320   35.6060 H   0  0  0  0  0  0  0  0  0  0  0  0
   40.1990   22.3700   37.7350 H   0  0  0  0  0  0  0  0  0  0  0  0
   37.8360   23.1670   38.6780 C   0  0  0  0  0  2  0  0  0  0  0  0
   36.7750   22.8900   38.4160 H   0  0  0  0  0  0  0  0  0  0  0  0
  1  2  1  0  0  0  0
  2  3  1  0  0  0  0
  3  4  2  0  0  0  0
  3 16  1  0  0  0  0
  4  9  1  0  0  0  0
  5 10  1  0  0  0  0
  5  4  1  0  0  0  0
  6  5  2  0  0  0  0
  7  6  1  0  0  0  0
  8  6  1  0  0  0  0
  8  2  2  0  0  0  0
 11  8  1  0  0  0  0
 12 13  1  0  0  0  0
 13 14  2  0  0  0  0
 13 19  1  0  0  0  0
 14 20  1  0  0  0  0
 15 14  1  0  0  0  0
 16 15  2  0  0  0  0
 17 16  1  0  0  0  0
 17 12  2  0  0  0  0
 18 12  1  0  0  0  0
 21 20  1  0  0  0  0
M  END
>  <minimizedAffinity>
-4.3286643

$$$$

 OpenBabel03272502433D

 21 22  0  0  0  0  0  0  0  0999 V2000
   37.7730   27.4960   35.4360 Cl  0  0  0  0  0  0  0  0  0  0  0  0
   38.0650   25.8050   35.6900 C   0  0  0  0  0  0  0  0  0  0  0  0
   38.1320   24.9440   34.6090 C   0  0  0  0  0  0  0  0  0  0  0  0
   38.3610   23.6050   34.7750 C   0  0  0  0  0  0  0  0  0  0  0  0
   38.5350   23.0680   36.0490 C   0  0  0  0  0  0  0  0  0  0  0  0
   38.4760   23.8930   37.1440 C   0  0  0  0  0  0  0  0  0  0  0  0
   38.6780   23.3440   38.7930 Cl  0  0  0  0  0  0  0  0  0  0  0  0
   38.2420   25.2470   36.9310 C   0  0  0  0  0  0  0  0  0  0  0  0
   38.4030   22.9740   33.8880 H   0  0  0  0  0  0  0  0  0  0  0  0
   38.7150   22.0280   36.1960 H   0  0  0  0  0  0  0  0  0  0  0  0
   38.1910   25.9210   37.7960 H   0  0  0  0  0  0  0  0  0  0  0  0
   38.7420   26.6020   31.4000 C   0  0  0  0  0  0  0  0  0  0  0  0
   37.5130   26.4700   30.7400 C   0  0  0  0  0  0  0  0  0  0  0  0
   36.4720   25.8000   31.4230 C   0  0  0  0  0  0  0  0  0  0  0  0
   36.7360   25.3320   32.6670 N   0  0  0  0  0  0  0  0  0  0  0  0
   37.9530   25.4830   33.2740 C   0  0  0  0  0  0  0  0  0  0  0  0
   38.9340   26.1160   32.6280 N   0  0  0  0  0  0  0  0  0  0  0  0
   39.5270   27.1280   30.8400 H   0  0  0  0  0  0  0  0  0  0  0  0
   37.2740   26.8310   29.7540 H   0  0  0  0  0  0  0  0  0  0  0  0
   35.1450   25.6160   30.8020 C   0  0  0  0  0  2  0  0  0  0  0  0
   34.3710   25.9430   31.5550 H   0  0  0  0  0  0  0  0  0  0  0  0
  1  2  1  0  0  0  0
  2  8  1  0  0  0  0
  3  4  1  0  0  0  0
  3  2  2  0  0  0  0
  4  5  2  0  0  0  0
  5 10  1  0  0  0  0
  5  6  1  0  0  0  0
  6  7  1  0  0  0  0
  8  6  2  0  0  0  0
  8 11  1  0  0  0  0
  9  4  1  0  0  0  0
 12 17  1  0  0  0  0
 13 12  2  0  0  0  0
 13 14  1  0  0  0  0
 14 15  2  0  0  0  0
 15 16  1  0  0  0  0
 16  3  1  0  0  0  0
 17 16  2  0  0  0  0
 18 12  1  0  0  0  0
 19 13  1  0  0  0  0
 20 14  1  0  0  0  0
 20 21  1  0  0  0  0
M  END
>  <minimizedAffinity>
-4.3229804

$$$$

 OpenBabel03272502433D

 21 22  0  0  0  0  0  0  0  0999 V2000
   38.2330   23.0860   33.3400 Cl  0  0  0  0  0  0  0  0  0  0  0  0
   37.1890   24.1800   32.4880 C   0  0  0  0  0  0  0  0  0  0  0  0
   36.1380   23.6900   31.7360 C   0  0  0  0  0  0  0  0  0  0  0  0
   35.2970   24.5250   31.0510 C   0  0  0  0  0  0  0  0  0  0  0  0
   35.4790   25.9070   31.0960 C   0  0  0  0  0  0  0  0  0  0  0  0
   36.5120   26.4290   31.8330 C   0  0  0  0  0  0  0  0  0  0  0  0
   36.8480   28.1400   31.9710 Cl  0  0  0  0  0  0  0  0  0  0  0  0
   37.3420   25.5440   32.5130 C   0  0  0  0  0  0  0  0  0  0  0  0
   34.4850   24.0830   30.4750 H   0  0  0  0  0  0  0  0  0  0  0  0
   34.8330   26.5710   30.5700 H   0  0  0  0  0  0  0  0  0  0  0  0
   38.1740   25.9440   33.1080 H   0  0  0  0  0  0  0  0  0  0  0  0
   34.9140   20.3050   32.4180 C   0  0  0  0  0  0  0  0  0  0  0  0
   35.6070   19.5260   31.4820 C   0  0  0  0  0  0  0  0  0  0  0  0
   36.5020   20.1900   30.6120 C   0  0  0  0  0  0  0  0  0  0  0  0
   36.6280   21.5330   30.7460 N   0  0  0  0  0  0  0  0  0  0  0  0
   35.9300   22.2540   31.6760 C   0  0  0  0  0  0  0  0  0  0  0  0
   35.0860   21.6260   32.4950 N   0  0  0  0  0  0  0  0  0  0  0  0
   34.2270   19.7560   33.0770 H   0  0  0  0  0  0  0  0  0  0  0  0
   35.5280   18.4600   31.3530 H   0  0  0  0  0  0  0  0  0  0  0  0
   37.2730   19.4470   29.5960 C   0  0  0  0  0  2  0  0  0  0  0  0
   38.3500   19.7690   29.6850 H   0  0  0  0  0  0  0  0  0  0  0  0
  2  8  1  0  0  0  0
  2  1  1  0  0  0  0
  3  2  2  0  0  0  0
  4  5  2  0  0  0  0
  4  3  1  0  0  0  0
  5  6  1  0  0  0  0
  6  7  1  0  0  0  0
  6  8  2  0  0  0  0
  8 11  1  0  0  0  0
  9  4  1  0  0  0  0
 10  5  1  0  0  0  0
 12 17  1  0  0  0  0
 12 18  1  0  0  0  0
 13 12  2  0  0  0  0
 14 15  2  0  0  0  0
 14 13  1  0  0  0  0
 15 16  1  0  0  0  0
 16  3  1  0  0  0  0
 16 17  2  0  0  0  0
 19 13  1  0  0  0  0
 20 21  1  0  0  0  0
 20 14  1  0  0  0  0
M  END
>  <minimizedAffinity>
-4.30578089

$$$$

 OpenBabel03272502433D

 21 22  0  0  0  0  0  0  0  0999 V2000
   34.6960   31.5400   32.3120 Cl  0  0  0  0  0  0  0  0  0  0  0  0
   35.5350   30.0720   32.7010 C   0  0  0  0  0  0  0  0  0  0  0  0
   35.6270   29.6540   34.0160 C   0  0  0  0  0  0  0  0  0  0  0  0
   36.2820   28.5010   34.3570 C   0  0  0  0  0  0  0  0  0  0  0  0
   36.8790   27.7100   33.3780 C   0  0  0  0  0  0  0  0  0  0  0  0
   36.8080   28.0930   32.0620 C   0  0  0  0  0  0  0  0  0  0  0  0
   37.5140   27.1900   30.7410 Cl  0  0  0  0  0  0  0  0  0  0  0  0
   36.1320   29.2710   31.7600 C   0  0  0  0  0  0  0  0  0  0  0  0
   36.3220   28.2220   35.4090 H   0  0  0  0  0  0  0  0  0  0  0  0
   37.3920   26.8090   33.6260 H   0  0  0  0  0  0  0  0  0  0  0  0
   36.0650   29.5930   30.7130 H   0  0  0  0  0  0  0  0  0  0  0  0
   35.1050   32.1180   36.6760 C   0  0  0  0  0  0  0  0  0  0  0  0
   33.7510   31.9510   36.9980 C   0  0  0  0  0  0  0  0  0  0  0  0
   33.0240   30.9730   36.2810 C   0  0  0  0  0  0  0  0  0  0  0  0
   33.6870   30.2670   35.3330 N   0  0  0  0  0  0  0  0  0  0  0  0
   35.0110   30.4640   35.0520 C   0  0  0  0  0  0  0  0  0  0  0  0
   35.6960   31.3870   35.7290 N   0  0  0  0  0  0  0  0  0  0  0  0
   35.6390   32.8860   37.2530 H   0  0  0  0  0  0  0  0  0  0  0  0
   33.1990   32.4960   37.7440 H   0  0  0  0  0  0  0  0  0  0  0  0
   31.5940   30.7310   36.5550 C   0  0  0  0  0  2  0  0  0  0  0  0
   31.4560   29.6180   36.6770 H   0  0  0  0  0  0  0  0  0  0  0  0
  1  2  1  0  0  0  0
  2  3  1  0  0  0  0
  3  4  2  0  0  0  0
  3 16  1  0  0  0  0
  4  9  1  0  0  0  0
  5 10  1  0  0  0  0
  5  4  1  0  0  0  0
  6  5  2  0  0  0  0
  7  6  1  0  0  0  0
  8  6  1  0  0  0  0
  8  2  2  0  0  0  0
 11  8  1  0  0  0  0
 12 13  1  0  0  0  0
 12 18  1  0  0  0  0
 13 19  1  0  0  0  0
 14 20  1  0  0  0  0
 14 13  2  0  0  0  0
 15 14  1  0  0  0  0
 16 15  2  0  0  0  0
 16 17  1  0  0  0  0
 17 12  2  0  0  0  0
 20 21  1  0  0  0  0
M  END
>  <minimizedAffinity>
-4.23638058

$$$$
