
 OpenBabel03272503453D

 26 27  0  0  0  0  0  0  0  0999 V2000
   38.8730   32.4600   47.4930 C   0  0  0  0  0  0  0  0  0  0  0  0
   38.5330   32.6410   48.8140 C   0  0  0  0  0  0  0  0  0  0  0  0
   39.0430   33.6760   49.5580 C   0  0  0  0  0  0  0  0  0  0  0  0
   39.9170   34.5730   49.0000 C   0  0  0  0  0  0  0  0  0  0  0  0
   40.2650   34.3970   47.6650 C   0  0  0  0  0  0  0  0  0  0  0  0
   39.7630   33.3580   46.8960 C   0  0  0  0  0  0  0  0  0  0  0  0
   38.7570   33.7930   50.5950 H   0  0  0  0  0  0  0  0  0  0  0  0
   40.3580   35.4000   49.4960 H   0  0  0  0  0  0  0  0  0  0  0  0
   40.9540   35.0830   47.1840 H   0  0  0  0  0  0  0  0  0  0  0  0
   40.0730   33.2750   45.8620 H   0  0  0  0  0  0  0  0  0  0  0  0
   38.1280   30.6680   50.2160 C   0  0  0  0  0  0  0  0  0  0  0  0
   37.6020   31.6750   49.3880 C   0  0  0  0  0  0  0  0  0  0  0  0
   36.2140   31.6820   49.1730 C   0  0  0  0  0  0  0  0  0  0  0  0
   35.4620   30.7210   49.7720 N   0  0  0  0  0  0  0  0  0  0  0  0
   36.0190   29.7740   50.5590 C   0  0  0  0  0  0  0  0  0  0  0  0
   37.3360   29.7460   50.7790 N   0  0  0  0  0  0  0  0  0  0  0  0
   39.2050   30.6480   50.3930 H   0  0  0  0  0  0  0  0  0  0  0  0
   35.8800   32.4670   48.5410 H   0  0  0  0  0  0  0  0  0  0  0  0
   35.0920   28.7600   51.1700 C   0  0  0  0  0  0  0  0  0  0  0  0
   35.2330   28.7240   52.2700 H   0  0  0  0  0  0  0  0  0  0  0  0
   39.1140   30.3190   46.4080 N   0  0  0  0  0  0  0  0  0  0  0  0
   38.4070   31.4070   46.5950 C   0  0  0  0  0  0  0  0  0  0  0  0
   37.1940   31.3910   45.8310 N   0  0  0  0  0  0  0  0  0  0  0  0
   40.0170   30.1570   46.8710 H   0  0  0  0  0  0  0  0  0  0  0  0
   37.1730   32.3220   45.3610 H   0  0  0  0  0  0  0  0  0  0  0  0
   36.5580   30.5460   45.8410 H   0  0  0  0  0  0  0  0  0  0  0  0
  1  2  1  0  0  0  0
  2 12  1  0  0  0  0
  2  3  2  0  0  0  0
  3  7  1  0  0  0  0
  4  8  1  0  0  0  0
  4  3  1  0  0  0  0
  5  4  2  0  0  0  0
  6  1  2  0  0  0  0
  6  5  1  0  0  0  0
  9  5  1  0  0  0  0
 10  6  1  0  0  0  0
 11 17  1  0  0  0  0
 11 16  1  0  0  0  0
 12 11  2  0  0  0  0
 13 12  1  0  0  0  0
 13 14  2  0  0  0  0
 14 15  1  0  0  0  0
 15 16  2  0  0  0  0
 15 19  1  0  0  0  0
 18 13  1  0  0  0  0
 19 20  1  0  0  0  0
 21 22  2  0  0  0  0
 21 24  1  0  0  0  0
 22  1  1  0  0  0  0
 23 26  1  0  0  0  0
 23 22  1  0  0  0  0
 25 23  1  0  0  0  0
M  END
>  <minimizedAffinity>
-4.87504959

>  <minimizedRMSD>
0.3828246

$$$$
