
 OpenBabel03272510013D

 14 14  0  0  0  0  0  0  0  0999 V2000
   38.2740   31.2900   50.0760 C   0  0  0  0  0  0  0  0  0  0  0  0
   38.3620   31.4470   48.6820 C   0  0  0  0  0  0  0  0  0  0  0  0
   37.3510   30.8950   47.8990 C   0  0  0  0  0  0  0  0  0  0  0  0
   36.3340   30.2330   48.5230 N   0  0  0  0  0  0  0  0  0  0  0  0
   36.2900   30.1060   49.8580 C   0  0  0  0  0  0  0  0  0  0  0  0
   37.2540   30.6300   50.6370 N   0  0  0  0  0  0  0  0  0  0  0  0
   39.0600   31.7200   50.6900 H   0  0  0  0  0  0  0  0  0  0  0  0
   39.1890   31.9810   48.2400 H   0  0  0  0  0  0  0  0  0  0  0  0
   35.1370   29.3650   50.4450 C   0  0  0  0  0  0  0  0  0  0  0  0
   35.2750   29.1190   51.7910 F   0  0  0  0  0  0  0  0  0  0  0  0
   33.9510   30.0810   50.2890 F   0  0  0  0  0  0  0  0  0  0  0  0
   34.9260   28.1410   49.8400 F   0  0  0  0  0  0  0  0  0  0  0  0
   37.4010   31.0350   46.4190 C   0  0  0  0  0  0  0  0  0  0  0  0
   36.4450   30.7640   45.9700 H   0  0  0  0  0  0  0  0  0  0  0  0
  1  6  1  0  0  0  0
  1  7  1  0  0  0  0
  2  1  2  0  0  0  0
  3  4  2  0  0  0  0
  3  2  1  0  0  0  0
  4  5  1  0  0  0  0
  5  9  1  0  0  0  0
  5  6  2  0  0  0  0
  8  2  1  0  0  0  0
  9 10  1  0  0  0  0
 11  9  1  0  0  0  0
 12  9  1  0  0  0  0
 13  3  1  0  0  0  0
 14 13  1  0  0  0  0
M  END
>  <minimizedAffinity>
-4.46753836

>  <minimizedRMSD>
0.247251153

$$$$
