
 OpenBabel03272504143D

 24 25  0  0  0  0  0  0  0  0999 V2000
   36.3870   29.8390   49.7860 C   0  0  0  0  0  0  0  0  0  0  0  0
   37.4080   30.2010   48.9080 C   0  0  0  0  0  0  0  0  0  0  0  0
   37.1160   30.5360   47.5950 C   0  0  0  0  0  0  0  0  0  0  0  0
   35.7910   30.4880   47.2390 N   0  0  0  0  0  0  0  0  0  0  0  0
   34.8200   30.1400   48.0910 C   0  0  0  0  0  0  0  0  0  0  0  0
   35.1210   29.8180   49.3530 N   0  0  0  0  0  0  0  0  0  0  0  0
   38.4490   30.2370   49.1920 H   0  0  0  0  0  0  0  0  0  0  0  0
   33.7830   30.1100   47.7830 H   0  0  0  0  0  0  0  0  0  0  0  0
   38.4800   33.1490   48.2760 Cl  0  0  0  0  0  0  0  0  0  0  0  0
   38.8240   32.1120   46.8950 C   0  0  0  0  0  0  0  0  0  0  0  0
   38.1430   30.9170   46.6550 C   0  0  0  0  0  0  0  0  0  0  0  0
   38.5150   30.2280   45.5510 C   0  0  0  0  0  0  0  0  0  0  0  0
   39.5020   30.6660   44.7120 C   0  0  0  0  0  0  0  0  0  0  0  0
   40.1850   31.8320   44.9230 C   0  0  0  0  0  0  0  0  0  0  0  0
   39.8140   32.5600   46.0600 C   0  0  0  0  0  0  0  0  0  0  0  0
   37.9930   29.2940   45.3490 H   0  0  0  0  0  0  0  0  0  0  0  0
   39.7480   30.0550   43.8410 H   0  0  0  0  0  0  0  0  0  0  0  0
   40.9650   32.2030   44.2810 H   0  0  0  0  0  0  0  0  0  0  0  0
   40.5570   33.8430   46.3070 C   0  0  0  0  0  0  0  0  0  0  0  0
   41.6490   33.6120   46.3320 H   0  0  0  0  0  0  0  0  0  0  0  0
   36.7460   29.4810   51.2010 C   0  0  0  0  0  0  0  0  0  0  0  0
   35.5980   29.1280   51.8870 F   0  0  0  0  0  0  0  0  0  0  0  0
   37.6960   28.5180   51.1460 F   0  0  0  0  0  0  0  0  0  0  0  0
   37.2490   30.6390   51.7980 F   0  0  0  0  0  0  0  0  0  0  0  0
  1 21  1  0  0  0  0
  2  7  1  0  0  0  0
  2  1  2  0  0  0  0
  3  2  1  0  0  0  0
  4  3  2  0  0  0  0
  4  5  1  0  0  0  0
  5  6  2  0  0  0  0
  6  1  1  0  0  0  0
  8  5  1  0  0  0  0
 10  9  1  0  0  0  0
 11 10  1  0  0  0  0
 11  3  1  0  0  0  0
 12 11  2  0  0  0  0
 13 14  2  0  0  0  0
 13 12  1  0  0  0  0
 14 15  1  0  0  0  0
 15 19  1  0  0  0  0
 15 10  2  0  0  0  0
 16 12  1  0  0  0  0
 17 13  1  0  0  0  0
 18 14  1  0  0  0  0
 19 20  1  0  0  0  0
 21 24  1  0  0  0  0
 21 22  1  0  0  0  0
 23 21  1  0  0  0  0
M  END
>  <minimizedAffinity>
-6.12214899

>  <minimizedRMSD>
0.56468004

$$$$
