
 OpenBabel03272510213D

 29 31  0  0  0  0  0  0  0  0999 V2000
   37.2560   28.6490   29.6190 Br  0  0  0  0  0  0  0  0  0  0  0  0
   36.5180   29.2610   31.2680 C   0  0  0  0  0  0  0  0  0  0  0  0
   36.0770   28.3730   32.2350 C   0  0  0  0  0  0  0  0  0  0  0  0
   35.5620   28.8960   33.3870 C   0  0  0  0  0  0  0  0  0  0  0  0
   35.4510   30.2460   33.6500 C   0  0  0  0  0  0  0  0  0  0  0  0
   35.8950   31.1020   32.6780 C   0  0  0  0  0  0  0  0  0  0  0  0
   36.4200   30.6050   31.5040 C   0  0  0  0  0  0  0  0  0  0  0  0
   35.2140   28.1930   34.1490 H   0  0  0  0  0  0  0  0  0  0  0  0
   35.8530   32.1790   32.7860 H   0  0  0  0  0  0  0  0  0  0  0  0
   36.7680   31.3000   30.7420 H   0  0  0  0  0  0  0  0  0  0  0  0
   37.3050   24.9450   32.4400 C   0  0  0  0  0  0  0  0  0  0  0  0
   36.3890   24.2150   31.6360 C   0  0  0  0  0  0  0  0  0  0  0  0
   35.3510   24.9220   31.0290 C   0  0  0  0  0  0  0  0  0  0  0  0
   35.2690   26.2730   31.2380 N   0  0  0  0  0  0  0  0  0  0  0  0
   36.1660   26.9350   32.0140 C   0  0  0  0  0  0  0  0  0  0  0  0
   37.1770   26.2620   32.6090 N   0  0  0  0  0  0  0  0  0  0  0  0
   38.1170   24.4020   32.9160 H   0  0  0  0  0  0  0  0  0  0  0  0
   36.5030   23.1400   31.5060 H   0  0  0  0  0  0  0  0  0  0  0  0
   34.6310   24.4120   30.4100 H   0  0  0  0  0  0  0  0  0  0  0  0
   34.9060   30.8010   34.8690 C   0  0  0  0  0  0  0  0  0  0  0  0
   35.5620   31.6570   35.7240 C   0  0  0  0  0  0  0  0  0  0  0  0
   34.9830   32.1530   36.8760 C   0  0  0  0  0  0  0  0  0  0  0  0
   33.7300   31.8010   37.1980 N   0  0  0  0  0  0  0  0  0  0  0  0
   33.0760   30.9680   36.3740 C   0  0  0  0  0  0  0  0  0  0  0  0
   33.6460   30.4970   35.2660 N   0  0  0  0  0  0  0  0  0  0  0  0
   36.5820   31.9420   35.4600 H   0  0  0  0  0  0  0  0  0  0  0  0
   35.5400   32.8220   37.5150 H   0  0  0  0  0  0  0  0  0  0  0  0
   31.6830   30.5600   36.7040 C   0  0  0  0  0  2  0  0  0  0  0  0
   31.2210   30.0360   35.8440 H   0  0  0  0  0  0  0  0  0  0  0  0
  1  2  1  0  0  0  0
  2  7  2  0  0  0  0
  2  3  1  0  0  0  0
  3  4  2  0  0  0  0
  4  5  1  0  0  0  0
  4  8  1  0  0  0  0
  5 20  1  0  0  0  0
  6  9  1  0  0  0  0
  6  5  2  0  0  0  0
  7  6  1  0  0  0  0
 10  7  1  0  0  0  0
 11 16  1  0  0  0  0
 11 17  1  0  0  0  0
 12 11  2  0  0  0  0
 13 14  2  0  0  0  0
 13 12  1  0  0  0  0
 14 15  1  0  0  0  0
 15  3  1  0  0  0  0
 15 16  2  0  0  0  0
 18 12  1  0  0  0  0
 19 13  1  0  0  0  0
 20 25  2  0  0  0  0
 20 21  1  0  0  0  0
 21 22  2  0  0  0  0
 22 23  1  0  0  0  0
 22 27  1  0  0  0  0
 24 28  1  0  0  0  0
 24 23  2  0  0  0  0
 25 24  1  0  0  0  0
 26 21  1  0  0  0  0
 29 28  1  0  0  0  0
M  END
>  <minimizedAffinity>
-5.53992271

$$$$

 OpenBabel03272510213D

 29 31  0  0  0  0  0  0  0  0999 V2000
   35.6590   30.0940   31.4740 Br  0  0  0  0  0  0  0  0  0  0  0  0
   36.4270   28.7240   32.5550 C   0  0  0  0  0  0  0  0  0  0  0  0
   36.1620   28.6420   33.9120 C   0  0  0  0  0  0  0  0  0  0  0  0
   36.7530   27.6300   34.6120 C   0  0  0  0  0  0  0  0  0  0  0  0
   37.5940   26.6850   34.0600 C   0  0  0  0  0  0  0  0  0  0  0  0
   37.8390   26.7900   32.7170 C   0  0  0  0  0  0  0  0  0  0  0  0
   37.2580   27.8000   31.9820 C   0  0  0  0  0  0  0  0  0  0  0  0
   36.5420   27.5660   35.6840 H   0  0  0  0  0  0  0  0  0  0  0  0
   38.4850   26.0990   32.1870 H   0  0  0  0  0  0  0  0  0  0  0  0
   37.4640   27.8680   30.9160 H   0  0  0  0  0  0  0  0  0  0  0  0
   35.0860   31.5830   35.7820 C   0  0  0  0  0  0  0  0  0  0  0  0
   33.6690   31.4770   35.7820 C   0  0  0  0  0  0  0  0  0  0  0  0
   33.1000   30.3830   35.1310 C   0  0  0  0  0  0  0  0  0  0  0  0
   33.9290   29.4740   34.5300 N   0  0  0  0  0  0  0  0  0  0  0  0
   35.2810   29.6110   34.5530 C   0  0  0  0  0  0  0  0  0  0  0  0
   35.8460   30.6670   35.1800 N   0  0  0  0  0  0  0  0  0  0  0  0
   35.5380   32.4320   36.2880 H   0  0  0  0  0  0  0  0  0  0  0  0
   33.0590   32.2310   36.2760 H   0  0  0  0  0  0  0  0  0  0  0  0
   32.0290   30.2590   35.1040 H   0  0  0  0  0  0  0  0  0  0  0  0
   38.2210   25.6130   34.8010 C   0  0  0  0  0  0  0  0  0  0  0  0
   39.2030   24.7760   34.3230 C   0  0  0  0  0  0  0  0  0  0  0  0
   39.7620   23.7670   35.0830 C   0  0  0  0  0  0  0  0  0  0  0  0
   39.3490   23.5750   36.3440 N   0  0  0  0  0  0  0  0  0  0  0  0
   38.3920   24.3840   36.8260 C   0  0  0  0  0  0  0  0  0  0  0  0
   37.8610   25.3520   36.0810 N   0  0  0  0  0  0  0  0  0  0  0  0
   39.5380   24.9340   33.2960 H   0  0  0  0  0  0  0  0  0  0  0  0
   40.5310   23.1360   34.6610 H   0  0  0  0  0  0  0  0  0  0  0  0
   37.9120   24.1950   38.2220 C   0  0  0  0  0  2  0  0  0  0  0  0
   37.2740   25.0480   38.5290 H   0  0  0  0  0  0  0  0  0  0  0  0
  1  2  1  0  0  0  0
  2  3  1  0  0  0  0
  3 15  1  0  0  0  0
  3  4  2  0  0  0  0
  4  8  1  0  0  0  0
  5  4  1  0  0  0  0
  5 20  1  0  0  0  0
  6  5  2  0  0  0  0
  7  2  2  0  0  0  0
  7  6  1  0  0  0  0
  9  6  1  0  0  0  0
 10  7  1  0  0  0  0
 11 17  1  0  0  0  0
 12 11  1  0  0  0  0
 12 18  1  0  0  0  0
 13 12  2  0  0  0  0
 14 15  2  0  0  0  0
 14 13  1  0  0  0  0
 15 16  1  0  0  0  0
 16 11  2  0  0  0  0
 19 13  1  0  0  0  0
 20 25  1  0  0  0  0
 21 20  2  0  0  0  0
 21 22  1  0  0  0  0
 22 23  2  0  0  0  0
 23 24  1  0  0  0  0
 24 28  1  0  0  0  0
 25 24  2  0  0  0  0
 26 21  1  0  0  0  0
 27 22  1  0  0  0  0
 28 29  1  0  0  0  0
M  END
>  <minimizedAffinity>
-5.45418262

$$$$

 OpenBabel03272510213D

 29 31  0  0  0  0  0  0  0  0999 V2000
   36.3740   27.7270   31.7310 Br  0  0  0  0  0  0  0  0  0  0  0  0
   36.3030   25.8220   31.7940 C   0  0  0  0  0  0  0  0  0  0  0  0
   37.2210   25.0890   32.5290 C   0  0  0  0  0  0  0  0  0  0  0  0
   37.0990   23.7300   32.5200 C   0  0  0  0  0  0  0  0  0  0  0  0
   36.1250   23.0380   31.8280 C   0  0  0  0  0  0  0  0  0  0  0  0
   35.2310   23.7860   31.1100 C   0  0  0  0  0  0  0  0  0  0  0  0
   35.3270   25.1610   31.1000 C   0  0  0  0  0  0  0  0  0  0  0  0
   37.8240   23.1530   33.1010 H   0  0  0  0  0  0  0  0  0  0  0  0
   34.4290   23.3410   30.5330 H   0  0  0  0  0  0  0  0  0  0  0  0
   34.6080   25.7400   30.5230 H   0  0  0  0  0  0  0  0  0  0  0  0
   40.4380   26.6310   33.2910 C   0  0  0  0  0  0  0  0  0  0  0  0
   40.3000   27.0360   34.6450 C   0  0  0  0  0  0  0  0  0  0  0  0
   39.0890   26.7690   35.2830 C   0  0  0  0  0  0  0  0  0  0  0  0
   38.1020   26.1360   34.5760 N   0  0  0  0  0  0  0  0  0  0  0  0
   38.2730   25.7630   33.2800 C   0  0  0  0  0  0  0  0  0  0  0  0
   39.4420   26.0160   32.6500 N   0  0  0  0  0  0  0  0  0  0  0  0
   41.3790   26.8340   32.7870 H   0  0  0  0  0  0  0  0  0  0  0  0
   41.1190   27.5370   35.1580 H   0  0  0  0  0  0  0  0  0  0  0  0
   38.9370   27.0570   36.3110 H   0  0  0  0  0  0  0  0  0  0  0  0
   35.9940   21.5980   31.8170 C   0  0  0  0  0  0  0  0  0  0  0  0
   35.4970   20.8300   32.8450 C   0  0  0  0  0  0  0  0  0  0  0  0
   35.3980   19.4540   32.7710 C   0  0  0  0  0  0  0  0  0  0  0  0
   35.7970   18.8150   31.6620 N   0  0  0  0  0  0  0  0  0  0  0  0
   36.2830   19.5500   30.6490 C   0  0  0  0  0  0  0  0  0  0  0  0
   36.3730   20.8760   30.7350 N   0  0  0  0  0  0  0  0  0  0  0  0
   35.1730   21.3520   33.7480 H   0  0  0  0  0  0  0  0  0  0  0  0
   35.0000   18.8960   33.6060 H   0  0  0  0  0  0  0  0  0  0  0  0
   36.7340   18.8690   29.4050 C   0  0  0  0  0  2  0  0  0  0  0  0
   36.9230   19.6130   28.6060 H   0  0  0  0  0  0  0  0  0  0  0  0
  1  2  1  0  0  0  0
  2  3  1  0  0  0  0
  3 15  1  0  0  0  0
  4  3  2  0  0  0  0
  4  8  1  0  0  0  0
  5  4  1  0  0  0  0
  6  5  2  0  0  0  0
  7  6  1  0  0  0  0
  7  2  2  0  0  0  0
  9  6  1  0  0  0  0
 10  7  1  0  0  0  0
 11 12  1  0  0  0  0
 12 18  1  0  0  0  0
 12 13  2  0  0  0  0
 13 19  1  0  0  0  0
 14 13  1  0  0  0  0
 15 14  2  0  0  0  0
 16 15  1  0  0  0  0
 16 11  2  0  0  0  0
 17 11  1  0  0  0  0
 20  5  1  0  0  0  0
 20 21  1  0  0  0  0
 21 26  1  0  0  0  0
 22 21  2  0  0  0  0
 22 27  1  0  0  0  0
 23 22  1  0  0  0  0
 24 25  1  0  0  0  0
 24 23  2  0  0  0  0
 25 20  2  0  0  0  0
 28 24  1  0  0  0  0
 29 28  1  0  0  0  0
M  END
>  <minimizedAffinity>
-5.26087427

$$$$

 OpenBabel03272510213D

 29 31  0  0  0  0  0  0  0  0999 V2000
   36.8600   28.1230   31.7300 Br  0  0  0  0  0  0  0  0  0  0  0  0
   36.6280   26.2300   31.7230 C   0  0  0  0  0  0  0  0  0  0  0  0
   37.5550   25.3860   32.3130 C   0  0  0  0  0  0  0  0  0  0  0  0
   37.3120   24.0440   32.2630 C   0  0  0  0  0  0  0  0  0  0  0  0
   36.2070   23.4720   31.6640 C   0  0  0  0  0  0  0  0  0  0  0  0
   35.3070   24.3280   31.0880 C   0  0  0  0  0  0  0  0  0  0  0  0
   35.5240   25.6890   31.1220 C   0  0  0  0  0  0  0  0  0  0  0  0
   38.0440   23.3790   32.7290 H   0  0  0  0  0  0  0  0  0  0  0  0
   34.4080   23.9820   30.5920 H   0  0  0  0  0  0  0  0  0  0  0  0
   34.7980   26.3550   30.6590 H   0  0  0  0  0  0  0  0  0  0  0  0
   39.7250   26.7300   34.9190 C   0  0  0  0  0  0  0  0  0  0  0  0
   40.9520   26.9610   34.2430 C   0  0  0  0  0  0  0  0  0  0  0  0
   41.0150   26.6480   32.8860 C   0  0  0  0  0  0  0  0  0  0  0  0
   39.8990   26.1370   32.2790 N   0  0  0  0  0  0  0  0  0  0  0  0
   38.7420   25.9300   32.9610 C   0  0  0  0  0  0  0  0  0  0  0  0
   38.6670   26.2290   34.2770 N   0  0  0  0  0  0  0  0  0  0  0  0
   39.6670   26.9720   35.9770 H   0  0  0  0  0  0  0  0  0  0  0  0
   41.8090   27.3690   34.7770 H   0  0  0  0  0  0  0  0  0  0  0  0
   41.9250   26.8060   32.3290 H   0  0  0  0  0  0  0  0  0  0  0  0
   35.9480   22.0500   31.6090 C   0  0  0  0  0  0  0  0  0  0  0  0
   34.9880   21.3820   32.3320 C   0  0  0  0  0  0  0  0  0  0  0  0
   34.7910   20.0180   32.2340 C   0  0  0  0  0  0  0  0  0  0  0  0
   35.5550   19.2920   31.4060 N   0  0  0  0  0  0  0  0  0  0  0  0
   36.4960   19.9290   30.6920 C   0  0  0  0  0  0  0  0  0  0  0  0
   36.6750   21.2450   30.7970 N   0  0  0  0  0  0  0  0  0  0  0  0
   34.3670   21.9750   33.0060 H   0  0  0  0  0  0  0  0  0  0  0  0
   34.0230   19.5400   32.8240 H   0  0  0  0  0  0  0  0  0  0  0  0
   37.3600   19.1490   29.7630 C   0  0  0  0  0  2  0  0  0  0  0  0
   37.9440   19.8330   29.1150 H   0  0  0  0  0  0  0  0  0  0  0  0
  2  1  1  0  0  0  0
  2  3  1  0  0  0  0
  3 15  1  0  0  0  0
  4  3  2  0  0  0  0
  4  8  1  0  0  0  0
  5  4  1  0  0  0  0
  6  7  1  0  0  0  0
  6  5  2  0  0  0  0
  7  2  2  0  0  0  0
  9  6  1  0  0  0  0
 10  7  1  0  0  0  0
 11 17  1  0  0  0  0
 12 18  1  0  0  0  0
 12 11  2  0  0  0  0
 13 12  1  0  0  0  0
 14 13  2  0  0  0  0
 14 15  1  0  0  0  0
 15 16  2  0  0  0  0
 16 11  1  0  0  0  0
 19 13  1  0  0  0  0
 20  5  1  0  0  0  0
 20 21  1  0  0  0  0
 21 26  1  0  0  0  0
 22 21  2  0  0  0  0
 22 27  1  0  0  0  0
 23 22  1  0  0  0  0
 24 25  1  0  0  0  0
 24 23  2  0  0  0  0
 25 20  2  0  0  0  0
 28 24  1  0  0  0  0
 29 28  1  0  0  0  0
M  END
>  <minimizedAffinity>
-5.2264967

$$$$

 OpenBabel03272510213D

 29 31  0  0  0  0  0  0  0  0999 V2000
   35.0720   32.3240   32.3610 Br  0  0  0  0  0  0  0  0  0  0  0  0
   35.6560   30.5330   32.6570 C   0  0  0  0  0  0  0  0  0  0  0  0
   35.5000   29.9170   33.8890 C   0  0  0  0  0  0  0  0  0  0  0  0
   35.9460   28.6320   34.0150 C   0  0  0  0  0  0  0  0  0  0  0  0
   36.5400   27.9090   33.0010 C   0  0  0  0  0  0  0  0  0  0  0  0
   36.6820   28.5410   31.7950 C   0  0  0  0  0  0  0  0  0  0  0  0
   36.2420   29.8370   31.6350 C   0  0  0  0  0  0  0  0  0  0  0  0
   35.8220   28.1480   34.9880 H   0  0  0  0  0  0  0  0  0  0  0  0
   37.1350   28.0610   30.9350 H   0  0  0  0  0  0  0  0  0  0  0  0
   36.3620   30.3240   30.6690 H   0  0  0  0  0  0  0  0  0  0  0  0
   35.1490   32.0930   36.7950 C   0  0  0  0  0  0  0  0  0  0  0  0
   33.7660   32.0050   37.1100 C   0  0  0  0  0  0  0  0  0  0  0  0
   32.9680   31.1900   36.3090 C   0  0  0  0  0  0  0  0  0  0  0  0
   33.5530   30.5210   35.2670 N   0  0  0  0  0  0  0  0  0  0  0  0
   34.8800   30.6300   34.9990 C   0  0  0  0  0  0  0  0  0  0  0  0
   35.6660   31.4180   35.7670 N   0  0  0  0  0  0  0  0  0  0  0  0
   35.7780   32.7260   37.4140 H   0  0  0  0  0  0  0  0  0  0  0  0
   33.3550   32.5610   37.9510 H   0  0  0  0  0  0  0  0  0  0  0  0
   31.9130   31.0910   36.5090 H   0  0  0  0  0  0  0  0  0  0  0  0
   37.0130   26.5490   33.1340 C   0  0  0  0  0  0  0  0  0  0  0  0
   37.8430   26.0820   34.1270 C   0  0  0  0  0  0  0  0  0  0  0  0
   38.2600   24.7670   34.1970 C   0  0  0  0  0  0  0  0  0  0  0  0
   37.8530   23.8880   33.2710 N   0  0  0  0  0  0  0  0  0  0  0  0
   37.0420   24.3270   32.2960 C   0  0  0  0  0  0  0  0  0  0  0  0
   36.6480   25.5980   32.2400 N   0  0  0  0  0  0  0  0  0  0  0  0
   38.1740   26.8000   34.8800 H   0  0  0  0  0  0  0  0  0  0  0  0
   38.9130   24.4500   34.9980 H   0  0  0  0  0  0  0  0  0  0  0  0
   36.5730   23.3730   31.2530 C   0  0  0  0  0  2  0  0  0  0  0  0
   35.7700   23.8340   30.6430 H   0  0  0  0  0  0  0  0  0  0  0  0
  1  2  1  0  0  0  0
  2  3  1  0  0  0  0
  3  4  2  0  0  0  0
  3 15  1  0  0  0  0
  4  8  1  0  0  0  0
  5 20  1  0  0  0  0
  5  4  1  0  0  0  0
  6  5  2  0  0  0  0
  7  6  1  0  0  0  0
  7  2  2  0  0  0  0
  9  6  1  0  0  0  0
 10  7  1  0  0  0  0
 11 12  1  0  0  0  0
 11 17  1  0  0  0  0
 12 18  1  0  0  0  0
 13 19  1  0  0  0  0
 13 12  2  0  0  0  0
 14 13  1  0  0  0  0
 15 14  2  0  0  0  0
 15 16  1  0  0  0  0
 16 11  2  0  0  0  0
 20 21  1  0  0  0  0
 21 22  2  0  0  0  0
 21 26  1  0  0  0  0
 22 27  1  0  0  0  0
 23 22  1  0  0  0  0
 24 23  2  0  0  0  0
 25 24  1  0  0  0  0
 25 20  2  0  0  0  0
 28 24  1  0  0  0  0
 29 28  1  0  0  0  0
M  END
>  <minimizedAffinity>
-5.19408321

$$$$

 OpenBabel03272510213D

 29 31  0  0  0  0  0  0  0  0999 V2000
   37.6260   27.0980   31.0060 Br  0  0  0  0  0  0  0  0  0  0  0  0
   36.8230   28.1540   32.3770 C   0  0  0  0  0  0  0  0  0  0  0  0
   37.0740   27.9080   33.7170 C   0  0  0  0  0  0  0  0  0  0  0  0
   36.4590   28.7110   34.6340 C   0  0  0  0  0  0  0  0  0  0  0  0
   35.6060   29.7480   34.3150 C   0  0  0  0  0  0  0  0  0  0  0  0
   35.3750   29.9700   32.9840 C   0  0  0  0  0  0  0  0  0  0  0  0
   35.9820   29.1760   32.0340 C   0  0  0  0  0  0  0  0  0  0  0  0
   36.6580   28.5150   35.6910 H   0  0  0  0  0  0  0  0  0  0  0  0
   34.7230   30.7580   32.6280 H   0  0  0  0  0  0  0  0  0  0  0  0
   35.7870   29.3670   30.9800 H   0  0  0  0  0  0  0  0  0  0  0  0
   40.1160   26.1750   34.7420 C   0  0  0  0  0  0  0  0  0  0  0  0
   39.6990   24.8240   34.8750 C   0  0  0  0  0  0  0  0  0  0  0  0
   38.3640   24.5260   34.6070 C   0  0  0  0  0  0  0  0  0  0  0  0
   37.5280   25.5440   34.2320 N   0  0  0  0  0  0  0  0  0  0  0  0
   37.9660   26.8250   34.1160 C   0  0  0  0  0  0  0  0  0  0  0  0
   39.2580   27.1280   34.3730 N   0  0  0  0  0  0  0  0  0  0  0  0
   41.1550   26.4160   34.9480 H   0  0  0  0  0  0  0  0  0  0  0  0
   40.4090   24.0540   35.1770 H   0  0  0  0  0  0  0  0  0  0  0  0
   38.0010   23.5140   34.6940 H   0  0  0  0  0  0  0  0  0  0  0  0
   34.9530   30.6000   35.2850 C   0  0  0  0  0  0  0  0  0  0  0  0
   35.5670   31.5730   36.0390 C   0  0  0  0  0  0  0  0  0  0  0  0
   34.8850   32.3540   36.9510 C   0  0  0  0  0  0  0  0  0  0  0  0
   33.5680   32.1770   37.1290 N   0  0  0  0  0  0  0  0  0  0  0  0
   32.9540   31.2320   36.4000 C   0  0  0  0  0  0  0  0  0  0  0  0
   33.6240   30.4850   35.5240 N   0  0  0  0  0  0  0  0  0  0  0  0
   36.6400   31.7160   35.8930 H   0  0  0  0  0  0  0  0  0  0  0  0
   35.4130   33.1070   37.5190 H   0  0  0  0  0  0  0  0  0  0  0  0
   31.4920   31.0110   36.5750 C   0  0  0  0  0  2  0  0  0  0  0  0
   31.1050   30.3440   35.7790 H   0  0  0  0  0  0  0  0  0  0  0  0
  1  2  1  0  0  0  0
  2  3  1  0  0  0  0
  3 15  1  0  0  0  0
  3  4  2  0  0  0  0
  4  8  1  0  0  0  0
  5  4  1  0  0  0  0
  5 20  1  0  0  0  0
  6  5  2  0  0  0  0
  7  2  2  0  0  0  0
  7  6  1  0  0  0  0
  9  6  1  0  0  0  0
 10  7  1  0  0  0  0
 11 12  1  0  0  0  0
 11 17  1  0  0  0  0
 12 18  1  0  0  0  0
 13 19  1  0  0  0  0
 13 12  2  0  0  0  0
 14 13  1  0  0  0  0
 15 14  2  0  0  0  0
 15 16  1  0  0  0  0
 16 11  2  0  0  0  0
 20 25  2  0  0  0  0
 20 21  1  0  0  0  0
 21 22  2  0  0  0  0
 22 23  1  0  0  0  0
 22 27  1  0  0  0  0
 24 28  1  0  0  0  0
 24 23  2  0  0  0  0
 25 24  1  0  0  0  0
 26 21  1  0  0  0  0
 29 28  1  0  0  0  0
M  END
>  <minimizedAffinity>
-5.13046503

$$$$

 OpenBabel03272510213D

 29 31  0  0  0  0  0  0  0  0999 V2000
   36.4910   29.3250   31.4140 Br  0  0  0  0  0  0  0  0  0  0  0  0
   37.0270   28.0540   32.7310 C   0  0  0  0  0  0  0  0  0  0  0  0
   36.5820   28.1400   34.0400 C   0  0  0  0  0  0  0  0  0  0  0  0
   37.0150   27.1890   34.9200 C   0  0  0  0  0  0  0  0  0  0  0  0
   37.8640   26.1520   34.5920 C   0  0  0  0  0  0  0  0  0  0  0  0
   38.2890   26.0900   33.2930 C   0  0  0  0  0  0  0  0  0  0  0  0
   37.8700   27.0350   32.3800 C   0  0  0  0  0  0  0  0  0  0  0  0
   36.6620   27.2590   35.9530 H   0  0  0  0  0  0  0  0  0  0  0  0
   38.9560   25.3160   32.9330 H   0  0  0  0  0  0  0  0  0  0  0  0
   38.2170   26.9710   31.3510 H   0  0  0  0  0  0  0  0  0  0  0  0
   33.5200   30.0850   34.4300 C   0  0  0  0  0  0  0  0  0  0  0  0
   33.9380   31.2120   35.1860 C   0  0  0  0  0  0  0  0  0  0  0  0
   35.2800   31.2880   35.5540 C   0  0  0  0  0  0  0  0  0  0  0  0
   36.1220   30.2780   35.1710 N   0  0  0  0  0  0  0  0  0  0  0  0
   35.6840   29.2140   34.4470 C   0  0  0  0  0  0  0  0  0  0  0  0
   34.3850   29.1290   34.0830 N   0  0  0  0  0  0  0  0  0  0  0  0
   32.4760   30.0180   34.1380 H   0  0  0  0  0  0  0  0  0  0  0  0
   33.2230   31.9860   35.4630 H   0  0  0  0  0  0  0  0  0  0  0  0
   35.6440   32.1250   36.1280 H   0  0  0  0  0  0  0  0  0  0  0  0
   38.3230   25.1440   35.5230 C   0  0  0  0  0  0  0  0  0  0  0  0
   37.7000   24.7950   36.6980 C   0  0  0  0  0  0  0  0  0  0  0  0
   38.1920   23.8210   37.5460 C   0  0  0  0  0  0  0  0  0  0  0  0
   39.3220   23.1740   37.2330 N   0  0  0  0  0  0  0  0  0  0  0  0
   39.9430   23.5020   36.0880 C   0  0  0  0  0  0  0  0  0  0  0  0
   39.4580   24.4430   35.2810 N   0  0  0  0  0  0  0  0  0  0  0  0
   36.7780   25.3230   36.9520 H   0  0  0  0  0  0  0  0  0  0  0  0
   37.6640   23.5830   38.4580 H   0  0  0  0  0  0  0  0  0  0  0  0
   41.2010   22.8000   35.7140 C   0  0  0  0  0  2  0  0  0  0  0  0
   41.4800   23.0420   34.6680 H   0  0  0  0  0  0  0  0  0  0  0  0
  1  2  1  0  0  0  0
  2  3  1  0  0  0  0
  3 15  1  0  0  0  0
  3  4  2  0  0  0  0
  4  8  1  0  0  0  0
  5  4  1  0  0  0  0
  5 20  1  0  0  0  0
  6  5  2  0  0  0  0
  7  2  2  0  0  0  0
  7  6  1  0  0  0  0
  9  6  1  0  0  0  0
 10  7  1  0  0  0  0
 11 12  1  0  0  0  0
 12 18  1  0  0  0  0
 12 13  2  0  0  0  0
 13 19  1  0  0  0  0
 14 13  1  0  0  0  0
 15 14  2  0  0  0  0
 16 11  2  0  0  0  0
 16 15  1  0  0  0  0
 17 11  1  0  0  0  0
 20 21  1  0  0  0  0
 21 26  1  0  0  0  0
 21 22  2  0  0  0  0
 22 27  1  0  0  0  0
 23 22  1  0  0  0  0
 24 23  2  0  0  0  0
 25 20  2  0  0  0  0
 25 24  1  0  0  0  0
 28 24  1  0  0  0  0
 29 28  1  0  0  0  0
M  END
>  <minimizedAffinity>
-5.10986519

$$$$

 OpenBabel03272510213D

 29 31  0  0  0  0  0  0  0  0999 V2000
   39.1420   27.3620   30.6530 Br  0  0  0  0  0  0  0  0  0  0  0  0
   38.2410   25.7010   30.9110 C   0  0  0  0  0  0  0  0  0  0  0  0
   37.1340   25.6010   31.7390 C   0  0  0  0  0  0  0  0  0  0  0  0
   36.5490   24.3740   31.8680 C   0  0  0  0  0  0  0  0  0  0  0  0
   36.9860   23.2300   31.2320 C   0  0  0  0  0  0  0  0  0  0  0  0
   38.0810   23.3560   30.4210 C   0  0  0  0  0  0  0  0  0  0  0  0
   38.6940   24.5810   30.2690 C   0  0  0  0  0  0  0  0  0  0  0  0
   35.6750   24.2970   32.5220 H   0  0  0  0  0  0  0  0  0  0  0  0
   38.5030   22.5190   29.8760 H   0  0  0  0  0  0  0  0  0  0  0  0
   39.5640   24.6640   29.6200 H   0  0  0  0  0  0  0  0  0  0  0  0
   36.6200   28.0570   34.3860 C   0  0  0  0  0  0  0  0  0  0  0  0
   35.7030   28.9770   33.8120 C   0  0  0  0  0  0  0  0  0  0  0  0
   35.2710   28.7360   32.5090 C   0  0  0  0  0  0  0  0  0  0  0  0
   35.7490   27.6330   31.8540 N   0  0  0  0  0  0  0  0  0  0  0  0
   36.6260   26.7750   32.4380 C   0  0  0  0  0  0  0  0  0  0  0  0
   37.0540   26.9970   33.7010 N   0  0  0  0  0  0  0  0  0  0  0  0
   36.9620   28.2380   35.4020 H   0  0  0  0  0  0  0  0  0  0  0  0
   35.3570   29.8390   34.3800 H   0  0  0  0  0  0  0  0  0  0  0  0
   34.5750   29.4060   32.0300 H   0  0  0  0  0  0  0  0  0  0  0  0
   36.3670   21.9300   31.3690 C   0  0  0  0  0  0  0  0  0  0  0  0
   35.3000   21.6320   32.1830 C   0  0  0  0  0  0  0  0  0  0  0  0
   34.7540   20.3650   32.2680 C   0  0  0  0  0  0  0  0  0  0  0  0
   35.2680   19.3670   31.5370 N   0  0  0  0  0  0  0  0  0  0  0  0
   36.3100   19.6410   30.7360 C   0  0  0  0  0  0  0  0  0  0  0  0
   36.8260   20.8670   30.6640 N   0  0  0  0  0  0  0  0  0  0  0  0
   34.8810   22.4460   32.7780 H   0  0  0  0  0  0  0  0  0  0  0  0
   33.9140   20.1830   32.9230 H   0  0  0  0  0  0  0  0  0  0  0  0
   36.9030   18.5530   29.9120 C   0  0  0  0  0  2  0  0  0  0  0  0
   37.6150   18.9730   29.1730 H   0  0  0  0  0  0  0  0  0  0  0  0
  1  2  1  0  0  0  0
  2  3  1  0  0  0  0
  3  4  2  0  0  0  0
  3 15  1  0  0  0  0
  4  8  1  0  0  0  0
  5 20  1  0  0  0  0
  5  4  1  0  0  0  0
  6  5  2  0  0  0  0
  7  6  1  0  0  0  0
  7  2  2  0  0  0  0
  9  6  1  0  0  0  0
 10  7  1  0  0  0  0
 11 17  1  0  0  0  0
 12 18  1  0  0  0  0
 12 11  1  0  0  0  0
 13 12  2  0  0  0  0
 14 15  2  0  0  0  0
 14 13  1  0  0  0  0
 15 16  1  0  0  0  0
 16 11  2  0  0  0  0
 19 13  1  0  0  0  0
 20 21  1  0  0  0  0
 21 22  2  0  0  0  0
 21 26  1  0  0  0  0
 22 27  1  0  0  0  0
 23 22  1  0  0  0  0
 24 23  2  0  0  0  0
 25 24  1  0  0  0  0
 25 20  2  0  0  0  0
 28 24  1  0  0  0  0
 29 28  1  0  0  0  0
M  END
>  <minimizedAffinity>
-5.09303236

$$$$

 OpenBabel03272510213D

 29 31  0  0  0  0  0  0  0  0999 V2000
   37.1620   28.0010   31.3870 Br  0  0  0  0  0  0  0  0  0  0  0  0
   37.6200   26.9030   32.8770 C   0  0  0  0  0  0  0  0  0  0  0  0
   38.4360   25.7920   32.7310 C   0  0  0  0  0  0  0  0  0  0  0  0
   38.7140   25.0600   33.8500 C   0  0  0  0  0  0  0  0  0  0  0  0
   38.2390   25.3520   35.1120 C   0  0  0  0  0  0  0  0  0  0  0  0
   37.4360   26.4550   35.2280 C   0  0  0  0  0  0  0  0  0  0  0  0
   37.1360   27.2150   34.1180 C   0  0  0  0  0  0  0  0  0  0  0  0
   39.3570   24.1830   33.7330 H   0  0  0  0  0  0  0  0  0  0  0  0
   37.0120   26.7710   36.1750 H   0  0  0  0  0  0  0  0  0  0  0  0
   36.4970   28.0880   34.2290 H   0  0  0  0  0  0  0  0  0  0  0  0
   38.8090   24.0640   29.5410 C   0  0  0  0  0  0  0  0  0  0  0  0
   39.9260   24.7070   28.9440 C   0  0  0  0  0  0  0  0  0  0  0  0
   40.5400   25.7360   29.6550 C   0  0  0  0  0  0  0  0  0  0  0  0
   40.0390   26.0720   30.8850 N   0  0  0  0  0  0  0  0  0  0  0  0
   38.9680   25.4320   31.4230 C   0  0  0  0  0  0  0  0  0  0  0  0
   38.3620   24.4330   30.7430 N   0  0  0  0  0  0  0  0  0  0  0  0
   38.3240   23.2600   28.9930 H   0  0  0  0  0  0  0  0  0  0  0  0
   40.2810   24.3980   27.9620 H   0  0  0  0  0  0  0  0  0  0  0  0
   41.3920   26.2540   29.2440 H   0  0  0  0  0  0  0  0  0  0  0  0
   38.5330   24.5780   36.2980 C   0  0  0  0  0  0  0  0  0  0  0  0
   37.8640   24.6630   37.4970 C   0  0  0  0  0  0  0  0  0  0  0  0
   38.1950   23.8930   38.5950 C   0  0  0  0  0  0  0  0  0  0  0  0
   39.2070   23.0180   38.5150 N   0  0  0  0  0  0  0  0  0  0  0  0
   39.8690   22.9210   37.3510 C   0  0  0  0  0  0  0  0  0  0  0  0
   39.5390   23.6700   36.3010 N   0  0  0  0  0  0  0  0  0  0  0  0
   37.0400   25.3770   37.5610 H   0  0  0  0  0  0  0  0  0  0  0  0
   37.6390   23.9980   39.5150 H   0  0  0  0  0  0  0  0  0  0  0  0
   40.9970   21.9570   37.2320 C   0  0  0  0  0  2  0  0  0  0  0  0
   41.3090   21.8580   36.1730 H   0  0  0  0  0  0  0  0  0  0  0  0
  1  2  1  0  0  0  0
  2  7  1  0  0  0  0
  3  2  2  0  0  0  0
  3  4  1  0  0  0  0
  4  5  2  0  0  0  0
  5  6  1  0  0  0  0
  5 20  1  0  0  0  0
  6  9  1  0  0  0  0
  7 10  1  0  0  0  0
  7  6  2  0  0  0  0
  8  4  1  0  0  0  0
 11 16  1  0  0  0  0
 12 11  2  0  0  0  0
 12 13  1  0  0  0  0
 13 14  2  0  0  0  0
 14 15  1  0  0  0  0
 15  3  1  0  0  0  0
 16 15  2  0  0  0  0
 17 11  1  0  0  0  0
 18 12  1  0  0  0  0
 19 13  1  0  0  0  0
 20 25  2  0  0  0  0
 20 21  1  0  0  0  0
 21 26  1  0  0  0  0
 21 22  2  0  0  0  0
 22 27  1  0  0  0  0
 23 22  1  0  0  0  0
 24 23  2  0  0  0  0
 25 24  1  0  0  0  0
 28 24  1  0  0  0  0
 29 28  1  0  0  0  0
M  END
>  <minimizedAffinity>
-5.02434301

$$$$
