
 OpenBabel03272508403D

 35 37  0  0  1  0  0  0  0  0999 V2000
   32.8410   30.2370   45.4850 N   0  0  0  0  0  0  0  0  0  0  0  0
   33.4280   30.2620   46.8250 C   0  0  0  0  0  0  0  0  0  0  0  0
   34.8820   30.4240   46.8460 C   0  0  2  0  0  0  0  0  0  0  0  0
   35.5550   29.6560   45.8080 N   0  0  0  0  0  0  0  0  0  0  0  0
   34.9540   29.8740   44.5250 C   0  0  0  0  0  0  0  0  0  0  0  0
   33.5490   29.3230   44.6530 C   0  0  0  0  0  0  0  0  0  0  0  0
   32.8780   30.9850   47.4250 H   0  0  0  0  0  0  0  0  0  0  0  0
   33.2190   29.1800   47.1350 H   0  0  0  0  0  0  0  0  0  0  0  0
   35.2430   31.4370   46.5810 H   0  0  0  0  0  0  0  0  0  0  0  0
   36.5190   29.4730   45.8990 H   0  0  0  0  0  0  0  0  0  0  0  0
   34.9680   30.9170   44.1830 H   0  0  0  0  0  0  0  0  0  0  0  0
   35.4820   29.2370   43.7910 H   0  0  0  0  0  0  0  0  0  0  0  0
   33.6340   28.3020   45.0830 H   0  0  0  0  0  0  0  0  0  0  0  0
   33.0620   29.2800   43.6590 H   0  0  0  0  0  0  0  0  0  0  0  0
   37.4720   31.6960   47.5550 Cl  0  0  0  0  0  0  0  0  0  0  0  0
   36.5740   30.6220   48.6310 C   0  0  0  0  0  0  0  0  0  0  0  0
   35.4070   30.0830   48.1590 C   0  0  0  0  0  0  0  0  0  0  0  0
   34.5820   29.2140   48.8900 C   0  0  0  0  0  0  0  0  0  0  0  0
   35.0380   28.9060   50.1810 C   0  0  0  0  0  0  0  0  0  0  0  0
   36.2300   29.4490   50.6720 C   0  0  0  0  0  0  0  0  0  0  0  0
   36.9760   30.2940   49.8940 C   0  0  0  0  0  0  0  0  0  0  0  0
   33.6710   28.6800   48.7890 H   0  0  0  0  0  0  0  0  0  0  0  0
   34.5930   28.2710   50.9290 H   0  0  0  0  0  0  0  0  0  0  0  0
   36.6520   29.2650   51.6490 H   0  0  0  0  0  0  0  0  0  0  0  0
   38.2460   30.9010   50.3580 C   0  0  0  0  0  0  0  0  0  0  0  0
   38.4750   31.8290   49.7570 H   0  0  0  0  0  0  0  0  0  0  0  0
   31.7200   31.0210   45.1280 C   0  0  0  0  0  0  0  0  0  0  0  0
   31.8310   32.3800   44.8190 C   0  0  0  0  0  0  0  0  0  0  0  0
   30.6830   33.0820   44.4780 C   0  0  0  0  0  0  0  0  0  0  0  0
   29.4810   32.3930   44.4610 N   0  0  0  0  0  0  0  0  0  0  0  0
   29.4270   31.0790   44.7670 C   0  0  0  0  0  0  0  0  0  0  0  0
   30.5110   30.3980   45.0940 N   0  0  0  0  0  0  0  0  0  0  0  0
   32.8140   32.8300   44.8600 H   0  0  0  0  0  0  0  0  0  0  0  0
   30.7660   34.1270   44.2400 H   0  0  0  0  0  0  0  0  0  0  0  0
   28.4310   30.7040   44.7060 H   0  0  0  0  0  0  0  0  0  0  0  0
  1  2  1  0  0  0  0
  2  3  1  0  0  0  0
  2  8  1  0  0  0  0
  2  7  1  0  0  0  0
  3  9  1  6  0  0  0
  3 17  1  0  0  0  0
  4 10  1  0  0  0  0
  4  3  1  0  0  0  0
  5  6  1  0  0  0  0
  5  4  1  0  0  0  0
  6 13  1  0  0  0  0
  6  1  1  0  0  0  0
 11  5  1  0  0  0  0
 12  5  1  0  0  0  0
 14  6  1  0  0  0  0
 15 16  1  0  0  0  0
 16 21  1  0  0  0  0
 17 16  2  0  0  0  0
 17 18  1  0  0  0  0
 18 19  2  0  0  0  0
 19 20  1  0  0  0  0
 19 23  1  0  0  0  0
 20 24  1  0  0  0  0
 21 25  1  0  0  0  0
 21 20  2  0  0  0  0
 22 18  1  0  0  0  0
 26 25  1  0  0  0  0
 27  1  1  0  0  0  0
 28 33  1  0  0  0  0
 28 27  2  0  0  0  0
 29 28  1  0  0  0  0
 30 29  2  0  0  0  0
 30 31  1  0  0  0  0
 31 32  2  0  0  0  0
 32 27  1  0  0  0  0
 34 29  1  0  0  0  0
 35 31  1  0  0  0  0
M  END
>  <minimizedAffinity>
-5.1239562

>  <minimizedRMSD>
1.79575706

$$$$
