
 OpenBabel03272510193D

 29 31  0  0  0  0  0  0  0  0999 V2000
   37.3150   29.3370   51.0330 Br  0  0  0  0  0  0  0  0  0  0  0  0
   35.9730   29.3410   49.6790 C   0  0  0  0  0  0  0  0  0  0  0  0
   35.9930   30.2630   48.6450 C   0  0  0  0  0  0  0  0  0  0  0  0
   34.9940   30.1960   47.7170 C   0  0  0  0  0  0  0  0  0  0  0  0
   33.9680   29.2740   47.7400 C   0  0  0  0  0  0  0  0  0  0  0  0
   33.9710   28.3740   48.7710 C   0  0  0  0  0  0  0  0  0  0  0  0
   34.9660   28.4150   49.7240 C   0  0  0  0  0  0  0  0  0  0  0  0
   35.0120   30.9250   46.9020 H   0  0  0  0  0  0  0  0  0  0  0  0
   33.2110   27.6090   48.8810 H   0  0  0  0  0  0  0  0  0  0  0  0
   34.9540   27.6920   50.5380 H   0  0  0  0  0  0  0  0  0  0  0  0
   38.0010   33.1990   49.4570 C   0  0  0  0  0  0  0  0  0  0  0  0
   39.0260   33.1820   48.4740 C   0  0  0  0  0  0  0  0  0  0  0  0
   39.0110   32.1500   47.5370 C   0  0  0  0  0  0  0  0  0  0  0  0
   38.0160   31.2120   47.6120 N   0  0  0  0  0  0  0  0  0  0  0  0
   37.0520   31.2630   48.5680 C   0  0  0  0  0  0  0  0  0  0  0  0
   37.0550   32.2580   49.4830 N   0  0  0  0  0  0  0  0  0  0  0  0
   38.0050   34.0000   50.1910 H   0  0  0  0  0  0  0  0  0  0  0  0
   39.7930   33.9540   48.4630 H   0  0  0  0  0  0  0  0  0  0  0  0
   39.7680   32.0950   46.7710 H   0  0  0  0  0  0  0  0  0  0  0  0
   32.9090   29.2020   46.7570 C   0  0  0  0  0  0  0  0  0  0  0  0
   32.2730   28.0530   46.3470 C   0  0  0  0  0  0  0  0  0  0  0  0
   31.2660   28.0520   45.4020 C   0  0  0  0  0  0  0  0  0  0  0  0
   30.8720   29.2050   44.8450 N   0  0  0  0  0  0  0  0  0  0  0  0
   31.4820   30.3360   45.2350 C   0  0  0  0  0  0  0  0  0  0  0  0
   32.4520   30.3230   46.1480 N   0  0  0  0  0  0  0  0  0  0  0  0
   32.5950   27.1130   46.8020 H   0  0  0  0  0  0  0  0  0  0  0  0
   30.7970   27.1220   45.1140 H   0  0  0  0  0  0  0  0  0  0  0  0
   31.0660   31.6330   44.6350 C   0  0  0  0  0  0  0  0  0  0  0  0
   31.5190   32.4780   45.1920 H   0  0  0  0  0  0  0  0  0  0  0  0
  2  7  1  0  0  0  0
  2  1  1  0  0  0  0
  3  2  2  0  0  0  0
  4  5  2  0  0  0  0
  4  3  1  0  0  0  0
  5  6  1  0  0  0  0
  6  9  1  0  0  0  0
  6  7  2  0  0  0  0
  7 10  1  0  0  0  0
  8  4  1  0  0  0  0
 11 16  1  0  0  0  0
 11 17  1  0  0  0  0
 12 11  2  0  0  0  0
 13 14  2  0  0  0  0
 13 12  1  0  0  0  0
 14 15  1  0  0  0  0
 15  3  1  0  0  0  0
 15 16  2  0  0  0  0
 18 12  1  0  0  0  0
 19 13  1  0  0  0  0
 20  5  1  0  0  0  0
 21 20  1  0  0  0  0
 21 26  1  0  0  0  0
 22 21  2  0  0  0  0
 23 24  2  0  0  0  0
 23 22  1  0  0  0  0
 24 25  1  0  0  0  0
 25 20  2  0  0  0  0
 27 22  1  0  0  0  0
 28 29  1  0  0  0  0
 28 24  1  0  0  0  0
M  END
>  <minimizedAffinity>
-6.02991343

>  <minimizedRMSD>
0.0151785929

$$$$
