
 OpenBabel03272501003D

 21 22  0  0  0  0  0  0  0  0999 V2000
   39.0240   31.1480   50.0640 F   0  0  0  0  0  0  0  0  0  0  0  0
   37.8740   30.6660   49.5040 C   0  0  0  0  0  0  0  0  0  0  0  0
   37.6020   30.7320   48.1340 C   0  0  0  0  0  0  0  0  0  0  0  0
   36.4110   30.2140   47.6770 C   0  0  0  0  0  0  0  0  0  0  0  0
   35.4770   29.6350   48.5000 C   0  0  0  0  0  0  0  0  0  0  0  0
   35.7670   29.5770   49.8670 C   0  0  0  0  0  0  0  0  0  0  0  0
   36.9490   30.0860   50.3550 C   0  0  0  0  0  0  0  0  0  0  0  0
   36.1830   30.2560   46.6210 H   0  0  0  0  0  0  0  0  0  0  0  0
   34.5520   29.2290   48.1690 H   0  0  0  0  0  0  0  0  0  0  0  0
   35.0760   29.1340   50.5820 H   0  0  0  0  0  0  0  0  0  0  0  0
   39.7890   33.2730   46.6940 C   0  0  0  0  0  0  0  0  0  0  0  0
   40.4540   32.5980   45.6470 C   0  0  0  0  0  0  0  0  0  0  0  0
   40.1340   31.2600   45.4500 C   0  0  0  0  0  0  0  0  0  0  0  0
   39.2150   30.6760   46.2600 N   0  0  0  0  0  0  0  0  0  0  0  0
   38.5930   31.3490   47.2550 C   0  0  0  0  0  0  0  0  0  0  0  0
   38.8880   32.6410   47.4610 N   0  0  0  0  0  0  0  0  0  0  0  0
   40.0660   34.3000   46.8070 H   0  0  0  0  0  0  0  0  0  0  0  0
   41.1780   33.0070   44.9870 H   0  0  0  0  0  0  0  0  0  0  0  0
   40.5340   30.5870   44.7090 H   0  0  0  0  0  0  0  0  0  0  0  0
   37.2490   30.0180   51.8270 C   0  0  0  0  0  0  0  0  0  0  0  0
   36.5480   30.6510   52.4110 H   0  0  0  0  0  0  0  0  0  0  0  0
  2  1  1  0  0  0  0
  2  7  1  0  0  0  0
  3  2  2  0  0  0  0
  4  3  1  0  0  0  0
  4  5  2  0  0  0  0
  5  6  1  0  0  0  0
  6  7  2  0  0  0  0
  6 10  1  0  0  0  0
  7 20  1  0  0  0  0
  8  4  1  0  0  0  0
  9  5  1  0  0  0  0
 11 17  1  0  0  0  0
 11 16  1  0  0  0  0
 12 11  2  0  0  0  0
 13 12  1  0  0  0  0
 13 14  2  0  0  0  0
 14 15  1  0  0  0  0
 15 16  2  0  0  0  0
 15  3  1  0  0  0  0
 18 12  1  0  0  0  0
 19 13  1  0  0  0  0
 20 21  1  0  0  0  0
M  END
>  <minimizedAffinity>
-5.78426981

>  <minimizedRMSD>
2.56930971

$$$$
