
 OpenBabel03272500443D

 26 27  0  0  1  0  0  0  0  0999 V2000
   35.7460   24.1100   31.3600 C   0  0  0  0  0  0  0  0  0  0  0  0
   35.1620   25.2720   30.7870 C   0  0  0  0  0  0  0  0  0  0  0  0
   35.5720   26.5170   31.2540 C   0  0  0  0  0  0  0  0  0  0  0  0
   36.5080   26.5550   32.2340 N   0  0  0  0  0  0  0  0  0  0  0  0
   37.0480   25.4360   32.7610 C   0  0  0  0  0  0  0  0  0  0  0  0
   36.6660   24.2290   32.3240 N   0  0  0  0  0  0  0  0  0  0  0  0
   38.0410   25.5470   33.8000 N   0  0  0  0  0  0  0  0  0  0  0  0
   37.9410   24.6710   34.9710 C   0  0  2  0  0  0  0  0  0  0  0  0
   38.4960   25.2960   36.2190 C   0  0  0  0  0  0  0  0  0  0  0  0
   38.4750   26.7950   36.0350 C   0  0  0  0  0  0  0  0  0  0  0  0
   39.5330   27.1040   34.9840 C   0  0  0  0  0  0  0  0  0  0  0  0
   39.1080   26.5080   33.6740 C   0  0  0  0  0  0  0  0  0  0  0  0
   35.4120   23.1500   30.9810 H   0  0  0  0  0  0  0  0  0  0  0  0
   34.4270   25.2010   30.0180 H   0  0  0  0  0  0  0  0  0  0  0  0
   35.1680   27.4360   30.8620 H   0  0  0  0  0  0  0  0  0  0  0  0
   36.8280   24.5910   35.1440 H   0  0  0  0  0  0  0  0  0  0  0  0
   37.9790   24.9480   37.1180 H   0  0  0  0  0  0  0  0  0  0  0  0
   39.5880   25.0120   36.2320 H   0  0  0  0  0  0  0  0  0  0  0  0
   38.7310   27.3140   36.9860 H   0  0  0  0  0  0  0  0  0  0  0  0
   37.4670   27.0800   35.6860 H   0  0  0  0  0  0  0  0  0  0  0  0
   39.6440   28.2180   34.9270 H   0  0  0  0  0  0  0  0  0  0  0  0
   40.4640   26.6370   35.3390 H   0  0  0  0  0  0  0  0  0  0  0  0
   38.6840   27.3540   33.0750 H   0  0  0  0  0  0  0  0  0  0  0  0
   39.9130   26.0910   33.0720 H   0  0  0  0  0  0  0  0  0  0  0  0
   38.4140   23.2790   34.7190 C   0  0  0  0  0  2  0  0  0  0  0  0
   37.7090   22.5140   35.1330 H   0  0  0  0  0  0  0  0  0  0  0  0
  1  6  1  0  0  0  0
  2  3  1  0  0  0  0
  2  1  2  0  0  0  0
  3  4  2  0  0  0  0
  4  5  1  0  0  0  0
  5  7  1  0  0  0  0
  6  5  2  0  0  0  0
  7  8  1  0  0  0  0
  8 16  1  1  0  0  0
  8  9  1  0  0  0  0
  9 18  1  0  0  0  0
  9 17  1  0  0  0  0
 10  9  1  0  0  0  0
 10 19  1  0  0  0  0
 11 22  1  0  0  0  0
 11 10  1  0  0  0  0
 12  7  1  0  0  0  0
 12 11  1  0  0  0  0
 13  1  1  0  0  0  0
 14  2  1  0  0  0  0
 15  3  1  0  0  0  0
 20 10  1  0  0  0  0
 21 11  1  0  0  0  0
 23 12  1  0  0  0  0
 24 12  1  0  0  0  0
 25  8  1  0  0  0  0
 25 26  1  0  0  0  0
M  END
>  <minimizedAffinity>
-4.2274313

$$$$

 OpenBabel03272500443D

 26 27  0  0  1  0  0  0  0  0999 V2000
   37.8560   27.7070   35.2860 C   0  0  0  0  0  0  0  0  0  0  0  0
   38.2910   26.7490   36.2420 C   0  0  0  0  0  0  0  0  0  0  0  0
   38.3150   25.4080   35.8710 C   0  0  0  0  0  0  0  0  0  0  0  0
   37.9190   25.0870   34.6150 N   0  0  0  0  0  0  0  0  0  0  0  0
   37.5110   26.0160   33.7260 C   0  0  0  0  0  0  0  0  0  0  0  0
   37.4820   27.3110   34.0640 N   0  0  0  0  0  0  0  0  0  0  0  0
   37.1040   25.6060   32.4050 N   0  0  0  0  0  0  0  0  0  0  0  0
   35.8840   26.1800   31.8290 C   0  0  2  0  0  0  0  0  0  0  0  0
   35.1880   25.2450   30.8820 C   0  0  0  0  0  0  0  0  0  0  0  0
   35.6170   23.8370   31.2220 C   0  0  0  0  0  0  0  0  0  0  0  0
   37.0790   23.7320   30.8100 C   0  0  0  0  0  0  0  0  0  0  0  0
   37.8960   24.6470   31.6760 C   0  0  0  0  0  0  0  0  0  0  0  0
   37.8460   28.7470   35.5970 H   0  0  0  0  0  0  0  0  0  0  0  0
   38.5940   27.0420   37.2210 H   0  0  0  0  0  0  0  0  0  0  0  0
   38.6330   24.6330   36.5490 H   0  0  0  0  0  0  0  0  0  0  0  0
   35.1960   26.2760   32.7180 H   0  0  0  0  0  0  0  0  0  0  0  0
   34.1050   25.3950   30.8800 H   0  0  0  0  0  0  0  0  0  0  0  0
   35.6390   25.4590   29.8700 H   0  0  0  0  0  0  0  0  0  0  0  0
   35.0140   23.0930   30.6540 H   0  0  0  0  0  0  0  0  0  0  0  0
   35.4940   23.6990   32.3110 H   0  0  0  0  0  0  0  0  0  0  0  0
   37.3880   22.6600   30.9160 H   0  0  0  0  0  0  0  0  0  0  0  0
   37.1240   24.0500   29.7580 H   0  0  0  0  0  0  0  0  0  0  0  0
   38.3690   23.9930   32.4510 H   0  0  0  0  0  0  0  0  0  0  0  0
   38.7160   25.1520   31.1690 H   0  0  0  0  0  0  0  0  0  0  0  0
   36.0660   27.5640   31.3040 C   0  0  0  0  0  2  0  0  0  0  0  0
   35.2340   28.2450   31.6170 H   0  0  0  0  0  0  0  0  0  0  0  0
  1 13  1  0  0  0  0
  1  2  1  0  0  0  0
  2 14  1  0  0  0  0
  3  2  2  0  0  0  0
  3 15  1  0  0  0  0
  4  3  1  0  0  0  0
  5  6  1  0  0  0  0
  5  4  2  0  0  0  0
  6  1  2  0  0  0  0
  7  5  1  0  0  0  0
  8  7  1  0  0  0  0
  8 16  1  1  0  0  0
  9 10  1  0  0  0  0
  9  8  1  0  0  0  0
 10 20  1  0  0  0  0
 11 21  1  0  0  0  0
 11 10  1  0  0  0  0
 11 12  1  0  0  0  0
 12  7  1  0  0  0  0
 12 23  1  0  0  0  0
 17  9  1  0  0  0  0
 18  9  1  0  0  0  0
 19 10  1  0  0  0  0
 22 11  1  0  0  0  0
 24 12  1  0  0  0  0
 25 26  1  0  0  0  0
 25  8  1  0  0  0  0
M  END
>  <minimizedAffinity>
-4.13076544

$$$$

 OpenBabel03272500443D

 26 27  0  0  1  0  0  0  0  0999 V2000
   42.1110   21.9960   35.6400 C   0  0  0  0  0  0  0  0  0  0  0  0
   41.7570   21.4650   36.9100 C   0  0  0  0  0  0  0  0  0  0  0  0
   40.6850   22.0360   37.5900 C   0  0  0  0  0  0  0  0  0  0  0  0
   40.0360   23.0710   37.0030 N   0  0  0  0  0  0  0  0  0  0  0  0
   40.3920   23.5560   35.7950 C   0  0  0  0  0  0  0  0  0  0  0  0
   41.4190   23.0190   35.1250 N   0  0  0  0  0  0  0  0  0  0  0  0
   39.6570   24.6590   35.2260 N   0  0  0  0  0  0  0  0  0  0  0  0
   40.4000   25.7620   34.6100 C   0  0  2  0  0  0  0  0  0  0  0  0
   39.6850   27.0790   34.7150 C   0  0  0  0  0  0  0  0  0  0  0  0
   38.7210   26.9920   35.8740 C   0  0  0  0  0  0  0  0  0  0  0  0
   37.6240   26.0300   35.4370 C   0  0  0  0  0  0  0  0  0  0  0  0
   38.2160   24.6600   35.2710 C   0  0  0  0  0  0  0  0  0  0  0  0
   42.9490   21.5350   35.1270 H   0  0  0  0  0  0  0  0  0  0  0  0
   42.2940   20.6500   37.3390 H   0  0  0  0  0  0  0  0  0  0  0  0
   40.3670   21.6820   38.5570 H   0  0  0  0  0  0  0  0  0  0  0  0
   41.3130   25.8620   35.2660 H   0  0  0  0  0  0  0  0  0  0  0  0
   40.3820   27.9200   34.7740 H   0  0  0  0  0  0  0  0  0  0  0  0
   39.0390   27.1400   33.7920 H   0  0  0  0  0  0  0  0  0  0  0  0
   38.2770   27.9890   36.0940 H   0  0  0  0  0  0  0  0  0  0  0  0
   39.2740   26.6030   36.7470 H   0  0  0  0  0  0  0  0  0  0  0  0
   36.8190   26.0520   36.2160 H   0  0  0  0  0  0  0  0  0  0  0  0
   37.2490   26.4090   34.4750 H   0  0  0  0  0  0  0  0  0  0  0  0
   37.9420   24.0930   36.1970 H   0  0  0  0  0  0  0  0  0  0  0  0
   37.8180   24.0830   34.4380 H   0  0  0  0  0  0  0  0  0  0  0  0
   40.9130   25.4480   33.2460 C   0  0  0  0  0  2  0  0  0  0  0  0
   41.9780   25.7680   33.1130 H   0  0  0  0  0  0  0  0  0  0  0  0
  1  2  1  0  0  0  0
  2 14  1  0  0  0  0
  2  3  2  0  0  0  0
  3 15  1  0  0  0  0
  4  3  1  0  0  0  0
  5  4  2  0  0  0  0
  6  1  2  0  0  0  0
  6  5  1  0  0  0  0
  7 12  1  0  0  0  0
  7  5  1  0  0  0  0
  8  9  1  0  0  0  0
  8  7  1  0  0  0  0
  8 16  1  1  0  0  0
  9 17  1  0  0  0  0
  9 10  1  0  0  0  0
 10 19  1  0  0  0  0
 10 20  1  0  0  0  0
 11 10  1  0  0  0  0
 11 21  1  0  0  0  0
 12 11  1  0  0  0  0
 12 23  1  0  0  0  0
 13  1  1  0  0  0  0
 18  9  1  0  0  0  0
 22 11  1  0  0  0  0
 24 12  1  0  0  0  0
 25  8  1  0  0  0  0
 26 25  1  0  0  0  0
M  END
>  <minimizedAffinity>
-3.98109412

$$$$

 OpenBabel03272500443D

 26 27  0  0  1  0  0  0  0  0999 V2000
   37.8890   24.1970   37.4230 C   0  0  0  0  0  0  0  0  0  0  0  0
   38.8110   23.1160   37.4630 C   0  0  0  0  0  0  0  0  0  0  0  0
   39.8720   23.1180   36.5630 C   0  0  0  0  0  0  0  0  0  0  0  0
   39.9680   24.1530   35.6930 N   0  0  0  0  0  0  0  0  0  0  0  0
   39.0790   25.1680   35.6760 C   0  0  0  0  0  0  0  0  0  0  0  0
   38.0520   25.1840   36.5350 N   0  0  0  0  0  0  0  0  0  0  0  0
   39.2410   26.2390   34.7240 N   0  0  0  0  0  0  0  0  0  0  0  0
   38.0660   26.7180   33.9900 C   0  0  2  0  0  0  0  0  0  0  0  0
   38.4040   27.2440   32.6250 C   0  0  0  0  0  0  0  0  0  0  0  0
   39.7170   26.6270   32.2020 C   0  0  0  0  0  0  0  0  0  0  0  0
   40.7810   27.2510   33.0940 C   0  0  0  0  0  0  0  0  0  0  0  0
   40.5440   26.8180   34.5120 C   0  0  0  0  0  0  0  0  0  0  0  0
   37.0690   24.1750   38.1340 H   0  0  0  0  0  0  0  0  0  0  0  0
   38.6990   22.3190   38.1630 H   0  0  0  0  0  0  0  0  0  0  0  0
   40.6050   22.3280   36.5420 H   0  0  0  0  0  0  0  0  0  0  0  0
   37.4690   25.7780   33.8110 H   0  0  0  0  0  0  0  0  0  0  0  0
   37.5880   27.0920   31.9130 H   0  0  0  0  0  0  0  0  0  0  0  0
   38.6240   28.3400   32.7760 H   0  0  0  0  0  0  0  0  0  0  0  0
   39.9380   26.8610   31.1360 H   0  0  0  0  0  0  0  0  0  0  0  0
   39.6460   25.5370   32.3620 H   0  0  0  0  0  0  0  0  0  0  0  0
   41.7830   26.9240   32.7120 H   0  0  0  0  0  0  0  0  0  0  0  0
   40.6630   28.3410   32.9960 H   0  0  0  0  0  0  0  0  0  0  0  0
   41.2770   25.9950   34.7080 H   0  0  0  0  0  0  0  0  0  0  0  0
   40.7400   27.5790   35.2660 H   0  0  0  0  0  0  0  0  0  0  0  0
   37.1850   27.6130   34.7930 C   0  0  0  0  0  2  0  0  0  0  0  0
   36.1030   27.3480   34.6820 H   0  0  0  0  0  0  0  0  0  0  0  0
  1  2  1  0  0  0  0
  1 13  1  0  0  0  0
  2 14  1  0  0  0  0
  3  2  2  0  0  0  0
  4  3  1  0  0  0  0
  5  4  2  0  0  0  0
  5  6  1  0  0  0  0
  6  1  2  0  0  0  0
  7  5  1  0  0  0  0
  8 16  1  6  0  0  0
  8  7  1  0  0  0  0
  8 25  1  0  0  0  0
  9 18  1  0  0  0  0
  9  8  1  0  0  0  0
 10 20  1  0  0  0  0
 10  9  1  0  0  0  0
 10 11  1  0  0  0  0
 11 12  1  0  0  0  0
 12 23  1  0  0  0  0
 12  7  1  0  0  0  0
 12 24  1  0  0  0  0
 15  3  1  0  0  0  0
 17  9  1  0  0  0  0
 19 10  1  0  0  0  0
 21 11  1  0  0  0  0
 22 11  1  0  0  0  0
 26 25  1  0  0  0  0
M  END
>  <minimizedAffinity>
-3.96979713

$$$$

 OpenBabel03272500443D

 26 27  0  0  1  0  0  0  0  0999 V2000
   37.4050   23.4020   32.6800 C   0  0  0  0  0  0  0  0  0  0  0  0
   36.4570   23.0000   31.7010 C   0  0  0  0  0  0  0  0  0  0  0  0
   35.6540   23.9760   31.1190 C   0  0  0  0  0  0  0  0  0  0  0  0
   35.8180   25.2610   31.5190 N   0  0  0  0  0  0  0  0  0  0  0  0
   36.7270   25.6160   32.4510 C   0  0  0  0  0  0  0  0  0  0  0  0
   37.5090   24.6920   33.0220 N   0  0  0  0  0  0  0  0  0  0  0  0
   36.8510   27.0020   32.8300 N   0  0  0  0  0  0  0  0  0  0  0  0
   36.9590   27.3390   34.2520 C   0  0  2  0  0  0  0  0  0  0  0  0
   36.3800   28.6860   34.5790 C   0  0  0  0  0  0  0  0  0  0  0  0
   35.3860   29.0390   33.4970 C   0  0  0  0  0  0  0  0  0  0  0  0
   36.2080   29.3030   32.2430 C   0  0  0  0  0  0  0  0  0  0  0  0
   36.8690   28.0250   31.8150 C   0  0  0  0  0  0  0  0  0  0  0  0
   38.0220   22.6260   33.1210 H   0  0  0  0  0  0  0  0  0  0  0  0
   36.3570   21.9790   31.4130 H   0  0  0  0  0  0  0  0  0  0  0  0
   34.9150   23.7370   30.3710 H   0  0  0  0  0  0  0  0  0  0  0  0
   36.2790   26.5900   34.7520 H   0  0  0  0  0  0  0  0  0  0  0  0
   35.9700   28.7220   35.5920 H   0  0  0  0  0  0  0  0  0  0  0  0
   37.2330   29.4140   34.4510 H   0  0  0  0  0  0  0  0  0  0  0  0
   34.8150   29.9540   33.7690 H   0  0  0  0  0  0  0  0  0  0  0  0
   34.7120   28.1750   33.3620 H   0  0  0  0  0  0  0  0  0  0  0  0
   35.5160   29.7060   31.4580 H   0  0  0  0  0  0  0  0  0  0  0  0
   36.9620   30.0550   32.5220 H   0  0  0  0  0  0  0  0  0  0  0  0
   36.2490   27.6260   30.9730 H   0  0  0  0  0  0  0  0  0  0  0  0
   37.8770   28.1360   31.4170 H   0  0  0  0  0  0  0  0  0  0  0  0
   38.3160   27.1000   34.8230 C   0  0  0  0  0  2  0  0  0  0  0  0
   38.2700   26.5770   35.8120 H   0  0  0  0  0  0  0  0  0  0  0  0
  1  6  1  0  0  0  0
  1 13  1  0  0  0  0
  2  1  2  0  0  0  0
  3  4  2  0  0  0  0
  3  2  1  0  0  0  0
  4  5  1  0  0  0  0
  5  7  1  0  0  0  0
  5  6  2  0  0  0  0
  7  8  1  0  0  0  0
  8  9  1  0  0  0  0
  8 16  1  1  0  0  0
  8 25  1  0  0  0  0
  9 17  1  0  0  0  0
 10 19  1  0  0  0  0
 10  9  1  0  0  0  0
 11 22  1  0  0  0  0
 11 10  1  0  0  0  0
 12 11  1  0  0  0  0
 12  7  1  0  0  0  0
 14  2  1  0  0  0  0
 15  3  1  0  0  0  0
 18  9  1  0  0  0  0
 20 10  1  0  0  0  0
 21 11  1  0  0  0  0
 23 12  1  0  0  0  0
 24 12  1  0  0  0  0
 25 26  1  0  0  0  0
M  END
>  <minimizedAffinity>
-3.90927649

$$$$

 OpenBabel03272500443D

 26 27  0  0  1  0  0  0  0  0999 V2000
   37.2410   21.5940   33.9910 C   0  0  0  0  0  0  0  0  0  0  0  0
   37.3650   21.6120   32.5760 C   0  0  0  0  0  0  0  0  0  0  0  0
   38.0090   22.6930   31.9820 C   0  0  0  0  0  0  0  0  0  0  0  0
   38.4840   23.6740   32.7880 N   0  0  0  0  0  0  0  0  0  0  0  0
   38.3530   23.6330   34.1310 C   0  0  0  0  0  0  0  0  0  0  0  0
   37.7370   22.6000   34.7200 N   0  0  0  0  0  0  0  0  0  0  0  0
   38.8820   24.7100   34.9300 N   0  0  0  0  0  0  0  0  0  0  0  0
   38.0620   25.2540   36.0170 C   0  0  2  0  0  0  0  0  0  0  0  0
   38.3300   26.7080   36.2790 C   0  0  0  0  0  0  0  0  0  0  0  0
   38.9250   27.3040   35.0250 C   0  0  0  0  0  0  0  0  0  0  0  0
   40.3200   26.7070   34.8980 C   0  0  0  0  0  0  0  0  0  0  0  0
   40.1970   25.2300   34.6520 C   0  0  0  0  0  0  0  0  0  0  0  0
   36.7360   20.7410   34.4340 H   0  0  0  0  0  0  0  0  0  0  0  0
   36.9770   20.8200   31.9760 H   0  0  0  0  0  0  0  0  0  0  0  0
   38.1350   22.7670   30.9140 H   0  0  0  0  0  0  0  0  0  0  0  0
   37.0140   25.2100   35.6010 H   0  0  0  0  0  0  0  0  0  0  0  0
   37.4400   27.2290   36.6440 H   0  0  0  0  0  0  0  0  0  0  0  0
   39.1610   26.7240   37.0420 H   0  0  0  0  0  0  0  0  0  0  0  0
   39.0000   28.4110   35.1110 H   0  0  0  0  0  0  0  0  0  0  0  0
   38.2830   27.0140   34.1750 H   0  0  0  0  0  0  0  0  0  0  0  0
   40.8430   27.2340   34.0590 H   0  0  0  0  0  0  0  0  0  0  0  0
   40.8250   26.9000   35.8560 H   0  0  0  0  0  0  0  0  0  0  0  0
   40.3520   25.0890   33.5530 H   0  0  0  0  0  0  0  0  0  0  0  0
   40.9510   24.6160   35.1420 H   0  0  0  0  0  0  0  0  0  0  0  0
   38.0500   24.4010   37.2400 C   0  0  0  0  0  2  0  0  0  0  0  0
   37.0170   24.2730   37.6530 H   0  0  0  0  0  0  0  0  0  0  0  0
  1 13  1  0  0  0  0
  1  6  1  0  0  0  0
  2  1  2  0  0  0  0
  3  2  1  0  0  0  0
  3  4  2  0  0  0  0
  4  5  1  0  0  0  0
  5  6  2  0  0  0  0
  5  7  1  0  0  0  0
  7  8  1  0  0  0  0
  8 16  1  6  0  0  0
  8  9  1  0  0  0  0
  8 25  1  0  0  0  0
  9 17  1  0  0  0  0
  9 18  1  0  0  0  0
 10 19  1  0  0  0  0
 10  9  1  0  0  0  0
 11 10  1  0  0  0  0
 11 22  1  0  0  0  0
 12 11  1  0  0  0  0
 12  7  1  0  0  0  0
 12 24  1  0  0  0  0
 14  2  1  0  0  0  0
 15  3  1  0  0  0  0
 20 10  1  0  0  0  0
 21 11  1  0  0  0  0
 23 12  1  0  0  0  0
 25 26  1  0  0  0  0
M  END
>  <minimizedAffinity>
-3.89607906

$$$$

 OpenBabel03272500443D

 26 27  0  0  1  0  0  0  0  0999 V2000
   39.4870   21.0800   32.7710 C   0  0  0  0  0  0  0  0  0  0  0  0
   38.1520   20.7810   32.3850 C   0  0  0  0  0  0  0  0  0  0  0  0
   37.1120   21.2690   33.1710 C   0  0  0  0  0  0  0  0  0  0  0  0
   37.4280   22.0030   34.2650 N   0  0  0  0  0  0  0  0  0  0  0  0
   38.7040   22.2740   34.6090 C   0  0  0  0  0  0  0  0  0  0  0  0
   39.7190   21.8140   33.8660 N   0  0  0  0  0  0  0  0  0  0  0  0
   38.9720   23.0630   35.7860 N   0  0  0  0  0  0  0  0  0  0  0  0
   40.0250   22.6260   36.7070 C   0  0  2  0  0  0  0  0  0  0  0  0
   39.7580   23.0240   38.1310 C   0  0  0  0  0  0  0  0  0  0  0  0
   38.2720   23.2480   38.2790 C   0  0  0  0  0  0  0  0  0  0  0  0
   37.9580   24.5150   37.4950 C   0  0  0  0  0  0  0  0  0  0  0  0
   38.2070   24.2590   36.0360 C   0  0  0  0  0  0  0  0  0  0  0  0
   40.2820   20.6910   32.1450 H   0  0  0  0  0  0  0  0  0  0  0  0
   37.9440   20.1990   31.5170 H   0  0  0  0  0  0  0  0  0  0  0  0
   36.0780   21.0770   32.9330 H   0  0  0  0  0  0  0  0  0  0  0  0
   39.9400   21.5010   36.6880 H   0  0  0  0  0  0  0  0  0  0  0  0
   40.1760   22.3060   38.8420 H   0  0  0  0  0  0  0  0  0  0  0  0
   40.2280   24.0440   38.2460 H   0  0  0  0  0  0  0  0  0  0  0  0
   37.9990   23.3940   39.3480 H   0  0  0  0  0  0  0  0  0  0  0  0
   37.7530   22.3710   37.8530 H   0  0  0  0  0  0  0  0  0  0  0  0
   36.8910   24.7890   37.7010 H   0  0  0  0  0  0  0  0  0  0  0  0
   38.6410   25.2890   37.8750 H   0  0  0  0  0  0  0  0  0  0  0  0
   37.2010   24.0760   35.5810 H   0  0  0  0  0  0  0  0  0  0  0  0
   38.6360   25.0960   35.4870 H   0  0  0  0  0  0  0  0  0  0  0  0
   41.4030   22.9380   36.2300 C   0  0  0  0  0  2  0  0  0  0  0  0
   42.0980   22.0690   36.3550 H   0  0  0  0  0  0  0  0  0  0  0  0
  1  6  1  0  0  0  0
  2  1  2  0  0  0  0
  2  3  1  0  0  0  0
  3  4  2  0  0  0  0
  4  5  1  0  0  0  0
  5  7  1  0  0  0  0
  6  5  2  0  0  0  0
  7 12  1  0  0  0  0
  7  8  1  0  0  0  0
  8 16  1  6  0  0  0
  8  9  1  0  0  0  0
  9 18  1  0  0  0  0
  9 10  1  0  0  0  0
  9 17  1  0  0  0  0
 10 19  1  0  0  0  0
 11 21  1  0  0  0  0
 11 22  1  0  0  0  0
 11 10  1  0  0  0  0
 12 11  1  0  0  0  0
 13  1  1  0  0  0  0
 14  2  1  0  0  0  0
 15  3  1  0  0  0  0
 20 10  1  0  0  0  0
 23 12  1  0  0  0  0
 24 12  1  0  0  0  0
 25 26  1  0  0  0  0
 25  8  1  0  0  0  0
M  END
>  <minimizedAffinity>
-3.86933994

$$$$

 OpenBabel03272500443D

 26 27  0  0  1  0  0  0  0  0999 V2000
   38.5420   23.1190   36.1980 C   0  0  0  0  0  0  0  0  0  0  0  0
   38.2340   22.0050   35.3710 C   0  0  0  0  0  0  0  0  0  0  0  0
   37.8600   22.2430   34.0520 C   0  0  0  0  0  0  0  0  0  0  0  0
   37.8070   23.5290   33.6260 N   0  0  0  0  0  0  0  0  0  0  0  0
   38.1050   24.5700   34.4320 C   0  0  0  0  0  0  0  0  0  0  0  0
   38.4670   24.3600   35.7030 N   0  0  0  0  0  0  0  0  0  0  0  0
   38.0290   25.9140   33.9150 N   0  0  0  0  0  0  0  0  0  0  0  0
   37.3870   26.9510   34.7280 C   0  0  2  0  0  0  0  0  0  0  0  0
   36.7370   28.0230   33.9010 C   0  0  0  0  0  0  0  0  0  0  0  0
   36.4530   27.4470   32.5340 C   0  0  0  0  0  0  0  0  0  0  0  0
   37.8090   27.2610   31.8670 C   0  0  0  0  0  0  0  0  0  0  0  0
   38.5820   26.2150   32.6180 C   0  0  0  0  0  0  0  0  0  0  0  0
   38.8310   22.9110   37.2220 H   0  0  0  0  0  0  0  0  0  0  0  0
   38.2870   21.0080   35.7440 H   0  0  0  0  0  0  0  0  0  0  0  0
   37.6140   21.4430   33.3740 H   0  0  0  0  0  0  0  0  0  0  0  0
   36.5390   26.4020   35.2300 H   0  0  0  0  0  0  0  0  0  0  0  0
   35.8610   28.4500   34.3980 H   0  0  0  0  0  0  0  0  0  0  0  0
   37.5410   28.7990   33.7380 H   0  0  0  0  0  0  0  0  0  0  0  0
   35.8340   28.1480   31.9310 H   0  0  0  0  0  0  0  0  0  0  0  0
   35.9370   26.4810   32.6740 H   0  0  0  0  0  0  0  0  0  0  0  0
   37.6290   26.9690   30.8000 H   0  0  0  0  0  0  0  0  0  0  0  0
   38.3170   28.2350   31.9260 H   0  0  0  0  0  0  0  0  0  0  0  0
   38.4850   25.2740   32.0210 H   0  0  0  0  0  0  0  0  0  0  0  0
   39.6510   26.4050   32.7050 H   0  0  0  0  0  0  0  0  0  0  0  0
   38.2490   27.4630   35.8320 C   0  0  0  0  0  2  0  0  0  0  0  0
   37.6910   27.5410   36.7990 H   0  0  0  0  0  0  0  0  0  0  0  0
  1 13  1  0  0  0  0
  2 14  1  0  0  0  0
  2  1  2  0  0  0  0
  3  2  1  0  0  0  0
  4  3  2  0  0  0  0
  4  5  1  0  0  0  0
  5  6  2  0  0  0  0
  6  1  1  0  0  0  0
  7  5  1  0  0  0  0
  7  8  1  0  0  0  0
  8 16  1  1  0  0  0
  8 25  1  0  0  0  0
  9 17  1  0  0  0  0
  9  8  1  0  0  0  0
 10 20  1  0  0  0  0
 10  9  1  0  0  0  0
 11 22  1  0  0  0  0
 11 10  1  0  0  0  0
 11 12  1  0  0  0  0
 12 24  1  0  0  0  0
 12  7  1  0  0  0  0
 15  3  1  0  0  0  0
 18  9  1  0  0  0  0
 19 10  1  0  0  0  0
 21 11  1  0  0  0  0
 23 12  1  0  0  0  0
 25 26  1  0  0  0  0
M  END
>  <minimizedAffinity>
-3.85641193

$$$$

 OpenBabel03272500443D

 26 27  0  0  1  0  0  0  0  0999 V2000
   37.0610   25.6190   32.2450 C   0  0  0  0  0  0  0  0  0  0  0  0
   36.0340   26.1740   31.4350 C   0  0  0  0  0  0  0  0  0  0  0  0
   35.0980   25.3120   30.8720 C   0  0  0  0  0  0  0  0  0  0  0  0
   35.2170   23.9860   31.1260 N   0  0  0  0  0  0  0  0  0  0  0  0
   36.2020   23.4840   31.9000 C   0  0  0  0  0  0  0  0  0  0  0  0
   37.1120   24.2980   32.4510 N   0  0  0  0  0  0  0  0  0  0  0  0
   36.2700   22.0630   32.1310 N   0  0  0  0  0  0  0  0  0  0  0  0
   37.5700   21.3920   32.0360 C   0  0  2  0  0  0  0  0  0  0  0  0
   37.4590   19.9640   31.5840 C   0  0  0  0  0  0  0  0  0  0  0  0
   36.1520   19.8120   30.8420 C   0  0  0  0  0  0  0  0  0  0  0  0
   35.0560   19.9360   31.8920 C   0  0  0  0  0  0  0  0  0  0  0  0
   35.0710   21.3290   32.4500 C   0  0  0  0  0  0  0  0  0  0  0  0
   37.7800   26.3090   32.6750 H   0  0  0  0  0  0  0  0  0  0  0  0
   35.9750   27.2230   31.2580 H   0  0  0  0  0  0  0  0  0  0  0  0
   34.2950   25.6690   30.2470 H   0  0  0  0  0  0  0  0  0  0  0  0
   38.0840   21.9360   31.1920 H   0  0  0  0  0  0  0  0  0  0  0  0
   38.3370   19.6440   31.0140 H   0  0  0  0  0  0  0  0  0  0  0  0
   37.3370   19.3620   32.5300 H   0  0  0  0  0  0  0  0  0  0  0  0
   36.0890   18.8150   30.3520 H   0  0  0  0  0  0  0  0  0  0  0  0
   36.0890   20.6250   30.0970 H   0  0  0  0  0  0  0  0  0  0  0  0
   34.0810   19.6860   31.4000 H   0  0  0  0  0  0  0  0  0  0  0  0
   35.2980   19.2020   32.6750 H   0  0  0  0  0  0  0  0  0  0  0  0
   34.2380   21.8740   31.9380 H   0  0  0  0  0  0  0  0  0  0  0  0
   34.8640   21.4020   33.5170 H   0  0  0  0  0  0  0  0  0  0  0  0
   38.4350   21.5910   33.2340 C   0  0  0  0  0  2  0  0  0  0  0  0
   39.4890   21.8450   32.9550 H   0  0  0  0  0  0  0  0  0  0  0  0
  1  6  1  0  0  0  0
  1 13  1  0  0  0  0
  2  1  2  0  0  0  0
  3  4  2  0  0  0  0
  3  2  1  0  0  0  0
  4  5  1  0  0  0  0
  5  7  1  0  0  0  0
  5  6  2  0  0  0  0
  7 12  1  0  0  0  0
  8 16  1  6  0  0  0
  8  7  1  0  0  0  0
  8 25  1  0  0  0  0
  9  8  1  0  0  0  0
  9 18  1  0  0  0  0
 10  9  1  0  0  0  0
 10 11  1  0  0  0  0
 11 12  1  0  0  0  0
 11 22  1  0  0  0  0
 12 24  1  0  0  0  0
 14  2  1  0  0  0  0
 15  3  1  0  0  0  0
 17  9  1  0  0  0  0
 19 10  1  0  0  0  0
 20 10  1  0  0  0  0
 21 11  1  0  0  0  0
 23 12  1  0  0  0  0
 26 25  1  0  0  0  0
M  END
>  <minimizedAffinity>
-3.82967806

$$$$
