
 OpenBabel03272510183D

 21 22  0  0  0  0  0  0  0  0999 V2000
   39.0760   24.8270   33.8450 Br  0  0  0  0  0  0  0  0  0  0  0  0
   37.9710   23.2920   33.6340 C   0  0  0  0  0  0  0  0  0  0  0  0
   37.7050   22.4510   34.7060 C   0  0  0  0  0  0  0  0  0  0  0  0
   36.8920   21.3530   34.4780 C   0  0  0  0  0  0  0  0  0  0  0  0
   36.3420   21.0670   33.2390 C   0  0  0  0  0  0  0  0  0  0  0  0
   36.6260   21.9190   32.2020 C   0  0  0  0  0  0  0  0  0  0  0  0
   37.4430   23.0330   32.4060 C   0  0  0  0  0  0  0  0  0  0  0  0
   36.7070   20.7200   35.3390 H   0  0  0  0  0  0  0  0  0  0  0  0
   36.1910   21.6910   31.2260 H   0  0  0  0  0  0  0  0  0  0  0  0
   37.6010   23.6370   31.5170 H   0  0  0  0  0  0  0  0  0  0  0  0
   37.9400   23.6580   38.1340 C   0  0  0  0  0  0  0  0  0  0  0  0
   39.2440   23.2780   38.5400 C   0  0  0  0  0  0  0  0  0  0  0  0
   40.0230   22.6050   37.6130 C   0  0  0  0  0  0  0  0  0  0  0  0
   39.5140   22.3410   36.3680 N   0  0  0  0  0  0  0  0  0  0  0  0
   38.2640   22.7210   36.0190 C   0  0  0  0  0  0  0  0  0  0  0  0
   37.4750   23.3830   36.9090 N   0  0  0  0  0  0  0  0  0  0  0  0
   37.2450   24.1950   38.7960 H   0  0  0  0  0  0  0  0  0  0  0  0
   39.5580   23.5310   39.5440 H   0  0  0  0  0  0  0  0  0  0  0  0
   41.0230   22.3040   37.9010 H   0  0  0  0  0  0  0  0  0  0  0  0
   35.4980   19.8640   33.1510 C   0  0  0  0  0  2  0  0  0  0  0  0
   34.4710   20.1440   33.4370 H   0  0  0  0  0  0  0  0  0  0  0  0
  2  1  1  0  0  0  0
  2  3  1  0  0  0  0
  3 15  1  0  0  0  0
  4  3  2  0  0  0  0
  4  8  1  0  0  0  0
  5  4  1  0  0  0  0
  6  7  1  0  0  0  0
  6  5  2  0  0  0  0
  7  2  2  0  0  0  0
  9  6  1  0  0  0  0
 10  7  1  0  0  0  0
 11 12  1  0  0  0  0
 11 17  1  0  0  0  0
 12 18  1  0  0  0  0
 13 19  1  0  0  0  0
 13 12  2  0  0  0  0
 14 13  1  0  0  0  0
 15 14  2  0  0  0  0
 15 16  1  0  0  0  0
 16 11  2  0  0  0  0
 20  5  1  0  0  0  0
 20 21  1  0  0  0  0
M  END
>  <minimizedAffinity>
-4.25356388

$$$$

 OpenBabel03272510183D

 21 22  0  0  0  0  0  0  0  0999 V2000
   38.6040   27.2780   35.6850 Br  0  0  0  0  0  0  0  0  0  0  0  0
   37.9450   26.2110   34.2540 C   0  0  0  0  0  0  0  0  0  0  0  0
   38.0160   24.8260   34.3040 C   0  0  0  0  0  0  0  0  0  0  0  0
   37.5160   24.1150   33.2250 C   0  0  0  0  0  0  0  0  0  0  0  0
   36.9560   24.7250   32.1140 C   0  0  0  0  0  0  0  0  0  0  0  0
   36.9020   26.0960   32.0980 C   0  0  0  0  0  0  0  0  0  0  0  0
   37.3990   26.8360   33.1740 C   0  0  0  0  0  0  0  0  0  0  0  0
   37.5890   23.0360   33.3010 H   0  0  0  0  0  0  0  0  0  0  0  0
   36.4600   26.5750   31.2210 H   0  0  0  0  0  0  0  0  0  0  0  0
   37.3050   27.9110   33.0540 H   0  0  0  0  0  0  0  0  0  0  0  0
   38.2940   23.3940   37.6410 C   0  0  0  0  0  0  0  0  0  0  0  0
   39.6160   22.8840   37.6840 C   0  0  0  0  0  0  0  0  0  0  0  0
   40.3920   23.0460   36.5470 C   0  0  0  0  0  0  0  0  0  0  0  0
   39.8630   23.6800   35.4530 N   0  0  0  0  0  0  0  0  0  0  0  0
   38.5960   24.1520   35.4520 C   0  0  0  0  0  0  0  0  0  0  0  0
   37.8100   24.0070   36.5540 N   0  0  0  0  0  0  0  0  0  0  0  0
   37.5990   23.3160   38.4900 H   0  0  0  0  0  0  0  0  0  0  0  0
   39.9450   22.3990   38.5930 H   0  0  0  0  0  0  0  0  0  0  0  0
   41.4050   22.6650   36.5570 H   0  0  0  0  0  0  0  0  0  0  0  0
   36.4670   23.8370   31.0460 C   0  0  0  0  0  2  0  0  0  0  0  0
   35.4330   23.5440   31.2910 H   0  0  0  0  0  0  0  0  0  0  0  0
  2  3  1  0  0  0  0
  2  1  1  0  0  0  0
  3 15  1  0  0  0  0
  4  8  1  0  0  0  0
  4  3  2  0  0  0  0
  5  4  1  0  0  0  0
  6  5  2  0  0  0  0
  6  7  1  0  0  0  0
  7  2  2  0  0  0  0
  9  6  1  0  0  0  0
 10  7  1  0  0  0  0
 11 12  1  0  0  0  0
 11 17  1  0  0  0  0
 12 18  1  0  0  0  0
 13 19  1  0  0  0  0
 13 12  2  0  0  0  0
 14 13  1  0  0  0  0
 15 14  2  0  0  0  0
 15 16  1  0  0  0  0
 16 11  2  0  0  0  0
 20 21  1  0  0  0  0
 20  5  1  0  0  0  0
M  END
>  <minimizedAffinity>
-4.21150208

$$$$

 OpenBabel03272510183D

 21 22  0  0  0  0  0  0  0  0999 V2000
   34.9270   32.1080   32.3940 Br  0  0  0  0  0  0  0  0  0  0  0  0
   35.6520   30.3980   32.8070 C   0  0  0  0  0  0  0  0  0  0  0  0
   35.5550   29.8710   34.0880 C   0  0  0  0  0  0  0  0  0  0  0  0
   36.1060   28.6200   34.3140 C   0  0  0  0  0  0  0  0  0  0  0  0
   36.7390   27.8850   33.3250 C   0  0  0  0  0  0  0  0  0  0  0  0
   36.8160   28.4360   32.0700 C   0  0  0  0  0  0  0  0  0  0  0  0
   36.2690   29.6960   31.8160 C   0  0  0  0  0  0  0  0  0  0  0  0
   36.0110   28.2420   35.3260 H   0  0  0  0  0  0  0  0  0  0  0  0
   37.3160   27.8540   31.2920 H   0  0  0  0  0  0  0  0  0  0  0  0
   36.3870   30.0330   30.7910 H   0  0  0  0  0  0  0  0  0  0  0  0
   32.9130   31.0470   36.3000 C   0  0  0  0  0  0  0  0  0  0  0  0
   33.5650   31.9800   37.1440 C   0  0  0  0  0  0  0  0  0  0  0  0
   34.9190   32.1860   36.9310 C   0  0  0  0  0  0  0  0  0  0  0  0
   35.5570   31.4950   35.9330 N   0  0  0  0  0  0  0  0  0  0  0  0
   34.8980   30.6130   35.1480 C   0  0  0  0  0  0  0  0  0  0  0  0
   33.5680   30.3900   35.3360 N   0  0  0  0  0  0  0  0  0  0  0  0
   31.8420   30.8140   36.3890 H   0  0  0  0  0  0  0  0  0  0  0  0
   32.9770   32.4770   37.9040 H   0  0  0  0  0  0  0  0  0  0  0  0
   35.4390   32.8940   37.5630 H   0  0  0  0  0  0  0  0  0  0  0  0
   37.2740   26.5710   33.7160 C   0  0  0  0  0  2  0  0  0  0  0  0
   36.4650   25.8280   33.6190 H   0  0  0  0  0  0  0  0  0  0  0  0
  1  2  1  0  0  0  0
  2  3  1  0  0  0  0
  3  4  2  0  0  0  0
  3 15  1  0  0  0  0
  4  8  1  0  0  0  0
  5 20  1  0  0  0  0
  5  4  1  0  0  0  0
  6  5  2  0  0  0  0
  7  6  1  0  0  0  0
  7  2  2  0  0  0  0
  9  6  1  0  0  0  0
 10  7  1  0  0  0  0
 11 17  1  0  0  0  0
 11 12  1  0  0  0  0
 12 18  1  0  0  0  0
 13 12  2  0  0  0  0
 13 19  1  0  0  0  0
 14 13  1  0  0  0  0
 15 16  1  0  0  0  0
 15 14  2  0  0  0  0
 16 11  2  0  0  0  0
 21 20  1  0  0  0  0
M  END
>  <minimizedAffinity>
-4.15301371

$$$$

 OpenBabel03272510183D

 21 22  0  0  0  0  0  0  0  0999 V2000
   35.4000   29.2460   34.1670 Br  0  0  0  0  0  0  0  0  0  0  0  0
   34.8880   30.6980   35.2850 C   0  0  0  0  0  0  0  0  0  0  0  0
   33.5850   30.8180   35.7480 C   0  0  0  0  0  0  0  0  0  0  0  0
   33.2860   31.9010   36.5580 C   0  0  0  0  0  0  0  0  0  0  0  0
   34.2240   32.8550   36.9180 C   0  0  0  0  0  0  0  0  0  0  0  0
   35.5020   32.7060   36.4420 C   0  0  0  0  0  0  0  0  0  0  0  0
   35.8290   31.6220   35.6240 C   0  0  0  0  0  0  0  0  0  0  0  0
   32.2590   31.9600   36.9010 H   0  0  0  0  0  0  0  0  0  0  0  0
   36.2400   33.4600   36.7270 H   0  0  0  0  0  0  0  0  0  0  0  0
   36.8670   31.6040   35.3050 H   0  0  0  0  0  0  0  0  0  0  0  0
   31.3230   27.9800   36.0570 C   0  0  0  0  0  0  0  0  0  0  0  0
   30.6670   27.9300   34.8020 C   0  0  0  0  0  0  0  0  0  0  0  0
   31.0220   28.8870   33.8650 C   0  0  0  0  0  0  0  0  0  0  0  0
   31.9730   29.8220   34.1820 N   0  0  0  0  0  0  0  0  0  0  0  0
   32.5770   29.8360   35.3920 C   0  0  0  0  0  0  0  0  0  0  0  0
   32.2480   28.9090   36.3330 N   0  0  0  0  0  0  0  0  0  0  0  0
   31.1130   27.2660   36.8670 H   0  0  0  0  0  0  0  0  0  0  0  0
   29.9310   27.1530   34.6440 H   0  0  0  0  0  0  0  0  0  0  0  0
   30.5340   28.8680   32.8990 H   0  0  0  0  0  0  0  0  0  0  0  0
   33.7570   33.9500   37.7850 C   0  0  0  0  0  2  0  0  0  0  0  0
   33.8340   33.6140   38.8330 H   0  0  0  0  0  0  0  0  0  0  0  0
  1  2  1  0  0  0  0
  2  7  2  0  0  0  0
  2  3  1  0  0  0  0
  3  4  2  0  0  0  0
  4  8  1  0  0  0  0
  4  5  1  0  0  0  0
  5 20  1  0  0  0  0
  6  9  1  0  0  0  0
  6  5  2  0  0  0  0
  7  6  1  0  0  0  0
 10  7  1  0  0  0  0
 11 16  1  0  0  0  0
 11 17  1  0  0  0  0
 12 11  2  0  0  0  0
 13 14  2  0  0  0  0
 13 12  1  0  0  0  0
 14 15  1  0  0  0  0
 15  3  1  0  0  0  0
 15 16  2  0  0  0  0
 18 12  1  0  0  0  0
 19 13  1  0  0  0  0
 20 21  1  0  0  0  0
M  END
>  <minimizedAffinity>
-4.13467836

$$$$

 OpenBabel03272510183D

 21 22  0  0  0  0  0  0  0  0999 V2000
   37.6900   23.5230   37.6230 Br  0  0  0  0  0  0  0  0  0  0  0  0
   39.4280   23.3910   36.8600 C   0  0  0  0  0  0  0  0  0  0  0  0
   39.8280   24.2460   35.8410 C   0  0  0  0  0  0  0  0  0  0  0  0
   41.1080   24.0910   35.3350 C   0  0  0  0  0  0  0  0  0  0  0  0
   41.9920   23.1300   35.8000 C   0  0  0  0  0  0  0  0  0  0  0  0
   41.5640   22.3030   36.8080 C   0  0  0  0  0  0  0  0  0  0  0  0
   40.2780   22.4390   37.3350 C   0  0  0  0  0  0  0  0  0  0  0  0
   41.3840   24.7760   34.5410 H   0  0  0  0  0  0  0  0  0  0  0  0
   42.2620   21.5460   37.1730 H   0  0  0  0  0  0  0  0  0  0  0  0
   40.0450   21.7320   38.1270 H   0  0  0  0  0  0  0  0  0  0  0  0
   37.3520   25.8560   33.7110 C   0  0  0  0  0  0  0  0  0  0  0  0
   37.1920   27.1410   34.2860 C   0  0  0  0  0  0  0  0  0  0  0  0
   37.9500   27.4290   35.4100 C   0  0  0  0  0  0  0  0  0  0  0  0
   38.8050   26.4800   35.9080 N   0  0  0  0  0  0  0  0  0  0  0  0
   38.9290   25.2640   35.3300 C   0  0  0  0  0  0  0  0  0  0  0  0
   38.1970   24.9530   34.2250 N   0  0  0  0  0  0  0  0  0  0  0  0
   36.7970   25.5310   32.8190 H   0  0  0  0  0  0  0  0  0  0  0  0
   36.4930   27.8230   33.8210 H   0  0  0  0  0  0  0  0  0  0  0  0
   37.8450   28.4040   35.8670 H   0  0  0  0  0  0  0  0  0  0  0  0
   43.3190   23.0870   35.1640 C   0  0  0  0  0  2  0  0  0  0  0  0
   43.9730   23.8060   35.6850 H   0  0  0  0  0  0  0  0  0  0  0  0
  2  7  1  0  0  0  0
  2  1  1  0  0  0  0
  3  2  2  0  0  0  0
  4  5  2  0  0  0  0
  4  3  1  0  0  0  0
  5  6  1  0  0  0  0
  6  9  1  0  0  0  0
  6  7  2  0  0  0  0
  7 10  1  0  0  0  0
  8  4  1  0  0  0  0
 11 16  2  0  0  0  0
 11 12  1  0  0  0  0
 12 13  2  0  0  0  0
 13 19  1  0  0  0  0
 13 14  1  0  0  0  0
 15  3  1  0  0  0  0
 15 14  2  0  0  0  0
 16 15  1  0  0  0  0
 17 11  1  0  0  0  0
 18 12  1  0  0  0  0
 20 21  1  0  0  0  0
 20  5  1  0  0  0  0
M  END
>  <minimizedAffinity>
-4.09329939

$$$$

 OpenBabel03272510183D

 21 22  0  0  0  0  0  0  0  0999 V2000
   36.1500   32.3330   35.4490 Br  0  0  0  0  0  0  0  0  0  0  0  0
   34.5210   31.4440   35.8710 C   0  0  0  0  0  0  0  0  0  0  0  0
   34.0100   30.4570   35.0390 C   0  0  0  0  0  0  0  0  0  0  0  0
   32.8200   29.8540   35.4110 C   0  0  0  0  0  0  0  0  0  0  0  0
   32.1310   30.1920   36.5640 C   0  0  0  0  0  0  0  0  0  0  0  0
   32.6650   31.1710   37.3630 C   0  0  0  0  0  0  0  0  0  0  0  0
   33.8640   31.7950   37.0100 C   0  0  0  0  0  0  0  0  0  0  0  0
   32.4530   29.0880   34.7360 H   0  0  0  0  0  0  0  0  0  0  0  0
   32.1200   31.4360   38.2720 H   0  0  0  0  0  0  0  0  0  0  0  0
   34.1930   32.5540   37.7140 H   0  0  0  0  0  0  0  0  0  0  0  0
   36.2780   28.6700   32.8200 C   0  0  0  0  0  0  0  0  0  0  0  0
   36.0760   29.2850   31.5590 C   0  0  0  0  0  0  0  0  0  0  0  0
   35.1510   30.3160   31.5000 C   0  0  0  0  0  0  0  0  0  0  0  0
   34.4850   30.6900   32.6380 N   0  0  0  0  0  0  0  0  0  0  0  0
   34.7050   30.0770   33.8230 C   0  0  0  0  0  0  0  0  0  0  0  0
   35.6080   29.0610   33.9110 N   0  0  0  0  0  0  0  0  0  0  0  0
   36.9890   27.8450   32.9710 H   0  0  0  0  0  0  0  0  0  0  0  0
   36.6500   28.9210   30.7180 H   0  0  0  0  0  0  0  0  0  0  0  0
   34.9800   30.8010   30.5480 H   0  0  0  0  0  0  0  0  0  0  0  0
   30.8790   29.4620   36.8270 C   0  0  0  0  0  2  0  0  0  0  0  0
   31.1310   28.5310   37.3620 H   0  0  0  0  0  0  0  0  0  0  0  0
  1  2  1  0  0  0  0
  2  7  1  0  0  0  0
  3  4  1  0  0  0  0
  3  2  2  0  0  0  0
  4  5  2  0  0  0  0
  5 20  1  0  0  0  0
  5  6  1  0  0  0  0
  6  9  1  0  0  0  0
  7  6  2  0  0  0  0
  7 10  1  0  0  0  0
  8  4  1  0  0  0  0
 11 17  1  0  0  0  0
 11 16  1  0  0  0  0
 12 11  2  0  0  0  0
 13 12  1  0  0  0  0
 13 14  2  0  0  0  0
 14 15  1  0  0  0  0
 15 16  2  0  0  0  0
 15  3  1  0  0  0  0
 18 12  1  0  0  0  0
 19 13  1  0  0  0  0
 20 21  1  0  0  0  0
M  END
>  <minimizedAffinity>
-4.09147644

$$$$

 OpenBabel03272510183D

 21 22  0  0  0  0  0  0  0  0999 V2000
   36.5080   28.3700   32.0620 Br  0  0  0  0  0  0  0  0  0  0  0  0
   36.2640   26.4960   31.8430 C   0  0  0  0  0  0  0  0  0  0  0  0
   37.1260   25.5890   32.4450 C   0  0  0  0  0  0  0  0  0  0  0  0
   36.8870   24.2400   32.2400 C   0  0  0  0  0  0  0  0  0  0  0  0
   35.8360   23.7680   31.4700 C   0  0  0  0  0  0  0  0  0  0  0  0
   35.0040   24.6930   30.8900 C   0  0  0  0  0  0  0  0  0  0  0  0
   35.2240   26.0590   31.0800 C   0  0  0  0  0  0  0  0  0  0  0  0
   37.5800   23.5620   32.7260 H   0  0  0  0  0  0  0  0  0  0  0  0
   34.1770   24.3190   30.2820 H   0  0  0  0  0  0  0  0  0  0  0  0
   34.5060   26.6990   30.5760 H   0  0  0  0  0  0  0  0  0  0  0  0
   39.0140   26.5780   35.3970 C   0  0  0  0  0  0  0  0  0  0  0  0
   40.2940   26.9110   34.8870 C   0  0  0  0  0  0  0  0  0  0  0  0
   40.4810   26.7850   33.5200 C   0  0  0  0  0  0  0  0  0  0  0  0
   39.4440   26.3550   32.7330 N   0  0  0  0  0  0  0  0  0  0  0  0
   38.2370   26.0470   33.2590 C   0  0  0  0  0  0  0  0  0  0  0  0
   38.0240   26.1600   34.5990 N   0  0  0  0  0  0  0  0  0  0  0  0
   38.7650   26.6440   36.4660 H   0  0  0  0  0  0  0  0  0  0  0  0
   41.0500   27.2420   35.5870 H   0  0  0  0  0  0  0  0  0  0  0  0
   41.4500   27.0340   33.1070 H   0  0  0  0  0  0  0  0  0  0  0  0
   35.7090   22.3070   31.3440 C   0  0  0  0  0  2  0  0  0  0  0  0
   35.1220   21.9390   32.2020 H   0  0  0  0  0  0  0  0  0  0  0  0
  2  1  1  0  0  0  0
  2  3  1  0  0  0  0
  3 15  1  0  0  0  0
  4  3  2  0  0  0  0
  4  8  1  0  0  0  0
  5  4  1  0  0  0  0
  6  7  1  0  0  0  0
  6  5  2  0  0  0  0
  7  2  2  0  0  0  0
  9  6  1  0  0  0  0
 10  7  1  0  0  0  0
 11 17  1  0  0  0  0
 12 11  1  0  0  0  0
 12 18  1  0  0  0  0
 13 12  2  0  0  0  0
 14 15  2  0  0  0  0
 14 13  1  0  0  0  0
 15 16  1  0  0  0  0
 16 11  2  0  0  0  0
 19 13  1  0  0  0  0
 20  5  1  0  0  0  0
 20 21  1  0  0  0  0
M  END
>  <minimizedAffinity>
-4.0800066

$$$$

 OpenBabel03272510183D

 21 22  0  0  0  0  0  0  0  0999 V2000
   38.8080   21.7270   33.5230 Br  0  0  0  0  0  0  0  0  0  0  0  0
   37.5300   22.8470   32.6680 C   0  0  0  0  0  0  0  0  0  0  0  0
   36.4210   22.3070   32.0310 C   0  0  0  0  0  0  0  0  0  0  0  0
   35.5330   23.1840   31.4300 C   0  0  0  0  0  0  0  0  0  0  0  0
   35.7070   24.5590   31.4400 C   0  0  0  0  0  0  0  0  0  0  0  0
   36.8140   25.0580   32.0780 C   0  0  0  0  0  0  0  0  0  0  0  0
   37.7250   24.1940   32.6920 C   0  0  0  0  0  0  0  0  0  0  0  0
   34.6790   22.7260   30.9430 H   0  0  0  0  0  0  0  0  0  0  0  0
   36.9500   26.1420   32.0850 H   0  0  0  0  0  0  0  0  0  0  0  0
   38.5630   24.6970   33.1660 H   0  0  0  0  0  0  0  0  0  0  0  0
   36.5520   18.8600   30.8660 C   0  0  0  0  0  0  0  0  0  0  0  0
   35.8460   18.1370   31.8590 C   0  0  0  0  0  0  0  0  0  0  0  0
   35.3340   18.8630   32.9230 C   0  0  0  0  0  0  0  0  0  0  0  0
   35.5260   20.2190   32.9690 N   0  0  0  0  0  0  0  0  0  0  0  0
   36.2060   20.8720   32.0010 C   0  0  0  0  0  0  0  0  0  0  0  0
   36.7210   20.1850   30.9430 N   0  0  0  0  0  0  0  0  0  0  0  0
   36.9960   18.3770   29.9830 H   0  0  0  0  0  0  0  0  0  0  0  0
   35.7450   17.0670   31.7350 H   0  0  0  0  0  0  0  0  0  0  0  0
   34.7900   18.3320   33.6950 H   0  0  0  0  0  0  0  0  0  0  0  0
   34.6780   25.3630   30.7590 C   0  0  0  0  0  2  0  0  0  0  0  0
   33.8630   25.5540   31.4760 H   0  0  0  0  0  0  0  0  0  0  0  0
  2  7  1  0  0  0  0
  2  1  1  0  0  0  0
  3  2  2  0  0  0  0
  4  5  2  0  0  0  0
  4  3  1  0  0  0  0
  5  6  1  0  0  0  0
  6  9  1  0  0  0  0
  6  7  2  0  0  0  0
  7 10  1  0  0  0  0
  8  4  1  0  0  0  0
 11 16  2  0  0  0  0
 11 12  1  0  0  0  0
 12 13  2  0  0  0  0
 13 14  1  0  0  0  0
 13 19  1  0  0  0  0
 15  3  1  0  0  0  0
 15 14  2  0  0  0  0
 16 15  1  0  0  0  0
 17 11  1  0  0  0  0
 18 12  1  0  0  0  0
 20  5  1  0  0  0  0
 20 21  1  0  0  0  0
M  END
>  <minimizedAffinity>
-4.05087614

$$$$

 OpenBabel03272510183D

 21 22  0  0  0  0  0  0  0  0999 V2000
   40.6850   21.5530   33.3720 Br  0  0  0  0  0  0  0  0  0  0  0  0
   40.0240   22.1890   35.0390 C   0  0  0  0  0  0  0  0  0  0  0  0
   38.7150   22.6340   35.1650 C   0  0  0  0  0  0  0  0  0  0  0  0
   38.3030   23.0820   36.4100 C   0  0  0  0  0  0  0  0  0  0  0  0
   39.1360   23.1020   37.5170 C   0  0  0  0  0  0  0  0  0  0  0  0
   40.4230   22.6550   37.3570 C   0  0  0  0  0  0  0  0  0  0  0  0
   40.8620   22.1980   36.1120 C   0  0  0  0  0  0  0  0  0  0  0  0
   37.2750   23.4210   36.4690 H   0  0  0  0  0  0  0  0  0  0  0  0
   41.0780   22.6720   38.2310 H   0  0  0  0  0  0  0  0  0  0  0  0
   41.8970   21.8690   36.1000 H   0  0  0  0  0  0  0  0  0  0  0  0
   36.2020   21.4550   32.8080 C   0  0  0  0  0  0  0  0  0  0  0  0
   36.0720   22.5230   31.8860 C   0  0  0  0  0  0  0  0  0  0  0  0
   36.8630   23.6410   32.0990 C   0  0  0  0  0  0  0  0  0  0  0  0
   37.7200   23.6670   33.1690 N   0  0  0  0  0  0  0  0  0  0  0  0
   37.8140   22.6260   34.0270 C   0  0  0  0  0  0  0  0  0  0  0  0
   37.0490   21.5150   33.8420 N   0  0  0  0  0  0  0  0  0  0  0  0
   35.6190   20.5250   32.7260 H   0  0  0  0  0  0  0  0  0  0  0  0
   35.3680   22.4100   31.0720 H   0  0  0  0  0  0  0  0  0  0  0  0
   36.7810   24.4700   31.4070 H   0  0  0  0  0  0  0  0  0  0  0  0
   38.5560   23.6060   38.7730 C   0  0  0  0  0  2  0  0  0  0  0  0
   38.0560   22.7650   39.2810 H   0  0  0  0  0  0  0  0  0  0  0  0
  1  2  1  0  0  0  0
  2  3  2  0  0  0  0
  2  7  1  0  0  0  0
  3  4  1  0  0  0  0
  4  8  1  0  0  0  0
  4  5  2  0  0  0  0
  5 20  1  0  0  0  0
  6  5  1  0  0  0  0
  6  9  1  0  0  0  0
  7  6  2  0  0  0  0
 10  7  1  0  0  0  0
 11 16  1  0  0  0  0
 12 13  1  0  0  0  0
 12 11  2  0  0  0  0
 13 14  2  0  0  0  0
 14 15  1  0  0  0  0
 15  3  1  0  0  0  0
 16 15  2  0  0  0  0
 17 11  1  0  0  0  0
 18 12  1  0  0  0  0
 19 13  1  0  0  0  0
 20 21  1  0  0  0  0
M  END
>  <minimizedAffinity>
-4.04437017

$$$$
