
 OpenBabel03272506493D

 35 37  0  0  1  0  0  0  0  0999 V2000
   37.7210   24.9390   32.1930 C   0  0  2  0  0  0  0  0  0  0  0  0
   37.4010   24.0370   31.0380 C   0  0  1  0  0  0  0  0  0  0  0  0
   38.2330   22.9590   31.1030 O   0  0  0  0  0  0  0  0  0  0  0  0
   38.8480   22.9320   32.3510 C   0  0  0  0  0  0  0  0  0  0  0  0
   38.0790   23.8540   33.2590 C   0  0  1  0  0  0  0  0  0  0  0  0
   38.5920   25.5710   32.0570 H   0  0  0  0  0  0  0  0  0  0  0  0
   37.4920   24.5920   30.0720 H   0  0  0  0  0  0  0  0  0  0  0  0
   38.6430   21.8940   32.7540 H   0  0  0  0  0  0  0  0  0  0  0  0
   39.9010   23.1280   32.2350 H   0  0  0  0  0  0  0  0  0  0  0  0
   37.1350   23.4420   33.6120 H   0  0  0  0  0  0  0  0  0  0  0  0
   36.5670   25.6300   32.6190 O   0  0  0  0  0  0  0  0  0  0  0  0
   36.0600   25.0750   33.2580 H   0  0  0  0  0  0  0  0  0  0  0  0
   35.6760   23.4460   31.2560 S   0  0  0  0  0  0  0  0  0  0  0  0
   35.5280   20.0550   33.2920 C   0  0  0  0  0  0  0  0  0  0  0  0
   35.7570   19.0480   32.3490 C   0  0  0  0  0  0  0  0  0  0  0  0
   35.9660   19.4470   31.0180 C   0  0  0  0  0  0  0  0  0  0  0  0
   35.9370   20.7730   30.7180 N   0  0  0  0  0  0  0  0  0  0  0  0
   35.7120   21.7080   31.6680 C   0  0  0  0  0  0  0  0  0  0  0  0
   35.5050   21.3630   32.9660 N   0  0  0  0  0  0  0  0  0  0  0  0
   35.3620   19.8220   34.3210 H   0  0  0  0  0  0  0  0  0  0  0  0
   35.7610   18.0180   32.6830 H   0  0  0  0  0  0  0  0  0  0  0  0
   36.1400   18.6920   30.2900 H   0  0  0  0  0  0  0  0  0  0  0  0
   38.9270   24.3590   34.2120 O   0  0  0  0  0  0  0  0  0  0  0  0
   41.1540   22.5300   34.8140 Cl  0  0  0  0  0  0  0  0  0  0  0  0
   39.9410   23.1640   35.9010 C   0  0  0  0  0  0  0  0  0  0  0  0
   38.9470   24.0280   35.5010 C   0  0  0  0  0  0  0  0  0  0  0  0
   38.0490   24.4870   36.4680 C   0  0  0  0  0  0  0  0  0  0  0  0
   38.1630   24.0810   37.7800 C   0  0  0  0  0  0  0  0  0  0  0  0
   39.1590   23.2120   38.1930 C   0  0  0  0  0  0  0  0  0  0  0  0
   40.0490   22.7560   37.2390 C   0  0  0  0  0  0  0  0  0  0  0  0
   37.2460   25.1670   36.2380 H   0  0  0  0  0  0  0  0  0  0  0  0
   37.4790   24.4250   38.5400 H   0  0  0  0  0  0  0  0  0  0  0  0
   39.2570   22.8870   39.2190 H   0  0  0  0  0  0  0  0  0  0  0  0
   41.1020   21.8370   37.6740 C   0  0  0  0  0  2  0  0  0  0  0  0
   41.5960   22.2220   38.5950 H   0  0  0  0  0  0  0  0  0  0  0  0
  1  6  1  6  0  0  0
  1 11  1  0  0  0  0
  1  5  1  0  0  0  0
  2  7  1  6  0  0  0
  2  3  1  0  0  0  0
  2 13  1  0  0  0  0
  2  1  1  0  0  0  0
  3  4  1  0  0  0  0
  4  8  1  0  0  0  0
  4  5  1  0  0  0  0
  5 10  1  1  0  0  0
  5 23  1  0  0  0  0
  9  4  1  0  0  0  0
 11 12  1  0  0  0  0
 13 18  1  0  0  0  0
 14 20  1  0  0  0  0
 15 21  1  0  0  0  0
 15 14  2  0  0  0  0
 16 15  1  0  0  0  0
 17 16  2  0  0  0  0
 17 18  1  0  0  0  0
 18 19  2  0  0  0  0
 19 14  1  0  0  0  0
 22 16  1  0  0  0  0
 23 26  1  0  0  0  0
 24 25  1  0  0  0  0
 25 30  1  0  0  0  0
 26 25  2  0  0  0  0
 26 27  1  0  0  0  0
 27 28  2  0  0  0  0
 28 29  1  0  0  0  0
 28 32  1  0  0  0  0
 29 33  1  0  0  0  0
 30 34  1  0  0  0  0
 30 29  2  0  0  0  0
 31 27  1  0  0  0  0
 34 35  1  0  0  0  0
M  END
>  <minimizedAffinity>
-5.39922953

$$$$

 OpenBabel03272506493D

 35 37  0  0  1  0  0  0  0  0999 V2000
   38.0800   27.3820   34.3900 C   0  0  2  0  0  0  0  0  0  0  0  0
   37.1200   27.9880   33.4090 C   0  0  1  0  0  0  0  0  0  0  0  0
   36.7720   27.0240   32.5120 O   0  0  0  0  0  0  0  0  0  0  0  0
   37.1770   25.7830   32.9940 C   0  0  0  0  0  0  0  0  0  0  0  0
   37.4820   25.9410   34.4600 C   0  0  1  0  0  0  0  0  0  0  0  0
   39.1040   27.3010   34.0430 H   0  0  0  0  0  0  0  0  0  0  0  0
   37.5740   28.8850   32.9220 H   0  0  0  0  0  0  0  0  0  0  0  0
   36.2460   25.1390   32.9620 H   0  0  0  0  0  0  0  0  0  0  0  0
   37.9670   25.3970   32.3710 H   0  0  0  0  0  0  0  0  0  0  0  0
   36.5970   26.0010   35.0920 H   0  0  0  0  0  0  0  0  0  0  0  0
   37.9470   27.9910   35.6560 O   0  0  0  0  0  0  0  0  0  0  0  0
   37.2260   27.5500   36.1670 H   0  0  0  0  0  0  0  0  0  0  0  0
   35.6140   28.4800   34.3380 S   0  0  0  0  0  0  0  0  0  0  0  0
   36.2100   32.1070   35.8050 C   0  0  0  0  0  0  0  0  0  0  0  0
   35.6380   32.9810   34.8760 C   0  0  0  0  0  0  0  0  0  0  0  0
   35.0390   32.4100   33.7390 C   0  0  0  0  0  0  0  0  0  0  0  0
   35.0460   31.0570   33.6040 N   0  0  0  0  0  0  0  0  0  0  0  0
   35.6130   30.2560   34.5320 C   0  0  0  0  0  0  0  0  0  0  0  0
   36.2030   30.7680   35.6450 N   0  0  0  0  0  0  0  0  0  0  0  0
   36.6830   32.4730   36.6910 H   0  0  0  0  0  0  0  0  0  0  0  0
   35.6820   34.0450   35.0700 H   0  0  0  0  0  0  0  0  0  0  0  0
   34.5990   33.0620   33.0230 H   0  0  0  0  0  0  0  0  0  0  0  0
   38.4380   25.0260   34.8230 O   0  0  0  0  0  0  0  0  0  0  0  0
   40.6740   23.1120   34.8610 Cl  0  0  0  0  0  0  0  0  0  0  0  0
   39.5910   23.5480   36.1630 C   0  0  0  0  0  0  0  0  0  0  0  0
   38.5810   24.4730   36.0250 C   0  0  0  0  0  0  0  0  0  0  0  0
   37.7940   24.7570   37.1450 C   0  0  0  0  0  0  0  0  0  0  0  0
   38.0320   24.1250   38.3460 C   0  0  0  0  0  0  0  0  0  0  0  0
   39.0450   23.1930   38.4950 C   0  0  0  0  0  0  0  0  0  0  0  0
   39.8240   22.9100   37.3890 C   0  0  0  0  0  0  0  0  0  0  0  0
   36.9880   25.4700   37.1210 H   0  0  0  0  0  0  0  0  0  0  0  0
   37.4360   24.3310   39.2210 H   0  0  0  0  0  0  0  0  0  0  0  0
   39.2390   22.6920   39.4330 H   0  0  0  0  0  0  0  0  0  0  0  0
   40.8960   21.9250   37.5460 C   0  0  0  0  0  2  0  0  0  0  0  0
   41.4880   22.1390   38.4640 H   0  0  0  0  0  0  0  0  0  0  0  0
  1  6  1  6  0  0  0
  1  5  1  0  0  0  0
  1 11  1  0  0  0  0
  2  7  1  6  0  0  0
  2 13  1  0  0  0  0
  2  1  1  0  0  0  0
  3  4  1  0  0  0  0
  3  2  1  0  0  0  0
  4  5  1  0  0  0  0
  5 23  1  0  0  0  0
  5 10  1  1  0  0  0
  8  4  1  0  0  0  0
  9  4  1  0  0  0  0
 11 12  1  0  0  0  0
 13 18  1  0  0  0  0
 14 20  1  0  0  0  0
 15 21  1  0  0  0  0
 15 14  2  0  0  0  0
 16 15  1  0  0  0  0
 17 16  2  0  0  0  0
 17 18  1  0  0  0  0
 18 19  2  0  0  0  0
 19 14  1  0  0  0  0
 22 16  1  0  0  0  0
 23 26  1  0  0  0  0
 24 25  1  0  0  0  0
 25 30  1  0  0  0  0
 26 25  2  0  0  0  0
 26 27  1  0  0  0  0
 27 28  2  0  0  0  0
 28 29  1  0  0  0  0
 28 32  1  0  0  0  0
 29 33  1  0  0  0  0
 30 34  1  0  0  0  0
 30 29  2  0  0  0  0
 31 27  1  0  0  0  0
 34 35  1  0  0  0  0
M  END
>  <minimizedAffinity>
-5.38059568

$$$$

 OpenBabel03272506493D

 35 37  0  0  1  0  0  0  0  0999 V2000
   38.3450   26.9550   34.1040 C   0  0  2  0  0  0  0  0  0  0  0  0
   37.4420   27.6770   33.1480 C   0  0  1  0  0  0  0  0  0  0  0  0
   36.8680   26.7510   32.3300 O   0  0  0  0  0  0  0  0  0  0  0  0
   37.0810   25.4820   32.8570 C   0  0  0  0  0  0  0  0  0  0  0  0
   37.5090   25.6490   34.2910 C   0  0  1  0  0  0  0  0  0  0  0  0
   39.3120   26.6750   33.7010 H   0  0  0  0  0  0  0  0  0  0  0  0
   38.0120   28.4560   32.5840 H   0  0  0  0  0  0  0  0  0  0  0  0
   36.0510   25.0150   32.9170 H   0  0  0  0  0  0  0  0  0  0  0  0
   37.7450   24.9320   32.2120 H   0  0  0  0  0  0  0  0  0  0  0  0
   36.6940   25.8960   34.9700 H   0  0  0  0  0  0  0  0  0  0  0  0
   38.4080   27.6340   35.3390 O   0  0  0  0  0  0  0  0  0  0  0  0
   37.6580   27.3530   35.9160 H   0  0  0  0  0  0  0  0  0  0  0  0
   36.1130   28.4740   34.1360 S   0  0  0  0  0  0  0  0  0  0  0  0
   35.0450   30.9570   31.2450 C   0  0  0  0  0  0  0  0  0  0  0  0
   33.6570   31.0860   31.3630 C   0  0  0  0  0  0  0  0  0  0  0  0
   33.0280   30.3640   32.3920 C   0  0  0  0  0  0  0  0  0  0  0  0
   33.7890   29.5890   33.2090 N   0  0  0  0  0  0  0  0  0  0  0  0
   35.1290   29.4980   33.0530 C   0  0  0  0  0  0  0  0  0  0  0  0
   35.7750   30.1800   32.0700 N   0  0  0  0  0  0  0  0  0  0  0  0
   35.5870   31.4770   30.4850 H   0  0  0  0  0  0  0  0  0  0  0  0
   33.1360   31.7280   30.6640 H   0  0  0  0  0  0  0  0  0  0  0  0
   31.9730   30.4520   32.4930 H   0  0  0  0  0  0  0  0  0  0  0  0
   38.3110   24.5950   34.6480 O   0  0  0  0  0  0  0  0  0  0  0  0
   40.6270   22.7800   34.7430 Cl  0  0  0  0  0  0  0  0  0  0  0  0
   39.5920   23.2950   36.0540 C   0  0  0  0  0  0  0  0  0  0  0  0
   38.5380   24.1630   35.8860 C   0  0  0  0  0  0  0  0  0  0  0  0
   37.7960   24.5210   37.0160 C   0  0  0  0  0  0  0  0  0  0  0  0
   38.1200   24.0140   38.2560 C   0  0  0  0  0  0  0  0  0  0  0  0
   39.1790   23.1400   38.4360 C   0  0  0  0  0  0  0  0  0  0  0  0
   39.9130   22.7840   37.3210 C   0  0  0  0  0  0  0  0  0  0  0  0
   36.9590   25.1970   36.9700 H   0  0  0  0  0  0  0  0  0  0  0  0
   37.5600   24.2790   39.1390 H   0  0  0  0  0  0  0  0  0  0  0  0
   39.4410   22.7370   39.4030 H   0  0  0  0  0  0  0  0  0  0  0  0
   41.0330   21.8600   37.5090 C   0  0  0  0  0  2  0  0  0  0  0  0
   41.6610   22.1820   38.3700 H   0  0  0  0  0  0  0  0  0  0  0  0
  1  6  1  6  0  0  0
  1  5  1  0  0  0  0
  1 11  1  0  0  0  0
  2  7  1  6  0  0  0
  2  1  1  0  0  0  0
  2 13  1  0  0  0  0
  3  4  1  0  0  0  0
  3  2  1  0  0  0  0
  4  8  1  0  0  0  0
  4  5  1  0  0  0  0
  5 23  1  0  0  0  0
  5 10  1  1  0  0  0
  9  4  1  0  0  0  0
 11 12  1  0  0  0  0
 14 15  2  0  0  0  0
 14 19  1  0  0  0  0
 15 16  1  0  0  0  0
 16 22  1  0  0  0  0
 16 17  2  0  0  0  0
 18 17  1  0  0  0  0
 18 13  1  0  0  0  0
 19 18  2  0  0  0  0
 20 14  1  0  0  0  0
 21 15  1  0  0  0  0
 23 26  1  0  0  0  0
 24 25  1  0  0  0  0
 25 30  1  0  0  0  0
 26 25  2  0  0  0  0
 26 27  1  0  0  0  0
 27 28  2  0  0  0  0
 28 29  1  0  0  0  0
 28 32  1  0  0  0  0
 29 33  1  0  0  0  0
 30 34  1  0  0  0  0
 30 29  2  0  0  0  0
 31 27  1  0  0  0  0
 34 35  1  0  0  0  0
M  END
>  <minimizedAffinity>
-5.27425003

$$$$

 OpenBabel03272506493D

 35 37  0  0  1  0  0  0  0  0999 V2000
   36.6440   28.8980   32.0740 C   0  0  2  0  0  0  0  0  0  0  0  0
   37.1270   27.4800   31.9900 C   0  0  1  0  0  0  0  0  0  0  0  0
   37.2750   27.0110   33.2610 O   0  0  0  0  0  0  0  0  0  0  0  0
   36.6510   27.8840   34.1460 C   0  0  0  0  0  0  0  0  0  0  0  0
   35.7410   28.7750   33.3420 C   0  0  1  0  0  0  0  0  0  0  0  0
   37.4120   29.6350   32.2830 H   0  0  0  0  0  0  0  0  0  0  0  0
   38.0730   27.4240   31.3980 H   0  0  0  0  0  0  0  0  0  0  0  0
   35.9520   27.2320   34.7530 H   0  0  0  0  0  0  0  0  0  0  0  0
   37.3940   28.3700   34.7550 H   0  0  0  0  0  0  0  0  0  0  0  0
   34.8190   28.2930   33.0220 H   0  0  0  0  0  0  0  0  0  0  0  0
   35.8300   29.2130   30.9660 O   0  0  0  0  0  0  0  0  0  0  0  0
   34.8980   28.9390   31.1450 H   0  0  0  0  0  0  0  0  0  0  0  0
   35.8150   26.4960   31.1630 S   0  0  0  0  0  0  0  0  0  0  0  0
   35.7810   22.5530   31.5010 C   0  0  0  0  0  0  0  0  0  0  0  0
   37.0490   22.1350   31.0860 C   0  0  0  0  0  0  0  0  0  0  0  0
   37.9550   23.1310   30.6820 C   0  0  0  0  0  0  0  0  0  0  0  0
   37.5590   24.4310   30.7160 N   0  0  0  0  0  0  0  0  0  0  0  0
   36.3200   24.7830   31.1260 C   0  0  0  0  0  0  0  0  0  0  0  0
   35.4150   23.8500   31.5240 N   0  0  0  0  0  0  0  0  0  0  0  0
   35.0430   21.8490   31.8200 H   0  0  0  0  0  0  0  0  0  0  0  0
   37.2730   21.0760   31.0920 H   0  0  0  0  0  0  0  0  0  0  0  0
   38.9240   22.8280   30.3640 H   0  0  0  0  0  0  0  0  0  0  0  0
   35.6160   29.9840   33.9800 O   0  0  0  0  0  0  0  0  0  0  0  0
   36.4020   32.3090   35.6050 Cl  0  0  0  0  0  0  0  0  0  0  0  0
   34.9100   31.3980   35.6560 C   0  0  0  0  0  0  0  0  0  0  0  0
   34.6520   30.3280   34.8310 C   0  0  0  0  0  0  0  0  0  0  0  0
   33.4120   29.6940   34.9470 C   0  0  0  0  0  0  0  0  0  0  0  0
   32.4820   30.1370   35.8630 C   0  0  0  0  0  0  0  0  0  0  0  0
   32.7330   31.2120   36.6980 C   0  0  0  0  0  0  0  0  0  0  0  0
   33.9580   31.8400   36.5860 C   0  0  0  0  0  0  0  0  0  0  0  0
   33.1310   28.8530   34.3360 H   0  0  0  0  0  0  0  0  0  0  0  0
   31.5200   29.6610   35.9670 H   0  0  0  0  0  0  0  0  0  0  0  0
   32.0110   31.5660   37.4200 H   0  0  0  0  0  0  0  0  0  0  0  0
   34.2240   32.9790   37.4680 C   0  0  0  0  0  2  0  0  0  0  0  0
   33.3610   33.6820   37.4630 H   0  0  0  0  0  0  0  0  0  0  0  0
  1  6  1  1  0  0  0
  1  5  1  0  0  0  0
  2  7  1  6  0  0  0
  2  1  1  0  0  0  0
  2  3  1  0  0  0  0
  3  4  1  0  0  0  0
  4  8  1  0  0  0  0
  4  9  1  0  0  0  0
  5 10  1  6  0  0  0
  5 23  1  0  0  0  0
  5  4  1  0  0  0  0
 11 12  1  0  0  0  0
 11  1  1  0  0  0  0
 13  2  1  0  0  0  0
 14 19  1  0  0  0  0
 14 20  1  0  0  0  0
 15 21  1  0  0  0  0
 15 14  2  0  0  0  0
 16 17  2  0  0  0  0
 16 15  1  0  0  0  0
 17 18  1  0  0  0  0
 18 13  1  0  0  0  0
 18 19  2  0  0  0  0
 22 16  1  0  0  0  0
 23 26  1  0  0  0  0
 24 25  1  0  0  0  0
 25 30  1  0  0  0  0
 26 27  1  0  0  0  0
 26 25  2  0  0  0  0
 27 28  2  0  0  0  0
 28 32  1  0  0  0  0
 28 29  1  0  0  0  0
 29 33  1  0  0  0  0
 30 29  2  0  0  0  0
 30 34  1  0  0  0  0
 31 27  1  0  0  0  0
 35 34  1  0  0  0  0
M  END
>  <minimizedAffinity>
-5.26747704

$$$$

 OpenBabel03272506493D

 35 37  0  0  1  0  0  0  0  0999 V2000
   38.0980   24.0990   32.2310 C   0  0  2  0  0  0  0  0  0  0  0  0
   38.9530   23.2710   33.1430 C   0  0  1  0  0  0  0  0  0  0  0  0
   39.7650   24.1140   33.8400 O   0  0  0  0  0  0  0  0  0  0  0  0
   39.3080   25.4200   33.6850 C   0  0  0  0  0  0  0  0  0  0  0  0
   37.9040   25.3500   33.1460 C   0  0  1  0  0  0  0  0  0  0  0  0
   38.5820   24.4280   31.3170 H   0  0  0  0  0  0  0  0  0  0  0  0
   39.5250   22.5090   32.5580 H   0  0  0  0  0  0  0  0  0  0  0  0
   39.1920   25.8150   34.7390 H   0  0  0  0  0  0  0  0  0  0  0  0
   40.0230   25.9840   33.1100 H   0  0  0  0  0  0  0  0  0  0  0  0
   37.1570   25.0780   33.8900 H   0  0  0  0  0  0  0  0  0  0  0  0
   36.8440   23.4850   32.0300 O   0  0  0  0  0  0  0  0  0  0  0  0
   36.2260   23.7380   32.7560 H   0  0  0  0  0  0  0  0  0  0  0  0
   37.8380   22.4300   34.3360 S   0  0  0  0  0  0  0  0  0  0  0  0
   37.9980   23.8190   38.0380 C   0  0  0  0  0  0  0  0  0  0  0  0
   39.2150   23.3610   38.5530 C   0  0  0  0  0  0  0  0  0  0  0  0
   40.0210   22.5830   37.7050 C   0  0  0  0  0  0  0  0  0  0  0  0
   39.5840   22.3200   36.4440 N   0  0  0  0  0  0  0  0  0  0  0  0
   38.3980   22.7860   35.9950 C   0  0  0  0  0  0  0  0  0  0  0  0
   37.5890   23.5420   36.7840 N   0  0  0  0  0  0  0  0  0  0  0  0
   37.3360   24.4150   38.6300 H   0  0  0  0  0  0  0  0  0  0  0  0
   39.4780   23.6220   39.5710 H   0  0  0  0  0  0  0  0  0  0  0  0
   40.9500   22.2270   38.0820 H   0  0  0  0  0  0  0  0  0  0  0  0
   37.6520   26.4740   32.4000 O   0  0  0  0  0  0  0  0  0  0  0  0
   36.8340   28.1400   30.1150 Cl  0  0  0  0  0  0  0  0  0  0  0  0
   36.5520   28.4130   31.8190 C   0  0  0  0  0  0  0  0  0  0  0  0
   36.9770   27.5490   32.8010 C   0  0  0  0  0  0  0  0  0  0  0  0
   36.6700   27.8620   34.1290 C   0  0  0  0  0  0  0  0  0  0  0  0
   35.9610   29.0040   34.4330 C   0  0  0  0  0  0  0  0  0  0  0  0
   35.5290   29.8800   33.4520 C   0  0  0  0  0  0  0  0  0  0  0  0
   35.8320   29.5740   32.1390 C   0  0  0  0  0  0  0  0  0  0  0  0
   36.9630   27.2360   34.9550 H   0  0  0  0  0  0  0  0  0  0  0  0
   35.7150   29.2620   35.4510 H   0  0  0  0  0  0  0  0  0  0  0  0
   34.9730   30.7780   33.6810 H   0  0  0  0  0  0  0  0  0  0  0  0
   35.3750   30.4990   31.1010 C   0  0  0  0  0  2  0  0  0  0  0  0
   34.3050   30.7630   31.2610 H   0  0  0  0  0  0  0  0  0  0  0  0
  1  6  1  6  0  0  0
  1  2  1  0  0  0  0
  1  5  1  0  0  0  0
  2  7  1  6  0  0  0
  2  3  1  0  0  0  0
  2 13  1  0  0  0  0
  4  3  1  0  0  0  0
  4  8  1  0  0  0  0
  5  4  1  0  0  0  0
  5 10  1  1  0  0  0
  9  4  1  0  0  0  0
 11  1  1  0  0  0  0
 11 12  1  0  0  0  0
 13 18  1  0  0  0  0
 14 15  1  0  0  0  0
 14 20  1  0  0  0  0
 15 21  1  0  0  0  0
 16 22  1  0  0  0  0
 16 15  2  0  0  0  0
 17 16  1  0  0  0  0
 18 17  2  0  0  0  0
 18 19  1  0  0  0  0
 19 14  2  0  0  0  0
 23 26  1  0  0  0  0
 23  5  1  0  0  0  0
 24 25  1  0  0  0  0
 25 30  2  0  0  0  0
 25 26  1  0  0  0  0
 26 27  2  0  0  0  0
 27 28  1  0  0  0  0
 27 31  1  0  0  0  0
 28 32  1  0  0  0  0
 29 33  1  0  0  0  0
 29 28  2  0  0  0  0
 30 29  1  0  0  0  0
 34 35  1  0  0  0  0
 34 30  1  0  0  0  0
M  END
>  <minimizedAffinity>
-5.16849089

$$$$

 OpenBabel03272506493D

 35 37  0  0  1  0  0  0  0  0999 V2000
   37.5710   24.9170   31.2450 C   0  0  2  0  0  0  0  0  0  0  0  0
   37.5950   23.4570   31.5890 C   0  0  1  0  0  0  0  0  0  0  0  0
   38.1200   23.3280   32.8400 O   0  0  0  0  0  0  0  0  0  0  0  0
   38.1580   24.5780   33.4510 C   0  0  0  0  0  0  0  0  0  0  0  0
   37.2630   25.4970   32.6620 C   0  0  1  0  0  0  0  0  0  0  0  0
   38.5190   25.3290   30.9160 H   0  0  0  0  0  0  0  0  0  0  0  0
   38.1680   22.8830   30.8210 H   0  0  0  0  0  0  0  0  0  0  0  0
   37.6240   24.4350   34.4390 H   0  0  0  0  0  0  0  0  0  0  0  0
   39.1820   24.8850   33.5760 H   0  0  0  0  0  0  0  0  0  0  0  0
   36.2010   25.3400   32.8390 H   0  0  0  0  0  0  0  0  0  0  0  0
   36.4880   25.2090   30.3900 O   0  0  0  0  0  0  0  0  0  0  0  0
   35.6740   25.3740   30.9230 H   0  0  0  0  0  0  0  0  0  0  0  0
   35.8550   22.8690   31.6330 S   0  0  0  0  0  0  0  0  0  0  0  0
   35.4150   19.2020   33.0530 C   0  0  0  0  0  0  0  0  0  0  0  0
   35.8330   18.3530   32.0240 C   0  0  0  0  0  0  0  0  0  0  0  0
   36.2720   18.9550   30.8320 C   0  0  0  0  0  0  0  0  0  0  0  0
   36.2690   20.3120   30.7420 N   0  0  0  0  0  0  0  0  0  0  0  0
   35.8540   21.0880   31.7680 C   0  0  0  0  0  0  0  0  0  0  0  0
   35.4220   20.5450   32.9370 N   0  0  0  0  0  0  0  0  0  0  0  0
   35.0680   18.8110   33.9860 H   0  0  0  0  0  0  0  0  0  0  0  0
   35.7990   17.2840   32.1880 H   0  0  0  0  0  0  0  0  0  0  0  0
   36.5930   18.3230   30.0390 H   0  0  0  0  0  0  0  0  0  0  0  0
   37.7250   26.7840   32.7800 O   0  0  0  0  0  0  0  0  0  0  0  0
   37.4730   28.4250   30.3490 Cl  0  0  0  0  0  0  0  0  0  0  0  0
   36.8050   28.7220   31.9370 C   0  0  0  0  0  0  0  0  0  0  0  0
   36.9840   27.8680   33.0010 C   0  0  0  0  0  0  0  0  0  0  0  0
   36.3790   28.1990   34.2170 C   0  0  0  0  0  0  0  0  0  0  0  0
   35.6280   29.3490   34.3360 C   0  0  0  0  0  0  0  0  0  0  0  0
   35.4430   30.2150   33.2710 C   0  0  0  0  0  0  0  0  0  0  0  0
   36.0400   29.8900   32.0680 C   0  0  0  0  0  0  0  0  0  0  0  0
   36.4670   27.5830   35.0960 H   0  0  0  0  0  0  0  0  0  0  0  0
   35.1540   29.6210   35.2650 H   0  0  0  0  0  0  0  0  0  0  0  0
   34.8560   31.1190   33.3540 H   0  0  0  0  0  0  0  0  0  0  0  0
   35.8440   30.8040   30.9410 C   0  0  0  0  0  2  0  0  0  0  0  0
   34.7690   31.0760   30.8450 H   0  0  0  0  0  0  0  0  0  0  0  0
  1  6  1  6  0  0  0
  1  2  1  0  0  0  0
  1  5  1  0  0  0  0
  2  7  1  6  0  0  0
  2 13  1  0  0  0  0
  2  3  1  0  0  0  0
  3  4  1  0  0  0  0
  4  9  1  0  0  0  0
  4  8  1  0  0  0  0
  5 23  1  0  0  0  0
  5 10  1  1  0  0  0
  5  4  1  0  0  0  0
 11 12  1  0  0  0  0
 11  1  1  0  0  0  0
 13 18  1  0  0  0  0
 14 20  1  0  0  0  0
 15 21  1  0  0  0  0
 15 14  2  0  0  0  0
 16 15  1  0  0  0  0
 17 16  2  0  0  0  0
 17 18  1  0  0  0  0
 18 19  2  0  0  0  0
 19 14  1  0  0  0  0
 22 16  1  0  0  0  0
 23 26  1  0  0  0  0
 24 25  1  0  0  0  0
 25 30  2  0  0  0  0
 25 26  1  0  0  0  0
 26 27  2  0  0  0  0
 27 28  1  0  0  0  0
 27 31  1  0  0  0  0
 28 32  1  0  0  0  0
 29 33  1  0  0  0  0
 29 28  2  0  0  0  0
 30 29  1  0  0  0  0
 34 30  1  0  0  0  0
 35 34  1  0  0  0  0
M  END
>  <minimizedAffinity>
-5.05222464

$$$$

 OpenBabel03272506493D

 35 37  0  0  1  0  0  0  0  0999 V2000
   37.7470   23.5340   33.0170 C   0  0  2  0  0  0  0  0  0  0  0  0
   37.4290   23.6120   31.5530 C   0  0  1  0  0  0  0  0  0  0  0  0
   38.2170   24.5770   31.0020 O   0  0  0  0  0  0  0  0  0  0  0  0
   39.2200   24.9170   31.9040 C   0  0  0  0  0  0  0  0  0  0  0  0
   39.2770   23.8360   32.9510 C   0  0  1  0  0  0  0  0  0  0  0  0
   37.2830   24.2990   33.6310 H   0  0  0  0  0  0  0  0  0  0  0  0
   36.3390   23.8080   31.3990 H   0  0  0  0  0  0  0  0  0  0  0  0
   40.1850   24.8050   31.3230 H   0  0  0  0  0  0  0  0  0  0  0  0
   39.0630   25.9240   32.2520 H   0  0  0  0  0  0  0  0  0  0  0  0
   39.7620   22.9210   32.6160 H   0  0  0  0  0  0  0  0  0  0  0  0
   37.5640   22.2200   33.4960 O   0  0  0  0  0  0  0  0  0  0  0  0
   38.3820   21.6890   33.3430 H   0  0  0  0  0  0  0  0  0  0  0  0
   37.8820   21.9990   30.8000 S   0  0  0  0  0  0  0  0  0  0  0  0
   36.4140   18.5760   32.1380 C   0  0  0  0  0  0  0  0  0  0  0  0
   35.0420   18.7990   32.2980 C   0  0  0  0  0  0  0  0  0  0  0  0
   34.5560   20.0770   31.9720 C   0  0  0  0  0  0  0  0  0  0  0  0
   35.4300   21.0170   31.5250 N   0  0  0  0  0  0  0  0  0  0  0  0
   36.7480   20.7510   31.3890 C   0  0  0  0  0  0  0  0  0  0  0  0
   37.2580   19.5280   31.6930 N   0  0  0  0  0  0  0  0  0  0  0  0
   36.8510   17.6280   32.3680 H   0  0  0  0  0  0  0  0  0  0  0  0
   34.4250   17.9880   32.6610 H   0  0  0  0  0  0  0  0  0  0  0  0
   33.5150   20.2610   32.0880 H   0  0  0  0  0  0  0  0  0  0  0  0
   39.7260   24.3760   34.1310 O   0  0  0  0  0  0  0  0  0  0  0  0
   37.8100   24.9070   36.3020 Cl  0  0  0  0  0  0  0  0  0  0  0  0
   39.2250   23.8790   36.3240 C   0  0  0  0  0  0  0  0  0  0  0  0
   40.0440   23.7010   35.2330 C   0  0  0  0  0  0  0  0  0  0  0  0
   41.1320   22.8340   35.3650 C   0  0  0  0  0  0  0  0  0  0  0  0
   41.3680   22.1820   36.5560 C   0  0  0  0  0  0  0  0  0  0  0  0
   40.5500   22.3550   37.6590 C   0  0  0  0  0  0  0  0  0  0  0  0
   39.4740   23.2120   37.5320 C   0  0  0  0  0  0  0  0  0  0  0  0
   41.8180   22.6370   34.5590 H   0  0  0  0  0  0  0  0  0  0  0  0
   42.2030   21.5090   36.6770 H   0  0  0  0  0  0  0  0  0  0  0  0
   40.7270   21.8480   38.5980 H   0  0  0  0  0  0  0  0  0  0  0  0
   38.6080   23.3950   38.6980 C   0  0  0  0  0  2  0  0  0  0  0  0
   38.3410   22.4090   39.1420 H   0  0  0  0  0  0  0  0  0  0  0  0
  1 11  1  0  0  0  0
  1  6  1  1  0  0  0
  2  7  1  6  0  0  0
  2  1  1  0  0  0  0
  3  2  1  0  0  0  0
  3  4  1  0  0  0  0
  4  9  1  0  0  0  0
  4  5  1  0  0  0  0
  5 10  1  6  0  0  0
  5  1  1  0  0  0  0
  5 23  1  0  0  0  0
  8  4  1  0  0  0  0
 12 11  1  0  0  0  0
 13 18  1  0  0  0  0
 13  2  1  0  0  0  0
 14 15  1  0  0  0  0
 14 20  1  0  0  0  0
 15 21  1  0  0  0  0
 16 22  1  0  0  0  0
 16 15  2  0  0  0  0
 17 16  1  0  0  0  0
 18 17  2  0  0  0  0
 18 19  1  0  0  0  0
 19 14  2  0  0  0  0
 23 26  1  0  0  0  0
 24 25  1  0  0  0  0
 25 30  1  0  0  0  0
 26 27  1  0  0  0  0
 26 25  2  0  0  0  0
 27 28  2  0  0  0  0
 28 32  1  0  0  0  0
 28 29  1  0  0  0  0
 29 33  1  0  0  0  0
 30 29  2  0  0  0  0
 30 34  1  0  0  0  0
 31 27  1  0  0  0  0
 34 35  1  0  0  0  0
M  END
>  <minimizedAffinity>
-5.00123024

$$$$

 OpenBabel03272506493D

 35 37  0  0  1  0  0  0  0  0999 V2000
   36.9940   27.9870   32.7390 C   0  0  2  0  0  0  0  0  0  0  0  0
   36.2900   29.2260   32.2700 C   0  0  1  0  0  0  0  0  0  0  0  0
   36.1350   29.1360   30.9190 O   0  0  0  0  0  0  0  0  0  0  0  0
   36.4010   27.8320   30.5150 C   0  0  0  0  0  0  0  0  0  0  0  0
   36.3720   26.9590   31.7420 C   0  0  1  0  0  0  0  0  0  0  0  0
   38.0690   27.9850   32.5910 H   0  0  0  0  0  0  0  0  0  0  0  0
   36.8560   30.1380   32.5780 H   0  0  0  0  0  0  0  0  0  0  0  0
   35.4900   27.5200   29.9190 H   0  0  0  0  0  0  0  0  0  0  0  0
   37.3030   27.8160   29.9270 H   0  0  0  0  0  0  0  0  0  0  0  0
   35.3690   26.7400   32.1050 H   0  0  0  0  0  0  0  0  0  0  0  0
   36.5910   27.6510   34.0480 O   0  0  0  0  0  0  0  0  0  0  0  0
   35.7680   27.1080   34.0170 H   0  0  0  0  0  0  0  0  0  0  0  0
   34.6220   29.2400   33.0400 S   0  0  0  0  0  0  0  0  0  0  0  0
   35.9250   31.5060   36.0110 C   0  0  0  0  0  0  0  0  0  0  0  0
   34.7750   31.9290   36.6860 C   0  0  0  0  0  0  0  0  0  0  0  0
   33.5380   31.4850   36.1890 C   0  0  0  0  0  0  0  0  0  0  0  0
   33.5210   30.6780   35.0940 N   0  0  0  0  0  0  0  0  0  0  0  0
   34.6620   30.2990   34.4780 C   0  0  0  0  0  0  0  0  0  0  0  0
   35.8790   30.7060   34.9270 N   0  0  0  0  0  0  0  0  0  0  0  0
   36.8980   31.8070   36.3350 H   0  0  0  0  0  0  0  0  0  0  0  0
   34.8880   32.5720   37.5490 H   0  0  0  0  0  0  0  0  0  0  0  0
   32.6540   31.7980   36.6920 H   0  0  0  0  0  0  0  0  0  0  0  0
   37.2070   25.8870   31.5510 O   0  0  0  0  0  0  0  0  0  0  0  0
   38.8450   24.8230   33.7540 Cl  0  0  0  0  0  0  0  0  0  0  0  0
   37.6300   23.9990   32.8020 C   0  0  0  0  0  0  0  0  0  0  0  0
   36.9170   24.6110   31.7980 C   0  0  0  0  0  0  0  0  0  0  0  0
   35.9540   23.8560   31.1230 C   0  0  0  0  0  0  0  0  0  0  0  0
   35.7330   22.5390   31.4620 C   0  0  0  0  0  0  0  0  0  0  0  0
   36.4450   21.9130   32.4720 C   0  0  0  0  0  0  0  0  0  0  0  0
   37.3990   22.6570   33.1400 C   0  0  0  0  0  0  0  0  0  0  0  0
   35.3510   24.2610   30.3280 H   0  0  0  0  0  0  0  0  0  0  0  0
   34.9940   21.9400   30.9540 H   0  0  0  0  0  0  0  0  0  0  0  0
   36.2800   20.8810   32.7450 H   0  0  0  0  0  0  0  0  0  0  0  0
   38.1530   21.9980   34.2070 C   0  0  0  0  0  2  0  0  0  0  0  0
   37.4630   21.4470   34.8860 H   0  0  0  0  0  0  0  0  0  0  0  0
  1  6  1  6  0  0  0
  1 11  1  0  0  0  0
  2  7  1  1  0  0  0
  2  1  1  0  0  0  0
  2 13  1  0  0  0  0
  3  2  1  0  0  0  0
  4  3  1  0  0  0  0
  4  5  1  0  0  0  0
  5 10  1  1  0  0  0
  5  1  1  0  0  0  0
  8  4  1  0  0  0  0
  9  4  1  0  0  0  0
 12 11  1  0  0  0  0
 13 18  1  0  0  0  0
 14 20  1  0  0  0  0
 14 15  1  0  0  0  0
 15 21  1  0  0  0  0
 16 15  2  0  0  0  0
 16 22  1  0  0  0  0
 17 16  1  0  0  0  0
 18 19  1  0  0  0  0
 18 17  2  0  0  0  0
 19 14  2  0  0  0  0
 23  5  1  0  0  0  0
 23 26  1  0  0  0  0
 25 30  1  0  0  0  0
 25 24  1  0  0  0  0
 26 25  2  0  0  0  0
 27 28  2  0  0  0  0
 27 26  1  0  0  0  0
 28 29  1  0  0  0  0
 29 33  1  0  0  0  0
 29 30  2  0  0  0  0
 30 34  1  0  0  0  0
 31 27  1  0  0  0  0
 32 28  1  0  0  0  0
 34 35  1  0  0  0  0
M  END
>  <minimizedAffinity>
-4.95426512

$$$$

 OpenBabel03272506493D

 35 37  0  0  1  0  0  0  0  0999 V2000
   39.1410   24.2340   32.4080 C   0  0  2  0  0  0  0  0  0  0  0  0
   39.7860   23.1600   33.2340 C   0  0  1  0  0  0  0  0  0  0  0  0
   40.6410   23.7600   34.1090 O   0  0  0  0  0  0  0  0  0  0  0  0
   40.3870   25.1280   34.1320 C   0  0  0  0  0  0  0  0  0  0  0  0
   39.0410   25.3520   33.4940 C   0  0  1  0  0  0  0  0  0  0  0  0
   39.7470   24.6150   31.5930 H   0  0  0  0  0  0  0  0  0  0  0  0
   40.2960   22.4140   32.5770 H   0  0  0  0  0  0  0  0  0  0  0  0
   40.2320   25.3780   35.2250 H   0  0  0  0  0  0  0  0  0  0  0  0
   41.2230   25.6550   33.7030 H   0  0  0  0  0  0  0  0  0  0  0  0
   38.2000   25.0910   34.1330 H   0  0  0  0  0  0  0  0  0  0  0  0
   37.8370   23.8530   32.0280 O   0  0  0  0  0  0  0  0  0  0  0  0
   37.1970   24.0890   32.7410 H   0  0  0  0  0  0  0  0  0  0  0  0
   38.4600   22.3330   34.2010 S   0  0  0  0  0  0  0  0  0  0  0  0
   39.9150   22.6260   37.8700 C   0  0  0  0  0  0  0  0  0  0  0  0
   38.9890   23.4030   38.5740 C   0  0  0  0  0  0  0  0  0  0  0  0
   37.8610   23.8560   37.8690 C   0  0  0  0  0  0  0  0  0  0  0  0
   37.7270   23.5190   36.5580 N   0  0  0  0  0  0  0  0  0  0  0  0
   38.6510   22.7650   35.9240 C   0  0  0  0  0  0  0  0  0  0  0  0
   39.7570   22.3080   36.5690 N   0  0  0  0  0  0  0  0  0  0  0  0
   40.7950   22.2490   38.3440 H   0  0  0  0  0  0  0  0  0  0  0  0
   39.1820   23.6190   39.6170 H   0  0  0  0  0  0  0  0  0  0  0  0
   37.1480   24.4480   38.3910 H   0  0  0  0  0  0  0  0  0  0  0  0
   39.0170   26.5980   32.9190 O   0  0  0  0  0  0  0  0  0  0  0  0
   37.6080   27.7720   35.2210 Cl  0  0  0  0  0  0  0  0  0  0  0  0
   37.1820   27.8500   33.5270 C   0  0  0  0  0  0  0  0  0  0  0  0
   37.9320   27.2660   32.5340 C   0  0  0  0  0  0  0  0  0  0  0  0
   37.5040   27.4180   31.2120 C   0  0  0  0  0  0  0  0  0  0  0  0
   36.3620   28.1350   30.9240 C   0  0  0  0  0  0  0  0  0  0  0  0
   35.6000   28.7270   31.9170 C   0  0  0  0  0  0  0  0  0  0  0  0
   36.0210   28.5770   33.2240 C   0  0  0  0  0  0  0  0  0  0  0  0
   38.0360   26.9950   30.3770 H   0  0  0  0  0  0  0  0  0  0  0  0
   36.0160   28.2630   29.9110 H   0  0  0  0  0  0  0  0  0  0  0  0
   34.7030   29.2900   31.7020 H   0  0  0  0  0  0  0  0  0  0  0  0
   35.2160   29.2030   34.2750 C   0  0  0  0  0  2  0  0  0  0  0  0
   34.9750   30.2550   34.0030 H   0  0  0  0  0  0  0  0  0  0  0  0
  1  6  1  6  0  0  0
  1  2  1  0  0  0  0
  1  5  1  0  0  0  0
  2  7  1  6  0  0  0
  2  3  1  0  0  0  0
  2 13  1  0  0  0  0
  3  4  1  0  0  0  0
  4  8  1  0  0  0  0
  5  4  1  0  0  0  0
  5 10  1  1  0  0  0
  9  4  1  0  0  0  0
 11  1  1  0  0  0  0
 11 12  1  0  0  0  0
 13 18  1  0  0  0  0
 14 20  1  0  0  0  0
 14 15  1  0  0  0  0
 15 21  1  0  0  0  0
 16 22  1  0  0  0  0
 16 15  2  0  0  0  0
 17 16  1  0  0  0  0
 18 17  2  0  0  0  0
 18 19  1  0  0  0  0
 19 14  2  0  0  0  0
 23  5  1  0  0  0  0
 25 24  1  0  0  0  0
 26 23  1  0  0  0  0
 26 25  2  0  0  0  0
 27 26  1  0  0  0  0
 28 27  2  0  0  0  0
 28 29  1  0  0  0  0
 29 30  2  0  0  0  0
 30 25  1  0  0  0  0
 30 34  1  0  0  0  0
 31 27  1  0  0  0  0
 32 28  1  0  0  0  0
 33 29  1  0  0  0  0
 35 34  1  0  0  0  0
M  END
>  <minimizedAffinity>
-4.94249249

$$$$
