
 OpenBabel03272510113D

 28 30  0  0  0  0  0  0  0  0999 V2000
   34.0640   28.8230   48.3100 C   0  0  0  0  0  0  0  0  0  0  0  0
   34.6660   28.3820   49.4330 C   0  0  0  0  0  0  0  0  0  0  0  0
   35.9030   28.8010   49.8780 C   0  0  0  0  0  0  0  0  0  0  0  0
   36.6050   29.7240   49.1620 C   0  0  0  0  0  0  0  0  0  0  0  0
   35.9900   30.1840   47.9970 C   0  0  0  0  0  0  0  0  0  0  0  0
   34.7840   29.7420   47.6140 N   0  0  0  0  0  0  0  0  0  0  0  0
   34.1790   27.6480   50.0630 H   0  0  0  0  0  0  0  0  0  0  0  0
   36.3800   28.4380   50.7880 H   0  0  0  0  0  0  0  0  0  0  0  0
   36.5130   30.9240   47.3910 H   0  0  0  0  0  0  0  0  0  0  0  0
   31.9290   27.5230   48.5650 C   0  0  0  0  0  0  0  0  0  0  0  0
   32.7800   28.3920   47.8420 C   0  0  0  0  0  0  0  0  0  0  0  0
   32.3030   28.8310   46.6140 C   0  0  0  0  0  0  0  0  0  0  0  0
   31.0830   28.4170   46.1780 N   0  0  0  0  0  0  0  0  0  0  0  0
   30.3140   27.5770   46.9270 C   0  0  0  0  0  0  0  0  0  0  0  0
   30.7350   27.1250   48.1270 N   0  0  0  0  0  0  0  0  0  0  0  0
   32.2690   27.1640   49.5210 H   0  0  0  0  0  0  0  0  0  0  0  0
   32.9360   29.4900   46.0530 H   0  0  0  0  0  0  0  0  0  0  0  0
   29.3960   27.3980   46.3660 H   0  0  0  0  0  0  0  0  0  0  0  0
   37.8620   30.2500   49.4690 O   0  0  0  0  0  0  0  0  0  0  0  0
   38.4080   31.2960   48.7290 C   0  0  0  0  0  0  0  0  0  0  0  0
   38.4210   32.5210   49.3890 C   0  0  0  0  0  0  0  0  0  0  0  0
   38.9900   33.4570   48.5290 C   0  0  0  0  0  0  0  0  0  0  0  0
   39.2950   32.7880   47.4080 N   0  0  0  0  0  0  0  0  0  0  0  0
   38.9560   31.5280   47.5230 N   0  0  0  0  0  0  0  0  0  0  0  0
   38.1010   32.8850   50.3720 H   0  0  0  0  0  0  0  0  0  0  0  0
   39.2120   34.5090   48.5830 H   0  0  0  0  0  0  0  0  0  0  0  0
   39.9020   33.1670   46.1450 C   0  0  0  0  0  2  0  0  0  0  0  0
   39.7720   32.3530   45.3770 H   0  0  0  0  0  0  0  0  0  0  0  0
  1  2  1  0  0  0  0
  2  3  2  0  0  0  0
  2  7  1  0  0  0  0
  3  8  1  0  0  0  0
  4 19  1  0  0  0  0
  4  3  1  0  0  0  0
  5  4  2  0  0  0  0
  6  5  1  0  0  0  0
  6  1  2  0  0  0  0
  9  5  1  0  0  0  0
 10 16  1  0  0  0  0
 11  1  1  0  0  0  0
 11 10  2  0  0  0  0
 12 11  1  0  0  0  0
 13 12  2  0  0  0  0
 13 14  1  0  0  0  0
 14 15  2  0  0  0  0
 15 10  1  0  0  0  0
 17 12  1  0  0  0  0
 18 14  1  0  0  0  0
 20 21  1  0  0  0  0
 20 19  1  0  0  0  0
 21 25  1  0  0  0  0
 22 26  1  0  0  0  0
 22 21  2  0  0  0  0
 23 24  1  0  0  0  0
 23 22  1  0  0  0  0
 24 20  2  0  0  0  0
 27 23  1  0  0  0  0
 28 27  1  0  0  0  0
M  END
>  <minimizedAffinity>
-5.37869883

>  <minimizedRMSD>
0.49001509

$$$$
