
 OpenBabel03272509443D

 31 32  0  0  1  0  0  0  0  0999 V2000
   38.8610   26.8530   33.4130 C   0  0  0  0  0  0  0  0  0  0  0  0
   39.7600   27.2770   32.4330 C   0  0  0  0  0  0  0  0  0  0  0  0
   41.1280   27.3440   32.6780 C   0  0  0  0  0  0  0  0  0  0  0  0
   41.6160   26.9780   33.9370 C   0  0  0  0  0  0  0  0  0  0  0  0
   40.7230   26.5680   34.8820 C   0  0  0  0  0  0  0  0  0  0  0  0
   39.3640   26.5140   34.6050 C   0  0  0  0  0  0  0  0  0  0  0  0
   39.3760   27.5590   31.4570 H   0  0  0  0  0  0  0  0  0  0  0  0
   41.7490   27.6780   31.8790 H   0  0  0  0  0  0  0  0  0  0  0  0
   42.6850   27.0600   34.0410 H   0  0  0  0  0  0  0  0  0  0  0  0
   41.2500   26.3210   35.8050 H   0  0  0  0  0  0  0  0  0  0  0  0
   37.4340   26.8210   33.1670 C   0  0  2  0  0  0  0  0  0  0  0  0
   36.9770   26.3530   34.1210 H   0  0  0  0  0  0  0  0  0  0  0  0
   36.6010   23.4820   31.9940 C   0  0  0  0  0  0  0  0  0  0  0  0
   35.5130   23.6840   31.1620 C   0  0  0  0  0  0  0  0  0  0  0  0
   35.0890   24.9820   30.9450 C   0  0  0  0  0  0  0  0  0  0  0  0
   35.7540   26.0180   31.5590 N   0  0  0  0  0  0  0  0  0  0  0  0
   36.7810   25.7640   32.3430 C   0  0  0  0  0  0  0  0  0  0  0  0
   37.2090   24.5080   32.5630 N   0  0  0  0  0  0  0  0  0  0  0  0
   36.9540   22.4630   32.1780 H   0  0  0  0  0  0  0  0  0  0  0  0
   35.0060   22.8510   30.6910 H   0  0  0  0  0  0  0  0  0  0  0  0
   34.2420   25.2210   30.3030 H   0  0  0  0  0  0  0  0  0  0  0  0
   36.8810   27.9750   33.2920 O   0  0  0  0  0  0  0  0  0  0  0  0
   36.9720   28.6950   32.6540 H   0  0  0  0  0  0  0  0  0  0  0  0
   38.5300   26.0860   35.7040 C   0  0  0  0  0  3  0  0  0  0  0  0
   38.4060   24.8110   36.0930 C   0  0  0  0  0  3  0  0  0  0  0  0
   37.6140   24.2730   37.2240 C   0  0  0  0  0  0  0  0  0  0  0  0
   36.9230   23.4940   36.7890 H   0  0  0  0  0  0  0  0  0  0  0  0
   36.9800   25.0280   37.7140 H   0  0  0  0  0  0  0  0  0  0  0  0
   38.6980   23.4080   38.3630 S   0  0  0  0  0  0  0  0  0  0  0  0
   40.1290   22.6840   37.5730 C   0  0  0  0  0  2  0  0  0  0  0  0
   40.9600   22.6370   38.3300 H   0  0  0  0  0  0  0  0  0  0  0  0
  1  6  1  0  0  0  0
  2  3  1  0  0  0  0
  2  1  2  0  0  0  0
  3  4  2  0  0  0  0
  4  9  1  0  0  0  0
  4  5  1  0  0  0  0
  5 10  1  0  0  0  0
  6  5  2  0  0  0  0
  6 24  1  0  0  0  0
  7  2  1  0  0  0  0
  8  3  1  0  0  0  0
 11 22  1  0  0  0  0
 11  1  1  0  0  0  0
 11 12  1  1  0  0  0
 13 19  1  0  0  0  0
 13 18  1  0  0  0  0
 14 13  2  0  0  0  0
 15 14  1  0  0  0  0
 15 16  2  0  0  0  0
 16 17  1  0  0  0  0
 17 18  2  0  0  0  0
 17 11  1  0  0  0  0
 20 14  1  0  0  0  0
 21 15  1  0  0  0  0
 23 22  1  0  0  0  0
 24 25  2  0  0  0  0
 25 26  1  0  0  0  0
 26 28  1  0  0  0  0
 26 29  1  0  0  0  0
 27 26  1  0  0  0  0
 30 31  1  0  0  0  0
 30 29  1  0  0  0  0
M  END
>  <minimizedAffinity>
-5.00121403

$$$$

 OpenBabel03272509443D

 31 32  0  0  1  0  0  0  0  0999 V2000
   38.8510   24.3070   35.8610 C   0  0  0  0  0  0  0  0  0  0  0  0
   37.9570   25.3110   36.2370 C   0  0  0  0  0  0  0  0  0  0  0  0
   38.2030   26.6510   35.9510 C   0  0  0  0  0  0  0  0  0  0  0  0
   39.3750   27.0010   35.2710 C   0  0  0  0  0  0  0  0  0  0  0  0
   40.2360   26.0060   34.9130 C   0  0  0  0  0  0  0  0  0  0  0  0
   39.9600   24.6790   35.2150 C   0  0  0  0  0  0  0  0  0  0  0  0
   37.0490   25.0340   36.7630 H   0  0  0  0  0  0  0  0  0  0  0  0
   37.4740   27.3580   36.2710 H   0  0  0  0  0  0  0  0  0  0  0  0
   39.4870   28.0570   35.0910 H   0  0  0  0  0  0  0  0  0  0  0  0
   41.0980   26.4320   34.3970 H   0  0  0  0  0  0  0  0  0  0  0  0
   38.6090   22.9180   36.1920 C   0  0  2  0  0  0  0  0  0  0  0  0
   39.5040   22.3420   35.7380 H   0  0  0  0  0  0  0  0  0  0  0  0
   35.6930   20.8550   35.5190 C   0  0  0  0  0  0  0  0  0  0  0  0
   35.7040   20.7020   34.1430 C   0  0  0  0  0  0  0  0  0  0  0  0
   36.7510   21.2580   33.4320 C   0  0  0  0  0  0  0  0  0  0  0  0
   37.7360   21.9390   34.1110 N   0  0  0  0  0  0  0  0  0  0  0  0
   37.6700   22.0540   35.4210 C   0  0  0  0  0  0  0  0  0  0  0  0
   36.6600   21.5170   36.1270 N   0  0  0  0  0  0  0  0  0  0  0  0
   34.8730   20.4210   36.1000 H   0  0  0  0  0  0  0  0  0  0  0  0
   34.9160   20.1620   33.6330 H   0  0  0  0  0  0  0  0  0  0  0  0
   36.8320   21.1800   32.3490 H   0  0  0  0  0  0  0  0  0  0  0  0
   38.8710   22.6460   37.4220 O   0  0  0  0  0  0  0  0  0  0  0  0
   38.3210   22.9180   38.1700 H   0  0  0  0  0  0  0  0  0  0  0  0
   40.9690   23.7330   34.7990 C   0  0  0  0  0  3  0  0  0  0  0  0
   42.1880   23.6530   35.3470 C   0  0  0  0  0  3  0  0  0  0  0  0
   43.2750   22.6990   35.0250 C   0  0  0  0  0  0  0  0  0  0  0  0
   44.1780   23.0320   35.6150 H   0  0  0  0  0  0  0  0  0  0  0  0
   43.5640   22.7060   33.9630 H   0  0  0  0  0  0  0  0  0  0  0  0
   42.8470   21.0660   35.6340 S   0  0  0  0  0  0  0  0  0  0  0  0
   42.0840   21.0870   37.2510 C   0  0  0  0  0  2  0  0  0  0  0  0
   41.4110   20.1880   37.3320 H   0  0  0  0  0  0  0  0  0  0  0  0
  1 11  1  0  0  0  0
  1  2  1  0  0  0  0
  2  7  1  0  0  0  0
  3  2  2  0  0  0  0
  3  8  1  0  0  0  0
  4  3  1  0  0  0  0
  5  6  1  0  0  0  0
  5  4  2  0  0  0  0
  6  1  2  0  0  0  0
  9  4  1  0  0  0  0
 10  5  1  0  0  0  0
 11 12  1  6  0  0  0
 11 22  1  0  0  0  0
 13 19  1  0  0  0  0
 13 18  1  0  0  0  0
 14 13  2  0  0  0  0
 15 16  2  0  0  0  0
 15 14  1  0  0  0  0
 16 17  1  0  0  0  0
 17 18  2  0  0  0  0
 17 11  1  0  0  0  0
 20 14  1  0  0  0  0
 21 15  1  0  0  0  0
 22 23  1  0  0  0  0
 24  6  1  0  0  0  0
 24 25  2  0  0  0  0
 26 25  1  0  0  0  0
 26 27  1  0  0  0  0
 26 29  1  0  0  0  0
 28 26  1  0  0  0  0
 29 30  1  0  0  0  0
 30 31  1  0  0  0  0
M  END
>  <minimizedAffinity>
-4.82527208

$$$$

 OpenBabel03272509443D

 31 32  0  0  1  0  0  0  0  0999 V2000
   36.6530   28.4350   32.4500 C   0  0  0  0  0  0  0  0  0  0  0  0
   36.1670   29.4670   31.6460 C   0  0  0  0  0  0  0  0  0  0  0  0
   35.4560   30.5370   32.1820 C   0  0  0  0  0  0  0  0  0  0  0  0
   35.2210   30.5790   33.5610 C   0  0  0  0  0  0  0  0  0  0  0  0
   35.7030   29.5600   34.3300 C   0  0  0  0  0  0  0  0  0  0  0  0
   36.4070   28.5080   33.7620 C   0  0  0  0  0  0  0  0  0  0  0  0
   36.3540   29.4300   30.5770 H   0  0  0  0  0  0  0  0  0  0  0  0
   35.1190   31.2860   31.5040 H   0  0  0  0  0  0  0  0  0  0  0  0
   34.6650   31.4390   33.8920 H   0  0  0  0  0  0  0  0  0  0  0  0
   35.4390   29.7320   35.3750 H   0  0  0  0  0  0  0  0  0  0  0  0
   37.3600   27.3050   31.8830 C   0  0  2  0  0  0  0  0  0  0  0  0
   37.2330   27.4170   30.7380 H   0  0  0  0  0  0  0  0  0  0  0  0
   35.0140   24.6820   30.9720 C   0  0  0  0  0  0  0  0  0  0  0  0
   35.6740   23.5130   31.3130 C   0  0  0  0  0  0  0  0  0  0  0  0
   36.9130   23.6150   31.9180 C   0  0  0  0  0  0  0  0  0  0  0  0
   37.4440   24.8620   32.1560 N   0  0  0  0  0  0  0  0  0  0  0  0
   36.7710   25.9380   31.8070 C   0  0  0  0  0  0  0  0  0  0  0  0
   35.5630   25.8580   31.2200 N   0  0  0  0  0  0  0  0  0  0  0  0
   34.0320   24.6230   30.4940 H   0  0  0  0  0  0  0  0  0  0  0  0
   35.2340   22.5440   31.1140 H   0  0  0  0  0  0  0  0  0  0  0  0
   37.4920   22.7420   32.2160 H   0  0  0  0  0  0  0  0  0  0  0  0
   38.6370   27.4560   31.9020 O   0  0  0  0  0  0  0  0  0  0  0  0
   39.1810   27.3940   32.6990 H   0  0  0  0  0  0  0  0  0  0  0  0
   36.8370   27.4860   34.6890 C   0  0  0  0  0  3  0  0  0  0  0  0
   37.9310   27.5840   35.4520 C   0  0  0  0  0  3  0  0  0  0  0  0
   38.4360   26.6190   36.4570 C   0  0  0  0  0  0  0  0  0  0  0  0
   37.7940   26.7500   37.3770 H   0  0  0  0  0  0  0  0  0  0  0  0
   39.4760   26.8070   36.7610 H   0  0  0  0  0  0  0  0  0  0  0  0
   38.1550   24.9430   35.8800 S   0  0  0  0  0  0  0  0  0  0  0  0
   37.5800   23.8360   37.1610 C   0  0  0  0  0  2  0  0  0  0  0  0
   36.9620   23.0300   36.6750 H   0  0  0  0  0  0  0  0  0  0  0  0
  1  6  1  0  0  0  0
  2  3  1  0  0  0  0
  2  1  2  0  0  0  0
  3  4  2  0  0  0  0
  4  9  1  0  0  0  0
  4  5  1  0  0  0  0
  5 10  1  0  0  0  0
  6  5  2  0  0  0  0
  6 24  1  0  0  0  0
  7  2  1  0  0  0  0
  8  3  1  0  0  0  0
 11 12  1  6  0  0  0
 11 22  1  0  0  0  0
 11  1  1  0  0  0  0
 13 18  2  0  0  0  0
 13 14  1  0  0  0  0
 14 15  2  0  0  0  0
 15 16  1  0  0  0  0
 15 21  1  0  0  0  0
 17 11  1  0  0  0  0
 17 16  2  0  0  0  0
 18 17  1  0  0  0  0
 19 13  1  0  0  0  0
 20 14  1  0  0  0  0
 22 23  1  0  0  0  0
 24 25  2  0  0  0  0
 25 26  1  0  0  0  0
 26 28  1  0  0  0  0
 26 27  1  0  0  0  0
 29 26  1  0  0  0  0
 29 30  1  0  0  0  0
 31 30  1  0  0  0  0
M  END
>  <minimizedAffinity>
-4.81648922

$$$$

 OpenBabel03272509443D

 31 32  0  0  1  0  0  0  0  0999 V2000
   38.4270   27.0290   34.2700 C   0  0  0  0  0  0  0  0  0  0  0  0
   37.1710   27.3410   33.7480 C   0  0  0  0  0  0  0  0  0  0  0  0
   37.0010   27.6780   32.4080 C   0  0  0  0  0  0  0  0  0  0  0  0
   38.1160   27.7060   31.5630 C   0  0  0  0  0  0  0  0  0  0  0  0
   39.3350   27.3990   32.0910 C   0  0  0  0  0  0  0  0  0  0  0  0
   39.4700   27.0680   33.4320 C   0  0  0  0  0  0  0  0  0  0  0  0
   36.3090   27.3160   34.4070 H   0  0  0  0  0  0  0  0  0  0  0  0
   36.0110   27.9040   32.0850 H   0  0  0  0  0  0  0  0  0  0  0  0
   37.8950   27.9770   30.5440 H   0  0  0  0  0  0  0  0  0  0  0  0
   40.1000   27.4670   31.3160 H   0  0  0  0  0  0  0  0  0  0  0  0
   38.6060   26.7140   35.6720 C   0  0  2  0  0  0  0  0  0  0  0  0
   39.7200   26.4220   35.7730 H   0  0  0  0  0  0  0  0  0  0  0  0
   37.9790   23.1380   35.8430 C   0  0  0  0  0  0  0  0  0  0  0  0
   37.8140   22.8940   37.1960 C   0  0  0  0  0  0  0  0  0  0  0  0
   37.8570   23.9690   38.0640 C   0  0  0  0  0  0  0  0  0  0  0  0
   38.0620   25.2330   37.5590 N   0  0  0  0  0  0  0  0  0  0  0  0
   38.2150   25.4030   36.2620 C   0  0  0  0  0  0  0  0  0  0  0  0
   38.1730   24.3680   35.4040 N   0  0  0  0  0  0  0  0  0  0  0  0
   37.9460   22.3010   35.1400 H   0  0  0  0  0  0  0  0  0  0  0  0
   37.6550   21.8900   37.5690 H   0  0  0  0  0  0  0  0  0  0  0  0
   37.7350   23.8580   39.1410 H   0  0  0  0  0  0  0  0  0  0  0  0
   38.6640   27.7630   36.4140 O   0  0  0  0  0  0  0  0  0  0  0  0
   37.9030   28.3160   36.6370 H   0  0  0  0  0  0  0  0  0  0  0  0
   40.8200   26.7900   33.8640 C   0  0  0  0  0  3  0  0  0  0  0  0
   41.9090   27.3130   33.2880 C   0  0  0  0  0  3  0  0  0  0  0  0
   43.3270   27.1260   33.6750 C   0  0  0  0  0  0  0  0  0  0  0  0
   43.4700   27.6810   34.6470 H   0  0  0  0  0  0  0  0  0  0  0  0
   44.0390   27.5550   32.9530 H   0  0  0  0  0  0  0  0  0  0  0  0
   43.6330   25.3950   34.0330 S   0  0  0  0  0  0  0  0  0  0  0  0
   43.7950   25.0460   35.7790 C   0  0  0  0  0  2  0  0  0  0  0  0
   43.4690   23.9830   35.9550 H   0  0  0  0  0  0  0  0  0  0  0  0
  1 11  1  0  0  0  0
  2  1  1  0  0  0  0
  2  7  1  0  0  0  0
  3  2  2  0  0  0  0
  4  5  2  0  0  0  0
  4  3  1  0  0  0  0
  5  6  1  0  0  0  0
  6 24  1  0  0  0  0
  6  1  2  0  0  0  0
  8  3  1  0  0  0  0
  9  4  1  0  0  0  0
 10  5  1  0  0  0  0
 11 12  1  6  0  0  0
 11 17  1  0  0  0  0
 11 22  1  0  0  0  0
 13 14  1  0  0  0  0
 14 20  1  0  0  0  0
 14 15  2  0  0  0  0
 15 21  1  0  0  0  0
 16 15  1  0  0  0  0
 17 16  2  0  0  0  0
 18 13  2  0  0  0  0
 18 17  1  0  0  0  0
 19 13  1  0  0  0  0
 22 23  1  0  0  0  0
 25 26  1  0  0  0  0
 25 24  2  0  0  0  0
 26 29  1  0  0  0  0
 26 27  1  0  0  0  0
 28 26  1  0  0  0  0
 29 30  1  0  0  0  0
 30 31  1  0  0  0  0
M  END
>  <minimizedAffinity>
-4.79261732

$$$$

 OpenBabel03272509443D

 31 32  0  0  1  0  0  0  0  0999 V2000
   40.0760   26.9670   34.1690 C   0  0  0  0  0  0  0  0  0  0  0  0
   41.4670   27.0680   34.1310 C   0  0  0  0  0  0  0  0  0  0  0  0
   42.1490   27.3160   32.9430 C   0  0  0  0  0  0  0  0  0  0  0  0
   41.4220   27.4670   31.7570 C   0  0  0  0  0  0  0  0  0  0  0  0
   40.0630   27.3650   31.8140 C   0  0  0  0  0  0  0  0  0  0  0  0
   39.4150   27.1150   33.0150 C   0  0  0  0  0  0  0  0  0  0  0  0
   42.0260   26.9510   35.0550 H   0  0  0  0  0  0  0  0  0  0  0  0
   43.2110   27.3790   32.9960 H   0  0  0  0  0  0  0  0  0  0  0  0
   42.0270   27.6570   30.8860 H   0  0  0  0  0  0  0  0  0  0  0  0
   39.6420   27.5020   30.8170 H   0  0  0  0  0  0  0  0  0  0  0  0
   39.3730   26.6720   35.4000 C   0  0  2  0  0  0  0  0  0  0  0  0
   40.2050   26.5340   36.1930 H   0  0  0  0  0  0  0  0  0  0  0  0
   39.2050   23.0420   35.4800 C   0  0  0  0  0  0  0  0  0  0  0  0
   38.2290   22.7750   36.4250 C   0  0  0  0  0  0  0  0  0  0  0  0
   37.5710   23.8440   37.0050 C   0  0  0  0  0  0  0  0  0  0  0  0
   37.9070   25.1250   36.6280 N   0  0  0  0  0  0  0  0  0  0  0  0
   38.8470   25.3160   35.7260 C   0  0  0  0  0  0  0  0  0  0  0  0
   39.4950   24.2880   35.1500 N   0  0  0  0  0  0  0  0  0  0  0  0
   39.7360   22.2100   35.0080 H   0  0  0  0  0  0  0  0  0  0  0  0
   37.9830   21.7580   36.7050 H   0  0  0  0  0  0  0  0  0  0  0  0
   36.7900   23.7160   37.7540 H   0  0  0  0  0  0  0  0  0  0  0  0
   38.8400   27.7150   35.9320 O   0  0  0  0  0  0  0  0  0  0  0  0
   38.0500   28.1580   35.5900 H   0  0  0  0  0  0  0  0  0  0  0  0
   37.9780   27.0060   32.9270 C   0  0  0  0  0  3  0  0  0  0  0  0
   37.2180   27.7790   32.1410 C   0  0  0  0  0  3  0  0  0  0  0  0
   35.7510   27.7230   31.9470 C   0  0  0  0  0  0  0  0  0  0  0  0
   35.3850   26.8230   32.5220 H   0  0  0  0  0  0  0  0  0  0  0  0
   35.4520   27.5780   30.8980 H   0  0  0  0  0  0  0  0  0  0  0  0
   34.9850   29.1550   32.7120 S   0  0  0  0  0  0  0  0  0  0  0  0
   35.6170   29.5130   34.3460 C   0  0  0  0  0  2  0  0  0  0  0  0
   35.5090   30.6180   34.5280 H   0  0  0  0  0  0  0  0  0  0  0  0
  1 11  1  0  0  0  0
  2  1  1  0  0  0  0
  2  7  1  0  0  0  0
  3  8  1  0  0  0  0
  3  2  2  0  0  0  0
  4  5  2  0  0  0  0
  4  3  1  0  0  0  0
  5  6  1  0  0  0  0
  6  1  2  0  0  0  0
  9  4  1  0  0  0  0
 10  5  1  0  0  0  0
 11 17  1  0  0  0  0
 11 22  1  0  0  0  0
 11 12  1  1  0  0  0
 13 14  1  0  0  0  0
 14 20  1  0  0  0  0
 14 15  2  0  0  0  0
 15 21  1  0  0  0  0
 16 15  1  0  0  0  0
 17 16  2  0  0  0  0
 18 13  2  0  0  0  0
 18 17  1  0  0  0  0
 19 13  1  0  0  0  0
 23 22  1  0  0  0  0
 24  6  1  0  0  0  0
 25 24  2  0  0  0  0
 26 25  1  0  0  0  0
 26 27  1  0  0  0  0
 26 29  1  0  0  0  0
 28 26  1  0  0  0  0
 29 30  1  0  0  0  0
 30 31  1  0  0  0  0
M  END
>  <minimizedAffinity>
-4.73373127

$$$$

 OpenBabel03272509443D

 31 32  0  0  1  0  0  0  0  0999 V2000
   38.2130   27.1150   34.2560 C   0  0  0  0  0  0  0  0  0  0  0  0
   36.9460   27.5990   33.9280 C   0  0  0  0  0  0  0  0  0  0  0  0
   36.6330   28.0070   32.6340 C   0  0  0  0  0  0  0  0  0  0  0  0
   37.6130   27.9300   31.6380 C   0  0  0  0  0  0  0  0  0  0  0  0
   38.8450   27.4550   31.9780 C   0  0  0  0  0  0  0  0  0  0  0  0
   39.1240   27.0580   33.2780 C   0  0  0  0  0  0  0  0  0  0  0  0
   36.1890   27.6560   34.7040 H   0  0  0  0  0  0  0  0  0  0  0  0
   35.6450   28.3650   32.4620 H   0  0  0  0  0  0  0  0  0  0  0  0
   37.2880   28.2650   30.6670 H   0  0  0  0  0  0  0  0  0  0  0  0
   39.4960   27.4580   31.1020 H   0  0  0  0  0  0  0  0  0  0  0  0
   38.5450   26.7270   35.6110 C   0  0  2  0  0  0  0  0  0  0  0  0
   39.6560   26.4030   35.5660 H   0  0  0  0  0  0  0  0  0  0  0  0
   38.0100   23.1340   35.7280 C   0  0  0  0  0  0  0  0  0  0  0  0
   37.8540   22.8640   37.0770 C   0  0  0  0  0  0  0  0  0  0  0  0
   37.8710   23.9260   37.9610 C   0  0  0  0  0  0  0  0  0  0  0  0
   38.0420   25.2020   37.4750 N   0  0  0  0  0  0  0  0  0  0  0  0
   38.1890   25.3970   36.1810 C   0  0  0  0  0  0  0  0  0  0  0  0
   38.1720   24.3750   35.3070 N   0  0  0  0  0  0  0  0  0  0  0  0
   37.9970   22.3070   35.0110 H   0  0  0  0  0  0  0  0  0  0  0  0
   37.7210   21.8500   37.4340 H   0  0  0  0  0  0  0  0  0  0  0  0
   37.7530   23.7960   39.0360 H   0  0  0  0  0  0  0  0  0  0  0  0
   38.7210   27.7350   36.3890 O   0  0  0  0  0  0  0  0  0  0  0  0
   38.0070   28.2940   36.7270 H   0  0  0  0  0  0  0  0  0  0  0  0
   40.4750   26.5990   33.5040 C   0  0  0  0  0  3  0  0  0  0  0  0
   41.5530   27.3880   33.4270 C   0  0  0  0  0  3  0  0  0  0  0  0
   42.9680   27.0300   33.6780 C   0  0  0  0  0  0  0  0  0  0  0  0
   43.0620   26.8500   34.7880 H   0  0  0  0  0  0  0  0  0  0  0  0
   43.6760   27.8330   33.4220 H   0  0  0  0  0  0  0  0  0  0  0  0
   43.3470   25.4680   32.8800 S   0  0  0  0  0  0  0  0  0  0  0  0
   43.3160   25.5540   31.0950 C   0  0  0  0  0  2  0  0  0  0  0  0
   44.0230   24.7750   30.6940 H   0  0  0  0  0  0  0  0  0  0  0  0
  1 11  1  0  0  0  0
  2  1  1  0  0  0  0
  2  7  1  0  0  0  0
  3  2  2  0  0  0  0
  4  5  2  0  0  0  0
  4  3  1  0  0  0  0
  5  6  1  0  0  0  0
  6 24  1  0  0  0  0
  6  1  2  0  0  0  0
  8  3  1  0  0  0  0
  9  4  1  0  0  0  0
 10  5  1  0  0  0  0
 11 12  1  6  0  0  0
 11 17  1  0  0  0  0
 11 22  1  0  0  0  0
 13 14  1  0  0  0  0
 14 20  1  0  0  0  0
 14 15  2  0  0  0  0
 15 21  1  0  0  0  0
 16 15  1  0  0  0  0
 17 16  2  0  0  0  0
 18 13  2  0  0  0  0
 18 17  1  0  0  0  0
 19 13  1  0  0  0  0
 22 23  1  0  0  0  0
 25 24  2  0  0  0  0
 25 26  1  0  0  0  0
 26 27  1  0  0  0  0
 28 26  1  0  0  0  0
 29 26  1  0  0  0  0
 30 29  1  0  0  0  0
 31 30  1  0  0  0  0
M  END
>  <minimizedAffinity>
-4.6617732

$$$$

 OpenBabel03272509443D

 31 32  0  0  1  0  0  0  0  0999 V2000
   38.5120   23.8360   35.6210 C   0  0  0  0  0  0  0  0  0  0  0  0
   38.6290   22.8560   36.6090 C   0  0  0  0  0  0  0  0  0  0  0  0
   38.4220   23.1480   37.9540 C   0  0  0  0  0  0  0  0  0  0  0  0
   38.0900   24.4560   38.3270 C   0  0  0  0  0  0  0  0  0  0  0  0
   37.9810   25.3990   37.3480 C   0  0  0  0  0  0  0  0  0  0  0  0
   38.1950   25.0740   36.0160 C   0  0  0  0  0  0  0  0  0  0  0  0
   38.8850   21.8430   36.3140 H   0  0  0  0  0  0  0  0  0  0  0  0
   38.5300   22.3470   38.6480 H   0  0  0  0  0  0  0  0  0  0  0  0
   37.9480   24.5940   39.3850 H   0  0  0  0  0  0  0  0  0  0  0  0
   37.7220   26.3620   37.7910 H   0  0  0  0  0  0  0  0  0  0  0  0
   38.7640   23.5360   34.2270 C   0  0  2  0  0  0  0  0  0  0  0  0
   38.7740   24.5650   33.6970 H   0  0  0  0  0  0  0  0  0  0  0  0
   36.1950   21.3730   32.8360 C   0  0  0  0  0  0  0  0  0  0  0  0
   35.5620   22.1690   31.8970 C   0  0  0  0  0  0  0  0  0  0  0  0
   36.0510   23.4450   31.6860 C   0  0  0  0  0  0  0  0  0  0  0  0
   37.1380   23.8760   32.4120 N   0  0  0  0  0  0  0  0  0  0  0  0
   37.6970   23.0740   33.2940 C   0  0  0  0  0  0  0  0  0  0  0  0
   37.2360   21.8290   33.5090 N   0  0  0  0  0  0  0  0  0  0  0  0
   35.8240   20.3590   33.0160 H   0  0  0  0  0  0  0  0  0  0  0  0
   34.7080   21.8070   31.3390 H   0  0  0  0  0  0  0  0  0  0  0  0
   35.6090   24.1310   30.9640 H   0  0  0  0  0  0  0  0  0  0  0  0
   39.9940   23.2430   33.9950 O   0  0  0  0  0  0  0  0  0  0  0  0
   40.4120   22.4080   34.2480 H   0  0  0  0  0  0  0  0  0  0  0  0
   38.0720   26.1740   35.0880 C   0  0  0  0  0  3  0  0  0  0  0  0
   36.9270   26.8260   34.8510 C   0  0  0  0  0  3  0  0  0  0  0  0
   36.7020   27.9850   33.9560 C   0  0  0  0  0  0  0  0  0  0  0  0
   37.2940   28.8430   34.3890 H   0  0  0  0  0  0  0  0  0  0  0  0
   35.6510   28.3090   33.9130 H   0  0  0  0  0  0  0  0  0  0  0  0
   37.4090   27.6480   32.3410 S   0  0  0  0  0  0  0  0  0  0  0  0
   36.1830   27.2960   31.0880 C   0  0  0  0  0  2  0  0  0  0  0  0
   36.6050   27.6040   30.0900 H   0  0  0  0  0  0  0  0  0  0  0  0
  1  6  2  0  0  0  0
  1  2  1  0  0  0  0
  2  3  2  0  0  0  0
  3  4  1  0  0  0  0
  3  8  1  0  0  0  0
  4  9  1  0  0  0  0
  5 10  1  0  0  0  0
  5  4  2  0  0  0  0
  6  5  1  0  0  0  0
  7  2  1  0  0  0  0
 11 12  1  6  0  0  0
 11  1  1  0  0  0  0
 13 19  1  0  0  0  0
 13 18  1  0  0  0  0
 14 13  2  0  0  0  0
 15 14  1  0  0  0  0
 15 16  2  0  0  0  0
 16 17  1  0  0  0  0
 17 18  2  0  0  0  0
 17 11  1  0  0  0  0
 20 14  1  0  0  0  0
 21 15  1  0  0  0  0
 22 11  1  0  0  0  0
 22 23  1  0  0  0  0
 24  6  1  0  0  0  0
 25 24  2  0  0  0  0
 26 27  1  0  0  0  0
 26 25  1  0  0  0  0
 28 26  1  0  0  0  0
 29 26  1  0  0  0  0
 30 29  1  0  0  0  0
 31 30  1  0  0  0  0
M  END
>  <minimizedAffinity>
-4.4509201

$$$$

 OpenBabel03272509443D

 31 32  0  0  1  0  0  0  0  0999 V2000
   39.8920   26.8330   34.3530 C   0  0  0  0  0  0  0  0  0  0  0  0
   39.2380   27.1590   35.5420 C   0  0  0  0  0  0  0  0  0  0  0  0
   37.8930   27.5190   35.5600 C   0  0  0  0  0  0  0  0  0  0  0  0
   37.1800   27.5560   34.3560 C   0  0  0  0  0  0  0  0  0  0  0  0
   37.8370   27.2360   33.2050 C   0  0  0  0  0  0  0  0  0  0  0  0
   39.1790   26.8820   33.2230 C   0  0  0  0  0  0  0  0  0  0  0  0
   39.7960   27.1270   36.4730 H   0  0  0  0  0  0  0  0  0  0  0  0
   37.4650   27.7540   36.5070 H   0  0  0  0  0  0  0  0  0  0  0  0
   36.1470   27.8440   34.4600 H   0  0  0  0  0  0  0  0  0  0  0  0
   37.1540   27.3130   32.3580 H   0  0  0  0  0  0  0  0  0  0  0  0
   41.3000   26.4950   34.3350 C   0  0  2  0  0  0  0  0  0  0  0  0
   41.4880   26.0540   33.2810 H   0  0  0  0  0  0  0  0  0  0  0  0
   43.6110   24.3320   36.1220 C   0  0  0  0  0  0  0  0  0  0  0  0
   42.8790   23.1790   36.3500 C   0  0  0  0  0  0  0  0  0  0  0  0
   41.5970   23.1070   35.8370 C   0  0  0  0  0  0  0  0  0  0  0  0
   41.0970   24.1750   35.1270 N   0  0  0  0  0  0  0  0  0  0  0  0
   41.8400   25.2470   34.9450 C   0  0  0  0  0  0  0  0  0  0  0  0
   43.0900   25.3320   35.4340 N   0  0  0  0  0  0  0  0  0  0  0  0
   44.6290   24.4080   36.5180 H   0  0  0  0  0  0  0  0  0  0  0  0
   43.2960   22.3530   36.9130 H   0  0  0  0  0  0  0  0  0  0  0  0
   40.9600   22.2340   35.9730 H   0  0  0  0  0  0  0  0  0  0  0  0
   42.0580   27.5250   34.1970 O   0  0  0  0  0  0  0  0  0  0  0  0
   42.2260   28.1750   34.8930 H   0  0  0  0  0  0  0  0  0  0  0  0
   39.7540   26.5920   31.9310 C   0  0  0  0  0  3  0  0  0  0  0  0
   39.5470   27.3360   30.8380 C   0  0  0  0  0  3  0  0  0  0  0  0
   40.1180   27.1500   29.4830 C   0  0  0  0  0  0  0  0  0  0  0  0
   40.9980   27.8520   29.4070 H   0  0  0  0  0  0  0  0  0  0  0  0
   39.4220   27.4190   28.6740 H   0  0  0  0  0  0  0  0  0  0  0  0
   40.7820   25.4900   29.3280 S   0  0  0  0  0  0  0  0  0  0  0  0
   39.6150   24.3170   28.6490 C   0  0  0  0  0  2  0  0  0  0  0  0
   40.1970   23.5130   28.1190 H   0  0  0  0  0  0  0  0  0  0  0  0
  1  2  1  0  0  0  0
  2  3  2  0  0  0  0
  2  7  1  0  0  0  0
  3  8  1  0  0  0  0
  4  9  1  0  0  0  0
  4  3  1  0  0  0  0
  5  6  1  0  0  0  0
  5  4  2  0  0  0  0
  6  1  2  0  0  0  0
 10  5  1  0  0  0  0
 11 12  1  6  0  0  0
 11  1  1  0  0  0  0
 11 17  1  0  0  0  0
 13 14  1  0  0  0  0
 13 19  1  0  0  0  0
 14 20  1  0  0  0  0
 15 21  1  0  0  0  0
 15 14  2  0  0  0  0
 16 15  1  0  0  0  0
 17 16  2  0  0  0  0
 17 18  1  0  0  0  0
 18 13  2  0  0  0  0
 22 11  1  0  0  0  0
 22 23  1  0  0  0  0
 24  6  1  0  0  0  0
 25 24  2  0  0  0  0
 26 25  1  0  0  0  0
 27 26  1  0  0  0  0
 28 26  1  0  0  0  0
 29 26  1  0  0  0  0
 30 29  1  0  0  0  0
 31 30  1  0  0  0  0
M  END
>  <minimizedAffinity>
-4.43024635

$$$$

 OpenBabel03272509443D

 31 32  0  0  1  0  0  0  0  0999 V2000
   35.7180   29.3790   32.9850 C   0  0  0  0  0  0  0  0  0  0  0  0
   35.6150   29.9640   31.7220 C   0  0  0  0  0  0  0  0  0  0  0  0
   36.3610   29.5030   30.6410 C   0  0  0  0  0  0  0  0  0  0  0  0
   37.2380   28.4280   30.8250 C   0  0  0  0  0  0  0  0  0  0  0  0
   37.3260   27.8700   32.0660 C   0  0  0  0  0  0  0  0  0  0  0  0
   36.5680   28.3550   33.1220 C   0  0  0  0  0  0  0  0  0  0  0  0
   34.9320   30.7970   31.5850 H   0  0  0  0  0  0  0  0  0  0  0  0
   36.2270   30.0020   29.7090 H   0  0  0  0  0  0  0  0  0  0  0  0
   37.7760   28.1360   29.9380 H   0  0  0  0  0  0  0  0  0  0  0  0
   38.0470   27.0510   32.0510 H   0  0  0  0  0  0  0  0  0  0  0  0
   34.9670   29.8850   34.1150 C   0  0  2  0  0  0  0  0  0  0  0  0
   35.2240   29.1710   34.9880 H   0  0  0  0  0  0  0  0  0  0  0  0
   31.7130   29.8960   35.7350 C   0  0  0  0  0  0  0  0  0  0  0  0
   30.8520   29.4320   34.7550 C   0  0  0  0  0  0  0  0  0  0  0  0
   31.3900   29.0500   33.5400 C   0  0  0  0  0  0  0  0  0  0  0  0
   32.7500   29.1470   33.3470 N   0  0  0  0  0  0  0  0  0  0  0  0
   33.5180   29.5990   34.3160 C   0  0  0  0  0  0  0  0  0  0  0  0
   33.0120   29.9710   35.5050 N   0  0  0  0  0  0  0  0  0  0  0  0
   31.3070   30.2010   36.7040 H   0  0  0  0  0  0  0  0  0  0  0  0
   29.7860   29.3660   34.9310 H   0  0  0  0  0  0  0  0  0  0  0  0
   30.7790   28.6740   32.7200 H   0  0  0  0  0  0  0  0  0  0  0  0
   35.4940   30.9390   34.6310 O   0  0  0  0  0  0  0  0  0  0  0  0
   35.4680   31.8160   34.2240 H   0  0  0  0  0  0  0  0  0  0  0  0
   36.7780   27.6880   34.3860 C   0  0  0  0  0  3  0  0  0  0  0  0
   37.9840   27.4720   34.9240 C   0  0  0  0  0  3  0  0  0  0  0  0
   38.3060   26.8380   36.2230 C   0  0  0  0  0  0  0  0  0  0  0  0
   37.3880   26.9500   36.8710 H   0  0  0  0  0  0  0  0  0  0  0  0
   39.1360   27.3270   36.7560 H   0  0  0  0  0  0  0  0  0  0  0  0
   38.5490   25.0750   35.9930 S   0  0  0  0  0  0  0  0  0  0  0  0
   37.4880   24.0700   37.0230 C   0  0  0  0  0  2  0  0  0  0  0  0
   37.3130   23.0920   36.4950 H   0  0  0  0  0  0  0  0  0  0  0  0
  1  6  1  0  0  0  0
  1 11  1  0  0  0  0
  2  1  2  0  0  0  0
  3  4  2  0  0  0  0
  3  2  1  0  0  0  0
  4  5  1  0  0  0  0
  5  6  2  0  0  0  0
  6 24  1  0  0  0  0
  7  2  1  0  0  0  0
  8  3  1  0  0  0  0
  9  4  1  0  0  0  0
 10  5  1  0  0  0  0
 11 17  1  0  0  0  0
 11 22  1  0  0  0  0
 11 12  1  1  0  0  0
 13 19  1  0  0  0  0
 14 20  1  0  0  0  0
 14 13  2  0  0  0  0
 15 14  1  0  0  0  0
 16 15  2  0  0  0  0
 16 17  1  0  0  0  0
 17 18  2  0  0  0  0
 18 13  1  0  0  0  0
 21 15  1  0  0  0  0
 23 22  1  0  0  0  0
 24 25  2  0  0  0  0
 25 26  1  0  0  0  0
 26 28  1  0  0  0  0
 26 27  1  0  0  0  0
 29 26  1  0  0  0  0
 29 30  1  0  0  0  0
 31 30  1  0  0  0  0
M  END
>  <minimizedAffinity>
-4.42771864

$$$$
