
 OpenBabel03272510113D

 28 30  0  0  0  0  0  0  0  0999 V2000
   34.0630   28.8240   48.3080 C   0  0  0  0  0  0  0  0  0  0  0  0
   34.6640   28.3820   49.4310 C   0  0  0  0  0  0  0  0  0  0  0  0
   35.9010   28.8000   49.8760 C   0  0  0  0  0  0  0  0  0  0  0  0
   36.6030   29.7240   49.1610 C   0  0  0  0  0  0  0  0  0  0  0  0
   35.9880   30.1860   47.9970 C   0  0  0  0  0  0  0  0  0  0  0  0
   34.7820   29.7440   47.6130 N   0  0  0  0  0  0  0  0  0  0  0  0
   34.1770   27.6460   50.0600 H   0  0  0  0  0  0  0  0  0  0  0  0
   36.3780   28.4360   50.7850 H   0  0  0  0  0  0  0  0  0  0  0  0
   36.5110   30.9260   47.3920 H   0  0  0  0  0  0  0  0  0  0  0  0
   31.9280   27.5230   48.5610 C   0  0  0  0  0  0  0  0  0  0  0  0
   32.7780   28.3940   47.8390 C   0  0  0  0  0  0  0  0  0  0  0  0
   32.3010   28.8350   46.6120 C   0  0  0  0  0  0  0  0  0  0  0  0
   31.0810   28.4210   46.1760 N   0  0  0  0  0  0  0  0  0  0  0  0
   30.3120   27.5790   46.9230 C   0  0  0  0  0  0  0  0  0  0  0  0
   30.7340   27.1250   48.1230 N   0  0  0  0  0  0  0  0  0  0  0  0
   32.2680   27.1630   49.5160 H   0  0  0  0  0  0  0  0  0  0  0  0
   32.9340   29.4950   46.0530 H   0  0  0  0  0  0  0  0  0  0  0  0
   29.3940   27.4010   46.3620 H   0  0  0  0  0  0  0  0  0  0  0  0
   37.8600   30.2500   49.4690 O   0  0  0  0  0  0  0  0  0  0  0  0
   38.4070   31.2960   48.7280 C   0  0  0  0  0  0  0  0  0  0  0  0
   38.4200   32.5210   49.3880 C   0  0  0  0  0  0  0  0  0  0  0  0
   38.9900   33.4560   48.5280 C   0  0  0  0  0  0  0  0  0  0  0  0
   39.2950   32.7870   47.4070 N   0  0  0  0  0  0  0  0  0  0  0  0
   38.9550   31.5270   47.5230 N   0  0  0  0  0  0  0  0  0  0  0  0
   38.1010   32.8850   50.3710 H   0  0  0  0  0  0  0  0  0  0  0  0
   39.2120   34.5080   48.5820 H   0  0  0  0  0  0  0  0  0  0  0  0
   39.9020   33.1650   46.1450 C   0  0  0  0  0  2  0  0  0  0  0  0
   39.2170   32.9270   45.2820 H   0  0  0  0  0  0  0  0  0  0  0  0
  1  2  1  0  0  0  0
  2  3  2  0  0  0  0
  2  7  1  0  0  0  0
  3  8  1  0  0  0  0
  4 19  1  0  0  0  0
  4  3  1  0  0  0  0
  5  4  2  0  0  0  0
  6  5  1  0  0  0  0
  6  1  2  0  0  0  0
  9  5  1  0  0  0  0
 10 16  1  0  0  0  0
 11  1  1  0  0  0  0
 11 10  2  0  0  0  0
 12 11  1  0  0  0  0
 13 12  2  0  0  0  0
 13 14  1  0  0  0  0
 14 15  2  0  0  0  0
 15 10  1  0  0  0  0
 17 12  1  0  0  0  0
 18 14  1  0  0  0  0
 20 21  1  0  0  0  0
 20 19  1  0  0  0  0
 21 25  1  0  0  0  0
 22 26  1  0  0  0  0
 22 21  2  0  0  0  0
 23 24  1  0  0  0  0
 23 22  1  0  0  0  0
 24 20  2  0  0  0  0
 27 23  1  0  0  0  0
 28 27  1  0  0  0  0
M  END
>  <minimizedAffinity>
-5.37930155

>  <minimizedRMSD>
0.489871025

$$$$
