
 OpenBabel03272502303D

 17 17  0  0  0  0  0  0  0  0999 V2000
   38.7400   23.3960   38.4530 C   0  0  0  0  0  0  0  0  0  0  0  0
   38.0490   24.3420   37.7030 C   0  0  0  0  0  0  0  0  0  0  0  0
   38.4480   24.6260   36.4010 C   0  0  0  0  0  0  0  0  0  0  0  0
   39.5160   23.9630   35.8870 N   0  0  0  0  0  0  0  0  0  0  0  0
   40.1640   23.0470   36.6470 C   0  0  0  0  0  0  0  0  0  0  0  0
   39.7970   22.7580   37.9040 N   0  0  0  0  0  0  0  0  0  0  0  0
   38.4170   23.1900   39.4580 H   0  0  0  0  0  0  0  0  0  0  0  0
   37.2010   24.8500   38.1520 H   0  0  0  0  0  0  0  0  0  0  0  0
   41.0220   22.5080   36.2490 H   0  0  0  0  0  0  0  0  0  0  0  0
   37.7290   25.6050   35.6380 C   0  0  0  0  0  3  0  0  0  0  0  0
   38.0130   26.8810   35.6950 C   0  0  0  0  0  3  0  0  0  0  0  0
   37.1980   27.8270   34.8500 C   0  0  0  0  0  0  0  0  0  0  0  0
   37.8500   28.7370   34.7620 H   0  0  0  0  0  0  0  0  0  0  0  0
   36.2390   28.0770   35.3110 H   0  0  0  0  0  0  0  0  0  0  0  0
   37.0440   27.1360   33.1720 S   0  0  0  0  0  0  0  0  0  0  0  0
   38.5940   27.2590   32.2640 C   0  0  0  0  0  2  0  0  0  0  0  0
   38.4380   27.4630   31.1860 H   0  0  0  0  0  0  0  0  0  0  0  0
  1  7  1  0  0  0  0
  2  8  1  0  0  0  0
  2  1  2  0  0  0  0
  3  2  1  0  0  0  0
  4  3  2  0  0  0  0
  4  5  1  0  0  0  0
  5  6  2  0  0  0  0
  6  1  1  0  0  0  0
  9  5  1  0  0  0  0
 10 11  2  0  0  0  0
 10  3  1  0  0  0  0
 12 14  1  0  0  0  0
 12 11  1  0  0  0  0
 13 12  1  0  0  0  0
 15 12  1  0  0  0  0
 16 15  1  0  0  0  0
 17 16  1  0  0  0  0
M  END
>  <minimizedAffinity>
-3.40883398

$$$$

 OpenBabel03272502303D

 17 17  0  0  0  0  0  0  0  0999 V2000
   40.2360   23.0490   36.6220 C   0  0  0  0  0  0  0  0  0  0  0  0
   39.5070   23.9590   35.8640 C   0  0  0  0  0  0  0  0  0  0  0  0
   38.3840   24.5750   36.4060 C   0  0  0  0  0  0  0  0  0  0  0  0
   38.0230   24.2700   37.6790 N   0  0  0  0  0  0  0  0  0  0  0  0
   38.7580   23.3790   38.3880 C   0  0  0  0  0  0  0  0  0  0  0  0
   39.8440   22.7730   37.8850 N   0  0  0  0  0  0  0  0  0  0  0  0
   41.1020   22.5820   36.1860 H   0  0  0  0  0  0  0  0  0  0  0  0
   39.8290   24.1750   34.8500 H   0  0  0  0  0  0  0  0  0  0  0  0
   38.4820   23.1230   39.4090 H   0  0  0  0  0  0  0  0  0  0  0  0
   37.6380   25.5110   35.6150 C   0  0  0  0  0  3  0  0  0  0  0  0
   37.9780   26.7700   35.5200 C   0  0  0  0  0  3  0  0  0  0  0  0
   37.1280   27.6710   34.6600 C   0  0  0  0  0  0  0  0  0  0  0  0
   37.4600   28.7050   34.9450 H   0  0  0  0  0  0  0  0  0  0  0  0
   36.0590   27.5390   34.8480 H   0  0  0  0  0  0  0  0  0  0  0  0
   37.5970   27.4380   32.9160 S   0  0  0  0  0  0  0  0  0  0  0  0
   36.2880   26.6240   31.9850 C   0  0  0  0  0  2  0  0  0  0  0  0
   36.6840   25.9340   31.2130 H   0  0  0  0  0  0  0  0  0  0  0  0
  1  6  1  0  0  0  0
  2  3  1  0  0  0  0
  2  1  2  0  0  0  0
  3  4  2  0  0  0  0
  4  5  1  0  0  0  0
  5  9  1  0  0  0  0
  6  5  2  0  0  0  0
  7  1  1  0  0  0  0
  8  2  1  0  0  0  0
 10  3  1  0  0  0  0
 11 10  2  0  0  0  0
 12 14  1  0  0  0  0
 12 13  1  0  0  0  0
 12 11  1  0  0  0  0
 15 12  1  0  0  0  0
 16 15  1  0  0  0  0
 17 16  1  0  0  0  0
M  END
>  <minimizedAffinity>
-3.26360965

$$$$

 OpenBabel03272502303D

 17 17  0  0  0  0  0  0  0  0999 V2000
   40.1150   22.6280   37.6010 C   0  0  0  0  0  0  0  0  0  0  0  0
   39.8190   22.2290   36.3020 C   0  0  0  0  0  0  0  0  0  0  0  0
   38.5440   22.4340   35.7850 C   0  0  0  0  0  0  0  0  0  0  0  0
   37.6080   23.0270   36.5710 N   0  0  0  0  0  0  0  0  0  0  0  0
   37.9340   23.4020   37.8320 C   0  0  0  0  0  0  0  0  0  0  0  0
   39.1560   23.2140   38.3510 N   0  0  0  0  0  0  0  0  0  0  0  0
   41.1070   22.4600   37.9840 H   0  0  0  0  0  0  0  0  0  0  0  0
   40.5950   21.7590   35.7070 H   0  0  0  0  0  0  0  0  0  0  0  0
   37.1950   23.8780   38.4750 H   0  0  0  0  0  0  0  0  0  0  0  0
   38.2470   22.0190   34.4440 C   0  0  0  0  0  3  0  0  0  0  0  0
   37.0800   21.5340   34.1070 C   0  0  0  0  0  3  0  0  0  0  0  0
   36.8710   21.1280   32.6700 C   0  0  0  0  0  0  0  0  0  0  0  0
   37.6240   20.3100   32.5090 H   0  0  0  0  0  0  0  0  0  0  0  0
   37.0380   21.9550   31.9740 H   0  0  0  0  0  0  0  0  0  0  0  0
   35.2280   20.3580   32.5080 S   0  0  0  0  0  0  0  0  0  0  0  0
   35.3190   18.5670   32.6790 C   0  0  0  0  0  2  0  0  0  0  0  0
   34.6010   18.0420   32.0200 H   0  0  0  0  0  0  0  0  0  0  0  0
  1  7  1  0  0  0  0
  1  6  1  0  0  0  0
  2  1  2  0  0  0  0
  3  2  1  0  0  0  0
  3  4  2  0  0  0  0
  4  5  1  0  0  0  0
  5  6  2  0  0  0  0
  5  9  1  0  0  0  0
  8  2  1  0  0  0  0
 10  3  1  0  0  0  0
 11 10  2  0  0  0  0
 12 11  1  0  0  0  0
 13 12  1  0  0  0  0
 14 12  1  0  0  0  0
 15 12  1  0  0  0  0
 15 16  1  0  0  0  0
 17 16  1  0  0  0  0
M  END
>  <minimizedAffinity>
-3.23399568

$$$$

 OpenBabel03272502303D

 17 17  0  0  0  0  0  0  0  0999 V2000
   38.2660   23.8240   38.3130 C   0  0  0  0  0  0  0  0  0  0  0  0
   37.8490   24.5270   37.1870 C   0  0  0  0  0  0  0  0  0  0  0  0
   38.5360   24.3880   35.9860 C   0  0  0  0  0  0  0  0  0  0  0  0
   39.6110   23.5580   35.9400 N   0  0  0  0  0  0  0  0  0  0  0  0
   39.9870   22.8890   37.0570 C   0  0  0  0  0  0  0  0  0  0  0  0
   39.3400   23.0080   38.2250 N   0  0  0  0  0  0  0  0  0  0  0  0
   37.7230   23.9440   39.2340 H   0  0  0  0  0  0  0  0  0  0  0  0
   36.9870   25.1800   37.2660 H   0  0  0  0  0  0  0  0  0  0  0  0
   40.8460   22.2200   37.0370 H   0  0  0  0  0  0  0  0  0  0  0  0
   38.0990   25.1190   34.8310 C   0  0  0  0  0  3  0  0  0  0  0  0
   37.4560   26.2540   34.9270 C   0  0  0  0  0  3  0  0  0  0  0  0
   37.0420   26.9440   33.6520 C   0  0  0  0  0  0  0  0  0  0  0  0
   37.8260   27.7350   33.5090 H   0  0  0  0  0  0  0  0  0  0  0  0
   36.0460   27.3880   33.7220 H   0  0  0  0  0  0  0  0  0  0  0  0
   37.2250   25.7780   32.2650 S   0  0  0  0  0  0  0  0  0  0  0  0
   35.7020   25.6390   31.3140 C   0  0  0  0  0  2  0  0  0  0  0  0
   35.5310   24.6120   30.9360 H   0  0  0  0  0  0  0  0  0  0  0  0
  1  7  1  0  0  0  0
  2  8  1  0  0  0  0
  2  1  2  0  0  0  0
  3  2  1  0  0  0  0
  4  3  2  0  0  0  0
  4  5  1  0  0  0  0
  5  6  2  0  0  0  0
  6  1  1  0  0  0  0
  9  5  1  0  0  0  0
 10 11  2  0  0  0  0
 10  3  1  0  0  0  0
 12 14  1  0  0  0  0
 12 11  1  0  0  0  0
 13 12  1  0  0  0  0
 15 12  1  0  0  0  0
 16 15  1  0  0  0  0
 17 16  1  0  0  0  0
M  END
>  <minimizedAffinity>
-3.17091179

$$$$

 OpenBabel03272502303D

 17 17  0  0  0  0  0  0  0  0999 V2000
   38.0130   23.5170   38.1390 C   0  0  0  0  0  0  0  0  0  0  0  0
   37.5410   23.1190   36.8920 C   0  0  0  0  0  0  0  0  0  0  0  0
   38.3840   22.4530   36.0090 C   0  0  0  0  0  0  0  0  0  0  0  0
   39.6630   22.2040   36.3900 N   0  0  0  0  0  0  0  0  0  0  0  0
   40.0880   22.6060   37.6130 C   0  0  0  0  0  0  0  0  0  0  0  0
   39.2930   23.2490   38.4800 N   0  0  0  0  0  0  0  0  0  0  0  0
   37.3470   24.0310   38.8090 H   0  0  0  0  0  0  0  0  0  0  0  0
   36.5120   23.3380   36.6260 H   0  0  0  0  0  0  0  0  0  0  0  0
   41.1110   22.4140   37.9330 H   0  0  0  0  0  0  0  0  0  0  0  0
   37.8880   22.0480   34.7250 C   0  0  0  0  0  3  0  0  0  0  0  0
   38.6830   21.8010   33.7160 C   0  0  0  0  0  3  0  0  0  0  0  0
   38.0600   21.3800   32.4090 C   0  0  0  0  0  0  0  0  0  0  0  0
   38.2250   20.2700   32.3790 H   0  0  0  0  0  0  0  0  0  0  0  0
   38.5260   21.8680   31.5490 H   0  0  0  0  0  0  0  0  0  0  0  0
   36.2590   21.6340   32.5050 S   0  0  0  0  0  0  0  0  0  0  0  0
   35.7360   23.0360   31.5040 C   0  0  0  0  0  2  0  0  0  0  0  0
   34.9000   23.5980   31.9670 H   0  0  0  0  0  0  0  0  0  0  0  0
  1  6  1  0  0  0  0
  1  7  1  0  0  0  0
  2  1  2  0  0  0  0
  3  4  2  0  0  0  0
  3  2  1  0  0  0  0
  4  5  1  0  0  0  0
  5  9  1  0  0  0  0
  5  6  2  0  0  0  0
  8  2  1  0  0  0  0
 10  3  1  0  0  0  0
 11 10  2  0  0  0  0
 12 15  1  0  0  0  0
 12 11  1  0  0  0  0
 13 12  1  0  0  0  0
 14 12  1  0  0  0  0
 16 17  1  0  0  0  0
 16 15  1  0  0  0  0
M  END
>  <minimizedAffinity>
-3.09750676

$$$$

 OpenBabel03272502303D

 17 17  0  0  0  0  0  0  0  0999 V2000
   39.9220   22.8270   37.8860 C   0  0  0  0  0  0  0  0  0  0  0  0
   39.6650   22.6420   36.5310 C   0  0  0  0  0  0  0  0  0  0  0  0
   38.4410   23.0290   35.9960 C   0  0  0  0  0  0  0  0  0  0  0  0
   37.5150   23.5850   36.8190 N   0  0  0  0  0  0  0  0  0  0  0  0
   37.8010   23.7510   38.1340 C   0  0  0  0  0  0  0  0  0  0  0  0
   38.9740   23.3850   38.6710 N   0  0  0  0  0  0  0  0  0  0  0  0
   40.8740   22.5210   38.2820 H   0  0  0  0  0  0  0  0  0  0  0  0
   40.4310   22.1930   35.9080 H   0  0  0  0  0  0  0  0  0  0  0  0
   37.0700   24.1950   38.8070 H   0  0  0  0  0  0  0  0  0  0  0  0
   38.1850   22.8320   34.5980 C   0  0  0  0  0  3  0  0  0  0  0  0
   37.3970   21.8840   34.1600 C   0  0  0  0  0  3  0  0  0  0  0  0
   37.1930   21.7640   32.6710 C   0  0  0  0  0  0  0  0  0  0  0  0
   36.1520   21.3540   32.5750 H   0  0  0  0  0  0  0  0  0  0  0  0
   37.9200   21.0950   32.2030 H   0  0  0  0  0  0  0  0  0  0  0  0
   37.1620   23.4330   31.9430 S   0  0  0  0  0  0  0  0  0  0  0  0
   35.5260   23.8490   31.3170 C   0  0  0  0  0  2  0  0  0  0  0  0
   35.5690   24.4610   30.3940 H   0  0  0  0  0  0  0  0  0  0  0  0
  1  7  1  0  0  0  0
  1  6  1  0  0  0  0
  2  1  2  0  0  0  0
  3  2  1  0  0  0  0
  3  4  2  0  0  0  0
  4  5  1  0  0  0  0
  5  6  2  0  0  0  0
  5  9  1  0  0  0  0
  8  2  1  0  0  0  0
 10  3  1  0  0  0  0
 11 10  2  0  0  0  0
 12 11  1  0  0  0  0
 13 12  1  0  0  0  0
 14 12  1  0  0  0  0
 15 12  1  0  0  0  0
 16 15  1  0  0  0  0
 17 16  1  0  0  0  0
M  END
>  <minimizedAffinity>
-3.09569764

$$$$

 OpenBabel03272502303D

 17 17  0  0  0  0  0  0  0  0999 V2000
   35.5660   26.1670   31.1970 C   0  0  0  0  0  0  0  0  0  0  0  0
   35.1550   24.8550   30.9850 C   0  0  0  0  0  0  0  0  0  0  0  0
   35.8510   23.8040   31.5720 C   0  0  0  0  0  0  0  0  0  0  0  0
   36.9290   24.0880   32.3480 N   0  0  0  0  0  0  0  0  0  0  0  0
   37.3000   25.3790   32.5320 C   0  0  0  0  0  0  0  0  0  0  0  0
   36.6440   26.4070   31.9750 N   0  0  0  0  0  0  0  0  0  0  0  0
   35.0150   26.9670   30.7340 H   0  0  0  0  0  0  0  0  0  0  0  0
   34.2880   24.6710   30.3580 H   0  0  0  0  0  0  0  0  0  0  0  0
   38.1620   25.6220   33.1500 H   0  0  0  0  0  0  0  0  0  0  0  0
   35.4200   22.4550   31.3460 C   0  0  0  0  0  3  0  0  0  0  0  0
   35.4070   21.5580   32.2990 C   0  0  0  0  0  3  0  0  0  0  0  0
   34.9330   20.1680   31.9570 C   0  0  0  0  0  0  0  0  0  0  0  0
   34.2220   20.3290   31.1040 H   0  0  0  0  0  0  0  0  0  0  0  0
   34.4310   19.6800   32.7970 H   0  0  0  0  0  0  0  0  0  0  0  0
   36.3340   19.2150   31.2900 S   0  0  0  0  0  0  0  0  0  0  0  0
   37.9100   19.8610   31.8750 C   0  0  0  0  0  2  0  0  0  0  0  0
   38.7060   19.7930   31.1080 H   0  0  0  0  0  0  0  0  0  0  0  0
  1  6  1  0  0  0  0
  2  1  2  0  0  0  0
  2  3  1  0  0  0  0
  3  4  2  0  0  0  0
  4  5  1  0  0  0  0
  5  9  1  0  0  0  0
  6  5  2  0  0  0  0
  7  1  1  0  0  0  0
  8  2  1  0  0  0  0
 10  3  1  0  0  0  0
 10 11  2  0  0  0  0
 12 11  1  0  0  0  0
 12 14  1  0  0  0  0
 13 12  1  0  0  0  0
 15 16  1  0  0  0  0
 15 12  1  0  0  0  0
 17 16  1  0  0  0  0
M  END
>  <minimizedAffinity>
-3.07704425

$$$$

 OpenBabel03272502303D

 17 17  0  0  0  0  0  0  0  0999 V2000
   38.2610   24.1540   36.0270 C   0  0  0  0  0  0  0  0  0  0  0  0
   39.4530   23.4370   36.0140 C   0  0  0  0  0  0  0  0  0  0  0  0
   39.9500   22.8910   37.1930 C   0  0  0  0  0  0  0  0  0  0  0  0
   39.2500   23.0730   38.3420 N   0  0  0  0  0  0  0  0  0  0  0  0
   38.0920   23.7770   38.3160 C   0  0  0  0  0  0  0  0  0  0  0  0
   37.5950   24.3130   37.1920 N   0  0  0  0  0  0  0  0  0  0  0  0
   37.8930   24.5700   35.1060 H   0  0  0  0  0  0  0  0  0  0  0  0
   39.9820   23.3150   35.0750 H   0  0  0  0  0  0  0  0  0  0  0  0
   37.5190   23.9320   39.2290 H   0  0  0  0  0  0  0  0  0  0  0  0
   41.1810   22.1550   37.1690 C   0  0  0  0  0  3  0  0  0  0  0  0
   42.1660   22.4680   36.3670 C   0  0  0  0  0  3  0  0  0  0  0  0
   43.4180   21.6310   36.4220 C   0  0  0  0  0  0  0  0  0  0  0  0
   43.9810   22.0470   37.3000 H   0  0  0  0  0  0  0  0  0  0  0  0
   44.0110   21.7060   35.5070 H   0  0  0  0  0  0  0  0  0  0  0  0
   42.9660   19.9220   36.8600 S   0  0  0  0  0  0  0  0  0  0  0  0
   43.3470   18.7760   35.5240 C   0  0  0  0  0  2  0  0  0  0  0  0
   42.6010   17.9620   35.4390 H   0  0  0  0  0  0  0  0  0  0  0  0
  1  6  1  0  0  0  0
  2  1  2  0  0  0  0
  2  3  1  0  0  0  0
  3  4  2  0  0  0  0
  5  4  1  0  0  0  0
  5  9  1  0  0  0  0
  6  5  2  0  0  0  0
  7  1  1  0  0  0  0
  8  2  1  0  0  0  0
 10  3  1  0  0  0  0
 11 12  1  0  0  0  0
 11 10  2  0  0  0  0
 12 15  1  0  0  0  0
 12 13  1  0  0  0  0
 14 12  1  0  0  0  0
 16 15  1  0  0  0  0
 17 16  1  0  0  0  0
M  END
>  <minimizedAffinity>
-3.0102973

$$$$

 OpenBabel03272502303D

 17 17  0  0  0  0  0  0  0  0999 V2000
   38.1440   23.9580   38.4060 C   0  0  0  0  0  0  0  0  0  0  0  0
   37.7960   24.4500   37.1510 C   0  0  0  0  0  0  0  0  0  0  0  0
   38.5400   24.0910   36.0320 C   0  0  0  0  0  0  0  0  0  0  0  0
   39.6020   23.2590   36.1940 N   0  0  0  0  0  0  0  0  0  0  0  0
   39.9100   22.7990   37.4310 C   0  0  0  0  0  0  0  0  0  0  0  0
   39.2070   23.1330   38.5230 N   0  0  0  0  0  0  0  0  0  0  0  0
   37.5570   24.2470   39.2600 H   0  0  0  0  0  0  0  0  0  0  0  0
   36.9410   25.1120   37.0660 H   0  0  0  0  0  0  0  0  0  0  0  0
   40.7580   22.1320   37.5770 H   0  0  0  0  0  0  0  0  0  0  0  0
   38.1740   24.6050   34.7440 C   0  0  0  0  0  3  0  0  0  0  0  0
   38.0890   23.8390   33.6870 C   0  0  0  0  0  3  0  0  0  0  0  0
   37.6940   24.4770   32.3790 C   0  0  0  0  0  0  0  0  0  0  0  0
   36.7920   23.8920   32.0560 H   0  0  0  0  0  0  0  0  0  0  0  0
   38.4880   24.4170   31.6300 H   0  0  0  0  0  0  0  0  0  0  0  0
   37.1210   26.1750   32.7010 S   0  0  0  0  0  0  0  0  0  0  0  0
   38.3210   27.3950   32.1400 C   0  0  0  0  0  2  0  0  0  0  0  0
   38.3670   28.2800   32.8030 H   0  0  0  0  0  0  0  0  0  0  0  0
  1  6  1  0  0  0  0
  1  7  1  0  0  0  0
  2  1  2  0  0  0  0
  3  4  2  0  0  0  0
  3  2  1  0  0  0  0
  4  5  1  0  0  0  0
  5  9  1  0  0  0  0
  5  6  2  0  0  0  0
  8  2  1  0  0  0  0
 10  3  1  0  0  0  0
 11 10  2  0  0  0  0
 12 15  1  0  0  0  0
 12 11  1  0  0  0  0
 13 12  1  0  0  0  0
 14 12  1  0  0  0  0
 16 15  1  0  0  0  0
 16 17  1  0  0  0  0
M  END
>  <minimizedAffinity>
-3.00680614

$$$$
