
 OpenBabel03272509413D

 31 32  0  0  1  0  0  0  0  0999 V2000
   37.0910   30.9470   49.0430 C   0  0  0  0  0  0  0  0  0  0  0  0
   36.8120   31.8580   50.0630 C   0  0  0  0  0  0  0  0  0  0  0  0
   37.4090   33.1150   50.1020 C   0  0  0  0  0  0  0  0  0  0  0  0
   38.3120   33.4750   49.0950 C   0  0  0  0  0  0  0  0  0  0  0  0
   38.5710   32.5710   48.1070 C   0  0  0  0  0  0  0  0  0  0  0  0
   37.9600   31.3260   48.0990 C   0  0  0  0  0  0  0  0  0  0  0  0
   36.1110   31.5740   50.8420 H   0  0  0  0  0  0  0  0  0  0  0  0
   37.1460   33.7530   50.9130 H   0  0  0  0  0  0  0  0  0  0  0  0
   38.7260   34.4630   49.2020 H   0  0  0  0  0  0  0  0  0  0  0  0
   39.2910   32.9930   47.4030 H   0  0  0  0  0  0  0  0  0  0  0  0
   36.4960   29.6270   49.0260 C   0  0  2  0  0  0  0  0  0  0  0  0
   37.0010   29.0830   48.1380 H   0  0  0  0  0  0  0  0  0  0  0  0
   33.6280   30.0320   46.8310 C   0  0  0  0  0  0  0  0  0  0  0  0
   32.8990   28.8690   47.0170 C   0  0  0  0  0  0  0  0  0  0  0  0
   33.3550   27.9550   47.9490 C   0  0  0  0  0  0  0  0  0  0  0  0
   34.5080   28.2280   48.6500 N   0  0  0  0  0  0  0  0  0  0  0  0
   35.1600   29.3500   48.4270 C   0  0  0  0  0  0  0  0  0  0  0  0
   34.7290   30.2520   47.5270 N   0  0  0  0  0  0  0  0  0  0  0  0
   33.2820   30.7690   46.1000 H   0  0  0  0  0  0  0  0  0  0  0  0
   31.9950   28.6780   46.4520 H   0  0  0  0  0  0  0  0  0  0  0  0
   32.8370   27.0190   48.1530 H   0  0  0  0  0  0  0  0  0  0  0  0
   36.9600   28.8600   49.9480 O   0  0  0  0  0  0  0  0  0  0  0  0
   36.7430   28.9430   50.8870 H   0  0  0  0  0  0  0  0  0  0  0  0
   38.3450   30.4590   47.0090 C   0  0  0  0  0  0  0  0  0  0  0  0
   38.8860   30.8950   45.8660 C   0  0  0  0  0  0  0  0  0  0  0  0
   39.3510   30.0940   44.7100 C   0  0  0  0  0  0  0  0  0  0  0  0
   38.5390   29.3380   44.4960 H   0  0  0  0  0  0  0  0  0  0  0  0
   40.2720   29.5270   44.9110 H   0  0  0  0  0  0  0  0  0  0  0  0
   39.4630   31.1390   43.2550 S   0  0  0  0  0  0  0  0  0  0  0  0
   37.8720   31.6860   42.6480 C   0  0  0  0  0  0  0  0  0  0  0  0
   38.0180   32.6740   42.1290 H   0  0  0  0  0  0  0  0  0  0  0  0
  1  2  1  0  0  0  0
  2  3  2  0  0  0  0
  2  7  1  0  0  0  0
  3  8  1  0  0  0  0
  4  9  1  0  0  0  0
  4  3  1  0  0  0  0
  5  4  2  0  0  0  0
  6  5  1  0  0  0  0
  6  1  2  0  0  0  0
 10  5  1  0  0  0  0
 11 12  1  6  0  0  0
 11  1  1  0  0  0  0
 11 22  1  0  0  0  0
 13 14  2  0  0  0  0
 13 18  1  0  0  0  0
 14 15  1  0  0  0  0
 15 21  1  0  0  0  0
 15 16  2  0  0  0  0
 17 16  1  0  0  0  0
 17 11  1  0  0  0  0
 18 17  2  0  0  0  0
 19 13  1  0  0  0  0
 20 14  1  0  0  0  0
 22 23  1  0  0  0  0
 24  6  1  0  0  0  0
 25 24  2  0  0  0  0
 26 28  1  0  0  0  0
 26 25  1  0  0  0  0
 27 26  1  0  0  0  0
 29 26  1  0  0  0  0
 30 29  1  0  0  0  0
 31 30  1  0  0  0  0
M  END
>  <minimizedAffinity>
-5.21291399

>  <minimizedRMSD>
0.172346473

$$$$
