
 OpenBabel03272506153D

 21 22  0  0  0  0  0  0  0  0999 V2000
   37.9590   24.2250   38.2010 C   0  0  0  0  0  0  0  0  0  0  0  0
   38.9750   23.3390   38.5840 C   0  0  0  0  0  0  0  0  0  0  0  0
   39.7830   22.8120   37.5680 C   0  0  0  0  0  0  0  0  0  0  0  0
   39.5480   23.1770   36.2860 N   0  0  0  0  0  0  0  0  0  0  0  0
   38.5510   24.0370   35.9700 C   0  0  0  0  0  0  0  0  0  0  0  0
   37.7440   24.5730   36.9170 N   0  0  0  0  0  0  0  0  0  0  0  0
   38.2940   24.4320   34.6230 N   0  0  0  0  0  0  0  0  0  0  0  0
   38.6680   23.6300   33.6210 C   0  0  0  0  0  0  0  0  0  0  0  0
   38.3800   24.0960   32.3580 C   0  0  0  0  0  0  0  0  0  0  0  0
   37.7560   25.2870   32.0960 C   0  0  0  0  0  0  0  0  0  0  0  0
   37.5010   25.6960   30.9320 O   0  0  0  0  0  0  0  0  0  0  0  0
   37.3970   26.0620   33.1480 N   0  0  0  0  0  0  0  0  0  0  0  0
   37.6770   25.6090   34.3890 C   0  0  0  0  0  0  0  0  0  0  0  0
   37.3530   26.3130   35.4070 O   0  0  0  0  0  0  0  0  0  0  0  0
   37.2960   24.6710   38.9360 H   0  0  0  0  0  0  0  0  0  0  0  0
   39.0830   23.1100   39.6380 H   0  0  0  0  0  0  0  0  0  0  0  0
   40.5710   22.1270   37.8600 H   0  0  0  0  0  0  0  0  0  0  0  0
   39.1660   22.6780   33.8020 H   0  0  0  0  0  0  0  0  0  0  0  0
   38.6570   23.4950   31.4970 H   0  0  0  0  0  0  0  0  0  0  0  0
   36.7420   27.3140   32.9120 C   0  0  0  0  0  2  0  0  0  0  0  0
   36.8220   27.6290   31.8700 H   0  0  0  0  0  0  0  0  0  0  0  0
  1  2  1  0  0  0  0
  1 15  1  0  0  0  0
  2 16  1  0  0  0  0
  3 17  1  0  0  0  0
  3  2  2  0  0  0  0
  4  3  1  0  0  0  0
  5  4  2  0  0  0  0
  5  6  1  0  0  0  0
  6  1  2  0  0  0  0
  7  5  1  0  0  0  0
  8 18  1  0  0  0  0
  8  7  1  0  0  0  0
  9  8  2  0  0  0  0
 10  9  1  0  0  0  0
 10 12  1  0  0  0  0
 11 10  2  0  0  0  0
 12 13  1  0  0  0  0
 13  7  1  0  0  0  0
 13 14  2  0  0  0  0
 19  9  1  0  0  0  0
 20 12  1  0  0  0  0
 21 20  1  0  0  0  0
M  END
>  <minimizedAffinity>
-4.43318272

$$$$

 OpenBabel03272506153D

 21 22  0  0  0  0  0  0  0  0999 V2000
   39.6720   22.9190   36.7780 C   0  0  0  0  0  0  0  0  0  0  0  0
   39.2170   23.0540   38.0970 C   0  0  0  0  0  0  0  0  0  0  0  0
   38.2570   24.0430   38.3470 C   0  0  0  0  0  0  0  0  0  0  0  0
   37.8200   24.8090   37.3190 N   0  0  0  0  0  0  0  0  0  0  0  0
   38.2930   24.6370   36.0620 C   0  0  0  0  0  0  0  0  0  0  0  0
   39.2220   23.6940   35.7720 N   0  0  0  0  0  0  0  0  0  0  0  0
   37.8400   25.4350   34.9700 N   0  0  0  0  0  0  0  0  0  0  0  0
   37.3400   26.6520   35.2090 C   0  0  0  0  0  0  0  0  0  0  0  0
   36.9270   27.3460   34.0940 C   0  0  0  0  0  0  0  0  0  0  0  0
   37.0030   26.8670   32.8120 C   0  0  0  0  0  0  0  0  0  0  0  0
   36.6200   27.5190   31.8040 O   0  0  0  0  0  0  0  0  0  0  0  0
   37.5190   25.6290   32.6250 N   0  0  0  0  0  0  0  0  0  0  0  0
   37.9250   24.9440   33.7160 C   0  0  0  0  0  0  0  0  0  0  0  0
   38.4170   23.7700   33.5790 O   0  0  0  0  0  0  0  0  0  0  0  0
   40.4140   22.1730   36.5140 H   0  0  0  0  0  0  0  0  0  0  0  0
   39.6290   22.3910   38.8490 H   0  0  0  0  0  0  0  0  0  0  0  0
   37.9030   24.1510   39.3650 H   0  0  0  0  0  0  0  0  0  0  0  0
   37.2680   27.0550   36.2180 H   0  0  0  0  0  0  0  0  0  0  0  0
   36.5100   28.3410   34.2140 H   0  0  0  0  0  0  0  0  0  0  0  0
   37.6140   25.0960   31.2990 C   0  0  0  0  0  2  0  0  0  0  0  0
   37.0200   25.6680   30.5830 H   0  0  0  0  0  0  0  0  0  0  0  0
  1  2  1  0  0  0  0
  2  3  2  0  0  0  0
  2 16  1  0  0  0  0
  3 17  1  0  0  0  0
  4  3  1  0  0  0  0
  5  4  2  0  0  0  0
  6  5  1  0  0  0  0
  6  1  2  0  0  0  0
  7  8  1  0  0  0  0
  7  5  1  0  0  0  0
  8 18  1  0  0  0  0
  9 19  1  0  0  0  0
  9  8  2  0  0  0  0
 10  9  1  0  0  0  0
 11 10  2  0  0  0  0
 12 10  1  0  0  0  0
 12 13  1  0  0  0  0
 13  7  1  0  0  0  0
 14 13  2  0  0  0  0
 15  1  1  0  0  0  0
 20 12  1  0  0  0  0
 21 20  1  0  0  0  0
M  END
>  <minimizedAffinity>
-4.43271542

$$$$

 OpenBabel03272506153D

 21 22  0  0  0  0  0  0  0  0999 V2000
   39.4350   22.5710   34.9560 C   0  0  0  0  0  0  0  0  0  0  0  0
   39.4230   22.3490   36.3390 C   0  0  0  0  0  0  0  0  0  0  0  0
   38.7920   23.3110   37.1390 C   0  0  0  0  0  0  0  0  0  0  0  0
   38.2310   24.3920   36.5470 N   0  0  0  0  0  0  0  0  0  0  0  0
   38.2710   24.5590   35.2040 C   0  0  0  0  0  0  0  0  0  0  0  0
   38.8700   23.6560   34.3900 N   0  0  0  0  0  0  0  0  0  0  0  0
   37.6820   25.6920   34.5670 N   0  0  0  0  0  0  0  0  0  0  0  0
   37.5230   26.8240   35.2590 C   0  0  0  0  0  0  0  0  0  0  0  0
   36.9450   27.8620   34.5620 C   0  0  0  0  0  0  0  0  0  0  0  0
   36.5460   27.7870   33.2530 C   0  0  0  0  0  0  0  0  0  0  0  0
   36.0190   28.7480   32.6320 O   0  0  0  0  0  0  0  0  0  0  0  0
   36.7310   26.6160   32.5980 N   0  0  0  0  0  0  0  0  0  0  0  0
   37.2980   25.5960   33.2770 C   0  0  0  0  0  0  0  0  0  0  0  0
   37.4880   24.4740   32.6910 O   0  0  0  0  0  0  0  0  0  0  0  0
   39.9050   21.8680   34.2780 H   0  0  0  0  0  0  0  0  0  0  0  0
   39.9000   21.4510   36.7160 H   0  0  0  0  0  0  0  0  0  0  0  0
   38.7800   23.1420   38.2100 H   0  0  0  0  0  0  0  0  0  0  0  0
   37.8310   26.9100   36.3010 H   0  0  0  0  0  0  0  0  0  0  0  0
   36.7850   28.8120   35.0630 H   0  0  0  0  0  0  0  0  0  0  0  0
   36.3270   26.5010   31.2280 C   0  0  0  0  0  2  0  0  0  0  0  0
   35.6730   27.3210   30.9230 H   0  0  0  0  0  0  0  0  0  0  0  0
  1  2  1  0  0  0  0
  2 16  1  0  0  0  0
  2  3  2  0  0  0  0
  3 17  1  0  0  0  0
  4  3  1  0  0  0  0
  5  4  2  0  0  0  0
  6  1  2  0  0  0  0
  6  5  1  0  0  0  0
  7  5  1  0  0  0  0
  7  8  1  0  0  0  0
  8 18  1  0  0  0  0
  9 19  1  0  0  0  0
  9  8  2  0  0  0  0
 10  9  1  0  0  0  0
 11 10  2  0  0  0  0
 12 10  1  0  0  0  0
 12 13  1  0  0  0  0
 13  7  1  0  0  0  0
 14 13  2  0  0  0  0
 15  1  1  0  0  0  0
 20 12  1  0  0  0  0
 21 20  1  0  0  0  0
M  END
>  <minimizedAffinity>
-4.21944666

$$$$

 OpenBabel03272506153D

 21 22  0  0  0  0  0  0  0  0999 V2000
   36.1160   26.3540   31.0840 C   0  0  0  0  0  0  0  0  0  0  0  0
   36.2020   27.7500   30.9930 C   0  0  0  0  0  0  0  0  0  0  0  0
   36.7950   28.4280   32.0650 C   0  0  0  0  0  0  0  0  0  0  0  0
   37.2500   27.7150   33.1230 N   0  0  0  0  0  0  0  0  0  0  0  0
   37.1420   26.3660   33.1610 C   0  0  0  0  0  0  0  0  0  0  0  0
   36.5760   25.6660   32.1480 N   0  0  0  0  0  0  0  0  0  0  0  0
   37.6190   25.6010   34.2680 N   0  0  0  0  0  0  0  0  0  0  0  0
   37.7240   26.1810   35.4680 C   0  0  0  0  0  0  0  0  0  0  0  0
   38.1950   25.3650   36.4730 C   0  0  0  0  0  0  0  0  0  0  0  0
   38.5430   24.0510   36.3040 C   0  0  0  0  0  0  0  0  0  0  0  0
   38.9720   23.3210   37.2370 O   0  0  0  0  0  0  0  0  0  0  0  0
   38.4160   23.5130   35.0680 N   0  0  0  0  0  0  0  0  0  0  0  0
   37.9540   24.3080   34.0790 C   0  0  0  0  0  0  0  0  0  0  0  0
   37.8210   23.8350   32.8970 O   0  0  0  0  0  0  0  0  0  0  0  0
   35.6690   25.7650   30.2900 H   0  0  0  0  0  0  0  0  0  0  0  0
   35.8080   28.2280   30.1040 H   0  0  0  0  0  0  0  0  0  0  0  0
   36.8640   29.5070   31.9990 H   0  0  0  0  0  0  0  0  0  0  0  0
   37.4560   27.2240   35.6290 H   0  0  0  0  0  0  0  0  0  0  0  0
   38.3070   25.7710   37.4740 H   0  0  0  0  0  0  0  0  0  0  0  0
   38.7690   22.1410   34.8540 C   0  0  0  0  0  2  0  0  0  0  0  0
   39.3480   21.7320   35.6850 H   0  0  0  0  0  0  0  0  0  0  0  0
  1  6  1  0  0  0  0
  2  1  2  0  0  0  0
  2  3  1  0  0  0  0
  3  4  2  0  0  0  0
  4  5  1  0  0  0  0
  5  7  1  0  0  0  0
  6  5  2  0  0  0  0
  7  8  1  0  0  0  0
  8 18  1  0  0  0  0
  8  9  2  0  0  0  0
  9 19  1  0  0  0  0
 10  9  1  0  0  0  0
 10 11  2  0  0  0  0
 12 10  1  0  0  0  0
 13  7  1  0  0  0  0
 13 12  1  0  0  0  0
 14 13  2  0  0  0  0
 15  1  1  0  0  0  0
 16  2  1  0  0  0  0
 17  3  1  0  0  0  0
 20 12  1  0  0  0  0
 20 21  1  0  0  0  0
M  END
>  <minimizedAffinity>
-4.20269299

$$$$

 OpenBabel03272506153D

 21 22  0  0  0  0  0  0  0  0999 V2000
   37.8640   26.7410   32.6180 C   0  0  0  0  0  0  0  0  0  0  0  0
   36.9880   27.7350   33.0740 C   0  0  0  0  0  0  0  0  0  0  0  0
   36.6750   27.7390   34.4390 C   0  0  0  0  0  0  0  0  0  0  0  0
   37.2250   26.7970   35.2410 N   0  0  0  0  0  0  0  0  0  0  0  0
   38.0670   25.8580   34.7500 C   0  0  0  0  0  0  0  0  0  0  0  0
   38.4000   25.8140   33.4370 N   0  0  0  0  0  0  0  0  0  0  0  0
   38.6560   24.8610   35.5840 N   0  0  0  0  0  0  0  0  0  0  0  0
   38.0460   24.5130   36.7210 C   0  0  0  0  0  0  0  0  0  0  0  0
   38.6900   23.5460   37.4600 C   0  0  0  0  0  0  0  0  0  0  0  0
   39.8710   22.9540   37.0980 C   0  0  0  0  0  0  0  0  0  0  0  0
   40.4450   22.0690   37.7880 O   0  0  0  0  0  0  0  0  0  0  0  0
   40.4470   23.3420   35.9350 N   0  0  0  0  0  0  0  0  0  0  0  0
   39.8190   24.2900   35.2070 C   0  0  0  0  0  0  0  0  0  0  0  0
   40.3330   24.6820   34.1020 O   0  0  0  0  0  0  0  0  0  0  0  0
   38.1500   26.6800   31.5730 H   0  0  0  0  0  0  0  0  0  0  0  0
   36.6010   28.4440   32.3510 H   0  0  0  0  0  0  0  0  0  0  0  0
   35.9980   28.5060   34.7960 H   0  0  0  0  0  0  0  0  0  0  0  0
   37.1070   24.9700   37.0330 H   0  0  0  0  0  0  0  0  0  0  0  0
   38.2500   23.2160   38.3970 H   0  0  0  0  0  0  0  0  0  0  0  0
   41.6820   22.7430   35.5240 C   0  0  0  0  0  2  0  0  0  0  0  0
   42.1620   22.1950   36.3360 H   0  0  0  0  0  0  0  0  0  0  0  0
  1  2  2  0  0  0  0
  1  6  1  0  0  0  0
  2  3  1  0  0  0  0
  3 17  1  0  0  0  0
  3  4  2  0  0  0  0
  5  4  1  0  0  0  0
  5  7  1  0  0  0  0
  6  5  2  0  0  0  0
  7  8  1  0  0  0  0
  8 18  1  0  0  0  0
  8  9  2  0  0  0  0
  9 19  1  0  0  0  0
 10  9  1  0  0  0  0
 10 11  2  0  0  0  0
 12 10  1  0  0  0  0
 13  7  1  0  0  0  0
 13 12  1  0  0  0  0
 14 13  2  0  0  0  0
 15  1  1  0  0  0  0
 16  2  1  0  0  0  0
 20 12  1  0  0  0  0
 20 21  1  0  0  0  0
M  END
>  <minimizedAffinity>
-4.1985116

$$$$

 OpenBabel03272506153D

 21 22  0  0  0  0  0  0  0  0999 V2000
   36.9250   27.4880   34.3990 C   0  0  0  0  0  0  0  0  0  0  0  0
   36.7040   27.4370   33.0160 C   0  0  0  0  0  0  0  0  0  0  0  0
   37.2130   26.3290   32.3250 C   0  0  0  0  0  0  0  0  0  0  0  0
   37.8830   25.3760   33.0150 N   0  0  0  0  0  0  0  0  0  0  0  0
   38.0690   25.4750   34.3530 C   0  0  0  0  0  0  0  0  0  0  0  0
   37.5960   26.5270   35.0640 N   0  0  0  0  0  0  0  0  0  0  0  0
   38.7710   24.4770   35.0930 N   0  0  0  0  0  0  0  0  0  0  0  0
   39.6640   23.7030   34.4670 C   0  0  0  0  0  0  0  0  0  0  0  0
   40.2890   22.7690   35.2620 C   0  0  0  0  0  0  0  0  0  0  0  0
   40.0470   22.6050   36.6010 C   0  0  0  0  0  0  0  0  0  0  0  0
   40.6300   21.7430   37.3110 O   0  0  0  0  0  0  0  0  0  0  0  0
   39.1330   23.4150   37.1860 N   0  0  0  0  0  0  0  0  0  0  0  0
   38.5180   24.3340   36.4100 C   0  0  0  0  0  0  0  0  0  0  0  0
   37.6480   25.1180   36.9280 O   0  0  0  0  0  0  0  0  0  0  0  0
   36.5590   28.3170   34.9960 H   0  0  0  0  0  0  0  0  0  0  0  0
   36.1550   28.2500   32.5570 H   0  0  0  0  0  0  0  0  0  0  0  0
   37.0440   26.2850   31.2560 H   0  0  0  0  0  0  0  0  0  0  0  0
   39.8750   23.8120   33.4040 H   0  0  0  0  0  0  0  0  0  0  0  0
   41.0270   22.1050   34.8190 H   0  0  0  0  0  0  0  0  0  0  0  0
   38.8550   23.2740   38.5840 C   0  0  0  0  0  2  0  0  0  0  0  0
   39.2470   22.3380   38.9870 H   0  0  0  0  0  0  0  0  0  0  0  0
  1 15  1  0  0  0  0
  1  6  1  0  0  0  0
  2  1  2  0  0  0  0
  3  4  2  0  0  0  0
  3  2  1  0  0  0  0
  4  5  1  0  0  0  0
  5  6  2  0  0  0  0
  5  7  1  0  0  0  0
  7 13  1  0  0  0  0
  8  7  1  0  0  0  0
  8  9  2  0  0  0  0
  9 10  1  0  0  0  0
 10 12  1  0  0  0  0
 10 11  2  0  0  0  0
 12 20  1  0  0  0  0
 13 14  2  0  0  0  0
 13 12  1  0  0  0  0
 16  2  1  0  0  0  0
 17  3  1  0  0  0  0
 18  8  1  0  0  0  0
 19  9  1  0  0  0  0
 20 21  1  0  0  0  0
M  END
>  <minimizedAffinity>
-4.18474102

$$$$

 OpenBabel03272506153D

 21 22  0  0  0  0  0  0  0  0999 V2000
   39.4460   25.9150   35.2640 C   0  0  0  0  0  0  0  0  0  0  0  0
   38.9070   27.1890   35.4910 C   0  0  0  0  0  0  0  0  0  0  0  0
   37.7190   27.5120   34.8230 C   0  0  0  0  0  0  0  0  0  0  0  0
   37.1560   26.5940   34.0030 N   0  0  0  0  0  0  0  0  0  0  0  0
   37.7180   25.3760   33.8180 C   0  0  0  0  0  0  0  0  0  0  0  0
   38.8660   25.0180   34.4420 N   0  0  0  0  0  0  0  0  0  0  0  0
   37.1350   24.3980   32.9580 N   0  0  0  0  0  0  0  0  0  0  0  0
   36.3350   24.7930   31.9620 C   0  0  0  0  0  0  0  0  0  0  0  0
   35.8170   23.7790   31.1880 C   0  0  0  0  0  0  0  0  0  0  0  0
   36.0740   22.4470   31.3850 C   0  0  0  0  0  0  0  0  0  0  0  0
   35.5900   21.5340   30.6650 O   0  0  0  0  0  0  0  0  0  0  0  0
   36.8910   22.1010   32.4070 N   0  0  0  0  0  0  0  0  0  0  0  0
   37.4020   23.0930   33.1690 C   0  0  0  0  0  0  0  0  0  0  0  0
   38.1780   22.8040   34.1450 O   0  0  0  0  0  0  0  0  0  0  0  0
   40.3630   25.5980   35.7480 H   0  0  0  0  0  0  0  0  0  0  0  0
   39.4340   27.8520   36.1670 H   0  0  0  0  0  0  0  0  0  0  0  0
   37.2990   28.4960   34.9970 H   0  0  0  0  0  0  0  0  0  0  0  0
   36.1140   25.8450   31.7850 H   0  0  0  0  0  0  0  0  0  0  0  0
   35.1590   24.0280   30.3610 H   0  0  0  0  0  0  0  0  0  0  0  0
   37.1830   20.7180   32.6420 C   0  0  0  0  0  2  0  0  0  0  0  0
   36.5010   20.0580   32.1030 H   0  0  0  0  0  0  0  0  0  0  0  0
  1  2  1  0  0  0  0
  1 15  1  0  0  0  0
  2 16  1  0  0  0  0
  3 17  1  0  0  0  0
  3  2  2  0  0  0  0
  4  3  1  0  0  0  0
  5  4  2  0  0  0  0
  5  6  1  0  0  0  0
  6  1  2  0  0  0  0
  7 13  1  0  0  0  0
  7  5  1  0  0  0  0
  8  7  1  0  0  0  0
  9 10  1  0  0  0  0
  9  8  2  0  0  0  0
 10 12  1  0  0  0  0
 11 10  2  0  0  0  0
 12 20  1  0  0  0  0
 12 13  1  0  0  0  0
 13 14  2  0  0  0  0
 18  8  1  0  0  0  0
 19  9  1  0  0  0  0
 21 20  1  0  0  0  0
M  END
>  <minimizedAffinity>
-4.0402627

$$$$

 OpenBabel03272506153D

 21 22  0  0  0  0  0  0  0  0999 V2000
   37.8900   24.3760   37.2130 C   0  0  0  0  0  0  0  0  0  0  0  0
   38.8100   23.3190   37.2450 C   0  0  0  0  0  0  0  0  0  0  0  0
   39.3480   22.8990   36.0220 C   0  0  0  0  0  0  0  0  0  0  0  0
   38.9610   23.5250   34.8850 N   0  0  0  0  0  0  0  0  0  0  0  0
   38.0680   24.5420   34.9100 C   0  0  0  0  0  0  0  0  0  0  0  0
   37.5200   24.9820   36.0680 N   0  0  0  0  0  0  0  0  0  0  0  0
   37.6520   25.2110   33.7200 N   0  0  0  0  0  0  0  0  0  0  0  0
   37.7290   24.5730   32.5480 C   0  0  0  0  0  0  0  0  0  0  0  0
   37.3080   25.2990   31.4560 C   0  0  0  0  0  0  0  0  0  0  0  0
   36.8370   26.5840   31.5170 C   0  0  0  0  0  0  0  0  0  0  0  0
   36.4570   27.2320   30.5050 O   0  0  0  0  0  0  0  0  0  0  0  0
   36.7800   27.1850   32.7290 N   0  0  0  0  0  0  0  0  0  0  0  0
   37.1910   26.4760   33.8030 C   0  0  0  0  0  0  0  0  0  0  0  0
   37.1520   27.0100   34.9660 O   0  0  0  0  0  0  0  0  0  0  0  0
   37.4350   24.7510   38.1230 H   0  0  0  0  0  0  0  0  0  0  0  0
   39.0550   22.8850   38.2070 H   0  0  0  0  0  0  0  0  0  0  0  0
   40.0600   22.0830   36.0420 H   0  0  0  0  0  0  0  0  0  0  0  0
   38.1000   23.5510   32.4720 H   0  0  0  0  0  0  0  0  0  0  0  0
   37.3430   24.8430   30.4710 H   0  0  0  0  0  0  0  0  0  0  0  0
   36.2920   28.5280   32.8310 C   0  0  0  0  0  2  0  0  0  0  0  0
   36.2450   29.0210   31.8580 H   0  0  0  0  0  0  0  0  0  0  0  0
  1  2  1  0  0  0  0
  1 15  1  0  0  0  0
  2 16  1  0  0  0  0
  3 17  1  0  0  0  0
  3  2  2  0  0  0  0
  4  5  2  0  0  0  0
  4  3  1  0  0  0  0
  5  6  1  0  0  0  0
  6  1  2  0  0  0  0
  7 13  1  0  0  0  0
  7  5  1  0  0  0  0
  8  7  1  0  0  0  0
  9 10  1  0  0  0  0
  9  8  2  0  0  0  0
 10 12  1  0  0  0  0
 11 10  2  0  0  0  0
 12 20  1  0  0  0  0
 12 13  1  0  0  0  0
 13 14  2  0  0  0  0
 18  8  1  0  0  0  0
 19  9  1  0  0  0  0
 21 20  1  0  0  0  0
M  END
>  <minimizedAffinity>
-3.9869678

$$$$

 OpenBabel03272506153D

 21 22  0  0  0  0  0  0  0  0999 V2000
   37.5540   22.6240   36.6530 C   0  0  0  0  0  0  0  0  0  0  0  0
   38.2120   23.8610   36.6540 C   0  0  0  0  0  0  0  0  0  0  0  0
   38.6040   24.3810   35.4140 C   0  0  0  0  0  0  0  0  0  0  0  0
   38.3330   23.6760   34.2910 N   0  0  0  0  0  0  0  0  0  0  0  0
   37.6940   22.4830   34.3450 C   0  0  0  0  0  0  0  0  0  0  0  0
   37.2950   21.9400   35.5210 N   0  0  0  0  0  0  0  0  0  0  0  0
   37.4000   21.7300   33.1690 N   0  0  0  0  0  0  0  0  0  0  0  0
   38.1460   21.9070   32.0730 C   0  0  0  0  0  0  0  0  0  0  0  0
   37.7850   21.1390   30.9890 C   0  0  0  0  0  0  0  0  0  0  0  0
   36.7460   20.2450   30.9840 C   0  0  0  0  0  0  0  0  0  0  0  0
   36.4330   19.5510   29.9810 O   0  0  0  0  0  0  0  0  0  0  0  0
   36.0230   20.1040   32.1210 N   0  0  0  0  0  0  0  0  0  0  0  0
   36.3730   20.8550   33.1870 C   0  0  0  0  0  0  0  0  0  0  0  0
   35.7130   20.7490   34.2790 O   0  0  0  0  0  0  0  0  0  0  0  0
   37.2220   22.1630   37.5770 H   0  0  0  0  0  0  0  0  0  0  0  0
   38.3820   24.3470   37.6080 H   0  0  0  0  0  0  0  0  0  0  0  0
   39.1140   25.3380   35.4110 H   0  0  0  0  0  0  0  0  0  0  0  0
   38.9760   22.6120   32.0510 H   0  0  0  0  0  0  0  0  0  0  0  0
   38.3480   21.2320   30.0640 H   0  0  0  0  0  0  0  0  0  0  0  0
   34.9310   19.1780   32.1530 C   0  0  0  0  0  2  0  0  0  0  0  0
   34.6400   18.8530   31.1520 H   0  0  0  0  0  0  0  0  0  0  0  0
  1  2  1  0  0  0  0
  1 15  1  0  0  0  0
  2 16  1  0  0  0  0
  3  2  2  0  0  0  0
  4  5  2  0  0  0  0
  4  3  1  0  0  0  0
  5  6  1  0  0  0  0
  6  1  2  0  0  0  0
  7 13  1  0  0  0  0
  7  5  1  0  0  0  0
  8  7  1  0  0  0  0
  9  8  2  0  0  0  0
 10  9  1  0  0  0  0
 10 12  1  0  0  0  0
 11 10  2  0  0  0  0
 12 20  1  0  0  0  0
 12 13  1  0  0  0  0
 13 14  2  0  0  0  0
 17  3  1  0  0  0  0
 18  8  1  0  0  0  0
 19  9  1  0  0  0  0
 21 20  1  0  0  0  0
M  END
>  <minimizedAffinity>
-3.98481321

$$$$
