
 OpenBabel03272503393D

 22 23  0  0  0  0  0  0  0  0999 V2000
   38.8690   23.3050   36.1550 C   0  0  0  0  0  0  0  0  0  0  0  0
   38.1110   22.3010   35.5610 C   0  0  0  0  0  0  0  0  0  0  0  0
   37.7750   22.3660   34.2190 C   0  0  0  0  0  0  0  0  0  0  0  0
   38.2230   23.4470   33.5330 N   0  0  0  0  0  0  0  0  0  0  0  0
   38.9630   24.4190   34.1290 C   0  0  0  0  0  0  0  0  0  0  0  0
   39.2790   24.3510   35.4110 N   0  0  0  0  0  0  0  0  0  0  0  0
   37.7400   21.4210   36.0920 H   0  0  0  0  0  0  0  0  0  0  0  0
   39.2570   25.2190   33.4930 H   0  0  0  0  0  0  0  0  0  0  0  0
   36.9930   21.3500   33.5650 C   0  0  0  0  0  0  0  0  0  0  0  0
   35.8620   20.7770   34.0730 C   0  0  0  0  0  0  0  0  0  0  0  0
   35.4580   19.8620   33.1050 C   0  0  0  0  0  0  0  0  0  0  0  0
   36.3270   19.8970   32.0600 N   0  0  0  0  0  0  0  0  0  0  0  0
   37.2620   20.8110   32.3550 N   0  0  0  0  0  0  0  0  0  0  0  0
   35.3520   20.9580   35.0130 H   0  0  0  0  0  0  0  0  0  0  0  0
   34.5900   19.1970   33.1280 H   0  0  0  0  0  0  0  0  0  0  0  0
   36.2600   19.0950   30.8480 C   0  0  0  0  0  2  0  0  0  0  0  0
   35.7610   19.6390   30.0110 H   0  0  0  0  0  0  0  0  0  0  0  0
   39.1100   23.0770   37.5040 O   0  0  0  0  0  0  0  0  0  0  0  0
   38.3670   23.6400   38.5390 C   0  0  0  0  0  0  0  0  0  0  0  0
   37.3410   22.7970   38.9560 F   0  0  0  0  0  0  0  0  0  0  0  0
   37.8530   24.8370   38.1230 F   0  0  0  0  0  0  0  0  0  0  0  0
   39.2180   23.8780   39.6050 F   0  0  0  0  0  0  0  0  0  0  0  0
  1 18  1  0  0  0  0
  2  7  1  0  0  0  0
  2  1  1  0  0  0  0
  3  2  2  0  0  0  0
  4  5  2  0  0  0  0
  4  3  1  0  0  0  0
  5  6  1  0  0  0  0
  6  1  2  0  0  0  0
  8  5  1  0  0  0  0
  9 10  1  0  0  0  0
  9  3  1  0  0  0  0
 10 14  1  0  0  0  0
 11 15  1  0  0  0  0
 11 10  2  0  0  0  0
 12 13  1  0  0  0  0
 12 11  1  0  0  0  0
 13  9  2  0  0  0  0
 16 12  1  0  0  0  0
 17 16  1  0  0  0  0
 18 19  1  0  0  0  0
 19 20  1  0  0  0  0
 19 22  1  0  0  0  0
 21 19  1  0  0  0  0
M  END
>  <minimizedAffinity>
-4.80752611

$$$$

 OpenBabel03272503393D

 22 23  0  0  0  0  0  0  0  0999 V2000
   38.6910   24.3980   35.9920 C   0  0  0  0  0  0  0  0  0  0  0  0
   37.8600   25.3600   35.4250 C   0  0  0  0  0  0  0  0  0  0  0  0
   38.3430   26.2440   34.4750 C   0  0  0  0  0  0  0  0  0  0  0  0
   39.6500   26.1170   34.1370 N   0  0  0  0  0  0  0  0  0  0  0  0
   40.4490   25.1720   34.7010 C   0  0  0  0  0  0  0  0  0  0  0  0
   39.9810   24.3310   35.6080 N   0  0  0  0  0  0  0  0  0  0  0  0
   36.8050   25.4810   35.6810 H   0  0  0  0  0  0  0  0  0  0  0  0
   41.4560   25.1670   34.3590 H   0  0  0  0  0  0  0  0  0  0  0  0
   37.5180   27.2520   33.8640 C   0  0  0  0  0  0  0  0  0  0  0  0
   36.5740   27.9980   34.5120 C   0  0  0  0  0  0  0  0  0  0  0  0
   36.0390   28.8280   33.5320 C   0  0  0  0  0  0  0  0  0  0  0  0
   36.6500   28.5770   32.3440 N   0  0  0  0  0  0  0  0  0  0  0  0
   37.5530   27.6110   32.5610 N   0  0  0  0  0  0  0  0  0  0  0  0
   36.2710   27.9840   35.5530 H   0  0  0  0  0  0  0  0  0  0  0  0
   35.2520   29.5800   33.6420 H   0  0  0  0  0  0  0  0  0  0  0  0
   36.3800   29.2320   31.0720 C   0  0  0  0  0  2  0  0  0  0  0  0
   37.0880   30.0710   30.8720 H   0  0  0  0  0  0  0  0  0  0  0  0
   38.0410   23.6000   36.9250 O   0  0  0  0  0  0  0  0  0  0  0  0
   38.2290   23.6920   38.3020 C   0  0  0  0  0  0  0  0  0  0  0  0
   38.0190   24.9880   38.7670 F   0  0  0  0  0  0  0  0  0  0  0  0
   39.4960   23.2800   38.6110 F   0  0  0  0  0  0  0  0  0  0  0  0
   37.3310   22.8390   38.9200 F   0  0  0  0  0  0  0  0  0  0  0  0
  1 18  1  0  0  0  0
  2  7  1  0  0  0  0
  2  1  2  0  0  0  0
  3  2  1  0  0  0  0
  4  3  2  0  0  0  0
  4  5  1  0  0  0  0
  5  6  2  0  0  0  0
  6  1  1  0  0  0  0
  8  5  1  0  0  0  0
  9  3  1  0  0  0  0
  9 10  1  0  0  0  0
 10 14  1  0  0  0  0
 11 15  1  0  0  0  0
 11 10  2  0  0  0  0
 12 13  1  0  0  0  0
 12 11  1  0  0  0  0
 13  9  2  0  0  0  0
 16 12  1  0  0  0  0
 17 16  1  0  0  0  0
 18 19  1  0  0  0  0
 19 21  1  0  0  0  0
 19 20  1  0  0  0  0
 19 22  1  0  0  0  0
M  END
>  <minimizedAffinity>
-4.77719116

$$$$

 OpenBabel03272503393D

 22 23  0  0  0  0  0  0  0  0999 V2000
   39.3950   23.5310   35.9930 C   0  0  0  0  0  0  0  0  0  0  0  0
   38.3390   23.4420   35.0900 C   0  0  0  0  0  0  0  0  0  0  0  0
   38.4620   23.9380   33.8030 C   0  0  0  0  0  0  0  0  0  0  0  0
   39.6510   24.5040   33.4830 N   0  0  0  0  0  0  0  0  0  0  0  0
   40.6740   24.5840   34.3760 C   0  0  0  0  0  0  0  0  0  0  0  0
   40.5490   24.1080   35.6030 N   0  0  0  0  0  0  0  0  0  0  0  0
   37.3730   22.9900   35.3250 H   0  0  0  0  0  0  0  0  0  0  0  0
   41.5580   25.0490   34.0130 H   0  0  0  0  0  0  0  0  0  0  0  0
   37.3960   23.8670   32.8400 C   0  0  0  0  0  0  0  0  0  0  0  0
   36.9380   22.7200   32.2540 C   0  0  0  0  0  0  0  0  0  0  0  0
   35.9160   23.1350   31.4060 C   0  0  0  0  0  0  0  0  0  0  0  0
   35.7790   24.4850   31.4890 N   0  0  0  0  0  0  0  0  0  0  0  0
   36.6900   24.9200   32.3710 N   0  0  0  0  0  0  0  0  0  0  0  0
   37.2630   21.6950   32.3860 H   0  0  0  0  0  0  0  0  0  0  0  0
   35.2910   22.5190   30.7520 H   0  0  0  0  0  0  0  0  0  0  0  0
   34.8240   25.3090   30.7630 C   0  0  0  0  0  2  0  0  0  0  0  0
   33.9070   25.5180   31.3630 H   0  0  0  0  0  0  0  0  0  0  0  0
   39.0960   22.9830   37.2340 O   0  0  0  0  0  0  0  0  0  0  0  0
   38.4400   23.6670   38.2540 C   0  0  0  0  0  0  0  0  0  0  0  0
   38.0670   24.9490   37.8600 F   0  0  0  0  0  0  0  0  0  0  0  0
   39.2550   23.7290   39.3510 F   0  0  0  0  0  0  0  0  0  0  0  0
   37.3040   22.9510   38.5950 F   0  0  0  0  0  0  0  0  0  0  0  0
  1 18  1  0  0  0  0
  2  7  1  0  0  0  0
  2  1  2  0  0  0  0
  3  2  1  0  0  0  0
  4  3  2  0  0  0  0
  4  5  1  0  0  0  0
  5  6  2  0  0  0  0
  6  1  1  0  0  0  0
  8  5  1  0  0  0  0
  9  3  1  0  0  0  0
 10 14  1  0  0  0  0
 10  9  1  0  0  0  0
 11 12  1  0  0  0  0
 11 10  2  0  0  0  0
 12 13  1  0  0  0  0
 13  9  2  0  0  0  0
 15 11  1  0  0  0  0
 16 17  1  0  0  0  0
 16 12  1  0  0  0  0
 18 19  1  0  0  0  0
 19 22  1  0  0  0  0
 19 21  1  0  0  0  0
 20 19  1  0  0  0  0
M  END
>  <minimizedAffinity>
-4.70440865

$$$$

 OpenBabel03272503393D

 22 23  0  0  0  0  0  0  0  0999 V2000
   38.7040   23.2050   36.1600 C   0  0  0  0  0  0  0  0  0  0  0  0
   38.6040   24.3600   35.3910 C   0  0  0  0  0  0  0  0  0  0  0  0
   38.1050   24.3130   34.1000 C   0  0  0  0  0  0  0  0  0  0  0  0
   37.7270   23.0940   33.6410 N   0  0  0  0  0  0  0  0  0  0  0  0
   37.8320   21.9740   34.4050 C   0  0  0  0  0  0  0  0  0  0  0  0
   38.3100   22.0270   35.6360 N   0  0  0  0  0  0  0  0  0  0  0  0
   38.9010   25.3530   35.7390 H   0  0  0  0  0  0  0  0  0  0  0  0
   37.5050   21.0750   33.9390 H   0  0  0  0  0  0  0  0  0  0  0  0
   37.9840   25.4830   33.2710 C   0  0  0  0  0  0  0  0  0  0  0  0
   38.9050   26.4880   33.1880 C   0  0  0  0  0  0  0  0  0  0  0  0
   38.3680   27.3920   32.2770 C   0  0  0  0  0  0  0  0  0  0  0  0
   37.1660   26.9310   31.8380 N   0  0  0  0  0  0  0  0  0  0  0  0
   36.9430   25.7620   32.4550 N   0  0  0  0  0  0  0  0  0  0  0  0
   39.8560   26.6040   33.6960 H   0  0  0  0  0  0  0  0  0  0  0  0
   38.7980   28.3360   31.9310 H   0  0  0  0  0  0  0  0  0  0  0  0
   36.2830   27.5790   30.8800 C   0  0  0  0  0  2  0  0  0  0  0  0
   36.4290   27.1900   29.8440 H   0  0  0  0  0  0  0  0  0  0  0  0
   39.2260   23.4390   37.4260 O   0  0  0  0  0  0  0  0  0  0  0  0
   38.4670   23.8380   38.5240 C   0  0  0  0  0  0  0  0  0  0  0  0
   37.9500   25.1200   38.3550 F   0  0  0  0  0  0  0  0  0  0  0  0
   39.2430   23.7870   39.6490 F   0  0  0  0  0  0  0  0  0  0  0  0
   37.4190   22.9450   38.6750 F   0  0  0  0  0  0  0  0  0  0  0  0
  1 18  1  0  0  0  0
  2  7  1  0  0  0  0
  2  1  2  0  0  0  0
  3  2  1  0  0  0  0
  4  3  2  0  0  0  0
  4  5  1  0  0  0  0
  5  6  2  0  0  0  0
  6  1  1  0  0  0  0
  8  5  1  0  0  0  0
  9  3  1  0  0  0  0
 10  9  1  0  0  0  0
 10 14  1  0  0  0  0
 11 10  2  0  0  0  0
 12 11  1  0  0  0  0
 12 13  1  0  0  0  0
 13  9  2  0  0  0  0
 15 11  1  0  0  0  0
 16 12  1  0  0  0  0
 17 16  1  0  0  0  0
 18 19  1  0  0  0  0
 19 22  1  0  0  0  0
 19 21  1  0  0  0  0
 20 19  1  0  0  0  0
M  END
>  <minimizedAffinity>
-4.64650965

$$$$

 OpenBabel03272503393D

 22 23  0  0  0  0  0  0  0  0999 V2000
   39.5300   22.8140   37.0260 C   0  0  0  0  0  0  0  0  0  0  0  0
   39.1340   23.6690   36.0020 C   0  0  0  0  0  0  0  0  0  0  0  0
   38.3000   24.7450   36.2580 C   0  0  0  0  0  0  0  0  0  0  0  0
   37.9030   24.9110   37.5440 N   0  0  0  0  0  0  0  0  0  0  0  0
   38.3000   24.0670   38.5330 C   0  0  0  0  0  0  0  0  0  0  0  0
   39.0950   23.0410   38.2810 N   0  0  0  0  0  0  0  0  0  0  0  0
   39.4410   23.5560   34.9590 H   0  0  0  0  0  0  0  0  0  0  0  0
   37.9250   24.2950   39.5020 H   0  0  0  0  0  0  0  0  0  0  0  0
   37.8670   25.6520   35.2290 C   0  0  0  0  0  0  0  0  0  0  0  0
   37.7000   26.9990   35.3850 C   0  0  0  0  0  0  0  0  0  0  0  0
   37.2760   27.4530   34.1400 C   0  0  0  0  0  0  0  0  0  0  0  0
   37.1950   26.4050   33.2790 N   0  0  0  0  0  0  0  0  0  0  0  0
   37.5600   25.3080   33.9580 N   0  0  0  0  0  0  0  0  0  0  0  0
   37.8490   27.6220   36.2600 H   0  0  0  0  0  0  0  0  0  0  0  0
   37.0320   28.4780   33.8450 H   0  0  0  0  0  0  0  0  0  0  0  0
   36.7920   26.4560   31.8820 C   0  0  0  0  0  2  0  0  0  0  0  0
   37.6670   26.5170   31.1930 H   0  0  0  0  0  0  0  0  0  0  0  0
   40.3630   21.7920   36.5880 O   0  0  0  0  0  0  0  0  0  0  0  0
   41.7020   21.6640   36.9490 C   0  0  0  0  0  0  0  0  0  0  0  0
   41.8520   20.9530   38.1370 F   0  0  0  0  0  0  0  0  0  0  0  0
   42.2560   22.9090   37.0730 F   0  0  0  0  0  0  0  0  0  0  0  0
   42.3630   20.9920   35.9340 F   0  0  0  0  0  0  0  0  0  0  0  0
  1  6  1  0  0  0  0
  2  3  1  0  0  0  0
  2  1  2  0  0  0  0
  3  4  2  0  0  0  0
  4  5  1  0  0  0  0
  5  8  1  0  0  0  0
  6  5  2  0  0  0  0
  7  2  1  0  0  0  0
  9 10  1  0  0  0  0
  9  3  1  0  0  0  0
 10 14  1  0  0  0  0
 11 10  2  0  0  0  0
 12 13  1  0  0  0  0
 12 11  1  0  0  0  0
 13  9  2  0  0  0  0
 15 11  1  0  0  0  0
 16 12  1  0  0  0  0
 17 16  1  0  0  0  0
 18 19  1  0  0  0  0
 18  1  1  0  0  0  0
 19 21  1  0  0  0  0
 19 20  1  0  0  0  0
 22 19  1  0  0  0  0
M  END
>  <minimizedAffinity>
-4.62704277

$$$$

 OpenBabel03272503393D

 22 23  0  0  0  0  0  0  0  0999 V2000
   38.4710   24.4120   35.4690 C   0  0  0  0  0  0  0  0  0  0  0  0
   37.9360   25.6730   35.2200 C   0  0  0  0  0  0  0  0  0  0  0  0
   37.3970   25.9840   33.9830 C   0  0  0  0  0  0  0  0  0  0  0  0
   37.4200   25.0030   33.0480 N   0  0  0  0  0  0  0  0  0  0  0  0
   37.9460   23.7760   33.3060 C   0  0  0  0  0  0  0  0  0  0  0  0
   38.4600   23.4860   34.4890 N   0  0  0  0  0  0  0  0  0  0  0  0
   37.9050   26.4790   35.9580 H   0  0  0  0  0  0  0  0  0  0  0  0
   37.9100   23.0880   32.4960 H   0  0  0  0  0  0  0  0  0  0  0  0
   36.8340   27.2740   33.6850 C   0  0  0  0  0  0  0  0  0  0  0  0
   36.6510   27.7840   32.4310 C   0  0  0  0  0  0  0  0  0  0  0  0
   36.0870   29.0400   32.6340 C   0  0  0  0  0  0  0  0  0  0  0  0
   35.9430   29.2610   33.9670 N   0  0  0  0  0  0  0  0  0  0  0  0
   36.4040   28.1730   34.6000 N   0  0  0  0  0  0  0  0  0  0  0  0
   36.8780   27.3500   31.4640 H   0  0  0  0  0  0  0  0  0  0  0  0
   35.7870   29.7730   31.8790 H   0  0  0  0  0  0  0  0  0  0  0  0
   35.3920   30.4520   34.5970 C   0  0  0  0  0  2  0  0  0  0  0  0
   34.3100   30.3350   34.8430 H   0  0  0  0  0  0  0  0  0  0  0  0
   38.9670   24.2770   36.7590 O   0  0  0  0  0  0  0  0  0  0  0  0
   38.2200   23.8190   37.8410 C   0  0  0  0  0  0  0  0  0  0  0  0
   37.0800   23.1340   37.4300 F   0  0  0  0  0  0  0  0  0  0  0  0
   37.8720   24.8820   38.6290 F   0  0  0  0  0  0  0  0  0  0  0  0
   39.0150   22.9660   38.5880 F   0  0  0  0  0  0  0  0  0  0  0  0
  1 18  1  0  0  0  0
  2  1  1  0  0  0  0
  2  7  1  0  0  0  0
  3  2  2  0  0  0  0
  4  5  2  0  0  0  0
  4  3  1  0  0  0  0
  5  6  1  0  0  0  0
  6  1  2  0  0  0  0
  8  5  1  0  0  0  0
  9  3  1  0  0  0  0
  9 13  2  0  0  0  0
 10 11  2  0  0  0  0
 10  9  1  0  0  0  0
 11 12  1  0  0  0  0
 12 16  1  0  0  0  0
 12 13  1  0  0  0  0
 14 10  1  0  0  0  0
 15 11  1  0  0  0  0
 16 17  1  0  0  0  0
 18 19  1  0  0  0  0
 19 22  1  0  0  0  0
 19 21  1  0  0  0  0
 20 19  1  0  0  0  0
M  END
>  <minimizedAffinity>
-4.52308655

$$$$

 OpenBabel03272503393D

 22 23  0  0  0  0  0  0  0  0999 V2000
   37.0010   27.4240   33.8470 C   0  0  0  0  0  0  0  0  0  0  0  0
   36.5520   28.4060   34.7250 C   0  0  0  0  0  0  0  0  0  0  0  0
   35.7240   29.4260   34.2860 C   0  0  0  0  0  0  0  0  0  0  0  0
   35.3810   29.4060   32.9740 N   0  0  0  0  0  0  0  0  0  0  0  0
   35.8270   28.4380   32.1290 C   0  0  0  0  0  0  0  0  0  0  0  0
   36.6190   27.4690   32.5550 N   0  0  0  0  0  0  0  0  0  0  0  0
   36.8140   28.4420   35.7850 H   0  0  0  0  0  0  0  0  0  0  0  0
   35.4940   28.5260   31.1230 H   0  0  0  0  0  0  0  0  0  0  0  0
   35.2380   30.4600   35.1600 C   0  0  0  0  0  0  0  0  0  0  0  0
   36.0190   31.3630   35.8230 C   0  0  0  0  0  0  0  0  0  0  0  0
   35.1250   32.1560   36.5350 C   0  0  0  0  0  0  0  0  0  0  0  0
   33.8560   31.7300   36.2990 N   0  0  0  0  0  0  0  0  0  0  0  0
   33.9390   30.6910   35.4550 N   0  0  0  0  0  0  0  0  0  0  0  0
   37.0970   31.4800   35.8270 H   0  0  0  0  0  0  0  0  0  0  0  0
   35.3500   32.9990   37.1960 H   0  0  0  0  0  0  0  0  0  0  0  0
   32.6330   32.2910   36.8530 C   0  0  0  0  0  2  0  0  0  0  0  0
   32.1540   33.0240   36.1600 H   0  0  0  0  0  0  0  0  0  0  0  0
   37.8210   26.4840   34.4570 O   0  0  0  0  0  0  0  0  0  0  0  0
   39.1680   26.6910   34.7470 C   0  0  0  0  0  0  0  0  0  0  0  0
   39.8700   25.4910   34.8300 F   0  0  0  0  0  0  0  0  0  0  0  0
   39.2730   27.3800   35.9240 F   0  0  0  0  0  0  0  0  0  0  0  0
   39.7150   27.4660   33.7380 F   0  0  0  0  0  0  0  0  0  0  0  0
  1 18  1  0  0  0  0
  1  2  1  0  0  0  0
  2  7  1  0  0  0  0
  3  2  2  0  0  0  0
  3  9  1  0  0  0  0
  4  3  1  0  0  0  0
  5  6  1  0  0  0  0
  5  4  2  0  0  0  0
  6  1  2  0  0  0  0
  8  5  1  0  0  0  0
  9 13  2  0  0  0  0
  9 10  1  0  0  0  0
 10 14  1  0  0  0  0
 10 11  2  0  0  0  0
 11 15  1  0  0  0  0
 12 11  1  0  0  0  0
 12 16  1  0  0  0  0
 13 12  1  0  0  0  0
 17 16  1  0  0  0  0
 18 19  1  0  0  0  0
 19 20  1  0  0  0  0
 19 21  1  0  0  0  0
 22 19  1  0  0  0  0
M  END
>  <minimizedAffinity>
-4.37713337

$$$$

 OpenBabel03272503393D

 22 23  0  0  0  0  0  0  0  0999 V2000
   38.2720   24.9990   36.0540 C   0  0  0  0  0  0  0  0  0  0  0  0
   39.5940   25.0980   35.6300 C   0  0  0  0  0  0  0  0  0  0  0  0
   40.0230   26.1900   34.8930 C   0  0  0  0  0  0  0  0  0  0  0  0
   39.0930   27.1370   34.6170 N   0  0  0  0  0  0  0  0  0  0  0  0
   37.8050   27.0260   35.0390 C   0  0  0  0  0  0  0  0  0  0  0  0
   37.4030   25.9800   35.7410 N   0  0  0  0  0  0  0  0  0  0  0  0
   40.3600   24.3490   35.8410 H   0  0  0  0  0  0  0  0  0  0  0  0
   37.1660   27.8290   34.7620 H   0  0  0  0  0  0  0  0  0  0  0  0
   41.3790   26.3320   34.4360 C   0  0  0  0  0  0  0  0  0  0  0  0
   42.4440   25.6060   34.8900 C   0  0  0  0  0  0  0  0  0  0  0  0
   43.5350   26.0840   34.1700 C   0  0  0  0  0  0  0  0  0  0  0  0
   43.1230   27.0610   33.3190 N   0  0  0  0  0  0  0  0  0  0  0  0
   41.8020   27.2030   33.4920 N   0  0  0  0  0  0  0  0  0  0  0  0
   42.4850   24.8250   35.6390 H   0  0  0  0  0  0  0  0  0  0  0  0
   44.5790   25.7620   34.2360 H   0  0  0  0  0  0  0  0  0  0  0  0
   43.9550   27.8140   32.3920 C   0  0  0  0  0  2  0  0  0  0  0  0
   43.9370   27.3810   31.3640 H   0  0  0  0  0  0  0  0  0  0  0  0
   38.0200   23.8410   36.7790 O   0  0  0  0  0  0  0  0  0  0  0  0
   38.1700   23.7320   38.1590 C   0  0  0  0  0  0  0  0  0  0  0  0
   37.2430   22.8550   38.7130 F   0  0  0  0  0  0  0  0  0  0  0  0
   38.0420   24.9720   38.7240 F   0  0  0  0  0  0  0  0  0  0  0  0
   39.4470   23.2650   38.4210 F   0  0  0  0  0  0  0  0  0  0  0  0
  1 18  1  0  0  0  0
  2  7  1  0  0  0  0
  2  1  2  0  0  0  0
  3  2  1  0  0  0  0
  4  3  2  0  0  0  0
  4  5  1  0  0  0  0
  5  6  2  0  0  0  0
  6  1  1  0  0  0  0
  8  5  1  0  0  0  0
  9 10  1  0  0  0  0
  9  3  1  0  0  0  0
 10 14  1  0  0  0  0
 11 15  1  0  0  0  0
 11 10  2  0  0  0  0
 12 13  1  0  0  0  0
 12 11  1  0  0  0  0
 13  9  2  0  0  0  0
 16 12  1  0  0  0  0
 17 16  1  0  0  0  0
 18 19  1  0  0  0  0
 19 22  1  0  0  0  0
 19 20  1  0  0  0  0
 19 21  1  0  0  0  0
M  END
>  <minimizedAffinity>
-4.35806894

$$$$

 OpenBabel03272503393D

 22 23  0  0  0  0  0  0  0  0999 V2000
   38.9680   24.0140   35.9330 C   0  0  0  0  0  0  0  0  0  0  0  0
   37.9700   23.4240   35.1630 C   0  0  0  0  0  0  0  0  0  0  0  0
   38.2070   23.0640   33.8470 C   0  0  0  0  0  0  0  0  0  0  0  0
   39.4490   23.3150   33.3650 N   0  0  0  0  0  0  0  0  0  0  0  0
   40.4140   23.8910   34.1300 C   0  0  0  0  0  0  0  0  0  0  0  0
   40.1800   24.2330   35.3850 N   0  0  0  0  0  0  0  0  0  0  0  0
   36.9620   23.2120   35.5300 H   0  0  0  0  0  0  0  0  0  0  0  0
   41.3490   24.0400   33.6450 H   0  0  0  0  0  0  0  0  0  0  0  0
   37.2030   22.4530   33.0180 C   0  0  0  0  0  0  0  0  0  0  0  0
   36.6590   23.0130   31.8970 C   0  0  0  0  0  0  0  0  0  0  0  0
   35.7460   22.0710   31.4330 C   0  0  0  0  0  0  0  0  0  0  0  0
   35.7530   20.9900   32.2580 N   0  0  0  0  0  0  0  0  0  0  0  0
   36.6490   21.2370   33.2230 N   0  0  0  0  0  0  0  0  0  0  0  0
   36.8580   23.9710   31.4310 H   0  0  0  0  0  0  0  0  0  0  0  0
   35.0990   22.1360   30.5530 H   0  0  0  0  0  0  0  0  0  0  0  0
   34.9440   19.7880   32.1230 C   0  0  0  0  0  2  0  0  0  0  0  0
   35.4910   18.9680   31.6000 H   0  0  0  0  0  0  0  0  0  0  0  0
   38.5550   24.3080   37.2260 O   0  0  0  0  0  0  0  0  0  0  0  0
   38.6450   23.4230   38.2980 C   0  0  0  0  0  0  0  0  0  0  0  0
   39.0350   24.0670   39.4690 F   0  0  0  0  0  0  0  0  0  0  0  0
   39.5330   22.4300   37.9870 F   0  0  0  0  0  0  0  0  0  0  0  0
   37.3990   22.8490   38.4910 F   0  0  0  0  0  0  0  0  0  0  0  0
  1 18  1  0  0  0  0
  2  7  1  0  0  0  0
  2  1  2  0  0  0  0
  3  2  1  0  0  0  0
  4  3  2  0  0  0  0
  4  5  1  0  0  0  0
  5  6  2  0  0  0  0
  6  1  1  0  0  0  0
  8  5  1  0  0  0  0
  9 13  2  0  0  0  0
  9  3  1  0  0  0  0
 10  9  1  0  0  0  0
 11 10  2  0  0  0  0
 11 12  1  0  0  0  0
 12 13  1  0  0  0  0
 14 10  1  0  0  0  0
 15 11  1  0  0  0  0
 16 12  1  0  0  0  0
 17 16  1  0  0  0  0
 18 19  1  0  0  0  0
 19 22  1  0  0  0  0
 19 20  1  0  0  0  0
 21 19  1  0  0  0  0
M  END
>  <minimizedAffinity>
-4.33890009

$$$$
