
 OpenBabel03272508093D

 17 17  0  0  0  0  0  0  0  0999 V2000
   37.7100   27.8070   35.2500 C   0  0  0  0  0  0  0  0  0  0  0  0
   38.3130   26.8820   36.1030 C   0  0  0  0  0  0  0  0  0  0  0  0
   38.4040   25.5630   35.6850 C   0  0  0  0  0  0  0  0  0  0  0  0
   37.9010   25.2330   34.4660 N   0  0  0  0  0  0  0  0  0  0  0  0
   37.3200   26.1610   33.6640 C   0  0  0  0  0  0  0  0  0  0  0  0
   37.2270   27.4470   34.0610 N   0  0  0  0  0  0  0  0  0  0  0  0
   37.6980   28.8080   35.6910 H   0  0  0  0  0  0  0  0  0  0  0  0
   38.7380   27.0410   37.0760 H   0  0  0  0  0  0  0  0  0  0  0  0
   36.9130   25.9120   32.6850 H   0  0  0  0  0  0  0  0  0  0  0  0
   38.9390   24.5010   36.3320 O   0  0  0  0  0  0  0  0  0  0  0  0
   37.7500   24.3940   38.7100 O   0  0  0  0  0  0  0  0  0  0  0  0
   38.3050   23.5830   37.5880 P   0  0  2  0  0  0  0  0  0  0  0  0
   39.4940   22.5150   38.1950 O   0  0  0  0  0  0  0  0  0  0  0  0
   39.3650   22.3710   39.1660 H   0  0  0  0  0  0  0  0  0  0  0  0
   37.0470   22.6090   36.9980 O   0  0  0  0  0  0  0  0  0  0  0  0
   37.4000   21.9550   35.8170 C   0  0  0  0  0  2  0  0  0  0  0  0
   36.7000   22.2440   35.0090 H   0  0  0  0  0  0  0  0  0  0  0  0
  1  7  1  0  0  0  0
  1  2  1  0  0  0  0
  2  8  1  0  0  0  0
  3  2  2  0  0  0  0
  3 10  1  0  0  0  0
  4  3  1  0  0  0  0
  5  6  1  0  0  0  0
  5  4  2  0  0  0  0
  6  1  2  0  0  0  0
  9  5  1  0  0  0  0
 10 12  1  0  0  0  0
 12 13  1  0  0  0  0
 12 11  2  1  0  0  0
 13 14  1  0  0  0  0
 15 12  1  0  0  0  0
 16 15  1  0  0  0  0
 17 16  1  0  0  0  0
M  END
>  <minimizedAffinity>
-3.89278364

$$$$

 OpenBabel03272508093D

 17 17  0  0  0  0  0  0  0  0999 V2000
   38.7780   23.4450   38.3990 C   0  0  0  0  0  0  0  0  0  0  0  0
   37.9700   24.3190   37.6700 C   0  0  0  0  0  0  0  0  0  0  0  0
   38.2780   24.5420   36.3360 C   0  0  0  0  0  0  0  0  0  0  0  0
   39.3510   23.9010   35.8020 N   0  0  0  0  0  0  0  0  0  0  0  0
   40.1140   23.0580   36.5430 C   0  0  0  0  0  0  0  0  0  0  0  0
   39.8240   22.8340   37.8420 N   0  0  0  0  0  0  0  0  0  0  0  0
   38.4350   23.3530   39.4320 H   0  0  0  0  0  0  0  0  0  0  0  0
   37.1080   24.8680   37.9960 H   0  0  0  0  0  0  0  0  0  0  0  0
   40.9770   22.5380   36.1300 H   0  0  0  0  0  0  0  0  0  0  0  0
   37.6470   25.3370   35.4400 O   0  0  0  0  0  0  0  0  0  0  0  0
   38.7880   27.0850   33.7890 O   0  0  0  0  0  0  0  0  0  0  0  0
   37.9600   26.9340   35.0210 P   0  0  2  0  0  0  0  0  0  0  0  0
   38.7240   27.7440   36.3180 O   0  0  0  0  0  0  0  0  0  0  0  0
   39.3520   28.4290   35.9770 H   0  0  0  0  0  0  0  0  0  0  0  0
   36.4960   27.7460   34.7480 O   0  0  0  0  0  0  0  0  0  0  0  0
   36.4410   28.3150   33.4760 C   0  0  0  0  0  2  0  0  0  0  0  0
   36.2970   29.4100   33.5640 H   0  0  0  0  0  0  0  0  0  0  0  0
  1  7  1  0  0  0  0
  2  8  1  0  0  0  0
  2  1  2  0  0  0  0
  3  2  1  0  0  0  0
  4  3  2  0  0  0  0
  4  5  1  0  0  0  0
  5  6  2  0  0  0  0
  6  1  1  0  0  0  0
  9  5  1  0  0  0  0
 10  3  1  0  0  0  0
 12 11  2  6  0  0  0
 12 10  1  0  0  0  0
 12 13  1  0  0  0  0
 14 13  1  0  0  0  0
 15 12  1  0  0  0  0
 16 17  1  0  0  0  0
 16 15  1  0  0  0  0
M  END
>  <minimizedAffinity>
-3.89057231

$$$$

 OpenBabel03272508093D

 17 17  0  0  0  0  0  0  0  0999 V2000
   39.8460   22.8050   37.5410 C   0  0  0  0  0  0  0  0  0  0  0  0
   39.8940   23.4410   36.3010 C   0  0  0  0  0  0  0  0  0  0  0  0
   38.9780   24.4500   36.0420 C   0  0  0  0  0  0  0  0  0  0  0  0
   38.0780   24.7710   37.0090 N   0  0  0  0  0  0  0  0  0  0  0  0
   38.0610   24.1290   38.2040 C   0  0  0  0  0  0  0  0  0  0  0  0
   38.9480   23.1450   38.4660 N   0  0  0  0  0  0  0  0  0  0  0  0
   40.6140   22.0310   37.6230 H   0  0  0  0  0  0  0  0  0  0  0  0
   40.5610   23.2630   35.4780 H   0  0  0  0  0  0  0  0  0  0  0  0
   37.3460   24.3740   38.9870 H   0  0  0  0  0  0  0  0  0  0  0  0
   38.8340   25.2010   34.9250 O   0  0  0  0  0  0  0  0  0  0  0  0
   40.3050   27.2560   34.0950 O   0  0  0  0  0  0  0  0  0  0  0  0
   39.0110   26.8590   34.7210 P   0  0  2  0  0  0  0  0  0  0  0  0
   38.8410   27.6580   36.2230 O   0  0  0  0  0  0  0  0  0  0  0  0
   39.4140   28.4650   36.2530 H   0  0  0  0  0  0  0  0  0  0  0  0
   37.7680   27.4440   33.7260 O   0  0  0  0  0  0  0  0  0  0  0  0
   36.6720   27.8900   34.4650 C   0  0  0  0  0  2  0  0  0  0  0  0
   35.7690   27.3160   34.1740 H   0  0  0  0  0  0  0  0  0  0  0  0
  1  7  1  0  0  0  0
  1  6  1  0  0  0  0
  2  1  2  0  0  0  0
  3  2  1  0  0  0  0
  3  4  2  0  0  0  0
  4  5  1  0  0  0  0
  5  6  2  0  0  0  0
  5  9  1  0  0  0  0
  8  2  1  0  0  0  0
 10  3  1  0  0  0  0
 12 11  2  6  0  0  0
 12 10  1  0  0  0  0
 12 13  1  0  0  0  0
 13 14  1  0  0  0  0
 15 16  1  0  0  0  0
 15 12  1  0  0  0  0
 17 16  1  0  0  0  0
M  END
>  <minimizedAffinity>
-3.80802727

$$$$

 OpenBabel03272508093D

 17 17  0  0  0  0  0  0  0  0999 V2000
   39.4890   26.9900   34.1440 C   0  0  0  0  0  0  0  0  0  0  0  0
   39.5810   26.2790   35.3410 C   0  0  0  0  0  0  0  0  0  0  0  0
   38.4280   25.7020   35.8540 C   0  0  0  0  0  0  0  0  0  0  0  0
   37.2660   25.8560   35.1670 N   0  0  0  0  0  0  0  0  0  0  0  0
   37.2150   26.5550   34.0050 C   0  0  0  0  0  0  0  0  0  0  0  0
   38.3300   27.1210   33.4970 N   0  0  0  0  0  0  0  0  0  0  0  0
   40.4590   27.3960   33.8460 H   0  0  0  0  0  0  0  0  0  0  0  0
   40.4440   26.1010   35.9540 H   0  0  0  0  0  0  0  0  0  0  0  0
   36.2920   26.6870   33.4440 H   0  0  0  0  0  0  0  0  0  0  0  0
   38.2730   24.9750   36.9850 O   0  0  0  0  0  0  0  0  0  0  0  0
   37.1070   22.5940   36.7610 O   0  0  0  0  0  0  0  0  0  0  0  0
   38.3380   23.3100   37.2030 P   0  0  2  0  0  0  0  0  0  0  0  0
   38.6470   22.9440   38.8440 O   0  0  0  0  0  0  0  0  0  0  0  0
   38.1990   22.0990   39.1010 H   0  0  0  0  0  0  0  0  0  0  0  0
   39.6380   22.6730   36.3200 O   0  0  0  0  0  0  0  0  0  0  0  0
   40.6240   22.1380   37.1490 C   0  0  0  0  0  2  0  0  0  0  0  0
   41.5840   22.6590   36.9700 H   0  0  0  0  0  0  0  0  0  0  0  0
  1  2  1  0  0  0  0
  2  3  2  0  0  0  0
  2  8  1  0  0  0  0
  3 10  1  0  0  0  0
  4  3  1  0  0  0  0
  5  4  2  0  0  0  0
  6  5  1  0  0  0  0
  6  1  2  0  0  0  0
  7  1  1  0  0  0  0
  9  5  1  0  0  0  0
 10 12  1  0  0  0  0
 12 11  2  6  0  0  0
 12 13  1  0  0  0  0
 13 14  1  0  0  0  0
 15 16  1  0  0  0  0
 15 12  1  0  0  0  0
 17 16  1  0  0  0  0
M  END
>  <minimizedAffinity>
-3.52105618

$$$$

 OpenBabel03272508093D

 17 17  0  0  0  0  0  0  0  0999 V2000
   37.7580   27.3990   35.2800 C   0  0  0  0  0  0  0  0  0  0  0  0
   38.6700   26.5620   35.9240 C   0  0  0  0  0  0  0  0  0  0  0  0
   38.8780   25.2920   35.4060 C   0  0  0  0  0  0  0  0  0  0  0  0
   38.1840   24.9240   34.2970 N   0  0  0  0  0  0  0  0  0  0  0  0
   37.3050   25.7650   33.6980 C   0  0  0  0  0  0  0  0  0  0  0  0
   37.0950   27.0030   34.1940 N   0  0  0  0  0  0  0  0  0  0  0  0
   37.6820   28.3670   35.7820 H   0  0  0  0  0  0  0  0  0  0  0  0
   39.2630   26.7580   36.7970 H   0  0  0  0  0  0  0  0  0  0  0  0
   36.7420   25.4840   32.8090 H   0  0  0  0  0  0  0  0  0  0  0  0
   39.7030   24.3160   35.8530 O   0  0  0  0  0  0  0  0  0  0  0  0
   40.3860   21.8640   36.6260 O   0  0  0  0  0  0  0  0  0  0  0  0
   39.3390   22.9220   36.7170 P   0  0  2  0  0  0  0  0  0  0  0  0
   37.8410   22.2820   36.1980 O   0  0  0  0  0  0  0  0  0  0  0  0
   37.8450   21.2940   36.2650 H   0  0  0  0  0  0  0  0  0  0  0  0
   39.1490   23.3060   38.3590 O   0  0  0  0  0  0  0  0  0  0  0  0
   37.9350   23.9440   38.6110 C   0  0  0  0  0  2  0  0  0  0  0  0
   38.1230   24.9410   39.0550 H   0  0  0  0  0  0  0  0  0  0  0  0
  1  7  1  0  0  0  0
  1  2  1  0  0  0  0
  2  8  1  0  0  0  0
  3 10  1  0  0  0  0
  3  2  2  0  0  0  0
  4  3  1  0  0  0  0
  5  6  1  0  0  0  0
  5  4  2  0  0  0  0
  6  1  2  0  0  0  0
  9  5  1  0  0  0  0
 10 12  1  0  0  0  0
 12 11  2  6  0  0  0
 12 15  1  0  0  0  0
 13 14  1  0  0  0  0
 13 12  1  0  0  0  0
 15 16  1  0  0  0  0
 16 17  1  0  0  0  0
M  END
>  <minimizedAffinity>
-3.42523503

$$$$

 OpenBabel03272508093D

 17 17  0  0  0  0  0  0  0  0999 V2000
   40.0870   23.1410   36.3860 C   0  0  0  0  0  0  0  0  0  0  0  0
   39.4440   24.1830   35.7180 C   0  0  0  0  0  0  0  0  0  0  0  0
   38.3860   24.8180   36.3520 C   0  0  0  0  0  0  0  0  0  0  0  0
   38.0280   24.3960   37.5940 N   0  0  0  0  0  0  0  0  0  0  0  0
   38.6780   23.3780   38.2120 C   0  0  0  0  0  0  0  0  0  0  0  0
   39.7080   22.7530   37.6040 N   0  0  0  0  0  0  0  0  0  0  0  0
   40.8990   22.7230   35.7850 H   0  0  0  0  0  0  0  0  0  0  0  0
   39.6500   24.5880   34.7450 H   0  0  0  0  0  0  0  0  0  0  0  0
   38.4020   23.0290   39.2060 H   0  0  0  0  0  0  0  0  0  0  0  0
   37.6190   25.8410   35.9080 O   0  0  0  0  0  0  0  0  0  0  0  0
   37.0900   25.6190   33.3100 O   0  0  0  0  0  0  0  0  0  0  0  0
   37.5540   26.5450   34.3840 P   0  0  2  0  0  0  0  0  0  0  0  0
   39.0850   27.1790   33.9620 O   0  0  0  0  0  0  0  0  0  0  0  0
   39.2290   27.1130   32.9850 H   0  0  0  0  0  0  0  0  0  0  0  0
   36.4840   27.8610   34.4130 O   0  0  0  0  0  0  0  0  0  0  0  0
   36.2820   28.4000   33.1420 C   0  0  0  0  0  2  0  0  0  0  0  0
   36.5870   29.4650   33.1360 H   0  0  0  0  0  0  0  0  0  0  0  0
  1  6  1  0  0  0  0
  2  3  1  0  0  0  0
  2  1  2  0  0  0  0
  3  4  2  0  0  0  0
  4  5  1  0  0  0  0
  5  9  1  0  0  0  0
  6  5  2  0  0  0  0
  7  1  1  0  0  0  0
  8  2  1  0  0  0  0
 10  3  1  0  0  0  0
 12 11  2  6  0  0  0
 12 15  1  0  0  0  0
 12 10  1  0  0  0  0
 13 12  1  0  0  0  0
 14 13  1  0  0  0  0
 16 15  1  0  0  0  0
 17 16  1  0  0  0  0
M  END
>  <minimizedAffinity>
-3.27057672

$$$$

 OpenBabel03272508093D

 17 17  0  0  0  0  0  0  0  0999 V2000
   36.4570   23.8200   31.8410 C   0  0  0  0  0  0  0  0  0  0  0  0
   37.3450   23.0650   32.6070 C   0  0  0  0  0  0  0  0  0  0  0  0
   38.0980   23.7140   33.5740 C   0  0  0  0  0  0  0  0  0  0  0  0
   37.9350   25.0550   33.7290 N   0  0  0  0  0  0  0  0  0  0  0  0
   37.0610   25.7570   32.9650 C   0  0  0  0  0  0  0  0  0  0  0  0
   36.3240   25.1350   32.0210 N   0  0  0  0  0  0  0  0  0  0  0  0
   35.9250   23.1980   31.1160 H   0  0  0  0  0  0  0  0  0  0  0  0
   37.5440   22.0110   32.5620 H   0  0  0  0  0  0  0  0  0  0  0  0
   36.9210   26.8310   33.0780 H   0  0  0  0  0  0  0  0  0  0  0  0
   39.0130   23.1980   34.4270 O   0  0  0  0  0  0  0  0  0  0  0  0
   39.9970   21.9370   36.5530 O   0  0  0  0  0  0  0  0  0  0  0  0
   38.8230   22.6830   36.0150 P   0  0  2  0  0  0  0  0  0  0  0  0
   37.4220   21.7130   36.1560 O   0  0  0  0  0  0  0  0  0  0  0  0
   37.5520   21.0170   36.8490 H   0  0  0  0  0  0  0  0  0  0  0  0
   38.5750   24.0270   37.0210 O   0  0  0  0  0  0  0  0  0  0  0  0
   38.3160   23.6540   38.3400 C   0  0  0  0  0  2  0  0  0  0  0  0
   37.3250   24.0400   38.6480 H   0  0  0  0  0  0  0  0  0  0  0  0
  1  6  2  0  0  0  0
  1  2  1  0  0  0  0
  2  3  2  0  0  0  0
  3  4  1  0  0  0  0
  3 10  1  0  0  0  0
  5  9  1  0  0  0  0
  5  4  2  0  0  0  0
  6  5  1  0  0  0  0
  7  1  1  0  0  0  0
  8  2  1  0  0  0  0
 10 12  1  0  0  0  0
 12 13  1  0  0  0  0
 12 11  2  1  0  0  0
 12 15  1  0  0  0  0
 13 14  1  0  0  0  0
 15 16  1  0  0  0  0
 16 17  1  0  0  0  0
M  END
>  <minimizedAffinity>
-3.17208767

$$$$

 OpenBabel03272508093D

 17 17  0  0  0  0  0  0  0  0999 V2000
   35.6370   24.1660   31.1190 C   0  0  0  0  0  0  0  0  0  0  0  0
   36.6460   24.0880   32.0800 C   0  0  0  0  0  0  0  0  0  0  0  0
   37.1200   25.2680   32.6340 C   0  0  0  0  0  0  0  0  0  0  0  0
   36.5800   26.4430   32.2160 N   0  0  0  0  0  0  0  0  0  0  0  0
   35.6000   26.4800   31.2780 C   0  0  0  0  0  0  0  0  0  0  0  0
   35.1320   25.3380   30.7320 N   0  0  0  0  0  0  0  0  0  0  0  0
   35.3510   23.1740   30.7590 H   0  0  0  0  0  0  0  0  0  0  0  0
   37.1340   23.2170   32.4740 H   0  0  0  0  0  0  0  0  0  0  0  0
   35.1580   27.4130   30.9330 H   0  0  0  0  0  0  0  0  0  0  0  0
   38.0820   25.4400   33.5710 O   0  0  0  0  0  0  0  0  0  0  0  0
   37.8410   25.3570   36.2190 O   0  0  0  0  0  0  0  0  0  0  0  0
   38.0110   26.2530   35.0390 P   0  0  2  0  0  0  0  0  0  0  0  0
   36.7450   27.4030   35.0150 O   0  0  0  0  0  0  0  0  0  0  0  0
   36.3500   27.5010   35.9170 H   0  0  0  0  0  0  0  0  0  0  0  0
   39.4450   27.1290   35.2730 O   0  0  0  0  0  0  0  0  0  0  0  0
   40.5500   26.4820   34.7200 C   0  0  0  0  0  2  0  0  0  0  0  0
   41.2960   26.2770   35.5120 H   0  0  0  0  0  0  0  0  0  0  0  0
  1  2  1  0  0  0  0
  2  8  1  0  0  0  0
  2  3  2  0  0  0  0
  3 10  1  0  0  0  0
  4  3  1  0  0  0  0
  5  4  2  0  0  0  0
  6  1  2  0  0  0  0
  6  5  1  0  0  0  0
  7  1  1  0  0  0  0
  9  5  1  0  0  0  0
 10 12  1  0  0  0  0
 12 15  1  0  0  0  0
 12 11  2  1  0  0  0
 13 12  1  0  0  0  0
 13 14  1  0  0  0  0
 16 15  1  0  0  0  0
 16 17  1  0  0  0  0
M  END
>  <minimizedAffinity>
-3.15062571

$$$$

 OpenBabel03272508093D

 17 17  0  0  0  0  0  0  0  0999 V2000
   36.3420   23.3360   31.7850 C   0  0  0  0  0  0  0  0  0  0  0  0
   37.4540   23.2520   32.6240 C   0  0  0  0  0  0  0  0  0  0  0  0
   37.5570   22.1610   33.4740 C   0  0  0  0  0  0  0  0  0  0  0  0
   36.5720   21.2250   33.4490 N   0  0  0  0  0  0  0  0  0  0  0  0
   35.5050   21.3400   32.6190 C   0  0  0  0  0  0  0  0  0  0  0  0
   35.3940   22.3980   31.7880 N   0  0  0  0  0  0  0  0  0  0  0  0
   36.3750   24.2370   31.1670 H   0  0  0  0  0  0  0  0  0  0  0  0
   38.2790   23.9330   32.7170 H   0  0  0  0  0  0  0  0  0  0  0  0
   34.7080   20.5990   32.5880 H   0  0  0  0  0  0  0  0  0  0  0  0
   38.5320   21.8680   34.3660 O   0  0  0  0  0  0  0  0  0  0  0  0
   40.0040   21.9390   36.5810 O   0  0  0  0  0  0  0  0  0  0  0  0
   38.8120   22.5120   35.8930 P   0  0  2  0  0  0  0  0  0  0  0  0
   37.4330   22.3030   36.8820 O   0  0  0  0  0  0  0  0  0  0  0  0
   37.7010   22.1740   37.8260 H   0  0  0  0  0  0  0  0  0  0  0  0
   39.0580   24.1860   35.7650 O   0  0  0  0  0  0  0  0  0  0  0  0
   38.1010   24.9110   36.4750 C   0  0  0  0  0  2  0  0  0  0  0  0
   37.5540   25.5820   35.7830 H   0  0  0  0  0  0  0  0  0  0  0  0
  1  6  2  0  0  0  0
  1  2  1  0  0  0  0
  2  8  1  0  0  0  0
  2  3  2  0  0  0  0
  3 10  1  0  0  0  0
  4  3  1  0  0  0  0
  5  4  2  0  0  0  0
  6  5  1  0  0  0  0
  7  1  1  0  0  0  0
  9  5  1  0  0  0  0
 10 12  1  0  0  0  0
 12 11  2  1  0  0  0
 12 13  1  0  0  0  0
 13 14  1  0  0  0  0
 15 12  1  0  0  0  0
 15 16  1  0  0  0  0
 17 16  1  0  0  0  0
M  END
>  <minimizedAffinity>
-3.12453008

$$$$
