
 OpenBabel03262522203D

 12 12  0  0  0  0  0  0  0  0999 V2000
   39.6680   23.3080   36.2300 C   0  0  0  0  0  0  0  0  0  0  0  0
   39.7340   22.8560   37.5800 C   0  0  0  0  0  0  0  0  0  0  0  0
   38.7850   23.3330   38.4670 C   0  0  0  0  0  0  0  0  0  0  0  0
   37.8500   24.1950   38.0280 N   0  0  0  0  0  0  0  0  0  0  0  0
   37.8140   24.6060   36.7370 C   0  0  0  0  0  0  0  0  0  0  0  0
   38.7170   24.1690   35.8330 N   0  0  0  0  0  0  0  0  0  0  0  0
   40.3850   22.9670   35.4890 H   0  0  0  0  0  0  0  0  0  0  0  0
   38.8890   22.9620   39.4480 H   0  0  0  0  0  0  0  0  0  0  0  0
   37.0410   25.3100   36.3980 H   0  0  0  0  0  0  0  0  0  0  0  0
   40.7640   21.9780   37.8280 O   0  0  0  0  0  0  0  0  0  0  0  0
   41.5560   21.4770   36.7930 C   0  0  0  0  0  2  0  0  0  0  0  0
   41.4350   20.3760   36.7060 H   0  0  0  0  0  0  0  0  0  0  0  0
  1  2  1  0  0  0  0
  2 10  1  0  0  0  0
  2  3  2  0  0  0  0
  3  8  1  0  0  0  0
  4  3  1  0  0  0  0
  5  4  2  0  0  0  0
  6  1  2  0  0  0  0
  6  5  1  0  0  0  0
  7  1  1  0  0  0  0
  9  5  1  0  0  0  0
 11 10  1  0  0  0  0
 12 11  1  0  0  0  0
M  END
>  <minimizedAffinity>
-2.79129291

$$$$

 OpenBabel03262522203D

 12 12  0  0  0  0  0  0  0  0999 V2000
   39.4310   24.1410   35.8850 C   0  0  0  0  0  0  0  0  0  0  0  0
   38.3360   24.7500   36.5660 C   0  0  0  0  0  0  0  0  0  0  0  0
   38.0350   24.2940   37.8380 C   0  0  0  0  0  0  0  0  0  0  0  0
   38.7750   23.3080   38.3750 N   0  0  0  0  0  0  0  0  0  0  0  0
   39.8100   22.7490   37.7000 C   0  0  0  0  0  0  0  0  0  0  0  0
   40.1440   23.1590   36.4570 N   0  0  0  0  0  0  0  0  0  0  0  0
   39.7140   24.4570   34.8850 H   0  0  0  0  0  0  0  0  0  0  0  0
   37.2170   24.7840   38.2870 H   0  0  0  0  0  0  0  0  0  0  0  0
   40.4030   21.9440   38.1580 H   0  0  0  0  0  0  0  0  0  0  0  0
   37.7080   25.7390   35.8460 O   0  0  0  0  0  0  0  0  0  0  0  0
   38.1800   27.0530   35.8520 C   0  0  0  0  0  2  0  0  0  0  0  0
   37.4300   27.7360   36.3060 H   0  0  0  0  0  0  0  0  0  0  0  0
  1  6  2  0  0  0  0
  1  2  1  0  0  0  0
  2  3  2  0  0  0  0
  3  8  1  0  0  0  0
  3  4  1  0  0  0  0
  5  9  1  0  0  0  0
  5  4  2  0  0  0  0
  6  5  1  0  0  0  0
  7  1  1  0  0  0  0
 10 11  1  0  0  0  0
 10  2  1  0  0  0  0
 11 12  1  0  0  0  0
M  END
>  <minimizedAffinity>
-2.71394968

$$$$

 OpenBabel03262522203D

 12 12  0  0  0  0  0  0  0  0999 V2000
   39.5270   22.6980   36.5820 C   0  0  0  0  0  0  0  0  0  0  0  0
   38.3370   23.2790   36.0540 C   0  0  0  0  0  0  0  0  0  0  0  0
   37.4940   23.9350   36.9360 C   0  0  0  0  0  0  0  0  0  0  0  0
   37.8250   23.9970   38.2380 N   0  0  0  0  0  0  0  0  0  0  0  0
   38.9650   23.4330   38.7090 C   0  0  0  0  0  0  0  0  0  0  0  0
   39.8200   22.7830   37.8890 N   0  0  0  0  0  0  0  0  0  0  0  0
   40.2260   22.1720   35.9390 H   0  0  0  0  0  0  0  0  0  0  0  0
   36.6330   24.3410   36.4840 H   0  0  0  0  0  0  0  0  0  0  0  0
   39.2180   23.4970   39.7760 H   0  0  0  0  0  0  0  0  0  0  0  0
   38.1800   23.1060   34.6990 O   0  0  0  0  0  0  0  0  0  0  0  0
   37.6490   21.9260   34.1750 C   0  0  0  0  0  2  0  0  0  0  0  0
   38.4050   21.4020   33.5500 H   0  0  0  0  0  0  0  0  0  0  0  0
  1  6  1  0  0  0  0
  2  1  2  0  0  0  0
  2  3  1  0  0  0  0
  3  4  2  0  0  0  0
  4  5  1  0  0  0  0
  5  9  1  0  0  0  0
  6  5  2  0  0  0  0
  7  1  1  0  0  0  0
  8  3  1  0  0  0  0
 10  2  1  0  0  0  0
 11 10  1  0  0  0  0
 12 11  1  0  0  0  0
M  END
>  <minimizedAffinity>
-2.62111688

$$$$

 OpenBabel03262522203D

 12 12  0  0  0  0  0  0  0  0999 V2000
   37.7630   24.4160   36.8210 C   0  0  0  0  0  0  0  0  0  0  0  0
   38.7370   23.8580   35.9430 C   0  0  0  0  0  0  0  0  0  0  0  0
   39.7240   23.0620   36.4990 C   0  0  0  0  0  0  0  0  0  0  0  0
   39.7270   22.8490   37.8270 N   0  0  0  0  0  0  0  0  0  0  0  0
   38.7860   23.3960   38.6360 C   0  0  0  0  0  0  0  0  0  0  0  0
   37.8020   24.1790   38.1420 N   0  0  0  0  0  0  0  0  0  0  0  0
   36.9640   25.0480   36.4430 H   0  0  0  0  0  0  0  0  0  0  0  0
   40.4130   22.6810   35.7980 H   0  0  0  0  0  0  0  0  0  0  0  0
   38.8060   23.2090   39.7180 H   0  0  0  0  0  0  0  0  0  0  0  0
   38.5600   24.1950   34.6210 O   0  0  0  0  0  0  0  0  0  0  0  0
   37.9180   25.3790   34.2540 C   0  0  0  0  0  2  0  0  0  0  0  0
   36.9780   25.1590   33.7030 H   0  0  0  0  0  0  0  0  0  0  0  0
  1  6  1  0  0  0  0
  2  3  1  0  0  0  0
  2  1  2  0  0  0  0
  3  4  2  0  0  0  0
  4  5  1  0  0  0  0
  5  9  1  0  0  0  0
  6  5  2  0  0  0  0
  7  1  1  0  0  0  0
  8  3  1  0  0  0  0
 10  2  1  0  0  0  0
 11 10  1  0  0  0  0
 12 11  1  0  0  0  0
M  END
>  <minimizedAffinity>
-2.59616303

$$$$

 OpenBabel03262522203D

 12 12  0  0  0  0  0  0  0  0999 V2000
   38.2370   26.3370   36.2790 C   0  0  0  0  0  0  0  0  0  0  0  0
   38.4660   24.9330   36.1800 C   0  0  0  0  0  0  0  0  0  0  0  0
   39.5270   24.5080   35.4000 C   0  0  0  0  0  0  0  0  0  0  0  0
   40.2910   25.4210   34.7730 N   0  0  0  0  0  0  0  0  0  0  0  0
   40.0460   26.7490   34.8880 C   0  0  0  0  0  0  0  0  0  0  0  0
   39.0230   27.2150   35.6380 N   0  0  0  0  0  0  0  0  0  0  0  0
   37.4200   26.7300   36.8770 H   0  0  0  0  0  0  0  0  0  0  0  0
   39.6420   23.4600   35.3670 H   0  0  0  0  0  0  0  0  0  0  0  0
   40.6820   27.4800   34.3690 H   0  0  0  0  0  0  0  0  0  0  0  0
   37.5750   24.1670   36.8950 O   0  0  0  0  0  0  0  0  0  0  0  0
   37.8440   23.7750   38.2080 C   0  0  0  0  0  2  0  0  0  0  0  0
   37.9290   22.6690   38.2750 H   0  0  0  0  0  0  0  0  0  0  0  0
  1  7  1  0  0  0  0
  2  1  1  0  0  0  0
  2 10  1  0  0  0  0
  3  2  2  0  0  0  0
  4  5  2  0  0  0  0
  4  3  1  0  0  0  0
  5  6  1  0  0  0  0
  6  1  2  0  0  0  0
  8  3  1  0  0  0  0
  9  5  1  0  0  0  0
 10 11  1  0  0  0  0
 11 12  1  0  0  0  0
M  END
>  <minimizedAffinity>
-2.57524824

$$$$

 OpenBabel03262522203D

 12 12  0  0  0  0  0  0  0  0999 V2000
   38.3430   24.6280   34.9990 C   0  0  0  0  0  0  0  0  0  0  0  0
   38.0870   25.0990   36.3200 C   0  0  0  0  0  0  0  0  0  0  0  0
   37.7080   24.1690   37.2730 C   0  0  0  0  0  0  0  0  0  0  0  0
   37.5960   22.8750   36.9210 N   0  0  0  0  0  0  0  0  0  0  0  0
   37.8460   22.4600   35.6550 C   0  0  0  0  0  0  0  0  0  0  0  0
   38.2200   23.3280   34.6900 N   0  0  0  0  0  0  0  0  0  0  0  0
   38.6450   25.3110   34.2100 H   0  0  0  0  0  0  0  0  0  0  0  0
   37.5320   24.5800   38.2280 H   0  0  0  0  0  0  0  0  0  0  0  0
   37.7500   21.3980   35.3880 H   0  0  0  0  0  0  0  0  0  0  0  0
   38.2570   26.4550   36.4760 O   0  0  0  0  0  0  0  0  0  0  0  0
   38.9820   27.2070   35.5490 C   0  0  0  0  0  2  0  0  0  0  0  0
   39.8870   27.6440   36.0240 H   0  0  0  0  0  0  0  0  0  0  0  0
  1  2  1  0  0  0  0
  2 10  1  0  0  0  0
  2  3  2  0  0  0  0
  3  8  1  0  0  0  0
  4  3  1  0  0  0  0
  5  4  2  0  0  0  0
  6  1  2  0  0  0  0
  6  5  1  0  0  0  0
  7  1  1  0  0  0  0
  9  5  1  0  0  0  0
 11 12  1  0  0  0  0
 11 10  1  0  0  0  0
M  END
>  <minimizedAffinity>
-2.568681

$$$$

 OpenBabel03262522203D

 12 12  0  0  0  0  0  0  0  0999 V2000
   39.4910   24.5170   35.5210 C   0  0  0  0  0  0  0  0  0  0  0  0
   38.4060   25.0810   36.2530 C   0  0  0  0  0  0  0  0  0  0  0  0
   38.2680   26.4580   36.2420 C   0  0  0  0  0  0  0  0  0  0  0  0
   39.1510   27.2020   35.5520 N   0  0  0  0  0  0  0  0  0  0  0  0
   40.1740   26.6350   34.8660 C   0  0  0  0  0  0  0  0  0  0  0  0
   40.3510   25.2950   34.8450 N   0  0  0  0  0  0  0  0  0  0  0  0
   39.6500   23.4430   35.4930 H   0  0  0  0  0  0  0  0  0  0  0  0
   37.4480   26.8120   36.8020 H   0  0  0  0  0  0  0  0  0  0  0  0
   40.8840   27.2600   34.3080 H   0  0  0  0  0  0  0  0  0  0  0  0
   37.6160   24.1530   36.8910 O   0  0  0  0  0  0  0  0  0  0  0  0
   37.8720   23.7640   38.2080 C   0  0  0  0  0  2  0  0  0  0  0  0
   38.1370   22.6860   38.2520 H   0  0  0  0  0  0  0  0  0  0  0  0
  1  2  1  0  0  0  0
  2 10  1  0  0  0  0
  3  2  2  0  0  0  0
  3  8  1  0  0  0  0
  4  3  1  0  0  0  0
  5  4  2  0  0  0  0
  6  5  1  0  0  0  0
  6  1  2  0  0  0  0
  7  1  1  0  0  0  0
  9  5  1  0  0  0  0
 10 11  1  0  0  0  0
 11 12  1  0  0  0  0
M  END
>  <minimizedAffinity>
-2.56730986

$$$$

 OpenBabel03262522203D

 12 12  0  0  0  0  0  0  0  0999 V2000
   39.8000   23.8380   35.8500 C   0  0  0  0  0  0  0  0  0  0  0  0
   39.5440   23.0750   37.0260 C   0  0  0  0  0  0  0  0  0  0  0  0
   40.5820   22.3170   37.5410 C   0  0  0  0  0  0  0  0  0  0  0  0
   41.7760   22.3290   36.9200 N   0  0  0  0  0  0  0  0  0  0  0  0
   41.9860   23.0650   35.8020 C   0  0  0  0  0  0  0  0  0  0  0  0
   41.0060   23.8220   35.2610 N   0  0  0  0  0  0  0  0  0  0  0  0
   39.0250   24.4530   35.4010 H   0  0  0  0  0  0  0  0  0  0  0  0
   40.3290   21.7770   38.4100 H   0  0  0  0  0  0  0  0  0  0  0  0
   42.9690   23.0620   35.3100 H   0  0  0  0  0  0  0  0  0  0  0  0
   38.2620   23.1980   37.5080 O   0  0  0  0  0  0  0  0  0  0  0  0
   37.9330   24.1640   38.4610 C   0  0  0  0  0  2  0  0  0  0  0  0
   37.6020   23.6830   39.4060 H   0  0  0  0  0  0  0  0  0  0  0  0
  1  2  1  0  0  0  0
  2 10  1  0  0  0  0
  2  3  2  0  0  0  0
  3  8  1  0  0  0  0
  4  3  1  0  0  0  0
  5  4  2  0  0  0  0
  6  5  1  0  0  0  0
  6  1  2  0  0  0  0
  7  1  1  0  0  0  0
  9  5  1  0  0  0  0
 10 11  1  0  0  0  0
 11 12  1  0  0  0  0
M  END
>  <minimizedAffinity>
-2.43136954

$$$$

 OpenBabel03262522203D

 12 12  0  0  0  0  0  0  0  0999 V2000
   36.8830   24.2660   32.2290 C   0  0  0  0  0  0  0  0  0  0  0  0
   35.7810   24.0180   31.3600 C   0  0  0  0  0  0  0  0  0  0  0  0
   35.0720   25.1100   30.8900 C   0  0  0  0  0  0  0  0  0  0  0  0
   35.4440   26.3470   31.2660 N   0  0  0  0  0  0  0  0  0  0  0  0
   36.4980   26.5500   32.0950 C   0  0  0  0  0  0  0  0  0  0  0  0
   37.2210   25.5170   32.5800 N   0  0  0  0  0  0  0  0  0  0  0  0
   37.4760   23.4490   32.6290 H   0  0  0  0  0  0  0  0  0  0  0  0
   34.2700   24.8600   30.2530 H   0  0  0  0  0  0  0  0  0  0  0  0
   36.7860   27.5680   32.3900 H   0  0  0  0  0  0  0  0  0  0  0  0
   35.5630   22.6860   31.0960 O   0  0  0  0  0  0  0  0  0  0  0  0
   35.3860   21.7610   32.1270 C   0  0  0  0  0  2  0  0  0  0  0  0
   36.2070   21.0120   32.1240 H   0  0  0  0  0  0  0  0  0  0  0  0
  1  6  1  0  0  0  0
  1  7  1  0  0  0  0
  2  1  2  0  0  0  0
  3  4  2  0  0  0  0
  3  2  1  0  0  0  0
  4  5  1  0  0  0  0
  5  9  1  0  0  0  0
  5  6  2  0  0  0  0
  8  3  1  0  0  0  0
 10  2  1  0  0  0  0
 10 11  1  0  0  0  0
 12 11  1  0  0  0  0
M  END
>  <minimizedAffinity>
-2.43071723

$$$$
