
 OpenBabel03262522183D

 17 17  0  0  0  0  0  0  0  0999 V2000
   37.1590   30.2970   51.2930 C   0  0  0  0  0  0  0  0  0  0  0  0
   37.7060   30.5950   50.0210 C   0  0  0  0  0  0  0  0  0  0  0  0
   37.1340   29.9720   48.9160 C   0  0  0  0  0  0  0  0  0  0  0  0
   36.0840   29.1160   49.1150 N   0  0  0  0  0  0  0  0  0  0  0  0
   35.6060   28.8690   50.3430 C   0  0  0  0  0  0  0  0  0  0  0  0
   36.1240   29.4460   51.4430 N   0  0  0  0  0  0  0  0  0  0  0  0
   37.5680   30.7570   52.1950 H   0  0  0  0  0  0  0  0  0  0  0  0
   37.5480   30.1960   47.9410 H   0  0  0  0  0  0  0  0  0  0  0  0
   34.7710   28.1820   50.4590 H   0  0  0  0  0  0  0  0  0  0  0  0
   38.7620   31.4760   49.9680 O   0  0  0  0  0  0  0  0  0  0  0  0
   37.3570   33.5290   49.2210 O   0  0  0  0  0  0  0  0  0  0  0  0
   38.7730   32.9860   49.2020 P   0  0  1  0  0  0  0  0  0  0  0  0
   39.7230   34.0020   50.2050 O   0  0  0  0  0  0  0  0  0  0  0  0
   40.5230   34.3330   49.7360 H   0  0  0  0  0  0  0  0  0  0  0  0
   39.3090   32.9920   47.6370 O   0  0  0  0  0  0  0  0  0  0  0  0
   38.4060   32.3400   46.7960 C   0  0  0  0  0  0  0  0  0  0  0  0
   38.6570   31.2790   46.6470 H   0  0  0  0  0  0  0  0  0  0  0  0
  1  6  1  0  0  0  0
  1  7  1  0  0  0  0
  2  1  2  0  0  0  0
  3  4  2  0  0  0  0
  3  2  1  0  0  0  0
  4  5  1  0  0  0  0
  5  9  1  0  0  0  0
  5  6  2  0  0  0  0
  8  3  1  0  0  0  0
 10  2  1  0  0  0  0
 12 11  2  1  0  0  0
 12 10  1  0  0  0  0
 12 13  1  0  0  0  0
 14 13  1  0  0  0  0
 15 12  1  0  0  0  0
 16 15  1  0  0  0  0
 17 16  1  0  0  0  0
M  END
>  <minimizedAffinity>
-3.71601772

>  <minimizedRMSD>
0.422977686

$$$$
