
 OpenBabel03272505433D

 17 17  0  0  0  0  0  0  0  0999 V2000
   37.3360   30.3590   51.3860 C   0  0  0  0  0  0  0  0  0  0  0  0
   38.0720   30.8630   50.2910 C   0  0  0  0  0  0  0  0  0  0  0  0
   37.7230   30.3860   49.0110 C   0  0  0  0  0  0  0  0  0  0  0  0
   36.7150   29.4840   48.9030 N   0  0  0  0  0  0  0  0  0  0  0  0
   36.0420   29.0330   49.9760 C   0  0  0  0  0  0  0  0  0  0  0  0
   36.3500   29.4680   51.2210 N   0  0  0  0  0  0  0  0  0  0  0  0
   37.5820   30.7050   52.3640 H   0  0  0  0  0  0  0  0  0  0  0  0
   38.8680   31.5790   50.3930 H   0  0  0  0  0  0  0  0  0  0  0  0
   38.2490   30.7310   48.1110 H   0  0  0  0  0  0  0  0  0  0  0  0
   35.0480   28.1140   49.6590 O   0  0  0  0  0  0  0  0  0  0  0  0
   32.4990   28.0620   49.0660 O   0  0  0  0  0  0  0  0  0  0  0  0
   33.8760   28.3490   48.4600 P   0  0  2  0  0  0  0  0  0  0  0  0
   34.0570   27.2690   47.1730 O   0  0  0  0  0  0  0  0  0  0  0  0
   34.3470   26.4020   47.5490 H   0  0  0  0  0  0  0  0  0  0  0  0
   33.8310   29.9100   47.8550 O   0  0  0  0  0  0  0  0  0  0  0  0
   33.9550   29.9750   46.4880 C   0  0  0  0  0  0  0  0  0  0  0  0
   34.8930   29.5350   46.1050 H   0  0  0  0  0  0  0  0  0  0  0  0
  1  7  1  0  0  0  0
  2  8  1  0  0  0  0
  2  1  2  0  0  0  0
  3  2  1  0  0  0  0
  4  3  2  0  0  0  0
  4  5  1  0  0  0  0
  5  6  2  0  0  0  0
  6  1  1  0  0  0  0
  9  3  1  0  0  0  0
 10  5  1  0  0  0  0
 12 11  2  1  0  0  0
 12 10  1  0  0  0  0
 13 14  1  0  0  0  0
 13 12  1  0  0  0  0
 15 12  1  0  0  0  0
 16 15  1  0  0  0  0
 17 16  1  0  0  0  0
M  END
>  <minimizedAffinity>
-3.73671365

>  <minimizedRMSD>
0.565603912

$$$$
