
 OpenBabel03262522193D

 17 17  0  0  0  0  0  0  0  0999 V2000
   39.4010   23.9550   35.8090 C   0  0  0  0  0  0  0  0  0  0  0  0
   38.2690   24.5480   36.4190 C   0  0  0  0  0  0  0  0  0  0  0  0
   38.0070   24.2140   37.7450 C   0  0  0  0  0  0  0  0  0  0  0  0
   38.8480   23.3420   38.3810 N   0  0  0  0  0  0  0  0  0  0  0  0
   39.9070   22.8090   37.7540 C   0  0  0  0  0  0  0  0  0  0  0  0
   40.2030   23.1000   36.4730 N   0  0  0  0  0  0  0  0  0  0  0  0
   39.6540   24.1810   34.7710 H   0  0  0  0  0  0  0  0  0  0  0  0
   37.1430   24.6640   38.2170 H   0  0  0  0  0  0  0  0  0  0  0  0
   40.5520   22.1190   38.2940 H   0  0  0  0  0  0  0  0  0  0  0  0
   37.5090   25.4090   35.6610 O   0  0  0  0  0  0  0  0  0  0  0  0
   36.7260   27.7190   34.7690 O   0  0  0  0  0  0  0  0  0  0  0  0
   37.9810   26.9340   35.0960 P   0  0  1  0  0  0  0  0  0  0  0  0
   38.7340   27.7060   36.4300 O   0  0  0  0  0  0  0  0  0  0  0  0
   39.6790   27.9140   36.2450 H   0  0  0  0  0  0  0  0  0  0  0  0
   38.9540   26.9320   33.7580 O   0  0  0  0  0  0  0  0  0  0  0  0
   40.2990   27.0410   34.1160 C   0  0  0  0  0  2  0  0  0  0  0  0
   40.6570   28.0810   34.1040 H   0  0  0  0  0  0  0  0  0  0  0  0
  1  2  2  0  0  0  0
  1  6  1  0  0  0  0
  2  3  1  0  0  0  0
  3  8  1  0  0  0  0
  3  4  2  0  0  0  0
  5  9  1  0  0  0  0
  5  4  1  0  0  0  0
  6  5  2  0  0  0  0
  7  1  1  0  0  0  0
 10  2  1  0  0  0  0
 12 11  2  6  0  0  0
 12 10  1  0  0  0  0
 12 13  1  0  0  0  0
 14 13  1  0  0  0  0
 15 16  1  0  0  0  0
 15 12  1  0  0  0  0
 17 16  1  0  0  0  0
M  END
>  <minimizedAffinity>
-3.81690741

$$$$

 OpenBabel03262522193D

 17 17  0  0  0  0  0  0  0  0999 V2000
   37.8870   25.3310   34.2700 C   0  0  0  0  0  0  0  0  0  0  0  0
   38.5710   25.5240   35.4950 C   0  0  0  0  0  0  0  0  0  0  0  0
   38.4590   26.7710   36.1010 C   0  0  0  0  0  0  0  0  0  0  0  0
   37.7020   27.7340   35.4900 N   0  0  0  0  0  0  0  0  0  0  0  0
   37.0760   27.4970   34.3280 C   0  0  0  0  0  0  0  0  0  0  0  0
   37.1520   26.3080   33.7020 N   0  0  0  0  0  0  0  0  0  0  0  0
   37.9400   24.3720   33.7490 H   0  0  0  0  0  0  0  0  0  0  0  0
   38.9800   26.9250   37.0390 H   0  0  0  0  0  0  0  0  0  0  0  0
   36.4830   28.2880   33.8730 H   0  0  0  0  0  0  0  0  0  0  0  0
   39.2960   24.4680   35.9970 O   0  0  0  0  0  0  0  0  0  0  0  0
   37.9210   24.0990   38.1700 O   0  0  0  0  0  0  0  0  0  0  0  0
   38.7760   23.3550   37.1630 P   0  0  1  0  0  0  0  0  0  0  0  0
   37.7490   22.2640   36.3280 O   0  0  0  0  0  0  0  0  0  0  0  0
   38.0990   21.3430   36.3510 H   0  0  0  0  0  0  0  0  0  0  0  0
   39.9750   22.5650   37.9840 O   0  0  0  0  0  0  0  0  0  0  0  0
   41.1020   22.3890   37.1790 C   0  0  0  0  0  2  0  0  0  0  0  0
   41.1100   21.4140   36.6690 H   0  0  0  0  0  0  0  0  0  0  0  0
  1  2  1  0  0  0  0
  2 10  1  0  0  0  0
  2  3  2  0  0  0  0
  3  8  1  0  0  0  0
  4  3  1  0  0  0  0
  5  4  2  0  0  0  0
  6  1  2  0  0  0  0
  6  5  1  0  0  0  0
  7  1  1  0  0  0  0
  9  5  1  0  0  0  0
 10 12  1  0  0  0  0
 12 15  1  0  0  0  0
 12 11  2  1  0  0  0
 13 14  1  0  0  0  0
 13 12  1  0  0  0  0
 16 15  1  0  0  0  0
 17 16  1  0  0  0  0
M  END
>  <minimizedAffinity>
-3.50325704

$$$$

 OpenBabel03262522193D

 17 17  0  0  0  0  0  0  0  0999 V2000
   38.3850   26.7530   36.0680 C   0  0  0  0  0  0  0  0  0  0  0  0
   38.5570   25.4420   35.5620 C   0  0  0  0  0  0  0  0  0  0  0  0
   37.9620   25.1430   34.3400 C   0  0  0  0  0  0  0  0  0  0  0  0
   37.2510   26.1220   33.6990 N   0  0  0  0  0  0  0  0  0  0  0  0
   37.1190   27.3480   34.2250 C   0  0  0  0  0  0  0  0  0  0  0  0
   37.6750   27.6870   35.4030 N   0  0  0  0  0  0  0  0  0  0  0  0
   38.8290   27.0430   37.0220 H   0  0  0  0  0  0  0  0  0  0  0  0
   38.0900   24.1420   33.9480 H   0  0  0  0  0  0  0  0  0  0  0  0
   36.5450   28.0990   33.6850 H   0  0  0  0  0  0  0  0  0  0  0  0
   39.2980   24.5580   36.3120 O   0  0  0  0  0  0  0  0  0  0  0  0
   39.6340   22.0740   35.6310 O   0  0  0  0  0  0  0  0  0  0  0  0
   38.9070   22.9430   36.6380 P   0  0  1  0  0  0  0  0  0  0  0  0
   39.5800   22.6100   38.1800 O   0  0  0  0  0  0  0  0  0  0  0  0
   38.8870   22.3730   38.8380 H   0  0  0  0  0  0  0  0  0  0  0  0
   37.2970   22.5700   36.5780 O   0  0  0  0  0  0  0  0  0  0  0  0
   37.0280   21.6740   35.5410 C   0  0  0  0  0  2  0  0  0  0  0  0
   36.7220   22.1800   34.6140 H   0  0  0  0  0  0  0  0  0  0  0  0
  1  7  1  0  0  0  0
  2  1  1  0  0  0  0
  2 10  1  0  0  0  0
  3  2  2  0  0  0  0
  4  5  2  0  0  0  0
  4  3  1  0  0  0  0
  5  6  1  0  0  0  0
  6  1  2  0  0  0  0
  8  3  1  0  0  0  0
  9  5  1  0  0  0  0
 10 12  1  0  0  0  0
 12 11  2  6  0  0  0
 12 13  1  0  0  0  0
 13 14  1  0  0  0  0
 15 12  1  0  0  0  0
 16 15  1  0  0  0  0
 17 16  1  0  0  0  0
M  END
>  <minimizedAffinity>
-3.30616379

$$$$

 OpenBabel03262522193D

 17 17  0  0  0  0  0  0  0  0999 V2000
   38.1870   24.0160   37.3800 C   0  0  0  0  0  0  0  0  0  0  0  0
   38.5730   24.3310   36.0540 C   0  0  0  0  0  0  0  0  0  0  0  0
   39.7730   23.7960   35.5930 C   0  0  0  0  0  0  0  0  0  0  0  0
   40.5060   23.0040   36.4350 N   0  0  0  0  0  0  0  0  0  0  0  0
   40.0920   22.7400   37.6830 C   0  0  0  0  0  0  0  0  0  0  0  0
   38.9400   23.2320   38.1760 N   0  0  0  0  0  0  0  0  0  0  0  0
   37.2560   24.4090   37.7940 H   0  0  0  0  0  0  0  0  0  0  0  0
   40.0740   24.0320   34.5800 H   0  0  0  0  0  0  0  0  0  0  0  0
   40.7030   22.1050   38.3220 H   0  0  0  0  0  0  0  0  0  0  0  0
   37.7390   25.1400   35.3170 O   0  0  0  0  0  0  0  0  0  0  0  0
   38.8640   27.3760   36.0100 O   0  0  0  0  0  0  0  0  0  0  0  0
   38.0090   26.7630   34.9180 P   0  0  1  0  0  0  0  0  0  0  0  0
   38.9530   26.7330   33.4860 O   0  0  0  0  0  0  0  0  0  0  0  0
   38.4850   27.1600   32.7310 H   0  0  0  0  0  0  0  0  0  0  0  0
   36.6520   27.6920   34.7400 O   0  0  0  0  0  0  0  0  0  0  0  0
   36.4980   28.1050   33.4160 C   0  0  0  0  0  2  0  0  0  0  0  0
   36.9350   29.0970   33.2280 H   0  0  0  0  0  0  0  0  0  0  0  0
  1  7  1  0  0  0  0
  1  6  1  0  0  0  0
  2  1  2  0  0  0  0
  3  2  1  0  0  0  0
  3  4  2  0  0  0  0
  4  5  1  0  0  0  0
  5  6  2  0  0  0  0
  5  9  1  0  0  0  0
  8  3  1  0  0  0  0
 10  2  1  0  0  0  0
 12 10  1  0  0  0  0
 12 11  2  1  0  0  0
 13 12  1  0  0  0  0
 14 13  1  0  0  0  0
 15 12  1  0  0  0  0
 16 15  1  0  0  0  0
 17 16  1  0  0  0  0
M  END
>  <minimizedAffinity>
-3.28060675

$$$$

 OpenBabel03262522193D

 17 17  0  0  0  0  0  0  0  0999 V2000
   38.5560   25.1060   33.3330 C   0  0  0  0  0  0  0  0  0  0  0  0
   38.4130   25.0590   34.7410 C   0  0  0  0  0  0  0  0  0  0  0  0
   37.5960   26.0170   35.3340 C   0  0  0  0  0  0  0  0  0  0  0  0
   36.9800   26.9420   34.5340 N   0  0  0  0  0  0  0  0  0  0  0  0
   37.1520   26.9400   33.2050 C   0  0  0  0  0  0  0  0  0  0  0  0
   37.9310   26.0350   32.5830 N   0  0  0  0  0  0  0  0  0  0  0  0
   39.1850   24.3790   32.8140 H   0  0  0  0  0  0  0  0  0  0  0  0
   37.4830   25.9870   36.4110 H   0  0  0  0  0  0  0  0  0  0  0  0
   36.6450   27.6920   32.6030 H   0  0  0  0  0  0  0  0  0  0  0  0
   39.0900   24.0740   35.4220 O   0  0  0  0  0  0  0  0  0  0  0  0
   37.6010   21.9490   35.2970 O   0  0  0  0  0  0  0  0  0  0  0  0
   38.3980   22.7860   36.2780 P   0  0  1  0  0  0  0  0  0  0  0  0
   39.7180   21.8290   36.8120 O   0  0  0  0  0  0  0  0  0  0  0  0
   39.7620   21.7850   37.7950 H   0  0  0  0  0  0  0  0  0  0  0  0
   37.4010   23.2110   37.5270 O   0  0  0  0  0  0  0  0  0  0  0  0
   38.0780   23.9920   38.4660 C   0  0  0  0  0  2  0  0  0  0  0  0
   38.4960   23.3950   39.2910 H   0  0  0  0  0  0  0  0  0  0  0  0
  1  2  1  0  0  0  0
  2  3  2  0  0  0  0
  2 10  1  0  0  0  0
  3  8  1  0  0  0  0
  4  3  1  0  0  0  0
  5  4  2  0  0  0  0
  6  5  1  0  0  0  0
  6  1  2  0  0  0  0
  7  1  1  0  0  0  0
  9  5  1  0  0  0  0
 10 12  1  0  0  0  0
 12 11  2  6  0  0  0
 12 13  1  0  0  0  0
 12 15  1  0  0  0  0
 13 14  1  0  0  0  0
 15 16  1  0  0  0  0
 16 17  1  0  0  0  0
M  END
>  <minimizedAffinity>
-3.24314952

$$$$

 OpenBabel03262522193D

 17 17  0  0  0  0  0  0  0  0999 V2000
   37.5620   23.2280   32.7910 C   0  0  0  0  0  0  0  0  0  0  0  0
   37.5560   22.1240   33.6780 C   0  0  0  0  0  0  0  0  0  0  0  0
   36.5110   21.2130   33.5590 C   0  0  0  0  0  0  0  0  0  0  0  0
   35.5560   21.4290   32.6020 N   0  0  0  0  0  0  0  0  0  0  0  0
   35.6110   22.4930   31.7890 C   0  0  0  0  0  0  0  0  0  0  0  0
   36.6010   23.4030   31.8630 N   0  0  0  0  0  0  0  0  0  0  0  0
   38.3570   23.9750   32.8400 H   0  0  0  0  0  0  0  0  0  0  0  0
   36.5010   20.3660   34.2340 H   0  0  0  0  0  0  0  0  0  0  0  0
   34.8330   22.6300   31.0400 H   0  0  0  0  0  0  0  0  0  0  0  0
   38.5800   22.0300   34.5920 O   0  0  0  0  0  0  0  0  0  0  0  0
   37.2850   22.7040   36.7410 O   0  0  0  0  0  0  0  0  0  0  0  0
   38.6550   22.7990   36.0990 P   0  0  1  0  0  0  0  0  0  0  0  0
   39.7280   21.8520   37.0440 O   0  0  0  0  0  0  0  0  0  0  0  0
   40.5230   22.3650   37.3190 H   0  0  0  0  0  0  0  0  0  0  0  0
   39.1040   24.3900   36.0690 O   0  0  0  0  0  0  0  0  0  0  0  0
   37.9870   25.2270   36.1010 C   0  0  0  0  0  2  0  0  0  0  0  0
   37.6560   25.5290   35.0960 H   0  0  0  0  0  0  0  0  0  0  0  0
  1  7  1  0  0  0  0
  1  2  1  0  0  0  0
  2 10  1  0  0  0  0
  3  2  2  0  0  0  0
  3  8  1  0  0  0  0
  4  3  1  0  0  0  0
  5  6  1  0  0  0  0
  5  4  2  0  0  0  0
  6  1  2  0  0  0  0
  9  5  1  0  0  0  0
 10 12  1  0  0  0  0
 12 11  2  1  0  0  0
 12 13  1  0  0  0  0
 13 14  1  0  0  0  0
 15 12  1  0  0  0  0
 15 16  1  0  0  0  0
 17 16  1  0  0  0  0
M  END
>  <minimizedAffinity>
-3.18219686

$$$$

 OpenBabel03262522193D

 17 17  0  0  0  0  0  0  0  0999 V2000
   36.6310   25.8580   32.2310 C   0  0  0  0  0  0  0  0  0  0  0  0
   37.9580   25.9550   32.7140 C   0  0  0  0  0  0  0  0  0  0  0  0
   38.9100   25.1150   32.1440 C   0  0  0  0  0  0  0  0  0  0  0  0
   38.5170   24.2500   31.1580 N   0  0  0  0  0  0  0  0  0  0  0  0
   37.2440   24.2000   30.7390 C   0  0  0  0  0  0  0  0  0  0  0  0
   36.2870   24.9920   31.2580 N   0  0  0  0  0  0  0  0  0  0  0  0
   35.8430   26.4930   32.6420 H   0  0  0  0  0  0  0  0  0  0  0  0
   39.9270   25.1840   32.5090 H   0  0  0  0  0  0  0  0  0  0  0  0
   36.9710   23.4990   29.9530 H   0  0  0  0  0  0  0  0  0  0  0  0
   38.2140   26.8700   33.7100 O   0  0  0  0  0  0  0  0  0  0  0  0
   40.6070   26.9700   34.7150 O   0  0  0  0  0  0  0  0  0  0  0  0
   39.1770   26.6210   35.0800 P   0  0  1  0  0  0  0  0  0  0  0  0
   38.6460   27.7770   36.2300 O   0  0  0  0  0  0  0  0  0  0  0  0
   38.2840   27.3470   37.0400 H   0  0  0  0  0  0  0  0  0  0  0  0
   39.1600   25.0870   35.6980 O   0  0  0  0  0  0  0  0  0  0  0  0
   38.0550   24.8930   36.5280 C   0  0  0  0  0  2  0  0  0  0  0  0
   38.2830   25.0810   37.5880 H   0  0  0  0  0  0  0  0  0  0  0  0
  1  7  1  0  0  0  0
  1  2  1  0  0  0  0
  2 10  1  0  0  0  0
  3  8  1  0  0  0  0
  3  2  2  0  0  0  0
  4  3  1  0  0  0  0
  5  4  2  0  0  0  0
  5  6  1  0  0  0  0
  6  1  2  0  0  0  0
  9  5  1  0  0  0  0
 10 12  1  0  0  0  0
 12 11  2  6  0  0  0
 12 15  1  0  0  0  0
 12 13  1  0  0  0  0
 13 14  1  0  0  0  0
 15 16  1  0  0  0  0
 16 17  1  0  0  0  0
M  END
>  <minimizedAffinity>
-3.17638707

$$$$

 OpenBabel03262522193D

 17 17  0  0  0  0  0  0  0  0999 V2000
   39.5310   22.9340   36.5130 C   0  0  0  0  0  0  0  0  0  0  0  0
   38.4010   23.6360   36.0270 C   0  0  0  0  0  0  0  0  0  0  0  0
   37.5440   24.1970   36.9680 C   0  0  0  0  0  0  0  0  0  0  0  0
   37.8340   24.0440   38.2970 N   0  0  0  0  0  0  0  0  0  0  0  0
   38.9190   23.3680   38.7010 C   0  0  0  0  0  0  0  0  0  0  0  0
   39.7800   22.8060   37.8310 N   0  0  0  0  0  0  0  0  0  0  0  0
   40.2380   22.4720   35.8200 H   0  0  0  0  0  0  0  0  0  0  0  0
   36.6770   24.7360   36.6030 H   0  0  0  0  0  0  0  0  0  0  0  0
   39.1160   23.2680   39.7670 H   0  0  0  0  0  0  0  0  0  0  0  0
   38.2310   23.7120   34.6640 O   0  0  0  0  0  0  0  0  0  0  0  0
   38.6450   24.5840   32.2520 O   0  0  0  0  0  0  0  0  0  0  0  0
   38.5360   25.0620   33.6870 P   0  0  1  0  0  0  0  0  0  0  0  0
   37.1280   26.0350   33.7960 O   0  0  0  0  0  0  0  0  0  0  0  0
   37.3240   26.9180   34.1870 H   0  0  0  0  0  0  0  0  0  0  0  0
   39.9040   25.9160   34.0540 O   0  0  0  0  0  0  0  0  0  0  0  0
   39.6330   26.9240   34.9810 C   0  0  0  0  0  2  0  0  0  0  0  0
   39.4200   27.8920   34.5030 H   0  0  0  0  0  0  0  0  0  0  0  0
  1  6  1  0  0  0  0
  2  1  2  0  0  0  0
  2  3  1  0  0  0  0
  3  4  2  0  0  0  0
  4  5  1  0  0  0  0
  5  9  1  0  0  0  0
  6  5  2  0  0  0  0
  7  1  1  0  0  0  0
  8  3  1  0  0  0  0
 10  2  1  0  0  0  0
 12 11  2  6  0  0  0
 12 13  1  0  0  0  0
 12 15  1  0  0  0  0
 12 10  1  0  0  0  0
 13 14  1  0  0  0  0
 15 16  1  0  0  0  0
 17 16  1  0  0  0  0
M  END
>  <minimizedAffinity>
-3.14143038

$$$$

 OpenBabel03262522193D

 17 17  0  0  0  0  0  0  0  0999 V2000
   37.5900   26.6380   31.7480 C   0  0  0  0  0  0  0  0  0  0  0  0
   37.2040   27.1990   32.9900 C   0  0  0  0  0  0  0  0  0  0  0  0
   36.4930   28.3960   32.9580 C   0  0  0  0  0  0  0  0  0  0  0  0
   36.2080   28.9590   31.7440 N   0  0  0  0  0  0  0  0  0  0  0  0
   36.6000   28.3840   30.5980 C   0  0  0  0  0  0  0  0  0  0  0  0
   37.2890   27.2280   30.5740 N   0  0  0  0  0  0  0  0  0  0  0  0
   38.1500   25.7010   31.7120 H   0  0  0  0  0  0  0  0  0  0  0  0
   36.1950   28.8300   33.9050 H   0  0  0  0  0  0  0  0  0  0  0  0
   36.3540   28.8630   29.6520 H   0  0  0  0  0  0  0  0  0  0  0  0
   37.5570   26.5250   34.1360 O   0  0  0  0  0  0  0  0  0  0  0  0
   40.0320   27.3040   34.0190 O   0  0  0  0  0  0  0  0  0  0  0  0
   39.0400   26.6290   34.9460 P   0  0  1  0  0  0  0  0  0  0  0  0
   38.7690   27.6920   36.2650 O   0  0  0  0  0  0  0  0  0  0  0  0
   38.9130   27.2440   37.1310 H   0  0  0  0  0  0  0  0  0  0  0  0
   39.6890   25.1900   35.4400 O   0  0  0  0  0  0  0  0  0  0  0  0
   38.6960   24.3270   35.9060 C   0  0  0  0  0  2  0  0  0  0  0  0
   38.5590   24.3880   36.9960 H   0  0  0  0  0  0  0  0  0  0  0  0
  1  2  1  0  0  0  0
  2 10  1  0  0  0  0
  3  2  2  0  0  0  0
  3  8  1  0  0  0  0
  4  3  1  0  0  0  0
  5  4  2  0  0  0  0
  6  5  1  0  0  0  0
  6  1  2  0  0  0  0
  7  1  1  0  0  0  0
  9  5  1  0  0  0  0
 10 12  1  0  0  0  0
 12 11  2  6  0  0  0
 12 15  1  0  0  0  0
 12 13  1  0  0  0  0
 13 14  1  0  0  0  0
 15 16  1  0  0  0  0
 16 17  1  0  0  0  0
M  END
>  <minimizedAffinity>
-3.1104486

$$$$
