
 OpenBabel03272507353D

 29 31  0  0  1  0  0  0  0  0999 V2000
   36.3500   25.8350   31.9230 C   0  0  0  0  0  0  0  0  0  0  0  0
   35.2380   25.7080   31.1200 C   0  0  0  0  0  0  0  0  0  0  0  0
   35.1020   24.3470   30.7970 C   0  0  0  0  0  0  0  0  0  0  0  0
   36.1540   23.7310   31.4340 C   0  0  0  0  0  0  0  0  0  0  0  0
   36.8550   24.6390   32.0790 O   0  0  0  0  0  0  0  0  0  0  0  0
   34.5520   26.4720   30.7660 H   0  0  0  0  0  0  0  0  0  0  0  0
   34.3390   23.8560   30.1780 H   0  0  0  0  0  0  0  0  0  0  0  0
   36.7820   27.1210   32.4430 C   0  0  0  0  0  0  0  0  0  0  0  0
   36.3030   28.1590   31.9640 O   0  0  0  0  0  0  0  0  0  0  0  0
   37.7570   27.0990   33.5020 C   0  0  0  0  0  0  0  0  0  0  0  0
   37.2880   27.2100   34.8050 C   0  0  0  0  0  0  0  0  0  0  0  0
   38.2130   27.1970   35.8570 C   0  0  0  0  0  0  0  0  0  0  0  0
   39.5370   27.0750   35.5320 N   0  0  0  0  0  0  0  0  0  0  0  0
   39.9610   26.9720   34.2760 C   0  0  0  0  0  0  0  0  0  0  0  0
   39.0800   26.9830   33.2560 N   0  0  0  0  0  0  0  0  0  0  0  0
   36.2350   27.3020   34.9980 H   0  0  0  0  0  0  0  0  0  0  0  0
   37.8840   27.2810   36.8900 H   0  0  0  0  0  0  0  0  0  0  0  0
   41.0260   26.8760   34.0580 H   0  0  0  0  0  0  0  0  0  0  0  0
   36.4500   22.2970   31.4070 C   0  0  0  0  0  0  0  0  0  0  0  0
   37.6730   21.9330   31.4400 O   0  0  0  0  0  0  0  0  0  0  0  0
   35.3390   21.2890   31.3350 C   0  0  1  0  0  0  0  0  0  0  0  0
   35.9360   19.8310   31.3610 C   0  0  0  0  0  0  0  0  0  0  0  0
   35.0830   20.3740   32.4480 C   0  0  1  0  0  0  0  0  0  0  0  0
   34.7480   21.3690   30.3970 H   0  0  0  0  0  0  0  0  0  0  0  0
   35.5370   19.1030   30.6610 H   0  0  0  0  0  0  0  0  0  0  0  0
   36.9990   19.7330   31.6320 H   0  0  0  0  0  0  0  0  0  0  0  0
   34.0420   19.9360   32.4830 H   0  0  0  0  0  0  0  0  0  0  0  0
   35.6140   20.6650   33.8180 C   0  0  0  0  0  2  0  0  0  0  0  0
   36.7150   20.5060   33.8940 H   0  0  0  0  0  0  0  0  0  0  0  0
  1  5  1  0  0  0  0
  1  8  1  0  0  0  0
  2  1  2  0  0  0  0
  3  2  1  0  0  0  0
  3  4  2  0  0  0  0
  4  5  1  0  0  0  0
  6  2  1  0  0  0  0
  7  3  1  0  0  0  0
  8 10  1  0  0  0  0
  9  8  2  0  0  0  0
 10 11  1  0  0  0  0
 11 16  1  0  0  0  0
 11 12  2  0  0  0  0
 12 17  1  0  0  0  0
 13 12  1  0  0  0  0
 14 13  2  0  0  0  0
 15 10  2  0  0  0  0
 15 14  1  0  0  0  0
 18 14  1  0  0  0  0
 19  4  1  0  0  0  0
 19 20  2  0  0  0  0
 21 24  1  6  0  0  0
 21 22  1  0  0  0  0
 21 19  1  0  0  0  0
 21 23  1  0  0  0  0
 22 26  1  0  0  0  0
 22 23  1  0  0  0  0
 23 27  1  1  0  0  0
 23 28  1  0  0  0  0
 25 22  1  0  0  0  0
 28 29  1  0  0  0  0
M  END
>  <minimizedAffinity>
-5.01633596

$$$$

 OpenBabel03272507353D

 29 31  0  0  1  0  0  0  0  0999 V2000
   37.8050   27.3520   34.6780 C   0  0  0  0  0  0  0  0  0  0  0  0
   37.2330   27.2390   33.4300 C   0  0  0  0  0  0  0  0  0  0  0  0
   36.2720   28.2580   33.3120 C   0  0  0  0  0  0  0  0  0  0  0  0
   36.3260   28.9300   34.5120 C   0  0  0  0  0  0  0  0  0  0  0  0
   37.2360   28.3650   35.2780 O   0  0  0  0  0  0  0  0  0  0  0  0
   37.4390   26.5250   32.6400 H   0  0  0  0  0  0  0  0  0  0  0  0
   35.6120   28.4910   32.4670 H   0  0  0  0  0  0  0  0  0  0  0  0
   38.8480   26.4470   35.1320 C   0  0  0  0  0  0  0  0  0  0  0  0
   40.0190   26.8500   35.1790 O   0  0  0  0  0  0  0  0  0  0  0  0
   38.4390   25.1180   35.5040 C   0  0  0  0  0  0  0  0  0  0  0  0
   37.9930   24.9280   36.8060 C   0  0  0  0  0  0  0  0  0  0  0  0
   37.5930   23.6440   37.2000 C   0  0  0  0  0  0  0  0  0  0  0  0
   37.6660   22.6460   36.2650 N   0  0  0  0  0  0  0  0  0  0  0  0
   38.0960   22.8540   35.0250 C   0  0  0  0  0  0  0  0  0  0  0  0
   38.4840   24.0850   34.6360 N   0  0  0  0  0  0  0  0  0  0  0  0
   37.9580   25.7520   37.4950 H   0  0  0  0  0  0  0  0  0  0  0  0
   37.2380   23.4560   38.2100 H   0  0  0  0  0  0  0  0  0  0  0  0
   38.1390   22.0310   34.3090 H   0  0  0  0  0  0  0  0  0  0  0  0
   35.5100   30.0880   34.8830 C   0  0  0  0  0  0  0  0  0  0  0  0
   34.3040   30.1330   34.4680 O   0  0  0  0  0  0  0  0  0  0  0  0
   36.0870   31.1910   35.7220 C   0  0  1  0  0  0  0  0  0  0  0  0
   35.5990   32.5880   35.1810 C   0  0  0  0  0  0  0  0  0  0  0  0
   35.2200   32.0620   36.5170 C   0  0  1  0  0  0  0  0  0  0  0  0
   37.1990   31.2150   35.6930 H   0  0  0  0  0  0  0  0  0  0  0  0
   36.3300   33.3850   35.0920 H   0  0  0  0  0  0  0  0  0  0  0  0
   34.7780   32.5780   34.4470 H   0  0  0  0  0  0  0  0  0  0  0  0
   35.7240   32.5860   37.3810 H   0  0  0  0  0  0  0  0  0  0  0  0
   33.8200   31.6490   36.8520 C   0  0  0  0  0  2  0  0  0  0  0  0
   33.1340   31.7080   35.9740 H   0  0  0  0  0  0  0  0  0  0  0  0
  1  8  1  0  0  0  0
  1  5  1  0  0  0  0
  2  1  2  0  0  0  0
  3  2  1  0  0  0  0
  3  4  2  0  0  0  0
  4 19  1  0  0  0  0
  4  5  1  0  0  0  0
  6  2  1  0  0  0  0
  7  3  1  0  0  0  0
  8  9  2  0  0  0  0
  8 10  1  0  0  0  0
 10 11  1  0  0  0  0
 11 12  2  0  0  0  0
 11 16  1  0  0  0  0
 12 17  1  0  0  0  0
 13 12  1  0  0  0  0
 14 13  2  0  0  0  0
 15 14  1  0  0  0  0
 15 10  2  0  0  0  0
 18 14  1  0  0  0  0
 19 21  1  0  0  0  0
 20 19  2  0  0  0  0
 21 24  1  1  0  0  0
 21 23  1  0  0  0  0
 22 21  1  0  0  0  0
 22 23  1  0  0  0  0
 23 28  1  0  0  0  0
 23 27  1  1  0  0  0
 25 22  1  0  0  0  0
 26 22  1  0  0  0  0
 29 28  1  0  0  0  0
M  END
>  <minimizedAffinity>
-4.96089077

$$$$

 OpenBabel03272507353D

 29 31  0  0  1  0  0  0  0  0999 V2000
   38.0760   25.3430   35.9020 C   0  0  0  0  0  0  0  0  0  0  0  0
   38.3640   26.6640   36.1640 C   0  0  0  0  0  0  0  0  0  0  0  0
   38.0110   27.4070   35.0230 C   0  0  0  0  0  0  0  0  0  0  0  0
   37.5270   26.4740   34.1350 C   0  0  0  0  0  0  0  0  0  0  0  0
   37.5850   25.2830   34.6920 O   0  0  0  0  0  0  0  0  0  0  0  0
   38.7820   27.1150   37.0570 H   0  0  0  0  0  0  0  0  0  0  0  0
   38.0920   28.4880   34.8500 H   0  0  0  0  0  0  0  0  0  0  0  0
   38.3200   24.2940   36.8790 C   0  0  0  0  0  0  0  0  0  0  0  0
   37.6000   24.2250   37.8840 O   0  0  0  0  0  0  0  0  0  0  0  0
   39.4050   23.3880   36.6020 C   0  0  0  0  0  0  0  0  0  0  0  0
   39.9810   22.7330   37.6840 C   0  0  0  0  0  0  0  0  0  0  0  0
   41.0430   21.8500   37.4490 C   0  0  0  0  0  0  0  0  0  0  0  0
   41.4510   21.6850   36.1520 N   0  0  0  0  0  0  0  0  0  0  0  0
   40.8830   22.3250   35.1340 C   0  0  0  0  0  0  0  0  0  0  0  0
   39.8610   23.1770   35.3500 N   0  0  0  0  0  0  0  0  0  0  0  0
   39.6160   22.9030   38.6810 H   0  0  0  0  0  0  0  0  0  0  0  0
   41.5180   21.3190   38.2690 H   0  0  0  0  0  0  0  0  0  0  0  0
   41.2380   22.1660   34.1150 H   0  0  0  0  0  0  0  0  0  0  0  0
   37.0240   26.7530   32.7890 C   0  0  0  0  0  0  0  0  0  0  0  0
   36.3310   25.8550   32.2050 O   0  0  0  0  0  0  0  0  0  0  0  0
   37.3280   28.0620   32.1170 C   0  0  1  0  0  0  0  0  0  0  0  0
   36.3170   28.3030   30.9320 C   0  0  0  0  0  0  0  0  0  0  0  0
   36.3610   29.1610   32.1430 C   0  0  1  0  0  0  0  0  0  0  0  0
   38.3460   28.0890   31.6710 H   0  0  0  0  0  0  0  0  0  0  0  0
   36.7140   28.6640   29.9880 H   0  0  0  0  0  0  0  0  0  0  0  0
   35.4390   27.6410   30.8840 H   0  0  0  0  0  0  0  0  0  0  0  0
   36.7950   30.1890   31.9680 H   0  0  0  0  0  0  0  0  0  0  0  0
   35.2560   29.1850   33.1530 C   0  0  0  0  0  2  0  0  0  0  0  0
   34.4560   28.4400   32.9300 H   0  0  0  0  0  0  0  0  0  0  0  0
  1  2  2  0  0  0  0
  1  8  1  0  0  0  0
  2  6  1  0  0  0  0
  3  2  1  0  0  0  0
  4  5  1  0  0  0  0
  4  3  2  0  0  0  0
  5  1  1  0  0  0  0
  7  3  1  0  0  0  0
  8  9  2  0  0  0  0
 10  8  1  0  0  0  0
 10 11  1  0  0  0  0
 11 16  1  0  0  0  0
 12 11  2  0  0  0  0
 12 17  1  0  0  0  0
 13 12  1  0  0  0  0
 14 15  1  0  0  0  0
 14 13  2  0  0  0  0
 15 10  2  0  0  0  0
 18 14  1  0  0  0  0
 19  4  1  0  0  0  0
 20 19  2  0  0  0  0
 21 24  1  6  0  0  0
 21 23  1  0  0  0  0
 21 19  1  0  0  0  0
 22 21  1  0  0  0  0
 22 23  1  0  0  0  0
 23 27  1  6  0  0  0
 23 28  1  0  0  0  0
 25 22  1  0  0  0  0
 26 22  1  0  0  0  0
 29 28  1  0  0  0  0
M  END
>  <minimizedAffinity>
-4.95351219

$$$$

 OpenBabel03272507353D

 29 31  0  0  1  0  0  0  0  0999 V2000
   37.7940   24.7620   33.6230 C   0  0  0  0  0  0  0  0  0  0  0  0
   36.9980   25.4820   32.7580 C   0  0  0  0  0  0  0  0  0  0  0  0
   36.5020   24.5860   31.7960 C   0  0  0  0  0  0  0  0  0  0  0  0
   37.0370   23.3670   32.1450 C   0  0  0  0  0  0  0  0  0  0  0  0
   37.7840   23.5190   33.2170 O   0  0  0  0  0  0  0  0  0  0  0  0
   36.7570   26.5400   32.7620 H   0  0  0  0  0  0  0  0  0  0  0  0
   35.8370   24.7840   30.9450 H   0  0  0  0  0  0  0  0  0  0  0  0
   38.4700   25.3870   34.7480 C   0  0  0  0  0  0  0  0  0  0  0  0
   38.7430   26.5940   34.6950 O   0  0  0  0  0  0  0  0  0  0  0  0
   38.7810   24.5390   35.8700 C   0  0  0  0  0  0  0  0  0  0  0  0
   37.9340   24.5990   36.9690 C   0  0  0  0  0  0  0  0  0  0  0  0
   38.2140   23.7900   38.0790 C   0  0  0  0  0  0  0  0  0  0  0  0
   39.3170   22.9830   38.0100 N   0  0  0  0  0  0  0  0  0  0  0  0
   40.1130   22.9450   36.9460 C   0  0  0  0  0  0  0  0  0  0  0  0
   39.8530   23.7190   35.8730 N   0  0  0  0  0  0  0  0  0  0  0  0
   37.0810   25.2520   36.9640 H   0  0  0  0  0  0  0  0  0  0  0  0
   37.5730   23.8080   38.9570 H   0  0  0  0  0  0  0  0  0  0  0  0
   40.9840   22.2880   36.9300 H   0  0  0  0  0  0  0  0  0  0  0  0
   36.8120   22.1010   31.4440 C   0  0  0  0  0  0  0  0  0  0  0  0
   37.8020   21.5560   30.8520 O   0  0  0  0  0  0  0  0  0  0  0  0
   35.4480   21.4730   31.4210 C   0  0  1  0  0  0  0  0  0  0  0  0
   35.5820   19.9040   31.3600 C   0  0  0  0  0  0  0  0  0  0  0  0
   34.9960   20.6200   32.5210 C   0  0  1  0  0  0  0  0  0  0  0  0
   34.8540   21.7710   30.5300 H   0  0  0  0  0  0  0  0  0  0  0  0
   34.9440   19.3630   30.6690 H   0  0  0  0  0  0  0  0  0  0  0  0
   36.5810   19.4820   31.5520 H   0  0  0  0  0  0  0  0  0  0  0  0
   33.8760   20.5100   32.6170 H   0  0  0  0  0  0  0  0  0  0  0  0
   35.6690   20.6730   33.8580 C   0  0  0  0  0  2  0  0  0  0  0  0
   36.6750   20.1910   33.8500 H   0  0  0  0  0  0  0  0  0  0  0  0
  1  8  1  0  0  0  0
  2  6  1  0  0  0  0
  2  1  2  0  0  0  0
  3  4  2  0  0  0  0
  3  2  1  0  0  0  0
  4  5  1  0  0  0  0
  5  1  1  0  0  0  0
  7  3  1  0  0  0  0
  8 10  1  0  0  0  0
  9  8  2  0  0  0  0
 10 15  2  0  0  0  0
 10 11  1  0  0  0  0
 11 12  2  0  0  0  0
 12 17  1  0  0  0  0
 13 12  1  0  0  0  0
 14 13  2  0  0  0  0
 15 14  1  0  0  0  0
 16 11  1  0  0  0  0
 18 14  1  0  0  0  0
 19  4  1  0  0  0  0
 20 19  2  0  0  0  0
 21 24  1  6  0  0  0
 21 19  1  0  0  0  0
 21 23  1  0  0  0  0
 22 21  1  0  0  0  0
 22 26  1  0  0  0  0
 22 23  1  0  0  0  0
 23 27  1  1  0  0  0
 23 28  1  0  0  0  0
 25 22  1  0  0  0  0
 29 28  1  0  0  0  0
M  END
>  <minimizedAffinity>
-4.89423943

$$$$

 OpenBabel03272507353D

 29 31  0  0  1  0  0  0  0  0999 V2000
   36.2550   28.3900   33.7350 C   0  0  0  0  0  0  0  0  0  0  0  0
   36.5740   27.5020   32.7320 C   0  0  0  0  0  0  0  0  0  0  0  0
   37.2590   26.4260   33.3230 C   0  0  0  0  0  0  0  0  0  0  0  0
   37.3100   26.7370   34.6620 C   0  0  0  0  0  0  0  0  0  0  0  0
   36.7110   27.8930   34.8560 O   0  0  0  0  0  0  0  0  0  0  0  0
   36.3670   27.5590   31.6690 H   0  0  0  0  0  0  0  0  0  0  0  0
   37.6720   25.5260   32.8490 H   0  0  0  0  0  0  0  0  0  0  0  0
   35.5360   29.6260   33.4700 C   0  0  0  0  0  0  0  0  0  0  0  0
   35.3770   29.9920   32.2980 O   0  0  0  0  0  0  0  0  0  0  0  0
   35.0490   30.3520   34.6140 C   0  0  0  0  0  0  0  0  0  0  0  0
   33.6970   30.2370   34.9140 C   0  0  0  0  0  0  0  0  0  0  0  0
   33.1910   30.9360   36.0180 C   0  0  0  0  0  0  0  0  0  0  0  0
   34.0710   31.6970   36.7400 N   0  0  0  0  0  0  0  0  0  0  0  0
   35.3600   31.7910   36.4320 C   0  0  0  0  0  0  0  0  0  0  0  0
   35.8580   31.1230   35.3720 N   0  0  0  0  0  0  0  0  0  0  0  0
   33.0550   29.6230   34.3100 H   0  0  0  0  0  0  0  0  0  0  0  0
   32.1390   30.8710   36.2850 H   0  0  0  0  0  0  0  0  0  0  0  0
   36.0290   32.4090   37.0330 H   0  0  0  0  0  0  0  0  0  0  0  0
   37.9250   25.9190   35.7090 C   0  0  0  0  0  0  0  0  0  0  0  0
   38.3220   26.5000   36.7740 O   0  0  0  0  0  0  0  0  0  0  0  0
   38.0870   24.4380   35.5230 C   0  0  1  0  0  0  0  0  0  0  0  0
   39.5410   24.0000   35.9480 C   0  0  0  0  0  0  0  0  0  0  0  0
   38.3200   23.5580   36.6700 C   0  0  1  0  0  0  0  0  0  0  0  0
   37.9620   24.1220   34.4640 H   0  0  0  0  0  0  0  0  0  0  0  0
   40.0760   23.3120   35.3020 H   0  0  0  0  0  0  0  0  0  0  0  0
   40.1420   24.7400   36.4980 H   0  0  0  0  0  0  0  0  0  0  0  0
   38.0530   22.4730   36.5070 H   0  0  0  0  0  0  0  0  0  0  0  0
   37.9990   24.0110   38.0600 C   0  0  0  0  0  2  0  0  0  0  0  0
   38.7270   24.7640   38.4450 H   0  0  0  0  0  0  0  0  0  0  0  0
  1  5  1  0  0  0  0
  2  3  1  0  0  0  0
  2  1  2  0  0  0  0
  3  4  2  0  0  0  0
  4  5  1  0  0  0  0
  4 19  1  0  0  0  0
  6  2  1  0  0  0  0
  7  3  1  0  0  0  0
  8  1  1  0  0  0  0
  8 10  1  0  0  0  0
  9  8  2  0  0  0  0
 10 11  2  0  0  0  0
 10 15  1  0  0  0  0
 11 12  1  0  0  0  0
 12 17  1  0  0  0  0
 12 13  2  0  0  0  0
 14 13  1  0  0  0  0
 14 18  1  0  0  0  0
 15 14  2  0  0  0  0
 16 11  1  0  0  0  0
 19 20  2  0  0  0  0
 21 24  1  6  0  0  0
 21 19  1  0  0  0  0
 21 22  1  0  0  0  0
 21 23  1  0  0  0  0
 22 26  1  0  0  0  0
 22 23  1  0  0  0  0
 23 27  1  6  0  0  0
 23 28  1  0  0  0  0
 25 22  1  0  0  0  0
 28 29  1  0  0  0  0
M  END
>  <minimizedAffinity>
-4.77731037

$$$$

 OpenBabel03272507353D

 29 31  0  0  1  0  0  0  0  0999 V2000
   37.0680   24.9930   32.7220 C   0  0  0  0  0  0  0  0  0  0  0  0
   37.0030   26.3200   33.0880 C   0  0  0  0  0  0  0  0  0  0  0  0
   37.6900   26.4570   34.3060 C   0  0  0  0  0  0  0  0  0  0  0  0
   38.1320   25.1880   34.6020 C   0  0  0  0  0  0  0  0  0  0  0  0
   37.7450   24.3670   33.6490 O   0  0  0  0  0  0  0  0  0  0  0  0
   36.5290   27.1530   32.5790 H   0  0  0  0  0  0  0  0  0  0  0  0
   37.8540   27.3600   34.9100 H   0  0  0  0  0  0  0  0  0  0  0  0
   36.4550   24.5000   31.5000 C   0  0  0  0  0  0  0  0  0  0  0  0
   35.7840   25.2750   30.8050 O   0  0  0  0  0  0  0  0  0  0  0  0
   36.6760   23.1140   31.1760 C   0  0  0  0  0  0  0  0  0  0  0  0
   35.6210   22.2350   31.3850 C   0  0  0  0  0  0  0  0  0  0  0  0
   35.8060   20.8790   31.0850 C   0  0  0  0  0  0  0  0  0  0  0  0
   37.0290   20.5010   30.5990 N   0  0  0  0  0  0  0  0  0  0  0  0
   38.0230   21.3630   30.4090 C   0  0  0  0  0  0  0  0  0  0  0  0
   37.8560   22.6690   30.6940 N   0  0  0  0  0  0  0  0  0  0  0  0
   34.6820   22.5910   31.7680 H   0  0  0  0  0  0  0  0  0  0  0  0
   35.0040   20.1600   31.2340 H   0  0  0  0  0  0  0  0  0  0  0  0
   38.9840   21.0220   30.0190 H   0  0  0  0  0  0  0  0  0  0  0  0
   38.9100   24.8060   35.7820 C   0  0  0  0  0  0  0  0  0  0  0  0
   40.1720   24.6690   35.6540 O   0  0  0  0  0  0  0  0  0  0  0  0
   38.2320   24.5770   37.1030 C   0  0  1  0  0  0  0  0  0  0  0  0
   37.4550   23.2070   37.0760 C   0  0  0  0  0  0  0  0  0  0  0  0
   38.6200   23.4570   37.9620 C   0  0  1  0  0  0  0  0  0  0  0  0
   37.4790   25.3600   37.3390 H   0  0  0  0  0  0  0  0  0  0  0  0
   36.4490   23.1820   37.4840 H   0  0  0  0  0  0  0  0  0  0  0  0
   37.6700   22.5290   36.2350 H   0  0  0  0  0  0  0  0  0  0  0  0
   38.3550   23.5730   39.0540 H   0  0  0  0  0  0  0  0  0  0  0  0
   39.9360   22.7690   37.7750 C   0  0  0  0  0  2  0  0  0  0  0  0
   39.9570   22.1240   36.8650 H   0  0  0  0  0  0  0  0  0  0  0  0
  1  2  2  0  0  0  0
  1  5  1  0  0  0  0
  2  3  1  0  0  0  0
  3  4  2  0  0  0  0
  3  7  1  0  0  0  0
  4 19  1  0  0  0  0
  5  4  1  0  0  0  0
  6  2  1  0  0  0  0
  8  1  1  0  0  0  0
  9  8  2  0  0  0  0
 10 11  1  0  0  0  0
 10  8  1  0  0  0  0
 11 16  1  0  0  0  0
 12 17  1  0  0  0  0
 12 11  2  0  0  0  0
 13 12  1  0  0  0  0
 14 13  2  0  0  0  0
 14 15  1  0  0  0  0
 15 10  2  0  0  0  0
 18 14  1  0  0  0  0
 19 21  1  0  0  0  0
 20 19  2  0  0  0  0
 21 24  1  1  0  0  0
 21 23  1  0  0  0  0
 22 21  1  0  0  0  0
 22 25  1  0  0  0  0
 22 23  1  0  0  0  0
 23 27  1  1  0  0  0
 26 22  1  0  0  0  0
 28 23  1  0  0  0  0
 29 28  1  0  0  0  0
M  END
>  <minimizedAffinity>
-4.70158052

$$$$

 OpenBabel03272507353D

 29 31  0  0  1  0  0  0  0  0999 V2000
   35.5490   29.6920   33.7500 C   0  0  0  0  0  0  0  0  0  0  0  0
   35.9330   29.5080   32.4400 C   0  0  0  0  0  0  0  0  0  0  0  0
   36.7150   28.3410   32.3880 C   0  0  0  0  0  0  0  0  0  0  0  0
   36.7540   27.8900   33.6880 C   0  0  0  0  0  0  0  0  0  0  0  0
   36.0590   28.7100   34.4470 O   0  0  0  0  0  0  0  0  0  0  0  0
   35.7090   30.1090   31.5650 H   0  0  0  0  0  0  0  0  0  0  0  0
   37.1990   27.8710   31.5230 H   0  0  0  0  0  0  0  0  0  0  0  0
   34.7230   30.8160   34.1600 C   0  0  0  0  0  0  0  0  0  0  0  0
   34.8850   31.9160   33.6140 O   0  0  0  0  0  0  0  0  0  0  0  0
   33.7530   30.5650   35.1950 C   0  0  0  0  0  0  0  0  0  0  0  0
   33.7430   31.4310   36.2820 C   0  0  0  0  0  0  0  0  0  0  0  0
   32.8150   31.2100   37.3080 C   0  0  0  0  0  0  0  0  0  0  0  0
   31.9660   30.1440   37.1730 N   0  0  0  0  0  0  0  0  0  0  0  0
   31.9970   29.3300   36.1230 C   0  0  0  0  0  0  0  0  0  0  0  0
   32.8860   29.5330   35.1300 N   0  0  0  0  0  0  0  0  0  0  0  0
   34.4340   32.2520   36.3310 H   0  0  0  0  0  0  0  0  0  0  0  0
   32.7750   31.8660   38.1740 H   0  0  0  0  0  0  0  0  0  0  0  0
   31.3030   28.4910   36.0530 H   0  0  0  0  0  0  0  0  0  0  0  0
   37.4500   26.6900   34.1570 C   0  0  0  0  0  0  0  0  0  0  0  0
   37.1930   25.5800   33.5810 O   0  0  0  0  0  0  0  0  0  0  0  0
   38.4320   26.7700   35.2900 C   0  0  1  0  0  0  0  0  0  0  0  0
   39.2990   25.4560   35.3420 C   0  0  0  0  0  0  0  0  0  0  0  0
   39.8730   26.7910   35.0350 C   0  0  1  0  0  0  0  0  0  0  0  0
   37.9360   26.8580   36.2810 H   0  0  0  0  0  0  0  0  0  0  0  0
   39.4700   24.9940   36.3090 H   0  0  0  0  0  0  0  0  0  0  0  0
   39.2380   24.7840   34.4710 H   0  0  0  0  0  0  0  0  0  0  0  0
   40.5030   27.2260   35.8640 H   0  0  0  0  0  0  0  0  0  0  0  0
   40.4060   27.1460   33.6810 C   0  0  0  0  0  2  0  0  0  0  0  0
   40.2490   26.3340   32.9330 H   0  0  0  0  0  0  0  0  0  0  0  0
  1  8  1  0  0  0  0
  1  5  1  0  0  0  0
  2  1  2  0  0  0  0
  3  2  1  0  0  0  0
  3  4  2  0  0  0  0
  4 19  1  0  0  0  0
  4  5  1  0  0  0  0
  6  2  1  0  0  0  0
  7  3  1  0  0  0  0
  8 10  1  0  0  0  0
  9  8  2  0  0  0  0
 10 11  1  0  0  0  0
 11 16  1  0  0  0  0
 11 12  2  0  0  0  0
 12 17  1  0  0  0  0
 13 12  1  0  0  0  0
 14 13  2  0  0  0  0
 15 10  2  0  0  0  0
 15 14  1  0  0  0  0
 18 14  1  0  0  0  0
 19 21  1  0  0  0  0
 20 19  2  0  0  0  0
 21 22  1  0  0  0  0
 21 24  1  1  0  0  0
 22 25  1  0  0  0  0
 23 21  1  0  0  0  0
 23 22  1  0  0  0  0
 23 27  1  1  0  0  0
 26 22  1  0  0  0  0
 28 23  1  0  0  0  0
 29 28  1  0  0  0  0
M  END
>  <minimizedAffinity>
-4.62067366

$$$$

 OpenBabel03272507353D

 29 31  0  0  1  0  0  0  0  0999 V2000
   36.9070   24.7890   31.2960 C   0  0  0  0  0  0  0  0  0  0  0  0
   35.5470   24.5690   31.2530 C   0  0  0  0  0  0  0  0  0  0  0  0
   35.3450   23.1790   31.2230 C   0  0  0  0  0  0  0  0  0  0  0  0
   36.6110   22.6400   31.2500 C   0  0  0  0  0  0  0  0  0  0  0  0
   37.4900   23.6190   31.2920 O   0  0  0  0  0  0  0  0  0  0  0  0
   34.7330   25.2860   31.2430 H   0  0  0  0  0  0  0  0  0  0  0  0
   34.4010   22.6180   31.1860 H   0  0  0  0  0  0  0  0  0  0  0  0
   37.4700   26.1280   31.3360 C   0  0  0  0  0  0  0  0  0  0  0  0
   38.2770   26.4710   30.4610 O   0  0  0  0  0  0  0  0  0  0  0  0
   37.0400   26.9810   32.4140 C   0  0  0  0  0  0  0  0  0  0  0  0
   36.3500   28.1390   32.0750 C   0  0  0  0  0  0  0  0  0  0  0  0
   35.9240   28.9930   33.1010 C   0  0  0  0  0  0  0  0  0  0  0  0
   36.2160   28.6280   34.3880 N   0  0  0  0  0  0  0  0  0  0  0  0
   36.8780   27.5140   34.6850 C   0  0  0  0  0  0  0  0  0  0  0  0
   37.2940   26.6860   33.7060 N   0  0  0  0  0  0  0  0  0  0  0  0
   36.1500   28.3710   31.0450 H   0  0  0  0  0  0  0  0  0  0  0  0
   35.3810   29.9070   32.8750 H   0  0  0  0  0  0  0  0  0  0  0  0
   37.0920   27.2590   35.7250 H   0  0  0  0  0  0  0  0  0  0  0  0
   36.9350   21.2130   31.2370 C   0  0  0  0  0  0  0  0  0  0  0  0
   38.1620   20.8740   31.1460 O   0  0  0  0  0  0  0  0  0  0  0  0
   35.8460   20.1820   31.3230 C   0  0  1  0  0  0  0  0  0  0  0  0
   36.4030   18.8690   31.9930 C   0  0  0  0  0  0  0  0  0  0  0  0
   35.3560   19.7140   32.6200 C   0  0  1  0  0  0  0  0  0  0  0  0
   35.4580   19.8840   30.3250 H   0  0  0  0  0  0  0  0  0  0  0  0
   36.1430   17.9160   31.5430 H   0  0  0  0  0  0  0  0  0  0  0  0
   37.3870   18.9380   32.4820 H   0  0  0  0  0  0  0  0  0  0  0  0
   34.3230   19.2570   32.6100 H   0  0  0  0  0  0  0  0  0  0  0  0
   35.6030   20.5100   33.8650 C   0  0  0  0  0  2  0  0  0  0  0  0
   36.6630   20.4540   34.2060 H   0  0  0  0  0  0  0  0  0  0  0  0
  1  8  1  0  0  0  0
  2  1  2  0  0  0  0
  3  4  2  0  0  0  0
  3  2  1  0  0  0  0
  4  5  1  0  0  0  0
  5  1  1  0  0  0  0
  6  2  1  0  0  0  0
  7  3  1  0  0  0  0
  8 10  1  0  0  0  0
  9  8  2  0  0  0  0
 10 15  1  0  0  0  0
 11 10  2  0  0  0  0
 11 12  1  0  0  0  0
 12 13  2  0  0  0  0
 13 14  1  0  0  0  0
 14 18  1  0  0  0  0
 15 14  2  0  0  0  0
 16 11  1  0  0  0  0
 17 12  1  0  0  0  0
 19  4  1  0  0  0  0
 19 21  1  0  0  0  0
 20 19  2  0  0  0  0
 21 24  1  6  0  0  0
 21 22  1  0  0  0  0
 21 23  1  0  0  0  0
 22 26  1  0  0  0  0
 22 23  1  0  0  0  0
 23 27  1  6  0  0  0
 23 28  1  0  0  0  0
 25 22  1  0  0  0  0
 28 29  1  0  0  0  0
M  END
>  <minimizedAffinity>
-4.58607674

$$$$

 OpenBabel03272507353D

 29 31  0  0  1  0  0  0  0  0999 V2000
   36.1860   24.5210   31.7480 C   0  0  0  0  0  0  0  0  0  0  0  0
   37.2490   24.7770   32.5870 C   0  0  0  0  0  0  0  0  0  0  0  0
   37.6880   23.5440   33.1010 C   0  0  0  0  0  0  0  0  0  0  0  0
   36.8510   22.6110   32.5320 C   0  0  0  0  0  0  0  0  0  0  0  0
   35.9910   23.2280   31.7500 O   0  0  0  0  0  0  0  0  0  0  0  0
   37.7100   25.7240   32.8450 H   0  0  0  0  0  0  0  0  0  0  0  0
   38.5090   23.3400   33.7990 H   0  0  0  0  0  0  0  0  0  0  0  0
   35.4880   25.5830   31.0420 C   0  0  0  0  0  0  0  0  0  0  0  0
   34.4560   25.3130   30.4120 O   0  0  0  0  0  0  0  0  0  0  0  0
   36.0590   26.9020   31.1270 C   0  0  0  0  0  0  0  0  0  0  0  0
   35.4500   27.8060   31.9900 C   0  0  0  0  0  0  0  0  0  0  0  0
   35.9780   29.1000   32.0900 C   0  0  0  0  0  0  0  0  0  0  0  0
   37.0730   29.3960   31.3230 N   0  0  0  0  0  0  0  0  0  0  0  0
   37.6370   28.5130   30.5050 C   0  0  0  0  0  0  0  0  0  0  0  0
   37.1370   27.2660   30.4010 N   0  0  0  0  0  0  0  0  0  0  0  0
   34.5920   27.5150   32.5670 H   0  0  0  0  0  0  0  0  0  0  0  0
   35.5300   29.8350   32.7540 H   0  0  0  0  0  0  0  0  0  0  0  0
   38.5090   28.7880   29.9100 H   0  0  0  0  0  0  0  0  0  0  0  0
   36.9060   21.1650   32.7530 C   0  0  0  0  0  0  0  0  0  0  0  0
   37.9940   20.5540   32.4840 O   0  0  0  0  0  0  0  0  0  0  0  0
   35.7080   20.4270   33.2770 C   0  0  1  0  0  0  0  0  0  0  0  0
   34.6560   20.2230   32.1210 C   0  0  0  0  0  0  0  0  0  0  0  0
   35.3670   19.0950   32.7740 C   0  0  1  0  0  0  0  0  0  0  0  0
   35.1820   20.9810   34.0840 H   0  0  0  0  0  0  0  0  0  0  0  0
   33.6110   20.4150   32.3410 H   0  0  0  0  0  0  0  0  0  0  0  0
   34.9980   20.4330   31.0950 H   0  0  0  0  0  0  0  0  0  0  0  0
   34.7190   18.4720   33.4580 H   0  0  0  0  0  0  0  0  0  0  0  0
   36.3860   18.2630   32.0590 C   0  0  0  0  0  2  0  0  0  0  0  0
   36.5980   18.6360   31.0290 H   0  0  0  0  0  0  0  0  0  0  0  0
  1  5  1  0  0  0  0
  1  2  2  0  0  0  0
  2  6  1  0  0  0  0
  2  3  1  0  0  0  0
  3  7  1  0  0  0  0
  4 19  1  0  0  0  0
  4  3  2  0  0  0  0
  5  4  1  0  0  0  0
  8 10  1  0  0  0  0
  8  1  1  0  0  0  0
  9  8  2  0  0  0  0
 10 11  1  0  0  0  0
 11 12  2  0  0  0  0
 11 16  1  0  0  0  0
 12 17  1  0  0  0  0
 13 12  1  0  0  0  0
 14 13  2  0  0  0  0
 15 14  1  0  0  0  0
 15 10  2  0  0  0  0
 18 14  1  0  0  0  0
 19 21  1  0  0  0  0
 20 19  2  0  0  0  0
 21 24  1  1  0  0  0
 22 25  1  0  0  0  0
 22 23  1  0  0  0  0
 22 21  1  0  0  0  0
 23 21  1  0  0  0  0
 23 27  1  1  0  0  0
 26 22  1  0  0  0  0
 28 23  1  0  0  0  0
 29 28  1  0  0  0  0
M  END
>  <minimizedAffinity>
-4.57101774

$$$$
