
 OpenBabel03272507323D

 29 31  0  0  1  0  0  0  0  0999 V2000
   35.8770   29.1920   49.8220 C   0  0  0  0  0  0  0  0  0  0  0  0
   34.9340   29.6630   50.7090 C   0  0  0  0  0  0  0  0  0  0  0  0
   33.6790   29.1980   50.2780 C   0  0  0  0  0  0  0  0  0  0  0  0
   33.9490   28.4670   49.1440 C   0  0  0  0  0  0  0  0  0  0  0  0
   35.2450   28.4920   48.9170 O   0  0  0  0  0  0  0  0  0  0  0  0
   35.0650   30.2790   51.5920 H   0  0  0  0  0  0  0  0  0  0  0  0
   32.6900   29.3640   50.7240 H   0  0  0  0  0  0  0  0  0  0  0  0
   37.2920   29.4890   49.9730 C   0  0  0  0  0  0  0  0  0  0  0  0
   37.9650   28.8290   50.7770 O   0  0  0  0  0  0  0  0  0  0  0  0
   37.8240   30.5520   49.1600 C   0  0  0  0  0  0  0  0  0  0  0  0
   38.1660   31.7360   49.8020 C   0  0  0  0  0  0  0  0  0  0  0  0
   38.6800   32.7910   49.0380 C   0  0  0  0  0  0  0  0  0  0  0  0
   38.8150   32.5880   47.6910 N   0  0  0  0  0  0  0  0  0  0  0  0
   38.4800   31.4450   47.1000 C   0  0  0  0  0  0  0  0  0  0  0  0
   37.9840   30.4230   47.8260 N   0  0  0  0  0  0  0  0  0  0  0  0
   38.0370   31.8360   50.8650 H   0  0  0  0  0  0  0  0  0  0  0  0
   38.9600   33.7330   49.5050 H   0  0  0  0  0  0  0  0  0  0  0  0
   38.6030   31.3220   46.0230 H   0  0  0  0  0  0  0  0  0  0  0  0
   32.9600   27.7680   48.3200 C   0  0  0  0  0  0  0  0  0  0  0  0
   31.7520   27.7310   48.7310 O   0  0  0  0  0  0  0  0  0  0  0  0
   33.3660   27.1110   47.0330 C   0  0  1  0  0  0  0  0  0  0  0  0
   33.8640   25.6420   47.3150 C   0  0  0  0  0  0  0  0  0  0  0  0
   32.6440   25.9440   46.5250 C   0  0  1  0  0  0  0  0  0  0  0  0
   34.2080   27.6360   46.5300 H   0  0  0  0  0  0  0  0  0  0  0  0
   34.7700   25.3060   46.8200 H   0  0  0  0  0  0  0  0  0  0  0  0
   33.6600   25.2310   48.3150 H   0  0  0  0  0  0  0  0  0  0  0  0
   32.7500   25.7550   45.4170 H   0  0  0  0  0  0  0  0  0  0  0  0
   31.2670   25.6220   47.0170 C   0  0  0  0  0  0  0  0  0  0  0  0
   31.2670   25.2140   48.0560 H   0  0  0  0  0  0  0  0  0  0  0  0
  1  8  1  0  0  0  0
  1  2  2  0  0  0  0
  2  6  1  0  0  0  0
  3  2  1  0  0  0  0
  3  7  1  0  0  0  0
  4  3  2  0  0  0  0
  5  4  1  0  0  0  0
  5  1  1  0  0  0  0
  8  9  2  0  0  0  0
 10 11  1  0  0  0  0
 10  8  1  0  0  0  0
 11 16  1  0  0  0  0
 12 17  1  0  0  0  0
 12 11  2  0  0  0  0
 13 12  1  0  0  0  0
 14 13  2  0  0  0  0
 14 15  1  0  0  0  0
 15 10  2  0  0  0  0
 18 14  1  0  0  0  0
 19 20  2  0  0  0  0
 19  4  1  0  0  0  0
 21 24  1  6  0  0  0
 21 22  1  0  0  0  0
 21 19  1  0  0  0  0
 22 26  1  0  0  0  0
 23 27  1  6  0  0  0
 23 28  1  0  0  0  0
 23 21  1  0  0  0  0
 23 22  1  0  0  0  0
 25 22  1  0  0  0  0
 28 29  1  0  0  0  0
M  END
>  <minimizedAffinity>
-5.01028728

>  <minimizedRMSD>
0.226927131

$$$$
