
 OpenBabel03272509003D

 21 22  0  0  0  0  0  0  0  0999 V2000
   38.4670   30.8000   49.8540 Cl  0  0  0  0  0  0  0  0  0  0  0  0
   37.0880   30.3550   48.8850 C   0  0  0  0  0  0  0  0  0  0  0  0
   37.0920   30.6290   47.5320 C   0  0  0  0  0  0  0  0  0  0  0  0
   36.0330   30.2990   46.7320 C   0  0  0  0  0  0  0  0  0  0  0  0
   34.9220   29.6770   47.2610 C   0  0  0  0  0  0  0  0  0  0  0  0
   34.8820   29.3890   48.6110 C   0  0  0  0  0  0  0  0  0  0  0  0
   33.5350   28.6040   49.4100 Cl  0  0  0  0  0  0  0  0  0  0  0  0
   35.9770   29.7400   49.3830 C   0  0  0  0  0  0  0  0  0  0  0  0
   36.0100   30.5030   45.6610 H   0  0  0  0  0  0  0  0  0  0  0  0
   34.0550   29.3960   46.6640 H   0  0  0  0  0  0  0  0  0  0  0  0
   39.6000   33.1630   46.6440 C   0  0  0  0  0  0  0  0  0  0  0  0
   40.4640   32.4720   45.7970 C   0  0  0  0  0  0  0  0  0  0  0  0
   40.1700   31.1110   45.5320 C   0  0  0  0  0  0  0  0  0  0  0  0
   39.0690   30.5810   46.1240 N   0  0  0  0  0  0  0  0  0  0  0  0
   38.2500   31.2840   46.9440 C   0  0  0  0  0  0  0  0  0  0  0  0
   38.5390   32.5680   47.1850 N   0  0  0  0  0  0  0  0  0  0  0  0
   39.8890   34.1940   46.7980 H   0  0  0  0  0  0  0  0  0  0  0  0
   41.3430   32.8110   45.2960 H   0  0  0  0  0  0  0  0  0  0  0  0
   40.7080   30.4180   44.9140 H   0  0  0  0  0  0  0  0  0  0  0  0
   35.9610   29.4380   50.8580 C   0  0  0  0  0  2  0  0  0  0  0  0
   35.0690   29.8610   51.3580 H   0  0  0  0  0  0  0  0  0  0  0  0
  2  8  1  0  0  0  0
  2  1  1  0  0  0  0
  3  2  2  0  0  0  0
  4  5  2  0  0  0  0
  4  3  1  0  0  0  0
  5  6  1  0  0  0  0
  6  8  2  0  0  0  0
  6  7  1  0  0  0  0
  8 20  1  0  0  0  0
  9  4  1  0  0  0  0
 10  5  1  0  0  0  0
 11 17  1  0  0  0  0
 11 16  1  0  0  0  0
 12 11  2  0  0  0  0
 13 12  1  0  0  0  0
 13 14  2  0  0  0  0
 14 15  1  0  0  0  0
 15 16  2  0  0  0  0
 15  3  1  0  0  0  0
 18 12  1  0  0  0  0
 19 13  1  0  0  0  0
 20 21  1  0  0  0  0
M  END
>  <minimizedAffinity>
-5.42950916

>  <minimizedRMSD>
2.19572902

$$$$
