
 OpenBabel03272508553D

 31 33  0  0  1  0  0  0  0  0999 V2000
   38.3310   26.3490   32.1930 C   0  0  2  0  0  0  0  0  0  0  0  0
   38.2520   25.1330   31.3700 C   0  0  0  0  0  0  0  0  0  0  0  0
   37.4300   25.3250   32.6670 C   0  0  1  0  0  0  0  0  0  0  0  0
   39.3260   26.5000   32.6600 H   0  0  0  0  0  0  0  0  0  0  0  0
   39.0620   24.3890   31.3990 H   0  0  0  0  0  0  0  0  0  0  0  0
   37.6980   25.1270   30.4240 H   0  0  0  0  0  0  0  0  0  0  0  0
   36.3220   25.3570   32.4630 H   0  0  0  0  0  0  0  0  0  0  0  0
   37.6770   29.3620   30.1440 C   0  0  0  0  0  0  0  0  0  0  0  0
   36.6590   30.0310   30.8970 C   0  0  0  0  0  0  0  0  0  0  0  0
   36.2260   29.4020   32.1250 C   0  0  0  0  0  0  0  0  0  0  0  0
   36.7910   28.2220   32.5120 N   0  0  0  0  0  0  0  0  0  0  0  0
   37.7590   27.6540   31.7300 C   0  0  0  0  0  0  0  0  0  0  0  0
   38.2230   28.1940   30.5480 N   0  0  0  0  0  0  0  0  0  0  0  0
   38.0100   29.8080   29.2360 H   0  0  0  0  0  0  0  0  0  0  0  0
   36.2360   30.9540   30.5650 H   0  0  0  0  0  0  0  0  0  0  0  0
   35.4700   29.8920   32.6890 H   0  0  0  0  0  0  0  0  0  0  0  0
   37.8130   25.0210   35.0800 C   0  0  0  0  0  0  0  0  0  0  0  0
   37.2090   26.1130   35.3050 O   0  0  0  0  0  0  0  0  0  0  0  0
   37.8690   24.4720   33.7620 N   0  0  0  0  0  0  0  0  0  0  0  0
   38.2010   23.5090   33.5390 H   0  0  0  0  0  0  0  0  0  0  0  0
   38.4710   24.2950   36.1780 C   0  0  0  0  0  0  0  0  0  0  0  0
   37.9360   24.4010   37.4340 C   0  0  0  0  0  0  0  0  0  0  0  0
   38.5320   23.7200   38.4760 C   0  0  0  0  0  0  0  0  0  0  0  0
   39.6440   22.9610   38.1960 C   0  0  0  0  0  0  0  0  0  0  0  0
   40.1940   22.8470   36.9300 C   0  0  0  0  0  0  0  0  0  0  0  0
   39.5560   23.5380   35.9830 N   0  0  0  0  0  0  0  0  0  0  0  0
   37.0660   24.9810   37.7100 H   0  0  0  0  0  0  0  0  0  0  0  0
   38.1670   23.7530   39.5060 H   0  0  0  0  0  0  0  0  0  0  0  0
   40.1080   22.4290   39.0160 H   0  0  0  0  0  0  0  0  0  0  0  0
   41.3990   22.0170   36.6640 C   0  0  0  0  0  2  0  0  0  0  0  0
   42.0250   22.5250   35.8900 H   0  0  0  0  0  0  0  0  0  0  0  0
  1  4  1  1  0  0  0
  1  3  1  0  0  0  0
  2  5  1  0  0  0  0
  2  1  1  0  0  0  0
  2  3  1  0  0  0  0
  3  7  1  6  0  0  0
  3 19  1  0  0  0  0
  6  2  1  0  0  0  0
  8 13  2  0  0  0  0
  8  9  1  0  0  0  0
  9 10  2  0  0  0  0
 10 11  1  0  0  0  0
 10 16  1  0  0  0  0
 12  1  1  0  0  0  0
 12 11  2  0  0  0  0
 13 12  1  0  0  0  0
 14  8  1  0  0  0  0
 15  9  1  0  0  0  0
 17 18  2  0  0  0  0
 17 21  1  0  0  0  0
 19 17  1  0  0  0  0
 20 19  1  0  0  0  0
 21 22  1  0  0  0  0
 22 27  1  0  0  0  0
 22 23  2  0  0  0  0
 23 28  1  0  0  0  0
 24 23  1  0  0  0  0
 24 29  1  0  0  0  0
 25 24  2  0  0  0  0
 26 21  2  0  0  0  0
 26 25  1  0  0  0  0
 30 25  1  0  0  0  0
 31 30  1  0  0  0  0
M  END
>  <minimizedAffinity>
-4.7794714

$$$$

 OpenBabel03272508553D

 31 33  0  0  1  0  0  0  0  0999 V2000
   36.4500   28.1100   32.4860 C   0  0  2  0  0  0  0  0  0  0  0  0
   37.2850   28.5680   31.3650 C   0  0  0  0  0  0  0  0  0  0  0  0
   36.1810   27.4940   31.2080 C   0  0  1  0  0  0  0  0  0  0  0  0
   37.0240   27.5760   33.2720 H   0  0  0  0  0  0  0  0  0  0  0  0
   38.3270   28.2280   31.2730 H   0  0  0  0  0  0  0  0  0  0  0  0
   37.1060   29.5400   30.8900 H   0  0  0  0  0  0  0  0  0  0  0  0
   35.3460   27.8440   30.5360 H   0  0  0  0  0  0  0  0  0  0  0  0
   33.2180   29.8070   33.1020 C   0  0  0  0  0  0  0  0  0  0  0  0
   33.4950   30.5800   34.2760 C   0  0  0  0  0  0  0  0  0  0  0  0
   34.8300   30.4890   34.8250 C   0  0  0  0  0  0  0  0  0  0  0  0
   35.7540   29.6900   34.2180 N   0  0  0  0  0  0  0  0  0  0  0  0
   35.4010   28.9870   33.0990 C   0  0  0  0  0  0  0  0  0  0  0  0
   34.1500   29.0220   32.5180 N   0  0  0  0  0  0  0  0  0  0  0  0
   32.2410   29.8590   32.6820 H   0  0  0  0  0  0  0  0  0  0  0  0
   32.7480   31.1960   34.7270 H   0  0  0  0  0  0  0  0  0  0  0  0
   35.0440   31.0600   35.6960 H   0  0  0  0  0  0  0  0  0  0  0  0
   35.7760   25.0730   31.0190 C   0  0  0  0  0  0  0  0  0  0  0  0
   34.5280   25.2870   31.0670 O   0  0  0  0  0  0  0  0  0  0  0  0
   36.7040   26.1590   30.9610 N   0  0  0  0  0  0  0  0  0  0  0  0
   37.7220   26.0540   30.7560 H   0  0  0  0  0  0  0  0  0  0  0  0
   36.2970   23.6960   31.0220 C   0  0  0  0  0  0  0  0  0  0  0  0
   37.5950   23.4960   30.6390 C   0  0  0  0  0  0  0  0  0  0  0  0
   38.1060   22.2130   30.6450 C   0  0  0  0  0  0  0  0  0  0  0  0
   37.2730   21.1920   31.0400 C   0  0  0  0  0  0  0  0  0  0  0  0
   35.9590   21.3830   31.4280 C   0  0  0  0  0  0  0  0  0  0  0  0
   35.5470   22.6520   31.3930 N   0  0  0  0  0  0  0  0  0  0  0  0
   38.2920   24.2600   30.3210 H   0  0  0  0  0  0  0  0  0  0  0  0
   39.1310   21.9700   30.3540 H   0  0  0  0  0  0  0  0  0  0  0  0
   37.6780   20.1880   31.0430 H   0  0  0  0  0  0  0  0  0  0  0  0
   35.0870   20.2530   31.8490 C   0  0  0  0  0  2  0  0  0  0  0  0
   34.0460   20.4460   31.4900 H   0  0  0  0  0  0  0  0  0  0  0  0
  1 12  1  0  0  0  0
  1  4  1  1  0  0  0
  2  1  1  0  0  0  0
  3  7  1  6  0  0  0
  3  2  1  0  0  0  0
  3  1  1  0  0  0  0
  5  2  1  0  0  0  0
  6  2  1  0  0  0  0
  8  9  1  0  0  0  0
  9 15  1  0  0  0  0
  9 10  2  0  0  0  0
 10 16  1  0  0  0  0
 11 10  1  0  0  0  0
 12 11  2  0  0  0  0
 13 12  1  0  0  0  0
 13  8  2  0  0  0  0
 14  8  1  0  0  0  0
 17 21  1  0  0  0  0
 17 18  2  0  0  0  0
 19 17  1  0  0  0  0
 19  3  1  0  0  0  0
 20 19  1  0  0  0  0
 21 26  1  0  0  0  0
 22 23  1  0  0  0  0
 22 21  2  0  0  0  0
 23 24  2  0  0  0  0
 24 29  1  0  0  0  0
 24 25  1  0  0  0  0
 25 30  1  0  0  0  0
 26 25  2  0  0  0  0
 27 22  1  0  0  0  0
 28 23  1  0  0  0  0
 31 30  1  0  0  0  0
M  END
>  <minimizedAffinity>
-4.71957016

$$$$

 OpenBabel03272508553D

 31 33  0  0  1  0  0  0  0  0999 V2000
   35.9850   26.9280   31.2070 C   0  0  2  0  0  0  0  0  0  0  0  0
   36.7150   27.9140   30.3970 C   0  0  0  0  0  0  0  0  0  0  0  0
   36.8500   27.8240   31.9370 C   0  0  1  0  0  0  0  0  0  0  0  0
   34.8850   27.0750   31.1930 H   0  0  0  0  0  0  0  0  0  0  0  0
   36.1950   28.7950   29.9940 H   0  0  0  0  0  0  0  0  0  0  0  0
   37.5880   27.6200   29.8030 H   0  0  0  0  0  0  0  0  0  0  0  0
   37.8910   27.5310   32.2530 H   0  0  0  0  0  0  0  0  0  0  0  0
   35.6600   23.2450   31.3900 C   0  0  0  0  0  0  0  0  0  0  0  0
   36.9810   22.8020   31.0550 C   0  0  0  0  0  0  0  0  0  0  0  0
   37.9670   23.8230   30.7760 C   0  0  0  0  0  0  0  0  0  0  0  0
   37.6110   25.1380   30.8410 N   0  0  0  0  0  0  0  0  0  0  0  0
   36.3250   25.4690   31.1700 C   0  0  0  0  0  0  0  0  0  0  0  0
   35.3310   24.5530   31.4490 N   0  0  0  0  0  0  0  0  0  0  0  0
   34.9190   22.5090   31.5980 H   0  0  0  0  0  0  0  0  0  0  0  0
   37.2270   21.7640   31.0120 H   0  0  0  0  0  0  0  0  0  0  0  0
   38.9500   23.5020   30.5270 H   0  0  0  0  0  0  0  0  0  0  0  0
   36.1400   28.8520   34.0580 C   0  0  0  0  0  0  0  0  0  0  0  0
   36.7380   27.9320   34.6940 O   0  0  0  0  0  0  0  0  0  0  0  0
   36.2460   28.9480   32.6370 N   0  0  0  0  0  0  0  0  0  0  0  0
   35.9200   29.7660   32.0760 H   0  0  0  0  0  0  0  0  0  0  0  0
   35.3220   29.8420   34.7770 C   0  0  0  0  0  0  0  0  0  0  0  0
   35.9670   30.8140   35.4930 C   0  0  0  0  0  0  0  0  0  0  0  0
   35.2180   31.7590   36.1660 C   0  0  0  0  0  0  0  0  0  0  0  0
   33.8480   31.6730   36.0810 C   0  0  0  0  0  0  0  0  0  0  0  0
   33.1860   30.6940   35.3610 C   0  0  0  0  0  0  0  0  0  0  0  0
   33.9850   29.8230   34.7420 N   0  0  0  0  0  0  0  0  0  0  0  0
   37.0380   30.9290   35.5940 H   0  0  0  0  0  0  0  0  0  0  0  0
   35.6570   32.5670   36.7590 H   0  0  0  0  0  0  0  0  0  0  0  0
   33.2650   32.4160   36.6100 H   0  0  0  0  0  0  0  0  0  0  0  0
   31.7010   30.6320   35.2920 C   0  0  0  0  0  2  0  0  0  0  0  0
   31.3840   29.5600   35.2840 H   0  0  0  0  0  0  0  0  0  0  0  0
  1  4  1  1  0  0  0
  1  3  1  0  0  0  0
  2  1  1  0  0  0  0
  2  3  1  0  0  0  0
  3  7  1  1  0  0  0
  3 19  1  0  0  0  0
  5  2  1  0  0  0  0
  6  2  1  0  0  0  0
  8 13  1  0  0  0  0
  8 14  1  0  0  0  0
  9  8  2  0  0  0  0
 10 11  2  0  0  0  0
 10  9  1  0  0  0  0
 11 12  1  0  0  0  0
 12  1  1  0  0  0  0
 12 13  2  0  0  0  0
 15  9  1  0  0  0  0
 16 10  1  0  0  0  0
 17 18  2  0  0  0  0
 17 21  1  0  0  0  0
 19 17  1  0  0  0  0
 20 19  1  0  0  0  0
 21 22  1  0  0  0  0
 22 27  1  0  0  0  0
 22 23  2  0  0  0  0
 23 28  1  0  0  0  0
 24 23  1  0  0  0  0
 24 29  1  0  0  0  0
 25 24  2  0  0  0  0
 26 21  2  0  0  0  0
 26 25  1  0  0  0  0
 30 25  1  0  0  0  0
 31 30  1  0  0  0  0
M  END
>  <minimizedAffinity>
-4.70348454

$$$$

 OpenBabel03272508553D

 31 33  0  0  1  0  0  0  0  0999 V2000
   38.1430   23.9090   34.5350 C   0  0  2  0  0  0  0  0  0  0  0  0
   38.7290   23.0500   33.4960 C   0  0  0  0  0  0  0  0  0  0  0  0
   39.1330   24.5320   33.6890 C   0  0  1  0  0  0  0  0  0  0  0  0
   37.0590   24.0990   34.3880 H   0  0  0  0  0  0  0  0  0  0  0  0
   38.1560   22.8040   32.5900 H   0  0  0  0  0  0  0  0  0  0  0  0
   39.4790   22.2920   33.7480 H   0  0  0  0  0  0  0  0  0  0  0  0
   40.2110   24.6370   34.0020 H   0  0  0  0  0  0  0  0  0  0  0  0
   37.8810   24.0330   38.2250 C   0  0  0  0  0  0  0  0  0  0  0  0
   39.0440   23.3060   38.6410 C   0  0  0  0  0  0  0  0  0  0  0  0
   39.9040   22.7890   37.6010 C   0  0  0  0  0  0  0  0  0  0  0  0
   39.5860   23.0080   36.2920 N   0  0  0  0  0  0  0  0  0  0  0  0
   38.4550   23.7150   35.9880 C   0  0  0  0  0  0  0  0  0  0  0  0
   37.5860   24.2380   36.9240 N   0  0  0  0  0  0  0  0  0  0  0  0
   37.2340   24.4210   38.9770 H   0  0  0  0  0  0  0  0  0  0  0  0
   39.2640   23.1510   39.6740 H   0  0  0  0  0  0  0  0  0  0  0  0
   40.7690   22.2480   37.9010 H   0  0  0  0  0  0  0  0  0  0  0  0
   38.5880   26.7980   32.8990 C   0  0  0  0  0  0  0  0  0  0  0  0
   39.0900   27.2800   33.9590 O   0  0  0  0  0  0  0  0  0  0  0  0
   38.6750   25.4010   32.6150 N   0  0  0  0  0  0  0  0  0  0  0  0
   38.4330   24.9700   31.6960 H   0  0  0  0  0  0  0  0  0  0  0  0
   37.9020   27.6750   31.9350 C   0  0  0  0  0  0  0  0  0  0  0  0
   36.7840   28.3440   32.3540 C   0  0  0  0  0  0  0  0  0  0  0  0
   36.1320   29.1800   31.4690 C   0  0  0  0  0  0  0  0  0  0  0  0
   36.6460   29.2980   30.1990 C   0  0  0  0  0  0  0  0  0  0  0  0
   37.7750   28.6260   29.7650 C   0  0  0  0  0  0  0  0  0  0  0  0
   38.3420   27.8410   30.6830 N   0  0  0  0  0  0  0  0  0  0  0  0
   36.3370   28.2890   33.3380 H   0  0  0  0  0  0  0  0  0  0  0  0
   35.2340   29.7480   31.7260 H   0  0  0  0  0  0  0  0  0  0  0  0
   36.1320   29.9550   29.5090 H   0  0  0  0  0  0  0  0  0  0  0  0
   38.3030   28.7780   28.3820 C   0  0  0  0  0  2  0  0  0  0  0  0
   38.7060   27.7940   28.0380 H   0  0  0  0  0  0  0  0  0  0  0  0
  1  4  1  6  0  0  0
  1 12  1  0  0  0  0
  2  3  1  0  0  0  0
  2  6  1  0  0  0  0
  2  1  1  0  0  0  0
  3  7  1  1  0  0  0
  3  1  1  0  0  0  0
  5  2  1  0  0  0  0
  8  9  1  0  0  0  0
  8 14  1  0  0  0  0
  9 15  1  0  0  0  0
 10 16  1  0  0  0  0
 10  9  2  0  0  0  0
 11 10  1  0  0  0  0
 12 11  2  0  0  0  0
 12 13  1  0  0  0  0
 13  8  2  0  0  0  0
 17 18  2  0  0  0  0
 19 17  1  0  0  0  0
 19  3  1  0  0  0  0
 20 19  1  0  0  0  0
 21 22  1  0  0  0  0
 21 17  1  0  0  0  0
 22 27  1  0  0  0  0
 23 28  1  0  0  0  0
 23 22  2  0  0  0  0
 24 23  1  0  0  0  0
 25 24  2  0  0  0  0
 25 26  1  0  0  0  0
 26 21  2  0  0  0  0
 29 24  1  0  0  0  0
 30 25  1  0  0  0  0
 31 30  1  0  0  0  0
M  END
>  <minimizedAffinity>
-4.68099213

$$$$

 OpenBabel03272508553D

 31 33  0  0  1  0  0  0  0  0999 V2000
   38.8330   26.2170   35.2520 C   0  0  2  0  0  0  0  0  0  0  0  0
   38.3890   27.1380   36.3090 C   0  0  0  0  0  0  0  0  0  0  0  0
   37.4680   26.6770   35.1530 C   0  0  1  0  0  0  0  0  0  0  0  0
   39.6310   26.6410   34.6070 H   0  0  0  0  0  0  0  0  0  0  0  0
   38.7100   28.1900   36.3000 H   0  0  0  0  0  0  0  0  0  0  0  0
   38.1500   26.7700   37.3140 H   0  0  0  0  0  0  0  0  0  0  0  0
   36.5990   26.0640   35.5260 H   0  0  0  0  0  0  0  0  0  0  0  0
   38.2690   22.6490   36.0590 C   0  0  0  0  0  0  0  0  0  0  0  0
   39.5910   22.1030   35.9840 C   0  0  0  0  0  0  0  0  0  0  0  0
   40.6630   23.0160   35.6530 C   0  0  0  0  0  0  0  0  0  0  0  0
   40.3810   24.3330   35.4310 N   0  0  0  0  0  0  0  0  0  0  0  0
   39.0870   24.7660   35.5260 C   0  0  0  0  0  0  0  0  0  0  0  0
   38.0140   23.9560   35.8360 N   0  0  0  0  0  0  0  0  0  0  0  0
   37.4650   21.9920   36.3010 H   0  0  0  0  0  0  0  0  0  0  0  0
   39.7780   21.0670   36.1630 H   0  0  0  0  0  0  0  0  0  0  0  0
   41.6480   22.6190   35.5960 H   0  0  0  0  0  0  0  0  0  0  0  0
   36.8820   27.3390   32.8560 C   0  0  0  0  0  0  0  0  0  0  0  0
   36.6950   26.1200   32.5610 O   0  0  0  0  0  0  0  0  0  0  0  0
   37.1640   27.7330   34.2000 N   0  0  0  0  0  0  0  0  0  0  0  0
   37.1640   28.7210   34.5360 H   0  0  0  0  0  0  0  0  0  0  0  0
   36.8140   28.3750   31.8120 C   0  0  0  0  0  0  0  0  0  0  0  0
   36.1200   29.5220   32.0870 C   0  0  0  0  0  0  0  0  0  0  0  0
   36.0520   30.5110   31.1270 C   0  0  0  0  0  0  0  0  0  0  0  0
   36.6920   30.2890   29.9290 C   0  0  0  0  0  0  0  0  0  0  0  0
   37.3950   29.1330   29.6400 C   0  0  0  0  0  0  0  0  0  0  0  0
   37.4100   28.2310   30.6240 N   0  0  0  0  0  0  0  0  0  0  0  0
   35.6000   29.7490   33.0090 H   0  0  0  0  0  0  0  0  0  0  0  0
   35.5190   31.4550   31.2680 H   0  0  0  0  0  0  0  0  0  0  0  0
   36.6360   31.0670   29.1790 H   0  0  0  0  0  0  0  0  0  0  0  0
   38.0740   28.9260   28.3330 C   0  0  0  0  0  2  0  0  0  0  0  0
   37.9850   27.8500   28.0440 H   0  0  0  0  0  0  0  0  0  0  0  0
  1  4  1  6  0  0  0
  1 12  1  0  0  0  0
  1  2  1  0  0  0  0
  2  6  1  0  0  0  0
  3  1  1  0  0  0  0
  3  7  1  1  0  0  0
  3  2  1  0  0  0  0
  5  2  1  0  0  0  0
  8 14  1  0  0  0  0
  9  8  1  0  0  0  0
  9 15  1  0  0  0  0
 10  9  2  0  0  0  0
 11 12  2  0  0  0  0
 11 10  1  0  0  0  0
 12 13  1  0  0  0  0
 13  8  2  0  0  0  0
 16 10  1  0  0  0  0
 17 19  1  0  0  0  0
 18 17  2  0  0  0  0
 19 20  1  0  0  0  0
 19  3  1  0  0  0  0
 21 22  1  0  0  0  0
 21 17  1  0  0  0  0
 22 27  1  0  0  0  0
 23 28  1  0  0  0  0
 23 22  2  0  0  0  0
 24 23  1  0  0  0  0
 25 24  2  0  0  0  0
 25 26  1  0  0  0  0
 26 21  2  0  0  0  0
 29 24  1  0  0  0  0
 30 25  1  0  0  0  0
 31 30  1  0  0  0  0
M  END
>  <minimizedAffinity>
-4.67131281

$$$$

 OpenBabel03272508553D

 31 33  0  0  1  0  0  0  0  0999 V2000
   36.4250   23.6560   31.2000 C   0  0  2  0  0  0  0  0  0  0  0  0
   37.6970   23.8570   30.4910 C   0  0  0  0  0  0  0  0  0  0  0  0
   37.3620   24.5550   31.8310 C   0  0  1  0  0  0  0  0  0  0  0  0
   35.5460   24.0410   30.6430 H   0  0  0  0  0  0  0  0  0  0  0  0
   37.7400   24.4940   29.5950 H   0  0  0  0  0  0  0  0  0  0  0  0
   38.4810   23.0910   30.5100 H   0  0  0  0  0  0  0  0  0  0  0  0
   38.0470   24.2230   32.6630 H   0  0  0  0  0  0  0  0  0  0  0  0
   34.9750   20.3180   31.8750 C   0  0  0  0  0  0  0  0  0  0  0  0
   35.5490   19.9840   33.1450 C   0  0  0  0  0  0  0  0  0  0  0  0
   36.4370   20.9560   33.7420 C   0  0  0  0  0  0  0  0  0  0  0  0
   36.6900   22.1270   33.0900 N   0  0  0  0  0  0  0  0  0  0  0  0
   36.0970   22.3620   31.8800 C   0  0  0  0  0  0  0  0  0  0  0  0
   35.2400   21.4840   31.2480 N   0  0  0  0  0  0  0  0  0  0  0  0
   34.3190   19.6150   31.4180 H   0  0  0  0  0  0  0  0  0  0  0  0
   35.3310   19.0570   33.6280 H   0  0  0  0  0  0  0  0  0  0  0  0
   36.8670   20.7150   34.6850 H   0  0  0  0  0  0  0  0  0  0  0  0
   36.9130   26.7270   32.9000 C   0  0  0  0  0  0  0  0  0  0  0  0
   37.1090   26.1990   34.0360 O   0  0  0  0  0  0  0  0  0  0  0  0
   37.1410   25.9870   31.6990 N   0  0  0  0  0  0  0  0  0  0  0  0
   37.1590   26.4060   30.7430 H   0  0  0  0  0  0  0  0  0  0  0  0
   36.4440   28.1180   32.7970 C   0  0  0  0  0  0  0  0  0  0  0  0
   36.4440   28.7100   31.5630 C   0  0  0  0  0  0  0  0  0  0  0  0
   35.9980   30.0100   31.4430 C   0  0  0  0  0  0  0  0  0  0  0  0
   35.5720   30.6520   32.5830 C   0  0  0  0  0  0  0  0  0  0  0  0
   35.5690   30.0640   33.8360 C   0  0  0  0  0  0  0  0  0  0  0  0
   36.0150   28.8060   33.8610 N   0  0  0  0  0  0  0  0  0  0  0  0
   36.7660   28.2540   30.6360 H   0  0  0  0  0  0  0  0  0  0  0  0
   35.9660   30.5530   30.4940 H   0  0  0  0  0  0  0  0  0  0  0  0
   35.2230   31.6720   32.4840 H   0  0  0  0  0  0  0  0  0  0  0  0
   35.1020   30.7890   35.0480 C   0  0  0  0  0  2  0  0  0  0  0  0
   35.7350   30.4860   35.9180 H   0  0  0  0  0  0  0  0  0  0  0  0
  1  4  1  6  0  0  0
  1  3  1  0  0  0  0
  1 12  1  0  0  0  0
  2  6  1  0  0  0  0
  2  1  1  0  0  0  0
  2  3  1  0  0  0  0
  3  7  1  1  0  0  0
  5  2  1  0  0  0  0
  8  9  1  0  0  0  0
  9 15  1  0  0  0  0
  9 10  2  0  0  0  0
 10 16  1  0  0  0  0
 11 10  1  0  0  0  0
 12 11  2  0  0  0  0
 13  8  2  0  0  0  0
 13 12  1  0  0  0  0
 14  8  1  0  0  0  0
 17 18  2  0  0  0  0
 19  3  1  0  0  0  0
 19 17  1  0  0  0  0
 20 19  1  0  0  0  0
 21 17  1  0  0  0  0
 21 26  1  0  0  0  0
 22 21  2  0  0  0  0
 23 22  1  0  0  0  0
 23 24  2  0  0  0  0
 24 25  1  0  0  0  0
 25 26  2  0  0  0  0
 25 30  1  0  0  0  0
 27 22  1  0  0  0  0
 28 23  1  0  0  0  0
 29 24  1  0  0  0  0
 30 31  1  0  0  0  0
M  END
>  <minimizedAffinity>
-4.62028313

$$$$

 OpenBabel03272508553D

 31 33  0  0  1  0  0  0  0  0999 V2000
   38.8490   26.4740   35.0540 C   0  0  2  0  0  0  0  0  0  0  0  0
   38.1160   27.5000   35.8100 C   0  0  0  0  0  0  0  0  0  0  0  0
   37.5180   26.7740   34.5810 C   0  0  1  0  0  0  0  0  0  0  0  0
   39.7460   26.8680   34.5330 H   0  0  0  0  0  0  0  0  0  0  0  0
   38.3650   28.5650   35.6870 H   0  0  0  0  0  0  0  0  0  0  0  0
   37.6750   27.2730   36.7880 H   0  0  0  0  0  0  0  0  0  0  0  0
   36.6250   26.1430   34.8580 H   0  0  0  0  0  0  0  0  0  0  0  0
   40.4600   23.2090   35.7230 C   0  0  0  0  0  0  0  0  0  0  0  0
   39.6090   22.6460   36.7290 C   0  0  0  0  0  0  0  0  0  0  0  0
   38.4720   23.4360   37.1470 C   0  0  0  0  0  0  0  0  0  0  0  0
   38.2570   24.6590   36.5820 N   0  0  0  0  0  0  0  0  0  0  0  0
   39.1220   25.1170   35.6260 C   0  0  0  0  0  0  0  0  0  0  0  0
   40.2260   24.4220   35.1770 N   0  0  0  0  0  0  0  0  0  0  0  0
   41.3030   22.6440   35.4010 H   0  0  0  0  0  0  0  0  0  0  0  0
   39.8060   21.6860   37.1520 H   0  0  0  0  0  0  0  0  0  0  0  0
   37.8360   23.0250   37.8930 H   0  0  0  0  0  0  0  0  0  0  0  0
   37.4370   27.0040   32.1320 C   0  0  0  0  0  0  0  0  0  0  0  0
   37.3980   25.7410   32.0230 O   0  0  0  0  0  0  0  0  0  0  0  0
   37.3760   27.6310   33.4140 N   0  0  0  0  0  0  0  0  0  0  0  0
   37.2380   28.6550   33.5630 H   0  0  0  0  0  0  0  0  0  0  0  0
   37.5470   27.8510   30.9330 C   0  0  0  0  0  0  0  0  0  0  0  0
   36.8060   29.0010   30.8850 C   0  0  0  0  0  0  0  0  0  0  0  0
   36.9030   29.8150   29.7750 C   0  0  0  0  0  0  0  0  0  0  0  0
   37.7470   29.4240   28.7620 C   0  0  0  0  0  0  0  0  0  0  0  0
   38.4990   28.2620   28.7990 C   0  0  0  0  0  0  0  0  0  0  0  0
   38.3460   27.5360   29.9080 N   0  0  0  0  0  0  0  0  0  0  0  0
   36.1290   29.3570   31.6510 H   0  0  0  0  0  0  0  0  0  0  0  0
   36.3450   30.7490   29.6600 H   0  0  0  0  0  0  0  0  0  0  0  0
   37.8190   30.0650   27.8930 H   0  0  0  0  0  0  0  0  0  0  0  0
   39.4030   27.8700   27.6840 C   0  0  0  0  0  2  0  0  0  0  0  0
   39.3750   26.7590   27.5700 H   0  0  0  0  0  0  0  0  0  0  0  0
  1  4  1  6  0  0  0
  1 12  1  0  0  0  0
  1  2  1  0  0  0  0
  2  6  1  0  0  0  0
  3  7  1  1  0  0  0
  3  1  1  0  0  0  0
  3  2  1  0  0  0  0
  5  2  1  0  0  0  0
  8  9  1  0  0  0  0
  9 10  2  0  0  0  0
  9 15  1  0  0  0  0
 10 16  1  0  0  0  0
 11 10  1  0  0  0  0
 12 11  2  0  0  0  0
 13 12  1  0  0  0  0
 13  8  2  0  0  0  0
 14  8  1  0  0  0  0
 17 19  1  0  0  0  0
 18 17  2  0  0  0  0
 19 20  1  0  0  0  0
 19  3  1  0  0  0  0
 21 17  1  0  0  0  0
 22 21  1  0  0  0  0
 22 27  1  0  0  0  0
 23 22  2  0  0  0  0
 24 25  2  0  0  0  0
 24 23  1  0  0  0  0
 25 26  1  0  0  0  0
 26 21  2  0  0  0  0
 28 23  1  0  0  0  0
 29 24  1  0  0  0  0
 30 25  1  0  0  0  0
 31 30  1  0  0  0  0
M  END
>  <minimizedAffinity>
-4.5608778

$$$$

 OpenBabel03272508553D

 31 33  0  0  1  0  0  0  0  0999 V2000
   39.9480   23.5700   36.8260 C   0  0  2  0  0  0  0  0  0  0  0  0
   38.8480   23.2430   37.7460 C   0  0  0  0  0  0  0  0  0  0  0  0
   38.6870   23.2400   36.2060 C   0  0  1  0  0  0  0  0  0  0  0  0
   40.2910   24.6230   36.9080 H   0  0  0  0  0  0  0  0  0  0  0  0
   38.3310   24.0400   38.2990 H   0  0  0  0  0  0  0  0  0  0  0  0
   38.8070   22.2720   38.2530 H   0  0  0  0  0  0  0  0  0  0  0  0
   38.4640   22.2100   35.8070 H   0  0  0  0  0  0  0  0  0  0  0  0
   42.3280   20.7750   37.3000 C   0  0  0  0  0  0  0  0  0  0  0  0
   43.2390   20.9580   36.2090 C   0  0  0  0  0  0  0  0  0  0  0  0
   42.9940   22.0770   35.3260 C   0  0  0  0  0  0  0  0  0  0  0  0
   41.9300   22.8980   35.5600 N   0  0  0  0  0  0  0  0  0  0  0  0
   41.1120   22.6480   36.6280 C   0  0  0  0  0  0  0  0  0  0  0  0
   41.2820   21.6020   37.5120 N   0  0  0  0  0  0  0  0  0  0  0  0
   42.4910   19.9560   37.9610 H   0  0  0  0  0  0  0  0  0  0  0  0
   44.0620   20.2960   36.0530 H   0  0  0  0  0  0  0  0  0  0  0  0
   43.6650   22.2190   34.5140 H   0  0  0  0  0  0  0  0  0  0  0  0
   38.1120   24.7900   34.3820 C   0  0  0  0  0  0  0  0  0  0  0  0
   38.8740   24.1420   33.6030 O   0  0  0  0  0  0  0  0  0  0  0  0
   37.8570   24.3280   35.7100 N   0  0  0  0  0  0  0  0  0  0  0  0
   37.1200   24.7170   36.3380 H   0  0  0  0  0  0  0  0  0  0  0  0
   37.4730   26.0370   33.9310 C   0  0  0  0  0  0  0  0  0  0  0  0
   37.1320   26.9660   34.8760 C   0  0  0  0  0  0  0  0  0  0  0  0
   36.5410   28.1470   34.4730 C   0  0  0  0  0  0  0  0  0  0  0  0
   36.3230   28.3300   33.1270 C   0  0  0  0  0  0  0  0  0  0  0  0
   36.6630   27.3970   32.1630 C   0  0  0  0  0  0  0  0  0  0  0  0
   37.2290   26.2860   32.6390 N   0  0  0  0  0  0  0  0  0  0  0  0
   37.2800   26.8750   35.9440 H   0  0  0  0  0  0  0  0  0  0  0  0
   36.2400   28.9380   35.1650 H   0  0  0  0  0  0  0  0  0  0  0  0
   35.8600   29.2580   32.8160 H   0  0  0  0  0  0  0  0  0  0  0  0
   36.4110   27.6290   30.7150 C   0  0  0  0  0  2  0  0  0  0  0  0
   36.1220   26.6610   30.2380 H   0  0  0  0  0  0  0  0  0  0  0  0
  1  4  1  6  0  0  0
  1  2  1  0  0  0  0
  2  6  1  0  0  0  0
  2  5  1  0  0  0  0
  3  7  1  6  0  0  0
  3  1  1  0  0  0  0
  3  2  1  0  0  0  0
  8 13  1  0  0  0  0
  8 14  1  0  0  0  0
  9  8  2  0  0  0  0
 10 11  2  0  0  0  0
 10  9  1  0  0  0  0
 11 12  1  0  0  0  0
 12  1  1  0  0  0  0
 12 13  2  0  0  0  0
 15  9  1  0  0  0  0
 16 10  1  0  0  0  0
 17 19  1  0  0  0  0
 18 17  2  0  0  0  0
 19  3  1  0  0  0  0
 19 20  1  0  0  0  0
 21 17  1  0  0  0  0
 21 22  1  0  0  0  0
 22 27  1  0  0  0  0
 23 22  2  0  0  0  0
 23 28  1  0  0  0  0
 24 23  1  0  0  0  0
 25 26  1  0  0  0  0
 25 24  2  0  0  0  0
 26 21  2  0  0  0  0
 29 24  1  0  0  0  0
 30 25  1  0  0  0  0
 31 30  1  0  0  0  0
M  END
>  <minimizedAffinity>
-4.55533409

$$$$

 OpenBabel03272508553D

 31 33  0  0  1  0  0  0  0  0999 V2000
   38.4000   26.1910   34.9350 C   0  0  2  0  0  0  0  0  0  0  0  0
   38.2160   27.2250   35.9640 C   0  0  0  0  0  0  0  0  0  0  0  0
   37.1620   26.9300   34.8690 C   0  0  1  0  0  0  0  0  0  0  0  0
   39.2370   26.4080   34.2390 H   0  0  0  0  0  0  0  0  0  0  0  0
   38.7540   28.1820   35.8930 H   0  0  0  0  0  0  0  0  0  0  0  0
   37.9540   26.9550   36.9940 H   0  0  0  0  0  0  0  0  0  0  0  0
   36.2010   26.5330   35.3050 H   0  0  0  0  0  0  0  0  0  0  0  0
   38.4340   23.0270   36.8560 C   0  0  0  0  0  0  0  0  0  0  0  0
   38.2200   22.0440   35.8360 C   0  0  0  0  0  0  0  0  0  0  0  0
   38.0730   22.5240   34.4790 C   0  0  0  0  0  0  0  0  0  0  0  0
   38.1430   23.8640   34.2280 N   0  0  0  0  0  0  0  0  0  0  0  0
   38.3520   24.7300   35.2660 C   0  0  0  0  0  0  0  0  0  0  0  0
   38.5000   24.3480   36.5830 N   0  0  0  0  0  0  0  0  0  0  0  0
   38.5440   22.6940   37.8620 H   0  0  0  0  0  0  0  0  0  0  0  0
   38.1690   21.0030   36.0660 H   0  0  0  0  0  0  0  0  0  0  0  0
   37.9140   21.8020   33.7160 H   0  0  0  0  0  0  0  0  0  0  0  0
   36.7470   27.6010   32.5380 C   0  0  0  0  0  0  0  0  0  0  0  0
   36.3920   26.4150   32.2680 O   0  0  0  0  0  0  0  0  0  0  0  0
   37.0430   27.9910   33.8800 N   0  0  0  0  0  0  0  0  0  0  0  0
   37.1780   28.9780   34.1910 H   0  0  0  0  0  0  0  0  0  0  0  0
   36.8610   28.6050   31.4670 C   0  0  0  0  0  0  0  0  0  0  0  0
   37.2360   28.1810   30.2210 C   0  0  0  0  0  0  0  0  0  0  0  0
   37.3390   29.1050   29.2010 C   0  0  0  0  0  0  0  0  0  0  0  0
   37.0560   30.4190   29.4920 C   0  0  0  0  0  0  0  0  0  0  0  0
   36.6770   30.8590   30.7480 C   0  0  0  0  0  0  0  0  0  0  0  0
   36.6030   29.9010   31.6750 N   0  0  0  0  0  0  0  0  0  0  0  0
   37.4690   27.1630   29.9370 H   0  0  0  0  0  0  0  0  0  0  0  0
   37.6310   28.8460   28.1790 H   0  0  0  0  0  0  0  0  0  0  0  0
   37.1380   31.1400   28.6890 H   0  0  0  0  0  0  0  0  0  0  0  0
   36.3790   32.2900   31.0280 C   0  0  0  0  0  2  0  0  0  0  0  0
   36.7390   32.5410   32.0560 H   0  0  0  0  0  0  0  0  0  0  0  0
  1  4  1  6  0  0  0
  1 12  1  0  0  0  0
  1  2  1  0  0  0  0
  2  6  1  0  0  0  0
  3  1  1  0  0  0  0
  3  7  1  1  0  0  0
  3  2  1  0  0  0  0
  5  2  1  0  0  0  0
  8 14  1  0  0  0  0
  9 15  1  0  0  0  0
  9  8  2  0  0  0  0
 10  9  1  0  0  0  0
 11 10  2  0  0  0  0
 11 12  1  0  0  0  0
 12 13  2  0  0  0  0
 13  8  1  0  0  0  0
 16 10  1  0  0  0  0
 17 19  1  0  0  0  0
 18 17  2  0  0  0  0
 19 20  1  0  0  0  0
 19  3  1  0  0  0  0
 21 26  1  0  0  0  0
 21 17  1  0  0  0  0
 22 21  2  0  0  0  0
 23 24  2  0  0  0  0
 23 22  1  0  0  0  0
 24 25  1  0  0  0  0
 25 30  1  0  0  0  0
 25 26  2  0  0  0  0
 27 22  1  0  0  0  0
 28 23  1  0  0  0  0
 29 24  1  0  0  0  0
 30 31  1  0  0  0  0
M  END
>  <minimizedAffinity>
-4.55179834

$$$$
