
 OpenBabel03272502443D

 28 30  0  0  0  0  0  0  0  0999 V2000
   38.1310   32.5690   49.5070 C   0  0  0  0  0  0  0  0  0  0  0  0
   38.7970   32.9090   48.3330 C   0  0  0  0  0  0  0  0  0  0  0  0
   38.3710   32.2600   47.1550 C   0  0  0  0  0  0  0  0  0  0  0  0
   37.3550   31.3590   47.2380 N   0  0  0  0  0  0  0  0  0  0  0  0
   36.7410   31.0640   48.4020 C   0  0  0  0  0  0  0  0  0  0  0  0
   37.1440   31.6800   49.5310 N   0  0  0  0  0  0  0  0  0  0  0  0
   38.4880   33.0900   50.3910 H   0  0  0  0  0  0  0  0  0  0  0  0
   39.6040   33.6160   48.2150 H   0  0  0  0  0  0  0  0  0  0  0  0
   37.0180   28.9220   50.4350 Cl  0  0  0  0  0  0  0  0  0  0  0  0
   35.7020   29.0470   49.3270 C   0  0  0  0  0  0  0  0  0  0  0  0
   35.6690   30.0940   48.4110 C   0  0  0  0  0  0  0  0  0  0  0  0
   34.6460   30.2200   47.5250 C   0  0  0  0  0  0  0  0  0  0  0  0
   33.6010   29.3040   47.5080 C   0  0  0  0  0  0  0  0  0  0  0  0
   33.6050   28.2600   48.4000 C   0  0  0  0  0  0  0  0  0  0  0  0
   32.3460   27.0390   48.4800 Cl  0  0  0  0  0  0  0  0  0  0  0  0
   34.6530   28.1670   49.2770 C   0  0  0  0  0  0  0  0  0  0  0  0
   34.5590   31.0090   46.7870 H   0  0  0  0  0  0  0  0  0  0  0  0
   32.7600   29.3510   46.8290 H   0  0  0  0  0  0  0  0  0  0  0  0
   34.7350   27.3610   50.0240 H   0  0  0  0  0  0  0  0  0  0  0  0
   38.9920   32.5380   45.8770 C   0  0  0  0  0  0  0  0  0  0  0  0
   40.3610   32.7110   45.6990 C   0  0  0  0  0  0  0  0  0  0  0  0
   40.6520   32.9590   44.3970 N   0  0  0  0  0  0  0  0  0  0  0  0
   39.4700   32.9430   43.7550 C   0  0  0  0  0  0  0  0  0  0  0  0
   38.5110   32.6940   44.6430 N   0  0  0  0  0  0  0  0  0  0  0  0
   41.1430   32.6670   46.4520 H   0  0  0  0  0  0  0  0  0  0  0  0
   41.5910   33.1250   43.9900 H   0  0  0  0  0  0  0  0  0  0  0  0
   39.2310   33.1630   42.2850 C   0  0  0  0  0  0  0  0  0  0  0  0
   38.4040   32.5050   41.9020 H   0  0  0  0  0  0  0  0  0  0  0  0
  1  6  1  0  0  0  0
  1  7  1  0  0  0  0
  2  1  2  0  0  0  0
  3  4  2  0  0  0  0
  3  2  1  0  0  0  0
  4  5  1  0  0  0  0
  5 11  1  0  0  0  0
  5  6  2  0  0  0  0
  8  2  1  0  0  0  0
 10  9  1  0  0  0  0
 11 10  2  0  0  0  0
 12 11  1  0  0  0  0
 13 12  2  0  0  0  0
 13 14  1  0  0  0  0
 14 15  1  0  0  0  0
 14 16  2  0  0  0  0
 16 10  1  0  0  0  0
 16 19  1  0  0  0  0
 17 12  1  0  0  0  0
 18 13  1  0  0  0  0
 20  3  1  0  0  0  0
 21 20  2  0  0  0  0
 21 25  1  0  0  0  0
 22 21  1  0  0  0  0
 23 22  1  0  0  0  0
 23 24  2  0  0  0  0
 24 20  1  0  0  0  0
 26 22  1  0  0  0  0
 27 23  1  0  0  0  0
 28 27  1  0  0  0  0
M  END
>  <minimizedAffinity>
-6.59908772

>  <minimizedRMSD>
1.14940596

$$$$
