
 OpenBabel03272510283D

 38 41  0  0  1  0  0  0  0  0999 V2000
   38.0870   24.6400   33.8370 C   0  0  0  0  0  0  0  0  0  0  0  0
   38.1020   25.1120   35.1270 C   0  0  0  0  0  0  0  0  0  0  0  0
   37.5600   26.3700   35.4370 C   0  0  0  0  0  0  0  0  0  0  0  0
   37.0190   27.0990   34.3930 C   0  0  0  0  0  0  0  0  0  0  0  0
   36.4350   28.3320   34.4380 N   0  0  0  0  0  0  0  0  0  0  0  0
   36.0640   28.6160   33.1790 C   0  0  0  0  0  0  0  0  0  0  0  0
   36.3850   27.6330   32.3660 N   0  0  0  0  0  0  0  0  0  0  0  0
   36.9910   26.6490   33.0840 C   0  0  0  0  0  0  0  0  0  0  0  0
   37.5400   25.3900   32.8080 C   0  0  0  0  0  0  0  0  0  0  0  0
   38.5000   23.6740   33.5840 H   0  0  0  0  0  0  0  0  0  0  0  0
   37.5580   26.7650   36.4440 H   0  0  0  0  0  0  0  0  0  0  0  0
   36.3110   28.9260   35.3060 H   0  0  0  0  0  0  0  0  0  0  0  0
   37.5150   25.0470   31.7930 H   0  0  0  0  0  0  0  0  0  0  0  0
   38.8760   23.3100   38.3440 C   0  0  0  0  0  0  0  0  0  0  0  0
   38.1900   24.1240   37.4530 C   0  0  0  0  0  0  0  0  0  0  0  0
   38.6800   24.3040   36.1850 C   0  0  0  0  0  0  0  0  0  0  0  0
   39.8530   23.6510   35.8640 N   0  0  0  0  0  0  0  0  0  0  0  0
   40.5170   22.8640   36.7280 C   0  0  0  0  0  0  0  0  0  0  0  0
   40.0330   22.6980   37.9510 N   0  0  0  0  0  0  0  0  0  0  0  0
   38.4730   23.1800   39.3440 H   0  0  0  0  0  0  0  0  0  0  0  0
   37.2800   24.6400   37.6780 H   0  0  0  0  0  0  0  0  0  0  0  0
   41.4340   22.3780   36.4150 H   0  0  0  0  0  0  0  0  0  0  0  0
   35.4230   29.8230   32.8640 O   0  0  0  0  0  0  0  0  0  0  0  0
   35.1930   31.0840   34.7570 N   0  0  0  0  0  0  0  0  0  0  0  0
   34.4360   30.2610   33.7880 C   0  0  1  0  0  0  0  0  0  0  0  0
   33.4220   31.0980   33.1600 C   0  0  0  0  0  0  0  0  0  0  0  0
   32.4990   31.5030   34.1430 O   0  0  0  0  0  0  0  0  0  0  0  0
   33.0410   32.1440   35.2160 C   0  0  0  0  0  0  0  0  0  0  0  0
   34.2330   31.4180   35.7870 C   0  0  2  0  0  0  0  0  0  0  0  0
   35.8640   30.4060   35.1850 H   0  0  0  0  0  0  0  0  0  0  0  0
   33.9650   29.4280   34.3420 H   0  0  0  0  0  0  0  0  0  0  0  0
   33.6040   31.9750   32.6040 H   0  0  0  0  0  0  0  0  0  0  0  0
   32.7980   30.4230   32.4960 H   0  0  0  0  0  0  0  0  0  0  0  0
   32.2780   32.2420   35.9850 H   0  0  0  0  0  0  0  0  0  0  0  0
   33.4360   33.1430   34.8700 H   0  0  0  0  0  0  0  0  0  0  0  0
   33.8470   30.4350   36.1750 H   0  0  0  0  0  0  0  0  0  0  0  0
   34.8170   32.1730   36.9420 C   0  0  0  0  0  2  0  0  0  0  0  0
   35.9100   32.0000   36.9770 H   0  0  0  0  0  0  0  0  0  0  0  0
  1  2  1  0  0  0  0
  2  3  2  0  0  0  0
  2 16  1  0  0  0  0
  3 11  1  0  0  0  0
  4  5  1  0  0  0  0
  4  3  1  0  0  0  0
  5 12  1  0  0  0  0
  6  5  1  0  0  0  0
  7  8  1  0  0  0  0
  7  6  2  0  0  0  0
  8  4  2  0  0  0  0
  9  8  1  0  0  0  0
  9  1  2  0  0  0  0
 10  1  1  0  0  0  0
 13  9  1  0  0  0  0
 14 20  1  0  0  0  0
 15 21  1  0  0  0  0
 15 14  2  0  0  0  0
 16 15  1  0  0  0  0
 17 16  2  0  0  0  0
 17 18  1  0  0  0  0
 18 19  2  0  0  0  0
 19 14  1  0  0  0  0
 22 18  1  0  0  0  0
 23  6  1  0  0  0  0
 23 25  1  0  0  0  0
 24 30  1  0  0  0  0
 24 29  1  0  0  0  0
 25 31  1  1  0  0  0
 25 24  1  0  0  0  0
 26 25  1  0  0  0  0
 26 27  1  0  0  0  0
 27 28  1  0  0  0  0
 28 29  1  0  0  0  0
 28 34  1  0  0  0  0
 29 36  1  1  0  0  0
 29 37  1  0  0  0  0
 32 26  1  0  0  0  0
 33 26  1  0  0  0  0
 35 28  1  0  0  0  0
 37 38  1  0  0  0  0
M  END
>  <minimizedAffinity>
-5.63494015

$$$$

 OpenBabel03272510283D

 38 41  0  0  1  0  0  0  0  0999 V2000
   35.5640   28.8290   32.6380 C   0  0  0  0  0  0  0  0  0  0  0  0
   35.9280   29.1260   33.9280 C   0  0  0  0  0  0  0  0  0  0  0  0
   36.6870   28.2190   34.6870 C   0  0  0  0  0  0  0  0  0  0  0  0
   37.0410   27.0290   34.0770 C   0  0  0  0  0  0  0  0  0  0  0  0
   37.7720   25.9990   34.5980 N   0  0  0  0  0  0  0  0  0  0  0  0
   37.8530   25.0720   33.6290 C   0  0  0  0  0  0  0  0  0  0  0  0
   37.2180   25.4720   32.5480 N   0  0  0  0  0  0  0  0  0  0  0  0
   36.6880   26.7020   32.7790 C   0  0  0  0  0  0  0  0  0  0  0  0
   35.9320   27.6290   32.0500 C   0  0  0  0  0  0  0  0  0  0  0  0
   34.9810   29.5180   32.0430 H   0  0  0  0  0  0  0  0  0  0  0  0
   36.9880   28.4280   35.7040 H   0  0  0  0  0  0  0  0  0  0  0  0
   38.1810   25.9620   35.5740 H   0  0  0  0  0  0  0  0  0  0  0  0
   35.6600   27.3710   31.0450 H   0  0  0  0  0  0  0  0  0  0  0  0
   35.4990   32.1710   36.1050 C   0  0  0  0  0  0  0  0  0  0  0  0
   35.9910   30.9420   35.6870 C   0  0  0  0  0  0  0  0  0  0  0  0
   35.5320   30.3910   34.5180 C   0  0  0  0  0  0  0  0  0  0  0  0
   34.5870   31.1090   33.8120 N   0  0  0  0  0  0  0  0  0  0  0  0
   34.1110   32.2990   34.2180 C   0  0  0  0  0  0  0  0  0  0  0  0
   34.5630   32.8200   35.3500 N   0  0  0  0  0  0  0  0  0  0  0  0
   35.8740   32.5910   37.0340 H   0  0  0  0  0  0  0  0  0  0  0  0
   36.7220   30.3680   36.2170 H   0  0  0  0  0  0  0  0  0  0  0  0
   33.3700   32.8130   33.6180 H   0  0  0  0  0  0  0  0  0  0  0  0
   38.5450   23.8690   33.8300 O   0  0  0  0  0  0  0  0  0  0  0  0
   38.2690   23.4560   36.0610 N   0  0  0  0  0  0  0  0  0  0  0  0
   39.2890   23.7760   35.0370 C   0  0  1  0  0  0  0  0  0  0  0  0
   40.2670   22.6950   35.0030 C   0  0  0  0  0  0  0  0  0  0  0  0
   40.9420   22.6590   36.2370 O   0  0  0  0  0  0  0  0  0  0  0  0
   40.1410   22.5350   37.3320 C   0  0  0  0  0  0  0  0  0  0  0  0
   38.9840   23.5020   37.3190 C   0  0  2  0  0  0  0  0  0  0  0  0
   37.6380   24.2900   36.0480 H   0  0  0  0  0  0  0  0  0  0  0  0
   39.7710   24.7290   35.3200 H   0  0  0  0  0  0  0  0  0  0  0  0
   40.0600   21.6830   34.7950 H   0  0  0  0  0  0  0  0  0  0  0  0
   41.0840   23.0080   34.2810 H   0  0  0  0  0  0  0  0  0  0  0  0
   40.7410   22.7040   38.2230 H   0  0  0  0  0  0  0  0  0  0  0  0
   39.6740   21.5080   37.3140 H   0  0  0  0  0  0  0  0  0  0  0  0
   39.4330   24.5310   37.3780 H   0  0  0  0  0  0  0  0  0  0  0  0
   38.1110   23.3080   38.5210 C   0  0  0  0  0  2  0  0  0  0  0  0
   37.0630   23.5490   38.2560 H   0  0  0  0  0  0  0  0  0  0  0  0
  1  2  1  0  0  0  0
  2 16  1  0  0  0  0
  2  3  2  0  0  0  0
  3 11  1  0  0  0  0
  4  5  1  0  0  0  0
  4  3  1  0  0  0  0
  5 12  1  0  0  0  0
  6 23  1  0  0  0  0
  6  5  1  0  0  0  0
  7  8  1  0  0  0  0
  7  6  2  0  0  0  0
  8  4  2  0  0  0  0
  9  1  2  0  0  0  0
  9  8  1  0  0  0  0
 10  1  1  0  0  0  0
 13  9  1  0  0  0  0
 14 20  1  0  0  0  0
 15 14  1  0  0  0  0
 15 21  1  0  0  0  0
 16 15  2  0  0  0  0
 17 18  2  0  0  0  0
 17 16  1  0  0  0  0
 18 19  1  0  0  0  0
 19 14  2  0  0  0  0
 22 18  1  0  0  0  0
 23 25  1  0  0  0  0
 24 29  1  0  0  0  0
 25 31  1  1  0  0  0
 25 24  1  0  0  0  0
 26 25  1  0  0  0  0
 26 27  1  0  0  0  0
 27 28  1  0  0  0  0
 28 34  1  0  0  0  0
 29 28  1  0  0  0  0
 29 36  1  1  0  0  0
 29 37  1  0  0  0  0
 30 24  1  0  0  0  0
 32 26  1  0  0  0  0
 33 26  1  0  0  0  0
 35 28  1  0  0  0  0
 38 37  1  0  0  0  0
M  END
>  <minimizedAffinity>
-5.60359573

$$$$

 OpenBabel03272510283D

 38 41  0  0  1  0  0  0  0  0999 V2000
   38.1840   24.5260   33.7940 C   0  0  0  0  0  0  0  0  0  0  0  0
   38.1320   25.0190   35.0750 C   0  0  0  0  0  0  0  0  0  0  0  0
   37.5340   26.2630   35.3410 C   0  0  0  0  0  0  0  0  0  0  0  0
   37.0100   26.9540   34.2640 C   0  0  0  0  0  0  0  0  0  0  0  0
   36.3820   28.1670   34.2640 N   0  0  0  0  0  0  0  0  0  0  0  0
   36.0510   28.4160   32.9860 C   0  0  0  0  0  0  0  0  0  0  0  0
   36.4390   27.4310   32.2040 N   0  0  0  0  0  0  0  0  0  0  0  0
   37.0490   26.4820   32.9630 C   0  0  0  0  0  0  0  0  0  0  0  0
   37.6520   25.2390   32.7320 C   0  0  0  0  0  0  0  0  0  0  0  0
   38.6410   23.5710   33.5750 H   0  0  0  0  0  0  0  0  0  0  0  0
   37.4790   26.6740   36.3400 H   0  0  0  0  0  0  0  0  0  0  0  0
   36.2030   28.7700   35.1160 H   0  0  0  0  0  0  0  0  0  0  0  0
   37.6800   24.8770   31.7230 H   0  0  0  0  0  0  0  0  0  0  0  0
   38.8610   23.3330   38.3640 C   0  0  0  0  0  0  0  0  0  0  0  0
   38.1860   24.1130   37.4350 C   0  0  0  0  0  0  0  0  0  0  0  0
   38.6950   24.2510   36.1700 C   0  0  0  0  0  0  0  0  0  0  0  0
   39.8750   23.5900   35.8900 N   0  0  0  0  0  0  0  0  0  0  0  0
   40.5270   22.8360   36.7910 C   0  0  0  0  0  0  0  0  0  0  0  0
   40.0250   22.7100   38.0100 N   0  0  0  0  0  0  0  0  0  0  0  0
   38.4420   23.2360   39.3620 H   0  0  0  0  0  0  0  0  0  0  0  0
   37.2720   24.6330   37.6290 H   0  0  0  0  0  0  0  0  0  0  0  0
   41.4500   22.3420   36.5090 H   0  0  0  0  0  0  0  0  0  0  0  0
   35.3820   29.5940   32.6250 O   0  0  0  0  0  0  0  0  0  0  0  0
   33.6900   29.5730   34.1620 N   0  0  0  0  0  0  0  0  0  0  0  0
   33.9640   29.5520   32.7070 C   0  0  1  0  0  0  0  0  0  0  0  0
   33.3390   30.7200   32.1010 C   0  0  0  0  0  0  0  0  0  0  0  0
   31.9420   30.6100   32.2430 O   0  0  0  0  0  0  0  0  0  0  0  0
   31.5020   30.4510   33.5230 C   0  0  0  0  0  0  0  0  0  0  0  0
   32.2600   29.3830   34.2700 C   0  0  2  0  0  0  0  0  0  0  0  0
   34.1330   28.6910   34.5080 H   0  0  0  0  0  0  0  0  0  0  0  0
   33.5360   28.6210   32.2930 H   0  0  0  0  0  0  0  0  0  0  0  0
   33.5420   31.7250   32.3450 H   0  0  0  0  0  0  0  0  0  0  0  0
   33.4820   30.6300   30.9790 H   0  0  0  0  0  0  0  0  0  0  0  0
   30.4460   30.1920   33.4980 H   0  0  0  0  0  0  0  0  0  0  0  0
   31.6990   31.4080   34.0860 H   0  0  0  0  0  0  0  0  0  0  0  0
   32.0390   28.4130   33.7440 H   0  0  0  0  0  0  0  0  0  0  0  0
   31.7670   29.2650   35.6810 C   0  0  0  0  0  2  0  0  0  0  0  0
   32.6050   28.9630   36.3380 H   0  0  0  0  0  0  0  0  0  0  0  0
  1  2  1  0  0  0  0
  2  3  2  0  0  0  0
  2 16  1  0  0  0  0
  3 11  1  0  0  0  0
  4  3  1  0  0  0  0
  5  4  1  0  0  0  0
  5 12  1  0  0  0  0
  6  5  1  0  0  0  0
  7  8  1  0  0  0  0
  7  6  2  0  0  0  0
  8  4  2  0  0  0  0
  9  8  1  0  0  0  0
  9  1  2  0  0  0  0
 10  1  1  0  0  0  0
 13  9  1  0  0  0  0
 14 20  1  0  0  0  0
 15 21  1  0  0  0  0
 15 14  2  0  0  0  0
 16 15  1  0  0  0  0
 17 16  2  0  0  0  0
 17 18  1  0  0  0  0
 18 19  2  0  0  0  0
 19 14  1  0  0  0  0
 22 18  1  0  0  0  0
 23 25  1  0  0  0  0
 23  6  1  0  0  0  0
 24 29  1  0  0  0  0
 24 30  1  0  0  0  0
 25 31  1  6  0  0  0
 25 24  1  0  0  0  0
 26 27  1  0  0  0  0
 26 32  1  0  0  0  0
 26 25  1  0  0  0  0
 27 28  1  0  0  0  0
 28 35  1  0  0  0  0
 28 29  1  0  0  0  0
 29 36  1  6  0  0  0
 29 37  1  0  0  0  0
 33 26  1  0  0  0  0
 34 28  1  0  0  0  0
 37 38  1  0  0  0  0
M  END
>  <minimizedAffinity>
-5.54040146

$$$$

 OpenBabel03272510283D

 38 41  0  0  1  0  0  0  0  0999 V2000
   37.3620   24.0030   32.8010 C   0  0  0  0  0  0  0  0  0  0  0  0
   36.4660   23.5990   31.8410 C   0  0  0  0  0  0  0  0  0  0  0  0
   35.9060   24.5270   30.9470 C   0  0  0  0  0  0  0  0  0  0  0  0
   36.2970   25.8470   31.0790 C   0  0  0  0  0  0  0  0  0  0  0  0
   35.9040   26.9230   30.3360 N   0  0  0  0  0  0  0  0  0  0  0  0
   36.5560   27.9830   30.8410 C   0  0  0  0  0  0  0  0  0  0  0  0
   37.3240   27.6230   31.8460 N   0  0  0  0  0  0  0  0  0  0  0  0
   37.1980   26.2830   32.0370 C   0  0  0  0  0  0  0  0  0  0  0  0
   37.7370   25.3330   32.9140 C   0  0  0  0  0  0  0  0  0  0  0  0
   37.8000   23.3010   33.4950 H   0  0  0  0  0  0  0  0  0  0  0  0
   35.1990   24.2360   30.1810 H   0  0  0  0  0  0  0  0  0  0  0  0
   35.2190   26.8990   29.5280 H   0  0  0  0  0  0  0  0  0  0  0  0
   38.4340   25.6750   33.6530 H   0  0  0  0  0  0  0  0  0  0  0  0
   34.8440   20.2150   32.1770 C   0  0  0  0  0  0  0  0  0  0  0  0
   35.0600   21.5700   32.3890 C   0  0  0  0  0  0  0  0  0  0  0  0
   36.0920   22.2010   31.7440 C   0  0  0  0  0  0  0  0  0  0  0  0
   36.8720   21.4330   30.9030 N   0  0  0  0  0  0  0  0  0  0  0  0
   36.6620   20.1200   30.6990 C   0  0  0  0  0  0  0  0  0  0  0  0
   35.6620   19.5230   31.3280 N   0  0  0  0  0  0  0  0  0  0  0  0
   34.0220   19.7330   32.6980 H   0  0  0  0  0  0  0  0  0  0  0  0
   34.4690   22.1850   33.0350 H   0  0  0  0  0  0  0  0  0  0  0  0
   37.3110   19.5720   30.0250 H   0  0  0  0  0  0  0  0  0  0  0  0
   36.3820   29.2670   30.3030 O   0  0  0  0  0  0  0  0  0  0  0  0
   34.9520   29.2800   32.0870 N   0  0  0  0  0  0  0  0  0  0  0  0
   35.5660   30.1510   31.0590 C   0  0  1  0  0  0  0  0  0  0  0  0
   36.3430   31.1850   31.7300 C   0  0  0  0  0  0  0  0  0  0  0  0
   35.4660   32.0010   32.4690 O   0  0  0  0  0  0  0  0  0  0  0  0
   34.6820   31.3420   33.3680 C   0  0  0  0  0  0  0  0  0  0  0  0
   34.0060   30.1320   32.7740 C   0  0  2  0  0  0  0  0  0  0  0  0
   34.3880   28.6000   31.5280 H   0  0  0  0  0  0  0  0  0  0  0  0
   34.7510   30.6010   30.4620 H   0  0  0  0  0  0  0  0  0  0  0  0
   37.1520   31.0200   32.3860 H   0  0  0  0  0  0  0  0  0  0  0  0
   36.7220   31.8900   30.9270 H   0  0  0  0  0  0  0  0  0  0  0  0
   33.9260   32.0300   33.7410 H   0  0  0  0  0  0  0  0  0  0  0  0
   35.3440   30.9420   34.1890 H   0  0  0  0  0  0  0  0  0  0  0  0
   33.3090   30.5180   31.9800 H   0  0  0  0  0  0  0  0  0  0  0  0
   33.1830   29.4190   33.8040 C   0  0  0  0  0  2  0  0  0  0  0  0
   33.1770   28.3350   33.5810 H   0  0  0  0  0  0  0  0  0  0  0  0
  1  9  1  0  0  0  0
  1 10  1  0  0  0  0
  2  1  2  0  0  0  0
  3  4  2  0  0  0  0
  3  2  1  0  0  0  0
  4  8  1  0  0  0  0
  5  6  1  0  0  0  0
  5  4  1  0  0  0  0
  6  7  2  0  0  0  0
  7  8  1  0  0  0  0
  8  9  2  0  0  0  0
  9 13  1  0  0  0  0
 11  3  1  0  0  0  0
 12  5  1  0  0  0  0
 14 15  1  0  0  0  0
 14 20  1  0  0  0  0
 15 21  1  0  0  0  0
 16  2  1  0  0  0  0
 16 15  2  0  0  0  0
 17 16  1  0  0  0  0
 18 17  2  0  0  0  0
 18 19  1  0  0  0  0
 19 14  2  0  0  0  0
 22 18  1  0  0  0  0
 23  6  1  0  0  0  0
 23 25  1  0  0  0  0
 24 29  1  0  0  0  0
 25 31  1  6  0  0  0
 25 26  1  0  0  0  0
 25 24  1  0  0  0  0
 26 32  1  0  0  0  0
 26 27  1  0  0  0  0
 27 28  1  0  0  0  0
 28 34  1  0  0  0  0
 28 35  1  0  0  0  0
 29 36  1  6  0  0  0
 29 28  1  0  0  0  0
 29 37  1  0  0  0  0
 30 24  1  0  0  0  0
 33 26  1  0  0  0  0
 38 37  1  0  0  0  0
M  END
>  <minimizedAffinity>
-5.38429451

$$$$

 OpenBabel03272510283D

 38 41  0  0  1  0  0  0  0  0999 V2000
   37.6200   27.8450   35.1300 C   0  0  0  0  0  0  0  0  0  0  0  0
   37.2300   27.3510   33.9090 C   0  0  0  0  0  0  0  0  0  0  0  0
   37.3770   25.9860   33.6080 C   0  0  0  0  0  0  0  0  0  0  0  0
   37.9250   25.1790   34.5880 C   0  0  0  0  0  0  0  0  0  0  0  0
   38.1630   23.8350   34.5390 N   0  0  0  0  0  0  0  0  0  0  0  0
   38.6990   23.5080   35.7270 C   0  0  0  0  0  0  0  0  0  0  0  0
   38.8030   24.5680   36.4990 N   0  0  0  0  0  0  0  0  0  0  0  0
   38.3270   25.6490   35.8270 C   0  0  0  0  0  0  0  0  0  0  0  0
   38.1680   27.0150   36.0950 C   0  0  0  0  0  0  0  0  0  0  0  0
   37.5130   28.8920   35.3750 H   0  0  0  0  0  0  0  0  0  0  0  0
   37.0780   25.5710   32.6550 H   0  0  0  0  0  0  0  0  0  0  0  0
   37.9570   23.2000   33.7170 H   0  0  0  0  0  0  0  0  0  0  0  0
   38.4800   27.3740   37.0560 H   0  0  0  0  0  0  0  0  0  0  0  0
   35.3130   30.0140   32.0590 C   0  0  0  0  0  0  0  0  0  0  0  0
   35.7590   29.2550   33.1320 C   0  0  0  0  0  0  0  0  0  0  0  0
   36.6570   28.2410   32.9170 C   0  0  0  0  0  0  0  0  0  0  0  0
   37.0730   28.0330   31.6180 N   0  0  0  0  0  0  0  0  0  0  0  0
   36.6400   28.7690   30.5790 C   0  0  0  0  0  0  0  0  0  0  0  0
   35.7720   29.7450   30.8000 N   0  0  0  0  0  0  0  0  0  0  0  0
   34.6020   30.8120   32.2480 H   0  0  0  0  0  0  0  0  0  0  0  0
   35.4520   29.3980   34.1460 H   0  0  0  0  0  0  0  0  0  0  0  0
   37.0050   28.5550   29.5810 H   0  0  0  0  0  0  0  0  0  0  0  0
   39.0660   22.1860   36.0190 O   0  0  0  0  0  0  0  0  0  0  0  0
   41.0460   23.1000   35.3320 N   0  0  0  0  0  0  0  0  0  0  0  0
   40.4590   21.9060   35.9810 C   0  0  1  0  0  0  0  0  0  0  0  0
   41.0340   21.7740   37.3140 C   0  0  0  0  0  0  0  0  0  0  0  0
   42.4120   21.5190   37.1880 O   0  0  0  0  0  0  0  0  0  0  0  0
   43.1070   22.4420   36.4640 C   0  0  0  0  0  0  0  0  0  0  0  0
   42.4430   22.7720   35.1520 C   0  0  2  0  0  0  0  0  0  0  0  0
   40.6150   23.0980   34.3790 H   0  0  0  0  0  0  0  0  0  0  0  0
   40.7050   21.0250   35.3610 H   0  0  0  0  0  0  0  0  0  0  0  0
   40.9760   22.4910   38.0840 H   0  0  0  0  0  0  0  0  0  0  0  0
   40.6410   20.8040   37.7510 H   0  0  0  0  0  0  0  0  0  0  0  0
   44.1060   22.0560   36.2750 H   0  0  0  0  0  0  0  0  0  0  0  0
   43.1210   23.4090   37.0450 H   0  0  0  0  0  0  0  0  0  0  0  0
   42.4590   21.8260   34.5440 H   0  0  0  0  0  0  0  0  0  0  0  0
   43.2210   23.8140   34.4060 C   0  0  0  0  0  2  0  0  0  0  0  0
   42.5240   24.4360   33.8110 H   0  0  0  0  0  0  0  0  0  0  0  0
  1 10  1  0  0  0  0
  1  9  1  0  0  0  0
  2  1  2  0  0  0  0
  3  2  1  0  0  0  0
  3  4  2  0  0  0  0
  4  8  1  0  0  0  0
  5  4  1  0  0  0  0
  5  6  1  0  0  0  0
  6 23  1  0  0  0  0
  6  7  2  0  0  0  0
  8  9  2  0  0  0  0
  8  7  1  0  0  0  0
  9 13  1  0  0  0  0
 11  3  1  0  0  0  0
 12  5  1  0  0  0  0
 14 20  1  0  0  0  0
 14 15  1  0  0  0  0
 15 21  1  0  0  0  0
 16 15  2  0  0  0  0
 16  2  1  0  0  0  0
 17 16  1  0  0  0  0
 18 19  1  0  0  0  0
 18 17  2  0  0  0  0
 19 14  2  0  0  0  0
 22 18  1  0  0  0  0
 24 25  1  0  0  0  0
 25 31  1  6  0  0  0
 25 23  1  0  0  0  0
 25 26  1  0  0  0  0
 26 33  1  0  0  0  0
 26 32  1  0  0  0  0
 27 26  1  0  0  0  0
 28 35  1  0  0  0  0
 28 27  1  0  0  0  0
 29 36  1  6  0  0  0
 29 24  1  0  0  0  0
 29 28  1  0  0  0  0
 30 24  1  0  0  0  0
 34 28  1  0  0  0  0
 37 29  1  0  0  0  0
 38 37  1  0  0  0  0
M  END
>  <minimizedAffinity>
-5.35543013

$$$$

 OpenBabel03272510283D

 38 41  0  0  1  0  0  0  0  0999 V2000
   37.3420   23.4840   32.7790 C   0  0  0  0  0  0  0  0  0  0  0  0
   36.4680   23.1000   31.7900 C   0  0  0  0  0  0  0  0  0  0  0  0
   35.9130   24.0490   30.9160 C   0  0  0  0  0  0  0  0  0  0  0  0
   36.2850   25.3690   31.0970 C   0  0  0  0  0  0  0  0  0  0  0  0
   35.8920   26.4630   30.3820 N   0  0  0  0  0  0  0  0  0  0  0  0
   36.5210   27.5150   30.9320 C   0  0  0  0  0  0  0  0  0  0  0  0
   37.2760   27.1310   31.9390 N   0  0  0  0  0  0  0  0  0  0  0  0
   37.1630   25.7840   32.0850 C   0  0  0  0  0  0  0  0  0  0  0  0
   37.6980   24.8130   32.9410 C   0  0  0  0  0  0  0  0  0  0  0  0
   37.7760   22.7640   33.4590 H   0  0  0  0  0  0  0  0  0  0  0  0
   35.2240   23.7740   30.1290 H   0  0  0  0  0  0  0  0  0  0  0  0
   35.2220   26.4580   29.5610 H   0  0  0  0  0  0  0  0  0  0  0  0
   38.3770   25.1400   33.7030 H   0  0  0  0  0  0  0  0  0  0  0  0
   36.2190   19.4780   30.7860 C   0  0  0  0  0  0  0  0  0  0  0  0
   36.6860   20.7850   30.7980 C   0  0  0  0  0  0  0  0  0  0  0  0
   36.1140   21.7010   31.6410 C   0  0  0  0  0  0  0  0  0  0  0  0
   35.0830   21.2580   32.4460 N   0  0  0  0  0  0  0  0  0  0  0  0
   34.6310   19.9920   32.4330 C   0  0  0  0  0  0  0  0  0  0  0  0
   35.1930   19.1160   31.6130 N   0  0  0  0  0  0  0  0  0  0  0  0
   36.6850   18.7660   30.1100 H   0  0  0  0  0  0  0  0  0  0  0  0
   37.4830   21.1510   30.1840 H   0  0  0  0  0  0  0  0  0  0  0  0
   33.8180   19.7060   33.0900 H   0  0  0  0  0  0  0  0  0  0  0  0
   36.3410   28.8130   30.4320 O   0  0  0  0  0  0  0  0  0  0  0  0
   37.8450   28.3120   28.7850 N   0  0  0  0  0  0  0  0  0  0  0  0
   37.4500   29.3710   29.7410 C   0  0  1  0  0  0  0  0  0  0  0  0
   37.0880   30.5650   28.9860 C   0  0  0  0  0  0  0  0  0  0  0  0
   38.2320   31.0400   28.3180 O   0  0  0  0  0  0  0  0  0  0  0  0
   38.8450   30.1350   27.5040 C   0  0  0  0  0  0  0  0  0  0  0  0
   39.0620   28.8020   28.1740 C   0  0  2  0  0  0  0  0  0  0  0  0
   38.1240   27.5150   29.4030 H   0  0  0  0  0  0  0  0  0  0  0  0
   38.3120   29.5740   30.4020 H   0  0  0  0  0  0  0  0  0  0  0  0
   36.3250   30.6290   28.2620 H   0  0  0  0  0  0  0  0  0  0  0  0
   36.8820   31.3850   29.7410 H   0  0  0  0  0  0  0  0  0  0  0  0
   39.8050   30.5420   27.1920 H   0  0  0  0  0  0  0  0  0  0  0  0
   38.1610   29.9250   26.6320 H   0  0  0  0  0  0  0  0  0  0  0  0
   39.7760   28.9890   29.0230 H   0  0  0  0  0  0  0  0  0  0  0  0
   39.7060   27.8290   27.2340 C   0  0  0  0  0  2  0  0  0  0  0  0
   39.3580   26.8050   27.4720 H   0  0  0  0  0  0  0  0  0  0  0  0
  1  9  1  0  0  0  0
  1 10  1  0  0  0  0
  2  1  2  0  0  0  0
  3  4  2  0  0  0  0
  3  2  1  0  0  0  0
  4  8  1  0  0  0  0
  5  6  1  0  0  0  0
  5  4  1  0  0  0  0
  6  7  2  0  0  0  0
  7  8  1  0  0  0  0
  8  9  2  0  0  0  0
  9 13  1  0  0  0  0
 11  3  1  0  0  0  0
 12  5  1  0  0  0  0
 14 15  2  0  0  0  0
 14 19  1  0  0  0  0
 15 16  1  0  0  0  0
 16  2  1  0  0  0  0
 16 17  2  0  0  0  0
 18 17  1  0  0  0  0
 18 22  1  0  0  0  0
 19 18  2  0  0  0  0
 20 14  1  0  0  0  0
 21 15  1  0  0  0  0
 23  6  1  0  0  0  0
 24 30  1  0  0  0  0
 24 25  1  0  0  0  0
 25 31  1  1  0  0  0
 25 23  1  0  0  0  0
 26 33  1  0  0  0  0
 26 25  1  0  0  0  0
 27 26  1  0  0  0  0
 28 29  1  0  0  0  0
 28 27  1  0  0  0  0
 29 24  1  0  0  0  0
 29 36  1  1  0  0  0
 32 26  1  0  0  0  0
 34 28  1  0  0  0  0
 35 28  1  0  0  0  0
 37 38  1  0  0  0  0
 37 29  1  0  0  0  0
M  END
>  <minimizedAffinity>
-5.29639101

$$$$

 OpenBabel03272510283D

 38 41  0  0  1  0  0  0  0  0999 V2000
   35.4340   28.9600   32.7690 C   0  0  0  0  0  0  0  0  0  0  0  0
   35.7620   29.1230   34.0930 C   0  0  0  0  0  0  0  0  0  0  0  0
   36.7520   28.3240   34.6900 C   0  0  0  0  0  0  0  0  0  0  0  0
   37.3690   27.3810   33.8900 C   0  0  0  0  0  0  0  0  0  0  0  0
   38.3540   26.4980   34.2310 N   0  0  0  0  0  0  0  0  0  0  0  0
   38.6270   25.7950   33.1190 C   0  0  0  0  0  0  0  0  0  0  0  0
   37.8710   26.1940   32.1190 N   0  0  0  0  0  0  0  0  0  0  0  0
   37.0590   27.1940   32.5530 C   0  0  0  0  0  0  0  0  0  0  0  0
   36.0670   28.0070   31.9880 C   0  0  0  0  0  0  0  0  0  0  0  0
   34.6750   29.5680   32.2970 H   0  0  0  0  0  0  0  0  0  0  0  0
   37.0290   28.4320   35.7300 H   0  0  0  0  0  0  0  0  0  0  0  0
   38.7960   26.4050   35.1890 H   0  0  0  0  0  0  0  0  0  0  0  0
   35.8310   27.8590   30.9530 H   0  0  0  0  0  0  0  0  0  0  0  0
   33.2540   31.3320   35.8320 C   0  0  0  0  0  0  0  0  0  0  0  0
   33.7320   30.3090   35.0250 C   0  0  0  0  0  0  0  0  0  0  0  0
   35.0840   30.1310   34.8880 C   0  0  0  0  0  0  0  0  0  0  0  0
   35.9080   30.9990   35.5770 N   0  0  0  0  0  0  0  0  0  0  0  0
   35.4430   31.9890   36.3590 C   0  0  0  0  0  0  0  0  0  0  0  0
   34.1340   32.1510   36.4830 N   0  0  0  0  0  0  0  0  0  0  0  0
   32.1800   31.4590   35.9280 H   0  0  0  0  0  0  0  0  0  0  0  0
   33.1150   29.6250   34.4820 H   0  0  0  0  0  0  0  0  0  0  0  0
   36.1420   32.6370   36.8750 H   0  0  0  0  0  0  0  0  0  0  0  0
   39.6050   24.7910   33.1160 O   0  0  0  0  0  0  0  0  0  0  0  0
   39.4480   24.0140   35.2610 N   0  0  0  0  0  0  0  0  0  0  0  0
   39.2870   23.6130   33.8450 C   0  0  1  0  0  0  0  0  0  0  0  0
   37.9090   23.1880   33.6370 C   0  0  0  0  0  0  0  0  0  0  0  0
   37.6710   22.0330   34.4060 O   0  0  0  0  0  0  0  0  0  0  0  0
   37.9290   22.1610   35.7380 C   0  0  0  0  0  0  0  0  0  0  0  0
   39.2710   22.7900   36.0130 C   0  0  2  0  0  0  0  0  0  0  0  0
   40.4610   24.2630   35.3320 H   0  0  0  0  0  0  0  0  0  0  0  0
   39.9860   22.7800   33.6440 H   0  0  0  0  0  0  0  0  0  0  0  0
   37.0510   23.7800   33.7930 H   0  0  0  0  0  0  0  0  0  0  0  0
   37.8380   22.7980   32.5740 H   0  0  0  0  0  0  0  0  0  0  0  0
   37.8930   21.1760   36.1960 H   0  0  0  0  0  0  0  0  0  0  0  0
   37.1700   22.8700   36.1780 H   0  0  0  0  0  0  0  0  0  0  0  0
   40.0420   22.0740   35.6160 H   0  0  0  0  0  0  0  0  0  0  0  0
   39.4980   22.9440   37.4860 C   0  0  0  0  0  2  0  0  0  0  0  0
   40.1190   23.8420   37.6690 H   0  0  0  0  0  0  0  0  0  0  0  0
  1  2  1  0  0  0  0
  2  3  2  0  0  0  0
  2 16  1  0  0  0  0
  3 11  1  0  0  0  0
  4  5  1  0  0  0  0
  4  3  1  0  0  0  0
  5 12  1  0  0  0  0
  6  5  1  0  0  0  0
  7  8  1  0  0  0  0
  7  6  2  0  0  0  0
  8  4  2  0  0  0  0
  9  8  1  0  0  0  0
  9  1  2  0  0  0  0
 10  1  1  0  0  0  0
 13  9  1  0  0  0  0
 14 20  1  0  0  0  0
 14 19  1  0  0  0  0
 15 14  2  0  0  0  0
 16 15  1  0  0  0  0
 16 17  2  0  0  0  0
 17 18  1  0  0  0  0
 18 19  2  0  0  0  0
 18 22  1  0  0  0  0
 21 15  1  0  0  0  0
 23  6  1  0  0  0  0
 23 25  1  0  0  0  0
 24 30  1  0  0  0  0
 24 29  1  0  0  0  0
 25 31  1  6  0  0  0
 25 24  1  0  0  0  0
 26 32  1  0  0  0  0
 26 25  1  0  0  0  0
 26 27  1  0  0  0  0
 27 28  1  0  0  0  0
 28 29  1  0  0  0  0
 28 35  1  0  0  0  0
 28 34  1  0  0  0  0
 29 36  1  6  0  0  0
 29 37  1  0  0  0  0
 33 26  1  0  0  0  0
 37 38  1  0  0  0  0
M  END
>  <minimizedAffinity>
-5.27241373

$$$$

 OpenBabel03272510283D

 38 41  0  0  1  0  0  0  0  0999 V2000
   35.8280   28.7360   32.7350 C   0  0  0  0  0  0  0  0  0  0  0  0
   36.0190   29.0680   34.0540 C   0  0  0  0  0  0  0  0  0  0  0  0
   36.6790   28.1870   34.9280 C   0  0  0  0  0  0  0  0  0  0  0  0
   37.1200   26.9870   34.4000 C   0  0  0  0  0  0  0  0  0  0  0  0
   37.7850   25.9790   35.0360 N   0  0  0  0  0  0  0  0  0  0  0  0
   37.9990   25.0300   34.1090 C   0  0  0  0  0  0  0  0  0  0  0  0
   37.5070   25.3970   32.9450 N   0  0  0  0  0  0  0  0  0  0  0  0
   36.9420   26.6260   33.0750 C   0  0  0  0  0  0  0  0  0  0  0  0
   36.2800   27.5270   32.2310 C   0  0  0  0  0  0  0  0  0  0  0  0
   35.3220   29.4040   32.0530 H   0  0  0  0  0  0  0  0  0  0  0  0
   36.8430   28.4240   35.9700 H   0  0  0  0  0  0  0  0  0  0  0  0
   38.0640   25.9700   36.0580 H   0  0  0  0  0  0  0  0  0  0  0  0
   36.1440   27.2430   31.2060 H   0  0  0  0  0  0  0  0  0  0  0  0
   35.4110   32.2400   35.9950 C   0  0  0  0  0  0  0  0  0  0  0  0
   35.9890   31.0240   35.6570 C   0  0  0  0  0  0  0  0  0  0  0  0
   35.5380   30.3420   34.5560 C   0  0  0  0  0  0  0  0  0  0  0  0
   34.5130   30.9190   33.8340 N   0  0  0  0  0  0  0  0  0  0  0  0
   33.9530   32.0970   34.1620 C   0  0  0  0  0  0  0  0  0  0  0  0
   34.3980   32.7460   35.2280 N   0  0  0  0  0  0  0  0  0  0  0  0
   35.7800   32.7650   36.8700 H   0  0  0  0  0  0  0  0  0  0  0  0
   36.7830   30.5580   36.2010 H   0  0  0  0  0  0  0  0  0  0  0  0
   33.1510   32.4970   33.5540 H   0  0  0  0  0  0  0  0  0  0  0  0
   38.6700   23.8400   34.4280 O   0  0  0  0  0  0  0  0  0  0  0  0
   40.0580   22.6010   35.7560 N   0  0  0  0  0  0  0  0  0  0  0  0
   39.8090   23.9760   35.2670 C   0  0  1  0  0  0  0  0  0  0  0  0
   40.9850   24.4270   34.5340 C   0  0  0  0  0  0  0  0  0  0  0  0
   42.0680   24.5140   35.4290 O   0  0  0  0  0  0  0  0  0  0  0  0
   42.3490   23.3690   36.1120 C   0  0  0  0  0  0  0  0  0  0  0  0
   41.1230   22.7420   36.7250 C   0  0  2  0  0  0  0  0  0  0  0  0
   39.1920   22.3730   36.2980 H   0  0  0  0  0  0  0  0  0  0  0  0
   39.6240   24.6220   36.1440 H   0  0  0  0  0  0  0  0  0  0  0  0
   41.3950   23.9630   33.6810 H   0  0  0  0  0  0  0  0  0  0  0  0
   40.8060   25.5110   34.2530 H   0  0  0  0  0  0  0  0  0  0  0  0
   43.0670   23.5980   36.8960 H   0  0  0  0  0  0  0  0  0  0  0  0
   42.7400   22.6070   35.3780 H   0  0  0  0  0  0  0  0  0  0  0  0
   40.7450   23.4740   37.4910 H   0  0  0  0  0  0  0  0  0  0  0  0
   41.4710   21.4690   37.4360 C   0  0  0  0  0  2  0  0  0  0  0  0
   40.6160   20.7690   37.3730 H   0  0  0  0  0  0  0  0  0  0  0  0
  1  2  1  0  0  0  0
  2 16  1  0  0  0  0
  2  3  2  0  0  0  0
  3 11  1  0  0  0  0
  4  3  1  0  0  0  0
  4  5  1  0  0  0  0
  5 12  1  0  0  0  0
  6 23  1  0  0  0  0
  6  5  1  0  0  0  0
  7  8  1  0  0  0  0
  7  6  2  0  0  0  0
  8  4  2  0  0  0  0
  9  1  2  0  0  0  0
  9  8  1  0  0  0  0
 10  1  1  0  0  0  0
 13  9  1  0  0  0  0
 14 20  1  0  0  0  0
 15 14  1  0  0  0  0
 15 21  1  0  0  0  0
 16 15  2  0  0  0  0
 17 18  2  0  0  0  0
 17 16  1  0  0  0  0
 18 19  1  0  0  0  0
 19 14  2  0  0  0  0
 22 18  1  0  0  0  0
 23 25  1  0  0  0  0
 24 30  1  0  0  0  0
 24 29  1  0  0  0  0
 25 24  1  0  0  0  0
 25 31  1  1  0  0  0
 26 25  1  0  0  0  0
 26 27  1  0  0  0  0
 27 28  1  0  0  0  0
 28 29  1  0  0  0  0
 28 34  1  0  0  0  0
 29 37  1  0  0  0  0
 29 36  1  1  0  0  0
 32 26  1  0  0  0  0
 33 26  1  0  0  0  0
 35 28  1  0  0  0  0
 38 37  1  0  0  0  0
M  END
>  <minimizedAffinity>
-5.27148342

$$$$

 OpenBabel03272510283D

 38 41  0  0  1  0  0  0  0  0999 V2000
   38.1230   24.6180   33.6620 C   0  0  0  0  0  0  0  0  0  0  0  0
   37.9920   25.1420   34.9250 C   0  0  0  0  0  0  0  0  0  0  0  0
   37.3780   26.3900   35.1230 C   0  0  0  0  0  0  0  0  0  0  0  0
   36.9200   27.0540   34.0000 C   0  0  0  0  0  0  0  0  0  0  0  0
   36.2910   28.2640   33.9330 N   0  0  0  0  0  0  0  0  0  0  0  0
   36.0390   28.4820   32.6310 C   0  0  0  0  0  0  0  0  0  0  0  0
   36.4750   27.4790   31.8990 N   0  0  0  0  0  0  0  0  0  0  0  0
   37.0390   26.5510   32.7160 C   0  0  0  0  0  0  0  0  0  0  0  0
   37.6560   25.3030   32.5520 C   0  0  0  0  0  0  0  0  0  0  0  0
   38.5930   23.6590   33.4950 H   0  0  0  0  0  0  0  0  0  0  0  0
   37.2620   26.8250   36.1070 H   0  0  0  0  0  0  0  0  0  0  0  0
   36.0600   28.8880   34.7570 H   0  0  0  0  0  0  0  0  0  0  0  0
   37.7450   24.9180   31.5560 H   0  0  0  0  0  0  0  0  0  0  0  0
   38.5620   23.6000   38.3150 C   0  0  0  0  0  0  0  0  0  0  0  0
   37.9530   24.3680   37.3320 C   0  0  0  0  0  0  0  0  0  0  0  0
   38.4880   24.4020   36.0700 C   0  0  0  0  0  0  0  0  0  0  0  0
   39.6260   23.6520   35.8480 N   0  0  0  0  0  0  0  0  0  0  0  0
   40.2150   22.9080   36.8010 C   0  0  0  0  0  0  0  0  0  0  0  0
   39.6880   22.8850   38.0170 N   0  0  0  0  0  0  0  0  0  0  0  0
   38.1240   23.5860   39.3090 H   0  0  0  0  0  0  0  0  0  0  0  0
   37.0720   24.9570   37.4800 H   0  0  0  0  0  0  0  0  0  0  0  0
   41.1070   22.3410   36.5630 H   0  0  0  0  0  0  0  0  0  0  0  0
   35.3920   29.6490   32.2010 O   0  0  0  0  0  0  0  0  0  0  0  0
   36.3850   29.8640   30.1540 N   0  0  0  0  0  0  0  0  0  0  0  0
   36.1840   30.5560   31.4460 C   0  0  1  0  0  0  0  0  0  0  0  0
   35.4960   31.8160   31.1960 C   0  0  0  0  0  0  0  0  0  0  0  0
   36.3370   32.6450   30.4290 O   0  0  0  0  0  0  0  0  0  0  0  0
   36.7700   32.1030   29.2560 C   0  0  0  0  0  0  0  0  0  0  0  0
   37.3100   30.7050   29.4250 C   0  0  2  0  0  0  0  0  0  0  0  0
   36.9130   29.0010   30.4160 H   0  0  0  0  0  0  0  0  0  0  0  0
   37.1770   30.7370   31.8960 H   0  0  0  0  0  0  0  0  0  0  0  0
   34.5500   31.9230   30.7430 H   0  0  0  0  0  0  0  0  0  0  0  0
   35.4390   32.3670   32.1860 H   0  0  0  0  0  0  0  0  0  0  0  0
   37.5480   32.7420   28.8440 H   0  0  0  0  0  0  0  0  0  0  0  0
   35.8840   32.0010   28.5650 H   0  0  0  0  0  0  0  0  0  0  0  0
   38.2200   30.7960   30.0800 H   0  0  0  0  0  0  0  0  0  0  0  0
   37.7430   30.1360   28.1080 C   0  0  0  0  0  2  0  0  0  0  0  0
   37.5870   29.0400   28.1140 H   0  0  0  0  0  0  0  0  0  0  0  0
  1  2  1  0  0  0  0
  2  3  2  0  0  0  0
  2 16  1  0  0  0  0
  3 11  1  0  0  0  0
  4  3  1  0  0  0  0
  5  4  1  0  0  0  0
  5 12  1  0  0  0  0
  6  5  1  0  0  0  0
  7  6  2  0  0  0  0
  7  8  1  0  0  0  0
  8  4  2  0  0  0  0
  9  8  1  0  0  0  0
  9  1  2  0  0  0  0
 10  1  1  0  0  0  0
 13  9  1  0  0  0  0
 14 20  1  0  0  0  0
 15 21  1  0  0  0  0
 15 14  2  0  0  0  0
 16 15  1  0  0  0  0
 17 16  2  0  0  0  0
 17 18  1  0  0  0  0
 18 19  2  0  0  0  0
 19 14  1  0  0  0  0
 22 18  1  0  0  0  0
 23  6  1  0  0  0  0
 24 30  1  0  0  0  0
 24 25  1  0  0  0  0
 25 31  1  1  0  0  0
 25 23  1  0  0  0  0
 26 25  1  0  0  0  0
 26 33  1  0  0  0  0
 27 26  1  0  0  0  0
 28 29  1  0  0  0  0
 28 27  1  0  0  0  0
 29 36  1  1  0  0  0
 29 24  1  0  0  0  0
 32 26  1  0  0  0  0
 34 28  1  0  0  0  0
 35 28  1  0  0  0  0
 37 38  1  0  0  0  0
 37 29  1  0  0  0  0
M  END
>  <minimizedAffinity>
-5.20391321

$$$$
