
 OpenBabel03272505043D

 45 48  0  0  1  0  0  0  0  0999 V2000
   38.2150   32.1860   43.1840 C   0  0  2  0  0  0  0  0  0  0  0  0
   36.8240   32.8160   42.8470 C   0  0  0  0  0  0  0  0  0  0  0  0
   35.9690   31.7270   42.2680 C   0  0  0  0  0  0  0  0  0  0  0  0
   36.4250   31.4620   40.8570 C   0  0  0  0  0  0  0  0  0  0  0  0
   37.8610   31.8500   40.7430 C   0  0  0  0  0  0  0  0  0  0  0  0
   38.6390   31.4480   41.9790 C   0  0  2  0  0  0  0  0  0  0  0  0
   38.7890   33.0960   43.4630 H   0  0  0  0  0  0  0  0  0  0  0  0
   36.4170   33.1380   43.8430 H   0  0  0  0  0  0  0  0  0  0  0  0
   36.9240   33.6870   42.2090 H   0  0  0  0  0  0  0  0  0  0  0  0
   34.8860   31.9650   42.3240 H   0  0  0  0  0  0  0  0  0  0  0  0
   36.1750   30.7290   42.6980 H   0  0  0  0  0  0  0  0  0  0  0  0
   36.1670   30.4720   40.4640 H   0  0  0  0  0  0  0  0  0  0  0  0
   35.8600   32.1840   40.1960 H   0  0  0  0  0  0  0  0  0  0  0  0
   37.9360   32.9770   40.6000 H   0  0  0  0  0  0  0  0  0  0  0  0
   38.3730   31.4500   39.8550 H   0  0  0  0  0  0  0  0  0  0  0  0
   39.6540   31.9470   41.7360 H   0  0  0  0  0  0  0  0  0  0  0  0
   40.3380   29.7040   42.2330 C   0  0  2  0  0  3  0  0  0  0  0  0
   38.8750   30.0210   41.9620 C   0  0  1  0  0  3  0  0  0  0  0  0
   38.3590   29.1580   43.0630 C   0  0  0  0  0  3  0  0  0  0  0  0
   38.3680   29.5290   44.0660 H   0  0  0  0  0  0  0  0  0  0  0  0
   38.9020   27.9360   42.7880 O   0  0  0  0  0  0  0  0  0  0  0  0
   40.2120   28.1840   42.4620 C   0  0  0  0  0  3  0  0  0  0  0  0
   40.5630   27.6250   41.5720 H   0  0  0  0  0  0  0  0  0  0  0  0
   40.7750   30.3370   43.3740 O   0  0  0  0  0  0  0  0  0  0  0  0
   41.0740   29.6990   44.0780 H   0  0  0  0  0  0  0  0  0  0  0  0
   37.9830   31.3990   44.2430 O   0  0  0  0  0  0  0  0  0  0  0  0
   36.1480   29.9330   45.9530 Cl  0  0  0  0  0  0  0  0  0  0  0  0
   37.3880   31.0150   46.5250 C   0  0  0  0  0  0  0  0  0  0  0  0
   37.5080   31.1880   47.8730 C   0  0  0  0  0  0  0  0  0  0  0  0
   38.5140   32.0590   48.2850 C   0  0  0  0  0  0  0  0  0  0  0  0
   39.3140   32.6850   47.3490 C   0  0  0  0  0  0  0  0  0  0  0  0
   39.1550   32.4800   45.9980 C   0  0  0  0  0  0  0  0  0  0  0  0
   38.1720   31.6280   45.5900 C   0  0  0  0  0  0  0  0  0  0  0  0
   38.6580   32.2370   49.3500 H   0  0  0  0  0  0  0  0  0  0  0  0
   40.1080   33.3740   47.6750 H   0  0  0  0  0  0  0  0  0  0  0  0
   39.7730   32.9630   45.2550 H   0  0  0  0  0  0  0  0  0  0  0  0
   37.2000   29.6800   49.8440 C   0  0  0  0  0  0  0  0  0  0  0  0
   36.6650   30.5340   48.8780 C   0  0  0  0  0  0  0  0  0  0  0  0
   35.2890   30.7510   48.8990 C   0  0  0  0  0  0  0  0  0  0  0  0
   34.5490   30.1260   49.8470 N   0  0  0  0  0  0  0  0  0  0  0  0
   35.0870   29.3200   50.7510 C   0  0  0  0  0  0  0  0  0  0  0  0
   36.4100   29.0890   50.7600 N   0  0  0  0  0  0  0  0  0  0  0  0
   38.2670   29.5570   49.7720 H   0  0  0  0  0  0  0  0  0  0  0  0
   34.8060   31.4030   48.1780 H   0  0  0  0  0  0  0  0  0  0  0  0
   34.5560   28.7910   51.5320 H   0  0  0  0  0  0  0  0  0  0  0  0
  1  7  1  1  0  0  0
  1 26  1  0  0  0  0
  2  1  1  0  0  0  0
  2  8  1  0  0  0  0
  3 10  1  0  0  0  0
  3 11  1  0  0  0  0
  3  2  1  0  0  0  0
  4  3  1  0  0  0  0
  5  4  1  0  0  0  0
  5  6  1  0  0  0  0
  6 16  1  6  0  0  0
  6  1  1  0  0  0  0
  9  2  1  0  0  0  0
 12  4  1  0  0  0  0
 13  4  1  0  0  0  0
 14  5  1  0  0  0  0
 15  5  1  0  0  0  0
 17 22  1  0  0  0  0
 17 24  1  1  0  0  0
 18  6  1  0  0  0  0
 18 17  1  0  0  0  0
 18 19  1  1  0  0  0
 19 20  1  0  0  0  0
 21 19  1  0  0  0  0
 22 21  1  0  0  0  0
 23 22  1  0  0  0  0
 24 25  1  0  0  0  0
 26 33  1  0  0  0  0
 27 28  1  0  0  0  0
 28 29  1  0  0  0  0
 29 30  2  0  0  0  0
 29 38  1  0  0  0  0
 30 34  1  0  0  0  0
 31 35  1  0  0  0  0
 31 30  1  0  0  0  0
 32 31  2  0  0  0  0
 33 32  1  0  0  0  0
 33 28  2  0  0  0  0
 36 32  1  0  0  0  0
 37 42  1  0  0  0  0
 38 39  1  0  0  0  0
 38 37  2  0  0  0  0
 39 40  2  0  0  0  0
 40 41  1  0  0  0  0
 41 42  2  0  0  0  0
 41 45  1  0  0  0  0
 43 37  1  0  0  0  0
 44 39  1  0  0  0  0
M  END
>  <minimizedAffinity>
-5.66661453

>  <minimizedRMSD>
2.41769075

$$$$
