
 OpenBabel03272507503D

 28 30  0  0  1  0  0  0  0  0999 V2000
   35.5100   29.0990   49.1640 C   0  0  0  0  0  0  0  0  0  0  0  0
   35.7570   30.1680   48.2850 C   0  0  0  0  0  0  0  0  0  0  0  0
   35.1090   30.1380   47.0560 C   0  0  0  0  0  0  0  0  0  0  0  0
   34.2890   29.1090   46.7610 N   0  0  0  0  0  0  0  0  0  0  0  0
   34.0720   28.0920   47.6320 C   0  0  0  0  0  0  0  0  0  0  0  0
   34.6870   28.0790   48.8510 N   0  0  0  0  0  0  0  0  0  0  0  0
   35.3010   30.9660   46.3760 H   0  0  0  0  0  0  0  0  0  0  0  0
   33.3870   27.3260   47.2700 H   0  0  0  0  0  0  0  0  0  0  0  0
   36.6390   31.1910   48.7060 N   0  0  0  0  0  0  0  0  0  0  0  0
   36.3420   32.0440   49.6890 C   0  0  0  0  0  0  0  0  0  0  0  0
   37.2400   33.0390   50.0750 C   0  0  0  0  0  0  0  0  0  0  0  0
   38.4220   33.0320   49.3490 C   0  0  0  0  0  0  0  0  0  0  0  0
   39.2450   33.9370   49.6970 O   0  0  0  0  0  0  0  0  0  0  0  0
   38.7600   32.2010   48.3600 N   0  0  0  0  0  0  0  0  0  0  0  0
   37.8300   31.2720   48.0550 C   0  0  0  0  0  0  0  0  0  0  0  0
   38.1400   30.4740   47.1150 O   0  0  0  0  0  0  0  0  0  0  0  0
   35.4000   32.0050   50.2160 H   0  0  0  0  0  0  0  0  0  0  0  0
   37.0420   33.7380   50.8530 H   0  0  0  0  0  0  0  0  0  0  0  0
   39.6790   32.2830   47.8770 H   0  0  0  0  0  0  0  0  0  0  0  0
   37.5700   28.7350   50.5240 C   0  0  2  0  0  3  0  0  0  0  0  0
   36.1030   28.9420   50.5140 C   0  0  1  0  0  3  0  0  0  0  0  0
   35.8900   30.1360   51.3850 C   0  0  0  0  0  3  0  0  0  0  0  0
   35.0170   29.9770   52.0830 H   0  0  0  0  0  0  0  0  0  0  0  0
   37.0050   30.3130   52.1710 O   0  0  0  0  0  0  0  0  0  0  0  0
   38.0760   29.6920   51.5660 C   0  0  0  0  0  3  0  0  0  0  0  0
   38.7740   30.4270   51.0920 H   0  0  0  0  0  0  0  0  0  0  0  0
   38.1100   29.0400   49.2850 O   0  0  0  0  0  0  0  0  0  0  0  0
   38.9710   29.5190   49.4270 H   0  0  0  0  0  0  0  0  0  0  0  0
  2  9  1  0  0  0  0
  2  1  2  0  0  0  0
  3  2  1  0  0  0  0
  4  3  2  0  0  0  0
  4  5  1  0  0  0  0
  5  6  2  0  0  0  0
  6  1  1  0  0  0  0
  7  3  1  0  0  0  0
  8  5  1  0  0  0  0
  9 10  1  0  0  0  0
 10 11  2  0  0  0  0
 10 17  1  0  0  0  0
 11 18  1  0  0  0  0
 12 13  2  0  0  0  0
 12 11  1  0  0  0  0
 14 12  1  0  0  0  0
 15 14  1  0  0  0  0
 15  9  1  0  0  0  0
 16 15  2  0  0  0  0
 19 14  1  0  0  0  0
 20 27  1  6  0  0  0
 20 25  1  0  0  0  0
 21  1  1  6  0  0  0
 21 20  1  0  0  0  0
 21 22  1  0  0  0  0
 22 23  1  0  0  0  0
 22 24  1  0  0  0  0
 25 24  1  0  0  0  0
 26 25  1  0  0  0  0
 27 28  1  0  0  0  0
M  END
>  <minimizedAffinity>
-3.57615852

>  <minimizedRMSD>
1.22944999

$$$$
