
 OpenBabel03262523343D

 40 44  0  0  1  0  0  0  0  0999 V2000
   36.5100   28.1070   32.1310 C   0  0  0  0  0  0  0  0  0  0  0  0
   35.7540   29.0730   32.7800 C   0  0  0  0  0  0  0  0  0  0  0  0
   35.8840   29.1920   34.1610 C   0  0  0  0  0  0  0  0  0  0  0  0
   36.7510   28.3580   34.8310 N   0  0  0  0  0  0  0  0  0  0  0  0
   37.4570   27.4410   34.1430 C   0  0  0  0  0  0  0  0  0  0  0  0
   37.3510   27.3050   32.8260 N   0  0  0  0  0  0  0  0  0  0  0  0
   36.4490   27.9670   31.0550 H   0  0  0  0  0  0  0  0  0  0  0  0
   35.0780   29.7200   32.2390 H   0  0  0  0  0  0  0  0  0  0  0  0
   35.9130   31.0910   35.6730 C   0  0  0  0  0  0  0  0  0  0  0  0
   35.1420   30.1700   34.9390 C   0  0  0  0  0  0  0  0  0  0  0  0
   33.7780   30.2490   35.0020 C   0  0  0  0  0  0  0  0  0  0  0  0
   33.1820   31.2150   35.7700 C   0  0  0  0  0  0  0  0  0  0  0  0
   31.8720   31.4640   35.9660 N   0  0  0  0  0  0  0  0  0  0  0  0
   31.7900   32.5120   36.8020 C   0  0  0  0  0  0  0  0  0  0  0  0
   32.9970   32.9320   37.1370 N   0  0  0  0  0  0  0  0  0  0  0  0
   33.8950   32.1410   36.5080 C   0  0  0  0  0  0  0  0  0  0  0  0
   35.2840   32.0660   36.4500 C   0  0  0  0  0  0  0  0  0  0  0  0
   37.0030   31.1320   35.7070 H   0  0  0  0  0  0  0  0  0  0  0  0
   33.1860   29.5430   34.4380 H   0  0  0  0  0  0  0  0  0  0  0  0
   31.0260   30.9650   35.5690 H   0  0  0  0  0  0  0  0  0  0  0  0
   30.8990   32.9930   37.1830 H   0  0  0  0  0  0  0  0  0  0  0  0
   35.8540   32.7850   37.0220 H   0  0  0  0  0  0  0  0  0  0  0  0
   38.3730   26.5850   34.8950 C   0  0  0  0  0  0  0  0  0  0  0  0
   39.2880   27.0520   35.6200 O   0  0  0  0  0  0  0  0  0  0  0  0
   38.2050   25.0790   34.7920 C   0  0  1  0  0  0  0  0  0  0  0  0
   39.3590   24.3580   34.0750 C   0  0  0  0  0  0  0  0  0  0  0  0
   39.1440   24.2230   35.5270 C   0  0  2  0  0  0  0  0  0  0  0  0
   37.2520   24.7660   34.3440 H   0  0  0  0  0  0  0  0  0  0  0  0
   40.1780   25.0130   33.6790 H   0  0  0  0  0  0  0  0  0  0  0  0
   39.1480   23.5220   33.4060 H   0  0  0  0  0  0  0  0  0  0  0  0
   39.9120   24.7920   36.1350 H   0  0  0  0  0  0  0  0  0  0  0  0
   39.6730   22.6050   37.3040 C   0  0  2  0  0  3  0  0  0  0  0  0
   38.7190   22.9350   36.1820 C   0  0  1  0  0  3  0  0  0  0  0  0
   37.4320   23.0550   36.9680 C   0  0  0  0  0  3  0  0  0  0  0  0
   36.6070   23.5250   36.4230 H   0  0  0  0  0  0  0  0  0  0  0  0
   37.8140   23.7770   38.0690 O   0  0  0  0  0  0  0  0  0  0  0  0
   39.0480   23.3250   38.4700 C   0  0  0  0  0  3  0  0  0  0  0  0
   38.9500   22.6690   39.3620 H   0  0  0  0  0  0  0  0  0  0  0  0
   40.9670   23.0340   37.0420 O   0  0  0  0  0  0  0  0  0  0  0  0
   41.3230   22.4430   36.3310 H   0  0  0  0  0  0  0  0  0  0  0  0
  1  2  2  0  0  0  0
  1  6  1  0  0  0  0
  2  3  1  0  0  0  0
  3  4  2  0  0  0  0
  3 10  1  0  0  0  0
  5  4  1  0  0  0  0
  5 23  1  0  0  0  0
  6  5  2  0  0  0  0
  7  1  1  0  0  0  0
  8  2  1  0  0  0  0
  9 18  1  0  0  0  0
  9 17  1  0  0  0  0
 10 11  1  0  0  0  0
 10  9  2  0  0  0  0
 11 12  2  0  0  0  0
 12 13  1  0  0  0  0
 12 16  1  0  0  0  0
 13 14  1  0  0  0  0
 14 15  2  0  0  0  0
 14 21  1  0  0  0  0
 16 15  1  0  0  0  0
 17 16  2  0  0  0  0
 17 22  1  0  0  0  0
 19 11  1  0  0  0  0
 20 13  1  0  0  0  0
 23 24  2  0  0  0  0
 25 28  1  6  0  0  0
 25 23  1  0  0  0  0
 25 27  1  0  0  0  0
 26 25  1  0  0  0  0
 26 27  1  0  0  0  0
 27 31  1  1  0  0  0
 27 33  1  0  0  0  0
 29 26  1  0  0  0  0
 30 26  1  0  0  0  0
 32 39  1  6  0  0  0
 32 37  1  0  0  0  0
 33 34  1  1  0  0  0
 33 32  1  0  0  0  0
 34 36  1  0  0  0  0
 35 34  1  0  0  0  0
 36 37  1  0  0  0  0
 37 38  1  0  0  0  0
 40 39  1  0  0  0  0
M  END
>  <minimizedAffinity>
-6.25214243

$$$$

 OpenBabel03262523343D

 40 44  0  0  1  0  0  0  0  0999 V2000
   43.4400   26.8600   33.9220 C   0  0  0  0  0  0  0  0  0  0  0  0
   42.2190   27.3160   33.4440 C   0  0  0  0  0  0  0  0  0  0  0  0
   41.0730   26.5950   33.7720 C   0  0  0  0  0  0  0  0  0  0  0  0
   41.1880   25.4670   34.5530 N   0  0  0  0  0  0  0  0  0  0  0  0
   42.4020   25.0780   34.9870 C   0  0  0  0  0  0  0  0  0  0  0  0
   43.5100   25.7460   34.6870 N   0  0  0  0  0  0  0  0  0  0  0  0
   44.3670   27.3810   33.6970 H   0  0  0  0  0  0  0  0  0  0  0  0
   42.1470   28.2040   32.8320 H   0  0  0  0  0  0  0  0  0  0  0  0
   38.7660   27.1000   34.3310 C   0  0  0  0  0  0  0  0  0  0  0  0
   39.7460   26.9830   33.3270 C   0  0  0  0  0  0  0  0  0  0  0  0
   39.3970   27.2360   32.0290 C   0  0  0  0  0  0  0  0  0  0  0  0
   38.1120   27.5960   31.7210 C   0  0  0  0  0  0  0  0  0  0  0  0
   37.5680   27.8850   30.5230 N   0  0  0  0  0  0  0  0  0  0  0  0
   36.2750   28.1800   30.7370 C   0  0  0  0  0  0  0  0  0  0  0  0
   35.9860   28.0890   32.0220 N   0  0  0  0  0  0  0  0  0  0  0  0
   37.1150   27.7240   32.6710 C   0  0  0  0  0  0  0  0  0  0  0  0
   37.4620   27.4680   33.9950 C   0  0  0  0  0  0  0  0  0  0  0  0
   38.9160   26.9260   35.3980 H   0  0  0  0  0  0  0  0  0  0  0  0
   40.1490   27.1470   31.2580 H   0  0  0  0  0  0  0  0  0  0  0  0
   38.0190   27.8950   29.5650 H   0  0  0  0  0  0  0  0  0  0  0  0
   35.5260   28.4610   30.0090 H   0  0  0  0  0  0  0  0  0  0  0  0
   36.6920   27.5650   34.7470 H   0  0  0  0  0  0  0  0  0  0  0  0
   42.4730   23.8800   35.8220 C   0  0  0  0  0  0  0  0  0  0  0  0
   43.4650   23.6290   36.5540 O   0  0  0  0  0  0  0  0  0  0  0  0
   41.3040   22.9110   35.8000 C   0  0  1  0  0  0  0  0  0  0  0  0
   41.3190   21.8710   36.9320 C   0  0  0  0  0  0  0  0  0  0  0  0
   40.3340   22.9670   36.9000 C   0  0  2  0  0  0  0  0  0  0  0  0
   41.1710   22.3950   34.8390 H   0  0  0  0  0  0  0  0  0  0  0  0
   42.1960   21.9140   37.6280 H   0  0  0  0  0  0  0  0  0  0  0  0
   41.0080   20.8430   36.7330 H   0  0  0  0  0  0  0  0  0  0  0  0
   40.5510   23.7690   37.6700 H   0  0  0  0  0  0  0  0  0  0  0  0
   38.1160   23.0700   37.9610 C   0  0  2  0  0  3  0  0  0  0  0  0
   38.8590   22.7450   36.6880 C   0  0  1  0  0  3  0  0  0  0  0  0
   38.2260   23.7560   35.7580 C   0  0  0  0  0  3  0  0  0  0  0  0
   38.7560   23.9000   34.8100 H   0  0  0  0  0  0  0  0  0  0  0  0
   38.1980   24.8960   36.5220 O   0  0  0  0  0  0  0  0  0  0  0  0
   37.8500   24.5430   37.8030 C   0  0  0  0  0  3  0  0  0  0  0  0
   36.7850   24.7990   38.0000 H   0  0  0  0  0  0  0  0  0  0  0  0
   38.8610   22.7800   39.0960 O   0  0  0  0  0  0  0  0  0  0  0  0
   38.9010   21.7930   39.1650 H   0  0  0  0  0  0  0  0  0  0  0  0
  1  6  1  0  0  0  0
  2  3  1  0  0  0  0
  2  1  2  0  0  0  0
  3  4  2  0  0  0  0
  4  5  1  0  0  0  0
  5 23  1  0  0  0  0
  6  5  2  0  0  0  0
  7  1  1  0  0  0  0
  8  2  1  0  0  0  0
  9 18  1  0  0  0  0
 10  3  1  0  0  0  0
 10  9  2  0  0  0  0
 11 10  1  0  0  0  0
 12 11  2  0  0  0  0
 12 16  1  0  0  0  0
 13 14  1  0  0  0  0
 13 12  1  0  0  0  0
 14 15  2  0  0  0  0
 15 16  1  0  0  0  0
 16 17  2  0  0  0  0
 17  9  1  0  0  0  0
 17 22  1  0  0  0  0
 19 11  1  0  0  0  0
 20 13  1  0  0  0  0
 21 14  1  0  0  0  0
 23 24  2  0  0  0  0
 25 28  1  6  0  0  0
 25 23  1  0  0  0  0
 25 27  1  0  0  0  0
 25 26  1  0  0  0  0
 26 29  1  0  0  0  0
 27 26  1  0  0  0  0
 27 31  1  1  0  0  0
 30 26  1  0  0  0  0
 32 39  1  1  0  0  0
 33 34  1  6  0  0  0
 33 27  1  0  0  0  0
 33 32  1  0  0  0  0
 34 36  1  0  0  0  0
 35 34  1  0  0  0  0
 36 37  1  0  0  0  0
 37 32  1  0  0  0  0
 37 38  1  0  0  0  0
 39 40  1  0  0  0  0
M  END
>  <minimizedAffinity>
-6.22105598

$$$$

 OpenBabel03262523343D

 40 44  0  0  1  0  0  0  0  0999 V2000
   36.5220   28.7110   31.1060 C   0  0  0  0  0  0  0  0  0  0  0  0
   37.0680   27.6480   31.8120 C   0  0  0  0  0  0  0  0  0  0  0  0
   36.9120   27.6290   33.1960 C   0  0  0  0  0  0  0  0  0  0  0  0
   36.2280   28.6540   33.8110 N   0  0  0  0  0  0  0  0  0  0  0  0
   35.7210   29.6570   33.0680 C   0  0  0  0  0  0  0  0  0  0  0  0
   35.8570   29.7000   31.7470 N   0  0  0  0  0  0  0  0  0  0  0  0
   36.6130   28.7790   30.0250 H   0  0  0  0  0  0  0  0  0  0  0  0
   37.6010   26.8520   31.3140 H   0  0  0  0  0  0  0  0  0  0  0  0
   37.7340   26.9130   35.3640 C   0  0  0  0  0  0  0  0  0  0  0  0
   37.4410   26.5660   34.0320 C   0  0  0  0  0  0  0  0  0  0  0  0
   37.6660   25.2810   33.6180 C   0  0  0  0  0  0  0  0  0  0  0  0
   38.1690   24.3560   34.4940 C   0  0  0  0  0  0  0  0  0  0  0  0
   38.4590   23.0560   34.2920 N   0  0  0  0  0  0  0  0  0  0  0  0
   38.9270   22.5710   35.4530 C   0  0  0  0  0  0  0  0  0  0  0  0
   38.9410   23.5140   36.3770 N   0  0  0  0  0  0  0  0  0  0  0  0
   38.4730   24.6490   35.8110 C   0  0  0  0  0  0  0  0  0  0  0  0
   38.2470   25.9540   36.2400 C   0  0  0  0  0  0  0  0  0  0  0  0
   37.6000   27.8980   35.8150 H   0  0  0  0  0  0  0  0  0  0  0  0
   37.4410   25.0140   32.5960 H   0  0  0  0  0  0  0  0  0  0  0  0
   38.3600   22.4740   33.4120 H   0  0  0  0  0  0  0  0  0  0  0  0
   39.2600   21.5640   35.6690 H   0  0  0  0  0  0  0  0  0  0  0  0
   38.4790   26.1960   37.2680 H   0  0  0  0  0  0  0  0  0  0  0  0
   34.9940   30.7170   33.7640 C   0  0  0  0  0  0  0  0  0  0  0  0
   34.2780   31.5530   33.1540 O   0  0  0  0  0  0  0  0  0  0  0  0
   35.1120   30.8040   35.2750 C   0  0  1  0  0  0  0  0  0  0  0  0
   36.1940   31.7760   35.7730 C   0  0  0  0  0  0  0  0  0  0  0  0
   34.7580   32.0710   35.9280 C   0  0  2  0  0  0  0  0  0  0  0  0
   35.2470   29.8320   35.7690 H   0  0  0  0  0  0  0  0  0  0  0  0
   36.7980   32.2890   34.9810 H   0  0  0  0  0  0  0  0  0  0  0  0
   36.8010   31.5180   36.6440 H   0  0  0  0  0  0  0  0  0  0  0  0
   34.4000   32.8750   35.2160 H   0  0  0  0  0  0  0  0  0  0  0  0
   33.4570   33.4910   37.4600 C   0  0  2  0  0  3  0  0  0  0  0  0
   34.0660   32.1240   37.2650 C   0  0  1  0  0  3  0  0  0  0  0  0
   32.8140   31.2760   37.3290 C   0  0  0  0  0  3  0  0  0  0  0  0
   32.9410   30.2470   36.9780 H   0  0  0  0  0  0  0  0  0  0  0  0
   31.9260   31.9870   36.5620 O   0  0  0  0  0  0  0  0  0  0  0  0
   32.0970   33.3220   36.8370 C   0  0  0  0  0  3  0  0  0  0  0  0
   31.2850   33.6880   37.5030 H   0  0  0  0  0  0  0  0  0  0  0  0
   34.2030   34.4930   36.8530 O   0  0  0  0  0  0  0  0  0  0  0  0
   35.0310   34.5930   37.3860 H   0  0  0  0  0  0  0  0  0  0  0  0
  1  6  2  0  0  0  0
  1  2  1  0  0  0  0
  2  3  2  0  0  0  0
  3  4  1  0  0  0  0
  3 10  1  0  0  0  0
  5 23  1  0  0  0  0
  5  4  2  0  0  0  0
  6  5  1  0  0  0  0
  7  1  1  0  0  0  0
  8  2  1  0  0  0  0
  9 18  1  0  0  0  0
  9 17  1  0  0  0  0
 10  9  2  0  0  0  0
 11 10  1  0  0  0  0
 11 12  2  0  0  0  0
 12 16  1  0  0  0  0
 13 12  1  0  0  0  0
 13 14  1  0  0  0  0
 14 21  1  0  0  0  0
 14 15  2  0  0  0  0
 16 17  2  0  0  0  0
 16 15  1  0  0  0  0
 17 22  1  0  0  0  0
 19 11  1  0  0  0  0
 20 13  1  0  0  0  0
 23 25  1  0  0  0  0
 24 23  2  0  0  0  0
 25 28  1  1  0  0  0
 25 26  1  0  0  0  0
 25 27  1  0  0  0  0
 26 27  1  0  0  0  0
 26 30  1  0  0  0  0
 27 31  1  6  0  0  0
 27 33  1  0  0  0  0
 29 26  1  0  0  0  0
 32 39  1  6  0  0  0
 33 34  1  6  0  0  0
 33 32  1  0  0  0  0
 35 34  1  0  0  0  0
 36 37  1  0  0  0  0
 36 34  1  0  0  0  0
 37 32  1  0  0  0  0
 37 38  1  0  0  0  0
 39 40  1  0  0  0  0
M  END
>  <minimizedAffinity>
-6.09110022

$$$$

 OpenBabel03262523343D

 40 44  0  0  1  0  0  0  0  0999 V2000
   37.8880   27.9890   31.4730 C   0  0  0  0  0  0  0  0  0  0  0  0
   36.6960   28.6550   31.7250 C   0  0  0  0  0  0  0  0  0  0  0  0
   36.1580   28.5780   33.0070 C   0  0  0  0  0  0  0  0  0  0  0  0
   36.8200   27.8530   33.9730 N   0  0  0  0  0  0  0  0  0  0  0  0
   37.9740   27.2310   33.6650 C   0  0  0  0  0  0  0  0  0  0  0  0
   38.5080   27.2870   32.4500 N   0  0  0  0  0  0  0  0  0  0  0  0
   38.3540   28.0140   30.4910 H   0  0  0  0  0  0  0  0  0  0  0  0
   36.1890   29.2190   30.9550 H   0  0  0  0  0  0  0  0  0  0  0  0
   34.9560   30.0060   34.5590 C   0  0  0  0  0  0  0  0  0  0  0  0
   34.9180   29.2360   33.3800 C   0  0  0  0  0  0  0  0  0  0  0  0
   33.7470   29.1570   32.6780 C   0  0  0  0  0  0  0  0  0  0  0  0
   32.6340   29.8210   33.1230 C   0  0  0  0  0  0  0  0  0  0  0  0
   31.3990   29.8750   32.5880 N   0  0  0  0  0  0  0  0  0  0  0  0
   30.6540   30.6540   33.3900 C   0  0  0  0  0  0  0  0  0  0  0  0
   31.3730   31.0920   34.4070 N   0  0  0  0  0  0  0  0  0  0  0  0
   32.6210   30.5890   34.2730 C   0  0  0  0  0  0  0  0  0  0  0  0
   33.8100   30.6740   34.9940 C   0  0  0  0  0  0  0  0  0  0  0  0
   35.8230   30.1480   35.2050 H   0  0  0  0  0  0  0  0  0  0  0  0
   33.7170   28.5670   31.7740 H   0  0  0  0  0  0  0  0  0  0  0  0
   31.0260   29.4150   31.7100 H   0  0  0  0  0  0  0  0  0  0  0  0
   29.6130   30.9240   33.2780 H   0  0  0  0  0  0  0  0  0  0  0  0
   33.8140   31.2710   35.8950 H   0  0  0  0  0  0  0  0  0  0  0  0
   38.6460   26.4820   34.7250 C   0  0  0  0  0  0  0  0  0  0  0  0
   39.2720   27.0510   35.6570 O   0  0  0  0  0  0  0  0  0  0  0  0
   38.5820   24.9650   34.6940 C   0  0  1  0  0  0  0  0  0  0  0  0
   39.9050   24.2810   34.3120 C   0  0  0  0  0  0  0  0  0  0  0  0
   39.3660   24.2160   35.6820 C   0  0  2  0  0  0  0  0  0  0  0  0
   37.7750   24.5670   34.0630 H   0  0  0  0  0  0  0  0  0  0  0  0
   40.7590   24.9630   34.0670 H   0  0  0  0  0  0  0  0  0  0  0  0
   39.8960   23.3950   33.6730 H   0  0  0  0  0  0  0  0  0  0  0  0
   39.9430   24.8670   36.4080 H   0  0  0  0  0  0  0  0  0  0  0  0
   39.6990   22.6250   37.5310 C   0  0  2  0  0  3  0  0  0  0  0  0
   38.8660   22.9420   36.3130 C   0  0  1  0  0  3  0  0  0  0  0  0
   37.5070   23.0860   36.9630 C   0  0  0  0  0  3  0  0  0  0  0  0
   36.7450   23.5540   36.3300 H   0  0  0  0  0  0  0  0  0  0  0  0
   37.7840   23.8250   38.0850 O   0  0  0  0  0  0  0  0  0  0  0  0
   38.9670   23.3710   38.6150 C   0  0  0  0  0  3  0  0  0  0  0  0
   38.7730   22.7320   39.5040 H   0  0  0  0  0  0  0  0  0  0  0  0
   41.0160   23.0390   37.3920 O   0  0  0  0  0  0  0  0  0  0  0  0
   41.4370   22.4330   36.7310 H   0  0  0  0  0  0  0  0  0  0  0  0
  1  2  2  0  0  0  0
  1  6  1  0  0  0  0
  2  3  1  0  0  0  0
  3 10  1  0  0  0  0
  3  4  2  0  0  0  0
  5  4  1  0  0  0  0
  5 23  1  0  0  0  0
  6  5  2  0  0  0  0
  7  1  1  0  0  0  0
  8  2  1  0  0  0  0
  9 17  1  0  0  0  0
  9 18  1  0  0  0  0
 10  9  2  0  0  0  0
 11 12  2  0  0  0  0
 11 10  1  0  0  0  0
 12 16  1  0  0  0  0
 13 12  1  0  0  0  0
 13 14  1  0  0  0  0
 14 15  2  0  0  0  0
 16 15  1  0  0  0  0
 16 17  2  0  0  0  0
 17 22  1  0  0  0  0
 19 11  1  0  0  0  0
 20 13  1  0  0  0  0
 21 14  1  0  0  0  0
 23 24  2  0  0  0  0
 25 28  1  6  0  0  0
 25 23  1  0  0  0  0
 25 27  1  0  0  0  0
 26 25  1  0  0  0  0
 26 27  1  0  0  0  0
 27 33  1  0  0  0  0
 27 31  1  1  0  0  0
 29 26  1  0  0  0  0
 30 26  1  0  0  0  0
 32 39  1  6  0  0  0
 32 37  1  0  0  0  0
 33 34  1  1  0  0  0
 33 32  1  0  0  0  0
 34 36  1  0  0  0  0
 35 34  1  0  0  0  0
 36 37  1  0  0  0  0
 37 38  1  0  0  0  0
 40 39  1  0  0  0  0
M  END
>  <minimizedAffinity>
-5.93271255

$$$$

 OpenBabel03262523343D

 40 44  0  0  1  0  0  0  0  0999 V2000
   37.7900   24.2760   37.6590 C   0  0  0  0  0  0  0  0  0  0  0  0
   38.8470   23.3760   37.6200 C   0  0  0  0  0  0  0  0  0  0  0  0
   39.7690   23.4900   36.5820 C   0  0  0  0  0  0  0  0  0  0  0  0
   39.6040   24.4810   35.6400 N   0  0  0  0  0  0  0  0  0  0  0  0
   38.5570   25.3230   35.7350 C   0  0  0  0  0  0  0  0  0  0  0  0
   37.6630   25.2360   36.7140 N   0  0  0  0  0  0  0  0  0  0  0  0
   37.0400   24.2350   38.4450 H   0  0  0  0  0  0  0  0  0  0  0  0
   38.9610   22.6050   38.3670 H   0  0  0  0  0  0  0  0  0  0  0  0
   41.7990   22.8960   35.3920 C   0  0  0  0  0  0  0  0  0  0  0  0
   40.9110   22.6040   36.4460 C   0  0  0  0  0  0  0  0  0  0  0  0
   41.1730   21.5320   37.2540 C   0  0  0  0  0  0  0  0  0  0  0  0
   42.2840   20.7620   37.0330 C   0  0  0  0  0  0  0  0  0  0  0  0
   42.7210   19.6770   37.7040 N   0  0  0  0  0  0  0  0  0  0  0  0
   43.8540   19.2740   37.1080 C   0  0  0  0  0  0  0  0  0  0  0  0
   44.1480   20.0620   36.0900 N   0  0  0  0  0  0  0  0  0  0  0  0
   43.1850   21.0070   36.0130 C   0  0  0  0  0  0  0  0  0  0  0  0
   42.9250   22.0960   35.1850 C   0  0  0  0  0  0  0  0  0  0  0  0
   41.7020   23.7170   34.6810 H   0  0  0  0  0  0  0  0  0  0  0  0
   40.4930   21.3080   38.0630 H   0  0  0  0  0  0  0  0  0  0  0  0
   42.2960   19.1910   38.5430 H   0  0  0  0  0  0  0  0  0  0  0  0
   44.4840   18.4350   37.3720 H   0  0  0  0  0  0  0  0  0  0  0  0
   43.6210   22.3000   34.3830 H   0  0  0  0  0  0  0  0  0  0  0  0
   38.4300   26.3660   34.7190 C   0  0  0  0  0  0  0  0  0  0  0  0
   39.4290   26.9560   34.2310 O   0  0  0  0  0  0  0  0  0  0  0  0
   37.0390   26.7440   34.2390 C   0  0  1  0  0  0  0  0  0  0  0  0
   36.5980   28.1650   34.6260 C   0  0  0  0  0  0  0  0  0  0  0  0
   36.9160   27.8040   33.2320 C   0  0  2  0  0  0  0  0  0  0  0  0
   36.2570   26.0310   34.5350 H   0  0  0  0  0  0  0  0  0  0  0  0
   37.3250   28.7560   35.2410 H   0  0  0  0  0  0  0  0  0  0  0  0
   35.5650   28.3530   34.9260 H   0  0  0  0  0  0  0  0  0  0  0  0
   37.9050   28.2340   32.8870 H   0  0  0  0  0  0  0  0  0  0  0  0
   36.1080   28.9150   31.1910 C   0  0  2  0  0  3  0  0  0  0  0  0
   35.8840   27.7600   32.1360 C   0  0  1  0  0  3  0  0  0  0  0  0
   36.0740   26.6060   31.1770 C   0  0  0  0  0  3  0  0  0  0  0  0
   36.1990   25.6290   31.6570 H   0  0  0  0  0  0  0  0  0  0  0  0
   37.1800   26.9840   30.4600 O   0  0  0  0  0  0  0  0  0  0  0  0
   37.0840   28.3310   30.2050 C   0  0  0  0  0  3  0  0  0  0  0  0
   36.7690   28.5040   29.1520 H   0  0  0  0  0  0  0  0  0  0  0  0
   36.6080   30.0380   31.8370 O   0  0  0  0  0  0  0  0  0  0  0  0
   35.8690   30.4030   32.3860 H   0  0  0  0  0  0  0  0  0  0  0  0
  1  7  1  0  0  0  0
  2  1  1  0  0  0  0
  2  8  1  0  0  0  0
  3  2  2  0  0  0  0
  4  5  2  0  0  0  0
  4  3  1  0  0  0  0
  5  6  1  0  0  0  0
  6  1  2  0  0  0  0
  9 10  1  0  0  0  0
 10  3  1  0  0  0  0
 10 11  2  0  0  0  0
 11 19  1  0  0  0  0
 12 11  1  0  0  0  0
 12 13  1  0  0  0  0
 13 20  1  0  0  0  0
 14 21  1  0  0  0  0
 14 13  1  0  0  0  0
 15 14  2  0  0  0  0
 16 15  1  0  0  0  0
 16 12  2  0  0  0  0
 17  9  2  0  0  0  0
 17 16  1  0  0  0  0
 18  9  1  0  0  0  0
 22 17  1  0  0  0  0
 23  5  1  0  0  0  0
 24 23  2  0  0  0  0
 25 28  1  1  0  0  0
 25 26  1  0  0  0  0
 25 23  1  0  0  0  0
 26 30  1  0  0  0  0
 26 29  1  0  0  0  0
 27 31  1  6  0  0  0
 27 25  1  0  0  0  0
 27 26  1  0  0  0  0
 32 39  1  1  0  0  0
 32 33  1  0  0  0  0
 33 34  1  6  0  0  0
 33 27  1  0  0  0  0
 34 35  1  0  0  0  0
 36 34  1  0  0  0  0
 37 36  1  0  0  0  0
 37 32  1  0  0  0  0
 38 37  1  0  0  0  0
 39 40  1  0  0  0  0
M  END
>  <minimizedAffinity>
-5.89780807

$$$$

 OpenBabel03262523343D

 40 44  0  0  1  0  0  0  0  0999 V2000
   36.8930   28.4830   31.3350 C   0  0  0  0  0  0  0  0  0  0  0  0
   36.2230   29.3610   32.1750 C   0  0  0  0  0  0  0  0  0  0  0  0
   36.0030   28.9710   33.4930 C   0  0  0  0  0  0  0  0  0  0  0  0
   36.4540   27.7400   33.9160 N   0  0  0  0  0  0  0  0  0  0  0  0
   37.0990   26.9340   33.0510 C   0  0  0  0  0  0  0  0  0  0  0  0
   37.3210   27.2820   31.7880 N   0  0  0  0  0  0  0  0  0  0  0  0
   37.0930   28.7340   30.2960 H   0  0  0  0  0  0  0  0  0  0  0  0
   35.8750   30.3230   31.8270 H   0  0  0  0  0  0  0  0  0  0  0  0
   36.1210   30.6990   35.1940 C   0  0  0  0  0  0  0  0  0  0  0  0
   35.3130   29.8110   34.4570 C   0  0  0  0  0  0  0  0  0  0  0  0
   33.9660   29.7950   34.6890 C   0  0  0  0  0  0  0  0  0  0  0  0
   33.4210   30.6340   35.6250 C   0  0  0  0  0  0  0  0  0  0  0  0
   32.1340   30.7750   36.0020 N   0  0  0  0  0  0  0  0  0  0  0  0
   32.1030   31.7230   36.9530 C   0  0  0  0  0  0  0  0  0  0  0  0
   33.3180   32.1840   37.1880 N   0  0  0  0  0  0  0  0  0  0  0  0
   34.1710   31.5220   36.3730 C   0  0  0  0  0  0  0  0  0  0  0  0
   35.5440   31.5440   36.1430 C   0  0  0  0  0  0  0  0  0  0  0  0
   37.2030   30.8070   35.1030 H   0  0  0  0  0  0  0  0  0  0  0  0
   33.3450   29.1140   34.1250 H   0  0  0  0  0  0  0  0  0  0  0  0
   31.2730   30.2670   35.6540 H   0  0  0  0  0  0  0  0  0  0  0  0
   31.2430   32.1020   37.4880 H   0  0  0  0  0  0  0  0  0  0  0  0
   36.1430   32.2350   36.7210 H   0  0  0  0  0  0  0  0  0  0  0  0
   37.5690   25.6420   33.5470 C   0  0  0  0  0  0  0  0  0  0  0  0
   37.1840   24.5510   33.0530 O   0  0  0  0  0  0  0  0  0  0  0  0
   38.5580   25.6260   34.7000 C   0  0  1  0  0  0  0  0  0  0  0  0
   37.9320   25.3110   36.0690 C   0  0  0  0  0  0  0  0  0  0  0  0
   38.8120   24.3500   35.3800 C   0  0  2  0  0  0  0  0  0  0  0  0
   39.1620   26.5400   34.7820 H   0  0  0  0  0  0  0  0  0  0  0  0
   36.8220   25.1610   36.0800 H   0  0  0  0  0  0  0  0  0  0  0  0
   38.2800   25.8360   36.9620 H   0  0  0  0  0  0  0  0  0  0  0  0
   38.2420   23.4720   34.9470 H   0  0  0  0  0  0  0  0  0  0  0  0
   40.2360   22.4690   36.0780 C   0  0  2  0  0  3  0  0  0  0  0  0
   40.1750   23.9650   35.8910 C   0  0  1  0  0  3  0  0  0  0  0  0
   41.2740   24.1400   34.8660 C   0  0  0  0  0  3  0  0  0  0  0  0
   41.2860   25.1160   34.3710 H   0  0  0  0  0  0  0  0  0  0  0  0
   41.0390   23.1100   33.9910 O   0  0  0  0  0  0  0  0  0  0  0  0
   40.6870   22.0010   34.7200 C   0  0  0  0  0  3  0  0  0  0  0  0
   41.5420   21.2920   34.7850 H   0  0  0  0  0  0  0  0  0  0  0  0
   39.0110   21.9320   36.4500 O   0  0  0  0  0  0  0  0  0  0  0  0
   38.8470   22.2180   37.3840 H   0  0  0  0  0  0  0  0  0  0  0  0
  1  6  2  0  0  0  0
  1  2  1  0  0  0  0
  2  3  2  0  0  0  0
  3  4  1  0  0  0  0
  3 10  1  0  0  0  0
  5 23  1  0  0  0  0
  5  4  2  0  0  0  0
  6  5  1  0  0  0  0
  7  1  1  0  0  0  0
  8  2  1  0  0  0  0
  9 17  1  0  0  0  0
 10 11  1  0  0  0  0
 10  9  2  0  0  0  0
 11 12  2  0  0  0  0
 12 13  1  0  0  0  0
 12 16  1  0  0  0  0
 13 14  1  0  0  0  0
 14 15  2  0  0  0  0
 14 21  1  0  0  0  0
 16 15  1  0  0  0  0
 17 16  2  0  0  0  0
 17 22  1  0  0  0  0
 18  9  1  0  0  0  0
 19 11  1  0  0  0  0
 20 13  1  0  0  0  0
 23 25  1  0  0  0  0
 24 23  2  0  0  0  0
 25 28  1  6  0  0  0
 25 27  1  0  0  0  0
 25 26  1  0  0  0  0
 26 29  1  0  0  0  0
 26 30  1  0  0  0  0
 27 31  1  6  0  0  0
 27 33  1  0  0  0  0
 27 26  1  0  0  0  0
 32 39  1  6  0  0  0
 33 34  1  6  0  0  0
 33 32  1  0  0  0  0
 35 34  1  0  0  0  0
 36 37  1  0  0  0  0
 36 34  1  0  0  0  0
 37 38  1  0  0  0  0
 37 32  1  0  0  0  0
 39 40  1  0  0  0  0
M  END
>  <minimizedAffinity>
-5.8433876

$$$$

 OpenBabel03262523343D

 40 44  0  0  1  0  0  0  0  0999 V2000
   38.5280   27.5670   31.3810 C   0  0  0  0  0  0  0  0  0  0  0  0
   38.9240   26.6390   32.3340 C   0  0  0  0  0  0  0  0  0  0  0  0
   38.1690   26.5300   33.4990 C   0  0  0  0  0  0  0  0  0  0  0  0
   37.0650   27.3360   33.6640 N   0  0  0  0  0  0  0  0  0  0  0  0
   36.7320   28.2160   32.7010 C   0  0  0  0  0  0  0  0  0  0  0  0
   37.4360   28.3410   31.5810 N   0  0  0  0  0  0  0  0  0  0  0  0
   39.0790   27.6970   30.4530 H   0  0  0  0  0  0  0  0  0  0  0  0
   39.7930   26.0140   32.1880 H   0  0  0  0  0  0  0  0  0  0  0  0
   39.4950   24.6470   34.2660 C   0  0  0  0  0  0  0  0  0  0  0  0
   38.4920   25.5920   34.5600 C   0  0  0  0  0  0  0  0  0  0  0  0
   37.9010   25.5690   35.7930 C   0  0  0  0  0  0  0  0  0  0  0  0
   38.2860   24.6370   36.7210 C   0  0  0  0  0  0  0  0  0  0  0  0
   37.8370   24.4450   37.9770 N   0  0  0  0  0  0  0  0  0  0  0  0
   38.5230   23.4090   38.4870 C   0  0  0  0  0  0  0  0  0  0  0  0
   39.3850   22.9430   37.6020 N   0  0  0  0  0  0  0  0  0  0  0  0
   39.2640   23.6900   36.4810 C   0  0  0  0  0  0  0  0  0  0  0  0
   39.8700   23.7060   35.2270 C   0  0  0  0  0  0  0  0  0  0  0  0
   40.0390   24.5610   33.3250 H   0  0  0  0  0  0  0  0  0  0  0  0
   37.1330   26.2940   36.0190 H   0  0  0  0  0  0  0  0  0  0  0  0
   37.0920   24.9730   38.5120 H   0  0  0  0  0  0  0  0  0  0  0  0
   38.4330   22.9700   39.4720 H   0  0  0  0  0  0  0  0  0  0  0  0
   40.6370   22.9710   35.0270 H   0  0  0  0  0  0  0  0  0  0  0  0
   35.5460   29.0430   32.9160 C   0  0  0  0  0  0  0  0  0  0  0  0
   34.8910   29.5390   31.9630 O   0  0  0  0  0  0  0  0  0  0  0  0
   35.0960   29.3060   34.3420 C   0  0  1  0  0  0  0  0  0  0  0  0
   35.6150   30.6240   34.9390 C   0  0  0  0  0  0  0  0  0  0  0  0
   34.1960   30.4390   34.5890 C   0  0  2  0  0  0  0  0  0  0  0  0
   35.3160   28.4850   35.0370 H   0  0  0  0  0  0  0  0  0  0  0  0
   36.2900   31.2310   34.2820 H   0  0  0  0  0  0  0  0  0  0  0  0
   35.9250   30.6640   35.9860 H   0  0  0  0  0  0  0  0  0  0  0  0
   33.9010   31.0090   33.6550 H   0  0  0  0  0  0  0  0  0  0  0  0
   32.0110   31.3690   35.2370 C   0  0  2  0  0  3  0  0  0  0  0  0
   33.0930   30.3850   35.6130 C   0  0  1  0  0  3  0  0  0  0  0  0
   32.2950   29.1010   35.5720 C   0  0  0  0  0  3  0  0  0  0  0  0
   32.8990   28.1870   35.5770 H   0  0  0  0  0  0  0  0  0  0  0  0
   31.5580   29.2370   34.4230 O   0  0  0  0  0  0  0  0  0  0  0  0
   31.1300   30.5390   34.3420 C   0  0  0  0  0  3  0  0  0  0  0  0
   30.0570   30.6130   34.6280 H   0  0  0  0  0  0  0  0  0  0  0  0
   32.5180   32.4920   34.5970 O   0  0  0  0  0  0  0  0  0  0  0  0
   33.0000   33.0180   35.2840 H   0  0  0  0  0  0  0  0  0  0  0  0
  1  6  2  0  0  0  0
  1  2  1  0  0  0  0
  2  3  2  0  0  0  0
  3  4  1  0  0  0  0
  3 10  1  0  0  0  0
  5 23  1  0  0  0  0
  5  4  2  0  0  0  0
  6  5  1  0  0  0  0
  7  1  1  0  0  0  0
  8  2  1  0  0  0  0
  9 10  2  0  0  0  0
  9 17  1  0  0  0  0
 10 11  1  0  0  0  0
 11 19  1  0  0  0  0
 11 12  2  0  0  0  0
 12 13  1  0  0  0  0
 13 14  1  0  0  0  0
 13 20  1  0  0  0  0
 14 21  1  0  0  0  0
 15 14  2  0  0  0  0
 16 12  1  0  0  0  0
 16 15  1  0  0  0  0
 17 16  2  0  0  0  0
 18  9  1  0  0  0  0
 22 17  1  0  0  0  0
 23 25  1  0  0  0  0
 24 23  2  0  0  0  0
 25 27  1  0  0  0  0
 25 26  1  0  0  0  0
 25 28  1  1  0  0  0
 26 30  1  0  0  0  0
 27 31  1  6  0  0  0
 27 26  1  0  0  0  0
 27 33  1  0  0  0  0
 29 26  1  0  0  0  0
 32 39  1  6  0  0  0
 32 33  1  0  0  0  0
 33 34  1  6  0  0  0
 34 35  1  0  0  0  0
 36 34  1  0  0  0  0
 37 36  1  0  0  0  0
 37 38  1  0  0  0  0
 37 32  1  0  0  0  0
 39 40  1  0  0  0  0
M  END
>  <minimizedAffinity>
-5.84296799

$$$$

 OpenBabel03262523343D

 40 44  0  0  1  0  0  0  0  0999 V2000
   35.5140   23.0400   31.2460 C   0  0  0  0  0  0  0  0  0  0  0  0
   35.4300   24.4230   31.1500 C   0  0  0  0  0  0  0  0  0  0  0  0
   36.3460   25.1880   31.8680 C   0  0  0  0  0  0  0  0  0  0  0  0
   37.2940   24.5550   32.6410 N   0  0  0  0  0  0  0  0  0  0  0  0
   37.3220   23.2090   32.6910 C   0  0  0  0  0  0  0  0  0  0  0  0
   36.4600   22.4560   32.0160 N   0  0  0  0  0  0  0  0  0  0  0  0
   34.8250   22.3920   30.7080 H   0  0  0  0  0  0  0  0  0  0  0  0
   34.6800   24.9030   30.5390 H   0  0  0  0  0  0  0  0  0  0  0  0
   36.4050   27.2840   33.0900 C   0  0  0  0  0  0  0  0  0  0  0  0
   36.3500   26.6400   31.8390 C   0  0  0  0  0  0  0  0  0  0  0  0
   36.3040   27.4020   30.7040 C   0  0  0  0  0  0  0  0  0  0  0  0
   36.3130   28.7680   30.7940 C   0  0  0  0  0  0  0  0  0  0  0  0
   36.2750   29.6910   29.8120 N   0  0  0  0  0  0  0  0  0  0  0  0
   36.3040   30.8970   30.4020 C   0  0  0  0  0  0  0  0  0  0  0  0
   36.3600   30.7690   31.7150 N   0  0  0  0  0  0  0  0  0  0  0  0
   36.3670   29.4470   31.9980 C   0  0  0  0  0  0  0  0  0  0  0  0
   36.4130   28.6790   33.1580 C   0  0  0  0  0  0  0  0  0  0  0  0
   36.4440   26.7930   34.0630 H   0  0  0  0  0  0  0  0  0  0  0  0
   36.2620   26.9080   29.7440 H   0  0  0  0  0  0  0  0  0  0  0  0
   36.2300   29.5540   28.7630 H   0  0  0  0  0  0  0  0  0  0  0  0
   36.2890   31.8710   29.9300 H   0  0  0  0  0  0  0  0  0  0  0  0
   36.4560   29.1960   34.1060 H   0  0  0  0  0  0  0  0  0  0  0  0
   38.3530   22.5820   33.5150 C   0  0  0  0  0  0  0  0  0  0  0  0
   38.6020   21.3500   33.4580 O   0  0  0  0  0  0  0  0  0  0  0  0
   39.1470   23.4550   34.4710 C   0  0  1  0  0  0  0  0  0  0  0  0
   38.4920   23.6470   35.8490 C   0  0  0  0  0  0  0  0  0  0  0  0
   39.7090   22.8340   35.6760 C   0  0  2  0  0  0  0  0  0  0  0  0
   39.4130   24.4380   34.0590 H   0  0  0  0  0  0  0  0  0  0  0  0
   37.4950   23.1570   35.9930 H   0  0  0  0  0  0  0  0  0  0  0  0
   38.5430   24.6180   36.3460 H   0  0  0  0  0  0  0  0  0  0  0  0
   39.5050   21.7230   35.7630 H   0  0  0  0  0  0  0  0  0  0  0  0
   41.4790   22.2140   37.2690 C   0  0  2  0  0  3  0  0  0  0  0  0
   41.0510   23.2270   36.2360 C   0  0  1  0  0  3  0  0  0  0  0  0
   42.1840   23.0770   35.2450 C   0  0  0  0  0  3  0  0  0  0  0  0
   42.0010   23.5360   34.2680 H   0  0  0  0  0  0  0  0  0  0  0  0
   42.3390   21.7160   35.1650 O   0  0  0  0  0  0  0  0  0  0  0  0
   42.2030   21.1950   36.4290 C   0  0  0  0  0  3  0  0  0  0  0  0
   43.1990   20.9370   36.8510 H   0  0  0  0  0  0  0  0  0  0  0  0
   40.4020   21.6720   37.9560 O   0  0  0  0  0  0  0  0  0  0  0  0
   40.0530   22.3860   38.5470 H   0  0  0  0  0  0  0  0  0  0  0  0
  1  6  1  0  0  0  0
  2  1  2  0  0  0  0
  2  3  1  0  0  0  0
  3  4  2  0  0  0  0
  4  5  1  0  0  0  0
  5 23  1  0  0  0  0
  6  5  2  0  0  0  0
  7  1  1  0  0  0  0
  8  2  1  0  0  0  0
  9 17  1  0  0  0  0
  9 18  1  0  0  0  0
 10  3  1  0  0  0  0
 10  9  2  0  0  0  0
 11 12  2  0  0  0  0
 11 10  1  0  0  0  0
 12 16  1  0  0  0  0
 13 14  1  0  0  0  0
 13 12  1  0  0  0  0
 14 15  2  0  0  0  0
 15 16  1  0  0  0  0
 16 17  2  0  0  0  0
 17 22  1  0  0  0  0
 19 11  1  0  0  0  0
 20 13  1  0  0  0  0
 21 14  1  0  0  0  0
 23 25  1  0  0  0  0
 24 23  2  0  0  0  0
 25 28  1  6  0  0  0
 25 27  1  0  0  0  0
 25 26  1  0  0  0  0
 26 29  1  0  0  0  0
 26 30  1  0  0  0  0
 27 31  1  1  0  0  0
 27 26  1  0  0  0  0
 27 33  1  0  0  0  0
 32 39  1  6  0  0  0
 33 34  1  6  0  0  0
 33 32  1  0  0  0  0
 35 34  1  0  0  0  0
 36 34  1  0  0  0  0
 36 37  1  0  0  0  0
 37 38  1  0  0  0  0
 37 32  1  0  0  0  0
 39 40  1  0  0  0  0
M  END
>  <minimizedAffinity>
-5.83056736

$$$$

 OpenBabel03262523343D

 40 44  0  0  1  0  0  0  0  0999 V2000
   36.7910   29.2620   30.5170 C   0  0  0  0  0  0  0  0  0  0  0  0
   36.2470   29.9770   31.5750 C   0  0  0  0  0  0  0  0  0  0  0  0
   35.6410   29.2640   32.6070 C   0  0  0  0  0  0  0  0  0  0  0  0
   35.6040   27.8890   32.5450 N   0  0  0  0  0  0  0  0  0  0  0  0
   36.1510   27.2540   31.4900 C   0  0  0  0  0  0  0  0  0  0  0  0
   36.7340   27.9100   30.4930 N   0  0  0  0  0  0  0  0  0  0  0  0
   37.2760   29.7640   29.6830 H   0  0  0  0  0  0  0  0  0  0  0  0
   36.2860   31.0560   31.6080 H   0  0  0  0  0  0  0  0  0  0  0  0
   33.6880   29.6090   34.0060 C   0  0  0  0  0  0  0  0  0  0  0  0
   35.0420   29.9100   33.7620 C   0  0  0  0  0  0  0  0  0  0  0  0
   35.6920   30.7690   34.6050 C   0  0  0  0  0  0  0  0  0  0  0  0
   35.0270   31.3220   35.6660 C   0  0  0  0  0  0  0  0  0  0  0  0
   35.4750   32.1800   36.6050 N   0  0  0  0  0  0  0  0  0  0  0  0
   34.4490   32.4320   37.4330 C   0  0  0  0  0  0  0  0  0  0  0  0
   33.3740   31.7660   37.0540 N   0  0  0  0  0  0  0  0  0  0  0  0
   33.6990   31.0590   35.9480 C   0  0  0  0  0  0  0  0  0  0  0  0
   33.0300   30.1860   35.0940 C   0  0  0  0  0  0  0  0  0  0  0  0
   33.0610   28.9440   33.4110 H   0  0  0  0  0  0  0  0  0  0  0  0
   36.7310   31.0000   34.4180 H   0  0  0  0  0  0  0  0  0  0  0  0
   36.4380   32.6080   36.7180 H   0  0  0  0  0  0  0  0  0  0  0  0
   34.4370   33.0750   38.3030 H   0  0  0  0  0  0  0  0  0  0  0  0
   31.9910   29.9710   35.3030 H   0  0  0  0  0  0  0  0  0  0  0  0
   36.0970   25.7940   31.4730 C   0  0  0  0  0  0  0  0  0  0  0  0
   35.3040   25.1590   30.7300 O   0  0  0  0  0  0  0  0  0  0  0  0
   37.0340   25.0230   32.3860 C   0  0  1  0  0  0  0  0  0  0  0  0
   38.4200   24.7410   31.7830 C   0  0  0  0  0  0  0  0  0  0  0  0
   38.2360   25.7040   32.8840 C   0  0  2  0  0  0  0  0  0  0  0  0
   36.6110   24.0850   32.7700 H   0  0  0  0  0  0  0  0  0  0  0  0
   38.5820   25.1000   30.7340 H   0  0  0  0  0  0  0  0  0  0  0  0
   38.9090   23.7820   31.9650 H   0  0  0  0  0  0  0  0  0  0  0  0
   38.3340   26.7800   32.5410 H   0  0  0  0  0  0  0  0  0  0  0  0
   39.5290   26.7090   34.7200 C   0  0  2  0  0  3  0  0  0  0  0  0
   38.7730   25.4820   34.2730 C   0  0  1  0  0  3  0  0  0  0  0  0
   37.6960   25.4450   35.3360 C   0  0  0  0  0  3  0  0  0  0  0  0
   36.8570   24.7780   35.1130 H   0  0  0  0  0  0  0  0  0  0  0  0
   37.3130   26.7590   35.4260 O   0  0  0  0  0  0  0  0  0  0  0  0
   38.4410   27.5400   35.3450 C   0  0  0  0  0  3  0  0  0  0  0  0
   38.7270   27.9130   36.3530 H   0  0  0  0  0  0  0  0  0  0  0  0
   40.1560   27.3570   33.6640 O   0  0  0  0  0  0  0  0  0  0  0  0
   40.9110   26.7800   33.3840 H   0  0  0  0  0  0  0  0  0  0  0  0
  1  2  1  0  0  0  0
  2  8  1  0  0  0  0
  2  3  2  0  0  0  0
  3 10  1  0  0  0  0
  4  3  1  0  0  0  0
  5  4  2  0  0  0  0
  6  1  2  0  0  0  0
  6  5  1  0  0  0  0
  7  1  1  0  0  0  0
  9 17  1  0  0  0  0
 10  9  2  0  0  0  0
 10 11  1  0  0  0  0
 11 12  2  0  0  0  0
 12 16  1  0  0  0  0
 12 13  1  0  0  0  0
 13 20  1  0  0  0  0
 13 14  1  0  0  0  0
 14 21  1  0  0  0  0
 15 14  2  0  0  0  0
 16 15  1  0  0  0  0
 17 22  1  0  0  0  0
 17 16  2  0  0  0  0
 18  9  1  0  0  0  0
 19 11  1  0  0  0  0
 23  5  1  0  0  0  0
 23 25  1  0  0  0  0
 24 23  2  0  0  0  0
 25 28  1  1  0  0  0
 25 27  1  0  0  0  0
 26 30  1  0  0  0  0
 26 25  1  0  0  0  0
 26 27  1  0  0  0  0
 27 31  1  6  0  0  0
 27 33  1  0  0  0  0
 29 26  1  0  0  0  0
 32 39  1  6  0  0  0
 32 37  1  0  0  0  0
 33 32  1  0  0  0  0
 33 34  1  1  0  0  0
 34 36  1  0  0  0  0
 35 34  1  0  0  0  0
 37 36  1  0  0  0  0
 37 38  1  0  0  0  0
 40 39  1  0  0  0  0
M  END
>  <minimizedAffinity>
-5.74995708

$$$$
