
 OpenBabel03272507413D

 41 44  0  0  1  0  0  0  0  0999 V2000
   36.7320   31.1910   50.1390 C   0  0  0  0  0  0  0  0  0  0  0  0
   35.6100   30.3890   49.9080 C   0  0  0  0  0  0  0  0  0  0  0  0
   35.4090   29.2330   50.6370 C   0  0  0  0  0  0  0  0  0  0  0  0
   36.3430   28.9190   51.5760 N   0  0  0  0  0  0  0  0  0  0  0  0
   37.4280   29.7080   51.7890 C   0  0  0  0  0  0  0  0  0  0  0  0
   37.6020   30.8180   51.0750 N   0  0  0  0  0  0  0  0  0  0  0  0
   34.5720   28.5710   50.5130 H   0  0  0  0  0  0  0  0  0  0  0  0
   38.1750   29.4680   52.5320 H   0  0  0  0  0  0  0  0  0  0  0  0
   34.1950   29.6020   48.0890 C   0  0  0  0  0  0  0  0  0  0  0  0
   34.6340   28.4120   47.8460 O   0  0  0  0  0  0  0  0  0  0  0  0
   34.6050   30.6420   48.9630 N   0  0  0  0  0  0  0  0  0  0  0  0
   34.1220   31.5340   48.8350 H   0  0  0  0  0  0  0  0  0  0  0  0
   32.7470   29.0310   44.9960 C   0  0  2  0  0  3  0  0  0  0  0  0
   33.3730   30.1600   45.7910 C   0  0  0  0  0  3  0  0  0  0  0  0
   32.9560   31.1340   45.4900 H   0  0  0  0  0  0  0  0  0  0  0  0
   33.0110   29.7700   47.1920 C   0  0  1  0  0  3  0  0  0  0  0  0
   32.2900   28.6000   47.1390 O   0  0  0  0  0  0  0  0  0  0  0  0
   31.5930   28.6730   45.9100 C   0  0  0  0  0  3  0  0  0  0  0  0
   31.0910   27.7400   45.6630 H   0  0  0  0  0  0  0  0  0  0  0  0
   33.6430   27.9730   44.9770 O   0  0  0  0  0  0  0  0  0  0  0  0
   33.4370   27.2870   45.6670 H   0  0  0  0  0  0  0  0  0  0  0  0
   36.7580   32.2780   49.3320 O   0  0  0  0  0  0  0  0  0  0  0  0
   38.2470   32.2640   47.3550 C   0  0  0  0  0  0  0  0  0  0  0  0
   37.8720   32.7040   48.6100 C   0  0  0  0  0  0  0  0  0  0  0  0
   38.6190   33.6560   49.2790 C   0  0  0  0  0  0  0  0  0  0  0  0
   39.7630   34.1730   48.6740 C   0  0  0  0  0  0  0  0  0  0  0  0
   40.1380   33.7340   47.4200 C   0  0  0  0  0  0  0  0  0  0  0  0
   39.3650   32.7850   46.7950 C   0  0  0  0  0  0  0  0  0  0  0  0
   38.3920   34.0400   50.2420 H   0  0  0  0  0  0  0  0  0  0  0  0
   40.3610   34.9220   49.1870 H   0  0  0  0  0  0  0  0  0  0  0  0
   41.0360   34.1610   46.9850 H   0  0  0  0  0  0  0  0  0  0  0  0
   39.7780   32.3220   45.4500 C   0  0  0  0  0  0  0  0  0  0  0  0
   40.6310   31.3160   45.0960 C   0  0  0  0  0  0  0  0  0  0  0  0
   40.6880   31.2760   43.7040 C   0  0  0  0  0  0  0  0  0  0  0  0
   39.8490   32.2840   43.2980 C   0  0  0  0  0  0  0  0  0  0  0  0
   39.3230   32.8840   44.3430 O   0  0  0  0  0  0  0  0  0  0  0  0
   41.1170   30.7210   45.8810 H   0  0  0  0  0  0  0  0  0  0  0  0
   41.3110   30.5470   43.2020 H   0  0  0  0  0  0  0  0  0  0  0  0
   39.6920   32.4910   42.2350 H   0  0  0  0  0  0  0  0  0  0  0  0
   36.7480   30.5030   46.2280 N   0  0  0  0  0  0  0  0  0  0  0  0
   37.4220   31.2780   46.7320 C   0  0  0  0  0  0  0  0  0  0  0  0
  1  6  1  0  0  0  0
  2  1  2  0  0  0  0
  2  3  1  0  0  0  0
  3  4  2  0  0  0  0
  4  5  1  0  0  0  0
  5  8  1  0  0  0  0
  6  5  2  0  0  0  0
  7  3  1  0  0  0  0
  9 11  1  0  0  0  0
 10  9  2  0  0  0  0
 11  2  1  0  0  0  0
 12 11  1  0  0  0  0
 13 20  1  1  0  0  0
 13 14  1  0  0  0  0
 13 18  1  0  0  0  0
 14 16  1  0  0  0  0
 15 14  1  0  0  0  0
 16  9  1  1  0  0  0
 17 16  1  0  0  0  0
 18 17  1  0  0  0  0
 19 18  1  0  0  0  0
 20 21  1  0  0  0  0
 22  1  1  0  0  0  0
 23 24  1  0  0  0  0
 24 25  2  0  0  0  0
 24 22  1  0  0  0  0
 25 29  1  0  0  0  0
 26 30  1  0  0  0  0
 26 25  1  0  0  0  0
 27 26  2  0  0  0  0
 28 23  2  0  0  0  0
 28 27  1  0  0  0  0
 31 27  1  0  0  0  0
 32 28  1  0  0  0  0
 33 32  2  0  0  0  0
 33 37  1  0  0  0  0
 34 33  1  0  0  0  0
 35 34  2  0  0  0  0
 35 36  1  0  0  0  0
 36 32  1  0  0  0  0
 38 34  1  0  0  0  0
 39 35  1  0  0  0  0
 40 41  3  0  0  0  0
 41 23  1  0  0  0  0
M  END
>  <minimizedAffinity>
-5.91669226

>  <minimizedRMSD>
1.03895152

$$$$
