
 OpenBabel03262523253D

 40 43  0  0  1  0  0  0  0  0999 V2000
   39.3970   32.9470   44.3370 C   0  0  0  0  0  0  0  0  0  0  0  0
   40.2810   31.9330   43.9600 C   0  0  0  0  0  0  0  0  0  0  0  0
   40.4020   30.8370   44.7900 C   0  0  0  0  0  0  0  0  0  0  0  0
   39.6500   30.8140   45.9250 N   0  0  0  0  0  0  0  0  0  0  0  0
   38.7990   31.8130   46.2660 C   0  0  0  0  0  0  0  0  0  0  0  0
   38.6750   32.8710   45.4760 N   0  0  0  0  0  0  0  0  0  0  0  0
   38.0450   31.6990   47.4950 N   0  0  0  0  0  0  0  0  0  0  0  0
   37.9380   32.8360   48.3710 C   0  0  0  0  0  0  0  0  0  0  0  0
   37.7900   32.4480   49.8230 C   0  0  0  0  0  0  0  0  0  0  0  0
   38.3260   31.0450   49.9920 C   0  0  0  0  0  0  0  0  0  0  0  0
   37.3580   30.1350   49.2750 C   0  0  0  0  0  0  0  0  0  0  0  0
   37.4100   30.4190   47.8180 C   0  0  1  0  0  0  0  0  0  0  0  0
   39.3290   33.7920   43.6580 H   0  0  0  0  0  0  0  0  0  0  0  0
   40.8750   31.9620   43.0540 H   0  0  0  0  0  0  0  0  0  0  0  0
   41.0620   30.0020   44.5810 H   0  0  0  0  0  0  0  0  0  0  0  0
   38.8570   33.4510   48.2500 H   0  0  0  0  0  0  0  0  0  0  0  0
   37.0680   33.4540   48.0480 H   0  0  0  0  0  0  0  0  0  0  0  0
   38.3280   33.1330   50.5070 H   0  0  0  0  0  0  0  0  0  0  0  0
   36.7140   32.4530   50.0750 H   0  0  0  0  0  0  0  0  0  0  0  0
   39.3410   30.9930   49.5480 H   0  0  0  0  0  0  0  0  0  0  0  0
   38.3900   30.7110   51.0320 H   0  0  0  0  0  0  0  0  0  0  0  0
   36.3850   30.2140   49.7500 H   0  0  0  0  0  0  0  0  0  0  0  0
   37.7210   29.0870   49.4900 H   0  0  0  0  0  0  0  0  0  0  0  0
   38.0840   29.6580   47.3240 H   0  0  0  0  0  0  0  0  0  0  0  0
   36.1110   30.2730   47.1470 C   0  0  0  0  0  0  0  0  0  0  0  0
   34.8470   30.2660   47.7360 C   0  0  0  0  0  0  0  0  0  0  0  0
   33.7370   30.1240   46.9520 C   0  0  0  0  0  0  0  0  0  0  0  0
   33.9740   29.9880   45.5190 C   0  0  0  0  0  0  0  0  0  0  0  0
   35.8580   30.0830   45.4510 S   0  0  0  0  0  0  0  0  0  0  0  0
   34.6110   30.3640   48.7880 H   0  0  0  0  0  0  0  0  0  0  0  0
   32.6970   30.0820   47.1060 H   0  0  0  0  0  0  0  0  0  0  0  0
   32.4420   31.0500   43.9160 C   0  0  1  0  0  0  0  0  0  0  0  0
   33.2520   29.8230   44.3020 C   0  0  2  0  0  0  0  0  0  0  0  0
   32.1760   28.7870   44.5040 C   0  0  0  0  0  0  0  0  0  0  0  0
   32.4670   27.8430   43.9840 H   0  0  0  0  0  0  0  0  0  0  0  0
   31.0000   29.3070   44.0090 O   0  0  0  0  0  0  0  0  0  0  0  0
   31.0670   30.6420   44.3870 C   0  0  0  0  0  0  0  0  0  0  0  0
   31.0410   30.7520   45.4860 H   0  0  0  0  0  0  0  0  0  0  0  0
   32.8990   32.1880   44.5600 O   0  0  0  0  0  0  0  0  0  0  0  0
   33.7180   31.9540   45.0590 H   0  0  0  0  0  0  0  0  0  0  0  0
  1  6  1  0  0  0  0
  2  1  2  0  0  0  0
  2  3  1  0  0  0  0
  3  4  2  0  0  0  0
  4  5  1  0  0  0  0
  5  7  1  0  0  0  0
  6  5  2  0  0  0  0
  7 12  1  0  0  0  0
  7  8  1  0  0  0  0
  8  9  1  0  0  0  0
  9 10  1  0  0  0  0
  9 19  1  0  0  0  0
  9 18  1  0  0  0  0
 10 21  1  0  0  0  0
 11 23  1  0  0  0  0
 11 22  1  0  0  0  0
 11 10  1  0  0  0  0
 12 24  1  6  0  0  0
 12 11  1  0  0  0  0
 13  1  1  0  0  0  0
 14  2  1  0  0  0  0
 15  3  1  0  0  0  0
 16  8  1  0  0  0  0
 17  8  1  0  0  0  0
 20 10  1  0  0  0  0
 25 26  2  0  0  0  0
 25 12  1  0  0  0  0
 26 30  1  0  0  0  0
 27 31  1  0  0  0  0
 27 26  1  0  0  0  0
 28 27  2  0  0  0  0
 29 28  1  0  0  0  0
 29 25  1  0  0  0  0
 32 33  1  0  0  0  0
 32 37  1  0  0  0  0
 32 39  1  1  0  0  0
 33 34  1  0  0  0  0
 33 28  1  1  0  0  0
 35 34  1  0  0  0  0
 36 37  1  0  0  0  0
 36 34  1  0  0  0  0
 37 38  1  0  0  0  0
 39 40  1  0  0  0  0
M  END
>  <minimizedAffinity>
-5.78586769

>  <minimizedRMSD>
0.445028573

$$$$
