
 OpenBabel03272504533D

 25 27  0  0  1  0  0  0  0  0999 V2000
   36.7750   31.2520   49.0380 C   0  0  0  0  0  0  0  0  0  0  0  0
   37.1630   32.2620   49.9360 C   0  0  0  0  0  0  0  0  0  0  0  0
   38.1830   33.0930   49.5050 C   0  0  0  0  0  0  0  0  0  0  0  0
   38.7540   32.9110   48.2740 N   0  0  0  0  0  0  0  0  0  0  0  0
   38.3460   31.9200   47.4350 C   0  0  0  0  0  0  0  0  0  0  0  0
   37.3490   31.0890   47.8280 N   0  0  0  0  0  0  0  0  0  0  0  0
   36.7050   32.3830   50.8860 H   0  0  0  0  0  0  0  0  0  0  0  0
   38.5110   33.8810   50.1700 H   0  0  0  0  0  0  0  0  0  0  0  0
   35.6480   30.3470   49.4680 C   0  0  0  0  0  0  0  0  0  0  0  0
   35.5190   29.0000   48.9250 C   0  0  0  0  0  0  0  0  0  0  0  0
   36.1310   29.1620   50.2900 C   0  0  0  0  0  0  0  0  0  0  0  0
   34.7860   30.9190   49.8960 H   0  0  0  0  0  0  0  0  0  0  0  0
   36.2370   28.7310   48.0950 H   0  0  0  0  0  0  0  0  0  0  0  0
   34.5330   28.5350   48.7870 H   0  0  0  0  0  0  0  0  0  0  0  0
   37.2010   29.0080   50.4630 H   0  0  0  0  0  0  0  0  0  0  0  0
   35.4410   28.8880   51.1120 H   0  0  0  0  0  0  0  0  0  0  0  0
   38.2570   32.4950   45.0140 C   0  0  2  0  0  3  0  0  0  0  0  0
   39.0080   31.7770   46.1110 C   0  0  2  0  0  3  0  0  0  0  0  0
   39.0580   30.3520   45.6310 C   0  0  0  0  0  3  0  0  0  0  0  0
   40.0260   29.9080   45.9180 H   0  0  0  0  0  0  0  0  0  0  0  0
   38.8690   30.3700   44.2670 O   0  0  0  0  0  0  0  0  0  0  0  0
   37.9910   31.4280   43.9990 C   0  0  0  0  0  3  0  0  0  0  0  0
   36.9330   31.1090   44.0520 H   0  0  0  0  0  0  0  0  0  0  0  0
   39.0150   33.4930   44.4000 O   0  0  0  0  0  0  0  0  0  0  0  0
   39.9780   33.2730   44.5870 H   0  0  0  0  0  0  0  0  0  0  0  0
  1  9  1  0  0  0  0
  1  2  1  0  0  0  0
  2  7  1  0  0  0  0
  3  2  2  0  0  0  0
  3  8  1  0  0  0  0
  4  3  1  0  0  0  0
  5  6  1  0  0  0  0
  5  4  2  0  0  0  0
  6  1  2  0  0  0  0
  9 12  1  0  0  0  0
  9 11  1  0  0  0  0
 10  9  1  0  0  0  0
 10 11  1  0  0  0  0
 11 15  1  0  0  0  0
 11 16  1  0  0  0  0
 13 10  1  0  0  0  0
 14 10  1  0  0  0  0
 17 24  1  6  0  0  0
 17 18  1  0  0  0  0
 18  5  1  1  0  0  0
 19 20  1  0  0  0  0
 19 18  1  0  0  0  0
 21 19  1  0  0  0  0
 22 23  1  0  0  0  0
 22 21  1  0  0  0  0
 22 17  1  0  0  0  0
 24 25  1  0  0  0  0
M  END
>  <minimizedAffinity>
-5.19209766

>  <minimizedRMSD>
1.10279918

$$$$
