
 OpenBabel03272507363D

 19 20  0  0  1  0  0  0  0  0999 V2000
   37.2270   31.0170   46.7330 C   0  0  0  0  0  0  0  0  0  0  0  0
   37.5520   31.0000   48.0930 C   0  0  0  0  0  0  0  0  0  0  0  0
   38.5590   31.8560   48.5210 C   0  0  0  0  0  0  0  0  0  0  0  0
   39.1740   32.6580   47.6150 N   0  0  0  0  0  0  0  0  0  0  0  0
   38.8470   32.6620   46.3030 C   0  0  0  0  0  0  0  0  0  0  0  0
   37.8720   31.8390   45.8640 N   0  0  0  0  0  0  0  0  0  0  0  0
   38.8760   31.9120   49.5440 H   0  0  0  0  0  0  0  0  0  0  0  0
   39.3770   33.3280   45.6320 H   0  0  0  0  0  0  0  0  0  0  0  0
   37.5700   29.9790   50.3860 C   0  0  1  0  0  3  0  0  0  0  0  0
   36.8770   30.1240   49.0640 C   0  0  1  0  0  3  0  0  0  0  0  0
   35.5130   30.5670   49.4530 C   0  0  0  0  0  3  0  0  0  0  0  0
   35.4630   31.5570   49.9440 H   0  0  0  0  0  0  0  0  0  0  0  0
   35.2520   29.6540   50.5020 O   0  0  0  0  0  0  0  0  0  0  0  0
   36.3880   29.8340   51.3160 C   0  0  0  0  0  3  0  0  0  0  0  0
   36.5380   29.0270   52.0380 H   0  0  0  0  0  0  0  0  0  0  0  0
   38.4180   28.8890   50.3650 O   0  0  0  0  0  0  0  0  0  0  0  0
   38.8740   28.7160   51.2030 H   0  0  0  0  0  0  0  0  0  0  0  0
   36.2190   30.1410   46.3880 O   0  0  0  0  0  0  0  0  0  0  0  0
   35.2430   30.3550   46.4620 H   0  0  0  0  0  0  0  0  0  0  0  0
  1  2  1  0  0  0  0
  2  3  2  0  0  0  0
  3  7  1  0  0  0  0
  4  3  1  0  0  0  0
  5  4  2  0  0  0  0
  6  5  1  0  0  0  0
  6  1  2  0  0  0  0
  8  5  1  0  0  0  0
  9 16  1  6  0  0  0
  9 14  1  0  0  0  0
 10  2  1  6  0  0  0
 10 11  1  0  0  0  0
 10  9  1  0  0  0  0
 11 12  1  0  0  0  0
 11 13  1  0  0  0  0
 13 14  1  0  0  0  0
 14 15  1  0  0  0  0
 16 17  1  0  0  0  0
 18 19  1  0  0  0  0
 18  1  1  0  0  0  0
M  END
>  <minimizedAffinity>
-4.29398489

>  <minimizedRMSD>
4.68407631

$$$$
