
 OpenBabel03272504333D

 40 43  0  0  1  0  0  0  0  0999 V2000
   35.0070   29.5890   47.5460 C   0  0  0  0  0  0  0  0  0  0  0  0
   35.1770   29.9910   46.2210 C   0  0  0  0  0  0  0  0  0  0  0  0
   34.1390   29.8300   45.3210 C   0  0  0  0  0  0  0  0  0  0  0  0
   32.9730   29.2740   45.7800 N   0  0  0  0  0  0  0  0  0  0  0  0
   32.8430   28.8960   47.0710 C   0  0  0  0  0  0  0  0  0  0  0  0
   33.8560   29.0530   47.9510 N   0  0  0  0  0  0  0  0  0  0  0  0
   36.1180   30.4200   45.9250 H   0  0  0  0  0  0  0  0  0  0  0  0
   34.2510   30.1310   44.3040 H   0  0  0  0  0  0  0  0  0  0  0  0
   36.0480   29.7320   48.5200 N   0  0  0  0  0  0  0  0  0  0  0  0
   36.1210   28.8730   49.6910 C   0  0  0  0  0  0  0  0  0  0  0  0
   36.4330   29.5840   50.9660 C   0  0  0  0  0  0  0  0  0  0  0  0
   37.1700   30.7850   50.9010 N   0  0  0  0  0  0  0  0  0  0  0  0
   36.8880   31.5780   49.7140 C   0  0  0  0  0  0  0  0  0  0  0  0
   37.1090   30.6620   48.5250 C   0  0  0  0  0  0  0  0  0  0  0  0
   35.1440   28.3330   49.7910 H   0  0  0  0  0  0  0  0  0  0  0  0
   36.8550   28.0730   49.4700 H   0  0  0  0  0  0  0  0  0  0  0  0
   35.4660   29.7430   51.5200 H   0  0  0  0  0  0  0  0  0  0  0  0
   37.0030   28.8520   51.6130 H   0  0  0  0  0  0  0  0  0  0  0  0
   36.8810   31.3920   51.7270 H   0  0  0  0  0  0  0  0  0  0  0  0
   37.7040   32.3480   49.6490 H   0  0  0  0  0  0  0  0  0  0  0  0
   35.9150   32.0670   49.7140 H   0  0  0  0  0  0  0  0  0  0  0  0
   37.1660   31.2450   47.5700 H   0  0  0  0  0  0  0  0  0  0  0  0
   38.0780   30.1650   48.6710 H   0  0  0  0  0  0  0  0  0  0  0  0
   31.5880   28.3100   47.5190 C   0  0  0  0  0  0  0  0  0  0  0  0
   31.5770   27.3150   48.4740 C   0  0  0  0  0  0  0  0  0  0  0  0
   30.4140   26.7190   48.9400 C   0  0  0  0  0  0  0  0  0  0  0  0
   29.2610   27.1860   48.3870 N   0  0  0  0  0  0  0  0  0  0  0  0
   29.2840   28.1480   47.4630 C   0  0  0  0  0  0  0  0  0  0  0  0
   30.4250   28.7350   47.0040 N   0  0  0  0  0  0  0  0  0  0  0  0
   32.5360   27.0130   48.8530 H   0  0  0  0  0  0  0  0  0  0  0  0
   30.5250   25.9490   49.6910 H   0  0  0  0  0  0  0  0  0  0  0  0
   27.6110   27.6470   45.7600 C   0  0  1  0  0  3  0  0  0  0  0  0
   27.9350   28.5320   46.9700 C   0  0  2  0  0  3  0  0  0  0  0  0
   27.9460   29.8840   46.3020 C   0  0  0  0  0  3  0  0  0  0  0  0
   28.5670   30.5770   46.9090 H   0  0  0  0  0  0  0  0  0  0  0  0
   28.4670   29.6890   45.0350 O   0  0  0  0  0  0  0  0  0  0  0  0
   28.2830   28.3840   44.6550 C   0  0  0  0  0  3  0  0  0  0  0  0
   29.2680   27.9160   44.4030 H   0  0  0  0  0  0  0  0  0  0  0  0
   28.0940   26.3620   45.9530 O   0  0  0  0  0  0  0  0  0  0  0  0
   27.5090   25.9060   46.6040 H   0  0  0  0  0  0  0  0  0  0  0  0
  1  6  1  0  0  0  0
  1  9  1  0  0  0  0
  2  1  2  0  0  0  0
  3  4  2  0  0  0  0
  3  2  1  0  0  0  0
  4  5  1  0  0  0  0
  5 24  1  0  0  0  0
  5  6  2  0  0  0  0
  7  2  1  0  0  0  0
  8  3  1  0  0  0  0
  9 14  1  0  0  0  0
  9 10  1  0  0  0  0
 10 15  1  0  0  0  0
 10 11  1  0  0  0  0
 11 17  1  0  0  0  0
 11 18  1  0  0  0  0
 12 11  1  0  0  0  0
 12 19  1  0  0  0  0
 13 12  1  0  0  0  0
 14 23  1  0  0  0  0
 14 13  1  0  0  0  0
 16 10  1  0  0  0  0
 20 13  1  0  0  0  0
 21 13  1  0  0  0  0
 22 14  1  0  0  0  0
 24 25  1  0  0  0  0
 25 30  1  0  0  0  0
 25 26  2  0  0  0  0
 26 31  1  0  0  0  0
 27 26  1  0  0  0  0
 28 27  2  0  0  0  0
 29 28  1  0  0  0  0
 29 24  2  0  0  0  0
 32 39  1  1  0  0  0
 32 33  1  0  0  0  0
 33 28  1  6  0  0  0
 34 35  1  0  0  0  0
 34 33  1  0  0  0  0
 36 34  1  0  0  0  0
 37 36  1  0  0  0  0
 37 32  1  0  0  0  0
 38 37  1  0  0  0  0
 39 40  1  0  0  0  0
M  END
>  <minimizedAffinity>
-5.08624697

>  <minimizedRMSD>
1.12278545

$$$$
