
 OpenBabel03272502323D

 27 28  0  0  1  0  0  0  0  0999 V2000
   37.8250   30.1810   46.9390 C   0  0  2  0  0  0  0  0  0  0  0  0
   37.9940   29.1110   47.2020 H   0  0  0  0  0  0  0  0  0  0  0  0
   38.1750   32.9420   49.4520 C   0  0  2  0  0  3  0  0  0  0  0  0
   37.7270   32.4670   48.0520 C   0  0  0  0  0  3  0  0  0  0  0  0
   36.6360   32.4120   47.9930 H   0  0  0  0  0  0  0  0  0  0  0  0
   38.3280   31.1120   47.9960 C   0  0  1  0  0  3  0  0  0  0  0  0
   38.0690   30.6290   49.3030 O   0  0  0  0  0  0  0  0  0  0  0  0
   38.6540   31.6370   50.0870 C   0  0  0  0  0  3  0  0  0  0  0  0
   39.7710   31.5090   49.9900 H   0  0  0  0  0  0  0  0  0  0  0  0
   37.0560   33.4200   50.1520 O   0  0  0  0  0  0  0  0  0  0  0  0
   36.9680   32.8980   51.0220 H   0  0  0  0  0  0  0  0  0  0  0  0
   37.8010   31.0630   44.7190 C   0  0  0  0  0  3  0  0  0  0  0  0
   38.5140   30.5400   45.6670 C   0  0  0  0  0  3  0  0  0  0  0  0
   40.0560   31.1100   41.7440 C   0  0  0  0  0  0  0  0  0  0  0  0
   39.4570   30.7850   42.9570 C   0  0  0  0  0  0  0  0  0  0  0  0
   38.3550   31.4510   43.4440 C   0  0  0  0  0  0  0  0  0  0  0  0
   37.8630   32.4470   42.6920 N   0  0  0  0  0  0  0  0  0  0  0  0
   38.4530   32.7530   41.5160 C   0  0  0  0  0  0  0  0  0  0  0  0
   39.5180   32.1180   41.0400 N   0  0  0  0  0  0  0  0  0  0  0  0
   40.9300   30.5910   41.3490 H   0  0  0  0  0  0  0  0  0  0  0  0
   39.9790   29.9470   43.4510 H   0  0  0  0  0  0  0  0  0  0  0  0
   38.0780   33.5520   40.8870 H   0  0  0  0  0  0  0  0  0  0  0  0
   36.0440   30.5100   46.7240 S   0  0  0  0  0  0  0  0  0  0  0  0
   35.1090   29.8820   48.1270 C   0  0  0  0  0  0  0  0  0  0  0  0
   35.0160   30.8040   49.1630 F   0  0  0  0  0  0  0  0  0  0  0  0
   33.8700   29.4090   47.7460 F   0  0  0  0  0  0  0  0  0  0  0  0
   35.8110   28.7570   48.6180 F   0  0  0  0  0  0  0  0  0  0  0  0
  1  2  1  1  0  0  0
  3  8  1  0  0  0  0
  3 10  1  1  0  0  0
  4  3  1  0  0  0  0
  5  4  1  0  0  0  0
  6  1  1  6  0  0  0
  6  4  1  0  0  0  0
  6  7  1  0  0  0  0
  7  8  1  0  0  0  0
  9  8  1  0  0  0  0
 10 11  1  0  0  0  0
 12 13  2  0  0  0  0
 13  1  1  0  0  0  0
 14 15  1  0  0  0  0
 15 16  2  0  0  0  0
 15 21  1  0  0  0  0
 16 12  1  0  0  0  0
 17 16  1  0  0  0  0
 18 17  2  0  0  0  0
 19 18  1  0  0  0  0
 19 14  2  0  0  0  0
 20 14  1  0  0  0  0
 22 18  1  0  0  0  0
 23  1  1  0  0  0  0
 23 24  1  0  0  0  0
 24 27  1  0  0  0  0
 24 25  1  0  0  0  0
 26 24  1  0  0  0  0
M  END
>  <minimizedAffinity>
-3.91363716

>  <minimizedRMSD>
3.73410487

$$$$
