
 OpenBabel03272500093D

 39 42  0  0  1  0  0  0  0  0999 V2000
   38.0100   23.3240   32.3670 O   0  0  0  0  0  0  0  0  0  0  0  0
   37.2330   22.3710   33.0510 C   0  0  0  0  0  0  0  0  0  0  0  0
   36.3600   21.6910   32.1970 C   0  0  0  0  0  0  0  0  0  0  0  0
   35.5180   20.7190   32.6810 C   0  0  0  0  0  0  0  0  0  0  0  0
   35.5520   20.4260   34.0370 C   0  0  0  0  0  0  0  0  0  0  0  0
   36.4200   21.1100   34.8490 C   0  0  0  0  0  0  0  0  0  0  0  0
   37.2790   22.0920   34.3990 C   0  0  0  0  0  0  0  0  0  0  0  0
   36.2830   21.8730   31.1290 H   0  0  0  0  0  0  0  0  0  0  0  0
   34.8370   20.1840   32.0360 H   0  0  0  0  0  0  0  0  0  0  0  0
   34.8910   19.6580   34.4260 H   0  0  0  0  0  0  0  0  0  0  0  0
   36.4030   20.8390   35.8930 H   0  0  0  0  0  0  0  0  0  0  0  0
   37.6020   23.3310   36.5400 C   0  0  2  0  0  3  0  0  0  0  0  0
   38.1980   22.8480   35.2310 C   0  0  1  0  0  3  0  0  0  0  0  0
   39.3150   21.9860   35.8480 C   0  0  0  0  0  3  0  0  0  0  0  0
   38.8700   21.1310   36.4060 H   0  0  0  0  0  0  0  0  0  0  0  0
   39.8740   22.8020   36.8310 O   0  0  0  0  0  0  0  0  0  0  0  0
   38.9210   23.7300   37.2180 C   0  0  0  0  0  3  0  0  0  0  0  0
   38.7980   23.7940   38.3110 H   0  0  0  0  0  0  0  0  0  0  0  0
   37.0650   22.2930   37.2530 O   0  0  0  0  0  0  0  0  0  0  0  0
   36.0720   22.2750   37.2160 H   0  0  0  0  0  0  0  0  0  0  0  0
   37.3120   26.8270   32.7020 C   0  0  0  0  0  0  0  0  0  0  0  0
   36.2380   27.0360   31.8260 C   0  0  0  0  0  0  0  0  0  0  0  0
   35.7640   25.9310   31.1180 C   0  0  0  0  0  0  0  0  0  0  0  0
   36.3670   24.7280   31.3180 N   0  0  0  0  0  0  0  0  0  0  0  0
   37.3870   24.5590   32.1600 C   0  0  0  0  0  0  0  0  0  0  0  0
   37.8740   25.6160   32.8660 N   0  0  0  0  0  0  0  0  0  0  0  0
   37.6800   27.6990   33.2560 H   0  0  0  0  0  0  0  0  0  0  0  0
   34.9440   26.0730   30.4430 H   0  0  0  0  0  0  0  0  0  0  0  0
   35.7030   28.3420   31.7070 N   0  0  0  0  0  0  0  0  0  0  0  0
   34.7830   28.8140   32.5400 C   0  0  0  0  0  0  0  0  0  0  0  0
   34.3050   30.1120   32.3580 C   0  0  0  0  0  0  0  0  0  0  0  0
   34.8360   30.8000   31.3120 C   0  0  0  0  0  0  0  0  0  0  0  0
   34.4130   31.9740   31.1350 O   0  0  0  0  0  0  0  0  0  0  0  0
   35.7520   30.3640   30.4630 N   0  0  0  0  0  0  0  0  0  0  0  0
   36.2030   29.0910   30.6650 C   0  0  0  0  0  0  0  0  0  0  0  0
   37.0810   28.6580   29.8590 O   0  0  0  0  0  0  0  0  0  0  0  0
   34.3960   28.2250   33.3540 H   0  0  0  0  0  0  0  0  0  0  0  0
   33.5570   30.4940   33.0360 H   0  0  0  0  0  0  0  0  0  0  0  0
   36.1120   30.9560   29.6810 H   0  0  0  0  0  0  0  0  0  0  0  0
  1  2  1  0  0  0  0
  2  7  1  0  0  0  0
  3  4  1  0  0  0  0
  3  2  2  0  0  0  0
  4  5  2  0  0  0  0
  5 10  1  0  0  0  0
  5  6  1  0  0  0  0
  6 11  1  0  0  0  0
  7  6  2  0  0  0  0
  8  3  1  0  0  0  0
  9  4  1  0  0  0  0
 12 17  1  0  0  0  0
 12 19  1  1  0  0  0
 13  7  1  1  0  0  0
 13 14  1  0  0  0  0
 13 12  1  0  0  0  0
 14 15  1  0  0  0  0
 14 16  1  0  0  0  0
 16 17  1  0  0  0  0
 17 18  1  0  0  0  0
 20 19  1  0  0  0  0
 21 26  1  0  0  0  0
 21 27  1  0  0  0  0
 22 21  2  0  0  0  0
 23 24  2  0  0  0  0
 23 22  1  0  0  0  0
 24 25  1  0  0  0  0
 25  1  1  0  0  0  0
 25 26  2  0  0  0  0
 28 23  1  0  0  0  0
 29 22  1  0  0  0  0
 29 30  1  0  0  0  0
 30 37  1  0  0  0  0
 31 30  2  0  0  0  0
 31 38  1  0  0  0  0
 32 31  1  0  0  0  0
 33 32  2  0  0  0  0
 34 35  1  0  0  0  0
 34 32  1  0  0  0  0
 35 29  1  0  0  0  0
 36 35  2  0  0  0  0
 39 34  1  0  0  0  0
M  END
>  <minimizedAffinity>
-6.03680086

$$$$

 OpenBabel03272500093D

 39 42  0  0  1  0  0  0  0  0999 V2000
   35.8860   26.5200   31.8400 O   0  0  0  0  0  0  0  0  0  0  0  0
   36.3600   27.7510   31.3510 C   0  0  0  0  0  0  0  0  0  0  0  0
   37.4920   27.5980   30.5460 C   0  0  0  0  0  0  0  0  0  0  0  0
   38.1000   28.6900   29.9740 C   0  0  0  0  0  0  0  0  0  0  0  0
   37.5670   29.9480   30.2120 C   0  0  0  0  0  0  0  0  0  0  0  0
   36.4550   30.0650   31.0060 C   0  0  0  0  0  0  0  0  0  0  0  0
   35.8180   28.9930   31.5980 C   0  0  0  0  0  0  0  0  0  0  0  0
   37.9580   26.6430   30.3210 H   0  0  0  0  0  0  0  0  0  0  0  0
   38.9750   28.5900   29.3490 H   0  0  0  0  0  0  0  0  0  0  0  0
   38.0410   30.8140   29.7620 H   0  0  0  0  0  0  0  0  0  0  0  0
   36.0850   31.0670   31.1560 H   0  0  0  0  0  0  0  0  0  0  0  0
   34.9720   29.2220   33.9340 C   0  0  2  0  0  3  0  0  0  0  0  0
   34.6510   29.0800   32.4570 C   0  0  1  0  0  3  0  0  0  0  0  0
   33.8820   30.4060   32.3120 C   0  0  0  0  0  3  0  0  0  0  0  0
   34.5730   31.2660   32.4740 H   0  0  0  0  0  0  0  0  0  0  0  0
   33.0230   30.4260   33.4100 O   0  0  0  0  0  0  0  0  0  0  0  0
   33.5650   29.6240   34.4000 C   0  0  0  0  0  3  0  0  0  0  0  0
   33.6040   30.1180   35.3850 H   0  0  0  0  0  0  0  0  0  0  0  0
   35.8050   30.2850   34.1600 O   0  0  0  0  0  0  0  0  0  0  0  0
   36.7420   30.0050   34.3450 H   0  0  0  0  0  0  0  0  0  0  0  0
   37.9290   23.9460   33.2790 C   0  0  0  0  0  0  0  0  0  0  0  0
   38.4000   24.5220   34.4670 C   0  0  0  0  0  0  0  0  0  0  0  0
   37.9900   25.8240   34.7540 C   0  0  0  0  0  0  0  0  0  0  0  0
   37.1660   26.4510   33.8730 N   0  0  0  0  0  0  0  0  0  0  0  0
   36.7330   25.8770   32.7500 C   0  0  0  0  0  0  0  0  0  0  0  0
   37.1130   24.6080   32.4390 N   0  0  0  0  0  0  0  0  0  0  0  0
   38.2540   22.9220   33.0590 H   0  0  0  0  0  0  0  0  0  0  0  0
   38.3420   26.2800   35.6580 H   0  0  0  0  0  0  0  0  0  0  0  0
   39.2590   23.7600   35.2980 N   0  0  0  0  0  0  0  0  0  0  0  0
   40.5800   23.7840   35.1710 C   0  0  0  0  0  0  0  0  0  0  0  0
   41.3580   23.0060   36.0280 C   0  0  0  0  0  0  0  0  0  0  0  0
   40.6760   22.2690   36.9450 C   0  0  0  0  0  0  0  0  0  0  0  0
   41.3670   21.5600   37.7260 O   0  0  0  0  0  0  0  0  0  0  0  0
   39.3640   22.2190   37.1010 N   0  0  0  0  0  0  0  0  0  0  0  0
   38.6260   22.9910   36.2500 C   0  0  0  0  0  0  0  0  0  0  0  0
   37.3660   22.9540   36.3860 O   0  0  0  0  0  0  0  0  0  0  0  0
   41.0700   24.3880   34.4250 H   0  0  0  0  0  0  0  0  0  0  0  0
   42.4330   23.0270   35.9230 H   0  0  0  0  0  0  0  0  0  0  0  0
   38.9140   21.6250   37.8330 H   0  0  0  0  0  0  0  0  0  0  0  0
  1 25  1  0  0  0  0
  2  7  1  0  0  0  0
  2  1  1  0  0  0  0
  3  2  2  0  0  0  0
  4  5  2  0  0  0  0
  4  3  1  0  0  0  0
  5  6  1  0  0  0  0
  6 11  1  0  0  0  0
  6  7  2  0  0  0  0
  8  3  1  0  0  0  0
  9  4  1  0  0  0  0
 10  5  1  0  0  0  0
 12 19  1  6  0  0  0
 12 17  1  0  0  0  0
 13  7  1  6  0  0  0
 13 12  1  0  0  0  0
 14 13  1  0  0  0  0
 14 15  1  0  0  0  0
 14 16  1  0  0  0  0
 16 17  1  0  0  0  0
 17 18  1  0  0  0  0
 19 20  1  0  0  0  0
 21 22  1  0  0  0  0
 22 23  2  0  0  0  0
 22 29  1  0  0  0  0
 23 28  1  0  0  0  0
 24 23  1  0  0  0  0
 25 24  2  0  0  0  0
 26 25  1  0  0  0  0
 26 21  2  0  0  0  0
 27 21  1  0  0  0  0
 29 35  1  0  0  0  0
 30 29  1  0  0  0  0
 30 31  2  0  0  0  0
 31 32  1  0  0  0  0
 32 34  1  0  0  0  0
 32 33  2  0  0  0  0
 34 39  1  0  0  0  0
 35 36  2  0  0  0  0
 35 34  1  0  0  0  0
 37 30  1  0  0  0  0
 38 31  1  0  0  0  0
M  END
>  <minimizedAffinity>
-5.83228207

$$$$

 OpenBabel03272500093D

 39 42  0  0  1  0  0  0  0  0999 V2000
   37.4020   27.2240   31.0370 O   0  0  0  0  0  0  0  0  0  0  0  0
   37.0260   25.8680   31.0340 C   0  0  0  0  0  0  0  0  0  0  0  0
   35.6480   25.7020   31.1990 C   0  0  0  0  0  0  0  0  0  0  0  0
   35.0900   24.4460   31.2210 C   0  0  0  0  0  0  0  0  0  0  0  0
   35.9220   23.3460   31.0770 C   0  0  0  0  0  0  0  0  0  0  0  0
   37.2700   23.5420   30.9170 C   0  0  0  0  0  0  0  0  0  0  0  0
   37.8670   24.7860   30.8900 C   0  0  0  0  0  0  0  0  0  0  0  0
   34.9430   26.5190   31.3170 H   0  0  0  0  0  0  0  0  0  0  0  0
   34.0270   24.2990   31.3470 H   0  0  0  0  0  0  0  0  0  0  0  0
   35.4870   22.3520   31.0920 H   0  0  0  0  0  0  0  0  0  0  0  0
   37.8680   22.6500   30.8090 H   0  0  0  0  0  0  0  0  0  0  0  0
   39.7150   25.3980   29.3300 C   0  0  2  0  0  3  0  0  0  0  0  0
   39.2900   25.0310   30.7400 C   0  0  1  0  0  3  0  0  0  0  0  0
   39.7620   26.3330   31.4150 C   0  0  0  0  0  3  0  0  0  0  0  0
   39.1580   27.1930   31.0430 H   0  0  0  0  0  0  0  0  0  0  0  0
   41.0390   26.5430   30.8980 O   0  0  0  0  0  0  0  0  0  0  0  0
   41.1250   25.8970   29.6760 C   0  0  0  0  0  3  0  0  0  0  0  0
   41.5230   26.5390   28.8740 H   0  0  0  0  0  0  0  0  0  0  0  0
   38.9990   26.4660   28.8590 O   0  0  0  0  0  0  0  0  0  0  0  0
   38.3030   26.2000   28.2010 H   0  0  0  0  0  0  0  0  0  0  0  0
   35.7380   29.9390   32.6880 C   0  0  0  0  0  0  0  0  0  0  0  0
   35.7570   29.5670   34.0400 C   0  0  0  0  0  0  0  0  0  0  0  0
   36.3620   28.3520   34.3610 C   0  0  0  0  0  0  0  0  0  0  0  0
   36.8920   27.6070   33.3540 N   0  0  0  0  0  0  0  0  0  0  0  0
   36.8600   27.9880   32.0760 C   0  0  0  0  0  0  0  0  0  0  0  0
   36.2770   29.1670   31.7280 N   0  0  0  0  0  0  0  0  0  0  0  0
   35.2620   30.8960   32.4420 H   0  0  0  0  0  0  0  0  0  0  0  0
   36.3850   28.0510   35.3900 H   0  0  0  0  0  0  0  0  0  0  0  0
   35.1660   30.4340   34.9920 N   0  0  0  0  0  0  0  0  0  0  0  0
   35.8700   31.3230   35.6810 C   0  0  0  0  0  0  0  0  0  0  0  0
   35.2150   32.1420   36.6010 C   0  0  0  0  0  0  0  0  0  0  0  0
   33.8740   31.9520   36.7160 C   0  0  0  0  0  0  0  0  0  0  0  0
   33.2680   32.6840   37.5440 O   0  0  0  0  0  0  0  0  0  0  0  0
   33.1390   31.0780   36.0480 N   0  0  0  0  0  0  0  0  0  0  0  0
   33.8060   30.2900   35.1530 C   0  0  0  0  0  0  0  0  0  0  0  0
   33.1150   29.4460   34.5050 O   0  0  0  0  0  0  0  0  0  0  0  0
   36.9340   31.4320   35.5500 H   0  0  0  0  0  0  0  0  0  0  0  0
   35.7900   32.8640   37.1610 H   0  0  0  0  0  0  0  0  0  0  0  0
   32.1080   30.9920   36.1930 H   0  0  0  0  0  0  0  0  0  0  0  0
  1 25  1  0  0  0  0
  2  1  1  0  0  0  0
  2  3  1  0  0  0  0
  3  4  2  0  0  0  0
  3  8  1  0  0  0  0
  4  9  1  0  0  0  0
  5 10  1  0  0  0  0
  5  4  1  0  0  0  0
  6  5  2  0  0  0  0
  7  6  1  0  0  0  0
  7  2  2  0  0  0  0
 11  6  1  0  0  0  0
 12 19  1  1  0  0  0
 12 17  1  0  0  0  0
 12 13  1  0  0  0  0
 13  7  1  6  0  0  0
 13 14  1  0  0  0  0
 15 14  1  0  0  0  0
 16 14  1  0  0  0  0
 17 16  1  0  0  0  0
 18 17  1  0  0  0  0
 20 19  1  0  0  0  0
 21 22  1  0  0  0  0
 22 23  2  0  0  0  0
 22 29  1  0  0  0  0
 23 28  1  0  0  0  0
 24 23  1  0  0  0  0
 25 24  2  0  0  0  0
 26 25  1  0  0  0  0
 26 21  2  0  0  0  0
 27 21  1  0  0  0  0
 29 35  1  0  0  0  0
 29 30  1  0  0  0  0
 30 31  2  0  0  0  0
 31 32  1  0  0  0  0
 31 38  1  0  0  0  0
 32 33  2  0  0  0  0
 34 39  1  0  0  0  0
 34 32  1  0  0  0  0
 35 34  1  0  0  0  0
 36 35  2  0  0  0  0
 37 30  1  0  0  0  0
M  END
>  <minimizedAffinity>
-5.82150364

$$$$

 OpenBabel03272500093D

 39 42  0  0  1  0  0  0  0  0999 V2000
   34.8420   29.4780   33.5120 O   0  0  0  0  0  0  0  0  0  0  0  0
   34.6020   30.2960   34.6320 C   0  0  0  0  0  0  0  0  0  0  0  0
   35.7190   31.0620   34.9750 C   0  0  0  0  0  0  0  0  0  0  0  0
   35.6780   31.9260   36.0440 C   0  0  0  0  0  0  0  0  0  0  0  0
   34.5030   32.0210   36.7760 C   0  0  0  0  0  0  0  0  0  0  0  0
   33.4240   31.2550   36.4140 C   0  0  0  0  0  0  0  0  0  0  0  0
   33.4280   30.3770   35.3490 C   0  0  0  0  0  0  0  0  0  0  0  0
   36.6660   31.0340   34.4450 H   0  0  0  0  0  0  0  0  0  0  0  0
   36.5310   32.5260   36.3230 H   0  0  0  0  0  0  0  0  0  0  0  0
   34.4630   32.7010   37.6200 H   0  0  0  0  0  0  0  0  0  0  0  0
   32.5380   31.3710   37.0190 H   0  0  0  0  0  0  0  0  0  0  0  0
   31.9860   28.4250   35.9230 C   0  0  2  0  0  3  0  0  0  0  0  0
   32.3130   29.5400   34.9470 C   0  0  1  0  0  3  0  0  0  0  0  0
   30.9510   30.2550   35.0270 C   0  0  0  0  0  3  0  0  0  0  0  0
   30.8010   30.6720   36.0500 H   0  0  0  0  0  0  0  0  0  0  0  0
   30.0170   29.2260   34.9200 O   0  0  0  0  0  0  0  0  0  0  0  0
   30.6170   28.0490   35.3370 C   0  0  0  0  0  3  0  0  0  0  0  0
   30.0140   27.4920   36.0720 H   0  0  0  0  0  0  0  0  0  0  0  0
   31.7780   28.9160   37.1840 O   0  0  0  0  0  0  0  0  0  0  0  0
   32.5450   28.7440   37.7930 H   0  0  0  0  0  0  0  0  0  0  0  0
   37.3210   27.3590   35.0070 C   0  0  0  0  0  0  0  0  0  0  0  0
   38.1420   26.9980   33.9290 C   0  0  0  0  0  0  0  0  0  0  0  0
   37.8120   27.5080   32.6730 C   0  0  0  0  0  0  0  0  0  0  0  0
   36.7240   28.3180   32.5700 N   0  0  0  0  0  0  0  0  0  0  0  0
   35.9620   28.6460   33.6150 C   0  0  0  0  0  0  0  0  0  0  0  0
   36.2560   28.1650   34.8530 N   0  0  0  0  0  0  0  0  0  0  0  0
   37.5860   26.9550   35.9910 H   0  0  0  0  0  0  0  0  0  0  0  0
   38.4280   27.2410   31.8380 H   0  0  0  0  0  0  0  0  0  0  0  0
   39.2450   26.1420   34.1710 N   0  0  0  0  0  0  0  0  0  0  0  0
   40.4360   26.6000   34.5370 C   0  0  0  0  0  0  0  0  0  0  0  0
   41.4730   25.6940   34.7570 C   0  0  0  0  0  0  0  0  0  0  0  0
   41.1650   24.3820   34.5730 C   0  0  0  0  0  0  0  0  0  0  0  0
   42.0930   23.5510   34.7680 O   0  0  0  0  0  0  0  0  0  0  0  0
   39.9920   23.8880   34.2110 N   0  0  0  0  0  0  0  0  0  0  0  0
   38.9950   24.7980   34.0020 C   0  0  0  0  0  0  0  0  0  0  0  0
   37.8640   24.3410   33.6530 O   0  0  0  0  0  0  0  0  0  0  0  0
   40.6250   27.6520   34.6690 H   0  0  0  0  0  0  0  0  0  0  0  0
   42.4410   26.0680   35.0540 H   0  0  0  0  0  0  0  0  0  0  0  0
   39.8340   22.8630   34.0900 H   0  0  0  0  0  0  0  0  0  0  0  0
  1 25  1  0  0  0  0
  1  2  1  0  0  0  0
  2  3  2  0  0  0  0
  2  7  1  0  0  0  0
  3  4  1  0  0  0  0
  4  9  1  0  0  0  0
  4  5  2  0  0  0  0
  5 10  1  0  0  0  0
  6  5  1  0  0  0  0
  6 11  1  0  0  0  0
  7  6  2  0  0  0  0
  8  3  1  0  0  0  0
 12 19  1  1  0  0  0
 13 14  1  0  0  0  0
 13  7  1  1  0  0  0
 13 12  1  0  0  0  0
 14 15  1  0  0  0  0
 16 14  1  0  0  0  0
 16 17  1  0  0  0  0
 17 12  1  0  0  0  0
 17 18  1  0  0  0  0
 19 20  1  0  0  0  0
 21 27  1  0  0  0  0
 22 29  1  0  0  0  0
 22 21  2  0  0  0  0
 23 22  1  0  0  0  0
 24 23  2  0  0  0  0
 24 25  1  0  0  0  0
 25 26  2  0  0  0  0
 26 21  1  0  0  0  0
 28 23  1  0  0  0  0
 29 30  1  0  0  0  0
 30 37  1  0  0  0  0
 30 31  2  0  0  0  0
 31 38  1  0  0  0  0
 32 31  1  0  0  0  0
 32 33  2  0  0  0  0
 34 32  1  0  0  0  0
 35 29  1  0  0  0  0
 35 34  1  0  0  0  0
 36 35  2  0  0  0  0
 39 34  1  0  0  0  0
M  END
>  <minimizedAffinity>
-5.76976252

$$$$

 OpenBabel03272500093D

 39 42  0  0  1  0  0  0  0  0999 V2000
   38.9770   22.5660   33.7430 O   0  0  0  0  0  0  0  0  0  0  0  0
   37.8460   22.0170   34.3760 C   0  0  0  0  0  0  0  0  0  0  0  0
   37.0690   21.2550   33.4990 C   0  0  0  0  0  0  0  0  0  0  0  0
   35.9210   20.6360   33.9340 C   0  0  0  0  0  0  0  0  0  0  0  0
   35.5500   20.7840   35.2630 C   0  0  0  0  0  0  0  0  0  0  0  0
   36.3330   21.5390   36.0980 C   0  0  0  0  0  0  0  0  0  0  0  0
   37.4910   22.1750   35.6970 C   0  0  0  0  0  0  0  0  0  0  0  0
   37.3030   21.1000   32.4500 H   0  0  0  0  0  0  0  0  0  0  0  0
   35.3090   20.0430   33.2710 H   0  0  0  0  0  0  0  0  0  0  0  0
   34.6450   20.2980   35.6130 H   0  0  0  0  0  0  0  0  0  0  0  0
   35.9960   21.6180   37.1190 H   0  0  0  0  0  0  0  0  0  0  0  0
   37.6850   23.4190   37.8510 C   0  0  2  0  0  3  0  0  0  0  0  0
   38.3360   22.9940   36.5470 C   0  0  1  0  0  3  0  0  0  0  0  0
   39.5090   22.2180   37.1750 C   0  0  0  0  0  3  0  0  0  0  0  0
   39.1240   21.3260   37.7210 H   0  0  0  0  0  0  0  0  0  0  0  0
   39.9860   23.0670   38.1720 O   0  0  0  0  0  0  0  0  0  0  0  0
   38.9590   23.9150   38.5510 C   0  0  0  0  0  3  0  0  0  0  0  0
   38.8150   23.9600   39.6430 H   0  0  0  0  0  0  0  0  0  0  0  0
   37.2210   22.3360   38.5490 O   0  0  0  0  0  0  0  0  0  0  0  0
   36.2330   22.2400   38.4960 H   0  0  0  0  0  0  0  0  0  0  0  0
   38.4620   26.0050   32.8630 C   0  0  0  0  0  0  0  0  0  0  0  0
   38.2430   25.9640   31.4790 C   0  0  0  0  0  0  0  0  0  0  0  0
   38.2790   24.7130   30.8610 C   0  0  0  0  0  0  0  0  0  0  0  0
   38.5220   23.6190   31.6310 N   0  0  0  0  0  0  0  0  0  0  0  0
   38.7260   23.6890   32.9480 C   0  0  0  0  0  0  0  0  0  0  0  0
   38.6980   24.8930   33.5810 N   0  0  0  0  0  0  0  0  0  0  0  0
   38.4320   26.9910   33.3430 H   0  0  0  0  0  0  0  0  0  0  0  0
   38.1150   24.6640   29.8030 H   0  0  0  0  0  0  0  0  0  0  0  0
   38.0040   27.1800   30.7920 N   0  0  0  0  0  0  0  0  0  0  0  0
   38.9830   27.9050   30.2640 C   0  0  0  0  0  0  0  0  0  0  0  0
   38.6670   29.0920   29.6020 C   0  0  0  0  0  0  0  0  0  0  0  0
   37.3460   29.4120   29.5540 C   0  0  0  0  0  0  0  0  0  0  0  0
   37.0460   30.4820   28.9590 O   0  0  0  0  0  0  0  0  0  0  0  0
   36.3450   28.7160   30.0660 N   0  0  0  0  0  0  0  0  0  0  0  0
   36.6830   27.5590   30.7080 C   0  0  0  0  0  0  0  0  0  0  0  0
   35.7340   26.8800   31.2050 O   0  0  0  0  0  0  0  0  0  0  0  0
   40.0150   27.6040   30.3320 H   0  0  0  0  0  0  0  0  0  0  0  0
   39.4650   29.6800   29.1740 H   0  0  0  0  0  0  0  0  0  0  0  0
   35.3520   29.0300   29.9870 H   0  0  0  0  0  0  0  0  0  0  0  0
  1  2  1  0  0  0  0
  2  7  1  0  0  0  0
  3  4  1  0  0  0  0
  3  2  2  0  0  0  0
  4  5  2  0  0  0  0
  5 10  1  0  0  0  0
  5  6  1  0  0  0  0
  6 11  1  0  0  0  0
  7  6  2  0  0  0  0
  8  3  1  0  0  0  0
  9  4  1  0  0  0  0
 12 19  1  1  0  0  0
 12 17  1  0  0  0  0
 13  7  1  6  0  0  0
 13 14  1  0  0  0  0
 13 12  1  0  0  0  0
 14 15  1  0  0  0  0
 14 16  1  0  0  0  0
 16 17  1  0  0  0  0
 17 18  1  0  0  0  0
 20 19  1  0  0  0  0
 21 27  1  0  0  0  0
 21 26  1  0  0  0  0
 22 21  2  0  0  0  0
 23 22  1  0  0  0  0
 23 24  2  0  0  0  0
 24 25  1  0  0  0  0
 25 26  2  0  0  0  0
 25  1  1  0  0  0  0
 28 23  1  0  0  0  0
 29 22  1  0  0  0  0
 30 37  1  0  0  0  0
 30 29  1  0  0  0  0
 31 30  2  0  0  0  0
 32 31  1  0  0  0  0
 32 34  1  0  0  0  0
 33 32  2  0  0  0  0
 34 35  1  0  0  0  0
 35 29  1  0  0  0  0
 35 36  2  0  0  0  0
 38 31  1  0  0  0  0
 39 34  1  0  0  0  0
M  END
>  <minimizedAffinity>
-5.76511002

$$$$

 OpenBabel03272500093D

 39 42  0  0  1  0  0  0  0  0999 V2000
   35.3420   28.7990   33.3500 O   0  0  0  0  0  0  0  0  0  0  0  0
   35.7600   30.0220   32.7920 C   0  0  0  0  0  0  0  0  0  0  0  0
   36.3930   29.8490   31.5580 C   0  0  0  0  0  0  0  0  0  0  0  0
   36.8710   30.9300   30.8570 C   0  0  0  0  0  0  0  0  0  0  0  0
   36.7110   32.1970   31.3980 C   0  0  0  0  0  0  0  0  0  0  0  0
   36.0850   32.3340   32.6110 C   0  0  0  0  0  0  0  0  0  0  0  0
   35.5930   31.2720   33.3450 C   0  0  0  0  0  0  0  0  0  0  0  0
   36.5500   28.8870   31.0800 H   0  0  0  0  0  0  0  0  0  0  0  0
   37.3630   30.8160   29.9020 H   0  0  0  0  0  0  0  0  0  0  0  0
   37.0850   33.0550   30.8490 H   0  0  0  0  0  0  0  0  0  0  0  0
   35.9890   33.3420   32.9830 H   0  0  0  0  0  0  0  0  0  0  0  0
   35.8940   31.5470   35.8060 C   0  0  2  0  0  3  0  0  0  0  0  0
   34.9410   31.3770   34.6370 C   0  0  1  0  0  3  0  0  0  0  0  0
   34.1770   32.7000   34.8320 C   0  0  0  0  0  3  0  0  0  0  0  0
   34.8590   33.5620   34.6490 H   0  0  0  0  0  0  0  0  0  0  0  0
   33.9090   32.7420   36.2000 O   0  0  0  0  0  0  0  0  0  0  0  0
   34.8470   31.9590   36.8510 C   0  0  0  0  0  3  0  0  0  0  0  0
   35.3230   32.4730   37.7030 H   0  0  0  0  0  0  0  0  0  0  0  0
   36.7300   32.6140   35.6110 O   0  0  0  0  0  0  0  0  0  0  0  0
   37.6510   32.3380   35.3580 H   0  0  0  0  0  0  0  0  0  0  0  0
   37.6590   26.0640   33.4960 C   0  0  0  0  0  0  0  0  0  0  0  0
   38.3850   26.3080   34.6700 C   0  0  0  0  0  0  0  0  0  0  0  0
   38.0500   27.4440   35.4080 C   0  0  0  0  0  0  0  0  0  0  0  0
   37.0480   28.2390   34.9480 N   0  0  0  0  0  0  0  0  0  0  0  0
   36.3730   27.9820   33.8270 C   0  0  0  0  0  0  0  0  0  0  0  0
   36.6750   26.8820   33.0840 N   0  0  0  0  0  0  0  0  0  0  0  0
   37.9270   25.1700   32.9210 H   0  0  0  0  0  0  0  0  0  0  0  0
   38.5960   27.6450   36.3080 H   0  0  0  0  0  0  0  0  0  0  0  0
   39.4100   25.4000   35.0370 N   0  0  0  0  0  0  0  0  0  0  0  0
   40.6600   25.5250   34.6090 C   0  0  0  0  0  0  0  0  0  0  0  0
   41.6130   24.5900   35.0140 C   0  0  0  0  0  0  0  0  0  0  0  0
   41.1650   23.6030   35.8350 C   0  0  0  0  0  0  0  0  0  0  0  0
   42.0150   22.7500   36.2090 O   0  0  0  0  0  0  0  0  0  0  0  0
   39.9300   23.4450   36.2810 N   0  0  0  0  0  0  0  0  0  0  0  0
   39.0180   24.3750   35.8700 C   0  0  0  0  0  0  0  0  0  0  0  0
   37.8280   24.2380   36.2880 O   0  0  0  0  0  0  0  0  0  0  0  0
   40.9620   26.3290   33.9590 H   0  0  0  0  0  0  0  0  0  0  0  0
   42.6290   24.6940   34.6650 H   0  0  0  0  0  0  0  0  0  0  0  0
   39.6630   22.6570   36.9120 H   0  0  0  0  0  0  0  0  0  0  0  0
  1 25  1  0  0  0  0
  2  7  1  0  0  0  0
  2  1  1  0  0  0  0
  3  2  2  0  0  0  0
  4  5  2  0  0  0  0
  4  3  1  0  0  0  0
  5  6  1  0  0  0  0
  6 11  1  0  0  0  0
  6  7  2  0  0  0  0
  8  3  1  0  0  0  0
  9  4  1  0  0  0  0
 10  5  1  0  0  0  0
 12 19  1  6  0  0  0
 12 17  1  0  0  0  0
 13  7  1  6  0  0  0
 13 14  1  0  0  0  0
 13 12  1  0  0  0  0
 14 16  1  0  0  0  0
 15 14  1  0  0  0  0
 16 17  1  0  0  0  0
 17 18  1  0  0  0  0
 20 19  1  0  0  0  0
 21 22  1  0  0  0  0
 22 29  1  0  0  0  0
 22 23  2  0  0  0  0
 23 28  1  0  0  0  0
 24 23  1  0  0  0  0
 25 24  2  0  0  0  0
 26 21  2  0  0  0  0
 26 25  1  0  0  0  0
 27 21  1  0  0  0  0
 29 35  1  0  0  0  0
 30 31  2  0  0  0  0
 30 29  1  0  0  0  0
 31 32  1  0  0  0  0
 32 33  2  0  0  0  0
 32 34  1  0  0  0  0
 34 39  1  0  0  0  0
 35 34  1  0  0  0  0
 35 36  2  0  0  0  0
 37 30  1  0  0  0  0
 38 31  1  0  0  0  0
M  END
>  <minimizedAffinity>
-5.68437815

$$$$

 OpenBabel03272500093D

 39 42  0  0  1  0  0  0  0  0999 V2000
   37.6650   26.7320   31.5950 O   0  0  0  0  0  0  0  0  0  0  0  0
   37.1210   25.4360   31.6650 C   0  0  0  0  0  0  0  0  0  0  0  0
   35.8190   25.3830   31.1580 C   0  0  0  0  0  0  0  0  0  0  0  0
   35.1210   24.1990   31.1400 C   0  0  0  0  0  0  0  0  0  0  0  0
   35.7340   23.0580   31.6350 C   0  0  0  0  0  0  0  0  0  0  0  0
   37.0130   23.1430   32.1250 C   0  0  0  0  0  0  0  0  0  0  0  0
   37.7450   24.3130   32.1610 C   0  0  0  0  0  0  0  0  0  0  0  0
   35.2830   26.2370   30.7570 H   0  0  0  0  0  0  0  0  0  0  0  0
   34.1150   24.1380   30.7520 H   0  0  0  0  0  0  0  0  0  0  0  0
   35.1890   22.1190   31.6230 H   0  0  0  0  0  0  0  0  0  0  0  0
   37.4390   22.2240   32.4970 H   0  0  0  0  0  0  0  0  0  0  0  0
   39.1540   24.8810   34.1390 C   0  0  2  0  0  3  0  0  0  0  0  0
   39.0910   24.4450   32.6870 C   0  0  1  0  0  3  0  0  0  0  0  0
   39.8110   23.0950   32.8720 C   0  0  0  0  0  3  0  0  0  0  0  0
   39.1900   22.4190   33.5050 H   0  0  0  0  0  0  0  0  0  0  0  0
   40.9180   23.4040   33.6610 O   0  0  0  0  0  0  0  0  0  0  0  0
   40.6370   24.5570   34.3740 C   0  0  0  0  0  3  0  0  0  0  0  0
   40.8520   24.4620   35.4510 H   0  0  0  0  0  0  0  0  0  0  0  0
   38.4140   24.0520   34.9380 O   0  0  0  0  0  0  0  0  0  0  0  0
   37.5530   24.4600   35.2210 H   0  0  0  0  0  0  0  0  0  0  0  0
   36.3530   28.2970   34.5440 C   0  0  0  0  0  0  0  0  0  0  0  0
   35.8040   29.4960   34.0670 C   0  0  0  0  0  0  0  0  0  0  0  0
   35.9010   29.7450   32.6980 C   0  0  0  0  0  0  0  0  0  0  0  0
   36.5170   28.8190   31.9150 N   0  0  0  0  0  0  0  0  0  0  0  0
   37.0300   27.6860   32.3970 C   0  0  0  0  0  0  0  0  0  0  0  0
   36.9520   27.4120   33.7280 N   0  0  0  0  0  0  0  0  0  0  0  0
   36.2730   28.1070   35.6210 H   0  0  0  0  0  0  0  0  0  0  0  0
   35.4870   30.6570   32.3160 H   0  0  0  0  0  0  0  0  0  0  0  0
   35.1910   30.3780   34.9910 N   0  0  0  0  0  0  0  0  0  0  0  0
   35.8830   31.2620   35.6990 C   0  0  0  0  0  0  0  0  0  0  0  0
   35.2070   32.0970   36.5890 C   0  0  0  0  0  0  0  0  0  0  0  0
   33.8600   31.9280   36.6560 C   0  0  0  0  0  0  0  0  0  0  0  0
   33.2350   32.6760   37.4570 O   0  0  0  0  0  0  0  0  0  0  0  0
   33.1370   31.0600   35.9680 N   0  0  0  0  0  0  0  0  0  0  0  0
   33.8230   30.2560   35.1040 C   0  0  0  0  0  0  0  0  0  0  0  0
   33.1450   29.4180   34.4360 O   0  0  0  0  0  0  0  0  0  0  0  0
   36.9520   31.3550   35.6070 H   0  0  0  0  0  0  0  0  0  0  0  0
   35.7720   32.8150   37.1640 H   0  0  0  0  0  0  0  0  0  0  0  0
   32.1000   30.9910   36.0760 H   0  0  0  0  0  0  0  0  0  0  0  0
  1  2  1  0  0  0  0
  1 25  1  0  0  0  0
  2  7  1  0  0  0  0
  3  2  2  0  0  0  0
  4  3  1  0  0  0  0
  4  5  2  0  0  0  0
  5  6  1  0  0  0  0
  6  7  2  0  0  0  0
  6 11  1  0  0  0  0
  8  3  1  0  0  0  0
  9  4  1  0  0  0  0
 10  5  1  0  0  0  0
 12 17  1  0  0  0  0
 12 19  1  1  0  0  0
 13  7  1  1  0  0  0
 13 14  1  0  0  0  0
 13 12  1  0  0  0  0
 14 15  1  0  0  0  0
 14 16  1  0  0  0  0
 16 17  1  0  0  0  0
 17 18  1  0  0  0  0
 19 20  1  0  0  0  0
 21 27  1  0  0  0  0
 22 21  1  0  0  0  0
 22 29  1  0  0  0  0
 23 22  2  0  0  0  0
 24 25  2  0  0  0  0
 24 23  1  0  0  0  0
 25 26  1  0  0  0  0
 26 21  2  0  0  0  0
 28 23  1  0  0  0  0
 29 35  1  0  0  0  0
 29 30  1  0  0  0  0
 30 31  2  0  0  0  0
 31 32  1  0  0  0  0
 31 38  1  0  0  0  0
 32 33  2  0  0  0  0
 34 39  1  0  0  0  0
 34 32  1  0  0  0  0
 35 34  1  0  0  0  0
 36 35  2  0  0  0  0
 37 30  1  0  0  0  0
M  END
>  <minimizedAffinity>
-5.68054581

$$$$

 OpenBabel03272500093D

 39 42  0  0  1  0  0  0  0  0999 V2000
   38.7070   22.4380   34.6730 O   0  0  0  0  0  0  0  0  0  0  0  0
   38.8760   22.7530   36.0350 C   0  0  0  0  0  0  0  0  0  0  0  0
   37.7670   23.4180   36.5640 C   0  0  0  0  0  0  0  0  0  0  0  0
   37.7450   23.8080   37.8820 C   0  0  0  0  0  0  0  0  0  0  0  0
   38.8460   23.5270   38.6770 C   0  0  0  0  0  0  0  0  0  0  0  0
   39.9190   22.8720   38.1280 C   0  0  0  0  0  0  0  0  0  0  0  0
   39.9780   22.4660   36.8100 C   0  0  0  0  0  0  0  0  0  0  0  0
   36.8750   23.6690   35.9970 H   0  0  0  0  0  0  0  0  0  0  0  0
   36.8960   24.3230   38.3080 H   0  0  0  0  0  0  0  0  0  0  0  0
   38.8350   23.8300   39.7190 H   0  0  0  0  0  0  0  0  0  0  0  0
   40.7470   22.6800   38.7930 H   0  0  0  0  0  0  0  0  0  0  0  0
   42.1120   22.7160   35.5410 C   0  0  2  0  0  3  0  0  0  0  0  0
   41.1020   21.7870   36.1900 C   0  0  1  0  0  3  0  0  0  0  0  0
   42.0680   21.1510   37.2070 C   0  0  0  0  0  3  0  0  0  0  0  0
   42.4090   21.9200   37.9380 H   0  0  0  0  0  0  0  0  0  0  0  0
   43.2030   20.8450   36.4550 O   0  0  0  0  0  0  0  0  0  0  0  0
   43.2320   21.6820   35.3520 C   0  0  0  0  0  3  0  0  0  0  0  0
   44.2060   22.1790   35.2120 H   0  0  0  0  0  0  0  0  0  0  0  0
   42.5600   23.6580   36.4280 O   0  0  0  0  0  0  0  0  0  0  0  0
   42.1620   24.5550   36.2680 H   0  0  0  0  0  0  0  0  0  0  0  0
   37.3620   24.5810   32.1300 C   0  0  0  0  0  0  0  0  0  0  0  0
   38.2540   25.6610   32.1010 C   0  0  0  0  0  0  0  0  0  0  0  0
   39.3330   25.6260   32.9860 C   0  0  0  0  0  0  0  0  0  0  0  0
   39.4520   24.5550   33.8160 N   0  0  0  0  0  0  0  0  0  0  0  0
   38.5870   23.5400   33.8200 C   0  0  0  0  0  0  0  0  0  0  0  0
   37.5240   23.5430   32.9700 N   0  0  0  0  0  0  0  0  0  0  0  0
   36.5160   24.6140   31.4320 H   0  0  0  0  0  0  0  0  0  0  0  0
   40.0250   26.4450   32.9770 H   0  0  0  0  0  0  0  0  0  0  0  0
   38.0130   26.7180   31.1890 N   0  0  0  0  0  0  0  0  0  0  0  0
   37.2010   27.7310   31.4690 C   0  0  0  0  0  0  0  0  0  0  0  0
   37.0150   28.7340   30.5170 C   0  0  0  0  0  0  0  0  0  0  0  0
   37.7000   28.5840   29.3530 C   0  0  0  0  0  0  0  0  0  0  0  0
   37.5410   29.4830   28.4830 O   0  0  0  0  0  0  0  0  0  0  0  0
   38.5160   27.5910   29.0380 N   0  0  0  0  0  0  0  0  0  0  0  0
   38.6810   26.6230   29.9880 C   0  0  0  0  0  0  0  0  0  0  0  0
   39.4600   25.6640   29.7020 O   0  0  0  0  0  0  0  0  0  0  0  0
   36.6820   27.8010   32.4090 H   0  0  0  0  0  0  0  0  0  0  0  0
   36.3540   29.5560   30.7470 H   0  0  0  0  0  0  0  0  0  0  0  0
   39.0090   27.5470   28.1180 H   0  0  0  0  0  0  0  0  0  0  0  0
  1  2  1  0  0  0  0
  2  3  2  0  0  0  0
  2  7  1  0  0  0  0
  3  4  1  0  0  0  0
  4  9  1  0  0  0  0
  4  5  2  0  0  0  0
  5 10  1  0  0  0  0
  6  5  1  0  0  0  0
  6 11  1  0  0  0  0
  7  6  2  0  0  0  0
  8  3  1  0  0  0  0
 12 13  1  0  0  0  0
 12 19  1  1  0  0  0
 13  7  1  1  0  0  0
 13 14  1  0  0  0  0
 14 15  1  0  0  0  0
 16 14  1  0  0  0  0
 17 12  1  0  0  0  0
 17 16  1  0  0  0  0
 18 17  1  0  0  0  0
 20 19  1  0  0  0  0
 21 26  1  0  0  0  0
 22 21  2  0  0  0  0
 22 23  1  0  0  0  0
 23 24  2  0  0  0  0
 24 25  1  0  0  0  0
 25  1  1  0  0  0  0
 26 25  2  0  0  0  0
 27 21  1  0  0  0  0
 28 23  1  0  0  0  0
 29 30  1  0  0  0  0
 29 22  1  0  0  0  0
 30 37  1  0  0  0  0
 31 38  1  0  0  0  0
 31 30  2  0  0  0  0
 32 31  1  0  0  0  0
 33 32  2  0  0  0  0
 34 32  1  0  0  0  0
 34 35  1  0  0  0  0
 35 29  1  0  0  0  0
 36 35  2  0  0  0  0
 39 34  1  0  0  0  0
M  END
>  <minimizedAffinity>
-5.67578125

$$$$

 OpenBabel03272500093D

 39 42  0  0  1  0  0  0  0  0999 V2000
   37.0190   27.6770   32.7090 O   0  0  0  0  0  0  0  0  0  0  0  0
   37.1300   28.5160   31.5850 C   0  0  0  0  0  0  0  0  0  0  0  0
   38.0800   28.0510   30.6710 C   0  0  0  0  0  0  0  0  0  0  0  0
   38.3310   28.7370   29.5070 C   0  0  0  0  0  0  0  0  0  0  0  0
   37.6210   29.9030   29.2570 C   0  0  0  0  0  0  0  0  0  0  0  0
   36.6950   30.3330   30.1730 C   0  0  0  0  0  0  0  0  0  0  0  0
   36.4170   29.6710   31.3520 C   0  0  0  0  0  0  0  0  0  0  0  0
   38.6690   27.1490   30.8070 H   0  0  0  0  0  0  0  0  0  0  0  0
   39.0610   28.3930   28.7900 H   0  0  0  0  0  0  0  0  0  0  0  0
   37.8130   30.4490   28.3390 H   0  0  0  0  0  0  0  0  0  0  0  0
   36.1730   31.2440   29.9260 H   0  0  0  0  0  0  0  0  0  0  0  0
   34.6460   31.3230   31.9510 C   0  0  2  0  0  3  0  0  0  0  0  0
   35.4580   30.1050   32.3520 C   0  0  1  0  0  3  0  0  0  0  0  0
   34.2680   29.1410   32.5170 C   0  0  0  0  0  3  0  0  0  0  0  0
   33.7790   28.9690   31.5300 H   0  0  0  0  0  0  0  0  0  0  0  0
   33.3360   29.8700   33.2540 O   0  0  0  0  0  0  0  0  0  0  0  0
   33.5820   31.2180   33.0540 C   0  0  0  0  0  3  0  0  0  0  0  0
   32.6780   31.7870   32.7830 H   0  0  0  0  0  0  0  0  0  0  0  0
   34.0200   31.1270   30.7490 O   0  0  0  0  0  0  0  0  0  0  0  0
   34.4610   31.6150   30.0030 H   0  0  0  0  0  0  0  0  0  0  0  0
   37.3550   24.1070   32.8220 C   0  0  0  0  0  0  0  0  0  0  0  0
   36.3710   23.6530   31.9330 C   0  0  0  0  0  0  0  0  0  0  0  0
   35.5900   24.6170   31.2940 C   0  0  0  0  0  0  0  0  0  0  0  0
   35.8280   25.9270   31.5700 N   0  0  0  0  0  0  0  0  0  0  0  0
   36.7720   26.3300   32.4210 C   0  0  0  0  0  0  0  0  0  0  0  0
   37.5520   25.4160   33.0610 N   0  0  0  0  0  0  0  0  0  0  0  0
   37.9660   23.3440   33.3200 H   0  0  0  0  0  0  0  0  0  0  0  0
   34.8330   24.2870   30.6110 H   0  0  0  0  0  0  0  0  0  0  0  0
   36.2240   22.2570   31.7360 N   0  0  0  0  0  0  0  0  0  0  0  0
   35.2470   21.5570   32.3010 C   0  0  0  0  0  0  0  0  0  0  0  0
   35.1690   20.1850   32.0580 C   0  0  0  0  0  0  0  0  0  0  0  0
   36.1270   19.6700   31.2420 C   0  0  0  0  0  0  0  0  0  0  0  0
   36.0690   18.4310   31.0150 O   0  0  0  0  0  0  0  0  0  0  0  0
   37.1130   20.3350   30.6630 N   0  0  0  0  0  0  0  0  0  0  0  0
   37.1660   21.6760   30.9160 C   0  0  0  0  0  0  0  0  0  0  0  0
   38.1060   22.3280   30.3680 O   0  0  0  0  0  0  0  0  0  0  0  0
   34.5130   22.0170   32.9400 H   0  0  0  0  0  0  0  0  0  0  0  0
   34.3740   19.6180   32.5190 H   0  0  0  0  0  0  0  0  0  0  0  0
   37.8120   19.8650   30.0460 H   0  0  0  0  0  0  0  0  0  0  0  0
  2  1  1  0  0  0  0
  3  8  1  0  0  0  0
  3  2  2  0  0  0  0
  4  3  1  0  0  0  0
  5  4  2  0  0  0  0
  5  6  1  0  0  0  0
  6  7  2  0  0  0  0
  7  2  1  0  0  0  0
  9  4  1  0  0  0  0
 10  5  1  0  0  0  0
 11  6  1  0  0  0  0
 12 19  1  6  0  0  0
 12 13  1  0  0  0  0
 12 17  1  0  0  0  0
 13  7  1  6  0  0  0
 13 14  1  0  0  0  0
 14 16  1  0  0  0  0
 15 14  1  0  0  0  0
 17 16  1  0  0  0  0
 18 17  1  0  0  0  0
 20 19  1  0  0  0  0
 21 26  1  0  0  0  0
 21 27  1  0  0  0  0
 22 21  2  0  0  0  0
 23 24  2  0  0  0  0
 23 22  1  0  0  0  0
 24 25  1  0  0  0  0
 25  1  1  0  0  0  0
 25 26  2  0  0  0  0
 28 23  1  0  0  0  0
 29 22  1  0  0  0  0
 29 30  1  0  0  0  0
 30 37  1  0  0  0  0
 31 30  2  0  0  0  0
 31 38  1  0  0  0  0
 32 31  1  0  0  0  0
 33 32  2  0  0  0  0
 34 35  1  0  0  0  0
 34 32  1  0  0  0  0
 35 29  1  0  0  0  0
 36 35  2  0  0  0  0
 39 34  1  0  0  0  0
M  END
>  <minimizedAffinity>
-5.66319323

$$$$
