
 OpenBabel03272504323D

 40 43  0  0  1  0  0  0  0  0999 V2000
   35.3670   29.5960   47.6700 C   0  0  0  0  0  0  0  0  0  0  0  0
   35.5040   30.1660   46.4040 C   0  0  0  0  0  0  0  0  0  0  0  0
   34.4730   30.0480   45.4880 C   0  0  0  0  0  0  0  0  0  0  0  0
   33.3490   29.3660   45.8720 N   0  0  0  0  0  0  0  0  0  0  0  0
   33.2500   28.8260   47.1070 C   0  0  0  0  0  0  0  0  0  0  0  0
   34.2550   28.9410   48.0040 N   0  0  0  0  0  0  0  0  0  0  0  0
   36.4130   30.6880   46.1660 H   0  0  0  0  0  0  0  0  0  0  0  0
   34.5610   30.4770   44.5160 H   0  0  0  0  0  0  0  0  0  0  0  0
   36.4010   29.6870   48.6570 N   0  0  0  0  0  0  0  0  0  0  0  0
   36.3280   28.9520   49.9100 C   0  0  0  0  0  0  0  0  0  0  0  0
   36.7200   29.7380   51.1170 C   0  0  0  0  0  0  0  0  0  0  0  0
   37.6250   30.8070   50.9560 N   0  0  0  0  0  0  0  0  0  0  0  0
   37.4830   31.5060   49.6870 C   0  0  0  0  0  0  0  0  0  0  0  0
   37.5870   30.4490   48.6030 C   0  0  0  0  0  0  0  0  0  0  0  0
   35.2800   28.5720   50.0320 H   0  0  0  0  0  0  0  0  0  0  0  0
   36.9400   28.0360   49.7930 H   0  0  0  0  0  0  0  0  0  0  0  0
   35.7770   30.0920   51.6210 H   0  0  0  0  0  0  0  0  0  0  0  0
   37.1650   29.0030   51.8510 H   0  0  0  0  0  0  0  0  0  0  0  0
   37.4150   31.5320   51.7070 H   0  0  0  0  0  0  0  0  0  0  0  0
   38.4040   32.1390   49.5710 H   0  0  0  0  0  0  0  0  0  0  0  0
   36.5930   32.1280   49.6080 H   0  0  0  0  0  0  0  0  0  0  0  0
   37.7450   30.9170   47.5970 H   0  0  0  0  0  0  0  0  0  0  0  0
   38.4700   29.8350   48.8280 H   0  0  0  0  0  0  0  0  0  0  0  0
   32.0380   28.1100   47.4780 C   0  0  0  0  0  0  0  0  0  0  0  0
   32.0830   26.7710   47.8040 C   0  0  0  0  0  0  0  0  0  0  0  0
   30.9630   26.0350   48.1640 C   0  0  0  0  0  0  0  0  0  0  0  0
   29.7920   26.7300   48.1760 N   0  0  0  0  0  0  0  0  0  0  0  0
   29.7610   28.0250   47.8570 C   0  0  0  0  0  0  0  0  0  0  0  0
   30.8600   28.7490   47.5030 N   0  0  0  0  0  0  0  0  0  0  0  0
   33.0530   26.3080   47.7680 H   0  0  0  0  0  0  0  0  0  0  0  0
   31.1170   24.9920   48.4010 H   0  0  0  0  0  0  0  0  0  0  0  0
   28.0600   28.8460   49.4010 C   0  0  1  0  0  3  0  0  0  0  0  0
   28.3990   28.6200   47.9220 C   0  0  2  0  0  3  0  0  0  0  0  0
   27.3320   27.6170   47.5650 C   0  0  0  0  0  3  0  0  0  0  0  0
   27.6720   27.0310   46.6850 H   0  0  0  0  0  0  0  0  0  0  0  0
   27.1530   26.8230   48.6840 O   0  0  0  0  0  0  0  0  0  0  0  0
   27.5530   27.5060   49.8050 C   0  0  0  0  0  3  0  0  0  0  0  0
   28.3430   26.9250   50.3450 H   0  0  0  0  0  0  0  0  0  0  0  0
   29.1850   29.2550   50.1020 O   0  0  0  0  0  0  0  0  0  0  0  0
   29.3680   30.1970   49.8690 H   0  0  0  0  0  0  0  0  0  0  0  0
  1  6  1  0  0  0  0
  1  9  1  0  0  0  0
  2  1  2  0  0  0  0
  3  4  2  0  0  0  0
  3  2  1  0  0  0  0
  4  5  1  0  0  0  0
  5 24  1  0  0  0  0
  5  6  2  0  0  0  0
  7  2  1  0  0  0  0
  8  3  1  0  0  0  0
  9 10  1  0  0  0  0
 10 15  1  0  0  0  0
 10 11  1  0  0  0  0
 11 17  1  0  0  0  0
 11 18  1  0  0  0  0
 12 11  1  0  0  0  0
 12 19  1  0  0  0  0
 13 12  1  0  0  0  0
 14  9  1  0  0  0  0
 14 23  1  0  0  0  0
 14 13  1  0  0  0  0
 16 10  1  0  0  0  0
 20 13  1  0  0  0  0
 21 13  1  0  0  0  0
 22 14  1  0  0  0  0
 24 29  2  0  0  0  0
 24 25  1  0  0  0  0
 25 26  2  0  0  0  0
 26 27  1  0  0  0  0
 26 31  1  0  0  0  0
 28 27  2  0  0  0  0
 29 28  1  0  0  0  0
 30 25  1  0  0  0  0
 32 37  1  0  0  0  0
 32 39  1  1  0  0  0
 33 28  1  1  0  0  0
 33 32  1  0  0  0  0
 34 33  1  0  0  0  0
 34 36  1  0  0  0  0
 35 34  1  0  0  0  0
 36 37  1  0  0  0  0
 37 38  1  0  0  0  0
 40 39  1  0  0  0  0
M  END
>  <minimizedAffinity>
-5.88138294

>  <minimizedRMSD>
1.29258811

$$$$
