
 OpenBabel03262521183D

 29 30  0  0  1  0  0  0  0  0999 V2000
   38.9600   32.4080   46.4850 C   0  0  0  0  0  0  0  0  0  0  0  0
   40.0170   33.1130   45.9430 C   0  0  0  0  0  0  0  0  0  0  0  0
   40.0510   33.3900   44.5630 C   0  0  0  0  0  0  0  0  0  0  0  0
   38.9960   32.9240   43.8280 N   0  0  0  0  0  0  0  0  0  0  0  0
   37.9700   32.2320   44.3970 C   0  0  0  0  0  0  0  0  0  0  0  0
   37.9550   31.9830   45.6870 N   0  0  0  0  0  0  0  0  0  0  0  0
   40.8810   33.5090   46.4730 H   0  0  0  0  0  0  0  0  0  0  0  0
   40.8610   33.9390   44.1030 H   0  0  0  0  0  0  0  0  0  0  0  0
   36.3090   32.9080   42.6510 C   0  0  1  0  0  0  0  0  0  0  0  0
   36.8910   31.7850   43.4900 C   0  0  1  0  0  0  0  0  0  0  0  0
   37.3340   30.8400   42.4190 C   0  0  0  0  0  0  0  0  0  0  0  0
   38.3870   31.0270   42.1900 H   0  0  0  0  0  0  0  0  0  0  0  0
   36.5150   31.0130   41.3180 O   0  0  0  0  0  0  0  0  0  0  0  0
   35.6780   32.0950   41.5430 C   0  0  0  0  0  0  0  0  0  0  0  0
   35.5100   32.6590   40.6270 H   0  0  0  0  0  0  0  0  0  0  0  0
   35.3260   33.5970   43.3460 O   0  0  0  0  0  0  0  0  0  0  0  0
   34.9230   32.9710   44.0140 H   0  0  0  0  0  0  0  0  0  0  0  0
   39.0880   32.2270   47.8460 O   0  0  0  0  0  0  0  0  0  0  0  0
   37.9240   32.2580   48.5910 C   0  0  0  0  0  0  0  0  0  0  0  0
   38.0470   33.0610   49.3650 H   0  0  0  0  0  0  0  0  0  0  0  0
   37.0130   32.5630   48.0330 H   0  0  0  0  0  0  0  0  0  0  0  0
   37.9470   30.9920   49.0640 C   0  0  0  0  0  0  0  0  0  0  0  0
   36.9590   30.4820   48.8470 H   0  0  0  0  0  0  0  0  0  0  0  0
   38.6490   30.2930   48.5390 H   0  0  0  0  0  0  0  0  0  0  0  0
   38.1980   30.8220   50.5260 C   0  0  0  0  0  0  0  0  0  0  0  0
   38.1330   31.8060   51.0790 H   0  0  0  0  0  0  0  0  0  0  0  0
   39.2250   30.4590   50.7760 H   0  0  0  0  0  0  0  0  0  0  0  0
   37.0390   29.6970   51.3060 S   0  0  0  0  0  0  0  0  0  0  0  0
   36.2610   29.0660   50.3200 H   0  0  0  0  0  0  0  0  0  0  0  0
  1 18  1  0  0  0  0
  2  7  1  0  0  0  0
  2  1  1  0  0  0  0
  3  2  2  0  0  0  0
  4  5  2  0  0  0  0
  4  3  1  0  0  0  0
  5  6  1  0  0  0  0
  6  1  2  0  0  0  0
  8  3  1  0  0  0  0
  9 16  1  1  0  0  0
  9 10  1  0  0  0  0
 10  5  1  6  0  0  0
 11 10  1  0  0  0  0
 12 11  1  0  0  0  0
 13 14  1  0  0  0  0
 13 11  1  0  0  0  0
 14  9  1  0  0  0  0
 15 14  1  0  0  0  0
 16 17  1  0  0  0  0
 18 19  1  0  0  0  0
 19 22  1  0  0  0  0
 19 20  1  0  0  0  0
 21 19  1  0  0  0  0
 22 25  1  0  0  0  0
 23 22  1  0  0  0  0
 24 22  1  0  0  0  0
 25 27  1  0  0  0  0
 25 26  1  0  0  0  0
 25 28  1  0  0  0  0
 29 28  1  0  0  0  0
M  END
>  <minimizedAffinity>
-4.60009003

>  <minimizedRMSD>
1.01970589

$$$$
