
 OpenBabel03262520453D

 28 30  0  0  1  0  0  0  0  0999 V2000
   38.0230   26.9420   34.6610 C   0  0  1  0  0  0  0  0  0  0  0  0
   38.6620   27.2800   36.0080 C   0  0  0  0  0  0  0  0  0  0  0  0
   38.0730   25.9520   35.7460 C   0  0  2  0  0  0  0  0  0  0  0  0
   38.7540   26.8420   33.8160 H   0  0  0  0  0  0  0  0  0  0  0  0
   39.7770   27.4190   36.0150 H   0  0  0  0  0  0  0  0  0  0  0  0
   38.1070   27.9620   36.6960 H   0  0  0  0  0  0  0  0  0  0  0  0
   37.0760   25.7410   36.2220 H   0  0  0  0  0  0  0  0  0  0  0  0
   38.6360   23.7200   36.7050 C   0  0  2  0  0  3  0  0  0  0  0  0
   38.8770   24.7080   35.5560 C   0  0  1  0  0  3  0  0  0  0  0  0
   38.1830   23.9060   34.4480 C   0  0  0  0  0  3  0  0  0  0  0  0
   37.0860   24.0150   34.6800 H   0  0  0  0  0  0  0  0  0  0  0  0
   38.4810   22.5800   34.6700 O   0  0  0  0  0  0  0  0  0  0  0  0
   38.8660   22.4280   35.9890 C   0  0  0  0  0  3  0  0  0  0  0  0
   39.9510   22.2060   36.0210 H   0  0  0  0  0  0  0  0  0  0  0  0
   37.3110   23.8010   37.0820 O   0  0  0  0  0  0  0  0  0  0  0  0
   37.1180   24.5050   37.7500 H   0  0  0  0  0  0  0  0  0  0  0  0
   36.8010   27.7280   34.3310 C   0  0  0  0  0  0  0  0  0  0  0  0
   35.9140   27.1140   34.6010 H   0  0  0  0  0  0  0  0  0  0  0  0
   36.7570   28.6620   34.9240 H   0  0  0  0  0  0  0  0  0  0  0  0
   37.4340   27.6590   30.6440 C   0  0  0  0  0  0  0  0  0  0  0  0
   37.4980   27.3200   32.0230 C   0  0  0  0  0  0  0  0  0  0  0  0
   36.7350   28.0820   32.8850 C   0  0  0  0  0  0  0  0  0  0  0  0
   35.9760   29.0930   32.4010 N   0  0  0  0  0  0  0  0  0  0  0  0
   35.9460   29.3760   31.0840 C   0  0  0  0  0  0  0  0  0  0  0  0
   36.6720   28.6620   30.2170 N   0  0  0  0  0  0  0  0  0  0  0  0
   38.0250   27.0750   29.9440 H   0  0  0  0  0  0  0  0  0  0  0  0
   38.1250   26.4970   32.3650 H   0  0  0  0  0  0  0  0  0  0  0  0
   35.3080   30.2100   30.7690 H   0  0  0  0  0  0  0  0  0  0  0  0
  1  4  1  6  0  0  0
  1  3  1  0  0  0  0
  1  2  1  0  0  0  0
  2  5  1  0  0  0  0
  2  6  1  0  0  0  0
  3  2  1  0  0  0  0
  3  7  1  1  0  0  0
  8 15  1  6  0  0  0
  9 10  1  6  0  0  0
  9  3  1  0  0  0  0
  9  8  1  0  0  0  0
 10 12  1  0  0  0  0
 10 11  1  0  0  0  0
 12 13  1  0  0  0  0
 13 14  1  0  0  0  0
 13  8  1  0  0  0  0
 15 16  1  0  0  0  0
 17 18  1  0  0  0  0
 17  1  1  0  0  0  0
 17 19  1  0  0  0  0
 20 21  1  0  0  0  0
 21 27  1  0  0  0  0
 21 22  2  0  0  0  0
 22 17  1  0  0  0  0
 23 22  1  0  0  0  0
 24 23  2  0  0  0  0
 25 20  2  0  0  0  0
 25 24  1  0  0  0  0
 26 20  1  0  0  0  0
 28 24  1  0  0  0  0
M  END
>  <minimizedAffinity>
-4.3990159

$$$$

 OpenBabel03262520453D

 28 30  0  0  1  0  0  0  0  0999 V2000
   35.7780   29.3860   33.5640 C   0  0  1  0  0  0  0  0  0  0  0  0
   36.5030   28.0570   33.7730 C   0  0  0  0  0  0  0  0  0  0  0  0
   36.1070   28.5140   32.4270 C   0  0  2  0  0  0  0  0  0  0  0  0
   36.4140   30.2920   33.7400 H   0  0  0  0  0  0  0  0  0  0  0  0
   37.5760   28.1160   34.1050 H   0  0  0  0  0  0  0  0  0  0  0  0
   35.9290   27.2100   34.2180 H   0  0  0  0  0  0  0  0  0  0  0  0
   35.2170   28.0050   31.9640 H   0  0  0  0  0  0  0  0  0  0  0  0
   37.2910   27.9410   30.3080 C   0  0  2  0  0  3  0  0  0  0  0  0
   37.0720   29.0010   31.3970 C   0  0  1  0  0  3  0  0  0  0  0  0
   36.3150   30.0220   30.5390 C   0  0  0  0  0  3  0  0  0  0  0  0
   35.2980   29.5570   30.3970 H   0  0  0  0  0  0  0  0  0  0  0  0
   36.9040   30.0120   29.2940 O   0  0  0  0  0  0  0  0  0  0  0  0
   37.5980   28.8250   29.1430 C   0  0  0  0  0  3  0  0  0  0  0  0
   38.6850   29.0430   29.1540 H   0  0  0  0  0  0  0  0  0  0  0  0
   36.0940   27.2910   30.0830 O   0  0  0  0  0  0  0  0  0  0  0  0
   35.9250   26.5250   30.6850 H   0  0  0  0  0  0  0  0  0  0  0  0
   34.4170   29.4600   34.1650 C   0  0  0  0  0  0  0  0  0  0  0  0
   33.6950   29.6990   33.3550 H   0  0  0  0  0  0  0  0  0  0  0  0
   34.1220   28.4850   34.6020 H   0  0  0  0  0  0  0  0  0  0  0  0
   35.3810   32.2380   36.4790 C   0  0  0  0  0  0  0  0  0  0  0  0
   35.4660   31.2460   35.4650 C   0  0  0  0  0  0  0  0  0  0  0  0
   34.3290   30.5010   35.2280 C   0  0  0  0  0  0  0  0  0  0  0  0
   33.2060   30.7350   35.9480 N   0  0  0  0  0  0  0  0  0  0  0  0
   33.1720   31.6890   36.9000 C   0  0  0  0  0  0  0  0  0  0  0  0
   34.2540   32.4310   37.1590 N   0  0  0  0  0  0  0  0  0  0  0  0
   36.2620   32.8380   36.6840 H   0  0  0  0  0  0  0  0  0  0  0  0
   36.3930   31.0940   34.9110 H   0  0  0  0  0  0  0  0  0  0  0  0
   32.2280   31.8180   37.4400 H   0  0  0  0  0  0  0  0  0  0  0  0
  1  4  1  1  0  0  0
  1  2  1  0  0  0  0
  1 17  1  0  0  0  0
  2  5  1  0  0  0  0
  2  6  1  0  0  0  0
  3  7  1  6  0  0  0
  3  1  1  0  0  0  0
  3  2  1  0  0  0  0
  8 15  1  6  0  0  0
  8  9  1  0  0  0  0
  9 10  1  6  0  0  0
  9  3  1  0  0  0  0
 11 10  1  0  0  0  0
 12 10  1  0  0  0  0
 13 14  1  0  0  0  0
 13 12  1  0  0  0  0
 13  8  1  0  0  0  0
 15 16  1  0  0  0  0
 17 19  1  0  0  0  0
 17 22  1  0  0  0  0
 18 17  1  0  0  0  0
 20 26  1  0  0  0  0
 20 25  1  0  0  0  0
 21 20  2  0  0  0  0
 22 21  1  0  0  0  0
 22 23  2  0  0  0  0
 23 24  1  0  0  0  0
 24 25  2  0  0  0  0
 24 28  1  0  0  0  0
 27 21  1  0  0  0  0
M  END
>  <minimizedAffinity>
-4.38043976

$$$$

 OpenBabel03262520453D

 28 30  0  0  1  0  0  0  0  0999 V2000
   38.7110   23.4880   37.0920 C   0  0  1  0  0  0  0  0  0  0  0  0
   37.7640   24.2930   37.9820 C   0  0  0  0  0  0  0  0  0  0  0  0
   38.5200   24.9310   36.8860 C   0  0  2  0  0  0  0  0  0  0  0  0
   38.1950   22.7790   36.3930 H   0  0  0  0  0  0  0  0  0  0  0  0
   36.6660   24.0800   37.8710 H   0  0  0  0  0  0  0  0  0  0  0  0
   38.0880   24.5140   39.0270 H   0  0  0  0  0  0  0  0  0  0  0  0
   39.4050   25.5580   37.1840 H   0  0  0  0  0  0  0  0  0  0  0  0
   37.7760   26.9350   35.6030 C   0  0  2  0  0  3  0  0  0  0  0  0
   37.8990   25.4050   35.6140 C   0  0  1  0  0  3  0  0  0  0  0  0
   38.9760   25.2790   34.5300 C   0  0  0  0  0  3  0  0  0  0  0  0
   39.9170   25.6350   35.0390 H   0  0  0  0  0  0  0  0  0  0  0  0
   38.6910   26.2260   33.5720 O   0  0  0  0  0  0  0  0  0  0  0  0
   37.8780   27.1930   34.1350 C   0  0  0  0  0  3  0  0  0  0  0  0
   36.8630   27.1050   33.6990 H   0  0  0  0  0  0  0  0  0  0  0  0
   38.8810   27.4680   36.2360 O   0  0  0  0  0  0  0  0  0  0  0  0
   38.7910   27.5460   37.2180 H   0  0  0  0  0  0  0  0  0  0  0  0
   39.8940   22.9140   37.7910 C   0  0  0  0  0  0  0  0  0  0  0  0
   40.4470   23.7490   38.2740 H   0  0  0  0  0  0  0  0  0  0  0  0
   39.5830   22.2120   38.5890 H   0  0  0  0  0  0  0  0  0  0  0  0
   42.5790   20.6350   36.5270 C   0  0  0  0  0  0  0  0  0  0  0  0
   41.7100   21.3190   37.4200 C   0  0  0  0  0  0  0  0  0  0  0  0
   40.8060   22.1960   36.8560 C   0  0  0  0  0  0  0  0  0  0  0  0
   40.7790   22.3680   35.5130 N   0  0  0  0  0  0  0  0  0  0  0  0
   41.6230   21.6950   34.7050 C   0  0  0  0  0  0  0  0  0  0  0  0
   42.5130   20.8370   35.2140 N   0  0  0  0  0  0  0  0  0  0  0  0
   43.3000   19.9390   36.9450 H   0  0  0  0  0  0  0  0  0  0  0  0
   41.7700   21.1480   38.4940 H   0  0  0  0  0  0  0  0  0  0  0  0
   41.5400   21.8890   33.6300 H   0  0  0  0  0  0  0  0  0  0  0  0
  1  4  1  6  0  0  0
  1 17  1  0  0  0  0
  1  2  1  0  0  0  0
  2  6  1  0  0  0  0
  3  1  1  0  0  0  0
  3  7  1  1  0  0  0
  3  2  1  0  0  0  0
  5  2  1  0  0  0  0
  8  9  1  0  0  0  0
  8 15  1  1  0  0  0
  9 10  1  6  0  0  0
  9  3  1  0  0  0  0
 10 11  1  0  0  0  0
 12 13  1  0  0  0  0
 12 10  1  0  0  0  0
 13  8  1  0  0  0  0
 14 13  1  0  0  0  0
 15 16  1  0  0  0  0
 17 18  1  0  0  0  0
 17 19  1  0  0  0  0
 20 26  1  0  0  0  0
 20 21  1  0  0  0  0
 21 27  1  0  0  0  0
 22 21  2  0  0  0  0
 22 17  1  0  0  0  0
 23 22  1  0  0  0  0
 24 25  1  0  0  0  0
 24 23  2  0  0  0  0
 25 20  2  0  0  0  0
 28 24  1  0  0  0  0
M  END
>  <minimizedAffinity>
-4.36486673

$$$$

 OpenBabel03262520453D

 28 30  0  0  1  0  0  0  0  0999 V2000
   39.1340   26.0360   34.1520 C   0  0  1  0  0  0  0  0  0  0  0  0
   40.1920   27.0600   33.7420 C   0  0  0  0  0  0  0  0  0  0  0  0
   39.1280   26.6360   32.8100 C   0  0  2  0  0  0  0  0  0  0  0  0
   38.3940   26.4120   34.9060 H   0  0  0  0  0  0  0  0  0  0  0  0
   40.1440   28.0620   34.2480 H   0  0  0  0  0  0  0  0  0  0  0  0
   41.2270   26.6930   33.5420 H   0  0  0  0  0  0  0  0  0  0  0  0
   39.4300   25.9300   31.9890 H   0  0  0  0  0  0  0  0  0  0  0  0
   37.8590   27.5790   30.8820 C   0  0  2  0  0  3  0  0  0  0  0  0
   37.9800   27.5030   32.4100 C   0  0  1  0  0  3  0  0  0  0  0  0
   36.7070   26.6910   32.6760 C   0  0  0  0  0  3  0  0  0  0  0  0
   36.9700   25.6520   32.3260 H   0  0  0  0  0  0  0  0  0  0  0  0
   35.7510   27.1490   31.7970 O   0  0  0  0  0  0  0  0  0  0  0  0
   36.3860   27.7900   30.7480 C   0  0  0  0  0  3  0  0  0  0  0  0
   36.1860   28.8780   30.8210 H   0  0  0  0  0  0  0  0  0  0  0  0
   38.1920   26.3480   30.3540 O   0  0  0  0  0  0  0  0  0  0  0  0
   39.1600   26.2200   30.1930 H   0  0  0  0  0  0  0  0  0  0  0  0
   39.6570   24.6690   34.4290 C   0  0  0  0  0  0  0  0  0  0  0  0
   39.2110   23.9720   33.6860 H   0  0  0  0  0  0  0  0  0  0  0  0
   40.7570   24.6310   34.3060 H   0  0  0  0  0  0  0  0  0  0  0  0
   39.8360   22.8290   37.6830 C   0  0  0  0  0  0  0  0  0  0  0  0
   40.1600   23.2700   36.3710 C   0  0  0  0  0  0  0  0  0  0  0  0
   39.3180   24.2060   35.8050 C   0  0  0  0  0  0  0  0  0  0  0  0
   38.2460   24.6570   36.4980 N   0  0  0  0  0  0  0  0  0  0  0  0
   37.9790   24.2100   37.7410 C   0  0  0  0  0  0  0  0  0  0  0  0
   38.7710   23.3040   38.3240 N   0  0  0  0  0  0  0  0  0  0  0  0
   40.4830   22.0940   38.1510 H   0  0  0  0  0  0  0  0  0  0  0  0
   41.0350   22.8780   35.8520 H   0  0  0  0  0  0  0  0  0  0  0  0
   37.0930   24.6220   38.2370 H   0  0  0  0  0  0  0  0  0  0  0  0
  1 17  1  0  0  0  0
  1  4  1  1  0  0  0
  2  1  1  0  0  0  0
  2  5  1  0  0  0  0
  3  7  1  6  0  0  0
  3  2  1  0  0  0  0
  3  1  1  0  0  0  0
  6  2  1  0  0  0  0
  8 15  1  6  0  0  0
  8  9  1  0  0  0  0
  9 10  1  1  0  0  0
  9  3  1  0  0  0  0
 11 10  1  0  0  0  0
 12 10  1  0  0  0  0
 13 14  1  0  0  0  0
 13  8  1  0  0  0  0
 13 12  1  0  0  0  0
 16 15  1  0  0  0  0
 17 22  1  0  0  0  0
 18 17  1  0  0  0  0
 19 17  1  0  0  0  0
 20 26  1  0  0  0  0
 20 25  1  0  0  0  0
 21 20  2  0  0  0  0
 22 21  1  0  0  0  0
 22 23  2  0  0  0  0
 23 24  1  0  0  0  0
 24 28  1  0  0  0  0
 24 25  2  0  0  0  0
 27 21  1  0  0  0  0
M  END
>  <minimizedAffinity>
-4.21004391

$$$$

 OpenBabel03262520453D

 28 30  0  0  1  0  0  0  0  0999 V2000
   35.2920   29.9770   34.1160 C   0  0  1  0  0  0  0  0  0  0  0  0
   33.9040   29.9280   34.7530 C   0  0  0  0  0  0  0  0  0  0  0  0
   34.9710   30.7940   35.2940 C   0  0  2  0  0  0  0  0  0  0  0  0
   35.3230   30.4790   33.1130 H   0  0  0  0  0  0  0  0  0  0  0  0
   33.0600   30.3680   34.1550 H   0  0  0  0  0  0  0  0  0  0  0  0
   33.6290   29.0220   35.3430 H   0  0  0  0  0  0  0  0  0  0  0  0
   35.4670   30.4480   36.2430 H   0  0  0  0  0  0  0  0  0  0  0  0
   34.4900   32.9420   36.4650 C   0  0  2  0  0  3  0  0  0  0  0  0
   34.9790   32.2810   35.1690 C   0  0  1  0  0  3  0  0  0  0  0  0
   36.4460   32.7180   35.2570 C   0  0  0  0  0  3  0  0  0  0  0  0
   36.8730   32.0710   36.0750 H   0  0  0  0  0  0  0  0  0  0  0  0
   36.4500   34.0010   35.7570 O   0  0  0  0  0  0  0  0  0  0  0  0
   35.2480   34.2280   36.4020 C   0  0  0  0  0  3  0  0  0  0  0  0
   34.6540   34.9500   35.8070 H   0  0  0  0  0  0  0  0  0  0  0  0
   34.9440   32.1980   37.5350 O   0  0  0  0  0  0  0  0  0  0  0  0
   34.3550   31.4450   37.7880 H   0  0  0  0  0  0  0  0  0  0  0  0
   36.0630   28.7040   34.1930 C   0  0  0  0  0  0  0  0  0  0  0  0
   36.9090   28.8560   34.8970 H   0  0  0  0  0  0  0  0  0  0  0  0
   35.4360   27.8830   34.5930 H   0  0  0  0  0  0  0  0  0  0  0  0
   38.2130   27.0720   31.6010 C   0  0  0  0  0  0  0  0  0  0  0  0
   37.7050   27.4670   32.8690 C   0  0  0  0  0  0  0  0  0  0  0  0
   36.5960   28.2890   32.8640 C   0  0  0  0  0  0  0  0  0  0  0  0
   36.0480   28.6780   31.6880 N   0  0  0  0  0  0  0  0  0  0  0  0
   36.5640   28.2760   30.5100 C   0  0  0  0  0  0  0  0  0  0  0  0
   37.6380   27.4800   30.4730 N   0  0  0  0  0  0  0  0  0  0  0  0
   39.0840   26.4240   31.5760 H   0  0  0  0  0  0  0  0  0  0  0  0
   38.1800   27.1280   33.7890 H   0  0  0  0  0  0  0  0  0  0  0  0
   36.0650   28.6330   29.6020 H   0  0  0  0  0  0  0  0  0  0  0  0
  1  4  1  6  0  0  0
  1 17  1  0  0  0  0
  1  2  1  0  0  0  0
  1  3  1  0  0  0  0
  2  3  1  0  0  0  0
  2  6  1  0  0  0  0
  3  7  1  1  0  0  0
  5  2  1  0  0  0  0
  8 15  1  1  0  0  0
  9 10  1  1  0  0  0
  9  3  1  0  0  0  0
  9  8  1  0  0  0  0
 10 12  1  0  0  0  0
 10 11  1  0  0  0  0
 12 13  1  0  0  0  0
 13  8  1  0  0  0  0
 14 13  1  0  0  0  0
 15 16  1  0  0  0  0
 17 19  1  0  0  0  0
 17 18  1  0  0  0  0
 20 21  1  0  0  0  0
 21 27  1  0  0  0  0
 22 21  2  0  0  0  0
 22 17  1  0  0  0  0
 23 22  1  0  0  0  0
 24 23  2  0  0  0  0
 25 24  1  0  0  0  0
 25 20  2  0  0  0  0
 26 20  1  0  0  0  0
 28 24  1  0  0  0  0
M  END
>  <minimizedAffinity>
-4.16880274

$$$$

 OpenBabel03262520453D

 28 30  0  0  1  0  0  0  0  0999 V2000
   38.3070   25.8760   35.3000 C   0  0  1  0  0  0  0  0  0  0  0  0
   38.1620   27.3260   35.7590 C   0  0  0  0  0  0  0  0  0  0  0  0
   39.4680   26.7760   35.3440 C   0  0  2  0  0  0  0  0  0  0  0  0
   37.8400   25.6580   34.3040 H   0  0  0  0  0  0  0  0  0  0  0  0
   37.5890   28.0140   35.0790 H   0  0  0  0  0  0  0  0  0  0  0  0
   38.0080   27.5190   36.8470 H   0  0  0  0  0  0  0  0  0  0  0  0
   40.2000   26.5430   36.1660 H   0  0  0  0  0  0  0  0  0  0  0  0
   41.6340   26.7340   34.1110 C   0  0  2  0  0  3  0  0  0  0  0  0
   40.1540   27.1360   34.0680 C   0  0  1  0  0  3  0  0  0  0  0  0
   39.6940   26.1140   33.0220 C   0  0  0  0  0  3  0  0  0  0  0  0
   39.6980   25.1340   33.5800 H   0  0  0  0  0  0  0  0  0  0  0  0
   40.7030   26.0150   32.0910 O   0  0  0  0  0  0  0  0  0  0  0  0
   41.8760   26.4780   32.6580 C   0  0  0  0  0  3  0  0  0  0  0  0
   42.1480   27.4400   32.1800 H   0  0  0  0  0  0  0  0  0  0  0  0
   41.7460   25.5470   34.8060 O   0  0  0  0  0  0  0  0  0  0  0  0
   41.8270   25.6530   35.7860 H   0  0  0  0  0  0  0  0  0  0  0  0
   38.0290   24.8550   36.3480 C   0  0  0  0  0  0  0  0  0  0  0  0
   38.0280   25.3660   37.3360 H   0  0  0  0  0  0  0  0  0  0  0  0
   37.0290   24.4000   36.2050 H   0  0  0  0  0  0  0  0  0  0  0  0
   40.4090   22.2520   37.5990 C   0  0  0  0  0  0  0  0  0  0  0  0
   39.4370   23.2900   37.5920 C   0  0  0  0  0  0  0  0  0  0  0  0
   39.0470   23.7660   36.3570 C   0  0  0  0  0  0  0  0  0  0  0  0
   39.5870   23.2440   35.2300 N   0  0  0  0  0  0  0  0  0  0  0  0
   40.5050   22.2590   35.2870 C   0  0  0  0  0  0  0  0  0  0  0  0
   40.9090   21.7710   36.4650 N   0  0  0  0  0  0  0  0  0  0  0  0
   40.7330   21.8590   38.5580 H   0  0  0  0  0  0  0  0  0  0  0  0
   39.0320   23.6780   38.5260 H   0  0  0  0  0  0  0  0  0  0  0  0
   40.8950   21.8890   34.3320 H   0  0  0  0  0  0  0  0  0  0  0  0
  1  4  1  6  0  0  0
  1  3  1  0  0  0  0
  1  2  1  0  0  0  0
  1 17  1  0  0  0  0
  2  6  1  0  0  0  0
  3  2  1  0  0  0  0
  3  7  1  1  0  0  0
  5  2  1  0  0  0  0
  8 15  1  1  0  0  0
  9 10  1  6  0  0  0
  9  8  1  0  0  0  0
  9  3  1  0  0  0  0
 10 11  1  0  0  0  0
 12 13  1  0  0  0  0
 12 10  1  0  0  0  0
 13  8  1  0  0  0  0
 14 13  1  0  0  0  0
 15 16  1  0  0  0  0
 17 22  1  0  0  0  0
 17 18  1  0  0  0  0
 19 17  1  0  0  0  0
 20 26  1  0  0  0  0
 21 20  1  0  0  0  0
 21 27  1  0  0  0  0
 22 21  2  0  0  0  0
 23 24  2  0  0  0  0
 23 22  1  0  0  0  0
 24 25  1  0  0  0  0
 25 20  2  0  0  0  0
 28 24  1  0  0  0  0
M  END
>  <minimizedAffinity>
-4.12184811

$$$$

 OpenBabel03262520453D

 28 30  0  0  1  0  0  0  0  0999 V2000
   38.2560   26.2550   32.9180 C   0  0  1  0  0  0  0  0  0  0  0  0
   39.3400   26.7620   31.9670 C   0  0  0  0  0  0  0  0  0  0  0  0
   37.9090   27.0290   31.7180 C   0  0  2  0  0  0  0  0  0  0  0  0
   38.2330   26.7760   33.9110 H   0  0  0  0  0  0  0  0  0  0  0  0
   40.0130   27.5720   32.3570 H   0  0  0  0  0  0  0  0  0  0  0  0
   39.8460   26.0190   31.3060 H   0  0  0  0  0  0  0  0  0  0  0  0
   37.4180   26.4240   30.9070 H   0  0  0  0  0  0  0  0  0  0  0  0
   36.9220   28.9760   30.5130 C   0  0  2  0  0  3  0  0  0  0  0  0
   37.2740   28.3700   31.8790 C   0  0  1  0  0  3  0  0  0  0  0  0
   35.8420   28.1180   32.3660 C   0  0  0  0  0  3  0  0  0  0  0  0
   35.4970   27.2370   31.7540 H   0  0  0  0  0  0  0  0  0  0  0  0
   35.0820   29.1850   31.9410 O   0  0  0  0  0  0  0  0  0  0  0  0
   35.7390   29.8070   30.8950 C   0  0  0  0  0  3  0  0  0  0  0  0
   36.1090   30.7930   31.2400 H   0  0  0  0  0  0  0  0  0  0  0  0
   36.5110   27.9590   29.6750 O   0  0  0  0  0  0  0  0  0  0  0  0
   37.2460   27.5020   29.1960 H   0  0  0  0  0  0  0  0  0  0  0  0
   38.1310   24.7730   32.9960 C   0  0  0  0  0  0  0  0  0  0  0  0
   37.1860   24.4800   32.4880 H   0  0  0  0  0  0  0  0  0  0  0  0
   38.9660   24.2750   32.4650 H   0  0  0  0  0  0  0  0  0  0  0  0
   38.0040   24.7760   36.7360 C   0  0  0  0  0  0  0  0  0  0  0  0
   38.0270   25.2430   35.3930 C   0  0  0  0  0  0  0  0  0  0  0  0
   38.1070   24.2840   34.4040 C   0  0  0  0  0  0  0  0  0  0  0  0
   38.1590   22.9730   34.7370 N   0  0  0  0  0  0  0  0  0  0  0  0
   38.1330   22.5770   36.0250 C   0  0  0  0  0  0  0  0  0  0  0  0
   38.0560   23.4760   37.0120 N   0  0  0  0  0  0  0  0  0  0  0  0
   37.9410   25.5100   37.5330 H   0  0  0  0  0  0  0  0  0  0  0  0
   37.9820   26.3100   35.1750 H   0  0  0  0  0  0  0  0  0  0  0  0
   38.1800   21.4990   36.2140 H   0  0  0  0  0  0  0  0  0  0  0  0
  1 17  1  0  0  0  0
  1  4  1  1  0  0  0
  2  5  1  0  0  0  0
  2  1  1  0  0  0  0
  3  7  1  6  0  0  0
  3  9  1  0  0  0  0
  3  2  1  0  0  0  0
  3  1  1  0  0  0  0
  6  2  1  0  0  0  0
  8 15  1  6  0  0  0
  8 13  1  0  0  0  0
  8  9  1  0  0  0  0
  9 10  1  1  0  0  0
 11 10  1  0  0  0  0
 12 10  1  0  0  0  0
 13 14  1  0  0  0  0
 13 12  1  0  0  0  0
 16 15  1  0  0  0  0
 17 22  1  0  0  0  0
 18 17  1  0  0  0  0
 19 17  1  0  0  0  0
 20 25  1  0  0  0  0
 20 26  1  0  0  0  0
 21 20  2  0  0  0  0
 22 23  2  0  0  0  0
 22 21  1  0  0  0  0
 23 24  1  0  0  0  0
 24 28  1  0  0  0  0
 24 25  2  0  0  0  0
 27 21  1  0  0  0  0
M  END
>  <minimizedAffinity>
-4.10070562

$$$$

 OpenBabel03262520453D

 28 30  0  0  1  0  0  0  0  0999 V2000
   37.2230   26.7920   34.5890 C   0  0  1  0  0  0  0  0  0  0  0  0
   36.3430   28.0400   34.5190 C   0  0  0  0  0  0  0  0  0  0  0  0
   37.3940   27.7800   33.5150 C   0  0  2  0  0  0  0  0  0  0  0  0
   36.6870   25.8350   34.3520 H   0  0  0  0  0  0  0  0  0  0  0  0
   35.2600   27.8780   34.2690 H   0  0  0  0  0  0  0  0  0  0  0  0
   36.5290   28.8550   35.2590 H   0  0  0  0  0  0  0  0  0  0  0  0
   38.3330   28.3930   33.5990 H   0  0  0  0  0  0  0  0  0  0  0  0
   36.3120   28.4580   31.3730 C   0  0  2  0  0  3  0  0  0  0  0  0
   37.1150   27.3740   32.1060 C   0  0  1  0  0  3  0  0  0  0  0  0
   38.4310   27.5380   31.3360 C   0  0  0  0  0  3  0  0  0  0  0  0
   38.8550   28.5070   31.7270 H   0  0  0  0  0  0  0  0  0  0  0  0
   38.0970   27.7810   30.0230 O   0  0  0  0  0  0  0  0  0  0  0  0
   36.7910   28.2350   29.9750 C   0  0  0  0  0  3  0  0  0  0  0  0
   36.1570   27.4510   29.5150 H   0  0  0  0  0  0  0  0  0  0  0  0
   36.7450   29.6940   31.8100 O   0  0  0  0  0  0  0  0  0  0  0  0
   36.2920   30.0200   32.6260 H   0  0  0  0  0  0  0  0  0  0  0  0
   38.1170   26.7190   35.7790 C   0  0  0  0  0  0  0  0  0  0  0  0
   39.0450   27.2860   35.5470 H   0  0  0  0  0  0  0  0  0  0  0  0
   37.6440   27.1950   36.6610 H   0  0  0  0  0  0  0  0  0  0  0  0
   39.8440   23.4000   35.7610 C   0  0  0  0  0  0  0  0  0  0  0  0
   39.5080   24.7400   35.4240 C   0  0  0  0  0  0  0  0  0  0  0  0
   38.4710   25.3150   36.1310 C   0  0  0  0  0  0  0  0  0  0  0  0
   37.8310   24.6040   37.0890 N   0  0  0  0  0  0  0  0  0  0  0  0
   38.1860   23.3360   37.3740 C   0  0  0  0  0  0  0  0  0  0  0  0
   39.1860   22.7440   36.7120 N   0  0  0  0  0  0  0  0  0  0  0  0
   40.6570   22.9240   35.2200 H   0  0  0  0  0  0  0  0  0  0  0  0
   40.0530   25.2710   34.6440 H   0  0  0  0  0  0  0  0  0  0  0  0
   37.6210   22.8270   38.1620 H   0  0  0  0  0  0  0  0  0  0  0  0
  1  4  1  6  0  0  0
  1 17  1  0  0  0  0
  2  1  1  0  0  0  0
  2  6  1  0  0  0  0
  3  7  1  1  0  0  0
  3  2  1  0  0  0  0
  3  1  1  0  0  0  0
  5  2  1  0  0  0  0
  8 15  1  1  0  0  0
  8  9  1  0  0  0  0
  9 10  1  6  0  0  0
  9  3  1  0  0  0  0
 10 11  1  0  0  0  0
 12 10  1  0  0  0  0
 13 12  1  0  0  0  0
 13  8  1  0  0  0  0
 14 13  1  0  0  0  0
 15 16  1  0  0  0  0
 17 22  1  0  0  0  0
 17 19  1  0  0  0  0
 18 17  1  0  0  0  0
 20 25  1  0  0  0  0
 21 20  2  0  0  0  0
 21 22  1  0  0  0  0
 22 23  2  0  0  0  0
 23 24  1  0  0  0  0
 24 28  1  0  0  0  0
 25 24  2  0  0  0  0
 26 20  1  0  0  0  0
 27 21  1  0  0  0  0
M  END
>  <minimizedAffinity>
-4.07218742

$$$$

 OpenBabel03262520453D

 28 30  0  0  1  0  0  0  0  0999 V2000
   38.4390   23.1570   33.5680 C   0  0  1  0  0  0  0  0  0  0  0  0
   39.3930   22.7980   32.4300 C   0  0  0  0  0  0  0  0  0  0  0  0
   37.9700   23.0970   32.1770 C   0  0  2  0  0  0  0  0  0  0  0  0
   38.6230   24.1650   34.0240 H   0  0  0  0  0  0  0  0  0  0  0  0
   40.1890   23.5520   32.1830 H   0  0  0  0  0  0  0  0  0  0  0  0
   39.7200   21.7350   32.3350 H   0  0  0  0  0  0  0  0  0  0  0  0
   37.3030   22.2190   31.9540 H   0  0  0  0  0  0  0  0  0  0  0  0
   36.0770   24.1550   30.9470 C   0  0  2  0  0  3  0  0  0  0  0  0
   37.4870   24.3480   31.5210 C   0  0  1  0  0  3  0  0  0  0  0  0
   37.1180   25.3170   32.6500 C   0  0  0  0  0  3  0  0  0  0  0  0
   36.5980   24.6660   33.4080 H   0  0  0  0  0  0  0  0  0  0  0  0
   36.1460   26.1570   32.1530 O   0  0  0  0  0  0  0  0  0  0  0  0
   35.5590   25.5520   31.0560 C   0  0  0  0  0  3  0  0  0  0  0  0
   35.8590   26.1030   30.1410 H   0  0  0  0  0  0  0  0  0  0  0  0
   35.3640   23.3380   31.8010 O   0  0  0  0  0  0  0  0  0  0  0  0
   35.4800   22.3700   31.6330 H   0  0  0  0  0  0  0  0  0  0  0  0
   38.2010   22.0670   34.5560 C   0  0  0  0  0  0  0  0  0  0  0  0
   37.1180   21.8180   34.5400 H   0  0  0  0  0  0  0  0  0  0  0  0
   38.7610   21.1520   34.2800 H   0  0  0  0  0  0  0  0  0  0  0  0
   38.0180   23.4940   38.0100 C   0  0  0  0  0  0  0  0  0  0  0  0
   37.6410   23.1140   36.6930 C   0  0  0  0  0  0  0  0  0  0  0  0
   38.5960   22.4640   35.9370 C   0  0  0  0  0  0  0  0  0  0  0  0
   39.8200   22.2180   36.4610 N   0  0  0  0  0  0  0  0  0  0  0  0
   40.1310   22.5960   37.7170 C   0  0  0  0  0  0  0  0  0  0  0  0
   39.2340   23.2280   38.4800 N   0  0  0  0  0  0  0  0  0  0  0  0
   37.2850   24.0060   38.6260 H   0  0  0  0  0  0  0  0  0  0  0  0
   36.6430   23.3350   36.3150 H   0  0  0  0  0  0  0  0  0  0  0  0
   41.1420   22.3620   38.0690 H   0  0  0  0  0  0  0  0  0  0  0  0
  1  4  1  1  0  0  0
  1 17  1  0  0  0  0
  2  1  1  0  0  0  0
  3  7  1  6  0  0  0
  3  2  1  0  0  0  0
  3  1  1  0  0  0  0
  5  2  1  0  0  0  0
  6  2  1  0  0  0  0
  8 13  1  0  0  0  0
  8  9  1  0  0  0  0
  8 15  1  1  0  0  0
  9  3  1  0  0  0  0
  9 10  1  1  0  0  0
 10 11  1  0  0  0  0
 12 10  1  0  0  0  0
 13 12  1  0  0  0  0
 14 13  1  0  0  0  0
 16 15  1  0  0  0  0
 17 22  1  0  0  0  0
 18 17  1  0  0  0  0
 19 17  1  0  0  0  0
 20 25  1  0  0  0  0
 20 26  1  0  0  0  0
 21 20  2  0  0  0  0
 22 23  2  0  0  0  0
 22 21  1  0  0  0  0
 23 24  1  0  0  0  0
 24 28  1  0  0  0  0
 24 25  2  0  0  0  0
 27 21  1  0  0  0  0
M  END
>  <minimizedAffinity>
-4.05757427

$$$$
