
 OpenBabel03272505233D

 35 38  0  0  1  0  0  0  0  0999 V2000
   40.0460   24.5300   32.2730 Br  0  0  0  0  0  0  0  0  0  0  0  0
   39.1790   25.6150   33.5880 C   0  0  0  0  0  0  0  0  0  0  0  0
   39.9330   26.3550   34.4740 C   0  0  0  0  0  0  0  0  0  0  0  0
   39.2530   27.1380   35.4120 C   0  0  0  0  0  0  0  0  0  0  0  0
   37.8740   27.1470   35.4230 C   0  0  0  0  0  0  0  0  0  0  0  0
   37.1150   26.3980   34.5250 C   0  0  0  0  0  0  0  0  0  0  0  0
   37.7920   25.6350   33.6120 C   0  0  0  0  0  0  0  0  0  0  0  0
   39.8640   27.7100   36.0970 H   0  0  0  0  0  0  0  0  0  0  0  0
   37.3730   27.7660   36.1650 H   0  0  0  0  0  0  0  0  0  0  0  0
   36.0350   26.4360   34.5700 H   0  0  0  0  0  0  0  0  0  0  0  0
   43.5160   27.0690   33.5310 C   0  0  0  0  0  0  0  0  0  0  0  0
   42.1230   27.1530   33.6210 C   0  0  0  0  0  0  0  0  0  0  0  0
   41.3820   26.2690   34.3720 C   0  0  0  0  0  0  0  0  0  0  0  0
   42.0910   25.2990   35.0280 N   0  0  0  0  0  0  0  0  0  0  0  0
   43.4350   25.2100   34.9450 C   0  0  0  0  0  0  0  0  0  0  0  0
   44.1490   26.0780   34.2100 N   0  0  0  0  0  0  0  0  0  0  0  0
   44.1030   27.7630   32.9410 H   0  0  0  0  0  0  0  0  0  0  0  0
   41.7050   27.9510   33.0450 H   0  0  0  0  0  0  0  0  0  0  0  0
   43.9290   24.4070   35.4970 H   0  0  0  0  0  0  0  0  0  0  0  0
   37.0510   24.8240   32.6390 C   0  0  0  0  0  0  0  0  0  0  0  0
   36.3020   25.2980   31.5970 C   0  0  0  0  0  0  0  0  0  0  0  0
   35.7670   24.2820   30.9060 N   0  0  0  0  0  0  0  0  0  0  0  0
   36.1820   23.1430   31.5160 C   0  0  0  0  0  0  0  0  0  0  0  0
   36.9620   23.4550   32.5700 N   0  0  0  0  0  0  0  0  0  0  0  0
   36.1220   26.3280   31.3120 H   0  0  0  0  0  0  0  0  0  0  0  0
   35.1480   24.3430   30.0570 H   0  0  0  0  0  0  0  0  0  0  0  0
   35.0210   21.0320   32.1830 C   0  0  1  0  0  3  0  0  0  0  0  0
   35.8680   21.7400   31.1380 C   0  0  2  0  0  3  0  0  0  0  0  0
   37.0960   20.8590   31.1770 C   0  0  0  0  0  3  0  0  0  0  0  0
   37.6430   21.1450   32.1060 H   0  0  0  0  0  0  0  0  0  0  0  0
   36.6530   19.5610   31.3590 O   0  0  0  0  0  0  0  0  0  0  0  0
   35.3310   19.5870   31.7730 C   0  0  0  0  0  3  0  0  0  0  0  0
   34.6950   19.3570   30.8850 H   0  0  0  0  0  0  0  0  0  0  0  0
   35.4750   21.2300   33.4770 O   0  0  0  0  0  0  0  0  0  0  0  0
   36.2640   20.6420   33.6000 H   0  0  0  0  0  0  0  0  0  0  0  0
  1  2  1  0  0  0  0
  2  7  2  0  0  0  0
  2  3  1  0  0  0  0
  3  4  2  0  0  0  0
  4  5  1  0  0  0  0
  4  8  1  0  0  0  0
  5  9  1  0  0  0  0
  6 10  1  0  0  0  0
  6  5  2  0  0  0  0
  7  6  1  0  0  0  0
 11 12  2  0  0  0  0
 11 16  1  0  0  0  0
 12 13  1  0  0  0  0
 13  3  1  0  0  0  0
 13 14  2  0  0  0  0
 15 14  1  0  0  0  0
 15 19  1  0  0  0  0
 16 15  2  0  0  0  0
 17 11  1  0  0  0  0
 18 12  1  0  0  0  0
 20  7  1  0  0  0  0
 21 20  2  0  0  0  0
 22 23  1  0  0  0  0
 22 21  1  0  0  0  0
 23 24  2  0  0  0  0
 24 20  1  0  0  0  0
 25 21  1  0  0  0  0
 26 22  1  0  0  0  0
 27 34  1  1  0  0  0
 28 29  1  0  0  0  0
 28 23  1  1  0  0  0
 28 27  1  0  0  0  0
 29 31  1  0  0  0  0
 29 30  1  0  0  0  0
 31 32  1  0  0  0  0
 32 27  1  0  0  0  0
 33 32  1  0  0  0  0
 34 35  1  0  0  0  0
M  END
>  <minimizedAffinity>
-5.65199184

$$$$

 OpenBabel03272505233D

 35 38  0  0  1  0  0  0  0  0999 V2000
   37.9370   27.4550   34.9750 Br  0  0  0  0  0  0  0  0  0  0  0  0
   37.2580   26.4510   33.4950 C   0  0  0  0  0  0  0  0  0  0  0  0
   37.5940   25.1210   33.3550 C   0  0  0  0  0  0  0  0  0  0  0  0
   37.0670   24.4280   32.2620 C   0  0  0  0  0  0  0  0  0  0  0  0
   36.2410   25.0830   31.3720 C   0  0  0  0  0  0  0  0  0  0  0  0
   35.9030   26.4280   31.5170 C   0  0  0  0  0  0  0  0  0  0  0  0
   36.4260   27.0950   32.5910 C   0  0  0  0  0  0  0  0  0  0  0  0
   37.3430   23.3870   32.1710 H   0  0  0  0  0  0  0  0  0  0  0  0
   35.8450   24.5170   30.5300 H   0  0  0  0  0  0  0  0  0  0  0  0
   35.2520   26.9010   30.7950 H   0  0  0  0  0  0  0  0  0  0  0  0
   40.6820   23.9440   35.1780 C   0  0  0  0  0  0  0  0  0  0  0  0
   39.8420   24.5070   34.2110 C   0  0  0  0  0  0  0  0  0  0  0  0
   38.4730   24.5320   34.3540 C   0  0  0  0  0  0  0  0  0  0  0  0
   37.9800   23.9710   35.5020 N   0  0  0  0  0  0  0  0  0  0  0  0
   38.7840   23.4250   36.4380 C   0  0  0  0  0  0  0  0  0  0  0  0
   40.1180   23.4070   36.2890 N   0  0  0  0  0  0  0  0  0  0  0  0
   41.7600   23.9230   35.0690 H   0  0  0  0  0  0  0  0  0  0  0  0
   40.3650   24.8930   33.3630 H   0  0  0  0  0  0  0  0  0  0  0  0
   38.3140   22.9970   37.3270 H   0  0  0  0  0  0  0  0  0  0  0  0
   36.1090   28.5130   32.8010 C   0  0  0  0  0  0  0  0  0  0  0  0
   36.3930   29.5380   31.9420 C   0  0  0  0  0  0  0  0  0  0  0  0
   35.9590   30.7030   32.4450 N   0  0  0  0  0  0  0  0  0  0  0  0
   35.3910   30.4140   33.6430 C   0  0  0  0  0  0  0  0  0  0  0  0
   35.4740   29.0900   33.8740 N   0  0  0  0  0  0  0  0  0  0  0  0
   36.8910   29.4920   30.9800 H   0  0  0  0  0  0  0  0  0  0  0  0
   36.0390   31.6570   32.0070 H   0  0  0  0  0  0  0  0  0  0  0  0
   35.7390   31.8840   35.6350 C   0  0  1  0  0  3  0  0  0  0  0  0
   34.7570   31.3590   34.6010 C   0  0  2  0  0  3  0  0  0  0  0  0
   33.7840   30.6560   35.5200 C   0  0  0  0  0  3  0  0  0  0  0  0
   34.2850   29.7060   35.8220 H   0  0  0  0  0  0  0  0  0  0  0  0
   33.6780   31.4320   36.6610 O   0  0  0  0  0  0  0  0  0  0  0  0
   34.7230   32.3410   36.6890 C   0  0  0  0  0  3  0  0  0  0  0  0
   34.3220   33.3260   36.3500 H   0  0  0  0  0  0  0  0  0  0  0  0
   36.5320   30.8920   36.1880 O   0  0  0  0  0  0  0  0  0  0  0  0
   35.9720   30.4070   36.8470 H   0  0  0  0  0  0  0  0  0  0  0  0
  2  1  1  0  0  0  0
  3  2  1  0  0  0  0
  3 13  1  0  0  0  0
  4  3  2  0  0  0  0
  5  6  2  0  0  0  0
  5  4  1  0  0  0  0
  6  7  1  0  0  0  0
  7 20  1  0  0  0  0
  7  2  2  0  0  0  0
  8  4  1  0  0  0  0
  9  5  1  0  0  0  0
 10  6  1  0  0  0  0
 11 16  1  0  0  0  0
 12 13  1  0  0  0  0
 12 11  2  0  0  0  0
 13 14  2  0  0  0  0
 14 15  1  0  0  0  0
 15 19  1  0  0  0  0
 16 15  2  0  0  0  0
 17 11  1  0  0  0  0
 18 12  1  0  0  0  0
 20 24  1  0  0  0  0
 21 22  1  0  0  0  0
 21 20  2  0  0  0  0
 22 23  1  0  0  0  0
 23 24  2  0  0  0  0
 25 21  1  0  0  0  0
 26 22  1  0  0  0  0
 27 34  1  1  0  0  0
 27 32  1  0  0  0  0
 28 23  1  6  0  0  0
 28 29  1  0  0  0  0
 28 27  1  0  0  0  0
 29 30  1  0  0  0  0
 29 31  1  0  0  0  0
 31 32  1  0  0  0  0
 33 32  1  0  0  0  0
 34 35  1  0  0  0  0
M  END
>  <minimizedAffinity>
-5.59413767

$$$$

 OpenBabel03272505233D

 35 38  0  0  1  0  0  0  0  0999 V2000
   39.5280   25.3630   34.2900 Br  0  0  0  0  0  0  0  0  0  0  0  0
   38.5210   23.8730   33.6340 C   0  0  0  0  0  0  0  0  0  0  0  0
   38.0820   22.9030   34.5100 C   0  0  0  0  0  0  0  0  0  0  0  0
   37.3440   21.8380   33.9840 C   0  0  0  0  0  0  0  0  0  0  0  0
   37.0830   21.7900   32.6310 C   0  0  0  0  0  0  0  0  0  0  0  0
   37.5290   22.7730   31.7490 C   0  0  0  0  0  0  0  0  0  0  0  0
   38.2510   23.8100   32.2750 C   0  0  0  0  0  0  0  0  0  0  0  0
   37.0090   21.0890   34.6880 H   0  0  0  0  0  0  0  0  0  0  0  0
   36.5060   20.9490   32.2510 H   0  0  0  0  0  0  0  0  0  0  0  0
   37.3020   22.6950   30.6950 H   0  0  0  0  0  0  0  0  0  0  0  0
   39.8930   22.7070   37.8150 C   0  0  0  0  0  0  0  0  0  0  0  0
   39.5760   22.5520   36.4610 C   0  0  0  0  0  0  0  0  0  0  0  0
   38.4150   23.0550   35.9180 C   0  0  0  0  0  0  0  0  0  0  0  0
   37.5860   23.7160   36.7840 N   0  0  0  0  0  0  0  0  0  0  0  0
   37.8840   23.8680   38.0910 C   0  0  0  0  0  0  0  0  0  0  0  0
   39.0200   23.3750   38.6110 N   0  0  0  0  0  0  0  0  0  0  0  0
   40.8060   22.3140   38.2460 H   0  0  0  0  0  0  0  0  0  0  0  0
   40.3090   22.0020   35.9110 H   0  0  0  0  0  0  0  0  0  0  0  0
   37.1710   24.4080   38.7180 H   0  0  0  0  0  0  0  0  0  0  0  0
   38.7500   24.8780   31.4000 C   0  0  0  0  0  0  0  0  0  0  0  0
   39.8510   24.8090   30.5920 C   0  0  0  0  0  0  0  0  0  0  0  0
   40.0150   25.9610   29.9270 N   0  0  0  0  0  0  0  0  0  0  0  0
   39.0020   26.7760   30.3170 C   0  0  0  0  0  0  0  0  0  0  0  0
   38.2260   26.1330   31.2120 N   0  0  0  0  0  0  0  0  0  0  0  0
   40.5370   23.9800   30.4580 H   0  0  0  0  0  0  0  0  0  0  0  0
   40.7740   26.1980   29.2370 H   0  0  0  0  0  0  0  0  0  0  0  0
   37.2880   28.5830   30.1100 C   0  0  1  0  0  3  0  0  0  0  0  0
   38.7300   28.1680   29.8710 C   0  0  2  0  0  3  0  0  0  0  0  0
   38.7760   28.2940   28.3650 C   0  0  0  0  0  3  0  0  0  0  0  0
   38.2420   27.3980   27.9700 H   0  0  0  0  0  0  0  0  0  0  0  0
   38.0090   29.3960   28.0310 O   0  0  0  0  0  0  0  0  0  0  0  0
   37.2290   29.7520   29.1190 C   0  0  0  0  0  3  0  0  0  0  0  0
   37.7190   30.6230   29.6140 H   0  0  0  0  0  0  0  0  0  0  0  0
   36.3710   27.6220   29.7130 O   0  0  0  0  0  0  0  0  0  0  0  0
   36.3070   27.6730   28.7260 H   0  0  0  0  0  0  0  0  0  0  0  0
  2  1  1  0  0  0  0
  2  3  1  0  0  0  0
  3 13  1  0  0  0  0
  4  3  2  0  0  0  0
  4  8  1  0  0  0  0
  5  4  1  0  0  0  0
  6  7  1  0  0  0  0
  6  5  2  0  0  0  0
  7  2  2  0  0  0  0
  9  5  1  0  0  0  0
 10  6  1  0  0  0  0
 11 17  1  0  0  0  0
 11 16  1  0  0  0  0
 12 11  2  0  0  0  0
 13 12  1  0  0  0  0
 13 14  2  0  0  0  0
 14 15  1  0  0  0  0
 15 16  2  0  0  0  0
 15 19  1  0  0  0  0
 18 12  1  0  0  0  0
 20  7  1  0  0  0  0
 21 20  2  0  0  0  0
 22 23  1  0  0  0  0
 22 21  1  0  0  0  0
 23 24  2  0  0  0  0
 24 20  1  0  0  0  0
 25 21  1  0  0  0  0
 26 22  1  0  0  0  0
 27 34  1  6  0  0  0
 28 27  1  0  0  0  0
 28 23  1  6  0  0  0
 29 28  1  0  0  0  0
 30 29  1  0  0  0  0
 31 29  1  0  0  0  0
 31 32  1  0  0  0  0
 32 33  1  0  0  0  0
 32 27  1  0  0  0  0
 35 34  1  0  0  0  0
M  END
>  <minimizedAffinity>
-5.51084661

$$$$

 OpenBabel03272505233D

 35 38  0  0  1  0  0  0  0  0999 V2000
   38.1760   26.8960   33.5750 Br  0  0  0  0  0  0  0  0  0  0  0  0
   37.1560   25.5920   32.6150 C   0  0  0  0  0  0  0  0  0  0  0  0
   36.2660   25.9960   31.6430 C   0  0  0  0  0  0  0  0  0  0  0  0
   35.5500   25.0060   30.9640 C   0  0  0  0  0  0  0  0  0  0  0  0
   35.7510   23.6790   31.2820 C   0  0  0  0  0  0  0  0  0  0  0  0
   36.6510   23.2740   32.2650 C   0  0  0  0  0  0  0  0  0  0  0  0
   37.3470   24.2530   32.9230 C   0  0  0  0  0  0  0  0  0  0  0  0
   34.8580   25.3450   30.2060 H   0  0  0  0  0  0  0  0  0  0  0  0
   35.1780   22.9300   30.7360 H   0  0  0  0  0  0  0  0  0  0  0  0
   36.7770   22.2230   32.4820 H   0  0  0  0  0  0  0  0  0  0  0  0
   36.6900   29.4340   30.1440 C   0  0  0  0  0  0  0  0  0  0  0  0
   36.8250   28.0620   30.3860 C   0  0  0  0  0  0  0  0  0  0  0  0
   36.1340   27.4230   31.3900 C   0  0  0  0  0  0  0  0  0  0  0  0
   35.3060   28.2120   32.1430 N   0  0  0  0  0  0  0  0  0  0  0  0
   35.1710   29.5350   31.9180 C   0  0  0  0  0  0  0  0  0  0  0  0
   35.8480   30.1490   30.9340 N   0  0  0  0  0  0  0  0  0  0  0  0
   37.2300   29.9400   29.3540 H   0  0  0  0  0  0  0  0  0  0  0  0
   37.5170   27.5790   29.7300 H   0  0  0  0  0  0  0  0  0  0  0  0
   34.4900   30.0960   32.5620 H   0  0  0  0  0  0  0  0  0  0  0  0
   38.3110   23.8940   33.9700 C   0  0  0  0  0  0  0  0  0  0  0  0
   38.1140   24.0040   35.3190 C   0  0  0  0  0  0  0  0  0  0  0  0
   39.1990   23.5830   35.9850 N   0  0  0  0  0  0  0  0  0  0  0  0
   40.0990   23.1980   35.0450 C   0  0  0  0  0  0  0  0  0  0  0  0
   39.5760   23.3810   33.8170 N   0  0  0  0  0  0  0  0  0  0  0  0
   37.2390   24.3690   35.8440 H   0  0  0  0  0  0  0  0  0  0  0  0
   39.3360   23.5510   37.0280 H   0  0  0  0  0  0  0  0  0  0  0  0
   41.4580   21.3890   36.1080 C   0  0  1  0  0  3  0  0  0  0  0  0
   41.4650   22.6510   35.2620 C   0  0  2  0  0  3  0  0  0  0  0  0
   42.2910   23.5450   36.1590 C   0  0  0  0  0  3  0  0  0  0  0  0
   41.6090   23.8600   36.9840 H   0  0  0  0  0  0  0  0  0  0  0  0
   43.2670   22.7470   36.7310 O   0  0  0  0  0  0  0  0  0  0  0  0
   42.9250   21.4170   36.5540 C   0  0  0  0  0  3  0  0  0  0  0  0
   43.5310   21.0230   35.7040 H   0  0  0  0  0  0  0  0  0  0  0  0
   40.6530   21.4900   37.2320 O   0  0  0  0  0  0  0  0  0  0  0  0
   41.1520   22.0310   37.8970 H   0  0  0  0  0  0  0  0  0  0  0  0
  2  7  1  0  0  0  0
  2  1  1  0  0  0  0
  3  2  2  0  0  0  0
  4  5  2  0  0  0  0
  4  3  1  0  0  0  0
  5  6  1  0  0  0  0
  6 10  1  0  0  0  0
  6  7  2  0  0  0  0
  7 20  1  0  0  0  0
  8  4  1  0  0  0  0
  9  5  1  0  0  0  0
 11 12  2  0  0  0  0
 11 16  1  0  0  0  0
 12 13  1  0  0  0  0
 13  3  1  0  0  0  0
 13 14  2  0  0  0  0
 15 14  1  0  0  0  0
 15 19  1  0  0  0  0
 16 15  2  0  0  0  0
 17 11  1  0  0  0  0
 18 12  1  0  0  0  0
 20 21  2  0  0  0  0
 21 25  1  0  0  0  0
 21 22  1  0  0  0  0
 22 26  1  0  0  0  0
 23 22  1  0  0  0  0
 24 20  1  0  0  0  0
 24 23  2  0  0  0  0
 27 32  1  0  0  0  0
 27 34  1  1  0  0  0
 28 23  1  1  0  0  0
 28 27  1  0  0  0  0
 28 29  1  0  0  0  0
 29 31  1  0  0  0  0
 29 30  1  0  0  0  0
 32 31  1  0  0  0  0
 33 32  1  0  0  0  0
 34 35  1  0  0  0  0
M  END
>  <minimizedAffinity>
-5.45688868

$$$$

 OpenBabel03272505233D

 35 38  0  0  1  0  0  0  0  0999 V2000
   39.0050   25.2890   34.1480 Br  0  0  0  0  0  0  0  0  0  0  0  0
   37.9540   23.7790   33.6200 C   0  0  0  0  0  0  0  0  0  0  0  0
   37.8950   22.6660   34.4310 C   0  0  0  0  0  0  0  0  0  0  0  0
   37.1080   21.5930   34.0070 C   0  0  0  0  0  0  0  0  0  0  0  0
   36.4270   21.6760   32.8110 C   0  0  0  0  0  0  0  0  0  0  0  0
   36.4890   22.8030   31.9930 C   0  0  0  0  0  0  0  0  0  0  0  0
   37.2630   23.8480   32.4200 C   0  0  0  0  0  0  0  0  0  0  0  0
   37.0750   20.7300   34.6580 H   0  0  0  0  0  0  0  0  0  0  0  0
   35.8220   20.8240   32.5060 H   0  0  0  0  0  0  0  0  0  0  0  0
   35.9380   22.8250   31.0630 H   0  0  0  0  0  0  0  0  0  0  0  0
   38.8790   23.2170   38.0330 C   0  0  0  0  0  0  0  0  0  0  0  0
   38.1450   23.2050   36.8420 C   0  0  0  0  0  0  0  0  0  0  0  0
   38.6550   22.6870   35.6730 C   0  0  0  0  0  0  0  0  0  0  0  0
   39.9260   22.1840   35.7440 N   0  0  0  0  0  0  0  0  0  0  0  0
   40.6400   22.1930   36.8890 C   0  0  0  0  0  0  0  0  0  0  0  0
   40.1340   22.7000   38.0240 N   0  0  0  0  0  0  0  0  0  0  0  0
   38.4810   23.6230   38.9560 H   0  0  0  0  0  0  0  0  0  0  0  0
   37.1750   23.6440   36.9330 H   0  0  0  0  0  0  0  0  0  0  0  0
   41.6480   21.7730   36.8650 H   0  0  0  0  0  0  0  0  0  0  0  0
   37.3700   25.0650   31.6050 C   0  0  0  0  0  0  0  0  0  0  0  0
   38.2580   25.2770   30.5870 C   0  0  0  0  0  0  0  0  0  0  0  0
   38.0780   26.4940   30.0550 N   0  0  0  0  0  0  0  0  0  0  0  0
   37.0590   27.0650   30.7450 C   0  0  0  0  0  0  0  0  0  0  0  0
   36.6190   26.2110   31.6900 N   0  0  0  0  0  0  0  0  0  0  0  0
   39.0230   24.6060   30.2100 H   0  0  0  0  0  0  0  0  0  0  0  0
   38.6130   26.9300   29.2600 H   0  0  0  0  0  0  0  0  0  0  0  0
   37.2730   29.2650   29.5770 C   0  0  1  0  0  3  0  0  0  0  0  0
   36.4680   28.4160   30.5460 C   0  0  2  0  0  3  0  0  0  0  0  0
   36.5930   29.2720   31.7860 C   0  0  0  0  0  3  0  0  0  0  0  0
   37.6240   29.0940   32.1730 H   0  0  0  0  0  0  0  0  0  0  0  0
   36.5440   30.5900   31.3700 O   0  0  0  0  0  0  0  0  0  0  0  0
   36.7440   30.6410   30.0010 C   0  0  0  0  0  3  0  0  0  0  0  0
   35.7460   30.7690   29.5180 H   0  0  0  0  0  0  0  0  0  0  0  0
   38.6370   29.2230   29.8170 O   0  0  0  0  0  0  0  0  0  0  0  0
   38.8110   29.8060   30.6000 H   0  0  0  0  0  0  0  0  0  0  0  0
  2  1  1  0  0  0  0
  2  3  1  0  0  0  0
  3 13  1  0  0  0  0
  4  3  2  0  0  0  0
  4  8  1  0  0  0  0
  5  4  1  0  0  0  0
  6  7  1  0  0  0  0
  6  5  2  0  0  0  0
  7  2  2  0  0  0  0
  9  5  1  0  0  0  0
 10  6  1  0  0  0  0
 11 17  1  0  0  0  0
 12 18  1  0  0  0  0
 12 11  2  0  0  0  0
 13 14  2  0  0  0  0
 13 12  1  0  0  0  0
 14 15  1  0  0  0  0
 15 16  2  0  0  0  0
 16 11  1  0  0  0  0
 19 15  1  0  0  0  0
 20 24  1  0  0  0  0
 20  7  1  0  0  0  0
 21 20  2  0  0  0  0
 22 21  1  0  0  0  0
 22 23  1  0  0  0  0
 23 24  2  0  0  0  0
 25 21  1  0  0  0  0
 26 22  1  0  0  0  0
 27 34  1  1  0  0  0
 27 32  1  0  0  0  0
 27 28  1  0  0  0  0
 28 23  1  1  0  0  0
 28 29  1  0  0  0  0
 29 30  1  0  0  0  0
 31 29  1  0  0  0  0
 32 31  1  0  0  0  0
 33 32  1  0  0  0  0
 34 35  1  0  0  0  0
M  END
>  <minimizedAffinity>
-5.42691851

$$$$

 OpenBabel03272505233D

 35 38  0  0  1  0  0  0  0  0999 V2000
   36.5790   23.5160   31.2920 Br  0  0  0  0  0  0  0  0  0  0  0  0
   37.4320   23.3740   32.9990 C   0  0  0  0  0  0  0  0  0  0  0  0
   37.5100   22.1500   33.6280 C   0  0  0  0  0  0  0  0  0  0  0  0
   38.1490   22.0970   34.8700 C   0  0  0  0  0  0  0  0  0  0  0  0
   38.6730   23.2490   35.4190 C   0  0  0  0  0  0  0  0  0  0  0  0
   38.5930   24.4850   34.7800 C   0  0  0  0  0  0  0  0  0  0  0  0
   37.9640   24.5240   33.5640 C   0  0  0  0  0  0  0  0  0  0  0  0
   38.2000   21.1270   35.3460 H   0  0  0  0  0  0  0  0  0  0  0  0
   39.1650   23.1760   36.3870 H   0  0  0  0  0  0  0  0  0  0  0  0
   39.0170   25.3620   35.2470 H   0  0  0  0  0  0  0  0  0  0  0  0
   35.0640   19.4970   32.5250 C   0  0  0  0  0  0  0  0  0  0  0  0
   35.6240   20.6000   33.1770 C   0  0  0  0  0  0  0  0  0  0  0  0
   36.9230   21.0000   32.9570 C   0  0  0  0  0  0  0  0  0  0  0  0
   37.6360   20.2520   32.0590 N   0  0  0  0  0  0  0  0  0  0  0  0
   37.1030   19.1870   31.4260 C   0  0  0  0  0  0  0  0  0  0  0  0
   35.8350   18.8050   31.6480 N   0  0  0  0  0  0  0  0  0  0  0  0
   34.0420   19.1790   32.6940 H   0  0  0  0  0  0  0  0  0  0  0  0
   34.9550   21.0780   33.8600 H   0  0  0  0  0  0  0  0  0  0  0  0
   37.7370   18.6400   30.7240 H   0  0  0  0  0  0  0  0  0  0  0  0
   37.8460   25.7950   32.8380 C   0  0  0  0  0  0  0  0  0  0  0  0
   36.9850   26.8150   33.1350 C   0  0  0  0  0  0  0  0  0  0  0  0
   37.1450   27.8280   32.2710 N   0  0  0  0  0  0  0  0  0  0  0  0
   38.1240   27.4460   31.4120 C   0  0  0  0  0  0  0  0  0  0  0  0
   38.5590   26.2140   31.7420 N   0  0  0  0  0  0  0  0  0  0  0  0
   36.2530   26.8680   33.9330 H   0  0  0  0  0  0  0  0  0  0  0  0
   36.6230   28.7410   32.2540 H   0  0  0  0  0  0  0  0  0  0  0  0
   37.5950   28.8390   29.4050 C   0  0  1  0  0  3  0  0  0  0  0  0
   38.6790   28.2130   30.2650 C   0  0  2  0  0  3  0  0  0  0  0  0
   39.3150   27.3050   29.2370 C   0  0  0  0  0  3  0  0  0  0  0  0
   38.6210   26.4380   29.1290 H   0  0  0  0  0  0  0  0  0  0  0  0
   39.2960   27.9850   28.0330 O   0  0  0  0  0  0  0  0  0  0  0  0
   38.4230   29.0560   28.1320 C   0  0  0  0  0  3  0  0  0  0  0  0
   39.0340   29.9760   28.2940 H   0  0  0  0  0  0  0  0  0  0  0  0
   36.5580   27.9670   29.1130 O   0  0  0  0  0  0  0  0  0  0  0  0
   36.8840   27.3580   28.4020 H   0  0  0  0  0  0  0  0  0  0  0  0
  1  2  1  0  0  0  0
  2  7  2  0  0  0  0
  2  3  1  0  0  0  0
  3  4  2  0  0  0  0
  4  8  1  0  0  0  0
  4  5  1  0  0  0  0
  5  9  1  0  0  0  0
  6 10  1  0  0  0  0
  6  5  2  0  0  0  0
  7  6  1  0  0  0  0
 11 17  1  0  0  0  0
 11 12  1  0  0  0  0
 12 18  1  0  0  0  0
 13 12  2  0  0  0  0
 13  3  1  0  0  0  0
 14 13  1  0  0  0  0
 15 16  1  0  0  0  0
 15 14  2  0  0  0  0
 16 11  2  0  0  0  0
 19 15  1  0  0  0  0
 20 21  2  0  0  0  0
 20  7  1  0  0  0  0
 21 25  1  0  0  0  0
 22 21  1  0  0  0  0
 23 24  2  0  0  0  0
 23 22  1  0  0  0  0
 24 20  1  0  0  0  0
 26 22  1  0  0  0  0
 27 34  1  6  0  0  0
 27 28  1  0  0  0  0
 28 23  1  1  0  0  0
 29 28  1  0  0  0  0
 30 29  1  0  0  0  0
 31 32  1  0  0  0  0
 31 29  1  0  0  0  0
 32 33  1  0  0  0  0
 32 27  1  0  0  0  0
 35 34  1  0  0  0  0
M  END
>  <minimizedAffinity>
-5.4093399

$$$$

 OpenBabel03272505233D

 35 38  0  0  1  0  0  0  0  0999 V2000
   35.8470   26.2970   30.9970 Br  0  0  0  0  0  0  0  0  0  0  0  0
   36.6770   26.5360   32.7040 C   0  0  0  0  0  0  0  0  0  0  0  0
   36.5920   27.7540   33.3450 C   0  0  0  0  0  0  0  0  0  0  0  0
   37.2080   27.8770   34.5930 C   0  0  0  0  0  0  0  0  0  0  0  0
   37.8700   26.7960   35.1370 C   0  0  0  0  0  0  0  0  0  0  0  0
   37.9540   25.5660   34.4870 C   0  0  0  0  0  0  0  0  0  0  0  0
   37.3470   25.4580   33.2650 C   0  0  0  0  0  0  0  0  0  0  0  0
   37.1290   28.8400   35.0780 H   0  0  0  0  0  0  0  0  0  0  0  0
   38.3400   26.9220   36.1110 H   0  0  0  0  0  0  0  0  0  0  0  0
   38.4840   24.7460   34.9510 H   0  0  0  0  0  0  0  0  0  0  0  0
   35.7480   30.6540   31.0830 C   0  0  0  0  0  0  0  0  0  0  0  0
   36.4510   29.6300   31.7240 C   0  0  0  0  0  0  0  0  0  0  0  0
   35.8680   28.8250   32.6770 C   0  0  0  0  0  0  0  0  0  0  0  0
   34.5550   29.0890   32.9620 N   0  0  0  0  0  0  0  0  0  0  0  0
   33.8700   30.0760   32.3480 C   0  0  0  0  0  0  0  0  0  0  0  0
   34.4480   30.8550   31.4190 N   0  0  0  0  0  0  0  0  0  0  0  0
   36.2030   31.2890   30.3320 H   0  0  0  0  0  0  0  0  0  0  0  0
   37.4700   29.5500   31.4120 H   0  0  0  0  0  0  0  0  0  0  0  0
   32.8250   30.2250   32.6300 H   0  0  0  0  0  0  0  0  0  0  0  0
   37.3980   24.1900   32.5280 C   0  0  0  0  0  0  0  0  0  0  0  0
   38.4610   23.7180   31.8090 C   0  0  0  0  0  0  0  0  0  0  0  0
   38.1680   22.5270   31.2680 N   0  0  0  0  0  0  0  0  0  0  0  0
   36.8980   22.2370   31.6480 C   0  0  0  0  0  0  0  0  0  0  0  0
   36.4170   23.2360   32.4130 N   0  0  0  0  0  0  0  0  0  0  0  0
   39.4290   24.1820   31.6550 H   0  0  0  0  0  0  0  0  0  0  0  0
   38.7900   21.9280   30.6660 H   0  0  0  0  0  0  0  0  0  0  0  0
   35.0740   20.6930   32.3830 C   0  0  1  0  0  3  0  0  0  0  0  0
   36.1000   21.0270   31.3130 C   0  0  2  0  0  3  0  0  0  0  0  0
   36.9370   19.7690   31.3730 C   0  0  0  0  0  3  0  0  0  0  0  0
   37.5650   19.8670   32.2900 H   0  0  0  0  0  0  0  0  0  0  0  0
   36.0660   18.7180   31.5950 O   0  0  0  0  0  0  0  0  0  0  0  0
   34.8460   19.2220   32.0140 C   0  0  0  0  0  3  0  0  0  0  0  0
   34.1560   19.2090   31.1370 H   0  0  0  0  0  0  0  0  0  0  0  0
   35.5880   20.7510   33.6680 O   0  0  0  0  0  0  0  0  0  0  0  0
   36.1190   19.9250   33.8050 H   0  0  0  0  0  0  0  0  0  0  0  0
  1  2  1  0  0  0  0
  2  7  2  0  0  0  0
  2  3  1  0  0  0  0
  3  4  2  0  0  0  0
  4  8  1  0  0  0  0
  4  5  1  0  0  0  0
  5  9  1  0  0  0  0
  6 10  1  0  0  0  0
  6  5  2  0  0  0  0
  7  6  1  0  0  0  0
 11 16  2  0  0  0  0
 11 12  1  0  0  0  0
 12 13  2  0  0  0  0
 13 14  1  0  0  0  0
 13  3  1  0  0  0  0
 15 19  1  0  0  0  0
 15 14  2  0  0  0  0
 16 15  1  0  0  0  0
 17 11  1  0  0  0  0
 18 12  1  0  0  0  0
 20  7  1  0  0  0  0
 21 20  2  0  0  0  0
 22 23  1  0  0  0  0
 22 21  1  0  0  0  0
 23 24  2  0  0  0  0
 24 20  1  0  0  0  0
 25 21  1  0  0  0  0
 26 22  1  0  0  0  0
 27 34  1  1  0  0  0
 28 29  1  0  0  0  0
 28 23  1  1  0  0  0
 28 27  1  0  0  0  0
 29 31  1  0  0  0  0
 29 30  1  0  0  0  0
 31 32  1  0  0  0  0
 32 27  1  0  0  0  0
 33 32  1  0  0  0  0
 34 35  1  0  0  0  0
M  END
>  <minimizedAffinity>
-5.33404922

$$$$

 OpenBabel03272505233D

 35 38  0  0  1  0  0  0  0  0999 V2000
   38.6140   25.7600   34.7300 Br  0  0  0  0  0  0  0  0  0  0  0  0
   37.9870   24.1480   33.9120 C   0  0  0  0  0  0  0  0  0  0  0  0
   37.9700   22.9740   34.6330 C   0  0  0  0  0  0  0  0  0  0  0  0
   37.4960   21.8240   33.9950 C   0  0  0  0  0  0  0  0  0  0  0  0
   37.0680   21.8980   32.6850 C   0  0  0  0  0  0  0  0  0  0  0  0
   37.0870   23.0870   31.9590 C   0  0  0  0  0  0  0  0  0  0  0  0
   37.5530   24.2060   32.5950 C   0  0  0  0  0  0  0  0  0  0  0  0
   37.4900   20.9140   34.5790 H   0  0  0  0  0  0  0  0  0  0  0  0
   36.7040   20.9860   32.2140 H   0  0  0  0  0  0  0  0  0  0  0  0
   36.7420   23.0980   30.9350 H   0  0  0  0  0  0  0  0  0  0  0  0
   40.1750   22.6850   37.6820 C   0  0  0  0  0  0  0  0  0  0  0  0
   39.7230   22.6400   36.3590 C   0  0  0  0  0  0  0  0  0  0  0  0
   38.4450   23.0120   36.0090 C   0  0  0  0  0  0  0  0  0  0  0  0
   37.6390   23.4280   37.0340 N   0  0  0  0  0  0  0  0  0  0  0  0
   38.0670   23.4730   38.3130 C   0  0  0  0  0  0  0  0  0  0  0  0
   39.3160   23.1090   38.6440 N   0  0  0  0  0  0  0  0  0  0  0  0
   41.1800   22.3950   37.9620 H   0  0  0  0  0  0  0  0  0  0  0  0
   40.4560   22.2820   35.6690 H   0  0  0  0  0  0  0  0  0  0  0  0
   37.3640   23.8150   39.0750 H   0  0  0  0  0  0  0  0  0  0  0  0
   37.5990   25.4900   31.8860 C   0  0  0  0  0  0  0  0  0  0  0  0
   36.5480   26.3430   31.6940 C   0  0  0  0  0  0  0  0  0  0  0  0
   36.9430   27.4260   31.0100 N   0  0  0  0  0  0  0  0  0  0  0  0
   38.2670   27.2590   30.7620 C   0  0  0  0  0  0  0  0  0  0  0  0
   38.6800   26.0890   31.2870 N   0  0  0  0  0  0  0  0  0  0  0  0
   35.5190   26.2280   32.0190 H   0  0  0  0  0  0  0  0  0  0  0  0
   36.3530   28.2470   30.7170 H   0  0  0  0  0  0  0  0  0  0  0  0
   38.4410   29.0820   29.0610 C   0  0  1  0  0  3  0  0  0  0  0  0
   39.1800   28.1800   30.0350 C   0  0  2  0  0  3  0  0  0  0  0  0
   40.0660   27.4380   29.0590 C   0  0  0  0  0  3  0  0  0  0  0  0
   39.4050   26.6920   28.5580 H   0  0  0  0  0  0  0  0  0  0  0  0
   40.4470   28.3480   28.0900 O   0  0  0  0  0  0  0  0  0  0  0  0
   39.6310   29.4640   28.1710 C   0  0  0  0  0  3  0  0  0  0  0  0
   40.1980   30.2600   28.7100 H   0  0  0  0  0  0  0  0  0  0  0  0
   37.5120   28.4050   28.2880 O   0  0  0  0  0  0  0  0  0  0  0  0
   38.0170   27.9230   27.5840 H   0  0  0  0  0  0  0  0  0  0  0  0
  2  3  1  0  0  0  0
  2  1  1  0  0  0  0
  3 13  1  0  0  0  0
  4  8  1  0  0  0  0
  4  3  2  0  0  0  0
  5  4  1  0  0  0  0
  6  7  1  0  0  0  0
  6  5  2  0  0  0  0
  7  2  2  0  0  0  0
  9  5  1  0  0  0  0
 10  6  1  0  0  0  0
 11 17  1  0  0  0  0
 11 16  1  0  0  0  0
 12 11  2  0  0  0  0
 13 12  1  0  0  0  0
 13 14  2  0  0  0  0
 14 15  1  0  0  0  0
 15 16  2  0  0  0  0
 15 19  1  0  0  0  0
 18 12  1  0  0  0  0
 20  7  1  0  0  0  0
 21 20  2  0  0  0  0
 21 25  1  0  0  0  0
 22 21  1  0  0  0  0
 23 22  1  0  0  0  0
 23 24  2  0  0  0  0
 24 20  1  0  0  0  0
 26 22  1  0  0  0  0
 27 34  1  6  0  0  0
 27 28  1  0  0  0  0
 28 23  1  6  0  0  0
 29 28  1  0  0  0  0
 30 29  1  0  0  0  0
 31 32  1  0  0  0  0
 31 29  1  0  0  0  0
 32 33  1  0  0  0  0
 32 27  1  0  0  0  0
 35 34  1  0  0  0  0
M  END
>  <minimizedAffinity>
-5.31082392

$$$$

 OpenBabel03272505233D

 35 38  0  0  1  0  0  0  0  0999 V2000
   38.0870   26.4380   35.2090 Br  0  0  0  0  0  0  0  0  0  0  0  0
   37.7790   25.0120   33.9710 C   0  0  0  0  0  0  0  0  0  0  0  0
   38.0150   23.7080   34.3520 C   0  0  0  0  0  0  0  0  0  0  0  0
   37.7670   22.7010   33.4150 C   0  0  0  0  0  0  0  0  0  0  0  0
   37.3030   23.0350   32.1600 C   0  0  0  0  0  0  0  0  0  0  0  0
   37.0660   24.3550   31.7780 C   0  0  0  0  0  0  0  0  0  0  0  0
   37.3120   25.3320   32.7040 C   0  0  0  0  0  0  0  0  0  0  0  0
   37.9590   21.6860   33.7350 H   0  0  0  0  0  0  0  0  0  0  0  0
   37.1200   22.2300   31.4510 H   0  0  0  0  0  0  0  0  0  0  0  0
   36.7020   24.5700   30.7830 H   0  0  0  0  0  0  0  0  0  0  0  0
   40.2730   22.8950   37.2640 C   0  0  0  0  0  0  0  0  0  0  0  0
   39.8080   23.1150   35.9640 C   0  0  0  0  0  0  0  0  0  0  0  0
   38.5040   23.4720   35.7020 C   0  0  0  0  0  0  0  0  0  0  0  0
   37.6870   23.5970   36.7940 N   0  0  0  0  0  0  0  0  0  0  0  0
   38.1280   23.3840   38.0510 C   0  0  0  0  0  0  0  0  0  0  0  0
   39.4020   23.0380   38.2950 N   0  0  0  0  0  0  0  0  0  0  0  0
   41.2980   22.6150   37.4740 H   0  0  0  0  0  0  0  0  0  0  0  0
   40.5530   22.9670   35.2120 H   0  0  0  0  0  0  0  0  0  0  0  0
   37.4140   23.5030   38.8690 H   0  0  0  0  0  0  0  0  0  0  0  0
   37.0820   26.7410   32.3650 C   0  0  0  0  0  0  0  0  0  0  0  0
   37.9010   27.5330   31.6090 C   0  0  0  0  0  0  0  0  0  0  0  0
   37.3860   28.7650   31.4940 N   0  0  0  0  0  0  0  0  0  0  0  0
   36.2200   28.7580   32.1890 C   0  0  0  0  0  0  0  0  0  0  0  0
   36.0210   27.5370   32.7240 N   0  0  0  0  0  0  0  0  0  0  0  0
   38.8430   27.2710   31.1390 H   0  0  0  0  0  0  0  0  0  0  0  0
   37.7950   29.5820   30.9720 H   0  0  0  0  0  0  0  0  0  0  0  0
   35.5240   30.6640   33.6480 C   0  0  1  0  0  3  0  0  0  0  0  0
   35.2620   29.8810   32.3730 C   0  0  2  0  0  3  0  0  0  0  0  0
   33.8660   29.3840   32.6700 C   0  0  0  0  0  3  0  0  0  0  0  0
   33.9910   28.5480   33.3980 H   0  0  0  0  0  0  0  0  0  0  0  0
   33.2120   30.4030   33.3420 O   0  0  0  0  0  0  0  0  0  0  0  0
   34.1460   31.3240   33.7850 C   0  0  0  0  0  3  0  0  0  0  0  0
   34.1280   32.1890   33.0800 H   0  0  0  0  0  0  0  0  0  0  0  0
   35.7360   29.8540   34.7520 O   0  0  0  0  0  0  0  0  0  0  0  0
   34.8490   29.5220   35.0420 H   0  0  0  0  0  0  0  0  0  0  0  0
  2  3  1  0  0  0  0
  2  1  1  0  0  0  0
  3 13  1  0  0  0  0
  4  8  1  0  0  0  0
  4  3  2  0  0  0  0
  5  4  1  0  0  0  0
  6  5  2  0  0  0  0
  6  7  1  0  0  0  0
  7  2  2  0  0  0  0
  9  5  1  0  0  0  0
 10  6  1  0  0  0  0
 11 17  1  0  0  0  0
 11 16  1  0  0  0  0
 12 11  2  0  0  0  0
 13 12  1  0  0  0  0
 13 14  2  0  0  0  0
 14 15  1  0  0  0  0
 15 16  2  0  0  0  0
 15 19  1  0  0  0  0
 18 12  1  0  0  0  0
 20  7  1  0  0  0  0
 20 24  1  0  0  0  0
 21 20  2  0  0  0  0
 22 21  1  0  0  0  0
 22 23  1  0  0  0  0
 23 24  2  0  0  0  0
 25 21  1  0  0  0  0
 26 22  1  0  0  0  0
 27 32  1  0  0  0  0
 27 34  1  1  0  0  0
 28 23  1  1  0  0  0
 28 29  1  0  0  0  0
 28 27  1  0  0  0  0
 29 31  1  0  0  0  0
 29 30  1  0  0  0  0
 31 32  1  0  0  0  0
 33 32  1  0  0  0  0
 34 35  1  0  0  0  0
M  END
>  <minimizedAffinity>
-5.27951527

$$$$
