
 OpenBabel03272507503D

 28 30  0  0  1  0  0  0  0  0999 V2000
   36.4670   30.1110   47.9060 C   0  0  0  0  0  0  0  0  0  0  0  0
   36.7090   30.5810   46.6040 C   0  0  0  0  0  0  0  0  0  0  0  0
   35.6630   30.4840   45.6930 C   0  0  0  0  0  0  0  0  0  0  0  0
   34.4860   29.9550   46.0860 N   0  0  0  0  0  0  0  0  0  0  0  0
   34.2860   29.5100   47.3520 C   0  0  0  0  0  0  0  0  0  0  0  0
   35.2840   29.5850   48.2800 N   0  0  0  0  0  0  0  0  0  0  0  0
   35.8510   30.8470   44.6850 H   0  0  0  0  0  0  0  0  0  0  0  0
   33.2900   29.1070   47.5360 H   0  0  0  0  0  0  0  0  0  0  0  0
   37.9850   31.1140   46.3100 N   0  0  0  0  0  0  0  0  0  0  0  0
   38.4030   32.2920   46.7800 C   0  0  0  0  0  0  0  0  0  0  0  0
   39.6720   32.7820   46.4680 C   0  0  0  0  0  0  0  0  0  0  0  0
   40.4070   31.9380   45.6500 C   0  0  0  0  0  0  0  0  0  0  0  0
   41.5650   32.3800   45.3630 O   0  0  0  0  0  0  0  0  0  0  0  0
   40.0300   30.7560   45.1570 N   0  0  0  0  0  0  0  0  0  0  0  0
   38.7880   30.3620   45.5120 C   0  0  0  0  0  0  0  0  0  0  0  0
   38.4170   29.2380   45.0480 O   0  0  0  0  0  0  0  0  0  0  0  0
   37.7820   32.9100   47.4100 H   0  0  0  0  0  0  0  0  0  0  0  0
   40.0430   33.7150   46.8220 H   0  0  0  0  0  0  0  0  0  0  0  0
   40.6640   30.1980   44.5480 H   0  0  0  0  0  0  0  0  0  0  0  0
   37.3010   31.2590   49.9590 C   0  0  2  0  0  3  0  0  0  0  0  0
   37.4470   30.1220   49.0190 C   0  0  1  0  0  3  0  0  0  0  0  0
   37.3570   28.9090   49.8840 C   0  0  0  0  0  3  0  0  0  0  0  0
   38.1450   28.1510   49.6040 H   0  0  0  0  0  0  0  0  0  0  0  0
   37.6020   29.2790   51.1870 O   0  0  0  0  0  0  0  0  0  0  0  0
   37.3490   30.6260   51.3210 C   0  0  0  0  0  3  0  0  0  0  0  0
   36.3870   30.8210   51.8580 H   0  0  0  0  0  0  0  0  0  0  0  0
   36.0860   31.8930   49.7640 O   0  0  0  0  0  0  0  0  0  0  0  0
   35.7110   32.1350   50.6530 H   0  0  0  0  0  0  0  0  0  0  0  0
  1  6  1  0  0  0  0
  2  1  2  0  0  0  0
  3  4  2  0  0  0  0
  3  2  1  0  0  0  0
  4  5  1  0  0  0  0
  5  8  1  0  0  0  0
  5  6  2  0  0  0  0
  7  3  1  0  0  0  0
  9  2  1  0  0  0  0
  9 10  1  0  0  0  0
 10 17  1  0  0  0  0
 11 10  2  0  0  0  0
 11 18  1  0  0  0  0
 12 11  1  0  0  0  0
 13 12  2  0  0  0  0
 14 15  1  0  0  0  0
 14 12  1  0  0  0  0
 15  9  1  0  0  0  0
 16 15  2  0  0  0  0
 19 14  1  0  0  0  0
 20 27  1  6  0  0  0
 20 25  1  0  0  0  0
 21  1  1  6  0  0  0
 21 22  1  0  0  0  0
 21 20  1  0  0  0  0
 22 24  1  0  0  0  0
 23 22  1  0  0  0  0
 24 25  1  0  0  0  0
 25 26  1  0  0  0  0
 27 28  1  0  0  0  0
M  END
>  <minimizedAffinity>
-4.58032751

>  <minimizedRMSD>
2.40807247

$$$$
